/home/hjpark/lecture_drug1/0905_agent/pde5_harness/sample_run/structures/work/ligand_ref.pdb


 34 37  0  0  0  0  0  0  0  0999 V2000
    0.4199   64.1382   83.8725 C   0  0  0  0  0  0  0  0  0  0  0  0
    0.1456   63.3972   82.6582 C   0  0  0  0  0  0  0  0  0  0  0  0
   -0.6904   62.1988   82.6773 C   0  0  0  0  0  0  0  0  0  0  0  0
   -1.2545   61.7722   83.9973 C   0  0  0  0  0  0  0  0  0  0  0  0
   -0.9896   62.5042   85.2315 C   0  0  0  0  0  0  0  0  0  0  0  0
   -0.1369   63.7081   85.2019 C   0  0  0  0  0  0  0  0  0  0  0  0
    4.3083   67.1422   84.8185 C   0  0  0  0  0  0  0  0  0  0  0  0
    4.6390   68.3683   84.2267 N   0  0  0  0  0  0  0  0  0  0  0  0
    3.7036   68.6722   83.2803 N   0  0  0  0  0  0  0  0  0  0  0  0
    3.7576   69.8958   82.4755 C   0  0  0  0  0  0  0  0  0  0  0  0
    2.7879   67.6507   83.2688 C   0  0  0  0  0  0  0  0  0  0  0  0
    1.5977   67.3945   82.5075 C   0  0  0  0  0  0  0  0  0  0  0  0
    1.1834   68.1454   81.6546 O   0  0  0  0  0  0  0  0  0  0  0  0
    0.8826   66.2266   82.7641 N   0  0  0  0  0  0  0  0  0  0  0  0
    1.2582   65.2768   83.7245 C   0  0  0  0  0  0  0  0  0  0  0  0
    2.4133   65.4809   84.4883 N   0  0  0  0  0  0  0  0  0  0  0  0
    3.1539   66.6711   84.2396 C   0  0  0  0  0  0  0  0  0  0  0  0
    2.7011   64.8296   85.1681 H   0  0  0  0  0  0  0  0  0  0  0  0
    5.0976   66.4701   85.8952 C   0  0  0  0  0  0  0  0  0  0  0  0
    7.4318   65.9438   85.0199 C   0  0  0  0  0  0  0  0  0  0  0  0
    6.0034   65.4753   85.0914 C   0  0  0  0  0  0  0  0  0  0  0  0
   -0.9768   61.3589   81.3446 S   0  0  0  0  0  0  0  0  0  0  0  0
    0.0832   60.8885   80.7139 O   0  0  0  0  0  0  0  0  0  0  0  0
   -1.6928   60.3009   81.6446 O   0  0  0  0  0  0  0  0  0  0  0  0
   -1.7896   62.4304   80.4960 N   0  0  0  0  0  0  0  0  0  0  0  0
   -3.2776   62.0244   80.1580 C   0  0  0  0  0  0  0  0  0  0  0  0
   -3.5020   61.1118   78.9368 C   0  0  0  0  0  0  0  0  0  0  0  0
   -2.6127   61.3593   77.7519 N   0  0  0  0  0  0  0  0  0  0  0  0
   -3.4612   61.8553   76.6240 C   0  0  0  0  0  0  0  0  0  0  0  0
   -1.3965   62.2753   77.9081 C   0  0  0  0  0  0  0  0  0  0  0  0
   -1.2444   63.0941   79.2460 C   0  0  0  0  0  0  0  0  0  0  0  0
    0.2025   64.4866   86.3739 O   0  0  0  0  0  0  0  0  0  0  0  0
   -0.2115   64.1789   87.7201 C   0  0  0  0  0  0  0  0  0  0  0  0
    0.9171   63.3396   88.2955 C   0  0  0  0  0  0  0  0  0  0  0  0
 20 21  1  0  0  0
 21 19  1  0  0  0
 19  7  1  0  0  0
  7 17  1  0  0  0
  7  8  2  0  0  0
  8  9  1  0  0  0
  9 10  1  0  0  0
 11  9  1  0  0  0
 11 12  1  0  0  0
 12 13  2  0  0  0
 14 12  1  0  0  0
 15 14  2  0  0  0
 16 17  1  0  0  0
 16 15  1  0  0  0
 16 18  1  0  0  0
 17 11  2  0  0  0
  1 15  1  0  0  0
  1  6  1  0  0  0
  2  1  2  0  0  0
  3  2  1  0  0  0
  3  4  2  0  0  0
  4  5  1  0  0  0
  5  6  2  0  0  0
  6 32  1  0  0  0
 32 33  1  0  0  0
 33 34  1  0  0  0
 22 24  2  0  0  0
 22 25  1  0  0  0
 22  3  1  0  0  0
 23 22  2  0  0  0
 25 26  1  0  0  0
 27 26  1  0  0  0
 28 29  1  0  0  0
 28 27  1  0  0  0
 30 28  1  0  0  0
 30 31  1  0  0  0
 31 25  1  0  0  0
M  END
> <minimizedAffinity>
-9.63268

$$$$
/home/hjpark/lecture_drug1/0905_agent/pde5_harness/sample_run/structures/work/ligand_ref.pdb


 34 37  0  0  0  0  0  0  0  0999 V2000
    2.1304   67.1869   83.3302 C   0  0  0  0  0  0  0  0  0  0  0  0
    1.5768   68.1639   82.4149 C   0  0  0  0  0  0  0  0  0  0  0  0
    2.3227   69.3671   82.0527 C   0  0  0  0  0  0  0  0  0  0  0  0
    3.6800   69.5462   82.6597 C   0  0  0  0  0  0  0  0  0  0  0  0
    4.2550   68.5744   83.5839 C   0  0  0  0  0  0  0  0  0  0  0  0
    3.4893   67.3672   83.9494 C   0  0  0  0  0  0  0  0  0  0  0  0
   -0.1247   63.7323   86.1620 C   0  0  0  0  0  0  0  0  0  0  0  0
   -0.9772   62.6917   85.7706 N   0  0  0  0  0  0  0  0  0  0  0  0
   -1.1394   62.7349   84.4160 N   0  0  0  0  0  0  0  0  0  0  0  0
   -1.9747   61.7773   83.6860 C   0  0  0  0  0  0  0  0  0  0  0  0
   -0.3992   63.7918   83.9500 C   0  0  0  0  0  0  0  0  0  0  0  0
   -0.1697   64.3422   82.6439 C   0  0  0  0  0  0  0  0  0  0  0  0
   -0.6662   63.8890   81.6383 O   0  0  0  0  0  0  0  0  0  0  0  0
    0.6672   65.4499   82.5265 N   0  0  0  0  0  0  0  0  0  0  0  0
    1.3011   66.0675   83.6137 C   0  0  0  0  0  0  0  0  0  0  0  0
    1.1043   65.5693   84.9069 N   0  0  0  0  0  0  0  0  0  0  0  0
    0.2534   64.4359   85.0433 C   0  0  0  0  0  0  0  0  0  0  0  0
    1.5356   65.9846   85.6884 H   0  0  0  0  0  0  0  0  0  0  0  0
    0.2877   64.0184   87.5699 C   0  0  0  0  0  0  0  0  0  0  0  0
    0.2724   62.1142   89.2626 C   0  0  0  0  0  0  0  0  0  0  0  0
   -0.5764   63.0057   88.3967 C   0  0  0  0  0  0  0  0  0  0  0  0
    1.7074   70.4649   81.0629 S   0  0  0  0  0  0  0  0  0  0  0  0
    2.5637   71.0720   80.2622 O   0  0  0  0  0  0  0  0  0  0  0  0
    0.8408   69.8898   80.2627 O   0  0  0  0  0  0  0  0  0  0  0  0
    1.0206   71.4458   82.1093 N   0  0  0  0  0  0  0  0  0  0  0  0
   -0.4495   71.8902   81.7420 C   0  0  0  0  0  0  0  0  0  0  0  0
   -0.6084   73.0691   80.7627 C   0  0  0  0  0  0  0  0  0  0  0  0
    0.3904   74.1827   80.8980 N   0  0  0  0  0  0  0  0  0  0  0  0
   -0.3338   75.4097   81.3540 C   0  0  0  0  0  0  0  0  0  0  0  0
    1.6288   73.9742   81.7729 C   0  0  0  0  0  0  0  0  0  0  0  0
    1.7015   72.6800   82.6691 C   0  0  0  0  0  0  0  0  0  0  0  0
    3.9631   66.3592   84.8737 O   0  0  0  0  0  0  0  0  0  0  0  0
    5.3430   65.9807   85.0495 C   0  0  0  0  0  0  0  0  0  0  0  0
    5.3598   65.1341   86.3114 C   0  0  0  0  0  0  0  0  0  0  0  0
 20 21  1  0  0  0
 21 19  1  0  0  0
 19  7  1  0  0  0
  7 17  1  0  0  0
  7  8  2  0  0  0
  8  9  1  0  0  0
  9 10  1  0  0  0
 11  9  1  0  0  0
 11 12  1  0  0  0
 12 13  2  0  0  0
 14 12  1  0  0  0
 15 14  2  0  0  0
 16 17  1  0  0  0
 16 15  1  0  0  0
 16 18  1  0  0  0
 17 11  2  0  0  0
  1 15  1  0  0  0
  1  6  1  0  0  0
  2  1  2  0  0  0
  3  2  1  0  0  0
  3  4  2  0  0  0
  4  5  1  0  0  0
  5  6  2  0  0  0
  6 32  1  0  0  0
 32 33  1  0  0  0
 33 34  1  0  0  0
 22 24  2  0  0  0
 22 25  1  0  0  0
 22  3  1  0  0  0
 23 22  2  0  0  0
 25 26  1  0  0  0
 27 26  1  0  0  0
 28 29  1  0  0  0
 28 27  1  0  0  0
 30 28  1  0  0  0
 30 31  1  0  0  0
 31 25  1  0  0  0
M  END
> <minimizedAffinity>
-9.48950

$$$$
/home/hjpark/lecture_drug1/0905_agent/pde5_harness/sample_run/structures/work/ligand_ref.pdb


 34 37  0  0  0  0  0  0  0  0999 V2000
   -0.0847   64.0338   84.2926 C   0  0  0  0  0  0  0  0  0  0  0  0
   -0.6665   63.7590   82.9946 C   0  0  0  0  0  0  0  0  0  0  0  0
   -1.7901   62.8359   82.8507 C   0  0  0  0  0  0  0  0  0  0  0  0
   -2.3174   62.1917   84.0956 C   0  0  0  0  0  0  0  0  0  0  0  0
   -1.7451   62.4546   85.4119 C   0  0  0  0  0  0  0  0  0  0  0  0
   -0.6051   63.3820   85.5444 C   0  0  0  0  0  0  0  0  0  0  0  0
    4.4015   65.8157   85.6107 C   0  0  0  0  0  0  0  0  0  0  0  0
    5.0392   66.9921   85.1953 N   0  0  0  0  0  0  0  0  0  0  0  0
    4.2309   67.6485   84.3127 N   0  0  0  0  0  0  0  0  0  0  0  0
    4.6050   68.9210   83.6894 C   0  0  0  0  0  0  0  0  0  0  0  0
    3.0918   66.8981   84.1667 C   0  0  0  0  0  0  0  0  0  0  0  0
    1.8939   67.0547   83.3908 C   0  0  0  0  0  0  0  0  0  0  0  0
    1.6986   67.9971   82.6581 O   0  0  0  0  0  0  0  0  0  0  0  0
    0.9063   66.0766   83.4870 N   0  0  0  0  0  0  0  0  0  0  0  0
    1.0122   64.9381   84.2982 C   0  0  0  0  0  0  0  0  0  0  0  0
    2.1632   64.7398   85.0698 N   0  0  0  0  0  0  0  0  0  0  0  0
    3.1809   65.7319   84.9842 C   0  0  0  0  0  0  0  0  0  0  0  0
    2.2647   63.9486   85.6467 H   0  0  0  0  0  0  0  0  0  0  0  0
    4.9741   64.8243   86.5716 C   0  0  0  0  0  0  0  0  0  0  0  0
    5.7075   65.4928   88.9182 C   0  0  0  0  0  0  0  0  0  0  0  0
    5.9337   65.7028   87.4452 C   0  0  0  0  0  0  0  0  0  0  0  0
   -2.4218   62.5060   81.4169 S   0  0  0  0  0  0  0  0  0  0  0  0
   -3.7357   62.5949   81.3253 O   0  0  0  0  0  0  0  0  0  0  0  0
   -1.9597   63.3590   80.5332 O   0  0  0  0  0  0  0  0  0  0  0  0
   -1.8738   61.0303   81.1915 N   0  0  0  0  0  0  0  0  0  0  0  0
   -0.5600   60.9320   80.3212 C   0  0  0  0  0  0  0  0  0  0  0  0
   -0.7239   60.9419   78.7891 C   0  0  0  0  0  0  0  0  0  0  0  0
   -1.9178   60.2104   78.2453 N   0  0  0  0  0  0  0  0  0  0  0  0
   -1.4296   59.0359   77.4576 C   0  0  0  0  0  0  0  0  0  0  0  0
   -3.0152   59.7504   79.2079 C   0  0  0  0  0  0  0  0  0  0  0  0
   -2.7497   59.8711   80.7566 C   0  0  0  0  0  0  0  0  0  0  0  0
    0.0451   63.6886   86.8006 O   0  0  0  0  0  0  0  0  0  0  0  0
   -0.5817   63.6136   88.0967 C   0  0  0  0  0  0  0  0  0  0  0  0
    0.3244   62.7126   88.9191 C   0  0  0  0  0  0  0  0  0  0  0  0
 20 21  1  0  0  0
 21 19  1  0  0  0
 19  7  1  0  0  0
  7 17  1  0  0  0
  7  8  2  0  0  0
  8  9  1  0  0  0
  9 10  1  0  0  0
 11  9  1  0  0  0
 11 12  1  0  0  0
 12 13  2  0  0  0
 14 12  1  0  0  0
 15 14  2  0  0  0
 16 17  1  0  0  0
 16 15  1  0  0  0
 16 18  1  0  0  0
 17 11  2  0  0  0
  1 15  1  0  0  0
  1  6  1  0  0  0
  2  1  2  0  0  0
  3  2  1  0  0  0
  3  4  2  0  0  0
  4  5  1  0  0  0
  5  6  2  0  0  0
  6 32  1  0  0  0
 32 33  1  0  0  0
 33 34  1  0  0  0
 22 24  2  0  0  0
 22 25  1  0  0  0
 22  3  1  0  0  0
 23 22  2  0  0  0
 25 26  1  0  0  0
 27 26  1  0  0  0
 28 29  1  0  0  0
 28 27  1  0  0  0
 30 28  1  0  0  0
 30 31  1  0  0  0
 31 25  1  0  0  0
M  END
> <minimizedAffinity>
-9.36468

$$$$
/home/hjpark/lecture_drug1/0905_agent/pde5_harness/sample_run/structures/work/ligand_ref.pdb


 34 37  0  0  0  0  0  0  0  0999 V2000
    2.0293   66.6878   83.5297 C   0  0  0  0  0  0  0  0  0  0  0  0
    1.5386   67.7808   82.7151 C   0  0  0  0  0  0  0  0  0  0  0  0
    2.3100   69.0120   82.5591 C   0  0  0  0  0  0  0  0  0  0  0  0
    3.6262   69.0959   83.2686 C   0  0  0  0  0  0  0  0  0  0  0  0
    4.1377   68.0068   84.0940 C   0  0  0  0  0  0  0  0  0  0  0  0
    3.3463   66.7714   84.2515 C   0  0  0  0  0  0  0  0  0  0  0  0
   -0.7788   63.1976   85.7592 C   0  0  0  0  0  0  0  0  0  0  0  0
   -1.4862   62.1348   85.1821 N   0  0  0  0  0  0  0  0  0  0  0  0
   -1.3108   62.1662   83.8289 N   0  0  0  0  0  0  0  0  0  0  0  0
   -1.9200   61.1850   82.9268 C   0  0  0  0  0  0  0  0  0  0  0  0
   -0.5016   63.2377   83.5471 C   0  0  0  0  0  0  0  0  0  0  0  0
    0.0305   63.7856   82.3313 C   0  0  0  0  0  0  0  0  0  0  0  0
   -0.1933   63.3150   81.2398 O   0  0  0  0  0  0  0  0  0  0  0  0
    0.8466   64.9121   82.4107 N   0  0  0  0  0  0  0  0  0  0  0  0
    1.1800   65.5509   83.6133 C   0  0  0  0  0  0  0  0  0  0  0  0
    0.6816   65.0557   84.8240 N   0  0  0  0  0  0  0  0  0  0  0  0
   -0.1521   63.9033   84.7599 C   0  0  0  0  0  0  0  0  0  0  0  0
    0.8982   65.4856   85.6827 H   0  0  0  0  0  0  0  0  0  0  0  0
   -0.7318   63.5014   87.2219 C   0  0  0  0  0  0  0  0  0  0  0  0
    0.2381   62.1448   89.1481 C   0  0  0  0  0  0  0  0  0  0  0  0
   -0.5453   62.0844   87.8645 C   0  0  0  0  0  0  0  0  0  0  0  0
    1.7630   70.2350   81.6825 S   0  0  0  0  0  0  0  0  0  0  0  0
    1.7485   70.0534   80.3750 O   0  0  0  0  0  0  0  0  0  0  0  0
    0.5147   70.4768   82.0072 O   0  0  0  0  0  0  0  0  0  0  0  0
    2.7532   71.3896   82.1463 N   0  0  0  0  0  0  0  0  0  0  0  0
    2.1070   72.4889   83.0775 C   0  0  0  0  0  0  0  0  0  0  0  0
    1.3369   73.6337   82.3914 C   0  0  0  0  0  0  0  0  0  0  0  0
    1.9104   74.1362   81.0973 N   0  0  0  0  0  0  0  0  0  0  0  0
    2.3715   75.5443   81.3039 C   0  0  0  0  0  0  0  0  0  0  0  0
    3.0216   73.3376   80.4117 C   0  0  0  0  0  0  0  0  0  0  0  0
    3.6709   72.1350   81.1963 C   0  0  0  0  0  0  0  0  0  0  0  0
    3.7566   65.6475   85.0660 O   0  0  0  0  0  0  0  0  0  0  0  0
    4.7739   65.6928   86.0865 C   0  0  0  0  0  0  0  0  0  0  0  0
    6.0416   65.2150   85.3981 C   0  0  0  0  0  0  0  0  0  0  0  0
 20 21  1  0  0  0
 21 19  1  0  0  0
 19  7  1  0  0  0
  7 17  1  0  0  0
  7  8  2  0  0  0
  8  9  1  0  0  0
  9 10  1  0  0  0
 11  9  1  0  0  0
 11 12  1  0  0  0
 12 13  2  0  0  0
 14 12  1  0  0  0
 15 14  2  0  0  0
 16 17  1  0  0  0
 16 15  1  0  0  0
 16 18  1  0  0  0
 17 11  2  0  0  0
  1 15  1  0  0  0
  1  6  1  0  0  0
  2  1  2  0  0  0
  3  2  1  0  0  0
  3  4  2  0  0  0
  4  5  1  0  0  0
  5  6  2  0  0  0
  6 32  1  0  0  0
 32 33  1  0  0  0
 33 34  1  0  0  0
 22 24  2  0  0  0
 22 25  1  0  0  0
 22  3  1  0  0  0
 23 22  2  0  0  0
 25 26  1  0  0  0
 27 26  1  0  0  0
 28 29  1  0  0  0
 28 27  1  0  0  0
 30 28  1  0  0  0
 30 31  1  0  0  0
 31 25  1  0  0  0
M  END
> <minimizedAffinity>
-9.14579

$$$$
/home/hjpark/lecture_drug1/0905_agent/pde5_harness/sample_run/structures/work/ligand_ref.pdb


 34 37  0  0  0  0  0  0  0  0999 V2000
    2.1138   66.3139   84.0772 C   0  0  0  0  0  0  0  0  0  0  0  0
    1.6204   67.1993   83.0420 C   0  0  0  0  0  0  0  0  0  0  0  0
    2.4541   68.2732   82.5062 C   0  0  0  0  0  0  0  0  0  0  0  0
    3.8361   68.4177   83.0647 C   0  0  0  0  0  0  0  0  0  0  0  0
    4.3514   67.5369   84.1077 C   0  0  0  0  0  0  0  0  0  0  0  0
    3.4978   66.4612   84.6476 C   0  0  0  0  0  0  0  0  0  0  0  0
   -1.2433   62.6274   83.6555 C   0  0  0  0  0  0  0  0  0  0  0  0
   -1.9143   61.9268   84.6664 N   0  0  0  0  0  0  0  0  0  0  0  0
   -1.5098   62.4014   85.8806 N   0  0  0  0  0  0  0  0  0  0  0  0
   -2.0261   61.8790   87.1488 C   0  0  0  0  0  0  0  0  0  0  0  0
   -0.5907   63.3925   85.6457 C   0  0  0  0  0  0  0  0  0  0  0  0
    0.1806   64.2519   86.4989 C   0  0  0  0  0  0  0  0  0  0  0  0
    0.1192   64.2139   87.7063 O   0  0  0  0  0  0  0  0  0  0  0  0
    1.0399   65.1769   85.9097 N   0  0  0  0  0  0  0  0  0  0  0  0
    1.2020   65.3191   84.5244 C   0  0  0  0  0  0  0  0  0  0  0  0
    0.4745   64.5007   83.6525 N   0  0  0  0  0  0  0  0  0  0  0  0
   -0.4099   63.5516   84.2393 C   0  0  0  0  0  0  0  0  0  0  0  0
    0.5702   64.5779   82.6758 H   0  0  0  0  0  0  0  0  0  0  0  0
   -1.4139   62.3892   82.1899 C   0  0  0  0  0  0  0  0  0  0  0  0
    0.8410   61.4385   81.4806 C   0  0  0  0  0  0  0  0  0  0  0  0
   -0.5510   61.1042   81.9449 C   0  0  0  0  0  0  0  0  0  0  0  0
    1.9074   69.2728   81.3812 S   0  0  0  0  0  0  0  0  0  0  0  0
    2.8142   69.7960   80.5770 O   0  0  0  0  0  0  0  0  0  0  0  0
    1.0826   68.6266   80.5911 O   0  0  0  0  0  0  0  0  0  0  0  0
    1.1713   70.3531   82.2866 N   0  0  0  0  0  0  0  0  0  0  0  0
   -0.2680   70.7712   81.7896 C   0  0  0  0  0  0  0  0  0  0  0  0
   -0.3521   71.8534   80.6960 C   0  0  0  0  0  0  0  0  0  0  0  0
    0.6510   72.9677   80.7872 N   0  0  0  0  0  0  0  0  0  0  0  0
   -0.0836   74.2374   81.0806 C   0  0  0  0  0  0  0  0  0  0  0  0
    1.8314   72.8339   81.7523 C   0  0  0  0  0  0  0  0  0  0  0  0
    1.8330   71.6298   82.7689 C   0  0  0  0  0  0  0  0  0  0  0  0
    3.9092   65.5533   85.6970 O   0  0  0  0  0  0  0  0  0  0  0  0
    5.2732   65.1883   85.9877 C   0  0  0  0  0  0  0  0  0  0  0  0
    5.5677   65.8163   87.3398 C   0  0  0  0  0  0  0  0  0  0  0  0
 20 21  1  0  0  0
 21 19  1  0  0  0
 19  7  1  0  0  0
  7 17  1  0  0  0
  7  8  2  0  0  0
  8  9  1  0  0  0
  9 10  1  0  0  0
 11  9  1  0  0  0
 11 12  1  0  0  0
 12 13  2  0  0  0
 14 12  1  0  0  0
 15 14  2  0  0  0
 16 17  1  0  0  0
 16 15  1  0  0  0
 16 18  1  0  0  0
 17 11  2  0  0  0
  1 15  1  0  0  0
  1  6  1  0  0  0
  2  1  2  0  0  0
  3  2  1  0  0  0
  3  4  2  0  0  0
  4  5  1  0  0  0
  5  6  2  0  0  0
  6 32  1  0  0  0
 32 33  1  0  0  0
 33 34  1  0  0  0
 22 24  2  0  0  0
 22 25  1  0  0  0
 22  3  1  0  0  0
 23 22  2  0  0  0
 25 26  1  0  0  0
 27 26  1  0  0  0
 28 29  1  0  0  0
 28 27  1  0  0  0
 30 28  1  0  0  0
 30 31  1  0  0  0
 31 25  1  0  0  0
M  END
> <minimizedAffinity>
-8.97116

$$$$
/home/hjpark/lecture_drug1/0905_agent/pde5_harness/sample_run/structures/work/ligand_ref.pdb


 34 37  0  0  0  0  0  0  0  0999 V2000
    0.9359   66.0029   81.9222 C   0  0  0  0  0  0  0  0  0  0  0  0
    1.4332   67.2556   82.4535 C   0  0  0  0  0  0  0  0  0  0  0  0
    2.0136   68.2704   81.5768 C   0  0  0  0  0  0  0  0  0  0  0  0
    2.0684   67.9665   80.1114 C   0  0  0  0  0  0  0  0  0  0  0  0
    1.5735   66.7109   79.5567 C   0  0  0  0  0  0  0  0  0  0  0  0
    0.9973   65.6895   80.4524 C   0  0  0  0  0  0  0  0  0  0  0  0
   -1.9033   62.2506   83.6245 C   0  0  0  0  0  0  0  0  0  0  0  0
   -1.9976   61.7366   84.9245 N   0  0  0  0  0  0  0  0  0  0  0  0
   -1.1521   62.4316   85.7402 N   0  0  0  0  0  0  0  0  0  0  0  0
   -1.0130   62.1423   87.1701 C   0  0  0  0  0  0  0  0  0  0  0  0
   -0.5256   63.3769   84.9682 C   0  0  0  0  0  0  0  0  0  0  0  0
    0.4546   64.3897   85.2418 C   0  0  0  0  0  0  0  0  0  0  0  0
    0.9286   64.5724   86.3396 O   0  0  0  0  0  0  0  0  0  0  0  0
    0.8798   65.2042   84.1945 N   0  0  0  0  0  0  0  0  0  0  0  0
    0.4086   65.0929   82.8788 C   0  0  0  0  0  0  0  0  0  0  0  0
   -0.5444   64.1177   82.5626 N   0  0  0  0  0  0  0  0  0  0  0  0
   -0.9908   63.2787   83.6228 C   0  0  0  0  0  0  0  0  0  0  0  0
   -0.8911   64.0163   81.6468 H   0  0  0  0  0  0  0  0  0  0  0  0
   -2.6711   61.7455   82.4458 C   0  0  0  0  0  0  0  0  0  0  0  0
   -1.1088   61.0643   80.5520 C   0  0  0  0  0  0  0  0  0  0  0  0
   -1.7225   60.6441   81.8603 C   0  0  0  0  0  0  0  0  0  0  0  0
    2.5899   69.6462   82.1587 S   0  0  0  0  0  0  0  0  0  0  0  0
    2.2406   69.9467   83.3959 O   0  0  0  0  0  0  0  0  0  0  0  0
    3.9010   69.5934   82.1776 O   0  0  0  0  0  0  0  0  0  0  0  0
    2.0317   70.6732   81.0805 N   0  0  0  0  0  0  0  0  0  0  0  0
    2.8684   72.0039   80.9305 C   0  0  0  0  0  0  0  0  0  0  0  0
    2.5816   73.1369   81.9347 C   0  0  0  0  0  0  0  0  0  0  0  0
    1.1464   73.3160   82.3400 N   0  0  0  0  0  0  0  0  0  0  0  0
    0.6745   74.6384   81.8236 C   0  0  0  0  0  0  0  0  0  0  0  0
    0.1250   72.2374   81.9710 C   0  0  0  0  0  0  0  0  0  0  0  0
    0.5746   71.0850   80.9947 C   0  0  0  0  0  0  0  0  0  0  0  0
    0.5026   64.4062   80.0016 O   0  0  0  0  0  0  0  0  0  0  0  0
   -0.0088   64.1338   78.6815 C   0  0  0  0  0  0  0  0  0  0  0  0
    0.9204   63.0748   78.1118 C   0  0  0  0  0  0  0  0  0  0  0  0
 20 21  1  0  0  0
 21 19  1  0  0  0
 19  7  1  0  0  0
  7 17  1  0  0  0
  7  8  2  0  0  0
  8  9  1  0  0  0
  9 10  1  0  0  0
 11  9  1  0  0  0
 11 12  1  0  0  0
 12 13  2  0  0  0
 14 12  1  0  0  0
 15 14  2  0  0  0
 16 17  1  0  0  0
 16 15  1  0  0  0
 16 18  1  0  0  0
 17 11  2  0  0  0
  1 15  1  0  0  0
  1  6  1  0  0  0
  2  1  2  0  0  0
  3  2  1  0  0  0
  3  4  2  0  0  0
  4  5  1  0  0  0
  5  6  2  0  0  0
  6 32  1  0  0  0
 32 33  1  0  0  0
 33 34  1  0  0  0
 22 24  2  0  0  0
 22 25  1  0  0  0
 22  3  1  0  0  0
 23 22  2  0  0  0
 25 26  1  0  0  0
 27 26  1  0  0  0
 28 29  1  0  0  0
 28 27  1  0  0  0
 30 28  1  0  0  0
 30 31  1  0  0  0
 31 25  1  0  0  0
M  END
> <minimizedAffinity>
-8.96421

$$$$
/home/hjpark/lecture_drug1/0905_agent/pde5_harness/sample_run/structures/work/ligand_ref.pdb


 34 37  0  0  0  0  0  0  0  0999 V2000
    0.4726   64.4985   84.5875 C   0  0  0  0  0  0  0  0  0  0  0  0
   -0.0765   64.2223   83.2756 C   0  0  0  0  0  0  0  0  0  0  0  0
   -1.2358   63.3482   83.1108 C   0  0  0  0  0  0  0  0  0  0  0  0
   -1.8345   62.7556   84.3491 C   0  0  0  0  0  0  0  0  0  0  0  0
   -1.2961   63.0207   85.6791 C   0  0  0  0  0  0  0  0  0  0  0  0
   -0.1198   63.8981   85.8330 C   0  0  0  0  0  0  0  0  0  0  0  0
    3.1823   68.5828   83.5807 C   0  0  0  0  0  0  0  0  0  0  0  0
    4.5000   68.8799   83.9528 N   0  0  0  0  0  0  0  0  0  0  0  0
    4.9996   67.8432   84.6867 N   0  0  0  0  0  0  0  0  0  0  0  0
    6.3609   67.8388   85.2295 C   0  0  0  0  0  0  0  0  0  0  0  0
    4.0109   66.8968   84.7818 C   0  0  0  0  0  0  0  0  0  0  0  0
    3.9270   65.6107   85.4147 C   0  0  0  0  0  0  0  0  0  0  0  0
    4.8399   65.1187   86.0371 O   0  0  0  0  0  0  0  0  0  0  0  0
    2.7384   64.8920   85.3055 N   0  0  0  0  0  0  0  0  0  0  0  0
    1.6092   65.3520   84.6135 C   0  0  0  0  0  0  0  0  0  0  0  0
    1.6419   66.6017   83.9840 N   0  0  0  0  0  0  0  0  0  0  0  0
    2.8505   67.3476   84.0844 C   0  0  0  0  0  0  0  0  0  0  0  0
    0.8630   66.9499   83.4929 H   0  0  0  0  0  0  0  0  0  0  0  0
    2.2972   69.4779   82.7749 C   0  0  0  0  0  0  0  0  0  0  0  0
    1.9953   68.3624   80.5042 C   0  0  0  0  0  0  0  0  0  0  0  0
    2.8503   69.2942   81.3202 C   0  0  0  0  0  0  0  0  0  0  0  0
   -1.8326   63.0164   81.6626 S   0  0  0  0  0  0  0  0  0  0  0  0
   -3.1404   63.1383   81.5300 O   0  0  0  0  0  0  0  0  0  0  0  0
   -1.3217   63.8455   80.7830 O   0  0  0  0  0  0  0  0  0  0  0  0
   -1.3174   61.5241   81.4719 N   0  0  0  0  0  0  0  0  0  0  0  0
   -0.1562   61.3488   80.4164 C   0  0  0  0  0  0  0  0  0  0  0  0
   -0.5590   61.2378   78.9333 C   0  0  0  0  0  0  0  0  0  0  0  0
   -1.8188   60.4727   78.6439 N   0  0  0  0  0  0  0  0  0  0  0  0
   -1.4530   59.2363   77.8852 C   0  0  0  0  0  0  0  0  0  0  0  0
   -2.7482   60.0976   79.8006 C   0  0  0  0  0  0  0  0  0  0  0  0
   -2.2433   60.3394   81.2737 C   0  0  0  0  0  0  0  0  0  0  0  0
    0.5005   64.2020   87.1049 O   0  0  0  0  0  0  0  0  0  0  0  0
    0.8108   63.2335   88.1266 C   0  0  0  0  0  0  0  0  0  0  0  0
   -0.3787   63.2657   89.0719 C   0  0  0  0  0  0  0  0  0  0  0  0
 20 21  1  0  0  0
 21 19  1  0  0  0
 19  7  1  0  0  0
  7 17  1  0  0  0
  7  8  2  0  0  0
  8  9  1  0  0  0
  9 10  1  0  0  0
 11  9  1  0  0  0
 11 12  1  0  0  0
 12 13  2  0  0  0
 14 12  1  0  0  0
 15 14  2  0  0  0
 16 17  1  0  0  0
 16 15  1  0  0  0
 16 18  1  0  0  0
 17 11  2  0  0  0
  1 15  1  0  0  0
  1  6  1  0  0  0
  2  1  2  0  0  0
  3  2  1  0  0  0
  3  4  2  0  0  0
  4  5  1  0  0  0
  5  6  2  0  0  0
  6 32  1  0  0  0
 32 33  1  0  0  0
 33 34  1  0  0  0
 22 24  2  0  0  0
 22 25  1  0  0  0
 22  3  1  0  0  0
 23 22  2  0  0  0
 25 26  1  0  0  0
 27 26  1  0  0  0
 28 29  1  0  0  0
 28 27  1  0  0  0
 30 28  1  0  0  0
 30 31  1  0  0  0
 31 25  1  0  0  0
M  END
> <minimizedAffinity>
-8.94684

$$$$
/home/hjpark/lecture_drug1/0905_agent/pde5_harness/sample_run/structures/work/ligand_ref.pdb


 34 37  0  0  0  0  0  0  0  0999 V2000
    0.3813   65.1051   81.2968 C   0  0  0  0  0  0  0  0  0  0  0  0
    0.7210   66.3879   80.7154 C   0  0  0  0  0  0  0  0  0  0  0  0
    1.2861   67.4608   81.5307 C   0  0  0  0  0  0  0  0  0  0  0  0
    1.5041   67.1799   82.9855 C   0  0  0  0  0  0  0  0  0  0  0  0
    1.1681   65.8952   83.5903 C   0  0  0  0  0  0  0  0  0  0  0  0
    0.5899   64.8218   82.7592 C   0  0  0  0  0  0  0  0  0  0  0  0
   -2.8098   61.5856   79.7258 C   0  0  0  0  0  0  0  0  0  0  0  0
   -2.8211   60.8845   78.5127 N   0  0  0  0  0  0  0  0  0  0  0  0
   -1.7778   61.3107   77.7427 N   0  0  0  0  0  0  0  0  0  0  0  0
   -1.5055   60.7722   76.4072 C   0  0  0  0  0  0  0  0  0  0  0  0
   -1.1101   62.2731   78.4569 C   0  0  0  0  0  0  0  0  0  0  0  0
    0.0453   63.0828   78.1901 C   0  0  0  0  0  0  0  0  0  0  0  0
    0.6731   63.0205   77.1581 O   0  0  0  0  0  0  0  0  0  0  0  0
    0.4670   63.9824   79.1669 N   0  0  0  0  0  0  0  0  0  0  0  0
   -0.1742   64.1499   80.4024 C   0  0  0  0  0  0  0  0  0  0  0  0
   -1.3070   63.3858   80.7060 N   0  0  0  0  0  0  0  0  0  0  0  0
   -1.7492   62.4600   79.7188 C   0  0  0  0  0  0  0  0  0  0  0  0
   -1.7777   63.4842   81.5651 H   0  0  0  0  0  0  0  0  0  0  0  0
   -3.8008   61.4036   80.8297 C   0  0  0  0  0  0  0  0  0  0  0  0
   -3.1292   60.5439   83.1322 C   0  0  0  0  0  0  0  0  0  0  0  0
   -3.1813   60.2288   81.6615 C   0  0  0  0  0  0  0  0  0  0  0  0
    1.6395   68.8901   80.9018 S   0  0  0  0  0  0  0  0  0  0  0  0
    2.9056   69.0901   80.5856 O   0  0  0  0  0  0  0  0  0  0  0  0
    0.9788   69.0447   79.7786 O   0  0  0  0  0  0  0  0  0  0  0  0
    1.1204   69.8514   82.0574 N   0  0  0  0  0  0  0  0  0  0  0  0
   -0.1542   70.7081   81.6904 C   0  0  0  0  0  0  0  0  0  0  0  0
    0.0741   72.0181   80.9118 C   0  0  0  0  0  0  0  0  0  0  0  0
    1.2990   72.8046   81.2820 N   0  0  0  0  0  0  0  0  0  0  0  0
    0.8595   74.0967   81.8947 C   0  0  0  0  0  0  0  0  0  0  0  0
    2.3606   72.1586   82.1755 C   0  0  0  0  0  0  0  0  0  0  0  0
    2.0286   70.7730   82.8486 C   0  0  0  0  0  0  0  0  0  0  0  0
    0.2027   63.5242   83.2703 O   0  0  0  0  0  0  0  0  0  0  0  0
   -0.8190   63.2965   84.2617 C   0  0  0  0  0  0  0  0  0  0  0  0
   -0.3275   62.1036   85.0646 C   0  0  0  0  0  0  0  0  0  0  0  0
 20 21  1  0  0  0
 21 19  1  0  0  0
 19  7  1  0  0  0
  7 17  1  0  0  0
  7  8  2  0  0  0
  8  9  1  0  0  0
  9 10  1  0  0  0
 11  9  1  0  0  0
 11 12  1  0  0  0
 12 13  2  0  0  0
 14 12  1  0  0  0
 15 14  2  0  0  0
 16 17  1  0  0  0
 16 15  1  0  0  0
 16 18  1  0  0  0
 17 11  2  0  0  0
  1 15  1  0  0  0
  1  6  1  0  0  0
  2  1  2  0  0  0
  3  2  1  0  0  0
  3  4  2  0  0  0
  4  5  1  0  0  0
  5  6  2  0  0  0
  6 32  1  0  0  0
 32 33  1  0  0  0
 33 34  1  0  0  0
 22 24  2  0  0  0
 22 25  1  0  0  0
 22  3  1  0  0  0
 23 22  2  0  0  0
 25 26  1  0  0  0
 27 26  1  0  0  0
 28 29  1  0  0  0
 28 27  1  0  0  0
 30 28  1  0  0  0
 30 31  1  0  0  0
 31 25  1  0  0  0
M  END
> <minimizedAffinity>
-8.93968

$$$$
/home/hjpark/lecture_drug1/0905_agent/pde5_harness/sample_run/structures/work/ligand_ref.pdb


 34 37  0  0  0  0  0  0  0  0999 V2000
    0.3673   65.0366   81.0164 C   0  0  0  0  0  0  0  0  0  0  0  0
    0.6026   66.2954   80.3389 C   0  0  0  0  0  0  0  0  0  0  0  0
    1.1318   67.4525   81.0575 C   0  0  0  0  0  0  0  0  0  0  0  0
    1.4253   67.2835   82.5163 C   0  0  0  0  0  0  0  0  0  0  0  0
    1.1948   66.0245   83.2171 C   0  0  0  0  0  0  0  0  0  0  0  0
    0.6519   64.8651   82.4834 C   0  0  0  0  0  0  0  0  0  0  0  0
   -2.7591   61.3417   79.7469 C   0  0  0  0  0  0  0  0  0  0  0  0
   -2.7426   60.5257   78.6081 N   0  0  0  0  0  0  0  0  0  0  0  0
   -1.6912   60.8877   77.8165 N   0  0  0  0  0  0  0  0  0  0  0  0
   -1.3909   60.2251   76.5443 C   0  0  0  0  0  0  0  0  0  0  0  0
   -1.0459   61.9233   78.4436 C   0  0  0  0  0  0  0  0  0  0  0  0
    0.1050   62.7173   78.1171 C   0  0  0  0  0  0  0  0  0  0  0  0
    0.7505   62.5625   77.1060 O   0  0  0  0  0  0  0  0  0  0  0  0
    0.5006   63.7129   79.0079 N   0  0  0  0  0  0  0  0  0  0  0  0
   -0.1628   63.9920   80.2109 C   0  0  0  0  0  0  0  0  0  0  0  0
   -1.2923   63.2473   80.5701 N   0  0  0  0  0  0  0  0  0  0  0  0
   -1.7080   62.2244   79.6712 C   0  0  0  0  0  0  0  0  0  0  0  0
   -1.7783   63.4231   81.4080 H   0  0  0  0  0  0  0  0  0  0  0  0
   -3.7664   61.2560   80.8478 C   0  0  0  0  0  0  0  0  0  0  0  0
   -3.0834   60.7044   83.2396 C   0  0  0  0  0  0  0  0  0  0  0  0
   -3.1284   60.2057   81.8204 C   0  0  0  0  0  0  0  0  0  0  0  0
    1.3696   68.8550   80.3226 S   0  0  0  0  0  0  0  0  0  0  0  0
    1.9850   68.8038   79.1558 O   0  0  0  0  0  0  0  0  0  0  0  0
    0.2096   69.4153   80.0724 O   0  0  0  0  0  0  0  0  0  0  0  0
    2.1982   69.6293   81.4374 N   0  0  0  0  0  0  0  0  0  0  0  0
    1.5916   71.0201   81.8742 C   0  0  0  0  0  0  0  0  0  0  0  0
    1.9210   72.2428   80.9962 C   0  0  0  0  0  0  0  0  0  0  0  0
    3.3082   72.2924   80.4222 N   0  0  0  0  0  0  0  0  0  0  0  0
    4.0286   73.4510   81.0359 C   0  0  0  0  0  0  0  0  0  0  0  0
    4.1953   71.0477   80.5020 C   0  0  0  0  0  0  0  0  0  0  0  0
    3.7000   69.8313   81.3728 C   0  0  0  0  0  0  0  0  0  0  0  0
    0.3674   63.5839   83.0938 O   0  0  0  0  0  0  0  0  0  0  0  0
   -0.6782   63.3396   84.0558 C   0  0  0  0  0  0  0  0  0  0  0  0
    0.0316   63.2714   85.3978 C   0  0  0  0  0  0  0  0  0  0  0  0
 20 21  1  0  0  0
 21 19  1  0  0  0
 19  7  1  0  0  0
  7 17  1  0  0  0
  7  8  2  0  0  0
  8  9  1  0  0  0
  9 10  1  0  0  0
 11  9  1  0  0  0
 11 12  1  0  0  0
 12 13  2  0  0  0
 14 12  1  0  0  0
 15 14  2  0  0  0
 16 17  1  0  0  0
 16 15  1  0  0  0
 16 18  1  0  0  0
 17 11  2  0  0  0
  1 15  1  0  0  0
  1  6  1  0  0  0
  2  1  2  0  0  0
  3  2  1  0  0  0
  3  4  2  0  0  0
  4  5  1  0  0  0
  5  6  2  0  0  0
  6 32  1  0  0  0
 32 33  1  0  0  0
 33 34  1  0  0  0
 22 24  2  0  0  0
 22 25  1  0  0  0
 22  3  1  0  0  0
 23 22  2  0  0  0
 25 26  1  0  0  0
 27 26  1  0  0  0
 28 29  1  0  0  0
 28 27  1  0  0  0
 30 28  1  0  0  0
 30 31  1  0  0  0
 31 25  1  0  0  0
M  END
> <minimizedAffinity>
-8.86846

$$$$
/home/hjpark/lecture_drug1/0905_agent/pde5_harness/sample_run/structures/work/ligand_ref.pdb


 34 37  0  0  0  0  0  0  0  0999 V2000
    0.0802   63.3403   84.0825 C   0  0  0  0  0  0  0  0  0  0  0  0
    0.9498   64.4092   83.6350 C   0  0  0  0  0  0  0  0  0  0  0  0
    1.6007   65.3033   84.5901 C   0  0  0  0  0  0  0  0  0  0  0  0
    1.3376   65.0675   86.0454 C   0  0  0  0  0  0  0  0  0  0  0  0
    0.4648   63.9973   86.5164 C   0  0  0  0  0  0  0  0  0  0  0  0
   -0.1941   63.1057   85.5427 C   0  0  0  0  0  0  0  0  0  0  0  0
   -0.5600   61.5563   79.4516 C   0  0  0  0  0  0  0  0  0  0  0  0
   -1.4949   60.6208   78.9891 N   0  0  0  0  0  0  0  0  0  0  0  0
   -2.2726   60.2146   80.0347 N   0  0  0  0  0  0  0  0  0  0  0  0
   -3.3535   59.2362   79.8864 C   0  0  0  0  0  0  0  0  0  0  0  0
   -1.8372   60.8831   81.1508 C   0  0  0  0  0  0  0  0  0  0  0  0
   -2.2436   60.8833   82.5279 C   0  0  0  0  0  0  0  0  0  0  0  0
   -3.1475   60.2000   82.9512 O   0  0  0  0  0  0  0  0  0  0  0  0
   -1.5673   61.7119   83.4209 N   0  0  0  0  0  0  0  0  0  0  0  0
   -0.5039   62.5493   83.0558 C   0  0  0  0  0  0  0  0  0  0  0  0
   -0.0694   62.5802   81.7256 N   0  0  0  0  0  0  0  0  0  0  0  0
   -0.7520   61.7406   80.8002 C   0  0  0  0  0  0  0  0  0  0  0  0
    0.6760   63.1574   81.4421 H   0  0  0  0  0  0  0  0  0  0  0  0
    0.4727   62.2264   78.6039 C   0  0  0  0  0  0  0  0  0  0  0  0
    0.5936   64.7713   78.5851 C   0  0  0  0  0  0  0  0  0  0  0  0
   -0.2273   63.5696   78.2018 C   0  0  0  0  0  0  0  0  0  0  0  0
    2.5418   66.5035   84.1031 S   0  0  0  0  0  0  0  0  0  0  0  0
    3.1188   66.3498   82.9257 O   0  0  0  0  0  0  0  0  0  0  0  0
    1.8262   67.5978   83.9921 O   0  0  0  0  0  0  0  0  0  0  0  0
    3.5778   66.5664   85.3079 N   0  0  0  0  0  0  0  0  0  0  0  0
    4.4701   67.8683   85.3535 C   0  0  0  0  0  0  0  0  0  0  0  0
    5.7310   67.8933   84.4680 C   0  0  0  0  0  0  0  0  0  0  0  0
    6.4809   66.5976   84.3456 N   0  0  0  0  0  0  0  0  0  0  0  0
    7.8180   66.7663   84.9949 C   0  0  0  0  0  0  0  0  0  0  0  0
    5.8329   65.3076   84.8542 C   0  0  0  0  0  0  0  0  0  0  0  0
    4.4960   65.4184   85.6812 C   0  0  0  0  0  0  0  0  0  0  0  0
   -1.0938   62.0329   85.9096 O   0  0  0  0  0  0  0  0  0  0  0  0
   -1.7601   61.9105   87.1821 C   0  0  0  0  0  0  0  0  0  0  0  0
   -2.8909   62.9245   87.1320 C   0  0  0  0  0  0  0  0  0  0  0  0
 20 21  1  0  0  0
 21 19  1  0  0  0
 19  7  1  0  0  0
  7 17  1  0  0  0
  7  8  2  0  0  0
  8  9  1  0  0  0
  9 10  1  0  0  0
 11  9  1  0  0  0
 11 12  1  0  0  0
 12 13  2  0  0  0
 14 12  1  0  0  0
 15 14  2  0  0  0
 16 17  1  0  0  0
 16 15  1  0  0  0
 16 18  1  0  0  0
 17 11  2  0  0  0
  1 15  1  0  0  0
  1  6  1  0  0  0
  2  1  2  0  0  0
  3  2  1  0  0  0
  3  4  2  0  0  0
  4  5  1  0  0  0
  5  6  2  0  0  0
  6 32  1  0  0  0
 32 33  1  0  0  0
 33 34  1  0  0  0
 22 24  2  0  0  0
 22 25  1  0  0  0
 22  3  1  0  0  0
 23 22  2  0  0  0
 25 26  1  0  0  0
 27 26  1  0  0  0
 28 29  1  0  0  0
 28 27  1  0  0  0
 30 28  1  0  0  0
 30 31  1  0  0  0
 31 25  1  0  0  0
M  END
> <minimizedAffinity>
-8.71046

$$$$
/home/hjpark/lecture_drug1/0905_agent/pde5_harness/sample_run/structures/work/ligand_ref.pdb


 34 37  0  0  0  0  0  0  0  0999 V2000
    0.5478   65.3580   82.4616 C   0  0  0  0  0  0  0  0  0  0  0  0
    0.6597   66.4857   81.5590 C   0  0  0  0  0  0  0  0  0  0  0  0
    1.3095   67.7260   81.9769 C   0  0  0  0  0  0  0  0  0  0  0  0
    1.8578   67.7822   83.3694 C   0  0  0  0  0  0  0  0  0  0  0  0
    1.7546   66.6580   84.2938 C   0  0  0  0  0  0  0  0  0  0  0  0
    1.0888   65.4133   83.8640 C   0  0  0  0  0  0  0  0  0  0  0  0
   -0.6274   61.8600   79.0821 C   0  0  0  0  0  0  0  0  0  0  0  0
   -1.5452   60.8065   79.1870 N   0  0  0  0  0  0  0  0  0  0  0  0
   -2.1267   60.8441   80.4213 N   0  0  0  0  0  0  0  0  0  0  0  0
   -3.1388   59.8754   80.8514 C   0  0  0  0  0  0  0  0  0  0  0  0
   -1.5847   61.9090   81.0954 C   0  0  0  0  0  0  0  0  0  0  0  0
   -1.7827   62.4563   82.4080 C   0  0  0  0  0  0  0  0  0  0  0  0
   -2.5589   61.9892   83.2094 O   0  0  0  0  0  0  0  0  0  0  0  0
   -1.0485   63.5813   82.7773 N   0  0  0  0  0  0  0  0  0  0  0  0
   -0.1183   64.2149   81.9413 C   0  0  0  0  0  0  0  0  0  0  0  0
    0.1120   63.7152   80.6542 N   0  0  0  0  0  0  0  0  0  0  0  0
   -0.6325   62.5670   80.2609 C   0  0  0  0  0  0  0  0  0  0  0  0
    0.7607   64.1393   80.0472 H   0  0  0  0  0  0  0  0  0  0  0  0
    0.2143   62.1465   77.8807 C   0  0  0  0  0  0  0  0  0  0  0  0
   -0.5238   64.4397   77.0513 C   0  0  0  0  0  0  0  0  0  0  0  0
   -0.7609   62.9563   76.9593 C   0  0  0  0  0  0  0  0  0  0  0  0
    1.4138   68.9862   80.9949 S   0  0  0  0  0  0  0  0  0  0  0  0
    1.8118   68.7322   79.7621 O   0  0  0  0  0  0  0  0  0  0  0  0
    0.2283   69.5336   80.8648 O   0  0  0  0  0  0  0  0  0  0  0  0
    2.4281   69.9030   81.8070 N   0  0  0  0  0  0  0  0  0  0  0  0
    1.9141   71.3662   82.1040 C   0  0  0  0  0  0  0  0  0  0  0  0
    2.0916   72.4178   80.9917 C   0  0  0  0  0  0  0  0  0  0  0  0
    3.3576   72.3262   80.1886 N   0  0  0  0  0  0  0  0  0  0  0  0
    4.1800   73.5441   80.4687 C   0  0  0  0  0  0  0  0  0  0  0  0
    4.2387   71.0817   80.3211 C   0  0  0  0  0  0  0  0  0  0  0  0
    3.8966   70.0408   81.4536 C   0  0  0  0  0  0  0  0  0  0  0  0
    0.9164   64.2544   84.7138 O   0  0  0  0  0  0  0  0  0  0  0  0
    0.6051   64.2989   86.1207 C   0  0  0  0  0  0  0  0  0  0  0  0
   -0.4615   63.2350   86.3203 C   0  0  0  0  0  0  0  0  0  0  0  0
 20 21  1  0  0  0
 21 19  1  0  0  0
 19  7  1  0  0  0
  7 17  1  0  0  0
  7  8  2  0  0  0
  8  9  1  0  0  0
  9 10  1  0  0  0
 11  9  1  0  0  0
 11 12  1  0  0  0
 12 13  2  0  0  0
 14 12  1  0  0  0
 15 14  2  0  0  0
 16 17  1  0  0  0
 16 15  1  0  0  0
 16 18  1  0  0  0
 17 11  2  0  0  0
  1 15  1  0  0  0
  1  6  1  0  0  0
  2  1  2  0  0  0
  3  2  1  0  0  0
  3  4  2  0  0  0
  4  5  1  0  0  0
  5  6  2  0  0  0
  6 32  1  0  0  0
 32 33  1  0  0  0
 33 34  1  0  0  0
 22 24  2  0  0  0
 22 25  1  0  0  0
 22  3  1  0  0  0
 23 22  2  0  0  0
 25 26  1  0  0  0
 27 26  1  0  0  0
 28 29  1  0  0  0
 28 27  1  0  0  0
 30 28  1  0  0  0
 30 31  1  0  0  0
 31 25  1  0  0  0
M  END
> <minimizedAffinity>
-8.66040

$$$$
/home/hjpark/lecture_drug1/0905_agent/pde5_harness/sample_run/structures/work/ligand_ref.pdb


 34 37  0  0  0  0  0  0  0  0999 V2000
   -0.0589   64.1180   84.3488 C   0  0  0  0  0  0  0  0  0  0  0  0
   -0.6042   63.7075   83.0709 C   0  0  0  0  0  0  0  0  0  0  0  0
   -1.6821   62.7242   82.9904 C   0  0  0  0  0  0  0  0  0  0  0  0
   -2.2021   62.1638   84.2782 C   0  0  0  0  0  0  0  0  0  0  0  0
   -1.6662   62.5636   85.5751 C   0  0  0  0  0  0  0  0  0  0  0  0
   -0.5718   63.5509   85.6441 C   0  0  0  0  0  0  0  0  0  0  0  0
    2.3085   68.2810   82.8988 C   0  0  0  0  0  0  0  0  0  0  0  0
    3.5816   68.7419   83.2594 N   0  0  0  0  0  0  0  0  0  0  0  0
    4.1469   67.8534   84.1277 N   0  0  0  0  0  0  0  0  0  0  0  0
    5.4846   68.0412   84.6962 C   0  0  0  0  0  0  0  0  0  0  0  0
    3.2437   66.8385   84.3188 C   0  0  0  0  0  0  0  0  0  0  0  0
    3.2537   65.6373   85.1054 C   0  0  0  0  0  0  0  0  0  0  0  0
    4.1858   65.3116   85.8040 O   0  0  0  0  0  0  0  0  0  0  0  0
    2.1380   64.8040   85.0610 N   0  0  0  0  0  0  0  0  0  0  0  0
    0.9958   65.0695   84.2927 C   0  0  0  0  0  0  0  0  0  0  0  0
    0.9380   66.2305   83.5128 N   0  0  0  0  0  0  0  0  0  0  0  0
    2.0715   67.0915   83.5455 C   0  0  0  0  0  0  0  0  0  0  0  0
    0.1478   66.4425   82.9653 H   0  0  0  0  0  0  0  0  0  0  0  0
    1.3743   68.9852   81.9685 C   0  0  0  0  0  0  0  0  0  0  0  0
    2.5589   69.7042   79.8304 C   0  0  0  0  0  0  0  0  0  0  0  0
    1.9050   68.5597   80.5566 C   0  0  0  0  0  0  0  0  0  0  0  0
   -2.2722   62.2452   81.5812 S   0  0  0  0  0  0  0  0  0  0  0  0
   -2.8367   61.0520   81.5618 O   0  0  0  0  0  0  0  0  0  0  0  0
   -3.2153   63.0751   81.2017 O   0  0  0  0  0  0  0  0  0  0  0  0
   -0.9693   62.3396   80.6744 N   0  0  0  0  0  0  0  0  0  0  0  0
   -1.0520   63.3853   79.4941 C   0  0  0  0  0  0  0  0  0  0  0  0
   -1.7400   62.9301   78.1926 C   0  0  0  0  0  0  0  0  0  0  0  0
   -1.5030   61.5052   77.7807 N   0  0  0  0  0  0  0  0  0  0  0  0
   -0.7178   61.5095   76.5073 C   0  0  0  0  0  0  0  0  0  0  0  0
   -0.8502   60.5390   78.7720 C   0  0  0  0  0  0  0  0  0  0  0  0
   -0.2560   61.1270   80.1079 C   0  0  0  0  0  0  0  0  0  0  0  0
    0.0411   63.9926   86.8786 O   0  0  0  0  0  0  0  0  0  0  0  0
   -0.5051   63.7804   88.1958 C   0  0  0  0  0  0  0  0  0  0  0  0
    0.5214   62.9186   88.9120 C   0  0  0  0  0  0  0  0  0  0  0  0
 20 21  1  0  0  0
 21 19  1  0  0  0
 19  7  1  0  0  0
  7 17  1  0  0  0
  7  8  2  0  0  0
  8  9  1  0  0  0
  9 10  1  0  0  0
 11  9  1  0  0  0
 11 12  1  0  0  0
 12 13  2  0  0  0
 14 12  1  0  0  0
 15 14  2  0  0  0
 16 17  1  0  0  0
 16 15  1  0  0  0
 16 18  1  0  0  0
 17 11  2  0  0  0
  1 15  1  0  0  0
  1  6  1  0  0  0
  2  1  2  0  0  0
  3  2  1  0  0  0
  3  4  2  0  0  0
  4  5  1  0  0  0
  5  6  2  0  0  0
  6 32  1  0  0  0
 32 33  1  0  0  0
 33 34  1  0  0  0
 22 24  2  0  0  0
 22 25  1  0  0  0
 22  3  1  0  0  0
 23 22  2  0  0  0
 25 26  1  0  0  0
 27 26  1  0  0  0
 28 29  1  0  0  0
 28 27  1  0  0  0
 30 28  1  0  0  0
 30 31  1  0  0  0
 31 25  1  0  0  0
M  END
> <minimizedAffinity>
-8.61626

$$$$
/home/hjpark/lecture_drug1/0905_agent/pde5_harness/sample_run/structures/work/ligand_ref.pdb


 34 37  0  0  0  0  0  0  0  0999 V2000
    0.9196   65.5285   83.0443 C   0  0  0  0  0  0  0  0  0  0  0  0
    0.5223   64.9828   81.7624 C   0  0  0  0  0  0  0  0  0  0  0  0
    0.8094   65.6924   80.5177 C   0  0  0  0  0  0  0  0  0  0  0  0
    1.5332   66.9995   80.6201 C   0  0  0  0  0  0  0  0  0  0  0  0
    1.9412   67.5664   81.9012 C   0  0  0  0  0  0  0  0  0  0  0  0
    1.6384   66.8453   83.1525 C   0  0  0  0  0  0  0  0  0  0  0  0
   -1.8033   62.3412   85.7767 C   0  0  0  0  0  0  0  0  0  0  0  0
   -1.5874   61.8976   87.0881 N   0  0  0  0  0  0  0  0  0  0  0  0
   -0.4520   62.4793   87.5734 N   0  0  0  0  0  0  0  0  0  0  0  0
    0.0543   62.2252   88.9249 C   0  0  0  0  0  0  0  0  0  0  0  0
    0.0502   63.2836   86.5819 C   0  0  0  0  0  0  0  0  0  0  0  0
    1.2007   64.1372   86.4851 C   0  0  0  0  0  0  0  0  0  0  0  0
    1.9941   64.2831   87.3864 O   0  0  0  0  0  0  0  0  0  0  0  0
    1.4139   64.8342   85.2977 N   0  0  0  0  0  0  0  0  0  0  0  0
    0.5699   64.7502   84.1814 C   0  0  0  0  0  0  0  0  0  0  0  0
   -0.5618   63.9277   84.2268 N   0  0  0  0  0  0  0  0  0  0  0  0
   -0.7949   63.2104   85.4345 C   0  0  0  0  0  0  0  0  0  0  0  0
   -1.1704   63.8486   83.4571 H   0  0  0  0  0  0  0  0  0  0  0  0
   -2.9439   61.9210   84.9070 C   0  0  0  0  0  0  0  0  0  0  0  0
   -3.0877   60.5281   82.7785 C   0  0  0  0  0  0  0  0  0  0  0  0
   -2.2254   61.4520   83.5956 C   0  0  0  0  0  0  0  0  0  0  0  0
    0.3504   65.1095   79.0989 S   0  0  0  0  0  0  0  0  0  0  0  0
   -0.7150   65.6695   78.5566 O   0  0  0  0  0  0  0  0  0  0  0  0
    1.3126   65.2890   78.2248 O   0  0  0  0  0  0  0  0  0  0  0  0
    0.1358   63.5783   79.4706 N   0  0  0  0  0  0  0  0  0  0  0  0
    0.8597   62.5516   78.5141 C   0  0  0  0  0  0  0  0  0  0  0  0
    0.1405   62.1770   77.2038 C   0  0  0  0  0  0  0  0  0  0  0  0
   -1.3539   62.0475   77.2815 N   0  0  0  0  0  0  0  0  0  0  0  0
   -1.7141   60.6162   77.0373 C   0  0  0  0  0  0  0  0  0  0  0  0
   -2.0836   62.5445   78.5318 C   0  0  0  0  0  0  0  0  0  0  0  0
   -1.2214   62.9755   79.7785 C   0  0  0  0  0  0  0  0  0  0  0  0
    1.9803   67.3358   84.4705 O   0  0  0  0  0  0  0  0  0  0  0  0
    3.1317   68.1468   84.7787 C   0  0  0  0  0  0  0  0  0  0  0  0
    4.3032   67.1788   84.7844 C   0  0  0  0  0  0  0  0  0  0  0  0
 20 21  1  0  0  0
 21 19  1  0  0  0
 19  7  1  0  0  0
  7 17  1  0  0  0
  7  8  2  0  0  0
  8  9  1  0  0  0
  9 10  1  0  0  0
 11  9  1  0  0  0
 11 12  1  0  0  0
 12 13  2  0  0  0
 14 12  1  0  0  0
 15 14  2  0  0  0
 16 17  1  0  0  0
 16 15  1  0  0  0
 16 18  1  0  0  0
 17 11  2  0  0  0
  1 15  1  0  0  0
  1  6  1  0  0  0
  2  1  2  0  0  0
  3  2  1  0  0  0
  3  4  2  0  0  0
  4  5  1  0  0  0
  5  6  2  0  0  0
  6 32  1  0  0  0
 32 33  1  0  0  0
 33 34  1  0  0  0
 22 24  2  0  0  0
 22 25  1  0  0  0
 22  3  1  0  0  0
 23 22  2  0  0  0
 25 26  1  0  0  0
 27 26  1  0  0  0
 28 29  1  0  0  0
 28 27  1  0  0  0
 30 28  1  0  0  0
 30 31  1  0  0  0
 31 25  1  0  0  0
M  END
> <minimizedAffinity>
-8.58735

$$$$
/home/hjpark/lecture_drug1/0905_agent/pde5_harness/sample_run/structures/work/ligand_ref.pdb


 34 37  0  0  0  0  0  0  0  0999 V2000
    0.5191   65.4867   81.7686 C   0  0  0  0  0  0  0  0  0  0  0  0
    1.1909   66.0621   82.9160 C   0  0  0  0  0  0  0  0  0  0  0  0
    2.0174   67.2600   82.7850 C   0  0  0  0  0  0  0  0  0  0  0  0
    2.1373   67.8697   81.4224 C   0  0  0  0  0  0  0  0  0  0  0  0
    1.4695   67.3053   80.2543 C   0  0  0  0  0  0  0  0  0  0  0  0
    0.6442   66.0904   80.3966 C   0  0  0  0  0  0  0  0  0  0  0  0
   -2.2131   62.2703   84.4571 C   0  0  0  0  0  0  0  0  0  0  0  0
   -2.7752   61.0485   84.0642 N   0  0  0  0  0  0  0  0  0  0  0  0
   -2.4708   60.8197   82.7535 N   0  0  0  0  0  0  0  0  0  0  0  0
   -2.9099   59.6204   82.0347 C   0  0  0  0  0  0  0  0  0  0  0  0
   -1.7240   61.8842   82.3162 C   0  0  0  0  0  0  0  0  0  0  0  0
   -1.1195   62.2211   81.0581 C   0  0  0  0  0  0  0  0  0  0  0  0
   -1.1976   61.5179   80.0771 O   0  0  0  0  0  0  0  0  0  0  0  0
   -0.4057   63.4137   80.9614 N   0  0  0  0  0  0  0  0  0  0  0  0
   -0.2429   64.3140   82.0237 C   0  0  0  0  0  0  0  0  0  0  0  0
   -0.8175   64.0307   83.2682 N   0  0  0  0  0  0  0  0  0  0  0  0
   -1.5484   62.8143   83.3839 C   0  0  0  0  0  0  0  0  0  0  0  0
   -0.7205   64.6459   84.0306 H   0  0  0  0  0  0  0  0  0  0  0  0
   -2.3339   62.8698   85.8209 C   0  0  0  0  0  0  0  0  0  0  0  0
   -0.2967   63.7360   87.0823 C   0  0  0  0  0  0  0  0  0  0  0  0
   -0.9520   62.5251   86.4747 C   0  0  0  0  0  0  0  0  0  0  0  0
    2.7848   67.8869   84.0427 S   0  0  0  0  0  0  0  0  0  0  0  0
    2.9730   69.1933   84.0177 O   0  0  0  0  0  0  0  0  0  0  0  0
    2.0871   67.6635   85.1315 O   0  0  0  0  0  0  0  0  0  0  0  0
    4.1394   67.0552   83.9995 N   0  0  0  0  0  0  0  0  0  0  0  0
    4.0513   65.6037   84.6148 C   0  0  0  0  0  0  0  0  0  0  0  0
    4.1976   65.4731   86.1432 C   0  0  0  0  0  0  0  0  0  0  0  0
    5.1885   66.3944   86.7955 N   0  0  0  0  0  0  0  0  0  0  0  0
    6.3059   65.5668   87.3474 C   0  0  0  0  0  0  0  0  0  0  0  0
    5.7730   67.5562   85.9885 C   0  0  0  0  0  0  0  0  0  0  0  0
    5.4780   67.6148   84.4416 C   0  0  0  0  0  0  0  0  0  0  0  0
   -0.0372   65.4432   79.2958 O   0  0  0  0  0  0  0  0  0  0  0  0
    0.5898   65.0193   78.0688 C   0  0  0  0  0  0  0  0  0  0  0  0
   -0.5545   64.5522   77.1846 C   0  0  0  0  0  0  0  0  0  0  0  0
 20 21  1  0  0  0
 21 19  1  0  0  0
 19  7  1  0  0  0
  7 17  1  0  0  0
  7  8  2  0  0  0
  8  9  1  0  0  0
  9 10  1  0  0  0
 11  9  1  0  0  0
 11 12  1  0  0  0
 12 13  2  0  0  0
 14 12  1  0  0  0
 15 14  2  0  0  0
 16 17  1  0  0  0
 16 15  1  0  0  0
 16 18  1  0  0  0
 17 11  2  0  0  0
  1 15  1  0  0  0
  1  6  1  0  0  0
  2  1  2  0  0  0
  3  2  1  0  0  0
  3  4  2  0  0  0
  4  5  1  0  0  0
  5  6  2  0  0  0
  6 32  1  0  0  0
 32 33  1  0  0  0
 33 34  1  0  0  0
 22 24  2  0  0  0
 22 25  1  0  0  0
 22  3  1  0  0  0
 23 22  2  0  0  0
 25 26  1  0  0  0
 27 26  1  0  0  0
 28 29  1  0  0  0
 28 27  1  0  0  0
 30 28  1  0  0  0
 30 31  1  0  0  0
 31 25  1  0  0  0
M  END
> <minimizedAffinity>
-8.56208

$$$$
/home/hjpark/lecture_drug1/0905_agent/pde5_harness/sample_run/structures/work/ligand_ref.pdb


 34 37  0  0  0  0  0  0  0  0999 V2000
    1.2915   66.2311   81.9632 C   0  0  0  0  0  0  0  0  0  0  0  0
    1.7236   67.4515   81.3129 C   0  0  0  0  0  0  0  0  0  0  0  0
    2.3621   68.5256   82.0703 C   0  0  0  0  0  0  0  0  0  0  0  0
    2.5558   68.3125   83.5400 C   0  0  0  0  0  0  0  0  0  0  0  0
    2.1272   67.0913   84.2138 C   0  0  0  0  0  0  0  0  0  0  0  0
    1.4756   66.0166   83.4405 C   0  0  0  0  0  0  0  0  0  0  0  0
   -0.7550   61.8349   80.7286 C   0  0  0  0  0  0  0  0  0  0  0  0
   -1.2679   61.4176   79.4934 N   0  0  0  0  0  0  0  0  0  0  0  0
   -1.1391   62.4342   78.5917 N   0  0  0  0  0  0  0  0  0  0  0  0
   -1.5798   62.3199   77.1987 C   0  0  0  0  0  0  0  0  0  0  0  0
   -0.5516   63.4875   79.2455 C   0  0  0  0  0  0  0  0  0  0  0  0
   -0.1647   64.8113   78.8459 C   0  0  0  0  0  0  0  0  0  0  0  0
   -0.3272   65.2384   77.7260 O   0  0  0  0  0  0  0  0  0  0  0  0
    0.4293   65.6446   79.7914 N   0  0  0  0  0  0  0  0  0  0  0  0
    0.6712   65.2690   81.1202 C   0  0  0  0  0  0  0  0  0  0  0  0
    0.3075   63.9900   81.5575 N   0  0  0  0  0  0  0  0  0  0  0  0
   -0.2986   63.1254   80.6023 C   0  0  0  0  0  0  0  0  0  0  0  0
    0.4641   63.7007   82.4854 H   0  0  0  0  0  0  0  0  0  0  0  0
   -0.7249   61.0019   81.9692 C   0  0  0  0  0  0  0  0  0  0  0  0
   -2.9604   59.8564   82.3954 C   0  0  0  0  0  0  0  0  0  0  0  0
   -2.1868   61.1417   82.5161 C   0  0  0  0  0  0  0  0  0  0  0  0
    2.8185   69.8883   81.3645 S   0  0  0  0  0  0  0  0  0  0  0  0
    4.1180   70.0508   81.1980 O   0  0  0  0  0  0  0  0  0  0  0  0
    2.3103   69.9416   80.1558 O   0  0  0  0  0  0  0  0  0  0  0  0
    2.1723   70.9557   82.3503 N   0  0  0  0  0  0  0  0  0  0  0  0
    0.6826   71.3578   82.0150 C   0  0  0  0  0  0  0  0  0  0  0  0
    0.4670   72.4432   80.9428 C   0  0  0  0  0  0  0  0  0  0  0  0
    1.4607   73.5695   80.9304 N   0  0  0  0  0  0  0  0  0  0  0  0
    0.7471   74.8288   81.3087 C   0  0  0  0  0  0  0  0  0  0  0  0
    2.7405   73.4467   81.7607 C   0  0  0  0  0  0  0  0  0  0  0  0
    2.8671   72.2386   82.7646 C   0  0  0  0  0  0  0  0  0  0  0  0
    0.9952   64.7809   84.0211 O   0  0  0  0  0  0  0  0  0  0  0  0
    0.5258   64.6307   85.3759 C   0  0  0  0  0  0  0  0  0  0  0  0
   -0.4023   63.4280   85.3385 C   0  0  0  0  0  0  0  0  0  0  0  0
 20 21  1  0  0  0
 21 19  1  0  0  0
 19  7  1  0  0  0
  7 17  1  0  0  0
  7  8  2  0  0  0
  8  9  1  0  0  0
  9 10  1  0  0  0
 11  9  1  0  0  0
 11 12  1  0  0  0
 12 13  2  0  0  0
 14 12  1  0  0  0
 15 14  2  0  0  0
 16 17  1  0  0  0
 16 15  1  0  0  0
 16 18  1  0  0  0
 17 11  2  0  0  0
  1 15  1  0  0  0
  1  6  1  0  0  0
  2  1  2  0  0  0
  3  2  1  0  0  0
  3  4  2  0  0  0
  4  5  1  0  0  0
  5  6  2  0  0  0
  6 32  1  0  0  0
 32 33  1  0  0  0
 33 34  1  0  0  0
 22 24  2  0  0  0
 22 25  1  0  0  0
 22  3  1  0  0  0
 23 22  2  0  0  0
 25 26  1  0  0  0
 27 26  1  0  0  0
 28 29  1  0  0  0
 28 27  1  0  0  0
 30 28  1  0  0  0
 30 31  1  0  0  0
 31 25  1  0  0  0
M  END
> <minimizedAffinity>
-8.55309

$$$$
/home/hjpark/lecture_drug1/0905_agent/pde5_harness/sample_run/structures/work/ligand_ref.pdb


 34 37  0  0  0  0  0  0  0  0999 V2000
   -0.3602   63.9950   82.9791 C   0  0  0  0  0  0  0  0  0  0  0  0
   -1.2008   63.4757   81.9195 C   0  0  0  0  0  0  0  0  0  0  0  0
   -1.9655   62.2432   82.0975 C   0  0  0  0  0  0  0  0  0  0  0  0
   -1.8496   61.5440   83.4168 C   0  0  0  0  0  0  0  0  0  0  0  0
   -1.0082   62.0502   84.4961 C   0  0  0  0  0  0  0  0  0  0  0  0
   -0.2337   63.2911   84.3023 C   0  0  0  0  0  0  0  0  0  0  0  0
    2.9942   67.6494   83.6359 C   0  0  0  0  0  0  0  0  0  0  0  0
    3.2382   68.7754   82.8385 N   0  0  0  0  0  0  0  0  0  0  0  0
    2.3883   68.7569   81.7705 N   0  0  0  0  0  0  0  0  0  0  0  0
    2.3845   69.8003   80.7415 C   0  0  0  0  0  0  0  0  0  0  0  0
    1.6125   67.6313   81.8858 C   0  0  0  0  0  0  0  0  0  0  0  0
    0.5589   67.0674   81.0899 C   0  0  0  0  0  0  0  0  0  0  0  0
    0.1570   67.5755   80.0684 O   0  0  0  0  0  0  0  0  0  0  0  0
   -0.0323   65.8793   81.5142 N   0  0  0  0  0  0  0  0  0  0  0  0
    0.3433   65.1929   82.6775 C   0  0  0  0  0  0  0  0  0  0  0  0
    1.3685   65.7016   83.4835 N   0  0  0  0  0  0  0  0  0  0  0  0
    1.9812   66.9166   83.0645 C   0  0  0  0  0  0  0  0  0  0  0  0
    1.6535   65.2393   84.3046 H   0  0  0  0  0  0  0  0  0  0  0  0
    3.7302   67.3141   84.8928 C   0  0  0  0  0  0  0  0  0  0  0  0
    6.1428   66.5254   85.1141 C   0  0  0  0  0  0  0  0  0  0  0  0
    4.8374   66.3242   84.3926 C   0  0  0  0  0  0  0  0  0  0  0  0
   -2.8759   61.6481   80.9226 S   0  0  0  0  0  0  0  0  0  0  0  0
   -4.0499   61.1646   81.2840 O   0  0  0  0  0  0  0  0  0  0  0  0
   -3.1492   62.6000   80.0617 O   0  0  0  0  0  0  0  0  0  0  0  0
   -1.8970   60.5446   80.3284 N   0  0  0  0  0  0  0  0  0  0  0  0
   -0.4771   61.0785   79.8903 C   0  0  0  0  0  0  0  0  0  0  0  0
   -0.3613   61.7158   78.4922 C   0  0  0  0  0  0  0  0  0  0  0  0
   -1.1787   61.0802   77.4040 N   0  0  0  0  0  0  0  0  0  0  0  0
   -0.2423   60.4736   76.4074 C   0  0  0  0  0  0  0  0  0  0  0  0
   -2.2514   60.0542   77.7770 C   0  0  0  0  0  0  0  0  0  0  0  0
   -2.3119   59.5441   79.2668 C   0  0  0  0  0  0  0  0  0  0  0  0
    0.6453   63.8592   85.3021 O   0  0  0  0  0  0  0  0  0  0  0  0
    0.2123   64.4639   86.5371 C   0  0  0  0  0  0  0  0  0  0  0  0
    0.5910   63.4642   87.6172 C   0  0  0  0  0  0  0  0  0  0  0  0
 20 21  1  0  0  0
 21 19  1  0  0  0
 19  7  1  0  0  0
  7 17  1  0  0  0
  7  8  2  0  0  0
  8  9  1  0  0  0
  9 10  1  0  0  0
 11  9  1  0  0  0
 11 12  1  0  0  0
 12 13  2  0  0  0
 14 12  1  0  0  0
 15 14  2  0  0  0
 16 17  1  0  0  0
 16 15  1  0  0  0
 16 18  1  0  0  0
 17 11  2  0  0  0
  1 15  1  0  0  0
  1  6  1  0  0  0
  2  1  2  0  0  0
  3  2  1  0  0  0
  3  4  2  0  0  0
  4  5  1  0  0  0
  5  6  2  0  0  0
  6 32  1  0  0  0
 32 33  1  0  0  0
 33 34  1  0  0  0
 22 24  2  0  0  0
 22 25  1  0  0  0
 22  3  1  0  0  0
 23 22  2  0  0  0
 25 26  1  0  0  0
 27 26  1  0  0  0
 28 29  1  0  0  0
 28 27  1  0  0  0
 30 28  1  0  0  0
 30 31  1  0  0  0
 31 25  1  0  0  0
M  END
> <minimizedAffinity>
-8.52531

$$$$
/home/hjpark/lecture_drug1/0905_agent/pde5_harness/sample_run/structures/work/ligand_ref.pdb


 34 37  0  0  0  0  0  0  0  0999 V2000
    0.8778   65.5305   82.8575 C   0  0  0  0  0  0  0  0  0  0  0  0
    1.7196   66.4149   83.6374 C   0  0  0  0  0  0  0  0  0  0  0  0
    2.5957   67.3890   82.9902 C   0  0  0  0  0  0  0  0  0  0  0  0
    2.5843   67.4395   81.4935 C   0  0  0  0  0  0  0  0  0  0  0  0
    1.7445   66.5573   80.6900 C   0  0  0  0  0  0  0  0  0  0  0  0
    0.8700   65.5715   81.3540 C   0  0  0  0  0  0  0  0  0  0  0  0
   -2.5303   61.9440   83.6061 C   0  0  0  0  0  0  0  0  0  0  0  0
   -2.9573   61.3720   84.8117 N   0  0  0  0  0  0  0  0  0  0  0  0
   -2.2768   61.9500   85.8441 N   0  0  0  0  0  0  0  0  0  0  0  0
   -2.4917   61.5753   87.2445 C   0  0  0  0  0  0  0  0  0  0  0  0
   -1.4252   62.8791   85.3020 C   0  0  0  0  0  0  0  0  0  0  0  0
   -0.4668   63.7907   85.8607 C   0  0  0  0  0  0  0  0  0  0  0  0
   -0.2474   63.8751   87.0472 O   0  0  0  0  0  0  0  0  0  0  0  0
    0.2439   64.6208   84.9964 N   0  0  0  0  0  0  0  0  0  0  0  0
    0.0824   64.6187   83.6038 C   0  0  0  0  0  0  0  0  0  0  0  0
   -0.8372   63.7444   83.0127 N   0  0  0  0  0  0  0  0  0  0  0  0
   -1.5731   62.8910   83.8829 C   0  0  0  0  0  0  0  0  0  0  0  0
   -0.9694   63.7206   82.0375 H   0  0  0  0  0  0  0  0  0  0  0  0
   -3.0386   61.5676   82.2518 C   0  0  0  0  0  0  0  0  0  0  0  0
   -3.1441   59.3984   80.9195 C   0  0  0  0  0  0  0  0  0  0  0  0
   -3.0026   60.0013   82.2912 C   0  0  0  0  0  0  0  0  0  0  0  0
    3.5488   68.3517   83.8435 S   0  0  0  0  0  0  0  0  0  0  0  0
    3.8163   69.5288   83.3091 O   0  0  0  0  0  0  0  0  0  0  0  0
    2.9757   68.6210   84.9929 O   0  0  0  0  0  0  0  0  0  0  0  0
    4.8319   67.4252   83.9990 N   0  0  0  0  0  0  0  0  0  0  0  0
    4.5296   65.9285   84.4012 C   0  0  0  0  0  0  0  0  0  0  0  0
    4.3183   65.6269   85.8975 C   0  0  0  0  0  0  0  0  0  0  0  0
    5.1828   66.3939   86.8569 N   0  0  0  0  0  0  0  0  0  0  0  0
    6.1003   65.4276   87.5370 C   0  0  0  0  0  0  0  0  0  0  0  0
    5.9959   67.5845   86.3432 C   0  0  0  0  0  0  0  0  0  0  0  0
    6.0630   67.8283   84.7878 C   0  0  0  0  0  0  0  0  0  0  0  0
    0.0200   64.6389   80.6450 O   0  0  0  0  0  0  0  0  0  0  0  0
    0.3942   63.9198   79.4528 C   0  0  0  0  0  0  0  0  0  0  0  0
    0.0450   62.4697   79.7436 C   0  0  0  0  0  0  0  0  0  0  0  0
 20 21  1  0  0  0
 21 19  1  0  0  0
 19  7  1  0  0  0
  7 17  1  0  0  0
  7  8  2  0  0  0
  8  9  1  0  0  0
  9 10  1  0  0  0
 11  9  1  0  0  0
 11 12  1  0  0  0
 12 13  2  0  0  0
 14 12  1  0  0  0
 15 14  2  0  0  0
 16 17  1  0  0  0
 16 15  1  0  0  0
 16 18  1  0  0  0
 17 11  2  0  0  0
  1 15  1  0  0  0
  1  6  1  0  0  0
  2  1  2  0  0  0
  3  2  1  0  0  0
  3  4  2  0  0  0
  4  5  1  0  0  0
  5  6  2  0  0  0
  6 32  1  0  0  0
 32 33  1  0  0  0
 33 34  1  0  0  0
 22 24  2  0  0  0
 22 25  1  0  0  0
 22  3  1  0  0  0
 23 22  2  0  0  0
 25 26  1  0  0  0
 27 26  1  0  0  0
 28 29  1  0  0  0
 28 27  1  0  0  0
 30 28  1  0  0  0
 30 31  1  0  0  0
 31 25  1  0  0  0
M  END
> <minimizedAffinity>
-8.43143

$$$$
/home/hjpark/lecture_drug1/0905_agent/pde5_harness/sample_run/structures/work/ligand_ref.pdb


 34 37  0  0  0  0  0  0  0  0999 V2000
    0.3380   64.8100   82.3678 C   0  0  0  0  0  0  0  0  0  0  0  0
    0.5502   65.9700   81.5261 C   0  0  0  0  0  0  0  0  0  0  0  0
    1.1943   67.1736   82.0472 C   0  0  0  0  0  0  0  0  0  0  0  0
    1.6295   67.1578   83.4801 C   0  0  0  0  0  0  0  0  0  0  0  0
    1.4245   66.0001   84.3443 C   0  0  0  0  0  0  0  0  0  0  0  0
    0.7652   64.7931   83.8099 C   0  0  0  0  0  0  0  0  0  0  0  0
   -0.7429   61.5717   78.7095 C   0  0  0  0  0  0  0  0  0  0  0  0
   -1.6600   60.5124   78.7128 N   0  0  0  0  0  0  0  0  0  0  0  0
   -2.2722   60.4577   79.9316 N   0  0  0  0  0  0  0  0  0  0  0  0
   -3.2919   59.4588   80.2631 C   0  0  0  0  0  0  0  0  0  0  0  0
   -1.7501   61.4701   80.6962 C   0  0  0  0  0  0  0  0  0  0  0  0
   -1.9823   61.9182   82.0405 C   0  0  0  0  0  0  0  0  0  0  0  0
   -2.7768   61.3920   82.7854 O   0  0  0  0  0  0  0  0  0  0  0  0
   -1.2606   63.0133   82.5105 N   0  0  0  0  0  0  0  0  0  0  0  0
   -0.3116   63.7081   81.7475 C   0  0  0  0  0  0  0  0  0  0  0  0
   -0.0480   63.3056   80.4330 N   0  0  0  0  0  0  0  0  0  0  0  0
   -0.7793   62.1892   79.9370 C   0  0  0  0  0  0  0  0  0  0  0  0
    0.6144   63.7743   79.8755 H   0  0  0  0  0  0  0  0  0  0  0  0
    0.1277   61.9474   77.5541 C   0  0  0  0  0  0  0  0  0  0  0  0
   -0.5429   64.3385   76.9844 C   0  0  0  0  0  0  0  0  0  0  0  0
   -0.8033   62.8822   76.7083 C   0  0  0  0  0  0  0  0  0  0  0  0
    1.4086   68.4694   81.1315 S   0  0  0  0  0  0  0  0  0  0  0  0
    2.5366   68.5188   80.4475 O   0  0  0  0  0  0  0  0  0  0  0  0
    0.4588   68.5233   80.2277 O   0  0  0  0  0  0  0  0  0  0  0  0
    1.2840   69.6192   82.2230 N   0  0  0  0  0  0  0  0  0  0  0  0
    0.2555   70.7645   81.8714 C   0  0  0  0  0  0  0  0  0  0  0  0
    0.7473   71.8995   80.9526 C   0  0  0  0  0  0  0  0  0  0  0  0
    2.1688   72.3431   81.1495 N   0  0  0  0  0  0  0  0  0  0  0  0
    2.1549   73.7479   81.6638 C   0  0  0  0  0  0  0  0  0  0  0  0
    3.1023   71.4975   82.0190 C   0  0  0  0  0  0  0  0  0  0  0  0
    2.4802   70.3107   82.8485 C   0  0  0  0  0  0  0  0  0  0  0  0
    0.4963   63.6058   84.5927 O   0  0  0  0  0  0  0  0  0  0  0  0
   -0.3753   63.5507   85.7398 C   0  0  0  0  0  0  0  0  0  0  0  0
    0.5082   63.9147   86.9215 C   0  0  0  0  0  0  0  0  0  0  0  0
 20 21  1  0  0  0
 21 19  1  0  0  0
 19  7  1  0  0  0
  7 17  1  0  0  0
  7  8  2  0  0  0
  8  9  1  0  0  0
  9 10  1  0  0  0
 11  9  1  0  0  0
 11 12  1  0  0  0
 12 13  2  0  0  0
 14 12  1  0  0  0
 15 14  2  0  0  0
 16 17  1  0  0  0
 16 15  1  0  0  0
 16 18  1  0  0  0
 17 11  2  0  0  0
  1 15  1  0  0  0
  1  6  1  0  0  0
  2  1  2  0  0  0
  3  2  1  0  0  0
  3  4  2  0  0  0
  4  5  1  0  0  0
  5  6  2  0  0  0
  6 32  1  0  0  0
 32 33  1  0  0  0
 33 34  1  0  0  0
 22 24  2  0  0  0
 22 25  1  0  0  0
 22  3  1  0  0  0
 23 22  2  0  0  0
 25 26  1  0  0  0
 27 26  1  0  0  0
 28 29  1  0  0  0
 28 27  1  0  0  0
 30 28  1  0  0  0
 30 31  1  0  0  0
 31 25  1  0  0  0
M  END
> <minimizedAffinity>
-8.41251

$$$$
/home/hjpark/lecture_drug1/0905_agent/pde5_harness/sample_run/structures/work/ligand_ref.pdb


 34 37  0  0  0  0  0  0  0  0999 V2000
    0.5379   65.3146   83.0443 C   0  0  0  0  0  0  0  0  0  0  0  0
    0.6609   66.3281   82.0164 C   0  0  0  0  0  0  0  0  0  0  0  0
    1.4978   67.5092   82.2165 C   0  0  0  0  0  0  0  0  0  0  0  0
    2.2248   67.6265   83.5206 C   0  0  0  0  0  0  0  0  0  0  0  0
    2.1137   66.6173   84.5686 C   0  0  0  0  0  0  0  0  0  0  0  0
    1.2589   65.4329   84.3591 C   0  0  0  0  0  0  0  0  0  0  0  0
   -2.5233   61.4644   83.9624 C   0  0  0  0  0  0  0  0  0  0  0  0
   -3.1578   60.6070   83.0539 N   0  0  0  0  0  0  0  0  0  0  0  0
   -2.8209   60.9764   81.7838 N   0  0  0  0  0  0  0  0  0  0  0  0
   -3.3186   60.2774   80.5958 C   0  0  0  0  0  0  0  0  0  0  0  0
   -1.9820   62.0575   81.8822 C   0  0  0  0  0  0  0  0  0  0  0  0
   -1.3067   62.8795   80.9179 C   0  0  0  0  0  0  0  0  0  0  0  0
   -1.3983   62.7098   79.7238 O   0  0  0  0  0  0  0  0  0  0  0  0
   -0.5044   63.9216   81.3778 N   0  0  0  0  0  0  0  0  0  0  0  0
   -0.3171   64.2220   82.7343 C   0  0  0  0  0  0  0  0  0  0  0  0
   -0.9582   63.4512   83.7111 N   0  0  0  0  0  0  0  0  0  0  0  0
   -1.7799   62.3807   83.2572 C   0  0  0  0  0  0  0  0  0  0  0  0
   -0.8458   63.6410   84.6705 H   0  0  0  0  0  0  0  0  0  0  0  0
   -2.6522   61.3841   85.4493 C   0  0  0  0  0  0  0  0  0  0  0  0
   -2.7463   63.0802   87.3482 C   0  0  0  0  0  0  0  0  0  0  0  0
   -2.8591   62.8821   85.8606 C   0  0  0  0  0  0  0  0  0  0  0  0
    1.6184   68.6470   81.0966 S   0  0  0  0  0  0  0  0  0  0  0  0
    2.1662   68.2818   79.9523 O   0  0  0  0  0  0  0  0  0  0  0  0
    0.4180   69.0723   80.7799 O   0  0  0  0  0  0  0  0  0  0  0  0
    2.4691   69.7372   81.8817 N   0  0  0  0  0  0  0  0  0  0  0  0
    1.6965   71.0732   82.2154 C   0  0  0  0  0  0  0  0  0  0  0  0
    1.6262   72.1448   81.1104 C   0  0  0  0  0  0  0  0  0  0  0  0
    2.8543   72.3016   80.2598 N   0  0  0  0  0  0  0  0  0  0  0  0
    3.4386   73.6531   80.5241 C   0  0  0  0  0  0  0  0  0  0  0  0
    3.9617   71.2485   80.3442 C   0  0  0  0  0  0  0  0  0  0  0  0
    3.8693   70.1557   81.4759 C   0  0  0  0  0  0  0  0  0  0  0  0
    1.0659   64.3913   85.3453 O   0  0  0  0  0  0  0  0  0  0  0  0
    0.4491   64.5769   86.6351 C   0  0  0  0  0  0  0  0  0  0  0  0
    1.2623   63.7151   87.5865 C   0  0  0  0  0  0  0  0  0  0  0  0
 20 21  1  0  0  0
 21 19  1  0  0  0
 19  7  1  0  0  0
  7 17  1  0  0  0
  7  8  2  0  0  0
  8  9  1  0  0  0
  9 10  1  0  0  0
 11  9  1  0  0  0
 11 12  1  0  0  0
 12 13  2  0  0  0
 14 12  1  0  0  0
 15 14  2  0  0  0
 16 17  1  0  0  0
 16 15  1  0  0  0
 16 18  1  0  0  0
 17 11  2  0  0  0
  1 15  1  0  0  0
  1  6  1  0  0  0
  2  1  2  0  0  0
  3  2  1  0  0  0
  3  4  2  0  0  0
  4  5  1  0  0  0
  5  6  2  0  0  0
  6 32  1  0  0  0
 32 33  1  0  0  0
 33 34  1  0  0  0
 22 24  2  0  0  0
 22 25  1  0  0  0
 22  3  1  0  0  0
 23 22  2  0  0  0
 25 26  1  0  0  0
 27 26  1  0  0  0
 28 29  1  0  0  0
 28 27  1  0  0  0
 30 28  1  0  0  0
 30 31  1  0  0  0
 31 25  1  0  0  0
M  END
> <minimizedAffinity>
-8.35347

$$$$
/home/hjpark/lecture_drug1/0905_agent/pde5_harness/sample_run/structures/work/ligand_ref.pdb


 34 37  0  0  0  0  0  0  0  0999 V2000
    0.9532   66.8749   81.2334 C   0  0  0  0  0  0  0  0  0  0  0  0
    0.5999   66.2222   79.9892 C   0  0  0  0  0  0  0  0  0  0  0  0
    0.2521   64.8034   79.9527 C   0  0  0  0  0  0  0  0  0  0  0  0
    0.2705   64.0551   81.2499 C   0  0  0  0  0  0  0  0  0  0  0  0
    0.6241   64.6938   82.5133 C   0  0  0  0  0  0  0  0  0  0  0  0
    0.9820   66.1251   82.5370 C   0  0  0  0  0  0  0  0  0  0  0  0
    0.1147   71.8000   80.9540 C   0  0  0  0  0  0  0  0  0  0  0  0
    1.0395   72.8462   80.8382 N   0  0  0  0  0  0  0  0  0  0  0  0
    2.3006   72.3245   80.8132 N   0  0  0  0  0  0  0  0  0  0  0  0
    3.5012   73.1567   80.6968 C   0  0  0  0  0  0  0  0  0  0  0  0
    2.1804   70.9615   80.9129 C   0  0  0  0  0  0  0  0  0  0  0  0
    3.1270   69.8823   80.9436 C   0  0  0  0  0  0  0  0  0  0  0  0
    4.3232   70.0493   80.8786 O   0  0  0  0  0  0  0  0  0  0  0  0
    2.6464   68.5789   81.0505 N   0  0  0  0  0  0  0  0  0  0  0  0
    1.2853   68.2536   81.1344 C   0  0  0  0  0  0  0  0  0  0  0  0
    0.3253   69.2720   81.1127 N   0  0  0  0  0  0  0  0  0  0  0  0
    0.8004   70.6096   81.0014 C   0  0  0  0  0  0  0  0  0  0  0  0
   -0.6368   69.0722   81.1718 H   0  0  0  0  0  0  0  0  0  0  0  0
   -1.3686   71.9713   81.0210 C   0  0  0  0  0  0  0  0  0  0  0  0
   -2.8694   72.4967   79.0303 C   0  0  0  0  0  0  0  0  0  0  0  0
   -1.6616   72.9301   79.8166 C   0  0  0  0  0  0  0  0  0  0  0  0
   -0.1136   64.0681   78.5783 S   0  0  0  0  0  0  0  0  0  0  0  0
   -0.8408   64.7620   77.7224 O   0  0  0  0  0  0  0  0  0  0  0  0
    0.9923   63.7814   77.9326 O   0  0  0  0  0  0  0  0  0  0  0  0
   -0.8558   62.7746   79.1304 N   0  0  0  0  0  0  0  0  0  0  0  0
   -0.2973   61.4015   78.5863 C   0  0  0  0  0  0  0  0  0  0  0  0
   -0.8095   60.9234   77.2139 C   0  0  0  0  0  0  0  0  0  0  0  0
   -2.2546   61.2003   76.9124 N   0  0  0  0  0  0  0  0  0  0  0  0
   -2.9746   59.8919   76.8243 C   0  0  0  0  0  0  0  0  0  0  0  0
   -3.0402   62.1475   77.8225 C   0  0  0  0  0  0  0  0  0  0  0  0
   -2.3649   62.6272   79.1631 C   0  0  0  0  0  0  0  0  0  0  0  0
    1.3690   66.8413   83.7338 O   0  0  0  0  0  0  0  0  0  0  0  0
    2.6954   66.8532   84.2985 C   0  0  0  0  0  0  0  0  0  0  0  0
    2.9853   68.3166   84.5881 C   0  0  0  0  0  0  0  0  0  0  0  0
 20 21  1  0  0  0
 21 19  1  0  0  0
 19  7  1  0  0  0
  7 17  1  0  0  0
  7  8  2  0  0  0
  8  9  1  0  0  0
  9 10  1  0  0  0
 11  9  1  0  0  0
 11 12  1  0  0  0
 12 13  2  0  0  0
 14 12  1  0  0  0
 15 14  2  0  0  0
 16 17  1  0  0  0
 16 15  1  0  0  0
 16 18  1  0  0  0
 17 11  2  0  0  0
  1 15  1  0  0  0
  1  6  1  0  0  0
  2  1  2  0  0  0
  3  2  1  0  0  0
  3  4  2  0  0  0
  4  5  1  0  0  0
  5  6  2  0  0  0
  6 32  1  0  0  0
 32 33  1  0  0  0
 33 34  1  0  0  0
 22 24  2  0  0  0
 22 25  1  0  0  0
 22  3  1  0  0  0
 23 22  2  0  0  0
 25 26  1  0  0  0
 27 26  1  0  0  0
 28 29  1  0  0  0
 28 27  1  0  0  0
 30 28  1  0  0  0
 30 31  1  0  0  0
 31 25  1  0  0  0
M  END
> <minimizedAffinity>
-8.20069

$$$$
