/home/hjpark/lecture_drug1/0905_agent/pde5_harness/sample_run/structures/work/ligand_ref.pdb


 34 37  0  0  0  0  0  0  0  0999 V2000
    0.4190   64.1536   83.8707 C   0  0  0  0  0  0  0  0  0  0  0  0
    0.1446   63.4138   82.6557 C   0  0  0  0  0  0  0  0  0  0  0  0
   -0.6898   62.2143   82.6739 C   0  0  0  0  0  0  0  0  0  0  0  0
   -1.2521   61.7852   83.9940 C   0  0  0  0  0  0  0  0  0  0  0  0
   -0.9871   62.5159   85.2288 C   0  0  0  0  0  0  0  0  0  0  0  0
   -0.1360   63.7210   85.2001 C   0  0  0  0  0  0  0  0  0  0  0  0
    4.3068   67.1593   84.8138 C   0  0  0  0  0  0  0  0  0  0  0  0
    4.6344   68.3874   84.2244 N   0  0  0  0  0  0  0  0  0  0  0  0
    3.6959   68.6930   83.2816 N   0  0  0  0  0  0  0  0  0  0  0  0
    3.7463   69.9188   82.4801 C   0  0  0  0  0  0  0  0  0  0  0  0
    2.7814   67.6704   83.2699 C   0  0  0  0  0  0  0  0  0  0  0  0
    1.5893   67.4150   82.5114 C   0  0  0  0  0  0  0  0  0  0  0  0
    1.1716   68.1678   81.6618 O   0  0  0  0  0  0  0  0  0  0  0  0
    0.8762   66.2456   82.7668 N   0  0  0  0  0  0  0  0  0  0  0  0
    1.2556   65.2936   83.7234 C   0  0  0  0  0  0  0  0  0  0  0  0
    2.4126   65.4968   84.4845 N   0  0  0  0  0  0  0  0  0  0  0  0
    3.1513   66.6886   84.2369 C   0  0  0  0  0  0  0  0  0  0  0  0
    2.7032   64.8440   85.1616 H   0  0  0  0  0  0  0  0  0  0  0  0
    5.1000   66.4850   85.8863 C   0  0  0  0  0  0  0  0  0  0  0  0
    7.4135   65.9494   84.9631 C   0  0  0  0  0  0  0  0  0  0  0  0
    5.9889   65.4781   85.0790 C   0  0  0  0  0  0  0  0  0  0  0  0
   -0.9762   61.3757   81.3404 S   0  0  0  0  0  0  0  0  0  0  0  0
    0.0836   60.9027   80.7113 O   0  0  0  0  0  0  0  0  0  0  0  0
   -1.6955   60.3195   81.6388 O   0  0  0  0  0  0  0  0  0  0  0  0
   -1.7847   62.4498   80.4909 N   0  0  0  0  0  0  0  0  0  0  0  0
   -3.2742   62.0493   80.1529 C   0  0  0  0  0  0  0  0  0  0  0  0
   -3.5019   61.1368   78.9324 C   0  0  0  0  0  0  0  0  0  0  0  0
   -2.6114   61.3800   77.7474 N   0  0  0  0  0  0  0  0  0  0  0  0
   -3.4578   61.8784   76.6190 C   0  0  0  0  0  0  0  0  0  0  0  0
   -1.3917   62.2913   77.9033 C   0  0  0  0  0  0  0  0  0  0  0  0
   -1.2367   63.1105   79.2405 C   0  0  0  0  0  0  0  0  0  0  0  0
    0.2033   64.4985   86.3728 O   0  0  0  0  0  0  0  0  0  0  0  0
   -0.2130   64.1911   87.7184 C   0  0  0  0  0  0  0  0  0  0  0  0
    0.9133   63.3494   88.2949 C   0  0  0  0  0  0  0  0  0  0  0  0
 20 21  1  0  0  0
 21 19  1  0  0  0
 19  7  1  0  0  0
  7 17  1  0  0  0
  7  8  2  0  0  0
  8  9  1  0  0  0
  9 10  1  0  0  0
 11  9  1  0  0  0
 11 12  1  0  0  0
 12 13  2  0  0  0
 14 12  1  0  0  0
 15 14  2  0  0  0
 16 17  1  0  0  0
 16 15  1  0  0  0
 16 18  1  0  0  0
 17 11  2  0  0  0
  1 15  1  0  0  0
  1  6  1  0  0  0
  2  1  2  0  0  0
  3  2  1  0  0  0
  3  4  2  0  0  0
  4  5  1  0  0  0
  5  6  2  0  0  0
  6 32  1  0  0  0
 32 33  1  0  0  0
 33 34  1  0  0  0
 22 24  2  0  0  0
 22 25  1  0  0  0
 22  3  1  0  0  0
 23 22  2  0  0  0
 25 26  1  0  0  0
 27 26  1  0  0  0
 28 29  1  0  0  0
 28 27  1  0  0  0
 30 28  1  0  0  0
 30 31  1  0  0  0
 31 25  1  0  0  0
M  END
> <minimizedAffinity>
-9.62794

$$$$
/home/hjpark/lecture_drug1/0905_agent/pde5_harness/sample_run/structures/work/ligand_ref.pdb


 34 37  0  0  0  0  0  0  0  0999 V2000
    2.1446   67.1738   83.3180 C   0  0  0  0  0  0  0  0  0  0  0  0
    1.5985   68.1536   82.4011 C   0  0  0  0  0  0  0  0  0  0  0  0
    2.3508   69.3537   82.0420 C   0  0  0  0  0  0  0  0  0  0  0  0
    3.7067   69.5267   82.6538 C   0  0  0  0  0  0  0  0  0  0  0  0
    4.2743   68.5521   83.5797 C   0  0  0  0  0  0  0  0  0  0  0  0
    3.5021   67.3480   83.9420 C   0  0  0  0  0  0  0  0  0  0  0  0
   -0.1432   63.7341   86.1416 C   0  0  0  0  0  0  0  0  0  0  0  0
   -0.9962   62.6952   85.7464 N   0  0  0  0  0  0  0  0  0  0  0  0
   -1.1480   62.7354   84.3905 N   0  0  0  0  0  0  0  0  0  0  0  0
   -1.9809   61.7787   83.6567 C   0  0  0  0  0  0  0  0  0  0  0  0
   -0.4008   63.7887   83.9274 C   0  0  0  0  0  0  0  0  0  0  0  0
   -0.1596   64.3349   82.6216 C   0  0  0  0  0  0  0  0  0  0  0  0
   -0.6499   63.8808   81.6134 O   0  0  0  0  0  0  0  0  0  0  0  0
    0.6818   65.4396   82.5077 N   0  0  0  0  0  0  0  0  0  0  0  0
    1.3095   66.0580   83.5981 C   0  0  0  0  0  0  0  0  0  0  0  0
    1.1013   65.5638   84.8910 N   0  0  0  0  0  0  0  0  0  0  0  0
    0.2456   64.4335   85.0239 C   0  0  0  0  0  0  0  0  0  0  0  0
    1.5280   65.9797   85.6747 H   0  0  0  0  0  0  0  0  0  0  0  0
    0.2595   64.0225   87.5518 C   0  0  0  0  0  0  0  0  0  0  0  0
    0.2721   62.1209   89.2475 C   0  0  0  0  0  0  0  0  0  0  0  0
   -0.5888   62.9914   88.3722 C   0  0  0  0  0  0  0  0  0  0  0  0
    1.7438   70.4545   81.0504 S   0  0  0  0  0  0  0  0  0  0  0  0
    2.6078   71.0700   80.2647 O   0  0  0  0  0  0  0  0  0  0  0  0
    0.8905   69.8803   80.2355 O   0  0  0  0  0  0  0  0  0  0  0  0
    1.0387   71.4263   82.0932 N   0  0  0  0  0  0  0  0  0  0  0  0
   -0.4066   71.9112   81.6819 C   0  0  0  0  0  0  0  0  0  0  0  0
   -0.5032   73.1154   80.7253 C   0  0  0  0  0  0  0  0  0  0  0  0
    0.5132   74.2033   80.9242 N   0  0  0  0  0  0  0  0  0  0  0  0
   -0.2016   75.4353   81.3816 C   0  0  0  0  0  0  0  0  0  0  0  0
    1.7128   73.9476   81.8397 C   0  0  0  0  0  0  0  0  0  0  0  0
    1.7240   72.6320   82.7072 C   0  0  0  0  0  0  0  0  0  0  0  0
    3.9682   66.3377   84.8676 O   0  0  0  0  0  0  0  0  0  0  0  0
    5.3379   65.9092   85.0041 C   0  0  0  0  0  0  0  0  0  0  0  0
    5.3836   65.1557   86.3230 C   0  0  0  0  0  0  0  0  0  0  0  0
 20 21  1  0  0  0
 21 19  1  0  0  0
 19  7  1  0  0  0
  7 17  1  0  0  0
  7  8  2  0  0  0
  8  9  1  0  0  0
  9 10  1  0  0  0
 11  9  1  0  0  0
 11 12  1  0  0  0
 12 13  2  0  0  0
 14 12  1  0  0  0
 15 14  2  0  0  0
 16 17  1  0  0  0
 16 15  1  0  0  0
 16 18  1  0  0  0
 17 11  2  0  0  0
  1 15  1  0  0  0
  1  6  1  0  0  0
  2  1  2  0  0  0
  3  2  1  0  0  0
  3  4  2  0  0  0
  4  5  1  0  0  0
  5  6  2  0  0  0
  6 32  1  0  0  0
 32 33  1  0  0  0
 33 34  1  0  0  0
 22 24  2  0  0  0
 22 25  1  0  0  0
 22  3  1  0  0  0
 23 22  2  0  0  0
 25 26  1  0  0  0
 27 26  1  0  0  0
 28 29  1  0  0  0
 28 27  1  0  0  0
 30 28  1  0  0  0
 30 31  1  0  0  0
 31 25  1  0  0  0
M  END
> <minimizedAffinity>
-9.49505

$$$$
/home/hjpark/lecture_drug1/0905_agent/pde5_harness/sample_run/structures/work/ligand_ref.pdb


 34 37  0  0  0  0  0  0  0  0999 V2000
    0.1884   64.3542   84.0742 C   0  0  0  0  0  0  0  0  0  0  0  0
   -0.4163   63.8170   82.8722 C   0  0  0  0  0  0  0  0  0  0  0  0
   -1.3727   62.7141   82.9360 C   0  0  0  0  0  0  0  0  0  0  0  0
   -1.7054   62.1669   84.2898 C   0  0  0  0  0  0  0  0  0  0  0  0
   -1.1069   62.6935   85.5120 C   0  0  0  0  0  0  0  0  0  0  0  0
   -0.1358   63.8017   85.4350 C   0  0  0  0  0  0  0  0  0  0  0  0
    4.3710   67.0039   84.7980 C   0  0  0  0  0  0  0  0  0  0  0  0
    4.7741   68.1985   84.1870 N   0  0  0  0  0  0  0  0  0  0  0  0
    3.8177   68.5863   83.2937 N   0  0  0  0  0  0  0  0  0  0  0  0
    3.9336   69.8032   82.4854 C   0  0  0  0  0  0  0  0  0  0  0  0
    2.8171   67.6486   83.3346 C   0  0  0  0  0  0  0  0  0  0  0  0
    1.5686   67.5000   82.6412 C   0  0  0  0  0  0  0  0  0  0  0  0
    1.1746   68.2871   81.8116 O   0  0  0  0  0  0  0  0  0  0  0  0
    0.7695   66.3981   82.9388 N   0  0  0  0  0  0  0  0  0  0  0  0
    1.1134   65.4158   83.8781 C   0  0  0  0  0  0  0  0  0  0  0  0
    2.3226   65.5156   84.5762 N   0  0  0  0  0  0  0  0  0  0  0  0
    3.1495   66.6375   84.2849 C   0  0  0  0  0  0  0  0  0  0  0  0
    2.5898   64.8393   85.2398 H   0  0  0  0  0  0  0  0  0  0  0  0
    5.1571   66.2617   85.8300 C   0  0  0  0  0  0  0  0  0  0  0  0
    7.4101   65.7906   84.7373 C   0  0  0  0  0  0  0  0  0  0  0  0
    6.6209   66.7601   85.5754 C   0  0  0  0  0  0  0  0  0  0  0  0
   -2.0253   62.0968   81.6106 S   0  0  0  0  0  0  0  0  0  0  0  0
   -2.4498   60.8498   81.6972 O   0  0  0  0  0  0  0  0  0  0  0  0
   -3.0862   62.7965   81.2836 O   0  0  0  0  0  0  0  0  0  0  0  0
   -0.8258   62.2830   80.5833 N   0  0  0  0  0  0  0  0  0  0  0  0
   -1.0973   63.3162   79.4205 C   0  0  0  0  0  0  0  0  0  0  0  0
   -1.8720   62.8082   78.1893 C   0  0  0  0  0  0  0  0  0  0  0  0
   -1.5726   61.4030   77.7509 N   0  0  0  0  0  0  0  0  0  0  0  0
   -0.9156   61.4605   76.4081 C   0  0  0  0  0  0  0  0  0  0  0  0
   -0.7591   60.4899   78.6712 C   0  0  0  0  0  0  0  0  0  0  0  0
   -0.0837   61.1238   79.9462 C   0  0  0  0  0  0  0  0  0  0  0  0
    0.5281   64.3754   86.5861 O   0  0  0  0  0  0  0  0  0  0  0  0
    1.1277   63.6197   87.6575 C   0  0  0  0  0  0  0  0  0  0  0  0
    0.0093   63.4126   88.6652 C   0  0  0  0  0  0  0  0  0  0  0  0
 20 21  1  0  0  0
 21 19  1  0  0  0
 19  7  1  0  0  0
  7 17  1  0  0  0
  7  8  2  0  0  0
  8  9  1  0  0  0
  9 10  1  0  0  0
 11  9  1  0  0  0
 11 12  1  0  0  0
 12 13  2  0  0  0
 14 12  1  0  0  0
 15 14  2  0  0  0
 16 17  1  0  0  0
 16 15  1  0  0  0
 16 18  1  0  0  0
 17 11  2  0  0  0
  1 15  1  0  0  0
  1  6  1  0  0  0
  2  1  2  0  0  0
  3  2  1  0  0  0
  3  4  2  0  0  0
  4  5  1  0  0  0
  5  6  2  0  0  0
  6 32  1  0  0  0
 32 33  1  0  0  0
 33 34  1  0  0  0
 22 24  2  0  0  0
 22 25  1  0  0  0
 22  3  1  0  0  0
 23 22  2  0  0  0
 25 26  1  0  0  0
 27 26  1  0  0  0
 28 29  1  0  0  0
 28 27  1  0  0  0
 30 28  1  0  0  0
 30 31  1  0  0  0
 31 25  1  0  0  0
M  END
> <minimizedAffinity>
-9.42990

$$$$
/home/hjpark/lecture_drug1/0905_agent/pde5_harness/sample_run/structures/work/ligand_ref.pdb


 34 37  0  0  0  0  0  0  0  0999 V2000
    2.2728   67.0097   83.5964 C   0  0  0  0  0  0  0  0  0  0  0  0
    1.7339   68.1008   82.8103 C   0  0  0  0  0  0  0  0  0  0  0  0
    2.5394   69.2809   82.5041 C   0  0  0  0  0  0  0  0  0  0  0  0
    3.9415   69.3144   83.0294 C   0  0  0  0  0  0  0  0  0  0  0  0
    4.5026   68.2262   83.8233 C   0  0  0  0  0  0  0  0  0  0  0  0
    3.6773   67.0431   84.1337 C   0  0  0  0  0  0  0  0  0  0  0  0
   -0.3107   63.6966   86.3143 C   0  0  0  0  0  0  0  0  0  0  0  0
   -1.1677   62.6771   85.8792 N   0  0  0  0  0  0  0  0  0  0  0  0
   -1.2255   62.6961   84.5157 N   0  0  0  0  0  0  0  0  0  0  0  0
   -2.0369   61.7517   83.7427 C   0  0  0  0  0  0  0  0  0  0  0  0
   -0.4153   63.7169   84.0871 C   0  0  0  0  0  0  0  0  0  0  0  0
   -0.0685   64.2303   82.7918 C   0  0  0  0  0  0  0  0  0  0  0  0
   -0.5035   63.7724   81.7603 O   0  0  0  0  0  0  0  0  0  0  0  0
    0.8136   65.3062   82.7172 N   0  0  0  0  0  0  0  0  0  0  0  0
    1.3853   65.9256   83.8374 C   0  0  0  0  0  0  0  0  0  0  0  0
    1.0739   65.4628   85.1212 N   0  0  0  0  0  0  0  0  0  0  0  0
    0.1755   64.3622   85.2142 C   0  0  0  0  0  0  0  0  0  0  0  0
    1.4595   65.8802   85.9251 H   0  0  0  0  0  0  0  0  0  0  0  0
    0.0043   63.9992   87.7437 C   0  0  0  0  0  0  0  0  0  0  0  0
    0.2403   61.9898   89.2923 C   0  0  0  0  0  0  0  0  0  0  0  0
   -0.7229   62.8425   88.5113 C   0  0  0  0  0  0  0  0  0  0  0  0
    1.9430   70.5030   81.6589 S   0  0  0  0  0  0  0  0  0  0  0  0
    1.9070   70.3421   80.3491 O   0  0  0  0  0  0  0  0  0  0  0  0
    0.6956   70.7063   82.0121 O   0  0  0  0  0  0  0  0  0  0  0  0
    2.9117   71.6758   82.1223 N   0  0  0  0  0  0  0  0  0  0  0  0
    2.2699   72.7157   83.1223 C   0  0  0  0  0  0  0  0  0  0  0  0
    1.4293   73.8553   82.5148 C   0  0  0  0  0  0  0  0  0  0  0  0
    1.9254   74.4257   81.2168 N   0  0  0  0  0  0  0  0  0  0  0  0
    2.3451   75.8415   81.4565 C   0  0  0  0  0  0  0  0  0  0  0  0
    3.0319   73.6944   80.4531 C   0  0  0  0  0  0  0  0  0  0  0  0
    3.7583   72.4889   81.1619 C   0  0  0  0  0  0  0  0  0  0  0  0
    4.1351   65.9256   84.9316 O   0  0  0  0  0  0  0  0  0  0  0  0
    5.5132   65.6437   85.2472 C   0  0  0  0  0  0  0  0  0  0  0  0
    5.4940   65.1538   86.6855 C   0  0  0  0  0  0  0  0  0  0  0  0
 20 21  1  0  0  0
 21 19  1  0  0  0
 19  7  1  0  0  0
  7 17  1  0  0  0
  7  8  2  0  0  0
  8  9  1  0  0  0
  9 10  1  0  0  0
 11  9  1  0  0  0
 11 12  1  0  0  0
 12 13  2  0  0  0
 14 12  1  0  0  0
 15 14  2  0  0  0
 16 17  1  0  0  0
 16 15  1  0  0  0
 16 18  1  0  0  0
 17 11  2  0  0  0
  1 15  1  0  0  0
  1  6  1  0  0  0
  2  1  2  0  0  0
  3  2  1  0  0  0
  3  4  2  0  0  0
  4  5  1  0  0  0
  5  6  2  0  0  0
  6 32  1  0  0  0
 32 33  1  0  0  0
 33 34  1  0  0  0
 22 24  2  0  0  0
 22 25  1  0  0  0
 22  3  1  0  0  0
 23 22  2  0  0  0
 25 26  1  0  0  0
 27 26  1  0  0  0
 28 29  1  0  0  0
 28 27  1  0  0  0
 30 28  1  0  0  0
 30 31  1  0  0  0
 31 25  1  0  0  0
M  END
> <minimizedAffinity>
-9.17431

$$$$
/home/hjpark/lecture_drug1/0905_agent/pde5_harness/sample_run/structures/work/ligand_ref.pdb


 34 37  0  0  0  0  0  0  0  0999 V2000
    0.9287   65.9964   81.9437 C   0  0  0  0  0  0  0  0  0  0  0  0
    1.4456   67.2382   82.4818 C   0  0  0  0  0  0  0  0  0  0  0  0
    2.0265   68.2559   81.6088 C   0  0  0  0  0  0  0  0  0  0  0  0
    2.0608   67.9665   80.1398 C   0  0  0  0  0  0  0  0  0  0  0  0
    1.5461   66.7220   79.5781 C   0  0  0  0  0  0  0  0  0  0  0  0
    0.9696   65.6976   80.4701 C   0  0  0  0  0  0  0  0  0  0  0  0
   -1.9122   62.2405   83.6352 C   0  0  0  0  0  0  0  0  0  0  0  0
   -2.0029   61.7195   84.9327 N   0  0  0  0  0  0  0  0  0  0  0  0
   -1.1530   62.4081   85.7491 N   0  0  0  0  0  0  0  0  0  0  0  0
   -1.0093   62.1106   87.1769 C   0  0  0  0  0  0  0  0  0  0  0  0
   -0.5273   63.3564   84.9802 C   0  0  0  0  0  0  0  0  0  0  0  0
    0.4561   64.3657   85.2559 C   0  0  0  0  0  0  0  0  0  0  0  0
    0.9344   64.5412   86.3530 O   0  0  0  0  0  0  0  0  0  0  0  0
    0.8791   65.1851   84.2116 N   0  0  0  0  0  0  0  0  0  0  0  0
    0.4030   65.0822   82.8970 C   0  0  0  0  0  0  0  0  0  0  0  0
   -0.5533   64.1107   82.5789 N   0  0  0  0  0  0  0  0  0  0  0  0
   -0.9976   63.2667   83.6360 C   0  0  0  0  0  0  0  0  0  0  0  0
   -0.9034   64.0151   81.6638 H   0  0  0  0  0  0  0  0  0  0  0  0
   -2.6853   61.7436   82.4565 C   0  0  0  0  0  0  0  0  0  0  0  0
   -1.1644   61.1077   80.5139 C   0  0  0  0  0  0  0  0  0  0  0  0
   -1.7251   60.6695   81.8400 C   0  0  0  0  0  0  0  0  0  0  0  0
    2.6242   69.6194   82.1978 S   0  0  0  0  0  0  0  0  0  0  0  0
    2.2742   69.9223   83.4342 O   0  0  0  0  0  0  0  0  0  0  0  0
    3.9341   69.5432   82.2231 O   0  0  0  0  0  0  0  0  0  0  0  0
    2.0899   70.6594   81.1200 N   0  0  0  0  0  0  0  0  0  0  0  0
    2.9558   71.9715   80.9722 C   0  0  0  0  0  0  0  0  0  0  0  0
    2.6930   73.1096   81.9772 C   0  0  0  0  0  0  0  0  0  0  0  0
    1.2617   73.3198   82.3813 N   0  0  0  0  0  0  0  0  0  0  0  0
    0.8196   74.6528   81.8657 C   0  0  0  0  0  0  0  0  0  0  0  0
    0.2172   72.2644   82.0103 C   0  0  0  0  0  0  0  0  0  0  0  0
    0.6423   71.1033   81.0332 C   0  0  0  0  0  0  0  0  0  0  0  0
    0.4559   64.4244   80.0120 O   0  0  0  0  0  0  0  0  0  0  0  0
   -0.0287   64.1581   78.6806 C   0  0  0  0  0  0  0  0  0  0  0  0
    0.9250   63.1181   78.1167 C   0  0  0  0  0  0  0  0  0  0  0  0
 20 21  1  0  0  0
 21 19  1  0  0  0
 19  7  1  0  0  0
  7 17  1  0  0  0
  7  8  2  0  0  0
  8  9  1  0  0  0
  9 10  1  0  0  0
 11  9  1  0  0  0
 11 12  1  0  0  0
 12 13  2  0  0  0
 14 12  1  0  0  0
 15 14  2  0  0  0
 16 17  1  0  0  0
 16 15  1  0  0  0
 16 18  1  0  0  0
 17 11  2  0  0  0
  1 15  1  0  0  0
  1  6  1  0  0  0
  2  1  2  0  0  0
  3  2  1  0  0  0
  3  4  2  0  0  0
  4  5  1  0  0  0
  5  6  2  0  0  0
  6 32  1  0  0  0
 32 33  1  0  0  0
 33 34  1  0  0  0
 22 24  2  0  0  0
 22 25  1  0  0  0
 22  3  1  0  0  0
 23 22  2  0  0  0
 25 26  1  0  0  0
 27 26  1  0  0  0
 28 29  1  0  0  0
 28 27  1  0  0  0
 30 28  1  0  0  0
 30 31  1  0  0  0
 31 25  1  0  0  0
M  END
> <minimizedAffinity>
-8.97593

$$$$
/home/hjpark/lecture_drug1/0905_agent/pde5_harness/sample_run/structures/work/ligand_ref.pdb


 34 37  0  0  0  0  0  0  0  0999 V2000
    2.1998   66.3051   84.0751 C   0  0  0  0  0  0  0  0  0  0  0  0
    1.6997   67.1905   83.0431 C   0  0  0  0  0  0  0  0  0  0  0  0
    2.5257   68.2715   82.5099 C   0  0  0  0  0  0  0  0  0  0  0  0
    3.9073   68.4232   83.0676 C   0  0  0  0  0  0  0  0  0  0  0  0
    4.4294   67.5426   84.1073 C   0  0  0  0  0  0  0  0  0  0  0  0
    3.5833   66.4596   84.6446 C   0  0  0  0  0  0  0  0  0  0  0  0
   -0.9699   62.4558   83.6575 C   0  0  0  0  0  0  0  0  0  0  0  0
   -1.6900   61.7944   84.6610 N   0  0  0  0  0  0  0  0  0  0  0  0
   -1.3998   62.3650   85.8666 N   0  0  0  0  0  0  0  0  0  0  0  0
   -1.9928   61.9051   87.1253 C   0  0  0  0  0  0  0  0  0  0  0  0
   -0.5041   63.3778   85.6336 C   0  0  0  0  0  0  0  0  0  0  0  0
    0.1648   64.3243   86.4811 C   0  0  0  0  0  0  0  0  0  0  0  0
    0.0110   64.3630   87.6802 O   0  0  0  0  0  0  0  0  0  0  0  0
    1.0311   65.2452   85.8958 N   0  0  0  0  0  0  0  0  0  0  0  0
    1.2949   65.3030   84.5201 C   0  0  0  0  0  0  0  0  0  0  0  0
    0.6696   64.3980   83.6544 N   0  0  0  0  0  0  0  0  0  0  0  0
   -0.2206   63.4519   84.2371 C   0  0  0  0  0  0  0  0  0  0  0  0
    0.8380   64.4150   82.6847 H   0  0  0  0  0  0  0  0  0  0  0  0
   -1.0165   62.1146   82.2031 C   0  0  0  0  0  0  0  0  0  0  0  0
   -3.2491   62.1433   80.9758 C   0  0  0  0  0  0  0  0  0  0  0  0
   -2.2158   62.9786   81.6826 C   0  0  0  0  0  0  0  0  0  0  0  0
    1.9715   69.2709   81.3886 S   0  0  0  0  0  0  0  0  0  0  0  0
    2.8762   69.8187   80.5985 O   0  0  0  0  0  0  0  0  0  0  0  0
    1.1672   68.6167   80.5841 O   0  0  0  0  0  0  0  0  0  0  0  0
    1.2058   70.3286   82.2962 N   0  0  0  0  0  0  0  0  0  0  0  0
   -0.2362   70.7236   81.7886 C   0  0  0  0  0  0  0  0  0  0  0  0
   -0.3305   71.8140   80.7039 C   0  0  0  0  0  0  0  0  0  0  0  0
    0.6501   72.9463   80.8151 N   0  0  0  0  0  0  0  0  0  0  0  0
   -0.1117   74.1991   81.1125 C   0  0  0  0  0  0  0  0  0  0  0  0
    1.8233   72.8264   81.7907 C   0  0  0  0  0  0  0  0  0  0  0  0
    1.8381   71.6133   82.7965 C   0  0  0  0  0  0  0  0  0  0  0  0
    4.0016   65.5512   85.6909 O   0  0  0  0  0  0  0  0  0  0  0  0
    5.3674   65.1846   85.9712 C   0  0  0  0  0  0  0  0  0  0  0  0
    5.5737   65.5311   87.4364 C   0  0  0  0  0  0  0  0  0  0  0  0
 20 21  1  0  0  0
 21 19  1  0  0  0
 19  7  1  0  0  0
  7 17  1  0  0  0
  7  8  2  0  0  0
  8  9  1  0  0  0
  9 10  1  0  0  0
 11  9  1  0  0  0
 11 12  1  0  0  0
 12 13  2  0  0  0
 14 12  1  0  0  0
 15 14  2  0  0  0
 16 17  1  0  0  0
 16 15  1  0  0  0
 16 18  1  0  0  0
 17 11  2  0  0  0
  1 15  1  0  0  0
  1  6  1  0  0  0
  2  1  2  0  0  0
  3  2  1  0  0  0
  3  4  2  0  0  0
  4  5  1  0  0  0
  5  6  2  0  0  0
  6 32  1  0  0  0
 32 33  1  0  0  0
 33 34  1  0  0  0
 22 24  2  0  0  0
 22 25  1  0  0  0
 22  3  1  0  0  0
 23 22  2  0  0  0
 25 26  1  0  0  0
 27 26  1  0  0  0
 28 29  1  0  0  0
 28 27  1  0  0  0
 30 28  1  0  0  0
 30 31  1  0  0  0
 31 25  1  0  0  0
M  END
> <minimizedAffinity>
-8.93043

$$$$
/home/hjpark/lecture_drug1/0905_agent/pde5_harness/sample_run/structures/work/ligand_ref.pdb


 34 37  0  0  0  0  0  0  0  0999 V2000
    0.4363   64.4642   84.5767 C   0  0  0  0  0  0  0  0  0  0  0  0
   -0.1293   64.1881   83.2718 C   0  0  0  0  0  0  0  0  0  0  0  0
   -1.2813   63.3020   83.1200 C   0  0  0  0  0  0  0  0  0  0  0  0
   -1.8548   62.6970   84.3642 C   0  0  0  0  0  0  0  0  0  0  0  0
   -1.2995   62.9619   85.6873 C   0  0  0  0  0  0  0  0  0  0  0  0
   -0.1307   63.8515   85.8279 C   0  0  0  0  0  0  0  0  0  0  0  0
    3.1004   68.5642   83.5132 C   0  0  0  0  0  0  0  0  0  0  0  0
    4.4154   68.8801   83.8793 N   0  0  0  0  0  0  0  0  0  0  0  0
    4.9272   67.8583   84.6256 N   0  0  0  0  0  0  0  0  0  0  0  0
    6.2893   67.8754   85.1660 C   0  0  0  0  0  0  0  0  0  0  0  0
    3.9489   66.9027   84.7344 C   0  0  0  0  0  0  0  0  0  0  0  0
    3.8798   65.6239   85.3838 C   0  0  0  0  0  0  0  0  0  0  0  0
    4.7989   65.1497   86.0109 O   0  0  0  0  0  0  0  0  0  0  0  0
    2.6988   64.8912   85.2858 N   0  0  0  0  0  0  0  0  0  0  0  0
    1.5637   65.3301   84.5899 C   0  0  0  0  0  0  0  0  0  0  0  0
    1.5820   66.5720   83.9443 N   0  0  0  0  0  0  0  0  0  0  0  0
    2.7827   67.3321   84.0333 C   0  0  0  0  0  0  0  0  0  0  0  0
    0.7986   66.9055   83.4502 H   0  0  0  0  0  0  0  0  0  0  0  0
    2.2044   69.4394   82.6975 C   0  0  0  0  0  0  0  0  0  0  0  0
    3.2827   70.0310   80.4662 C   0  0  0  0  0  0  0  0  0  0  0  0
    2.5174   68.9847   81.2308 C   0  0  0  0  0  0  0  0  0  0  0  0
   -1.8960   62.9705   81.6793 S   0  0  0  0  0  0  0  0  0  0  0  0
   -3.2038   63.1045   81.5595 O   0  0  0  0  0  0  0  0  0  0  0  0
   -1.3862   63.7912   80.7913 O   0  0  0  0  0  0  0  0  0  0  0  0
   -1.3971   61.4725   81.4893 N   0  0  0  0  0  0  0  0  0  0  0  0
   -0.2016   61.2911   80.4739 C   0  0  0  0  0  0  0  0  0  0  0  0
   -0.5526   61.2034   78.9760 C   0  0  0  0  0  0  0  0  0  0  0  0
   -1.8127   60.4615   78.6327 N   0  0  0  0  0  0  0  0  0  0  0  0
   -1.4388   59.2283   77.8728 C   0  0  0  0  0  0  0  0  0  0  0  0
   -2.7886   60.0878   79.7510 C   0  0  0  0  0  0  0  0  0  0  0  0
   -2.3333   60.3048   81.2439 C   0  0  0  0  0  0  0  0  0  0  0  0
    0.5051   64.1563   87.0919 O   0  0  0  0  0  0  0  0  0  0  0  0
    0.6800   63.2228   88.1765 C   0  0  0  0  0  0  0  0  0  0  0  0
   -0.5964   63.3283   88.9945 C   0  0  0  0  0  0  0  0  0  0  0  0
 20 21  1  0  0  0
 21 19  1  0  0  0
 19  7  1  0  0  0
  7 17  1  0  0  0
  7  8  2  0  0  0
  8  9  1  0  0  0
  9 10  1  0  0  0
 11  9  1  0  0  0
 11 12  1  0  0  0
 12 13  2  0  0  0
 14 12  1  0  0  0
 15 14  2  0  0  0
 16 17  1  0  0  0
 16 15  1  0  0  0
 16 18  1  0  0  0
 17 11  2  0  0  0
  1 15  1  0  0  0
  1  6  1  0  0  0
  2  1  2  0  0  0
  3  2  1  0  0  0
  3  4  2  0  0  0
  4  5  1  0  0  0
  5  6  2  0  0  0
  6 32  1  0  0  0
 32 33  1  0  0  0
 33 34  1  0  0  0
 22 24  2  0  0  0
 22 25  1  0  0  0
 22  3  1  0  0  0
 23 22  2  0  0  0
 25 26  1  0  0  0
 27 26  1  0  0  0
 28 29  1  0  0  0
 28 27  1  0  0  0
 30 28  1  0  0  0
 30 31  1  0  0  0
 31 25  1  0  0  0
M  END
> <minimizedAffinity>
-8.92645

$$$$
/home/hjpark/lecture_drug1/0905_agent/pde5_harness/sample_run/structures/work/ligand_ref.pdb


 34 37  0  0  0  0  0  0  0  0999 V2000
    0.3783   65.0468   81.2811 C   0  0  0  0  0  0  0  0  0  0  0  0
    0.6910   66.3372   80.7014 C   0  0  0  0  0  0  0  0  0  0  0  0
    1.2486   67.4155   81.5149 C   0  0  0  0  0  0  0  0  0  0  0  0
    1.4878   67.1320   82.9658 C   0  0  0  0  0  0  0  0  0  0  0  0
    1.1792   65.8396   83.5688 C   0  0  0  0  0  0  0  0  0  0  0  0
    0.6083   64.7607   82.7398 C   0  0  0  0  0  0  0  0  0  0  0  0
   -2.8129   61.5289   79.7067 C   0  0  0  0  0  0  0  0  0  0  0  0
   -2.8150   60.8178   78.4995 N   0  0  0  0  0  0  0  0  0  0  0  0
   -1.7619   61.2328   77.7367 N   0  0  0  0  0  0  0  0  0  0  0  0
   -1.4785   60.6820   76.4085 C   0  0  0  0  0  0  0  0  0  0  0  0
   -1.0971   62.1981   78.4496 C   0  0  0  0  0  0  0  0  0  0  0  0
    0.0647   63.0003   78.1880 C   0  0  0  0  0  0  0  0  0  0  0  0
    0.7026   62.9265   77.1631 O   0  0  0  0  0  0  0  0  0  0  0  0
    0.4805   63.9061   79.1616 N   0  0  0  0  0  0  0  0  0  0  0  0
   -0.1725   64.0867   80.3890 C   0  0  0  0  0  0  0  0  0  0  0  0
   -1.3119   63.3304   80.6874 N   0  0  0  0  0  0  0  0  0  0  0  0
   -1.7482   62.3984   79.7034 C   0  0  0  0  0  0  0  0  0  0  0  0
   -1.7908   63.4381   81.5407 H   0  0  0  0  0  0  0  0  0  0  0  0
   -3.8160   61.3606   80.8019 C   0  0  0  0  0  0  0  0  0  0  0  0
   -3.1143   60.5953   83.1286 C   0  0  0  0  0  0  0  0  0  0  0  0
   -3.1894   60.2188   81.6734 C   0  0  0  0  0  0  0  0  0  0  0  0
    1.5721   68.8529   80.8882 S   0  0  0  0  0  0  0  0  0  0  0  0
    2.8292   69.0706   80.5492 O   0  0  0  0  0  0  0  0  0  0  0  0
    0.8881   69.0059   79.7788 O   0  0  0  0  0  0  0  0  0  0  0  0
    1.0632   69.8007   82.0594 N   0  0  0  0  0  0  0  0  0  0  0  0
   -0.1533   70.7337   81.6819 C   0  0  0  0  0  0  0  0  0  0  0  0
    0.1669   72.0553   80.9572 C   0  0  0  0  0  0  0  0  0  0  0  0
    1.4167   72.7649   81.3938 N   0  0  0  0  0  0  0  0  0  0  0  0
    1.0224   74.0568   82.0368 C   0  0  0  0  0  0  0  0  0  0  0  0
    2.4136   72.0357   82.2978 C   0  0  0  0  0  0  0  0  0  0  0  0
    1.9894   70.6474   82.9111 C   0  0  0  0  0  0  0  0  0  0  0  0
    0.2475   63.4550   83.2496 O   0  0  0  0  0  0  0  0  0  0  0  0
   -0.8074   63.1997   84.1985 C   0  0  0  0  0  0  0  0  0  0  0  0
   -0.1264   63.2197   85.5569 C   0  0  0  0  0  0  0  0  0  0  0  0
 20 21  1  0  0  0
 21 19  1  0  0  0
 19  7  1  0  0  0
  7 17  1  0  0  0
  7  8  2  0  0  0
  8  9  1  0  0  0
  9 10  1  0  0  0
 11  9  1  0  0  0
 11 12  1  0  0  0
 12 13  2  0  0  0
 14 12  1  0  0  0
 15 14  2  0  0  0
 16 17  1  0  0  0
 16 15  1  0  0  0
 16 18  1  0  0  0
 17 11  2  0  0  0
  1 15  1  0  0  0
  1  6  1  0  0  0
  2  1  2  0  0  0
  3  2  1  0  0  0
  3  4  2  0  0  0
  4  5  1  0  0  0
  5  6  2  0  0  0
  6 32  1  0  0  0
 32 33  1  0  0  0
 33 34  1  0  0  0
 22 24  2  0  0  0
 22 25  1  0  0  0
 22  3  1  0  0  0
 23 22  2  0  0  0
 25 26  1  0  0  0
 27 26  1  0  0  0
 28 29  1  0  0  0
 28 27  1  0  0  0
 30 28  1  0  0  0
 30 31  1  0  0  0
 31 25  1  0  0  0
M  END
> <minimizedAffinity>
-8.88288

$$$$
/home/hjpark/lecture_drug1/0905_agent/pde5_harness/sample_run/structures/work/ligand_ref.pdb


 34 37  0  0  0  0  0  0  0  0999 V2000
    0.5255   65.2557   82.5365 C   0  0  0  0  0  0  0  0  0  0  0  0
    0.6584   66.3522   81.5990 C   0  0  0  0  0  0  0  0  0  0  0  0
    1.3116   67.6010   81.9850 C   0  0  0  0  0  0  0  0  0  0  0  0
    1.8410   67.6993   83.3825 C   0  0  0  0  0  0  0  0  0  0  0  0
    1.7167   66.6069   84.3418 C   0  0  0  0  0  0  0  0  0  0  0  0
    1.0474   65.3535   83.9438 C   0  0  0  0  0  0  0  0  0  0  0  0
   -0.7387   61.7419   79.2059 C   0  0  0  0  0  0  0  0  0  0  0  0
   -1.6299   60.6705   79.3507 N   0  0  0  0  0  0  0  0  0  0  0  0
   -2.1535   60.6944   80.6110 N   0  0  0  0  0  0  0  0  0  0  0  0
   -3.1253   59.7053   81.0853 C   0  0  0  0  0  0  0  0  0  0  0  0
   -1.6013   61.7684   81.2619 C   0  0  0  0  0  0  0  0  0  0  0  0
   -1.7481   62.3092   82.5839 C   0  0  0  0  0  0  0  0  0  0  0  0
   -2.4766   61.8254   83.4195 O   0  0  0  0  0  0  0  0  0  0  0  0
   -1.0194   63.4476   82.9216 N   0  0  0  0  0  0  0  0  0  0  0  0
   -0.1419   64.1008   82.0448 C   0  0  0  0  0  0  0  0  0  0  0  0
    0.0375   63.6082   80.7469 N   0  0  0  0  0  0  0  0  0  0  0  0
   -0.7022   62.4465   80.3857 C   0  0  0  0  0  0  0  0  0  0  0  0
    0.6486   64.0460   80.1113 H   0  0  0  0  0  0  0  0  0  0  0  0
    0.0400   62.0471   77.9672 C   0  0  0  0  0  0  0  0  0  0  0  0
   -0.3374   64.4366   77.1676 C   0  0  0  0  0  0  0  0  0  0  0  0
   -0.9000   63.0412   77.2030 C   0  0  0  0  0  0  0  0  0  0  0  0
    1.4391   68.8274   80.9636 S   0  0  0  0  0  0  0  0  0  0  0  0
    1.9265   68.5429   79.7702 O   0  0  0  0  0  0  0  0  0  0  0  0
    0.2472   69.3268   80.7352 O   0  0  0  0  0  0  0  0  0  0  0  0
    2.3658   69.8091   81.8040 N   0  0  0  0  0  0  0  0  0  0  0  0
    1.7423   71.2304   82.0942 C   0  0  0  0  0  0  0  0  0  0  0  0
    1.8714   72.2983   80.9909 C   0  0  0  0  0  0  0  0  0  0  0  0
    3.1597   72.3013   80.2186 N   0  0  0  0  0  0  0  0  0  0  0  0
    3.8865   73.5728   80.5236 C   0  0  0  0  0  0  0  0  0  0  0  0
    4.1235   71.1217   80.3675 C   0  0  0  0  0  0  0  0  0  0  0  0
    3.8289   70.0526   81.4871 C   0  0  0  0  0  0  0  0  0  0  0  0
    0.8546   64.2245   84.8287 O   0  0  0  0  0  0  0  0  0  0  0  0
    0.5927   64.3171   86.2434 C   0  0  0  0  0  0  0  0  0  0  0  0
   -0.5525   63.3503   86.4945 C   0  0  0  0  0  0  0  0  0  0  0  0
 20 21  1  0  0  0
 21 19  1  0  0  0
 19  7  1  0  0  0
  7 17  1  0  0  0
  7  8  2  0  0  0
  8  9  1  0  0  0
  9 10  1  0  0  0
 11  9  1  0  0  0
 11 12  1  0  0  0
 12 13  2  0  0  0
 14 12  1  0  0  0
 15 14  2  0  0  0
 16 17  1  0  0  0
 16 15  1  0  0  0
 16 18  1  0  0  0
 17 11  2  0  0  0
  1 15  1  0  0  0
  1  6  1  0  0  0
  2  1  2  0  0  0
  3  2  1  0  0  0
  3  4  2  0  0  0
  4  5  1  0  0  0
  5  6  2  0  0  0
  6 32  1  0  0  0
 32 33  1  0  0  0
 33 34  1  0  0  0
 22 24  2  0  0  0
 22 25  1  0  0  0
 22  3  1  0  0  0
 23 22  2  0  0  0
 25 26  1  0  0  0
 27 26  1  0  0  0
 28 29  1  0  0  0
 28 27  1  0  0  0
 30 28  1  0  0  0
 30 31  1  0  0  0
 31 25  1  0  0  0
M  END
> <minimizedAffinity>
-8.65646

$$$$
/home/hjpark/lecture_drug1/0905_agent/pde5_harness/sample_run/structures/work/ligand_ref.pdb


 34 37  0  0  0  0  0  0  0  0999 V2000
    0.6155   64.4054   83.1920 C   0  0  0  0  0  0  0  0  0  0  0  0
    0.5903   63.7362   81.9073 C   0  0  0  0  0  0  0  0  0  0  0  0
   -0.0833   62.4505   81.7384 C   0  0  0  0  0  0  0  0  0  0  0  0
   -0.7489   61.8572   82.9417 C   0  0  0  0  0  0  0  0  0  0  0  0
   -0.7343   62.5148   84.2442 C   0  0  0  0  0  0  0  0  0  0  0  0
   -0.0436   63.8087   84.4053 C   0  0  0  0  0  0  0  0  0  0  0  0
    4.1347   67.6581   84.6320 C   0  0  0  0  0  0  0  0  0  0  0  0
    4.3171   68.9904   84.2387 N   0  0  0  0  0  0  0  0  0  0  0  0
    3.3469   69.3256   83.3391 N   0  0  0  0  0  0  0  0  0  0  0  0
    3.2535   70.6561   82.7317 C   0  0  0  0  0  0  0  0  0  0  0  0
    2.5559   68.2189   83.1607 C   0  0  0  0  0  0  0  0  0  0  0  0
    1.3988   67.9466   82.3553 C   0  0  0  0  0  0  0  0  0  0  0  0
    0.8948   68.7663   81.6226 O   0  0  0  0  0  0  0  0  0  0  0  0
    0.8257   66.6784   82.4217 N   0  0  0  0  0  0  0  0  0  0  0  0
    1.3150   65.6424   83.2298 C   0  0  0  0  0  0  0  0  0  0  0  0
    2.4433   65.8592   84.0293 N   0  0  0  0  0  0  0  0  0  0  0  0
    3.0392   67.1511   83.9744 C   0  0  0  0  0  0  0  0  0  0  0  0
    2.8090   65.1491   84.6047 H   0  0  0  0  0  0  0  0  0  0  0  0
    5.0034   66.9246   85.6023 C   0  0  0  0  0  0  0  0  0  0  0  0
    7.1273   65.8861   84.6524 C   0  0  0  0  0  0  0  0  0  0  0  0
    6.4428   67.1711   85.0338 C   0  0  0  0  0  0  0  0  0  0  0  0
   -0.0931   61.6915   80.3287 S   0  0  0  0  0  0  0  0  0  0  0  0
    0.6499   62.2234   79.3760 O   0  0  0  0  0  0  0  0  0  0  0  0
    0.3748   60.4758   80.4878 O   0  0  0  0  0  0  0  0  0  0  0  0
   -1.6487   61.7128   79.9991 N   0  0  0  0  0  0  0  0  0  0  0  0
   -2.2998   60.2943   79.7603 C   0  0  0  0  0  0  0  0  0  0  0  0
   -2.1648   59.6817   78.3529 C   0  0  0  0  0  0  0  0  0  0  0  0
   -2.2597   60.6406   77.2006 N   0  0  0  0  0  0  0  0  0  0  0  0
   -3.5005   60.3234   76.4273 C   0  0  0  0  0  0  0  0  0  0  0  0
   -2.2072   62.1456   77.4740 C   0  0  0  0  0  0  0  0  0  0  0  0
   -2.2722   62.6362   78.9701 C   0  0  0  0  0  0  0  0  0  0  0  0
    0.0462   64.5259   85.6592 O   0  0  0  0  0  0  0  0  0  0  0  0
    0.6534   64.0154   86.8629 C   0  0  0  0  0  0  0  0  0  0  0  0
   -0.5126   63.6630   87.7715 C   0  0  0  0  0  0  0  0  0  0  0  0
 20 21  1  0  0  0
 21 19  1  0  0  0
 19  7  1  0  0  0
  7 17  1  0  0  0
  7  8  2  0  0  0
  8  9  1  0  0  0
  9 10  1  0  0  0
 11  9  1  0  0  0
 11 12  1  0  0  0
 12 13  2  0  0  0
 14 12  1  0  0  0
 15 14  2  0  0  0
 16 17  1  0  0  0
 16 15  1  0  0  0
 16 18  1  0  0  0
 17 11  2  0  0  0
  1 15  1  0  0  0
  1  6  1  0  0  0
  2  1  2  0  0  0
  3  2  1  0  0  0
  3  4  2  0  0  0
  4  5  1  0  0  0
  5  6  2  0  0  0
  6 32  1  0  0  0
 32 33  1  0  0  0
 33 34  1  0  0  0
 22 24  2  0  0  0
 22 25  1  0  0  0
 22  3  1  0  0  0
 23 22  2  0  0  0
 25 26  1  0  0  0
 27 26  1  0  0  0
 28 29  1  0  0  0
 28 27  1  0  0  0
 30 28  1  0  0  0
 30 31  1  0  0  0
 31 25  1  0  0  0
M  END
> <minimizedAffinity>
-8.58498

$$$$
/home/hjpark/lecture_drug1/0905_agent/pde5_harness/sample_run/structures/work/ligand_ref.pdb


 34 37  0  0  0  0  0  0  0  0999 V2000
    1.2484   66.2005   81.9577 C   0  0  0  0  0  0  0  0  0  0  0  0
    1.7138   67.4100   81.3102 C   0  0  0  0  0  0  0  0  0  0  0  0
    2.3473   68.4810   82.0764 C   0  0  0  0  0  0  0  0  0  0  0  0
    2.5002   68.2761   83.5520 C   0  0  0  0  0  0  0  0  0  0  0  0
    2.0377   67.0658   84.2230 C   0  0  0  0  0  0  0  0  0  0  0  0
    1.3916   65.9944   83.4407 C   0  0  0  0  0  0  0  0  0  0  0  0
   -0.7671   61.8010   80.6847 C   0  0  0  0  0  0  0  0  0  0  0  0
   -1.2734   61.3894   79.4448 N   0  0  0  0  0  0  0  0  0  0  0  0
   -1.1476   62.4132   78.5508 N   0  0  0  0  0  0  0  0  0  0  0  0
   -1.5829   62.3062   77.1556 C   0  0  0  0  0  0  0  0  0  0  0  0
   -0.5687   63.4654   79.2142 C   0  0  0  0  0  0  0  0  0  0  0  0
   -0.1885   64.7942   78.8253 C   0  0  0  0  0  0  0  0  0  0  0  0
   -0.3498   65.2283   77.7080 O   0  0  0  0  0  0  0  0  0  0  0  0
    0.3972   65.6243   79.7788 N   0  0  0  0  0  0  0  0  0  0  0  0
    0.6369   65.2407   81.1057 C   0  0  0  0  0  0  0  0  0  0  0  0
    0.2795   63.9564   81.5326 N   0  0  0  0  0  0  0  0  0  0  0  0
   -0.3182   63.0951   80.5692 C   0  0  0  0  0  0  0  0  0  0  0  0
    0.4346   63.6614   82.4589 H   0  0  0  0  0  0  0  0  0  0  0  0
   -0.7362   60.9593   81.9195 C   0  0  0  0  0  0  0  0  0  0  0  0
   -3.0864   60.2584   82.6100 C   0  0  0  0  0  0  0  0  0  0  0  0
   -2.0643   61.3625   82.6471 C   0  0  0  0  0  0  0  0  0  0  0  0
    2.8404   69.8322   81.3730 S   0  0  0  0  0  0  0  0  0  0  0  0
    4.1449   69.9675   81.2223 O   0  0  0  0  0  0  0  0  0  0  0  0
    2.3483   69.8928   80.1580 O   0  0  0  0  0  0  0  0  0  0  0  0
    2.2042   70.9152   82.3483 N   0  0  0  0  0  0  0  0  0  0  0  0
    0.7003   71.2869   82.0426 C   0  0  0  0  0  0  0  0  0  0  0  0
    0.4402   72.3410   80.9493 C   0  0  0  0  0  0  0  0  0  0  0  0
    1.4160   73.4809   80.8818 N   0  0  0  0  0  0  0  0  0  0  0  0
    0.6937   74.7391   81.2468 C   0  0  0  0  0  0  0  0  0  0  0  0
    2.7190   73.3981   81.6806 C   0  0  0  0  0  0  0  0  0  0  0  0
    2.8902   72.2183   82.7111 C   0  0  0  0  0  0  0  0  0  0  0  0
    0.8795   64.7696   84.0174 O   0  0  0  0  0  0  0  0  0  0  0  0
    0.5313   64.5905   85.4049 C   0  0  0  0  0  0  0  0  0  0  0  0
   -0.4224   63.4075   85.4205 C   0  0  0  0  0  0  0  0  0  0  0  0
 20 21  1  0  0  0
 21 19  1  0  0  0
 19  7  1  0  0  0
  7 17  1  0  0  0
  7  8  2  0  0  0
  8  9  1  0  0  0
  9 10  1  0  0  0
 11  9  1  0  0  0
 11 12  1  0  0  0
 12 13  2  0  0  0
 14 12  1  0  0  0
 15 14  2  0  0  0
 16 17  1  0  0  0
 16 15  1  0  0  0
 16 18  1  0  0  0
 17 11  2  0  0  0
  1 15  1  0  0  0
  1  6  1  0  0  0
  2  1  2  0  0  0
  3  2  1  0  0  0
  3  4  2  0  0  0
  4  5  1  0  0  0
  5  6  2  0  0  0
  6 32  1  0  0  0
 32 33  1  0  0  0
 33 34  1  0  0  0
 22 24  2  0  0  0
 22 25  1  0  0  0
 22  3  1  0  0  0
 23 22  2  0  0  0
 25 26  1  0  0  0
 27 26  1  0  0  0
 28 29  1  0  0  0
 28 27  1  0  0  0
 30 28  1  0  0  0
 30 31  1  0  0  0
 31 25  1  0  0  0
M  END
> <minimizedAffinity>
-8.56185

$$$$
/home/hjpark/lecture_drug1/0905_agent/pde5_harness/sample_run/structures/work/ligand_ref.pdb


 34 37  0  0  0  0  0  0  0  0999 V2000
    0.4967   65.4888   81.7706 C   0  0  0  0  0  0  0  0  0  0  0  0
    1.1664   66.0654   82.9186 C   0  0  0  0  0  0  0  0  0  0  0  0
    1.9848   67.2691   82.7899 C   0  0  0  0  0  0  0  0  0  0  0  0
    2.0985   67.8836   81.4289 C   0  0  0  0  0  0  0  0  0  0  0  0
    1.4326   67.3181   80.2601 C   0  0  0  0  0  0  0  0  0  0  0  0
    0.6156   66.0973   80.4002 C   0  0  0  0  0  0  0  0  0  0  0  0
   -2.2436   62.2657   84.4428 C   0  0  0  0  0  0  0  0  0  0  0  0
   -2.7870   61.0351   84.0512 N   0  0  0  0  0  0  0  0  0  0  0  0
   -2.4601   60.7990   82.7472 N   0  0  0  0  0  0  0  0  0  0  0  0
   -2.8757   59.5896   82.0315 C   0  0  0  0  0  0  0  0  0  0  0  0
   -1.7176   61.8677   82.3128 C   0  0  0  0  0  0  0  0  0  0  0  0
   -1.0972   62.2009   81.0615 C   0  0  0  0  0  0  0  0  0  0  0  0
   -1.1529   61.4892   80.0851 O   0  0  0  0  0  0  0  0  0  0  0  0
   -0.3943   63.4000   80.9661 N   0  0  0  0  0  0  0  0  0  0  0  0
   -0.2571   64.3103   82.0234 C   0  0  0  0  0  0  0  0  0  0  0  0
   -0.8480   64.0310   83.2612 N   0  0  0  0  0  0  0  0  0  0  0  0
   -1.5680   62.8081   83.3755 C   0  0  0  0  0  0  0  0  0  0  0  0
   -0.7691   64.6533   84.0200 H   0  0  0  0  0  0  0  0  0  0  0  0
   -2.3916   62.8747   85.7997 C   0  0  0  0  0  0  0  0  0  0  0  0
   -0.4824   63.6348   87.3060 C   0  0  0  0  0  0  0  0  0  0  0  0
   -1.0421   62.4940   86.4996 C   0  0  0  0  0  0  0  0  0  0  0  0
    2.7498   67.8975   84.0481 S   0  0  0  0  0  0  0  0  0  0  0  0
    2.9243   69.2059   84.0294 O   0  0  0  0  0  0  0  0  0  0  0  0
    2.0583   67.6610   85.1381 O   0  0  0  0  0  0  0  0  0  0  0  0
    4.1130   67.0802   83.9960 N   0  0  0  0  0  0  0  0  0  0  0  0
    4.0385   65.6194   84.5906 C   0  0  0  0  0  0  0  0  0  0  0  0
    4.1833   65.4687   86.1172 C   0  0  0  0  0  0  0  0  0  0  0  0
    5.1635   66.3907   86.7845 N   0  0  0  0  0  0  0  0  0  0  0  0
    6.2882   65.5667   87.3269 C   0  0  0  0  0  0  0  0  0  0  0  0
    5.7376   67.5697   85.9951 C   0  0  0  0  0  0  0  0  0  0  0  0
    5.4449   67.6471   84.4486 C   0  0  0  0  0  0  0  0  0  0  0  0
   -0.0632   65.4488   79.2986 O   0  0  0  0  0  0  0  0  0  0  0  0
    0.5770   64.9689   78.0993 C   0  0  0  0  0  0  0  0  0  0  0  0
   -0.5636   64.5552   77.1844 C   0  0  0  0  0  0  0  0  0  0  0  0
 20 21  1  0  0  0
 21 19  1  0  0  0
 19  7  1  0  0  0
  7 17  1  0  0  0
  7  8  2  0  0  0
  8  9  1  0  0  0
  9 10  1  0  0  0
 11  9  1  0  0  0
 11 12  1  0  0  0
 12 13  2  0  0  0
 14 12  1  0  0  0
 15 14  2  0  0  0
 16 17  1  0  0  0
 16 15  1  0  0  0
 16 18  1  0  0  0
 17 11  2  0  0  0
  1 15  1  0  0  0
  1  6  1  0  0  0
  2  1  2  0  0  0
  3  2  1  0  0  0
  3  4  2  0  0  0
  4  5  1  0  0  0
  5  6  2  0  0  0
  6 32  1  0  0  0
 32 33  1  0  0  0
 33 34  1  0  0  0
 22 24  2  0  0  0
 22 25  1  0  0  0
 22  3  1  0  0  0
 23 22  2  0  0  0
 25 26  1  0  0  0
 27 26  1  0  0  0
 28 29  1  0  0  0
 28 27  1  0  0  0
 30 28  1  0  0  0
 30 31  1  0  0  0
 31 25  1  0  0  0
M  END
> <minimizedAffinity>
-8.54358

$$$$
/home/hjpark/lecture_drug1/0905_agent/pde5_harness/sample_run/structures/work/ligand_ref.pdb


 34 37  0  0  0  0  0  0  0  0999 V2000
    0.8156   66.2701   81.9821 C   0  0  0  0  0  0  0  0  0  0  0  0
    0.8987   67.6081   81.4326 C   0  0  0  0  0  0  0  0  0  0  0  0
    1.4790   68.7061   82.2027 C   0  0  0  0  0  0  0  0  0  0  0  0
    1.9873   68.3923   83.5760 C   0  0  0  0  0  0  0  0  0  0  0  0
    1.9123   67.0519   84.1477 C   0  0  0  0  0  0  0  0  0  0  0  0
    1.3164   65.9525   83.3644 C   0  0  0  0  0  0  0  0  0  0  0  0
   -2.0547   62.3420   80.8117 C   0  0  0  0  0  0  0  0  0  0  0  0
   -2.2531   61.7363   79.5640 N   0  0  0  0  0  0  0  0  0  0  0  0
   -1.5161   62.3988   78.6254 N   0  0  0  0  0  0  0  0  0  0  0  0
   -1.5002   62.0131   77.2117 C   0  0  0  0  0  0  0  0  0  0  0  0
   -0.8564   63.4158   79.2680 C   0  0  0  0  0  0  0  0  0  0  0  0
    0.0506   64.4401   78.8325 C   0  0  0  0  0  0  0  0  0  0  0  0
    0.4045   64.5655   77.6827 O   0  0  0  0  0  0  0  0  0  0  0  0
    0.5505   65.3321   79.7789 N   0  0  0  0  0  0  0  0  0  0  0  0
    0.2173   65.2933   81.1401 C   0  0  0  0  0  0  0  0  0  0  0  0
   -0.6664   64.3153   81.6111 N   0  0  0  0  0  0  0  0  0  0  0  0
   -1.1843   63.3946   80.6565 C   0  0  0  0  0  0  0  0  0  0  0  0
   -0.9190   64.2661   82.5614 H   0  0  0  0  0  0  0  0  0  0  0  0
   -2.6984   61.9055   82.0880 C   0  0  0  0  0  0  0  0  0  0  0  0
   -2.8496   59.3664   82.2363 C   0  0  0  0  0  0  0  0  0  0  0  0
   -3.4712   60.6106   81.6613 C   0  0  0  0  0  0  0  0  0  0  0  0
    1.5505   70.1931   81.6135 S   0  0  0  0  0  0  0  0  0  0  0  0
    1.3078   70.3198   80.3220 O   0  0  0  0  0  0  0  0  0  0  0  0
    0.6463   70.9377   82.2052 O   0  0  0  0  0  0  0  0  0  0  0  0
    3.0358   70.5933   82.0167 N   0  0  0  0  0  0  0  0  0  0  0  0
    3.2364   72.1112   82.4028 C   0  0  0  0  0  0  0  0  0  0  0  0
    3.4415   73.1132   81.2503 C   0  0  0  0  0  0  0  0  0  0  0  0
    4.2573   72.6272   80.0865 N   0  0  0  0  0  0  0  0  0  0  0  0
    5.5231   73.4230   80.0360 C   0  0  0  0  0  0  0  0  0  0  0  0
    4.5937   71.1379   79.9792 C   0  0  0  0  0  0  0  0  0  0  0  0
    4.2557   70.2052   81.2035 C   0  0  0  0  0  0  0  0  0  0  0  0
    1.1758   64.5971   83.8521 O   0  0  0  0  0  0  0  0  0  0  0  0
    0.5295   64.2244   85.0858 C   0  0  0  0  0  0  0  0  0  0  0  0
   -0.1846   62.9193   84.7759 C   0  0  0  0  0  0  0  0  0  0  0  0
 20 21  1  0  0  0
 21 19  1  0  0  0
 19  7  1  0  0  0
  7 17  1  0  0  0
  7  8  2  0  0  0
  8  9  1  0  0  0
  9 10  1  0  0  0
 11  9  1  0  0  0
 11 12  1  0  0  0
 12 13  2  0  0  0
 14 12  1  0  0  0
 15 14  2  0  0  0
 16 17  1  0  0  0
 16 15  1  0  0  0
 16 18  1  0  0  0
 17 11  2  0  0  0
  1 15  1  0  0  0
  1  6  1  0  0  0
  2  1  2  0  0  0
  3  2  1  0  0  0
  3  4  2  0  0  0
  4  5  1  0  0  0
  5  6  2  0  0  0
  6 32  1  0  0  0
 32 33  1  0  0  0
 33 34  1  0  0  0
 22 24  2  0  0  0
 22 25  1  0  0  0
 22  3  1  0  0  0
 23 22  2  0  0  0
 25 26  1  0  0  0
 27 26  1  0  0  0
 28 29  1  0  0  0
 28 27  1  0  0  0
 30 28  1  0  0  0
 30 31  1  0  0  0
 31 25  1  0  0  0
M  END
> <minimizedAffinity>
-8.49415

$$$$
/home/hjpark/lecture_drug1/0905_agent/pde5_harness/sample_run/structures/work/ligand_ref.pdb


 34 37  0  0  0  0  0  0  0  0999 V2000
    0.8332   65.5028   82.8148 C   0  0  0  0  0  0  0  0  0  0  0  0
    1.6740   66.3855   83.5976 C   0  0  0  0  0  0  0  0  0  0  0  0
    2.5519   67.3601   82.9535 C   0  0  0  0  0  0  0  0  0  0  0  0
    2.5433   67.4130   81.4568 C   0  0  0  0  0  0  0  0  0  0  0  0
    1.7045   66.5324   80.6505 C   0  0  0  0  0  0  0  0  0  0  0  0
    0.8283   65.5461   81.3113 C   0  0  0  0  0  0  0  0  0  0  0  0
   -2.5690   61.9081   83.5505 C   0  0  0  0  0  0  0  0  0  0  0  0
   -3.0016   61.3374   84.7547 N   0  0  0  0  0  0  0  0  0  0  0  0
   -2.3290   61.9196   85.7900 N   0  0  0  0  0  0  0  0  0  0  0  0
   -2.5512   61.5472   87.1898 C   0  0  0  0  0  0  0  0  0  0  0  0
   -1.4768   62.8499   85.2511 C   0  0  0  0  0  0  0  0  0  0  0  0
   -0.5243   63.7654   85.8135 C   0  0  0  0  0  0  0  0  0  0  0  0
   -0.3123   63.8530   87.0011 O   0  0  0  0  0  0  0  0  0  0  0  0
    0.1891   64.5958   84.9518 N   0  0  0  0  0  0  0  0  0  0  0  0
    0.0360   64.5902   83.5582 C   0  0  0  0  0  0  0  0  0  0  0  0
   -0.8775   63.7121   82.9635 N   0  0  0  0  0  0  0  0  0  0  0  0
   -1.6162   62.8584   83.8310 C   0  0  0  0  0  0  0  0  0  0  0  0
   -1.0038   63.6859   81.9875 H   0  0  0  0  0  0  0  0  0  0  0  0
   -3.0681   61.5274   82.1940 C   0  0  0  0  0  0  0  0  0  0  0  0
   -3.1602   59.3823   80.8224 C   0  0  0  0  0  0  0  0  0  0  0  0
   -2.8722   59.9726   82.1764 C   0  0  0  0  0  0  0  0  0  0  0  0
    3.5039   68.3210   83.8100 S   0  0  0  0  0  0  0  0  0  0  0  0
    3.7747   69.4980   83.2769 O   0  0  0  0  0  0  0  0  0  0  0  0
    2.9279   68.5908   84.9579 O   0  0  0  0  0  0  0  0  0  0  0  0
    4.7852   67.3926   83.9688 N   0  0  0  0  0  0  0  0  0  0  0  0
    4.4831   65.9095   84.4186 C   0  0  0  0  0  0  0  0  0  0  0  0
    4.2972   65.6513   85.9263 C   0  0  0  0  0  0  0  0  0  0  0  0
    5.1824   66.4405   86.8481 N   0  0  0  0  0  0  0  0  0  0  0  0
    6.1073   65.4890   87.5389 C   0  0  0  0  0  0  0  0  0  0  0  0
    5.9917   67.6119   86.2865 C   0  0  0  0  0  0  0  0  0  0  0  0
    6.0321   67.8114   84.7239 C   0  0  0  0  0  0  0  0  0  0  0  0
   -0.0209   64.6150   80.5994 O   0  0  0  0  0  0  0  0  0  0  0  0
    0.3710   63.8624   79.4339 C   0  0  0  0  0  0  0  0  0  0  0  0
    0.3215   62.4079   79.8713 C   0  0  0  0  0  0  0  0  0  0  0  0
 20 21  1  0  0  0
 21 19  1  0  0  0
 19  7  1  0  0  0
  7 17  1  0  0  0
  7  8  2  0  0  0
  8  9  1  0  0  0
  9 10  1  0  0  0
 11  9  1  0  0  0
 11 12  1  0  0  0
 12 13  2  0  0  0
 14 12  1  0  0  0
 15 14  2  0  0  0
 16 17  1  0  0  0
 16 15  1  0  0  0
 16 18  1  0  0  0
 17 11  2  0  0  0
  1 15  1  0  0  0
  1  6  1  0  0  0
  2  1  2  0  0  0
  3  2  1  0  0  0
  3  4  2  0  0  0
  4  5  1  0  0  0
  5  6  2  0  0  0
  6 32  1  0  0  0
 32 33  1  0  0  0
 33 34  1  0  0  0
 22 24  2  0  0  0
 22 25  1  0  0  0
 22  3  1  0  0  0
 23 22  2  0  0  0
 25 26  1  0  0  0
 27 26  1  0  0  0
 28 29  1  0  0  0
 28 27  1  0  0  0
 30 28  1  0  0  0
 30 31  1  0  0  0
 31 25  1  0  0  0
M  END
> <minimizedAffinity>
-8.46714

$$$$
/home/hjpark/lecture_drug1/0905_agent/pde5_harness/sample_run/structures/work/ligand_ref.pdb


 34 37  0  0  0  0  0  0  0  0999 V2000
    0.9184   66.0068   82.5519 C   0  0  0  0  0  0  0  0  0  0  0  0
    0.6561   67.1019   81.6404 C   0  0  0  0  0  0  0  0  0  0  0  0
    1.3979   68.3574   81.7348 C   0  0  0  0  0  0  0  0  0  0  0  0
    2.4403   68.4638   82.8048 C   0  0  0  0  0  0  0  0  0  0  0  0
    2.7191   67.3729   83.7328 C   0  0  0  0  0  0  0  0  0  0  0  0
    1.9580   66.1127   83.6338 C   0  0  0  0  0  0  0  0  0  0  0  0
   -1.6503   61.9277   83.8940 C   0  0  0  0  0  0  0  0  0  0  0  0
   -2.3365   61.0126   83.0848 N   0  0  0  0  0  0  0  0  0  0  0  0
   -2.2181   61.3962   81.7802 N   0  0  0  0  0  0  0  0  0  0  0  0
   -2.8228   60.6474   80.6751 C   0  0  0  0  0  0  0  0  0  0  0  0
   -1.4658   62.5432   81.7588 C   0  0  0  0  0  0  0  0  0  0  0  0
   -1.0068   63.4085   80.7089 C   0  0  0  0  0  0  0  0  0  0  0  0
   -1.2556   63.2205   79.5403 O   0  0  0  0  0  0  0  0  0  0  0  0
   -0.2352   64.5172   81.0503 N   0  0  0  0  0  0  0  0  0  0  0  0
    0.1206   64.8448   82.3662 C   0  0  0  0  0  0  0  0  0  0  0  0
   -0.3070   64.0335   83.4237 N   0  0  0  0  0  0  0  0  0  0  0  0
   -1.0946   62.8951   83.0909 C   0  0  0  0  0  0  0  0  0  0  0  0
   -0.0732   64.2411   84.3572 H   0  0  0  0  0  0  0  0  0  0  0  0
   -1.5560   61.8514   85.3837 C   0  0  0  0  0  0  0  0  0  0  0  0
   -2.6824   63.0668   87.3190 C   0  0  0  0  0  0  0  0  0  0  0  0
   -2.7616   62.7358   85.8530 C   0  0  0  0  0  0  0  0  0  0  0  0
    1.0959   69.5821   80.7488 S   0  0  0  0  0  0  0  0  0  0  0  0
    2.0858   69.9493   79.9564 O   0  0  0  0  0  0  0  0  0  0  0  0
    0.1148   69.2561   79.9406 O   0  0  0  0  0  0  0  0  0  0  0  0
    0.6810   70.7030   81.7979 N   0  0  0  0  0  0  0  0  0  0  0  0
   -0.7690   71.2965   81.6018 C   0  0  0  0  0  0  0  0  0  0  0  0
   -0.9385   72.4214   80.5625 C   0  0  0  0  0  0  0  0  0  0  0  0
    0.1858   73.4132   80.4697 N   0  0  0  0  0  0  0  0  0  0  0  0
   -0.3250   74.7449   80.9214 C   0  0  0  0  0  0  0  0  0  0  0  0
    1.5079   73.1133   81.1800 C   0  0  0  0  0  0  0  0  0  0  0  0
    1.5677   71.8794   82.1583 C   0  0  0  0  0  0  0  0  0  0  0  0
    2.1446   64.9844   84.5209 O   0  0  0  0  0  0  0  0  0  0  0  0
    2.2222   65.0657   85.9581 C   0  0  0  0  0  0  0  0  0  0  0  0
    0.9878   64.3348   86.4596 C   0  0  0  0  0  0  0  0  0  0  0  0
 20 21  1  0  0  0
 21 19  1  0  0  0
 19  7  1  0  0  0
  7 17  1  0  0  0
  7  8  2  0  0  0
  8  9  1  0  0  0
  9 10  1  0  0  0
 11  9  1  0  0  0
 11 12  1  0  0  0
 12 13  2  0  0  0
 14 12  1  0  0  0
 15 14  2  0  0  0
 16 17  1  0  0  0
 16 15  1  0  0  0
 16 18  1  0  0  0
 17 11  2  0  0  0
  1 15  1  0  0  0
  1  6  1  0  0  0
  2  1  2  0  0  0
  3  2  1  0  0  0
  3  4  2  0  0  0
  4  5  1  0  0  0
  5  6  2  0  0  0
  6 32  1  0  0  0
 32 33  1  0  0  0
 33 34  1  0  0  0
 22 24  2  0  0  0
 22 25  1  0  0  0
 22  3  1  0  0  0
 23 22  2  0  0  0
 25 26  1  0  0  0
 27 26  1  0  0  0
 28 29  1  0  0  0
 28 27  1  0  0  0
 30 28  1  0  0  0
 30 31  1  0  0  0
 31 25  1  0  0  0
M  END
> <minimizedAffinity>
-8.35834

$$$$
/home/hjpark/lecture_drug1/0905_agent/pde5_harness/sample_run/structures/work/ligand_ref.pdb


 34 37  0  0  0  0  0  0  0  0999 V2000
    0.5182   64.9263   81.7891 C   0  0  0  0  0  0  0  0  0  0  0  0
    0.2427   64.1297   80.6107 C   0  0  0  0  0  0  0  0  0  0  0  0
    0.5842   64.6138   79.2750 C   0  0  0  0  0  0  0  0  0  0  0  0
    1.2332   65.9597   79.1741 C   0  0  0  0  0  0  0  0  0  0  0  0
    1.5185   66.7776   80.3483 C   0  0  0  0  0  0  0  0  0  0  0  0
    1.1615   66.2825   81.6917 C   0  0  0  0  0  0  0  0  0  0  0  0
   -2.1855   62.0722   84.8846 C   0  0  0  0  0  0  0  0  0  0  0  0
   -2.0611   61.9133   86.2711 N   0  0  0  0  0  0  0  0  0  0  0  0
   -1.0287   62.6870   86.7169 N   0  0  0  0  0  0  0  0  0  0  0  0
   -0.6355   62.7495   88.1272 C   0  0  0  0  0  0  0  0  0  0  0  0
   -0.5009   63.3308   85.6264 C   0  0  0  0  0  0  0  0  0  0  0  0
    0.5802   64.2592   85.4503 C   0  0  0  0  0  0  0  0  0  0  0  0
    1.2688   64.6538   86.3631 O   0  0  0  0  0  0  0  0  0  0  0  0
    0.8488   64.7318   84.1675 N   0  0  0  0  0  0  0  0  0  0  0  0
    0.1256   64.3511   83.0284 C   0  0  0  0  0  0  0  0  0  0  0  0
   -0.9344   63.4450   83.1496 N   0  0  0  0  0  0  0  0  0  0  0  0
   -1.2231   62.9546   84.4547 C   0  0  0  0  0  0  0  0  0  0  0  0
   -1.4578   63.1592   82.3663 H   0  0  0  0  0  0  0  0  0  0  0  0
   -3.1992   61.3816   84.0307 C   0  0  0  0  0  0  0  0  0  0  0  0
   -2.8069   59.7018   82.1556 C   0  0  0  0  0  0  0  0  0  0  0  0
   -2.3802   61.0193   82.7447 C   0  0  0  0  0  0  0  0  0  0  0  0
    0.2590   63.7517   77.9656 S   0  0  0  0  0  0  0  0  0  0  0  0
   -0.1017   64.4336   76.8944 O   0  0  0  0  0  0  0  0  0  0  0  0
    1.3335   63.0910   77.6038 O   0  0  0  0  0  0  0  0  0  0  0  0
   -0.8882   62.8014   78.5222 N   0  0  0  0  0  0  0  0  0  0  0  0
   -0.5197   61.2667   78.5683 C   0  0  0  0  0  0  0  0  0  0  0  0
   -0.6911   60.4585   77.2677 C   0  0  0  0  0  0  0  0  0  0  0  0
   -1.8766   60.8150   76.4170 N   0  0  0  0  0  0  0  0  0  0  0  0
   -2.8146   59.6495   76.4075 C   0  0  0  0  0  0  0  0  0  0  0  0
   -2.6622   62.0915   76.7265 C   0  0  0  0  0  0  0  0  0  0  0  0
   -2.3297   62.8701   78.0556 C   0  0  0  0  0  0  0  0  0  0  0  0
    1.3819   67.0282   82.9124 O   0  0  0  0  0  0  0  0  0  0  0  0
    2.2509   68.1717   83.0381 C   0  0  0  0  0  0  0  0  0  0  0  0
    3.2309   67.8005   84.1387 C   0  0  0  0  0  0  0  0  0  0  0  0
 20 21  1  0  0  0
 21 19  1  0  0  0
 19  7  1  0  0  0
  7 17  1  0  0  0
  7  8  2  0  0  0
  8  9  1  0  0  0
  9 10  1  0  0  0
 11  9  1  0  0  0
 11 12  1  0  0  0
 12 13  2  0  0  0
 14 12  1  0  0  0
 15 14  2  0  0  0
 16 17  1  0  0  0
 16 15  1  0  0  0
 16 18  1  0  0  0
 17 11  2  0  0  0
  1 15  1  0  0  0
  1  6  1  0  0  0
  2  1  2  0  0  0
  3  2  1  0  0  0
  3  4  2  0  0  0
  4  5  1  0  0  0
  5  6  2  0  0  0
  6 32  1  0  0  0
 32 33  1  0  0  0
 33 34  1  0  0  0
 22 24  2  0  0  0
 22 25  1  0  0  0
 22  3  1  0  0  0
 23 22  2  0  0  0
 25 26  1  0  0  0
 27 26  1  0  0  0
 28 29  1  0  0  0
 28 27  1  0  0  0
 30 28  1  0  0  0
 30 31  1  0  0  0
 31 25  1  0  0  0
M  END
> <minimizedAffinity>
-8.22985

$$$$
/home/hjpark/lecture_drug1/0905_agent/pde5_harness/sample_run/structures/work/ligand_ref.pdb


 34 37  0  0  0  0  0  0  0  0999 V2000
    0.9521   66.8707   81.2286 C   0  0  0  0  0  0  0  0  0  0  0  0
    0.6026   66.2160   79.9844 C   0  0  0  0  0  0  0  0  0  0  0  0
    0.2579   64.7964   79.9488 C   0  0  0  0  0  0  0  0  0  0  0  0
    0.2753   64.0496   81.2468 C   0  0  0  0  0  0  0  0  0  0  0  0
    0.6250   64.6903   82.5102 C   0  0  0  0  0  0  0  0  0  0  0  0
    0.9798   66.1224   82.5331 C   0  0  0  0  0  0  0  0  0  0  0  0
    0.1034   71.7934   80.9374 C   0  0  0  0  0  0  0  0  0  0  0  0
    1.0263   72.8415   80.8239 N   0  0  0  0  0  0  0  0  0  0  0  0
    2.2886   72.3228   80.8053 N   0  0  0  0  0  0  0  0  0  0  0  0
    3.4879   73.1576   80.6928 C   0  0  0  0  0  0  0  0  0  0  0  0
    2.1712   70.9597   80.9068 C   0  0  0  0  0  0  0  0  0  0  0  0
    3.1201   69.8827   80.9434 C   0  0  0  0  0  0  0  0  0  0  0  0
    4.3162   70.0524   80.8834 O   0  0  0  0  0  0  0  0  0  0  0  0
    2.6421   68.5784   81.0504 N   0  0  0  0  0  0  0  0  0  0  0  0
    1.2814   68.2501   81.1288 C   0  0  0  0  0  0  0  0  0  0  0  0
    0.3191   69.2662   81.1012 N   0  0  0  0  0  0  0  0  0  0  0  0
    0.7916   70.6047   80.9898 C   0  0  0  0  0  0  0  0  0  0  0  0
   -0.6428   69.0642   81.1564 H   0  0  0  0  0  0  0  0  0  0  0  0
   -1.3806   71.9614   80.9975 C   0  0  0  0  0  0  0  0  0  0  0  0
   -2.8935   72.5317   79.0284 C   0  0  0  0  0  0  0  0  0  0  0  0
   -1.6680   72.9347   79.8034 C   0  0  0  0  0  0  0  0  0  0  0  0
   -0.1035   64.0588   78.5745 S   0  0  0  0  0  0  0  0  0  0  0  0
   -0.8204   64.7545   77.7115 O   0  0  0  0  0  0  0  0  0  0  0  0
    1.0047   63.7627   77.9371 O   0  0  0  0  0  0  0  0  0  0  0  0
   -0.8577   62.7720   79.1259 N   0  0  0  0  0  0  0  0  0  0  0  0
   -0.3096   61.3939   78.5841 C   0  0  0  0  0  0  0  0  0  0  0  0
   -0.8228   60.9190   77.2110 C   0  0  0  0  0  0  0  0  0  0  0  0
   -2.2650   61.2078   76.9061 N   0  0  0  0  0  0  0  0  0  0  0  0
   -2.9957   59.9054   76.8175 C   0  0  0  0  0  0  0  0  0  0  0  0
   -3.0445   62.1622   77.8139 C   0  0  0  0  0  0  0  0  0  0  0  0
   -2.3681   62.6373   79.1555 C   0  0  0  0  0  0  0  0  0  0  0  0
    1.3629   66.8407   83.7299 O   0  0  0  0  0  0  0  0  0  0  0  0
    2.6860   66.8486   84.3024 C   0  0  0  0  0  0  0  0  0  0  0  0
    2.9829   68.3121   84.5839 C   0  0  0  0  0  0  0  0  0  0  0  0
 20 21  1  0  0  0
 21 19  1  0  0  0
 19  7  1  0  0  0
  7 17  1  0  0  0
  7  8  2  0  0  0
  8  9  1  0  0  0
  9 10  1  0  0  0
 11  9  1  0  0  0
 11 12  1  0  0  0
 12 13  2  0  0  0
 14 12  1  0  0  0
 15 14  2  0  0  0
 16 17  1  0  0  0
 16 15  1  0  0  0
 16 18  1  0  0  0
 17 11  2  0  0  0
  1 15  1  0  0  0
  1  6  1  0  0  0
  2  1  2  0  0  0
  3  2  1  0  0  0
  3  4  2  0  0  0
  4  5  1  0  0  0
  5  6  2  0  0  0
  6 32  1  0  0  0
 32 33  1  0  0  0
 33 34  1  0  0  0
 22 24  2  0  0  0
 22 25  1  0  0  0
 22  3  1  0  0  0
 23 22  2  0  0  0
 25 26  1  0  0  0
 27 26  1  0  0  0
 28 29  1  0  0  0
 28 27  1  0  0  0
 30 28  1  0  0  0
 30 31  1  0  0  0
 31 25  1  0  0  0
M  END
> <minimizedAffinity>
-8.20084

$$$$
/home/hjpark/lecture_drug1/0905_agent/pde5_harness/sample_run/structures/work/ligand_ref.pdb


 34 37  0  0  0  0  0  0  0  0999 V2000
   -0.1130   63.9452   83.1098 C   0  0  0  0  0  0  0  0  0  0  0  0
    0.7178   64.9162   82.4272 C   0  0  0  0  0  0  0  0  0  0  0  0
    1.4717   65.9219   83.1725 C   0  0  0  0  0  0  0  0  0  0  0  0
    1.3555   65.9049   84.6655 C   0  0  0  0  0  0  0  0  0  0  0  0
    0.5239   64.9360   85.3717 C   0  0  0  0  0  0  0  0  0  0  0  0
   -0.2400   63.9304   84.6085 C   0  0  0  0  0  0  0  0  0  0  0  0
   -1.9593   62.1099   78.8365 C   0  0  0  0  0  0  0  0  0  0  0  0
   -2.7099   60.9451   78.6293 N   0  0  0  0  0  0  0  0  0  0  0  0
   -2.8906   60.3134   79.8257 N   0  0  0  0  0  0  0  0  0  0  0  0
   -3.6392   59.0603   79.9561 C   0  0  0  0  0  0  0  0  0  0  0  0
   -2.2613   61.0668   80.7840 C   0  0  0  0  0  0  0  0  0  0  0  0
   -2.0971   60.9292   82.2038 C   0  0  0  0  0  0  0  0  0  0  0  0
   -2.5513   60.0032   82.8358 O   0  0  0  0  0  0  0  0  0  0  0  0
   -1.3828   61.9097   82.8889 N   0  0  0  0  0  0  0  0  0  0  0  0
   -0.8068   63.0294   82.2725 C   0  0  0  0  0  0  0  0  0  0  0  0
   -0.9366   63.2045   80.8898 N   0  0  0  0  0  0  0  0  0  0  0  0
   -1.6660   62.2120   80.1756 C   0  0  0  0  0  0  0  0  0  0  0  0
   -0.5408   63.9804   80.4310 H   0  0  0  0  0  0  0  0  0  0  0  0
   -1.5489   63.0667   77.7642 C   0  0  0  0  0  0  0  0  0  0  0  0
    0.9853   63.2266   77.9730 C   0  0  0  0  0  0  0  0  0  0  0  0
   -0.1577   62.5046   77.3119 C   0  0  0  0  0  0  0  0  0  0  0  0
    2.3711   67.0153   82.4247 S   0  0  0  0  0  0  0  0  0  0  0  0
    3.6225   67.1172   82.8325 O   0  0  0  0  0  0  0  0  0  0  0  0
    2.4511   66.7126   81.1503 O   0  0  0  0  0  0  0  0  0  0  0  0
    1.5135   68.3275   82.6919 N   0  0  0  0  0  0  0  0  0  0  0  0
    0.7227   68.8744   81.4394 C   0  0  0  0  0  0  0  0  0  0  0  0
    1.4961   69.7653   80.4482 C   0  0  0  0  0  0  0  0  0  0  0  0
    2.4947   70.7132   81.0486 N   0  0  0  0  0  0  0  0  0  0  0  0
    2.0184   72.1108   80.8080 C   0  0  0  0  0  0  0  0  0  0  0  0
    2.8802   70.5588   82.5217 C   0  0  0  0  0  0  0  0  0  0  0  0
    2.0565   69.5492   83.4081 C   0  0  0  0  0  0  0  0  0  0  0  0
   -1.1089   62.9447   85.2153 O   0  0  0  0  0  0  0  0  0  0  0  0
   -1.2500   62.7269   86.6334 C   0  0  0  0  0  0  0  0  0  0  0  0
   -2.7330   62.9068   86.9123 C   0  0  0  0  0  0  0  0  0  0  0  0
 20 21  1  0  0  0
 21 19  1  0  0  0
 19  7  1  0  0  0
  7 17  1  0  0  0
  7  8  2  0  0  0
  8  9  1  0  0  0
  9 10  1  0  0  0
 11  9  1  0  0  0
 11 12  1  0  0  0
 12 13  2  0  0  0
 14 12  1  0  0  0
 15 14  2  0  0  0
 16 17  1  0  0  0
 16 15  1  0  0  0
 16 18  1  0  0  0
 17 11  2  0  0  0
  1 15  1  0  0  0
  1  6  1  0  0  0
  2  1  2  0  0  0
  3  2  1  0  0  0
  3  4  2  0  0  0
  4  5  1  0  0  0
  5  6  2  0  0  0
  6 32  1  0  0  0
 32 33  1  0  0  0
 33 34  1  0  0  0
 22 24  2  0  0  0
 22 25  1  0  0  0
 22  3  1  0  0  0
 23 22  2  0  0  0
 25 26  1  0  0  0
 27 26  1  0  0  0
 28 29  1  0  0  0
 28 27  1  0  0  0
 30 28  1  0  0  0
 30 31  1  0  0  0
 31 25  1  0  0  0
M  END
> <minimizedAffinity>
-8.12818

$$$$
/home/hjpark/lecture_drug1/0905_agent/pde5_harness/sample_run/structures/work/ligand_ref.pdb


 34 37  0  0  0  0  0  0  0  0999 V2000
    0.6640   65.6954   81.1028 C   0  0  0  0  0  0  0  0  0  0  0  0
    1.0842   66.7733   81.9748 C   0  0  0  0  0  0  0  0  0  0  0  0
    1.8770   67.8906   81.4665 C   0  0  0  0  0  0  0  0  0  0  0  0
    2.2318   67.8791   80.0116 C   0  0  0  0  0  0  0  0  0  0  0  0
    1.8189   66.8027   79.1170 C   0  0  0  0  0  0  0  0  0  0  0  0
    1.0259   65.6750   79.6430 C   0  0  0  0  0  0  0  0  0  0  0  0
   -1.0538   62.8680   84.8570 C   0  0  0  0  0  0  0  0  0  0  0  0
   -1.9386   61.7827   84.8092 N   0  0  0  0  0  0  0  0  0  0  0  0
   -2.3132   61.5706   83.5139 N   0  0  0  0  0  0  0  0  0  0  0  0
   -3.2359   60.5026   83.1196 C   0  0  0  0  0  0  0  0  0  0  0  0
   -1.6749   62.5109   82.7454 C   0  0  0  0  0  0  0  0  0  0  0  0
   -1.6642   62.8010   81.3392 C   0  0  0  0  0  0  0  0  0  0  0  0
   -2.3049   62.1718   80.5289 O   0  0  0  0  0  0  0  0  0  0  0  0
   -0.8764   63.8560   80.8837 N   0  0  0  0  0  0  0  0  0  0  0  0
   -0.0900   64.6604   81.7203 C   0  0  0  0  0  0  0  0  0  0  0  0
   -0.0714   64.4186   83.0989 N   0  0  0  0  0  0  0  0  0  0  0  0
   -0.8696   63.3422   83.5799 C   0  0  0  0  0  0  0  0  0  0  0  0
    0.4702   64.9690   83.7096 H   0  0  0  0  0  0  0  0  0  0  0  0
   -0.4297   63.4104   86.1021 C   0  0  0  0  0  0  0  0  0  0  0  0
   -1.0404   63.1186   88.5583 C   0  0  0  0  0  0  0  0  0  0  0  0
   -1.5766   63.2588   87.1591 C   0  0  0  0  0  0  0  0  0  0  0  0
    2.3681   69.0723   82.4287 S   0  0  0  0  0  0  0  0  0  0  0  0
    1.6712   69.2491   83.5359 O   0  0  0  0  0  0  0  0  0  0  0  0
    3.5917   68.8227   82.8319 O   0  0  0  0  0  0  0  0  0  0  0  0
    2.2898   70.3089   81.4320 N   0  0  0  0  0  0  0  0  0  0  0  0
    3.3222   71.4676   81.7236 C   0  0  0  0  0  0  0  0  0  0  0  0
    2.9381   72.5037   82.7976 C   0  0  0  0  0  0  0  0  0  0  0  0
    1.4896   72.8977   82.8506 N   0  0  0  0  0  0  0  0  0  0  0  0
    1.3807   74.3379   82.4606 C   0  0  0  0  0  0  0  0  0  0  0  0
    0.4635   72.0825   82.0599 C   0  0  0  0  0  0  0  0  0  0  0  0
    0.9914   70.9937   81.0505 C   0  0  0  0  0  0  0  0  0  0  0  0
    0.5899   64.5511   78.8421 O   0  0  0  0  0  0  0  0  0  0  0  0
   -0.0473   64.6514   77.5528 C   0  0  0  0  0  0  0  0  0  0  0  0
   -0.4162   63.2237   77.1855 C   0  0  0  0  0  0  0  0  0  0  0  0
 20 21  1  0  0  0
 21 19  1  0  0  0
 19  7  1  0  0  0
  7 17  1  0  0  0
  7  8  2  0  0  0
  8  9  1  0  0  0
  9 10  1  0  0  0
 11  9  1  0  0  0
 11 12  1  0  0  0
 12 13  2  0  0  0
 14 12  1  0  0  0
 15 14  2  0  0  0
 16 17  1  0  0  0
 16 15  1  0  0  0
 16 18  1  0  0  0
 17 11  2  0  0  0
  1 15  1  0  0  0
  1  6  1  0  0  0
  2  1  2  0  0  0
  3  2  1  0  0  0
  3  4  2  0  0  0
  4  5  1  0  0  0
  5  6  2  0  0  0
  6 32  1  0  0  0
 32 33  1  0  0  0
 33 34  1  0  0  0
 22 24  2  0  0  0
 22 25  1  0  0  0
 22  3  1  0  0  0
 23 22  2  0  0  0
 25 26  1  0  0  0
 27 26  1  0  0  0
 28 29  1  0  0  0
 28 27  1  0  0  0
 30 28  1  0  0  0
 30 31  1  0  0  0
 31 25  1  0  0  0
M  END
> <minimizedAffinity>
-8.08212

$$$$
/home/hjpark/lecture_drug1/0905_agent/pde5_harness/sample_run/structures/work/ligand_ref.pdb


 34 37  0  0  0  0  0  0  0  0999 V2000
    1.7406   67.6671   82.6499 C   0  0  0  0  0  0  0  0  0  0  0  0
    0.8817   66.7584   81.9180 C   0  0  0  0  0  0  0  0  0  0  0  0
    0.6915   65.3785   82.3594 C   0  0  0  0  0  0  0  0  0  0  0  0
    1.4136   64.9446   83.5976 C   0  0  0  0  0  0  0  0  0  0  0  0
    2.2833   65.8440   84.3485 C   0  0  0  0  0  0  0  0  0  0  0  0
    2.4749   67.2330   83.8887 C   0  0  0  0  0  0  0  0  0  0  0  0
    3.9746   71.5379   80.3996 C   0  0  0  0  0  0  0  0  0  0  0  0
    3.4580   72.8083   80.1124 N   0  0  0  0  0  0  0  0  0  0  0  0
    2.1664   72.8725   80.5490 N   0  0  0  0  0  0  0  0  0  0  0  0
    1.3377   74.0721   80.4014 C   0  0  0  0  0  0  0  0  0  0  0  0
    1.8633   71.6563   81.1070 C   0  0  0  0  0  0  0  0  0  0  0  0
    0.6858   71.1146   81.7248 C   0  0  0  0  0  0  0  0  0  0  0  0
   -0.3411   71.7406   81.8542 O   0  0  0  0  0  0  0  0  0  0  0  0
    0.7267   69.8061   82.2013 N   0  0  0  0  0  0  0  0  0  0  0  0
    1.8542   68.9777   82.1109 C   0  0  0  0  0  0  0  0  0  0  0  0
    3.0243   69.4602   81.5131 N   0  0  0  0  0  0  0  0  0  0  0  0
    2.9992   70.7968   81.0231 C   0  0  0  0  0  0  0  0  0  0  0  0
    3.8297   68.8996   81.4348 H   0  0  0  0  0  0  0  0  0  0  0  0
    5.3584   71.0808   80.0677 C   0  0  0  0  0  0  0  0  0  0  0  0
    6.6822   71.8045   78.0146 C   0  0  0  0  0  0  0  0  0  0  0  0
    5.9260   72.2757   79.2275 C   0  0  0  0  0  0  0  0  0  0  0  0
   -0.2346   64.3601   81.5417 S   0  0  0  0  0  0  0  0  0  0  0  0
   -1.4585   64.7746   81.2718 O   0  0  0  0  0  0  0  0  0  0  0  0
    0.3108   64.1221   80.3720 O   0  0  0  0  0  0  0  0  0  0  0  0
   -0.1968   63.0961   82.5059 N   0  0  0  0  0  0  0  0  0  0  0  0
    0.1004   61.7200   81.7909 C   0  0  0  0  0  0  0  0  0  0  0  0
   -1.0887   60.9927   81.1340 C   0  0  0  0  0  0  0  0  0  0  0  0
   -2.4002   61.0751   81.8616 N   0  0  0  0  0  0  0  0  0  0  0  0
   -2.7606   59.7028   82.3357 C   0  0  0  0  0  0  0  0  0  0  0  0
   -2.5520   62.0644   83.0195 C   0  0  0  0  0  0  0  0  0  0  0  0
   -1.2635   62.8048   83.5438 C   0  0  0  0  0  0  0  0  0  0  0  0
    3.3337   68.1917   84.5506 O   0  0  0  0  0  0  0  0  0  0  0  0
    4.7720   68.1126   84.6085 C   0  0  0  0  0  0  0  0  0  0  0  0
    5.0925   67.8619   86.0727 C   0  0  0  0  0  0  0  0  0  0  0  0
 20 21  1  0  0  0
 21 19  1  0  0  0
 19  7  1  0  0  0
  7 17  1  0  0  0
  7  8  2  0  0  0
  8  9  1  0  0  0
  9 10  1  0  0  0
 11  9  1  0  0  0
 11 12  1  0  0  0
 12 13  2  0  0  0
 14 12  1  0  0  0
 15 14  2  0  0  0
 16 17  1  0  0  0
 16 15  1  0  0  0
 16 18  1  0  0  0
 17 11  2  0  0  0
  1 15  1  0  0  0
  1  6  1  0  0  0
  2  1  2  0  0  0
  3  2  1  0  0  0
  3  4  2  0  0  0
  4  5  1  0  0  0
  5  6  2  0  0  0
  6 32  1  0  0  0
 32 33  1  0  0  0
 33 34  1  0  0  0
 22 24  2  0  0  0
 22 25  1  0  0  0
 22  3  1  0  0  0
 23 22  2  0  0  0
 25 26  1  0  0  0
 27 26  1  0  0  0
 28 29  1  0  0  0
 28 27  1  0  0  0
 30 28  1  0  0  0
 30 31  1  0  0  0
 31 25  1  0  0  0
M  END
> <minimizedAffinity>
-8.00001

$$$$
