/home/hjpark/lecture_drug1/0905_agent/pde5_harness/sample_run/structures/work/ligand_ref.pdb


 35 38  0  0  0  0  0  0  0  0999 V2000
    0.4198   64.1405   83.8674 C   0  0  0  0  0  0  0  0  0  0  0  0
    0.1478   63.4023   82.6509 C   0  0  0  0  0  0  0  0  0  0  0  0
   -0.6883   62.2039   82.6656 C   0  0  0  0  0  0  0  0  0  0  0  0
   -1.2549   61.7743   83.9836 C   0  0  0  0  0  0  0  0  0  0  0  0
   -0.9924   62.5034   85.2199 C   0  0  0  0  0  0  0  0  0  0  0  0
   -0.1396   63.7074   85.1948 C   0  0  0  0  0  0  0  0  0  0  0  0
    4.3143   67.1352   84.8179 C   0  0  0  0  0  0  0  0  0  0  0  0
    4.6436   68.3650   84.2329 N   0  0  0  0  0  0  0  0  0  0  0  0
    3.7047   68.6758   83.2922 N   0  0  0  0  0  0  0  0  0  0  0  0
    3.7565   69.9047   82.4953 C   0  0  0  0  0  0  0  0  0  0  0  0
    2.7882   67.6551   83.2775 C   0  0  0  0  0  0  0  0  0  0  0  0
    1.5948   67.4048   82.5193 C   0  0  0  0  0  0  0  0  0  0  0  0
    1.1777   68.1616   81.6730 O   0  0  0  0  0  0  0  0  0  0  0  0
    0.8798   66.2358   82.7710 N   0  0  0  0  0  0  0  0  0  0  0  0
    1.2584   65.2794   83.7236 C   0  0  0  0  0  0  0  0  0  0  0  0
    2.4166   65.4776   84.4842 N   0  0  0  0  0  0  0  0  0  0  0  0
    3.1573   66.6689   84.2404 C   0  0  0  0  0  0  0  0  0  0  0  0
    2.7066   64.8216   85.1585 H   0  0  0  0  0  0  0  0  0  0  0  0
    5.1073   66.4554   85.8870 C   0  0  0  0  0  0  0  0  0  0  0  0
    7.4574   65.9376   85.0500 C   0  0  0  0  0  0  0  0  0  0  0  0
    6.0238   65.4801   85.0716 C   0  0  0  0  0  0  0  0  0  0  0  0
   -0.9722   61.3671   81.3304 S   0  0  0  0  0  0  0  0  0  0  0  0
    0.0891   60.8982   80.7006 O   0  0  0  0  0  0  0  0  0  0  0  0
   -1.6886   60.3083   81.6267 O   0  0  0  0  0  0  0  0  0  0  0  0
   -1.7835   62.4405   80.4828 N   0  0  0  0  0  0  0  0  0  0  0  0
   -3.2680   62.0312   80.1334 C   0  0  0  0  0  0  0  0  0  0  0  0
   -3.4816   61.1247   78.9058 C   0  0  0  0  0  0  0  0  0  0  0  0
   -2.5859   61.3819   77.7278 N   0  0  0  0  0  0  0  0  0  0  0  0
   -3.4292   61.8812   76.5975 C   0  0  0  0  0  0  0  0  0  0  0  0
   -1.3740   62.3013   77.8966 C   0  0  0  0  0  0  0  0  0  0  0  0
   -1.2330   63.1131   79.2399 C   0  0  0  0  0  0  0  0  0  0  0  0
   -2.1486   60.4754   77.5626 H   0  0  0  0  0  0  0  0  0  0  0  0
    0.1976   64.4831   86.3692 O   0  0  0  0  0  0  0  0  0  0  0  0
   -0.2263   64.1773   87.7128 C   0  0  0  0  0  0  0  0  0  0  0  0
    0.8954   63.3338   88.2956 C   0  0  0  0  0  0  0  0  0  0  0  0
 20 21  1  0  0  0
 21 19  1  0  0  0
 19  7  1  0  0  0
  7 17  1  0  0  0
  7  8  2  0  0  0
  8  9  1  0  0  0
  9 10  1  0  0  0
 11  9  1  0  0  0
 11 12  1  0  0  0
 12 13  2  0  0  0
 14 12  1  0  0  0
 15 14  2  0  0  0
 16 17  1  0  0  0
 16 15  1  0  0  0
 16 18  1  0  0  0
 17 11  2  0  0  0
  1 15  1  0  0  0
  1  6  1  0  0  0
  2  1  2  0  0  0
  3  2  1  0  0  0
  3  4  2  0  0  0
  4  5  1  0  0  0
  5  6  2  0  0  0
  6 33  1  0  0  0
 33 34  1  0  0  0
 34 35  1  0  0  0
 22 24  2  0  0  0
 22 25  1  0  0  0
 22  3  1  0  0  0
 23 22  2  0  0  0
 25 26  1  0  0  0
 27 26  1  0  0  0
 28 29  1  0  0  0
 28 27  1  0  0  0
 28 32  1  0  0  0
 30 28  1  0  0  0
 30 31  1  0  0  0
 31 25  1  0  0  0
M  CHG 1  28   1
M  END
> <minimizedAffinity>
-9.61981

$$$$
/home/hjpark/lecture_drug1/0905_agent/pde5_harness/sample_run/structures/work/ligand_ref.pdb


 35 38  0  0  0  0  0  0  0  0999 V2000
    0.1831   64.3449   84.1639 C   0  0  0  0  0  0  0  0  0  0  0  0
   -0.4039   63.7965   82.9583 C   0  0  0  0  0  0  0  0  0  0  0  0
   -1.3606   62.6936   83.0183 C   0  0  0  0  0  0  0  0  0  0  0  0
   -1.7125   62.1585   84.3720 C   0  0  0  0  0  0  0  0  0  0  0  0
   -1.1320   62.6964   85.5979 C   0  0  0  0  0  0  0  0  0  0  0  0
   -0.1603   63.8045   85.5249 C   0  0  0  0  0  0  0  0  0  0  0  0
    4.3206   67.0409   84.9710 C   0  0  0  0  0  0  0  0  0  0  0  0
    4.7426   68.2180   84.3390 N   0  0  0  0  0  0  0  0  0  0  0  0
    3.8213   68.5716   83.3960 N   0  0  0  0  0  0  0  0  0  0  0  0
    3.9642   69.7630   82.5547 C   0  0  0  0  0  0  0  0  0  0  0  0
    2.8242   67.6298   83.4263 C   0  0  0  0  0  0  0  0  0  0  0  0
    1.6055   67.4519   82.6883 C   0  0  0  0  0  0  0  0  0  0  0  0
    1.2418   68.2100   81.8188 O   0  0  0  0  0  0  0  0  0  0  0  0
    0.8002   66.3552   82.9883 N   0  0  0  0  0  0  0  0  0  0  0  0
    1.1103   65.4052   83.9716 C   0  0  0  0  0  0  0  0  0  0  0  0
    2.2898   65.5342   84.7143 N   0  0  0  0  0  0  0  0  0  0  0  0
    3.1226   66.6512   84.4210 C   0  0  0  0  0  0  0  0  0  0  0  0
    2.5330   64.8808   85.4093 H   0  0  0  0  0  0  0  0  0  0  0  0
    5.0678   66.3364   86.0570 C   0  0  0  0  0  0  0  0  0  0  0  0
    7.3045   65.7532   84.9853 C   0  0  0  0  0  0  0  0  0  0  0  0
    5.9062   65.2735   85.2676 C   0  0  0  0  0  0  0  0  0  0  0  0
   -1.9938   62.0639   81.6893 S   0  0  0  0  0  0  0  0  0  0  0  0
   -2.3435   60.7928   81.7569 O   0  0  0  0  0  0  0  0  0  0  0  0
   -3.0982   62.7062   81.3891 O   0  0  0  0  0  0  0  0  0  0  0  0
   -0.8212   62.3395   80.6511 N   0  0  0  0  0  0  0  0  0  0  0  0
   -1.1798   63.3503   79.4922 C   0  0  0  0  0  0  0  0  0  0  0  0
   -1.9262   62.7867   78.2676 C   0  0  0  0  0  0  0  0  0  0  0  0
   -1.5272   61.4081   77.8247 N   0  0  0  0  0  0  0  0  0  0  0  0
   -0.8890   61.5150   76.4758 C   0  0  0  0  0  0  0  0  0  0  0  0
   -0.6394   60.5575   78.7362 C   0  0  0  0  0  0  0  0  0  0  0  0
   -0.0011   61.2391   80.0056 C   0  0  0  0  0  0  0  0  0  0  0  0
   -2.4074   60.8929   77.8379 H   0  0  0  0  0  0  0  0  0  0  0  0
    0.4867   64.3889   86.6802 O   0  0  0  0  0  0  0  0  0  0  0  0
    1.2275   63.6531   87.6743 C   0  0  0  0  0  0  0  0  0  0  0  0
    0.2103   63.3164   88.7519 C   0  0  0  0  0  0  0  0  0  0  0  0
 20 21  1  0  0  0
 21 19  1  0  0  0
 19  7  1  0  0  0
  7 17  1  0  0  0
  7  8  2  0  0  0
  8  9  1  0  0  0
  9 10  1  0  0  0
 11  9  1  0  0  0
 11 12  1  0  0  0
 12 13  2  0  0  0
 14 12  1  0  0  0
 15 14  2  0  0  0
 16 17  1  0  0  0
 16 15  1  0  0  0
 16 18  1  0  0  0
 17 11  2  0  0  0
  1 15  1  0  0  0
  1  6  1  0  0  0
  2  1  2  0  0  0
  3  2  1  0  0  0
  3  4  2  0  0  0
  4  5  1  0  0  0
  5  6  2  0  0  0
  6 33  1  0  0  0
 33 34  1  0  0  0
 34 35  1  0  0  0
 22 24  2  0  0  0
 22 25  1  0  0  0
 22  3  1  0  0  0
 23 22  2  0  0  0
 25 26  1  0  0  0
 27 26  1  0  0  0
 28 29  1  0  0  0
 28 27  1  0  0  0
 28 32  1  0  0  0
 30 28  1  0  0  0
 30 31  1  0  0  0
 31 25  1  0  0  0
M  CHG 1  28   1
M  END
> <minimizedAffinity>
-9.56831

$$$$
/home/hjpark/lecture_drug1/0905_agent/pde5_harness/sample_run/structures/work/ligand_ref.pdb


 35 38  0  0  0  0  0  0  0  0999 V2000
    2.1122   67.1629   83.3272 C   0  0  0  0  0  0  0  0  0  0  0  0
    1.5629   68.1298   82.3985 C   0  0  0  0  0  0  0  0  0  0  0  0
    2.3030   69.3376   82.0400 C   0  0  0  0  0  0  0  0  0  0  0  0
    3.6500   69.5323   82.6650 C   0  0  0  0  0  0  0  0  0  0  0  0
    4.2205   68.5710   83.6028 C   0  0  0  0  0  0  0  0  0  0  0  0
    3.4606   67.3590   83.9644 C   0  0  0  0  0  0  0  0  0  0  0  0
   -0.1703   63.7184   86.1491 C   0  0  0  0  0  0  0  0  0  0  0  0
   -1.0017   62.6631   85.7511 N   0  0  0  0  0  0  0  0  0  0  0  0
   -1.1322   62.6876   84.3926 N   0  0  0  0  0  0  0  0  0  0  0  0
   -1.9393   61.7114   83.6554 C   0  0  0  0  0  0  0  0  0  0  0  0
   -0.3932   63.7471   83.9307 C   0  0  0  0  0  0  0  0  0  0  0  0
   -0.1390   64.2836   82.6233 C   0  0  0  0  0  0  0  0  0  0  0  0
   -0.6065   63.8123   81.6123 O   0  0  0  0  0  0  0  0  0  0  0  0
    0.6879   65.3994   82.5115 N   0  0  0  0  0  0  0  0  0  0  0  0
    1.2891   66.0378   83.6054 C   0  0  0  0  0  0  0  0  0  0  0  0
    1.0673   65.5535   84.8999 N   0  0  0  0  0  0  0  0  0  0  0  0
    0.2262   64.4122   85.0307 C   0  0  0  0  0  0  0  0  0  0  0  0
    1.4753   65.9834   85.6859 H   0  0  0  0  0  0  0  0  0  0  0  0
    0.2055   64.0267   87.5625 C   0  0  0  0  0  0  0  0  0  0  0  0
    0.2714   62.1237   89.2554 C   0  0  0  0  0  0  0  0  0  0  0  0
   -0.6130   62.9677   88.3777 C   0  0  0  0  0  0  0  0  0  0  0  0
    1.6920   70.4242   81.0353 S   0  0  0  0  0  0  0  0  0  0  0  0
    2.5546   71.0373   80.2460 O   0  0  0  0  0  0  0  0  0  0  0  0
    0.8451   69.8361   80.2236 O   0  0  0  0  0  0  0  0  0  0  0  0
    0.9773   71.4020   82.0659 N   0  0  0  0  0  0  0  0  0  0  0  0
   -0.4901   71.8309   81.6710 C   0  0  0  0  0  0  0  0  0  0  0  0
   -0.6429   73.0050   80.6849 C   0  0  0  0  0  0  0  0  0  0  0  0
    0.3427   74.1286   80.8340 N   0  0  0  0  0  0  0  0  0  0  0  0
   -0.4013   75.3501   81.2728 C   0  0  0  0  0  0  0  0  0  0  0  0
    1.5672   73.9349   81.7315 C   0  0  0  0  0  0  0  0  0  0  0  0
    1.6363   72.6445   82.6334 C   0  0  0  0  0  0  0  0  0  0  0  0
    0.7625   74.1977   79.9070 H   0  0  0  0  0  0  0  0  0  0  0  0
    3.9302   66.3605   84.9011 O   0  0  0  0  0  0  0  0  0  0  0  0
    5.3013   65.9379   85.0419 C   0  0  0  0  0  0  0  0  0  0  0  0
    5.3435   65.1743   86.3550 C   0  0  0  0  0  0  0  0  0  0  0  0
 20 21  1  0  0  0
 21 19  1  0  0  0
 19  7  1  0  0  0
  7 17  1  0  0  0
  7  8  2  0  0  0
  8  9  1  0  0  0
  9 10  1  0  0  0
 11  9  1  0  0  0
 11 12  1  0  0  0
 12 13  2  0  0  0
 14 12  1  0  0  0
 15 14  2  0  0  0
 16 17  1  0  0  0
 16 15  1  0  0  0
 16 18  1  0  0  0
 17 11  2  0  0  0
  1 15  1  0  0  0
  1  6  1  0  0  0
  2  1  2  0  0  0
  3  2  1  0  0  0
  3  4  2  0  0  0
  4  5  1  0  0  0
  5  6  2  0  0  0
  6 33  1  0  0  0
 33 34  1  0  0  0
 34 35  1  0  0  0
 22 24  2  0  0  0
 22 25  1  0  0  0
 22  3  1  0  0  0
 23 22  2  0  0  0
 25 26  1  0  0  0
 27 26  1  0  0  0
 28 29  1  0  0  0
 28 27  1  0  0  0
 28 32  1  0  0  0
 30 28  1  0  0  0
 30 31  1  0  0  0
 31 25  1  0  0  0
M  CHG 1  28   1
M  END
> <minimizedAffinity>
-9.48482

$$$$
/home/hjpark/lecture_drug1/0905_agent/pde5_harness/sample_run/structures/work/ligand_ref.pdb


 35 38  0  0  0  0  0  0  0  0999 V2000
    0.9399   65.9940   81.9546 C   0  0  0  0  0  0  0  0  0  0  0  0
    1.4562   67.2358   82.4934 C   0  0  0  0  0  0  0  0  0  0  0  0
    2.0380   68.2536   81.6211 C   0  0  0  0  0  0  0  0  0  0  0  0
    2.0739   67.9644   80.1522 C   0  0  0  0  0  0  0  0  0  0  0  0
    1.5599   66.7199   79.5898 C   0  0  0  0  0  0  0  0  0  0  0  0
    0.9824   65.6954   80.4810 C   0  0  0  0  0  0  0  0  0  0  0  0
   -1.9103   62.2447   83.6451 C   0  0  0  0  0  0  0  0  0  0  0  0
   -1.9997   61.7213   84.9416 N   0  0  0  0  0  0  0  0  0  0  0  0
   -1.1455   62.4052   85.7575 N   0  0  0  0  0  0  0  0  0  0  0  0
   -0.9995   62.1041   87.1843 C   0  0  0  0  0  0  0  0  0  0  0  0
   -0.5183   63.3529   84.9890 C   0  0  0  0  0  0  0  0  0  0  0  0
    0.4694   64.3580   85.2646 C   0  0  0  0  0  0  0  0  0  0  0  0
    0.9509   64.5295   86.3608 O   0  0  0  0  0  0  0  0  0  0  0  0
    0.8929   65.1782   84.2210 N   0  0  0  0  0  0  0  0  0  0  0  0
    0.4132   65.0796   82.9073 C   0  0  0  0  0  0  0  0  0  0  0  0
   -0.5472   64.1123   82.5894 N   0  0  0  0  0  0  0  0  0  0  0  0
   -0.9920   63.2676   83.6458 C   0  0  0  0  0  0  0  0  0  0  0  0
   -0.8999   64.0199   81.6750 H   0  0  0  0  0  0  0  0  0  0  0  0
   -2.6880   61.7531   82.4672 C   0  0  0  0  0  0  0  0  0  0  0  0
   -1.1546   61.0891   80.5438 C   0  0  0  0  0  0  0  0  0  0  0  0
   -1.7437   60.6595   81.8603 C   0  0  0  0  0  0  0  0  0  0  0  0
    2.6350   69.6171   82.2110 S   0  0  0  0  0  0  0  0  0  0  0  0
    2.2804   69.9218   83.4456 O   0  0  0  0  0  0  0  0  0  0  0  0
    3.9446   69.5394   82.2415 O   0  0  0  0  0  0  0  0  0  0  0  0
    2.1061   70.6565   81.1299 N   0  0  0  0  0  0  0  0  0  0  0  0
    2.9854   71.9581   80.9696 C   0  0  0  0  0  0  0  0  0  0  0  0
    2.7405   73.1049   81.9692 C   0  0  0  0  0  0  0  0  0  0  0  0
    1.3138   73.3332   82.3798 N   0  0  0  0  0  0  0  0  0  0  0  0
    0.8834   74.6678   81.8587 C   0  0  0  0  0  0  0  0  0  0  0  0
    0.2559   72.2870   82.0207 C   0  0  0  0  0  0  0  0  0  0  0  0
    0.6629   71.1156   81.0484 C   0  0  0  0  0  0  0  0  0  0  0  0
    1.3482   73.2658   83.3970 H   0  0  0  0  0  0  0  0  0  0  0  0
    0.4693   64.4222   80.0223 O   0  0  0  0  0  0  0  0  0  0  0  0
   -0.0141   64.1561   78.6905 C   0  0  0  0  0  0  0  0  0  0  0  0
    0.9091   63.0789   78.1459 C   0  0  0  0  0  0  0  0  0  0  0  0
 20 21  1  0  0  0
 21 19  1  0  0  0
 19  7  1  0  0  0
  7 17  1  0  0  0
  7  8  2  0  0  0
  8  9  1  0  0  0
  9 10  1  0  0  0
 11  9  1  0  0  0
 11 12  1  0  0  0
 12 13  2  0  0  0
 14 12  1  0  0  0
 15 14  2  0  0  0
 16 17  1  0  0  0
 16 15  1  0  0  0
 16 18  1  0  0  0
 17 11  2  0  0  0
  1 15  1  0  0  0
  1  6  1  0  0  0
  2  1  2  0  0  0
  3  2  1  0  0  0
  3  4  2  0  0  0
  4  5  1  0  0  0
  5  6  2  0  0  0
  6 33  1  0  0  0
 33 34  1  0  0  0
 34 35  1  0  0  0
 22 24  2  0  0  0
 22 25  1  0  0  0
 22  3  1  0  0  0
 23 22  2  0  0  0
 25 26  1  0  0  0
 27 26  1  0  0  0
 28 29  1  0  0  0
 28 27  1  0  0  0
 28 32  1  0  0  0
 30 28  1  0  0  0
 30 31  1  0  0  0
 31 25  1  0  0  0
M  CHG 1  28   1
M  END
> <minimizedAffinity>
-8.97291

$$$$
/home/hjpark/lecture_drug1/0905_agent/pde5_harness/sample_run/structures/work/ligand_ref.pdb


 35 38  0  0  0  0  0  0  0  0999 V2000
    2.1662   66.2978   84.0431 C   0  0  0  0  0  0  0  0  0  0  0  0
    1.6542   67.1804   83.0146 C   0  0  0  0  0  0  0  0  0  0  0  0
    2.4715   68.2645   82.4741 C   0  0  0  0  0  0  0  0  0  0  0  0
    3.8568   68.4224   83.0206 C   0  0  0  0  0  0  0  0  0  0  0  0
    4.3908   67.5446   84.0567 C   0  0  0  0  0  0  0  0  0  0  0  0
    3.5535   66.4585   84.6015 C   0  0  0  0  0  0  0  0  0  0  0  0
   -0.9993   62.4423   83.6521 C   0  0  0  0  0  0  0  0  0  0  0  0
   -1.7058   61.7763   84.6623 N   0  0  0  0  0  0  0  0  0  0  0  0
   -1.4024   62.3440   85.8659 N   0  0  0  0  0  0  0  0  0  0  0  0
   -1.9791   61.8789   87.1304 C   0  0  0  0  0  0  0  0  0  0  0  0
   -0.5120   63.3595   85.6253 C   0  0  0  0  0  0  0  0  0  0  0  0
    0.1649   64.3051   86.4675 C   0  0  0  0  0  0  0  0  0  0  0  0
    0.0255   64.3399   87.6685 O   0  0  0  0  0  0  0  0  0  0  0  0
    1.0220   65.2297   85.8745 N   0  0  0  0  0  0  0  0  0  0  0  0
    1.2691   65.2923   84.4959 C   0  0  0  0  0  0  0  0  0  0  0  0
    0.6355   64.3884   83.6352 N   0  0  0  0  0  0  0  0  0  0  0  0
   -0.2455   63.4385   84.2257 C   0  0  0  0  0  0  0  0  0  0  0  0
    0.7921   64.4087   82.6635 H   0  0  0  0  0  0  0  0  0  0  0  0
   -1.0627   62.1053   82.1974 C   0  0  0  0  0  0  0  0  0  0  0  0
   -3.2616   62.1330   80.9107 C   0  0  0  0  0  0  0  0  0  0  0  0
   -2.2785   62.9580   81.6966 C   0  0  0  0  0  0  0  0  0  0  0  0
    1.9042   69.2609   81.3565 S   0  0  0  0  0  0  0  0  0  0  0  0
    2.7976   69.7920   80.5426 O   0  0  0  0  0  0  0  0  0  0  0  0
    1.0755   68.6091   80.5751 O   0  0  0  0  0  0  0  0  0  0  0  0
    1.1700   70.3345   82.2715 N   0  0  0  0  0  0  0  0  0  0  0  0
   -0.2792   70.7397   81.7930 C   0  0  0  0  0  0  0  0  0  0  0  0
   -0.3870   71.8212   80.7007 C   0  0  0  0  0  0  0  0  0  0  0  0
    0.6072   72.9444   80.7794 N   0  0  0  0  0  0  0  0  0  0  0  0
   -0.1350   74.2075   81.0824 C   0  0  0  0  0  0  0  0  0  0  0  0
    1.8010   72.8211   81.7293 C   0  0  0  0  0  0  0  0  0  0  0  0
    1.8263   71.6170   82.7455 C   0  0  0  0  0  0  0  0  0  0  0  0
    1.0564   72.9253   79.8638 H   0  0  0  0  0  0  0  0  0  0  0  0
    3.9840   65.5526   85.6450 O   0  0  0  0  0  0  0  0  0  0  0  0
    5.3522   65.1807   85.9055 C   0  0  0  0  0  0  0  0  0  0  0  0
    5.5734   65.5027   87.3741 C   0  0  0  0  0  0  0  0  0  0  0  0
 20 21  1  0  0  0
 21 19  1  0  0  0
 19  7  1  0  0  0
  7 17  1  0  0  0
  7  8  2  0  0  0
  8  9  1  0  0  0
  9 10  1  0  0  0
 11  9  1  0  0  0
 11 12  1  0  0  0
 12 13  2  0  0  0
 14 12  1  0  0  0
 15 14  2  0  0  0
 16 17  1  0  0  0
 16 15  1  0  0  0
 16 18  1  0  0  0
 17 11  2  0  0  0
  1 15  1  0  0  0
  1  6  1  0  0  0
  2  1  2  0  0  0
  3  2  1  0  0  0
  3  4  2  0  0  0
  4  5  1  0  0  0
  5  6  2  0  0  0
  6 33  1  0  0  0
 33 34  1  0  0  0
 34 35  1  0  0  0
 22 24  2  0  0  0
 22 25  1  0  0  0
 22  3  1  0  0  0
 23 22  2  0  0  0
 25 26  1  0  0  0
 27 26  1  0  0  0
 28 29  1  0  0  0
 28 27  1  0  0  0
 28 32  1  0  0  0
 30 28  1  0  0  0
 30 31  1  0  0  0
 31 25  1  0  0  0
M  CHG 1  28   1
M  END
> <minimizedAffinity>
-8.95212

$$$$
/home/hjpark/lecture_drug1/0905_agent/pde5_harness/sample_run/structures/work/ligand_ref.pdb


 35 38  0  0  0  0  0  0  0  0999 V2000
    0.4619   64.4557   84.6223 C   0  0  0  0  0  0  0  0  0  0  0  0
   -0.0866   64.1881   83.3084 C   0  0  0  0  0  0  0  0  0  0  0  0
   -1.2414   63.3094   83.1366 C   0  0  0  0  0  0  0  0  0  0  0  0
   -1.8363   62.7030   84.3700 C   0  0  0  0  0  0  0  0  0  0  0  0
   -1.2985   62.9593   85.7020 C   0  0  0  0  0  0  0  0  0  0  0  0
   -0.1266   63.8415   85.8628 C   0  0  0  0  0  0  0  0  0  0  0  0
    3.1588   68.5515   83.6277 C   0  0  0  0  0  0  0  0  0  0  0  0
    4.4722   68.8558   84.0091 N   0  0  0  0  0  0  0  0  0  0  0  0
    4.9715   67.8229   84.7487 N   0  0  0  0  0  0  0  0  0  0  0  0
    6.3287   67.8263   85.3016 C   0  0  0  0  0  0  0  0  0  0  0  0
    3.9868   66.8719   84.8383 C   0  0  0  0  0  0  0  0  0  0  0  0
    3.9044   65.5866   85.4730 C   0  0  0  0  0  0  0  0  0  0  0  0
    4.8152   65.1003   86.1032 O   0  0  0  0  0  0  0  0  0  0  0  0
    2.7203   64.8618   85.3564 N   0  0  0  0  0  0  0  0  0  0  0  0
    1.5940   65.3149   84.6551 C   0  0  0  0  0  0  0  0  0  0  0  0
    1.6253   66.5636   84.0234 N   0  0  0  0  0  0  0  0  0  0  0  0
    2.8294   67.3156   84.1314 C   0  0  0  0  0  0  0  0  0  0  0  0
    0.8483   66.9070   83.5259 H   0  0  0  0  0  0  0  0  0  0  0  0
    2.2753   69.4406   82.8136 C   0  0  0  0  0  0  0  0  0  0  0  0
    1.1338   68.4837   80.7465 C   0  0  0  0  0  0  0  0  0  0  0  0
    2.4505   68.8705   81.3644 C   0  0  0  0  0  0  0  0  0  0  0  0
   -1.8373   62.9871   81.6859 S   0  0  0  0  0  0  0  0  0  0  0  0
   -3.1455   63.1058   81.5545 O   0  0  0  0  0  0  0  0  0  0  0  0
   -1.3293   63.8248   80.8128 O   0  0  0  0  0  0  0  0  0  0  0  0
   -1.3173   61.4981   81.4834 N   0  0  0  0  0  0  0  0  0  0  0  0
   -0.1499   61.3360   80.4326 C   0  0  0  0  0  0  0  0  0  0  0  0
   -0.5444   61.2387   78.9462 C   0  0  0  0  0  0  0  0  0  0  0  0
   -1.8006   60.4733   78.6425 N   0  0  0  0  0  0  0  0  0  0  0  0
   -1.4275   59.2454   77.8736 C   0  0  0  0  0  0  0  0  0  0  0  0
   -2.7353   60.0845   79.7903 C   0  0  0  0  0  0  0  0  0  0  0  0
   -2.2391   60.3130   81.2685 C   0  0  0  0  0  0  0  0  0  0  0  0
   -2.3649   61.1448   78.1218 H   0  0  0  0  0  0  0  0  0  0  0  0
    0.4928   64.1375   87.1370 O   0  0  0  0  0  0  0  0  0  0  0  0
    0.7007   63.1834   88.1976 C   0  0  0  0  0  0  0  0  0  0  0  0
   -0.5280   63.3075   89.0833 C   0  0  0  0  0  0  0  0  0  0  0  0
 20 21  1  0  0  0
 21 19  1  0  0  0
 19  7  1  0  0  0
  7 17  1  0  0  0
  7  8  2  0  0  0
  8  9  1  0  0  0
  9 10  1  0  0  0
 11  9  1  0  0  0
 11 12  1  0  0  0
 12 13  2  0  0  0
 14 12  1  0  0  0
 15 14  2  0  0  0
 16 17  1  0  0  0
 16 15  1  0  0  0
 16 18  1  0  0  0
 17 11  2  0  0  0
  1 15  1  0  0  0
  1  6  1  0  0  0
  2  1  2  0  0  0
  3  2  1  0  0  0
  3  4  2  0  0  0
  4  5  1  0  0  0
  5  6  2  0  0  0
  6 33  1  0  0  0
 33 34  1  0  0  0
 34 35  1  0  0  0
 22 24  2  0  0  0
 22 25  1  0  0  0
 22  3  1  0  0  0
 23 22  2  0  0  0
 25 26  1  0  0  0
 27 26  1  0  0  0
 28 29  1  0  0  0
 28 27  1  0  0  0
 28 32  1  0  0  0
 30 28  1  0  0  0
 30 31  1  0  0  0
 31 25  1  0  0  0
M  CHG 1  28   1
M  END
> <minimizedAffinity>
-8.92374

$$$$
/home/hjpark/lecture_drug1/0905_agent/pde5_harness/sample_run/structures/work/ligand_ref.pdb


 35 38  0  0  0  0  0  0  0  0999 V2000
    0.2966   65.0440   81.3185 C   0  0  0  0  0  0  0  0  0  0  0  0
    0.6630   66.3191   80.7364 C   0  0  0  0  0  0  0  0  0  0  0  0
    1.2076   67.3966   81.5597 C   0  0  0  0  0  0  0  0  0  0  0  0
    1.3761   67.1285   83.0235 C   0  0  0  0  0  0  0  0  0  0  0  0
    1.0126   65.8517   83.6290 C   0  0  0  0  0  0  0  0  0  0  0  0
    0.4555   64.7736   82.7896 C   0  0  0  0  0  0  0  0  0  0  0  0
   -2.8618   61.5270   79.6774 C   0  0  0  0  0  0  0  0  0  0  0  0
   -2.8378   60.8146   78.4712 N   0  0  0  0  0  0  0  0  0  0  0  0
   -1.7677   61.2279   77.7315 N   0  0  0  0  0  0  0  0  0  0  0  0
   -1.4554   60.6755   76.4105 C   0  0  0  0  0  0  0  0  0  0  0  0
   -1.1180   62.1935   78.4580 C   0  0  0  0  0  0  0  0  0  0  0  0
    0.0499   62.9944   78.2214 C   0  0  0  0  0  0  0  0  0  0  0  0
    0.7104   62.9190   77.2109 O   0  0  0  0  0  0  0  0  0  0  0  0
    0.4448   63.9009   79.2030 N   0  0  0  0  0  0  0  0  0  0  0  0
   -0.2350   64.0834   80.4154 C   0  0  0  0  0  0  0  0  0  0  0  0
   -1.3814   63.3283   80.6892 N   0  0  0  0  0  0  0  0  0  0  0  0
   -1.7966   62.3957   79.6968 C   0  0  0  0  0  0  0  0  0  0  0  0
   -1.8790   63.4373   81.5316 H   0  0  0  0  0  0  0  0  0  0  0  0
   -3.8891   61.3607   80.7503 C   0  0  0  0  0  0  0  0  0  0  0  0
   -3.2053   60.6840   83.1095 C   0  0  0  0  0  0  0  0  0  0  0  0
   -3.2573   60.2579   81.6671 C   0  0  0  0  0  0  0  0  0  0  0  0
    1.5901   68.8178   80.9292 S   0  0  0  0  0  0  0  0  0  0  0  0
    2.8558   68.9837   80.5927 O   0  0  0  0  0  0  0  0  0  0  0  0
    0.9154   68.9944   79.8176 O   0  0  0  0  0  0  0  0  0  0  0  0
    1.1169   69.7890   82.0961 N   0  0  0  0  0  0  0  0  0  0  0  0
   -0.1219   70.7023   81.7430 C   0  0  0  0  0  0  0  0  0  0  0  0
    0.1582   72.0087   80.9755 C   0  0  0  0  0  0  0  0  0  0  0  0
    1.4168   72.7393   81.3473 N   0  0  0  0  0  0  0  0  0  0  0  0
    1.0348   74.0429   81.9740 C   0  0  0  0  0  0  0  0  0  0  0  0
    2.4539   72.0407   82.2298 C   0  0  0  0  0  0  0  0  0  0  0  0
    2.0665   70.6640   82.8916 C   0  0  0  0  0  0  0  0  0  0  0  0
    1.9106   72.8242   80.4589 H   0  0  0  0  0  0  0  0  0  0  0  0
    0.0438   63.4833   83.2999 O   0  0  0  0  0  0  0  0  0  0  0  0
   -0.8358   63.2802   84.4239 C   0  0  0  0  0  0  0  0  0  0  0  0
   -0.3233   62.0197   85.1004 C   0  0  0  0  0  0  0  0  0  0  0  0
 20 21  1  0  0  0
 21 19  1  0  0  0
 19  7  1  0  0  0
  7 17  1  0  0  0
  7  8  2  0  0  0
  8  9  1  0  0  0
  9 10  1  0  0  0
 11  9  1  0  0  0
 11 12  1  0  0  0
 12 13  2  0  0  0
 14 12  1  0  0  0
 15 14  2  0  0  0
 16 17  1  0  0  0
 16 15  1  0  0  0
 16 18  1  0  0  0
 17 11  2  0  0  0
  1 15  1  0  0  0
  1  6  1  0  0  0
  2  1  2  0  0  0
  3  2  1  0  0  0
  3  4  2  0  0  0
  4  5  1  0  0  0
  5  6  2  0  0  0
  6 33  1  0  0  0
 33 34  1  0  0  0
 34 35  1  0  0  0
 22 24  2  0  0  0
 22 25  1  0  0  0
 22  3  1  0  0  0
 23 22  2  0  0  0
 25 26  1  0  0  0
 27 26  1  0  0  0
 28 29  1  0  0  0
 28 27  1  0  0  0
 28 32  1  0  0  0
 30 28  1  0  0  0
 30 31  1  0  0  0
 31 25  1  0  0  0
M  CHG 1  28   1
M  END
> <minimizedAffinity>
-8.92293

$$$$
/home/hjpark/lecture_drug1/0905_agent/pde5_harness/sample_run/structures/work/ligand_ref.pdb


 35 38  0  0  0  0  0  0  0  0999 V2000
    0.4910   65.5124   81.7387 C   0  0  0  0  0  0  0  0  0  0  0  0
    1.1555   66.1005   82.8838 C   0  0  0  0  0  0  0  0  0  0  0  0
    1.9712   67.3052   82.7472 C   0  0  0  0  0  0  0  0  0  0  0  0
    2.0877   67.9082   81.3813 C   0  0  0  0  0  0  0  0  0  0  0  0
    1.4269   67.3309   80.2154 C   0  0  0  0  0  0  0  0  0  0  0  0
    0.6127   66.1093   80.3634 C   0  0  0  0  0  0  0  0  0  0  0  0
   -2.2017   62.2785   84.4461 C   0  0  0  0  0  0  0  0  0  0  0  0
   -2.7566   61.0519   84.0578 N   0  0  0  0  0  0  0  0  0  0  0  0
   -2.4576   60.8238   82.7456 N   0  0  0  0  0  0  0  0  0  0  0  0
   -2.8914   59.6203   82.0307 C   0  0  0  0  0  0  0  0  0  0  0  0
   -1.7214   61.8934   82.3029 C   0  0  0  0  0  0  0  0  0  0  0  0
   -1.1263   62.2334   81.0412 C   0  0  0  0  0  0  0  0  0  0  0  0
   -1.2044   61.5284   80.0614 O   0  0  0  0  0  0  0  0  0  0  0  0
   -0.4223   63.4313   80.9391 N   0  0  0  0  0  0  0  0  0  0  0  0
   -0.2606   64.3342   81.9994 C   0  0  0  0  0  0  0  0  0  0  0  0
   -0.8262   64.0481   83.2474 N   0  0  0  0  0  0  0  0  0  0  0  0
   -1.5471   62.8262   83.3686 C   0  0  0  0  0  0  0  0  0  0  0  0
   -0.7298   64.6650   84.0085 H   0  0  0  0  0  0  0  0  0  0  0  0
   -2.3197   62.8787   85.8098 C   0  0  0  0  0  0  0  0  0  0  0  0
   -0.1380   63.7189   86.8226 C   0  0  0  0  0  0  0  0  0  0  0  0
   -0.9513   62.5016   86.4740 C   0  0  0  0  0  0  0  0  0  0  0  0
    2.7307   67.9465   84.0024 S   0  0  0  0  0  0  0  0  0  0  0  0
    2.9220   69.2521   83.9622 O   0  0  0  0  0  0  0  0  0  0  0  0
    2.0247   67.7383   85.0888 O   0  0  0  0  0  0  0  0  0  0  0  0
    4.0839   67.1115   83.9796 N   0  0  0  0  0  0  0  0  0  0  0  0
    3.9756   65.6491   84.5652 C   0  0  0  0  0  0  0  0  0  0  0  0
    4.0809   65.4896   86.0942 C   0  0  0  0  0  0  0  0  0  0  0  0
    5.0565   66.3956   86.7896 N   0  0  0  0  0  0  0  0  0  0  0  0
    6.1566   65.5543   87.3555 C   0  0  0  0  0  0  0  0  0  0  0  0
    5.6653   67.5703   86.0203 C   0  0  0  0  0  0  0  0  0  0  0  0
    5.4116   67.6586   84.4675 C   0  0  0  0  0  0  0  0  0  0  0  0
    4.4820   66.8683   87.4875 H   0  0  0  0  0  0  0  0  0  0  0  0
   -0.0610   65.4495   79.2654 O   0  0  0  0  0  0  0  0  0  0  0  0
    0.5870   64.9431   78.0813 C   0  0  0  0  0  0  0  0  0  0  0  0
   -0.5481   64.5522   77.1496 C   0  0  0  0  0  0  0  0  0  0  0  0
 20 21  1  0  0  0
 21 19  1  0  0  0
 19  7  1  0  0  0
  7 17  1  0  0  0
  7  8  2  0  0  0
  8  9  1  0  0  0
  9 10  1  0  0  0
 11  9  1  0  0  0
 11 12  1  0  0  0
 12 13  2  0  0  0
 14 12  1  0  0  0
 15 14  2  0  0  0
 16 17  1  0  0  0
 16 15  1  0  0  0
 16 18  1  0  0  0
 17 11  2  0  0  0
  1 15  1  0  0  0
  1  6  1  0  0  0
  2  1  2  0  0  0
  3  2  1  0  0  0
  3  4  2  0  0  0
  4  5  1  0  0  0
  5  6  2  0  0  0
  6 33  1  0  0  0
 33 34  1  0  0  0
 34 35  1  0  0  0
 22 24  2  0  0  0
 22 25  1  0  0  0
 22  3  1  0  0  0
 23 22  2  0  0  0
 25 26  1  0  0  0
 27 26  1  0  0  0
 28 29  1  0  0  0
 28 27  1  0  0  0
 28 32  1  0  0  0
 30 28  1  0  0  0
 30 31  1  0  0  0
 31 25  1  0  0  0
M  CHG 1  28   1
M  END
> <minimizedAffinity>
-8.75845

$$$$
/home/hjpark/lecture_drug1/0905_agent/pde5_harness/sample_run/structures/work/ligand_ref.pdb


 35 38  0  0  0  0  0  0  0  0999 V2000
    0.8901   65.5107   82.8329 C   0  0  0  0  0  0  0  0  0  0  0  0
    1.6928   66.4244   83.6201 C   0  0  0  0  0  0  0  0  0  0  0  0
    2.5750   67.3980   82.9804 C   0  0  0  0  0  0  0  0  0  0  0  0
    2.6117   67.4165   81.4834 C   0  0  0  0  0  0  0  0  0  0  0  0
    1.8117   66.5044   80.6727 C   0  0  0  0  0  0  0  0  0  0  0  0
    0.9308   65.5195   81.3293 C   0  0  0  0  0  0  0  0  0  0  0  0
   -2.5108   61.9111   83.5509 C   0  0  0  0  0  0  0  0  0  0  0  0
   -2.9603   61.3509   84.7539 N   0  0  0  0  0  0  0  0  0  0  0  0
   -2.3061   61.9458   85.7937 N   0  0  0  0  0  0  0  0  0  0  0  0
   -2.5490   61.5865   87.1936 C   0  0  0  0  0  0  0  0  0  0  0  0
   -1.4488   62.8738   85.2590 C   0  0  0  0  0  0  0  0  0  0  0  0
   -0.5085   63.7983   85.8271 C   0  0  0  0  0  0  0  0  0  0  0  0
   -0.3155   63.8985   87.0170 O   0  0  0  0  0  0  0  0  0  0  0  0
    0.2155   64.6227   84.9684 N   0  0  0  0  0  0  0  0  0  0  0  0
    0.0844   64.6027   83.5728 C   0  0  0  0  0  0  0  0  0  0  0  0
   -0.8166   63.7153   82.9725 N   0  0  0  0  0  0  0  0  0  0  0  0
   -1.5659   62.8676   83.8369 C   0  0  0  0  0  0  0  0  0  0  0  0
   -0.9274   63.6790   81.9950 H   0  0  0  0  0  0  0  0  0  0  0  0
   -2.9871   61.5151   82.1907 C   0  0  0  0  0  0  0  0  0  0  0  0
   -1.0449   61.0276   80.6153 C   0  0  0  0  0  0  0  0  0  0  0  0
   -1.8998   60.4853   81.7289 C   0  0  0  0  0  0  0  0  0  0  0  0
    3.4854   68.3933   83.8429 S   0  0  0  0  0  0  0  0  0  0  0  0
    3.7319   69.5724   83.3027 O   0  0  0  0  0  0  0  0  0  0  0  0
    2.8830   68.6574   84.9785 O   0  0  0  0  0  0  0  0  0  0  0  0
    4.7894   67.5029   84.0317 N   0  0  0  0  0  0  0  0  0  0  0  0
    4.5179   65.9913   84.3986 C   0  0  0  0  0  0  0  0  0  0  0  0
    4.2606   65.6582   85.8809 C   0  0  0  0  0  0  0  0  0  0  0  0
    5.0653   66.4341   86.8841 N   0  0  0  0  0  0  0  0  0  0  0  0
    5.9859   65.4841   87.5828 C   0  0  0  0  0  0  0  0  0  0  0  0
    5.8604   67.6569   86.4202 C   0  0  0  0  0  0  0  0  0  0  0  0
    5.9776   67.9290   84.8724 C   0  0  0  0  0  0  0  0  0  0  0  0
    4.3537   66.8531   87.4829 H   0  0  0  0  0  0  0  0  0  0  0  0
    0.1182   64.5590   80.6138 O   0  0  0  0  0  0  0  0  0  0  0  0
   -0.2009   64.6280   79.2096 C   0  0  0  0  0  0  0  0  0  0  0  0
    0.7015   63.5977   78.5512 C   0  0  0  0  0  0  0  0  0  0  0  0
 20 21  1  0  0  0
 21 19  1  0  0  0
 19  7  1  0  0  0
  7 17  1  0  0  0
  7  8  2  0  0  0
  8  9  1  0  0  0
  9 10  1  0  0  0
 11  9  1  0  0  0
 11 12  1  0  0  0
 12 13  2  0  0  0
 14 12  1  0  0  0
 15 14  2  0  0  0
 16 17  1  0  0  0
 16 15  1  0  0  0
 16 18  1  0  0  0
 17 11  2  0  0  0
  1 15  1  0  0  0
  1  6  1  0  0  0
  2  1  2  0  0  0
  3  2  1  0  0  0
  3  4  2  0  0  0
  4  5  1  0  0  0
  5  6  2  0  0  0
  6 33  1  0  0  0
 33 34  1  0  0  0
 34 35  1  0  0  0
 22 24  2  0  0  0
 22 25  1  0  0  0
 22  3  1  0  0  0
 23 22  2  0  0  0
 25 26  1  0  0  0
 27 26  1  0  0  0
 28 29  1  0  0  0
 28 27  1  0  0  0
 28 32  1  0  0  0
 30 28  1  0  0  0
 30 31  1  0  0  0
 31 25  1  0  0  0
M  CHG 1  28   1
M  END
> <minimizedAffinity>
-8.64182

$$$$
/home/hjpark/lecture_drug1/0905_agent/pde5_harness/sample_run/structures/work/ligand_ref.pdb


 35 38  0  0  0  0  0  0  0  0999 V2000
    0.9600   65.5271   83.1034 C   0  0  0  0  0  0  0  0  0  0  0  0
    0.5540   64.9636   81.8320 C   0  0  0  0  0  0  0  0  0  0  0  0
    0.8328   65.6557   80.5756 C   0  0  0  0  0  0  0  0  0  0  0  0
    1.5573   66.9640   80.6548 C   0  0  0  0  0  0  0  0  0  0  0  0
    1.9741   67.5487   81.9250 C   0  0  0  0  0  0  0  0  0  0  0  0
    1.6797   66.8452   83.1883 C   0  0  0  0  0  0  0  0  0  0  0  0
   -1.7760   62.4256   85.9200 C   0  0  0  0  0  0  0  0  0  0  0  0
   -1.5405   61.9850   87.2290 N   0  0  0  0  0  0  0  0  0  0  0  0
   -0.3800   62.5413   87.6838 N   0  0  0  0  0  0  0  0  0  0  0  0
    0.1514   62.2830   89.0249 C   0  0  0  0  0  0  0  0  0  0  0  0
    0.1186   63.3266   86.6754 C   0  0  0  0  0  0  0  0  0  0  0  0
    1.2872   64.1508   86.5461 C   0  0  0  0  0  0  0  0  0  0  0  0
    2.1049   64.2825   87.4277 O   0  0  0  0  0  0  0  0  0  0  0  0
    1.4896   64.8348   85.3494 N   0  0  0  0  0  0  0  0  0  0  0  0
    0.6179   64.7649   84.2536 C   0  0  0  0  0  0  0  0  0  0  0  0
   -0.5324   63.9711   84.3309 N   0  0  0  0  0  0  0  0  0  0  0  0
   -0.7547   63.2674   85.5486 C   0  0  0  0  0  0  0  0  0  0  0  0
   -1.1606   63.9023   83.5761 H   0  0  0  0  0  0  0  0  0  0  0  0
   -2.9467   62.0285   85.0800 C   0  0  0  0  0  0  0  0  0  0  0  0
   -3.0943   60.5869   82.9844 C   0  0  0  0  0  0  0  0  0  0  0  0
   -2.2762   61.6086   83.7273 C   0  0  0  0  0  0  0  0  0  0  0  0
    0.3641   65.0531   79.1682 S   0  0  0  0  0  0  0  0  0  0  0  0
   -0.6917   65.6203   78.6147 O   0  0  0  0  0  0  0  0  0  0  0  0
    1.3292   65.1995   78.2911 O   0  0  0  0  0  0  0  0  0  0  0  0
    0.1239   63.5332   79.5695 N   0  0  0  0  0  0  0  0  0  0  0  0
    0.8321   62.4762   78.6344 C   0  0  0  0  0  0  0  0  0  0  0  0
    0.1084   62.0879   77.3306 C   0  0  0  0  0  0  0  0  0  0  0  0
   -1.3880   61.9845   77.4084 N   0  0  0  0  0  0  0  0  0  0  0  0
   -1.7714   60.5548   77.1917 C   0  0  0  0  0  0  0  0  0  0  0  0
   -2.1110   62.5178   78.6475 C   0  0  0  0  0  0  0  0  0  0  0  0
   -1.2435   62.9590   79.8869 C   0  0  0  0  0  0  0  0  0  0  0  0
   -1.7060   62.6241   76.6802 H   0  0  0  0  0  0  0  0  0  0  0  0
    2.0305   67.3541   84.4970 O   0  0  0  0  0  0  0  0  0  0  0  0
    3.1732   68.1854   84.7826 C   0  0  0  0  0  0  0  0  0  0  0  0
    4.3558   67.2314   84.8080 C   0  0  0  0  0  0  0  0  0  0  0  0
 20 21  1  0  0  0
 21 19  1  0  0  0
 19  7  1  0  0  0
  7 17  1  0  0  0
  7  8  2  0  0  0
  8  9  1  0  0  0
  9 10  1  0  0  0
 11  9  1  0  0  0
 11 12  1  0  0  0
 12 13  2  0  0  0
 14 12  1  0  0  0
 15 14  2  0  0  0
 16 17  1  0  0  0
 16 15  1  0  0  0
 16 18  1  0  0  0
 17 11  2  0  0  0
  1 15  1  0  0  0
  1  6  1  0  0  0
  2  1  2  0  0  0
  3  2  1  0  0  0
  3  4  2  0  0  0
  4  5  1  0  0  0
  5  6  2  0  0  0
  6 33  1  0  0  0
 33 34  1  0  0  0
 34 35  1  0  0  0
 22 24  2  0  0  0
 22 25  1  0  0  0
 22  3  1  0  0  0
 23 22  2  0  0  0
 25 26  1  0  0  0
 27 26  1  0  0  0
 28 29  1  0  0  0
 28 27  1  0  0  0
 28 32  1  0  0  0
 30 28  1  0  0  0
 30 31  1  0  0  0
 31 25  1  0  0  0
M  CHG 1  28   1
M  END
> <minimizedAffinity>
-8.60617

$$$$
/home/hjpark/lecture_drug1/0905_agent/pde5_harness/sample_run/structures/work/ligand_ref.pdb


 35 38  0  0  0  0  0  0  0  0999 V2000
   -0.1073   64.1120   84.2036 C   0  0  0  0  0  0  0  0  0  0  0  0
   -0.6261   63.6001   82.9514 C   0  0  0  0  0  0  0  0  0  0  0  0
   -1.6633   62.5710   82.9280 C   0  0  0  0  0  0  0  0  0  0  0  0
   -2.1702   62.0723   84.2460 C   0  0  0  0  0  0  0  0  0  0  0  0
   -1.6605   62.5744   85.5178 C   0  0  0  0  0  0  0  0  0  0  0  0
   -0.6070   63.6075   85.5296 C   0  0  0  0  0  0  0  0  0  0  0  0
    2.0610   68.3186   82.5785 C   0  0  0  0  0  0  0  0  0  0  0  0
    3.3252   68.8357   82.8906 N   0  0  0  0  0  0  0  0  0  0  0  0
    3.9473   67.9925   83.7653 N   0  0  0  0  0  0  0  0  0  0  0  0
    5.2920   68.2449   84.2903 C   0  0  0  0  0  0  0  0  0  0  0  0
    3.0885   66.9506   84.0084 C   0  0  0  0  0  0  0  0  0  0  0  0
    3.1653   65.7724   84.8255 C   0  0  0  0  0  0  0  0  0  0  0  0
    4.1278   65.5003   85.5055 O   0  0  0  0  0  0  0  0  0  0  0  0
    2.0810   64.8976   84.8347 N   0  0  0  0  0  0  0  0  0  0  0  0
    0.9089   65.0999   84.0926 C   0  0  0  0  0  0  0  0  0  0  0  0
    0.7860   66.2363   83.2847 N   0  0  0  0  0  0  0  0  0  0  0  0
    1.8867   67.1391   83.2626 C   0  0  0  0  0  0  0  0  0  0  0  0
   -0.0264   66.4042   82.7546 H   0  0  0  0  0  0  0  0  0  0  0  0
    1.0757   68.9623   81.6572 C   0  0  0  0  0  0  0  0  0  0  0  0
    0.0535   71.2953   81.7205 C   0  0  0  0  0  0  0  0  0  0  0  0
    1.3110   70.4908   81.9111 C   0  0  0  0  0  0  0  0  0  0  0  0
   -2.2231   61.9806   81.5490 S   0  0  0  0  0  0  0  0  0  0  0  0
   -2.6067   60.7176   81.5696 O   0  0  0  0  0  0  0  0  0  0  0  0
   -3.2899   62.6554   81.1901 O   0  0  0  0  0  0  0  0  0  0  0  0
   -0.9790   62.2449   80.5945 N   0  0  0  0  0  0  0  0  0  0  0  0
   -1.2376   63.2827   79.4329 C   0  0  0  0  0  0  0  0  0  0  0  0
   -1.9149   62.7573   78.1525 C   0  0  0  0  0  0  0  0  0  0  0  0
   -1.5193   61.3768   77.7119 N   0  0  0  0  0  0  0  0  0  0  0  0
   -0.7918   61.4905   76.4096 C   0  0  0  0  0  0  0  0  0  0  0  0
   -0.7128   60.4905   78.6640 C   0  0  0  0  0  0  0  0  0  0  0  0
   -0.1437   61.1358   79.9842 C   0  0  0  0  0  0  0  0  0  0  0  0
   -2.4101   60.8828   77.6586 H   0  0  0  0  0  0  0  0  0  0  0  0
   -0.0216   64.1505   86.7367 O   0  0  0  0  0  0  0  0  0  0  0  0
    0.5638   63.3684   87.7969 C   0  0  0  0  0  0  0  0  0  0  0  0
   -0.5107   63.2943   88.8690 C   0  0  0  0  0  0  0  0  0  0  0  0
 20 21  1  0  0  0
 21 19  1  0  0  0
 19  7  1  0  0  0
  7 17  1  0  0  0
  7  8  2  0  0  0
  8  9  1  0  0  0
  9 10  1  0  0  0
 11  9  1  0  0  0
 11 12  1  0  0  0
 12 13  2  0  0  0
 14 12  1  0  0  0
 15 14  2  0  0  0
 16 17  1  0  0  0
 16 15  1  0  0  0
 16 18  1  0  0  0
 17 11  2  0  0  0
  1 15  1  0  0  0
  1  6  1  0  0  0
  2  1  2  0  0  0
  3  2  1  0  0  0
  3  4  2  0  0  0
  4  5  1  0  0  0
  5  6  2  0  0  0
  6 33  1  0  0  0
 33 34  1  0  0  0
 34 35  1  0  0  0
 22 24  2  0  0  0
 22 25  1  0  0  0
 22  3  1  0  0  0
 23 22  2  0  0  0
 25 26  1  0  0  0
 27 26  1  0  0  0
 28 29  1  0  0  0
 28 27  1  0  0  0
 28 32  1  0  0  0
 30 28  1  0  0  0
 30 31  1  0  0  0
 31 25  1  0  0  0
M  CHG 1  28   1
M  END
> <minimizedAffinity>
-8.55299

$$$$
/home/hjpark/lecture_drug1/0905_agent/pde5_harness/sample_run/structures/work/ligand_ref.pdb


 35 38  0  0  0  0  0  0  0  0999 V2000
    1.2159   66.1936   82.0040 C   0  0  0  0  0  0  0  0  0  0  0  0
    1.6272   67.4405   81.3915 C   0  0  0  0  0  0  0  0  0  0  0  0
    2.3554   68.4524   82.1538 C   0  0  0  0  0  0  0  0  0  0  0  0
    2.6629   68.1472   83.5873 C   0  0  0  0  0  0  0  0  0  0  0  0
    2.2570   66.8980   84.2229 C   0  0  0  0  0  0  0  0  0  0  0  0
    1.5145   65.8869   83.4459 C   0  0  0  0  0  0  0  0  0  0  0  0
   -2.0463   62.5806   80.8456 C   0  0  0  0  0  0  0  0  0  0  0  0
   -2.3404   62.0275   79.5924 N   0  0  0  0  0  0  0  0  0  0  0  0
   -1.5746   62.6419   78.6441 N   0  0  0  0  0  0  0  0  0  0  0  0
   -1.6400   62.2920   77.2225 C   0  0  0  0  0  0  0  0  0  0  0  0
   -0.8022   63.5765   79.2860 C   0  0  0  0  0  0  0  0  0  0  0  0
    0.1826   64.5226   78.8427 C   0  0  0  0  0  0  0  0  0  0  0  0
    0.5100   64.6433   77.6845 O   0  0  0  0  0  0  0  0  0  0  0  0
    0.7939   65.3401   79.7909 N   0  0  0  0  0  0  0  0  0  0  0  0
    0.5020   65.2983   81.1615 C   0  0  0  0  0  0  0  0  0  0  0  0
   -0.4542   64.3953   81.6407 N   0  0  0  0  0  0  0  0  0  0  0  0
   -1.0863   63.5510   80.6841 C   0  0  0  0  0  0  0  0  0  0  0  0
   -0.6798   64.3459   82.5976 H   0  0  0  0  0  0  0  0  0  0  0  0
   -2.6872   62.1739   82.1332 C   0  0  0  0  0  0  0  0  0  0  0  0
   -2.8871   59.6392   82.2976 C   0  0  0  0  0  0  0  0  0  0  0  0
   -1.9700   60.8207   82.4652 C   0  0  0  0  0  0  0  0  0  0  0  0
    2.7903   69.8440   81.4922 S   0  0  0  0  0  0  0  0  0  0  0  0
    4.0872   70.0860   81.4449 O   0  0  0  0  0  0  0  0  0  0  0  0
    2.3919   69.8728   80.2422 O   0  0  0  0  0  0  0  0  0  0  0  0
    1.9931   70.8649   82.4148 N   0  0  0  0  0  0  0  0  0  0  0  0
    0.4845   71.0935   82.0085 C   0  0  0  0  0  0  0  0  0  0  0  0
    0.1996   72.1163   80.8918 C   0  0  0  0  0  0  0  0  0  0  0  0
    1.0673   73.3423   80.8786 N   0  0  0  0  0  0  0  0  0  0  0  0
    0.2083   74.5282   81.1851 C   0  0  0  0  0  0  0  0  0  0  0  0
    2.3169   73.3836   81.7613 C   0  0  0  0  0  0  0  0  0  0  0  0
    2.5292   72.2273   82.8107 C   0  0  0  0  0  0  0  0  0  0  0  0
    1.4656   73.3383   79.9396 H   0  0  0  0  0  0  0  0  0  0  0  0
    1.0490   64.6300   83.9922 O   0  0  0  0  0  0  0  0  0  0  0  0
    0.4972   64.4554   85.3126 C   0  0  0  0  0  0  0  0  0  0  0  0
   -0.5478   63.3627   85.1596 C   0  0  0  0  0  0  0  0  0  0  0  0
 20 21  1  0  0  0
 21 19  1  0  0  0
 19  7  1  0  0  0
  7 17  1  0  0  0
  7  8  2  0  0  0
  8  9  1  0  0  0
  9 10  1  0  0  0
 11  9  1  0  0  0
 11 12  1  0  0  0
 12 13  2  0  0  0
 14 12  1  0  0  0
 15 14  2  0  0  0
 16 17  1  0  0  0
 16 15  1  0  0  0
 16 18  1  0  0  0
 17 11  2  0  0  0
  1 15  1  0  0  0
  1  6  1  0  0  0
  2  1  2  0  0  0
  3  2  1  0  0  0
  3  4  2  0  0  0
  4  5  1  0  0  0
  5  6  2  0  0  0
  6 33  1  0  0  0
 33 34  1  0  0  0
 34 35  1  0  0  0
 22 24  2  0  0  0
 22 25  1  0  0  0
 22  3  1  0  0  0
 23 22  2  0  0  0
 25 26  1  0  0  0
 27 26  1  0  0  0
 28 29  1  0  0  0
 28 27  1  0  0  0
 28 32  1  0  0  0
 30 28  1  0  0  0
 30 31  1  0  0  0
 31 25  1  0  0  0
M  CHG 1  28   1
M  END
> <minimizedAffinity>
-8.54017

$$$$
/home/hjpark/lecture_drug1/0905_agent/pde5_harness/sample_run/structures/work/ligand_ref.pdb


 35 38  0  0  0  0  0  0  0  0999 V2000
    0.5111   65.1015   82.8473 C   0  0  0  0  0  0  0  0  0  0  0  0
    0.6651   66.1447   81.8537 C   0  0  0  0  0  0  0  0  0  0  0  0
    1.3413   67.3996   82.1748 C   0  0  0  0  0  0  0  0  0  0  0  0
    1.8716   67.5611   83.5660 C   0  0  0  0  0  0  0  0  0  0  0  0
    1.7263   66.5231   84.5811 C   0  0  0  0  0  0  0  0  0  0  0  0
    1.0340   65.2632   84.2483 C   0  0  0  0  0  0  0  0  0  0  0  0
   -1.1380   61.6700   79.6003 C   0  0  0  0  0  0  0  0  0  0  0  0
   -1.9436   60.5483   79.8369 N   0  0  0  0  0  0  0  0  0  0  0  0
   -2.2481   60.4916   81.1662 N   0  0  0  0  0  0  0  0  0  0  0  0
   -3.0812   59.4339   81.7449 C   0  0  0  0  0  0  0  0  0  0  0  0
   -1.6426   61.5646   81.7697 C   0  0  0  0  0  0  0  0  0  0  0  0
   -1.5887   62.0408   83.1232 C   0  0  0  0  0  0  0  0  0  0  0  0
   -2.1439   61.4848   84.0428 O   0  0  0  0  0  0  0  0  0  0  0  0
   -0.8649   63.2005   83.3920 N   0  0  0  0  0  0  0  0  0  0  0  0
   -0.1774   63.9351   82.4157 C   0  0  0  0  0  0  0  0  0  0  0  0
   -0.1974   63.5077   81.0829 N   0  0  0  0  0  0  0  0  0  0  0  0
   -0.9349   62.3251   80.7915 C   0  0  0  0  0  0  0  0  0  0  0  0
    0.2779   64.0033   80.3775 H   0  0  0  0  0  0  0  0  0  0  0  0
   -0.5932   62.0675   78.2664 C   0  0  0  0  0  0  0  0  0  0  0  0
   -2.3496   62.9646   76.6533 C   0  0  0  0  0  0  0  0  0  0  0  0
   -1.7755   61.7301   77.2946 C   0  0  0  0  0  0  0  0  0  0  0  0
    1.4923   68.5682   81.0907 S   0  0  0  0  0  0  0  0  0  0  0  0
    2.0536   68.2301   79.9447 O   0  0  0  0  0  0  0  0  0  0  0  0
    0.3019   69.0167   80.7684 O   0  0  0  0  0  0  0  0  0  0  0  0
    2.3431   69.6248   81.9205 N   0  0  0  0  0  0  0  0  0  0  0  0
    1.6085   70.9918   82.2120 C   0  0  0  0  0  0  0  0  0  0  0  0
    1.6413   72.0628   81.1047 C   0  0  0  0  0  0  0  0  0  0  0  0
    2.9187   72.1678   80.3214 N   0  0  0  0  0  0  0  0  0  0  0  0
    3.5423   73.4952   80.6168 C   0  0  0  0  0  0  0  0  0  0  0  0
    3.9763   71.0709   80.4654 C   0  0  0  0  0  0  0  0  0  0  0  0
    3.7789   69.9853   81.5905 C   0  0  0  0  0  0  0  0  0  0  0  0
    2.6128   72.0481   79.3557 H   0  0  0  0  0  0  0  0  0  0  0  0
    0.8195   64.1859   85.1909 O   0  0  0  0  0  0  0  0  0  0  0  0
    0.4816   64.3583   86.5817 C   0  0  0  0  0  0  0  0  0  0  0  0
   -0.3518   63.1383   86.9370 C   0  0  0  0  0  0  0  0  0  0  0  0
 20 21  1  0  0  0
 21 19  1  0  0  0
 19  7  1  0  0  0
  7 17  1  0  0  0
  7  8  2  0  0  0
  8  9  1  0  0  0
  9 10  1  0  0  0
 11  9  1  0  0  0
 11 12  1  0  0  0
 12 13  2  0  0  0
 14 12  1  0  0  0
 15 14  2  0  0  0
 16 17  1  0  0  0
 16 15  1  0  0  0
 16 18  1  0  0  0
 17 11  2  0  0  0
  1 15  1  0  0  0
  1  6  1  0  0  0
  2  1  2  0  0  0
  3  2  1  0  0  0
  3  4  2  0  0  0
  4  5  1  0  0  0
  5  6  2  0  0  0
  6 33  1  0  0  0
 33 34  1  0  0  0
 34 35  1  0  0  0
 22 24  2  0  0  0
 22 25  1  0  0  0
 22  3  1  0  0  0
 23 22  2  0  0  0
 25 26  1  0  0  0
 27 26  1  0  0  0
 28 29  1  0  0  0
 28 27  1  0  0  0
 28 32  1  0  0  0
 30 28  1  0  0  0
 30 31  1  0  0  0
 31 25  1  0  0  0
M  CHG 1  28   1
M  END
> <minimizedAffinity>
-8.46152

$$$$
/home/hjpark/lecture_drug1/0905_agent/pde5_harness/sample_run/structures/work/ligand_ref.pdb


 35 38  0  0  0  0  0  0  0  0999 V2000
    1.0034   66.2751   81.9543 C   0  0  0  0  0  0  0  0  0  0  0  0
    1.0757   67.6038   81.3813 C   0  0  0  0  0  0  0  0  0  0  0  0
    1.5546   68.7396   82.1660 C   0  0  0  0  0  0  0  0  0  0  0  0
    1.9712   68.4747   83.5799 C   0  0  0  0  0  0  0  0  0  0  0  0
    1.9053   67.1443   84.1757 C   0  0  0  0  0  0  0  0  0  0  0  0
    1.4119   66.0061   83.3767 C   0  0  0  0  0  0  0  0  0  0  0  0
   -0.6682   61.7320   80.6875 C   0  0  0  0  0  0  0  0  0  0  0  0
   -1.0638   61.2577   79.4299 N   0  0  0  0  0  0  0  0  0  0  0  0
   -0.9346   62.2621   78.5147 N   0  0  0  0  0  0  0  0  0  0  0  0
   -1.2659   62.0915   77.0974 C   0  0  0  0  0  0  0  0  0  0  0  0
   -0.4631   63.3641   79.1821 C   0  0  0  0  0  0  0  0  0  0  0  0
   -0.1325   64.7017   78.7782 C   0  0  0  0  0  0  0  0  0  0  0  0
   -0.2406   65.0948   77.6394 O   0  0  0  0  0  0  0  0  0  0  0  0
    0.3383   65.5905   79.7423 N   0  0  0  0  0  0  0  0  0  0  0  0
    0.5071   65.2581   81.0937 C   0  0  0  0  0  0  0  0  0  0  0  0
    0.1942   63.9674   81.5358 N   0  0  0  0  0  0  0  0  0  0  0  0
   -0.2861   63.0465   80.5619 C   0  0  0  0  0  0  0  0  0  0  0  0
    0.3014   63.7076   82.4792 H   0  0  0  0  0  0  0  0  0  0  0  0
   -0.6751   60.9279   81.9474 C   0  0  0  0  0  0  0  0  0  0  0  0
   -2.9578   59.8618   82.3269 C   0  0  0  0  0  0  0  0  0  0  0  0
   -2.1400   61.1169   82.4713 C   0  0  0  0  0  0  0  0  0  0  0  0
    1.6126   70.2159   81.5490 S   0  0  0  0  0  0  0  0  0  0  0  0
    1.3878   70.3140   80.2519 O   0  0  0  0  0  0  0  0  0  0  0  0
    0.6883   70.9577   82.1125 O   0  0  0  0  0  0  0  0  0  0  0  0
    3.0852   70.6468   81.9667 N   0  0  0  0  0  0  0  0  0  0  0  0
    3.2528   72.1706   82.3451 C   0  0  0  0  0  0  0  0  0  0  0  0
    3.4523   73.1690   81.1885 C   0  0  0  0  0  0  0  0  0  0  0  0
    4.2905   72.6912   80.0373 N   0  0  0  0  0  0  0  0  0  0  0  0
    5.5416   73.5104   79.9962 C   0  0  0  0  0  0  0  0  0  0  0  0
    4.6562   71.2079   79.9436 C   0  0  0  0  0  0  0  0  0  0  0  0
    4.3217   70.2767   81.1701 C   0  0  0  0  0  0  0  0  0  0  0  0
    3.6763   72.8139   79.2323 H   0  0  0  0  0  0  0  0  0  0  0  0
    1.2875   64.6564   83.8843 O   0  0  0  0  0  0  0  0  0  0  0  0
    0.7873   64.3063   85.1903 C   0  0  0  0  0  0  0  0  0  0  0  0
   -0.2052   63.1827   84.9420 C   0  0  0  0  0  0  0  0  0  0  0  0
 20 21  1  0  0  0
 21 19  1  0  0  0
 19  7  1  0  0  0
  7 17  1  0  0  0
  7  8  2  0  0  0
  8  9  1  0  0  0
  9 10  1  0  0  0
 11  9  1  0  0  0
 11 12  1  0  0  0
 12 13  2  0  0  0
 14 12  1  0  0  0
 15 14  2  0  0  0
 16 17  1  0  0  0
 16 15  1  0  0  0
 16 18  1  0  0  0
 17 11  2  0  0  0
  1 15  1  0  0  0
  1  6  1  0  0  0
  2  1  2  0  0  0
  3  2  1  0  0  0
  3  4  2  0  0  0
  4  5  1  0  0  0
  5  6  2  0  0  0
  6 33  1  0  0  0
 33 34  1  0  0  0
 34 35  1  0  0  0
 22 24  2  0  0  0
 22 25  1  0  0  0
 22  3  1  0  0  0
 23 22  2  0  0  0
 25 26  1  0  0  0
 27 26  1  0  0  0
 28 29  1  0  0  0
 28 27  1  0  0  0
 28 32  1  0  0  0
 30 28  1  0  0  0
 30 31  1  0  0  0
 31 25  1  0  0  0
M  CHG 1  28   1
M  END
> <minimizedAffinity>
-8.37247

$$$$
/home/hjpark/lecture_drug1/0905_agent/pde5_harness/sample_run/structures/work/ligand_ref.pdb


 35 38  0  0  0  0  0  0  0  0999 V2000
    0.7132   65.3620   81.2659 C   0  0  0  0  0  0  0  0  0  0  0  0
    1.1760   65.9623   82.5006 C   0  0  0  0  0  0  0  0  0  0  0  0
    2.0226   67.1532   82.4905 C   0  0  0  0  0  0  0  0  0  0  0  0
    2.3869   67.7293   81.1570 C   0  0  0  0  0  0  0  0  0  0  0  0
    1.9317   67.1395   79.9024 C   0  0  0  0  0  0  0  0  0  0  0  0
    1.0842   65.9318   79.9242 C   0  0  0  0  0  0  0  0  0  0  0  0
   -1.5295   61.1176   79.8541 C   0  0  0  0  0  0  0  0  0  0  0  0
   -2.3639   60.2724   80.5974 N   0  0  0  0  0  0  0  0  0  0  0  0
   -2.5023   60.7793   81.8571 N   0  0  0  0  0  0  0  0  0  0  0  0
   -3.3174   60.1309   82.8881 C   0  0  0  0  0  0  0  0  0  0  0  0
   -1.7636   61.9339   81.9158 C   0  0  0  0  0  0  0  0  0  0  0  0
   -1.5127   62.8989   82.9489 C   0  0  0  0  0  0  0  0  0  0  0  0
   -1.9802   62.8143   84.0613 O   0  0  0  0  0  0  0  0  0  0  0  0
   -0.6936   63.9876   82.6574 N   0  0  0  0  0  0  0  0  0  0  0  0
   -0.0917   64.1990   81.4090 C   0  0  0  0  0  0  0  0  0  0  0  0
   -0.3036   63.2830   80.3719 N   0  0  0  0  0  0  0  0  0  0  0  0
   -1.1404   62.1660   80.6534 C   0  0  0  0  0  0  0  0  0  0  0  0
    0.1080   63.4059   79.4861 H   0  0  0  0  0  0  0  0  0  0  0  0
   -1.1335   60.8946   78.4302 C   0  0  0  0  0  0  0  0  0  0  0  0
   -3.2640   62.0104   77.5891 C   0  0  0  0  0  0  0  0  0  0  0  0
   -2.5139   60.7114   77.7112 C   0  0  0  0  0  0  0  0  0  0  0  0
    2.5603   67.8073   83.8494 S   0  0  0  0  0  0  0  0  0  0  0  0
    2.5340   69.1257   83.9111 O   0  0  0  0  0  0  0  0  0  0  0  0
    1.8131   67.4039   84.8499 O   0  0  0  0  0  0  0  0  0  0  0  0
    4.0310   67.2045   83.8988 N   0  0  0  0  0  0  0  0  0  0  0  0
    4.1209   65.7027   84.3782 C   0  0  0  0  0  0  0  0  0  0  0  0
    4.1277   65.4441   85.8972 C   0  0  0  0  0  0  0  0  0  0  0  0
    4.8794   66.4381   86.7357 N   0  0  0  0  0  0  0  0  0  0  0  0
    6.0550   65.7429   87.3462 C   0  0  0  0  0  0  0  0  0  0  0  0
    5.3441   67.7514   86.1016 C   0  0  0  0  0  0  0  0  0  0  0  0
    5.2054   67.9180   84.5408 C   0  0  0  0  0  0  0  0  0  0  0  0
    4.1799   66.7570   87.4060 H   0  0  0  0  0  0  0  0  0  0  0  0
    0.6031   65.2610   78.7354 O   0  0  0  0  0  0  0  0  0  0  0  0
   -0.6154   65.5868   78.0372 C   0  0  0  0  0  0  0  0  0  0  0  0
   -0.7202   64.5535   76.9279 C   0  0  0  0  0  0  0  0  0  0  0  0
 20 21  1  0  0  0
 21 19  1  0  0  0
 19  7  1  0  0  0
  7 17  1  0  0  0
  7  8  2  0  0  0
  8  9  1  0  0  0
  9 10  1  0  0  0
 11  9  1  0  0  0
 11 12  1  0  0  0
 12 13  2  0  0  0
 14 12  1  0  0  0
 15 14  2  0  0  0
 16 17  1  0  0  0
 16 15  1  0  0  0
 16 18  1  0  0  0
 17 11  2  0  0  0
  1 15  1  0  0  0
  1  6  1  0  0  0
  2  1  2  0  0  0
  3  2  1  0  0  0
  3  4  2  0  0  0
  4  5  1  0  0  0
  5  6  2  0  0  0
  6 33  1  0  0  0
 33 34  1  0  0  0
 34 35  1  0  0  0
 22 24  2  0  0  0
 22 25  1  0  0  0
 22  3  1  0  0  0
 23 22  2  0  0  0
 25 26  1  0  0  0
 27 26  1  0  0  0
 28 29  1  0  0  0
 28 27  1  0  0  0
 28 32  1  0  0  0
 30 28  1  0  0  0
 30 31  1  0  0  0
 31 25  1  0  0  0
M  CHG 1  28   1
M  END
> <minimizedAffinity>
-8.29645

$$$$
/home/hjpark/lecture_drug1/0905_agent/pde5_harness/sample_run/structures/work/ligand_ref.pdb


 35 38  0  0  0  0  0  0  0  0999 V2000
    1.4870   65.4328   83.3413 C   0  0  0  0  0  0  0  0  0  0  0  0
    0.6116   64.2784   83.3555 C   0  0  0  0  0  0  0  0  0  0  0  0
   -0.4506   64.1238   82.3640 C   0  0  0  0  0  0  0  0  0  0  0  0
   -0.5939   65.2005   81.3330 C   0  0  0  0  0  0  0  0  0  0  0  0
    0.2769   66.3710   81.3020 C   0  0  0  0  0  0  0  0  0  0  0  0
    1.3407   66.5211   82.3134 C   0  0  0  0  0  0  0  0  0  0  0  0
    5.8660   66.5835   85.4715 C   0  0  0  0  0  0  0  0  0  0  0  0
    6.3319   66.2672   86.7545 N   0  0  0  0  0  0  0  0  0  0  0  0
    5.3724   65.5540   87.4131 N   0  0  0  0  0  0  0  0  0  0  0  0
    5.5475   65.0656   88.7837 C   0  0  0  0  0  0  0  0  0  0  0  0
    4.3069   65.4184   86.5596 C   0  0  0  0  0  0  0  0  0  0  0  0
    3.0227   64.7858   86.6695 C   0  0  0  0  0  0  0  0  0  0  0  0
    2.6527   64.2083   87.6658 O   0  0  0  0  0  0  0  0  0  0  0  0
    2.1608   64.8358   85.5760 N   0  0  0  0  0  0  0  0  0  0  0  0
    2.4708   65.4738   84.3667 C   0  0  0  0  0  0  0  0  0  0  0  0
    3.7092   66.1081   84.2138 N   0  0  0  0  0  0  0  0  0  0  0  0
    4.6023   66.0638   85.3217 C   0  0  0  0  0  0  0  0  0  0  0  0
    3.9521   66.5651   83.3764 H   0  0  0  0  0  0  0  0  0  0  0  0
    6.6294   67.3648   84.4513 C   0  0  0  0  0  0  0  0  0  0  0  0
    8.1572   65.3332   84.2778 C   0  0  0  0  0  0  0  0  0  0  0  0
    8.0841   66.8013   84.6006 C   0  0  0  0  0  0  0  0  0  0  0  0
   -1.4393   62.8647   82.3886 S   0  0  0  0  0  0  0  0  0  0  0  0
   -0.9143   61.7199   82.7843 O   0  0  0  0  0  0  0  0  0  0  0  0
   -2.4191   63.0994   83.2294 O   0  0  0  0  0  0  0  0  0  0  0  0
   -1.9213   62.8453   80.8733 N   0  0  0  0  0  0  0  0  0  0  0  0
   -3.2419   62.0227   80.6036 C   0  0  0  0  0  0  0  0  0  0  0  0
   -3.1012   60.4993   80.4194 C   0  0  0  0  0  0  0  0  0  0  0  0
   -1.8828   60.0311   79.6762 N   0  0  0  0  0  0  0  0  0  0  0  0
   -2.3274   59.4138   78.3880 C   0  0  0  0  0  0  0  0  0  0  0  0
   -0.7511   61.0226   79.3956 C   0  0  0  0  0  0  0  0  0  0  0  0
   -0.9990   62.5474   79.7068 C   0  0  0  0  0  0  0  0  0  0  0  0
   -1.4445   59.3814   80.3290 H   0  0  0  0  0  0  0  0  0  0  0  0
    2.2379   67.6549   82.3800 O   0  0  0  0  0  0  0  0  0  0  0  0
    1.8473   69.0003   82.7200 C   0  0  0  0  0  0  0  0  0  0  0  0
    3.1262   69.6732   83.1898 C   0  0  0  0  0  0  0  0  0  0  0  0
 20 21  1  0  0  0
 21 19  1  0  0  0
 19  7  1  0  0  0
  7 17  1  0  0  0
  7  8  2  0  0  0
  8  9  1  0  0  0
  9 10  1  0  0  0
 11  9  1  0  0  0
 11 12  1  0  0  0
 12 13  2  0  0  0
 14 12  1  0  0  0
 15 14  2  0  0  0
 16 17  1  0  0  0
 16 15  1  0  0  0
 16 18  1  0  0  0
 17 11  2  0  0  0
  1 15  1  0  0  0
  1  6  1  0  0  0
  2  1  2  0  0  0
  3  2  1  0  0  0
  3  4  2  0  0  0
  4  5  1  0  0  0
  5  6  2  0  0  0
  6 33  1  0  0  0
 33 34  1  0  0  0
 34 35  1  0  0  0
 22 24  2  0  0  0
 22 25  1  0  0  0
 22  3  1  0  0  0
 23 22  2  0  0  0
 25 26  1  0  0  0
 27 26  1  0  0  0
 28 29  1  0  0  0
 28 27  1  0  0  0
 28 32  1  0  0  0
 30 28  1  0  0  0
 30 31  1  0  0  0
 31 25  1  0  0  0
M  CHG 1  28   1
M  END
> <minimizedAffinity>
-8.19709

$$$$
/home/hjpark/lecture_drug1/0905_agent/pde5_harness/sample_run/structures/work/ligand_ref.pdb


 35 38  0  0  0  0  0  0  0  0999 V2000
    0.9545   66.8748   81.2364 C   0  0  0  0  0  0  0  0  0  0  0  0
    0.6085   66.2190   79.9917 C   0  0  0  0  0  0  0  0  0  0  0  0
    0.2636   64.7994   79.9565 C   0  0  0  0  0  0  0  0  0  0  0  0
    0.2769   64.0539   81.2553 C   0  0  0  0  0  0  0  0  0  0  0  0
    0.6231   64.6958   82.5191 C   0  0  0  0  0  0  0  0  0  0  0  0
    0.9782   66.1278   82.5417 C   0  0  0  0  0  0  0  0  0  0  0  0
    0.1081   71.7978   80.9422 C   0  0  0  0  0  0  0  0  0  0  0  0
    1.0316   72.8454   80.8290 N   0  0  0  0  0  0  0  0  0  0  0  0
    2.2937   72.3261   80.8116 N   0  0  0  0  0  0  0  0  0  0  0  0
    3.4934   73.1603   80.6997 C   0  0  0  0  0  0  0  0  0  0  0  0
    2.1756   70.9631   80.9136 C   0  0  0  0  0  0  0  0  0  0  0  0
    3.1240   69.8858   80.9515 C   0  0  0  0  0  0  0  0  0  0  0  0
    4.3202   70.0549   80.8923 O   0  0  0  0  0  0  0  0  0  0  0  0
    2.6454   68.5817   81.0587 N   0  0  0  0  0  0  0  0  0  0  0  0
    1.2845   68.2540   81.1361 C   0  0  0  0  0  0  0  0  0  0  0  0
    0.3227   69.2706   81.1073 N   0  0  0  0  0  0  0  0  0  0  0  0
    0.7959   70.6088   80.9957 C   0  0  0  0  0  0  0  0  0  0  0  0
   -0.6394   69.0690   81.1619 H   0  0  0  0  0  0  0  0  0  0  0  0
   -1.3758   71.9664   81.0011 C   0  0  0  0  0  0  0  0  0  0  0  0
   -2.9339   72.5411   79.0689 C   0  0  0  0  0  0  0  0  0  0  0  0
   -1.6654   72.9146   79.7875 C   0  0  0  0  0  0  0  0  0  0  0  0
   -0.0940   64.0607   78.5818 S   0  0  0  0  0  0  0  0  0  0  0  0
   -0.8139   64.7533   77.7188 O   0  0  0  0  0  0  0  0  0  0  0  0
    1.0158   63.7699   77.9446 O   0  0  0  0  0  0  0  0  0  0  0  0
   -0.8424   62.7702   79.1326 N   0  0  0  0  0  0  0  0  0  0  0  0
   -0.2956   61.3953   78.5812 C   0  0  0  0  0  0  0  0  0  0  0  0
   -0.8171   60.9255   77.2095 C   0  0  0  0  0  0  0  0  0  0  0  0
   -2.2617   61.2132   76.9154 N   0  0  0  0  0  0  0  0  0  0  0  0
   -2.9908   59.9100   76.8259 C   0  0  0  0  0  0  0  0  0  0  0  0
   -3.0368   62.1624   77.8323 C   0  0  0  0  0  0  0  0  0  0  0  0
   -2.3523   62.6328   79.1716 C   0  0  0  0  0  0  0  0  0  0  0  0
   -2.2236   61.7390   76.0421 H   0  0  0  0  0  0  0  0  0  0  0  0
    1.3580   66.8471   83.7388 O   0  0  0  0  0  0  0  0  0  0  0  0
    2.6784   66.8521   84.3174 C   0  0  0  0  0  0  0  0  0  0  0  0
    2.9841   68.3165   84.5846 C   0  0  0  0  0  0  0  0  0  0  0  0
 20 21  1  0  0  0
 21 19  1  0  0  0
 19  7  1  0  0  0
  7 17  1  0  0  0
  7  8  2  0  0  0
  8  9  1  0  0  0
  9 10  1  0  0  0
 11  9  1  0  0  0
 11 12  1  0  0  0
 12 13  2  0  0  0
 14 12  1  0  0  0
 15 14  2  0  0  0
 16 17  1  0  0  0
 16 15  1  0  0  0
 16 18  1  0  0  0
 17 11  2  0  0  0
  1 15  1  0  0  0
  1  6  1  0  0  0
  2  1  2  0  0  0
  3  2  1  0  0  0
  3  4  2  0  0  0
  4  5  1  0  0  0
  5  6  2  0  0  0
  6 33  1  0  0  0
 33 34  1  0  0  0
 34 35  1  0  0  0
 22 24  2  0  0  0
 22 25  1  0  0  0
 22  3  1  0  0  0
 23 22  2  0  0  0
 25 26  1  0  0  0
 27 26  1  0  0  0
 28 29  1  0  0  0
 28 27  1  0  0  0
 28 32  1  0  0  0
 30 28  1  0  0  0
 30 31  1  0  0  0
 31 25  1  0  0  0
M  CHG 1  28   1
M  END
> <minimizedAffinity>
-8.19108

$$$$
/home/hjpark/lecture_drug1/0905_agent/pde5_harness/sample_run/structures/work/ligand_ref.pdb


 35 38  0  0  0  0  0  0  0  0999 V2000
    2.1653   67.0275   83.6756 C   0  0  0  0  0  0  0  0  0  0  0  0
    1.5514   68.1523   82.9997 C   0  0  0  0  0  0  0  0  0  0  0  0
    2.3263   69.3434   82.6591 C   0  0  0  0  0  0  0  0  0  0  0  0
    3.7770   69.3522   83.0309 C   0  0  0  0  0  0  0  0  0  0  0  0
    4.4139   68.2301   83.7122 C   0  0  0  0  0  0  0  0  0  0  0  0
    3.6197   67.0358   84.0591 C   0  0  0  0  0  0  0  0  0  0  0  0
   -0.1671   63.6350   86.5197 C   0  0  0  0  0  0  0  0  0  0  0  0
   -1.0597   62.6261   86.1345 N   0  0  0  0  0  0  0  0  0  0  0  0
   -1.2387   62.6826   84.7825 N   0  0  0  0  0  0  0  0  0  0  0  0
   -2.1159   61.7582   84.0589 C   0  0  0  0  0  0  0  0  0  0  0  0
   -0.4695   63.7166   84.3120 C   0  0  0  0  0  0  0  0  0  0  0  0
   -0.2391   64.2664   83.0057 C   0  0  0  0  0  0  0  0  0  0  0  0
   -0.7643   63.8362   82.0047 O   0  0  0  0  0  0  0  0  0  0  0  0
    0.6332   65.3458   82.8828 N   0  0  0  0  0  0  0  0  0  0  0  0
    1.3024   65.9353   83.9645 C   0  0  0  0  0  0  0  0  0  0  0  0
    1.1064   65.4365   85.2576 N   0  0  0  0  0  0  0  0  0  0  0  0
    0.2194   64.3318   85.3996 C   0  0  0  0  0  0  0  0  0  0  0  0
    1.5620   65.8324   86.0353 H   0  0  0  0  0  0  0  0  0  0  0  0
    0.2738   63.8987   87.9232 C   0  0  0  0  0  0  0  0  0  0  0  0
    0.2114   61.8897   89.4889 C   0  0  0  0  0  0  0  0  0  0  0  0
   -0.6145   62.9127   88.7567 C   0  0  0  0  0  0  0  0  0  0  0  0
    1.6496   70.6016   81.9361 S   0  0  0  0  0  0  0  0  0  0  0  0
    0.5041   71.0178   82.4434 O   0  0  0  0  0  0  0  0  0  0  0  0
    2.4551   71.6343   82.0197 O   0  0  0  0  0  0  0  0  0  0  0  0
    1.5154   70.0455   80.4524 N   0  0  0  0  0  0  0  0  0  0  0  0
    0.0499   69.6494   80.0181 C   0  0  0  0  0  0  0  0  0  0  0  0
   -0.4553   68.2518   80.4253 C   0  0  0  0  0  0  0  0  0  0  0  0
    0.5561   67.1422   80.3805 N   0  0  0  0  0  0  0  0  0  0  0  0
    0.1492   66.1795   79.3101 C   0  0  0  0  0  0  0  0  0  0  0  0
    2.0376   67.4872   80.2113 C   0  0  0  0  0  0  0  0  0  0  0  0
    2.4243   68.9774   79.8750 C   0  0  0  0  0  0  0  0  0  0  0  0
    0.5293   66.7612   81.3263 H   0  0  0  0  0  0  0  0  0  0  0  0
    4.1541   65.8843   84.7544 O   0  0  0  0  0  0  0  0  0  0  0  0
    5.0924   65.9396   85.8474 C   0  0  0  0  0  0  0  0  0  0  0  0
    6.4355   65.5880   85.2296 C   0  0  0  0  0  0  0  0  0  0  0  0
 20 21  1  0  0  0
 21 19  1  0  0  0
 19  7  1  0  0  0
  7 17  1  0  0  0
  7  8  2  0  0  0
  8  9  1  0  0  0
  9 10  1  0  0  0
 11  9  1  0  0  0
 11 12  1  0  0  0
 12 13  2  0  0  0
 14 12  1  0  0  0
 15 14  2  0  0  0
 16 17  1  0  0  0
 16 15  1  0  0  0
 16 18  1  0  0  0
 17 11  2  0  0  0
  1 15  1  0  0  0
  1  6  1  0  0  0
  2  1  2  0  0  0
  3  2  1  0  0  0
  3  4  2  0  0  0
  4  5  1  0  0  0
  5  6  2  0  0  0
  6 33  1  0  0  0
 33 34  1  0  0  0
 34 35  1  0  0  0
 22 24  2  0  0  0
 22 25  1  0  0  0
 22  3  1  0  0  0
 23 22  2  0  0  0
 25 26  1  0  0  0
 27 26  1  0  0  0
 28 29  1  0  0  0
 28 27  1  0  0  0
 28 32  1  0  0  0
 30 28  1  0  0  0
 30 31  1  0  0  0
 31 25  1  0  0  0
M  CHG 1  28   1
M  END
> <minimizedAffinity>
-8.17602

$$$$
/home/hjpark/lecture_drug1/0905_agent/pde5_harness/sample_run/structures/work/ligand_ref.pdb


 35 38  0  0  0  0  0  0  0  0999 V2000
    2.2832   66.4481   84.2633 C   0  0  0  0  0  0  0  0  0  0  0  0
    1.6889   67.5000   83.4637 C   0  0  0  0  0  0  0  0  0  0  0  0
    2.4848   68.6305   82.9908 C   0  0  0  0  0  0  0  0  0  0  0  0
    3.9360   68.6549   83.3602 C   0  0  0  0  0  0  0  0  0  0  0  0
    4.5533   67.6059   84.1649 C   0  0  0  0  0  0  0  0  0  0  0  0
    3.7380   66.4733   84.6444 C   0  0  0  0  0  0  0  0  0  0  0  0
   -0.9603   62.6789   83.7058 C   0  0  0  0  0  0  0  0  0  0  0  0
   -1.6119   61.9241   84.6901 N   0  0  0  0  0  0  0  0  0  0  0  0
   -1.2243   62.3689   85.9210 N   0  0  0  0  0  0  0  0  0  0  0  0
   -1.7272   61.7881   87.1690 C   0  0  0  0  0  0  0  0  0  0  0  0
   -0.3351   63.3947   85.7229 C   0  0  0  0  0  0  0  0  0  0  0  0
    0.4082   64.2472   86.6073 C   0  0  0  0  0  0  0  0  0  0  0  0
    0.3455   64.1661   87.8125 O   0  0  0  0  0  0  0  0  0  0  0  0
    1.2404   65.2173   86.0526 N   0  0  0  0  0  0  0  0  0  0  0  0
    1.4010   65.4116   84.6735 C   0  0  0  0  0  0  0  0  0  0  0  0
    0.7002   64.6020   83.7719 N   0  0  0  0  0  0  0  0  0  0  0  0
   -0.1563   63.6072   84.3233 C   0  0  0  0  0  0  0  0  0  0  0  0
    0.7955   64.7154   82.7987 H   0  0  0  0  0  0  0  0  0  0  0  0
   -1.1206   62.4859   82.2323 C   0  0  0  0  0  0  0  0  0  0  0  0
    1.0950   61.2606   81.9477 C   0  0  0  0  0  0  0  0  0  0  0  0
   -0.4025   61.1156   81.9821 C   0  0  0  0  0  0  0  0  0  0  0  0
    1.8302   69.8107   82.1293 S   0  0  0  0  0  0  0  0  0  0  0  0
    0.6092   70.1752   82.4746 O   0  0  0  0  0  0  0  0  0  0  0  0
    2.5586   70.8949   82.2558 O   0  0  0  0  0  0  0  0  0  0  0  0
    1.9105   69.1832   80.6704 N   0  0  0  0  0  0  0  0  0  0  0  0
    0.5579   69.2122   79.8561 C   0  0  0  0  0  0  0  0  0  0  0  0
   -0.4527   68.0799   80.1224 C   0  0  0  0  0  0  0  0  0  0  0  0
    0.1284   66.7162   80.3653 N   0  0  0  0  0  0  0  0  0  0  0  0
   -0.2755   65.8257   79.2331 C   0  0  0  0  0  0  0  0  0  0  0  0
    1.6338   66.5766   80.6039 C   0  0  0  0  0  0  0  0  0  0  0  0
    2.5475   67.8394   80.3726 C   0  0  0  0  0  0  0  0  0  0  0  0
   -0.2596   66.4533   81.2712 H   0  0  0  0  0  0  0  0  0  0  0  0
    4.2523   65.3986   85.4662 O   0  0  0  0  0  0  0  0  0  0  0  0
    5.6150   65.2855   85.9230 C   0  0  0  0  0  0  0  0  0  0  0  0
    5.5232   65.3059   87.4397 C   0  0  0  0  0  0  0  0  0  0  0  0
 20 21  1  0  0  0
 21 19  1  0  0  0
 19  7  1  0  0  0
  7 17  1  0  0  0
  7  8  2  0  0  0
  8  9  1  0  0  0
  9 10  1  0  0  0
 11  9  1  0  0  0
 11 12  1  0  0  0
 12 13  2  0  0  0
 14 12  1  0  0  0
 15 14  2  0  0  0
 16 17  1  0  0  0
 16 15  1  0  0  0
 16 18  1  0  0  0
 17 11  2  0  0  0
  1 15  1  0  0  0
  1  6  1  0  0  0
  2  1  2  0  0  0
  3  2  1  0  0  0
  3  4  2  0  0  0
  4  5  1  0  0  0
  5  6  2  0  0  0
  6 33  1  0  0  0
 33 34  1  0  0  0
 34 35  1  0  0  0
 22 24  2  0  0  0
 22 25  1  0  0  0
 22  3  1  0  0  0
 23 22  2  0  0  0
 25 26  1  0  0  0
 27 26  1  0  0  0
 28 29  1  0  0  0
 28 27  1  0  0  0
 28 32  1  0  0  0
 30 28  1  0  0  0
 30 31  1  0  0  0
 31 25  1  0  0  0
M  CHG 1  28   1
M  END
> <minimizedAffinity>
-8.14857

$$$$
/home/hjpark/lecture_drug1/0905_agent/pde5_harness/sample_run/structures/work/ligand_ref.pdb


 35 38  0  0  0  0  0  0  0  0999 V2000
    2.0461   67.0782   82.9249 C   0  0  0  0  0  0  0  0  0  0  0  0
    1.6541   68.1994   82.0954 C   0  0  0  0  0  0  0  0  0  0  0  0
    2.4183   69.4449   82.0987 C   0  0  0  0  0  0  0  0  0  0  0  0
    3.6220   69.5133   82.9870 C   0  0  0  0  0  0  0  0  0  0  0  0
    4.0331   68.3957   83.8302 C   0  0  0  0  0  0  0  0  0  0  0  0
    3.2490   67.1457   83.8255 C   0  0  0  0  0  0  0  0  0  0  0  0
   -0.5795   63.4491   80.6946 C   0  0  0  0  0  0  0  0  0  0  0  0
   -1.3415   62.4276   81.2769 N   0  0  0  0  0  0  0  0  0  0  0  0
   -1.2759   62.5427   82.6354 N   0  0  0  0  0  0  0  0  0  0  0  0
   -1.9686   61.6246   83.5437 C   0  0  0  0  0  0  0  0  0  0  0  0
   -0.4803   63.6247   82.9153 C   0  0  0  0  0  0  0  0  0  0  0  0
   -0.0390   64.2421   84.1342 C   0  0  0  0  0  0  0  0  0  0  0  0
   -0.3488   63.8369   85.2310 O   0  0  0  0  0  0  0  0  0  0  0  0
    0.7834   65.3637   84.0519 N   0  0  0  0  0  0  0  0  0  0  0  0
    1.2131   65.9291   82.8431 C   0  0  0  0  0  0  0  0  0  0  0  0
    0.8123   65.3597   81.6289 N   0  0  0  0  0  0  0  0  0  0  0  0
   -0.0305   64.2140   81.6961 C   0  0  0  0  0  0  0  0  0  0  0  0
    1.1006   65.7351   80.7657 H   0  0  0  0  0  0  0  0  0  0  0  0
   -0.3996   63.6522   79.2248 C   0  0  0  0  0  0  0  0  0  0  0  0
   -0.0050   61.6933   77.6442 C   0  0  0  0  0  0  0  0  0  0  0  0
    0.5340   62.4598   78.8219 C   0  0  0  0  0  0  0  0  0  0  0  0
    1.9767   70.6981   81.2053 S   0  0  0  0  0  0  0  0  0  0  0  0
    2.9422   71.3136   80.5482 O   0  0  0  0  0  0  0  0  0  0  0  0
    1.1367   70.2966   80.2806 O   0  0  0  0  0  0  0  0  0  0  0  0
    1.2855   71.6111   82.3087 N   0  0  0  0  0  0  0  0  0  0  0  0
   -0.1630   72.1210   81.9411 C   0  0  0  0  0  0  0  0  0  0  0  0
   -0.2672   73.3771   81.0548 C   0  0  0  0  0  0  0  0  0  0  0  0
    0.7540   74.4503   81.3030 N   0  0  0  0  0  0  0  0  0  0  0  0
    0.0472   75.6560   81.8367 C   0  0  0  0  0  0  0  0  0  0  0  0
    1.9629   74.1414   82.1894 C   0  0  0  0  0  0  0  0  0  0  0  0
    1.9803   72.7793   82.9816 C   0  0  0  0  0  0  0  0  0  0  0  0
    1.1846   74.5814   80.3877 H   0  0  0  0  0  0  0  0  0  0  0  0
    3.5620   65.9927   84.6424 O   0  0  0  0  0  0  0  0  0  0  0  0
    4.8872   65.6117   85.0631 C   0  0  0  0  0  0  0  0  0  0  0  0
    4.7322   65.1920   86.5154 C   0  0  0  0  0  0  0  0  0  0  0  0
 20 21  1  0  0  0
 21 19  1  0  0  0
 19  7  1  0  0  0
  7 17  1  0  0  0
  7  8  2  0  0  0
  8  9  1  0  0  0
  9 10  1  0  0  0
 11  9  1  0  0  0
 11 12  1  0  0  0
 12 13  2  0  0  0
 14 12  1  0  0  0
 15 14  2  0  0  0
 16 17  1  0  0  0
 16 15  1  0  0  0
 16 18  1  0  0  0
 17 11  2  0  0  0
  1 15  1  0  0  0
  1  6  1  0  0  0
  2  1  2  0  0  0
  3  2  1  0  0  0
  3  4  2  0  0  0
  4  5  1  0  0  0
  5  6  2  0  0  0
  6 33  1  0  0  0
 33 34  1  0  0  0
 34 35  1  0  0  0
 22 24  2  0  0  0
 22 25  1  0  0  0
 22  3  1  0  0  0
 23 22  2  0  0  0
 25 26  1  0  0  0
 27 26  1  0  0  0
 28 29  1  0  0  0
 28 27  1  0  0  0
 28 32  1  0  0  0
 30 28  1  0  0  0
 30 31  1  0  0  0
 31 25  1  0  0  0
M  CHG 1  28   1
M  END
> <minimizedAffinity>
-8.08414

$$$$
