/home/hjpark/lecture_drug1/0905_agent/pde5_harness/sample_run/structures/work/ligand_ref.pdb


 35 38  0  0  0  0  0  0  0  0999 V2000
    0.4131   64.1333   83.8734 C   0  0  0  0  0  0  0  0  0  0  0  0
    0.1415   63.3941   82.6573 C   0  0  0  0  0  0  0  0  0  0  0  0
   -0.6974   62.1977   82.6721 C   0  0  0  0  0  0  0  0  0  0  0  0
   -1.2674   61.7712   83.9897 C   0  0  0  0  0  0  0  0  0  0  0  0
   -1.0054   62.5014   85.2255 C   0  0  0  0  0  0  0  0  0  0  0  0
   -0.1497   63.7032   85.2003 C   0  0  0  0  0  0  0  0  0  0  0  0
    4.3094   67.1232   84.8314 C   0  0  0  0  0  0  0  0  0  0  0  0
    4.6438   68.3504   84.2438 N   0  0  0  0  0  0  0  0  0  0  0  0
    3.7097   68.6601   83.2980 N   0  0  0  0  0  0  0  0  0  0  0  0
    3.7676   69.8862   82.4973 C   0  0  0  0  0  0  0  0  0  0  0  0
    2.7912   67.6411   83.2826 C   0  0  0  0  0  0  0  0  0  0  0  0
    1.6007   67.3908   82.5199 C   0  0  0  0  0  0  0  0  0  0  0  0
    1.1889   68.1457   81.6693 O   0  0  0  0  0  0  0  0  0  0  0  0
    0.8822   66.2241   82.7722 N   0  0  0  0  0  0  0  0  0  0  0  0
    1.2546   65.2701   83.7296 C   0  0  0  0  0  0  0  0  0  0  0  0
    2.4099   65.4683   84.4947 N   0  0  0  0  0  0  0  0  0  0  0  0
    3.1540   66.6574   84.2503 C   0  0  0  0  0  0  0  0  0  0  0  0
    2.6955   64.8140   85.1725 H   0  0  0  0  0  0  0  0  0  0  0  0
    5.0962   66.4453   85.9063 C   0  0  0  0  0  0  0  0  0  0  0  0
    7.4078   65.9162   84.9745 C   0  0  0  0  0  0  0  0  0  0  0  0
    5.9865   65.4378   85.1011 C   0  0  0  0  0  0  0  0  0  0  0  0
   -0.9808   61.3598   81.3376 S   0  0  0  0  0  0  0  0  0  0  0  0
    0.0805   60.8891   80.7093 O   0  0  0  0  0  0  0  0  0  0  0  0
   -1.6987   60.3021   81.6342 O   0  0  0  0  0  0  0  0  0  0  0  0
   -1.7902   62.4331   80.4881 N   0  0  0  0  0  0  0  0  0  0  0  0
   -3.2770   62.0281   80.1436 C   0  0  0  0  0  0  0  0  0  0  0  0
   -3.4969   61.1180   78.9197 C   0  0  0  0  0  0  0  0  0  0  0  0
   -2.6030   61.3677   77.7387 N   0  0  0  0  0  0  0  0  0  0  0  0
   -3.4471   61.8661   76.6086 C   0  0  0  0  0  0  0  0  0  0  0  0
   -1.3873   62.2832   77.9014 C   0  0  0  0  0  0  0  0  0  0  0  0
   -1.2401   63.0992   79.2415 C   0  0  0  0  0  0  0  0  0  0  0  0
   -2.1694   60.4590   77.5757 H   0  0  0  0  0  0  0  0  0  0  0  0
    0.1872   64.4798   86.3743 O   0  0  0  0  0  0  0  0  0  0  0  0
   -0.2277   64.1685   87.7195 C   0  0  0  0  0  0  0  0  0  0  0  0
    0.9025   63.3314   88.2948 C   0  0  0  0  0  0  0  0  0  0  0  0
 20 21  1  0  0  0
 21 19  1  0  0  0
 19  7  1  0  0  0
  7 17  1  0  0  0
  7  8  2  0  0  0
  8  9  1  0  0  0
  9 10  1  0  0  0
 11  9  1  0  0  0
 11 12  1  0  0  0
 12 13  2  0  0  0
 14 12  1  0  0  0
 15 14  2  0  0  0
 16 17  1  0  0  0
 16 15  1  0  0  0
 16 18  1  0  0  0
 17 11  2  0  0  0
  1 15  1  0  0  0
  1  6  1  0  0  0
  2  1  2  0  0  0
  3  2  1  0  0  0
  3  4  2  0  0  0
  4  5  1  0  0  0
  5  6  2  0  0  0
  6 33  1  0  0  0
 33 34  1  0  0  0
 34 35  1  0  0  0
 22 24  2  0  0  0
 22 25  1  0  0  0
 22  3  1  0  0  0
 23 22  2  0  0  0
 25 26  1  0  0  0
 27 26  1  0  0  0
 28 29  1  0  0  0
 28 27  1  0  0  0
 28 32  1  0  0  0
 30 28  1  0  0  0
 30 31  1  0  0  0
 31 25  1  0  0  0
M  CHG 1  28   1
M  END
> <minimizedAffinity>
-9.62865

$$$$
/home/hjpark/lecture_drug1/0905_agent/pde5_harness/sample_run/structures/work/ligand_ref.pdb


 35 38  0  0  0  0  0  0  0  0999 V2000
    2.1412   67.1677   83.3205 C   0  0  0  0  0  0  0  0  0  0  0  0
    1.5921   68.1452   82.4030 C   0  0  0  0  0  0  0  0  0  0  0  0
    2.3415   69.3466   82.0419 C   0  0  0  0  0  0  0  0  0  0  0  0
    3.6976   69.5231   82.6523 C   0  0  0  0  0  0  0  0  0  0  0  0
    4.2681   68.5508   83.5788 C   0  0  0  0  0  0  0  0  0  0  0  0
    3.4988   67.3455   83.9431 C   0  0  0  0  0  0  0  0  0  0  0  0
   -0.1587   63.7434   86.1531 C   0  0  0  0  0  0  0  0  0  0  0  0
   -1.0024   62.6966   85.7591 N   0  0  0  0  0  0  0  0  0  0  0  0
   -1.1404   62.7232   84.4014 N   0  0  0  0  0  0  0  0  0  0  0  0
   -1.9611   61.7554   83.6682 C   0  0  0  0  0  0  0  0  0  0  0  0
   -0.3938   63.7758   83.9359 C   0  0  0  0  0  0  0  0  0  0  0  0
   -0.1418   64.3108   82.6276 C   0  0  0  0  0  0  0  0  0  0  0  0
   -0.6195   63.8447   81.6188 O   0  0  0  0  0  0  0  0  0  0  0  0
    0.6953   65.4185   82.5118 N   0  0  0  0  0  0  0  0  0  0  0  0
    1.3087   66.0503   83.6026 C   0  0  0  0  0  0  0  0  0  0  0  0
    1.0896   65.5674   84.8980 N   0  0  0  0  0  0  0  0  0  0  0  0
    0.2382   64.4342   85.0329 C   0  0  0  0  0  0  0  0  0  0  0  0
    1.5062   65.9927   85.6820 H   0  0  0  0  0  0  0  0  0  0  0  0
    0.2281   64.0471   87.5645 C   0  0  0  0  0  0  0  0  0  0  0  0
    0.2743   62.1400   89.2534 C   0  0  0  0  0  0  0  0  0  0  0  0
   -0.6023   63.0008   88.3842 C   0  0  0  0  0  0  0  0  0  0  0  0
    1.7313   70.4449   81.0496 S   0  0  0  0  0  0  0  0  0  0  0  0
    2.5925   71.0571   80.2582 O   0  0  0  0  0  0  0  0  0  0  0  0
    0.8738   69.8690   80.2402 O   0  0  0  0  0  0  0  0  0  0  0  0
    1.0318   71.4206   82.0925 N   0  0  0  0  0  0  0  0  0  0  0  0
   -0.4145   71.9064   81.6856 C   0  0  0  0  0  0  0  0  0  0  0  0
   -0.5133   73.1080   80.7261 C   0  0  0  0  0  0  0  0  0  0  0  0
    0.5054   74.1950   80.9177 N   0  0  0  0  0  0  0  0  0  0  0  0
   -0.2059   75.4293   81.3745 C   0  0  0  0  0  0  0  0  0  0  0  0
    1.7083   73.9402   81.8291 C   0  0  0  0  0  0  0  0  0  0  0  0
    1.7212   72.6271   82.7002 C   0  0  0  0  0  0  0  0  0  0  0  0
    0.9423   74.2724   79.9992 H   0  0  0  0  0  0  0  0  0  0  0  0
    3.9679   66.3372   84.8695 O   0  0  0  0  0  0  0  0  0  0  0  0
    5.3397   65.9169   85.0102 C   0  0  0  0  0  0  0  0  0  0  0  0
    5.3834   65.1539   86.3237 C   0  0  0  0  0  0  0  0  0  0  0  0
 20 21  1  0  0  0
 21 19  1  0  0  0
 19  7  1  0  0  0
  7 17  1  0  0  0
  7  8  2  0  0  0
  8  9  1  0  0  0
  9 10  1  0  0  0
 11  9  1  0  0  0
 11 12  1  0  0  0
 12 13  2  0  0  0
 14 12  1  0  0  0
 15 14  2  0  0  0
 16 17  1  0  0  0
 16 15  1  0  0  0
 16 18  1  0  0  0
 17 11  2  0  0  0
  1 15  1  0  0  0
  1  6  1  0  0  0
  2  1  2  0  0  0
  3  2  1  0  0  0
  3  4  2  0  0  0
  4  5  1  0  0  0
  5  6  2  0  0  0
  6 33  1  0  0  0
 33 34  1  0  0  0
 34 35  1  0  0  0
 22 24  2  0  0  0
 22 25  1  0  0  0
 22  3  1  0  0  0
 23 22  2  0  0  0
 25 26  1  0  0  0
 27 26  1  0  0  0
 28 29  1  0  0  0
 28 27  1  0  0  0
 28 32  1  0  0  0
 30 28  1  0  0  0
 30 31  1  0  0  0
 31 25  1  0  0  0
M  CHG 1  28   1
M  END
> <minimizedAffinity>
-9.49105

$$$$
/home/hjpark/lecture_drug1/0905_agent/pde5_harness/sample_run/structures/work/ligand_ref.pdb


 35 38  0  0  0  0  0  0  0  0999 V2000
    0.1870   64.3418   84.0521 C   0  0  0  0  0  0  0  0  0  0  0  0
   -0.4459   63.8177   82.8589 C   0  0  0  0  0  0  0  0  0  0  0  0
   -1.3941   62.7083   82.9321 C   0  0  0  0  0  0  0  0  0  0  0  0
   -1.6883   62.1406   84.2864 C   0  0  0  0  0  0  0  0  0  0  0  0
   -1.0612   62.6537   85.4998 C   0  0  0  0  0  0  0  0  0  0  0  0
   -0.0985   63.7686   85.4131 C   0  0  0  0  0  0  0  0  0  0  0  0
    4.3456   67.0368   84.7461 C   0  0  0  0  0  0  0  0  0  0  0  0
    4.7346   68.2320   84.1271 N   0  0  0  0  0  0  0  0  0  0  0  0
    3.7711   68.6054   83.2353 N   0  0  0  0  0  0  0  0  0  0  0  0
    3.8720   69.8190   82.4201 C   0  0  0  0  0  0  0  0  0  0  0  0
    2.7800   67.6581   83.2850 C   0  0  0  0  0  0  0  0  0  0  0  0
    1.5305   67.4933   82.5971 C   0  0  0  0  0  0  0  0  0  0  0  0
    1.1257   68.2720   81.7647 O   0  0  0  0  0  0  0  0  0  0  0  0
    0.7436   66.3852   82.9035 N   0  0  0  0  0  0  0  0  0  0  0  0
    1.1007   65.4115   83.8469 C   0  0  0  0  0  0  0  0  0  0  0  0
    2.3113   65.5270   84.5399 N   0  0  0  0  0  0  0  0  0  0  0  0
    3.1259   66.6555   84.2395 C   0  0  0  0  0  0  0  0  0  0  0  0
    2.5876   64.8570   85.2061 H   0  0  0  0  0  0  0  0  0  0  0  0
    5.1429   66.3080   85.7792 C   0  0  0  0  0  0  0  0  0  0  0  0
    7.5133   66.0075   84.8947 C   0  0  0  0  0  0  0  0  0  0  0  0
    6.5715   66.9319   85.6182 C   0  0  0  0  0  0  0  0  0  0  0  0
   -2.0777   62.1056   81.6157 S   0  0  0  0  0  0  0  0  0  0  0  0
   -2.5183   60.8643   81.7048 O   0  0  0  0  0  0  0  0  0  0  0  0
   -3.1340   62.8214   81.3094 O   0  0  0  0  0  0  0  0  0  0  0  0
   -0.8932   62.2791   80.5689 N   0  0  0  0  0  0  0  0  0  0  0  0
   -1.1850   63.2915   79.3928 C   0  0  0  0  0  0  0  0  0  0  0  0
   -1.9746   62.7598   78.1812 C   0  0  0  0  0  0  0  0  0  0  0  0
   -1.6755   61.3487   77.7623 N   0  0  0  0  0  0  0  0  0  0  0  0
   -1.0373   61.3861   76.4098 C   0  0  0  0  0  0  0  0  0  0  0  0
   -0.8456   60.4544   78.6865 C   0  0  0  0  0  0  0  0  0  0  0  0
   -0.1554   61.1122   79.9411 C   0  0  0  0  0  0  0  0  0  0  0  0
   -2.5897   60.8971   77.7878 H   0  0  0  0  0  0  0  0  0  0  0  0
    0.5921   64.3302   86.5544 O   0  0  0  0  0  0  0  0  0  0  0  0
    1.1097   63.5702   87.6647 C   0  0  0  0  0  0  0  0  0  0  0  0
   -0.0391   63.4925   88.6565 C   0  0  0  0  0  0  0  0  0  0  0  0
 20 21  1  0  0  0
 21 19  1  0  0  0
 19  7  1  0  0  0
  7 17  1  0  0  0
  7  8  2  0  0  0
  8  9  1  0  0  0
  9 10  1  0  0  0
 11  9  1  0  0  0
 11 12  1  0  0  0
 12 13  2  0  0  0
 14 12  1  0  0  0
 15 14  2  0  0  0
 16 17  1  0  0  0
 16 15  1  0  0  0
 16 18  1  0  0  0
 17 11  2  0  0  0
  1 15  1  0  0  0
  1  6  1  0  0  0
  2  1  2  0  0  0
  3  2  1  0  0  0
  3  4  2  0  0  0
  4  5  1  0  0  0
  5  6  2  0  0  0
  6 33  1  0  0  0
 33 34  1  0  0  0
 34 35  1  0  0  0
 22 24  2  0  0  0
 22 25  1  0  0  0
 22  3  1  0  0  0
 23 22  2  0  0  0
 25 26  1  0  0  0
 27 26  1  0  0  0
 28 29  1  0  0  0
 28 27  1  0  0  0
 28 32  1  0  0  0
 30 28  1  0  0  0
 30 31  1  0  0  0
 31 25  1  0  0  0
M  CHG 1  28   1
M  END
> <minimizedAffinity>
-9.42110

$$$$
/home/hjpark/lecture_drug1/0905_agent/pde5_harness/sample_run/structures/work/ligand_ref.pdb


 35 38  0  0  0  0  0  0  0  0999 V2000
    1.9733   66.7507   83.0987 C   0  0  0  0  0  0  0  0  0  0  0  0
    1.5143   67.7692   82.1763 C   0  0  0  0  0  0  0  0  0  0  0  0
    2.2077   69.0502   82.0594 C   0  0  0  0  0  0  0  0  0  0  0  0
    3.4110   69.2647   82.9249 C   0  0  0  0  0  0  0  0  0  0  0  0
    3.8889   68.2520   83.8604 C   0  0  0  0  0  0  0  0  0  0  0  0
    3.1757   66.9654   83.9764 C   0  0  0  0  0  0  0  0  0  0  0  0
   -0.4388   62.8845   85.1657 C   0  0  0  0  0  0  0  0  0  0  0  0
   -1.1189   61.8326   84.5378 N   0  0  0  0  0  0  0  0  0  0  0  0
   -1.0459   62.0001   83.1852 N   0  0  0  0  0  0  0  0  0  0  0  0
   -1.6572   61.0658   82.2359 C   0  0  0  0  0  0  0  0  0  0  0  0
   -0.3283   63.1464   82.9541 C   0  0  0  0  0  0  0  0  0  0  0  0
    0.0775   63.8391   81.7637 C   0  0  0  0  0  0  0  0  0  0  0  0
   -0.1962   63.4561   80.6495 O   0  0  0  0  0  0  0  0  0  0  0  0
    0.8249   65.0074   81.8960 N   0  0  0  0  0  0  0  0  0  0  0  0
    1.2053   65.5547   83.1294 C   0  0  0  0  0  0  0  0  0  0  0  0
    0.8294   64.9173   84.3176 N   0  0  0  0  0  0  0  0  0  0  0  0
    0.0671   63.7207   84.1990 C   0  0  0  0  0  0  0  0  0  0  0  0
    1.0813   65.2806   85.1972 H   0  0  0  0  0  0  0  0  0  0  0  0
   -0.3035   63.0555   86.6443 C   0  0  0  0  0  0  0  0  0  0  0  0
   -2.7451   63.0316   87.3720 C   0  0  0  0  0  0  0  0  0  0  0  0
   -1.4974   62.2074   87.2021 C   0  0  0  0  0  0  0  0  0  0  0  0
    1.6916   70.1914   81.0621 S   0  0  0  0  0  0  0  0  0  0  0  0
    2.6152   70.7854   80.3293 O   0  0  0  0  0  0  0  0  0  0  0  0
    0.8558   69.6659   80.1976 O   0  0  0  0  0  0  0  0  0  0  0  0
    0.9768   71.1724   82.0896 N   0  0  0  0  0  0  0  0  0  0  0  0
   -0.4777   71.6273   81.6763 C   0  0  0  0  0  0  0  0  0  0  0  0
   -0.5973   72.8111   80.6972 C   0  0  0  0  0  0  0  0  0  0  0  0
    0.4034   73.9179   80.8699 N   0  0  0  0  0  0  0  0  0  0  0  0
   -0.3280   75.1476   81.3071 C   0  0  0  0  0  0  0  0  0  0  0  0
    1.6111   73.6982   81.7840 C   0  0  0  0  0  0  0  0  0  0  0  0
    1.6465   72.4000   82.6767 C   0  0  0  0  0  0  0  0  0  0  0  0
    0.8382   73.9875   79.9498 H   0  0  0  0  0  0  0  0  0  0  0  0
    3.5575   65.9097   84.8900 O   0  0  0  0  0  0  0  0  0  0  0  0
    4.9135   65.5719   85.2441 C   0  0  0  0  0  0  0  0  0  0  0  0
    4.8375   65.1068   86.6888 C   0  0  0  0  0  0  0  0  0  0  0  0
 20 21  1  0  0  0
 21 19  1  0  0  0
 19  7  1  0  0  0
  7 17  1  0  0  0
  7  8  2  0  0  0
  8  9  1  0  0  0
  9 10  1  0  0  0
 11  9  1  0  0  0
 11 12  1  0  0  0
 12 13  2  0  0  0
 14 12  1  0  0  0
 15 14  2  0  0  0
 16 17  1  0  0  0
 16 15  1  0  0  0
 16 18  1  0  0  0
 17 11  2  0  0  0
  1 15  1  0  0  0
  1  6  1  0  0  0
  2  1  2  0  0  0
  3  2  1  0  0  0
  3  4  2  0  0  0
  4  5  1  0  0  0
  5  6  2  0  0  0
  6 33  1  0  0  0
 33 34  1  0  0  0
 34 35  1  0  0  0
 22 24  2  0  0  0
 22 25  1  0  0  0
 22  3  1  0  0  0
 23 22  2  0  0  0
 25 26  1  0  0  0
 27 26  1  0  0  0
 28 29  1  0  0  0
 28 27  1  0  0  0
 28 32  1  0  0  0
 30 28  1  0  0  0
 30 31  1  0  0  0
 31 25  1  0  0  0
M  CHG 1  28   1
M  END
> <minimizedAffinity>
-9.27991

$$$$
/home/hjpark/lecture_drug1/0905_agent/pde5_harness/sample_run/structures/work/ligand_ref.pdb


 35 38  0  0  0  0  0  0  0  0999 V2000
    2.1451   66.2931   84.0746 C   0  0  0  0  0  0  0  0  0  0  0  0
    1.6279   67.1658   83.0404 C   0  0  0  0  0  0  0  0  0  0  0  0
    2.4423   68.2449   82.4857 C   0  0  0  0  0  0  0  0  0  0  0  0
    3.8303   68.4081   83.0239 C   0  0  0  0  0  0  0  0  0  0  0  0
    4.3695   67.5402   84.0656 C   0  0  0  0  0  0  0  0  0  0  0  0
    3.5351   66.4592   84.6247 C   0  0  0  0  0  0  0  0  0  0  0  0
   -1.0402   62.4492   83.7332 C   0  0  0  0  0  0  0  0  0  0  0  0
   -1.7354   61.7874   84.7540 N   0  0  0  0  0  0  0  0  0  0  0  0
   -1.4134   62.3558   85.9525 N   0  0  0  0  0  0  0  0  0  0  0  0
   -1.9745   61.8949   87.2254 C   0  0  0  0  0  0  0  0  0  0  0  0
   -0.5224   63.3675   85.6980 C   0  0  0  0  0  0  0  0  0  0  0  0
    0.1696   64.3118   86.5294 C   0  0  0  0  0  0  0  0  0  0  0  0
    0.0468   64.3490   87.7321 O   0  0  0  0  0  0  0  0  0  0  0  0
    1.0220   65.2322   85.9233 N   0  0  0  0  0  0  0  0  0  0  0  0
    1.2504   65.2916   84.5413 C   0  0  0  0  0  0  0  0  0  0  0  0
    0.6016   64.3889   83.6908 N   0  0  0  0  0  0  0  0  0  0  0  0
   -0.2748   63.4433   84.2948 C   0  0  0  0  0  0  0  0  0  0  0  0
    0.7450   64.4070   82.7170 H   0  0  0  0  0  0  0  0  0  0  0  0
   -1.1248   62.1101   82.2800 C   0  0  0  0  0  0  0  0  0  0  0  0
    0.7219   61.5482   80.6171 C   0  0  0  0  0  0  0  0  0  0  0  0
    0.2214   61.3502   82.0225 C   0  0  0  0  0  0  0  0  0  0  0  0
    1.8693   69.2306   81.3616 S   0  0  0  0  0  0  0  0  0  0  0  0
    2.7593   69.7588   80.5420 O   0  0  0  0  0  0  0  0  0  0  0  0
    1.0416   68.5698   80.5868 O   0  0  0  0  0  0  0  0  0  0  0  0
    1.1328   70.3085   82.2697 N   0  0  0  0  0  0  0  0  0  0  0  0
   -0.3071   70.7264   81.7745 C   0  0  0  0  0  0  0  0  0  0  0  0
   -0.3929   71.8107   80.6831 C   0  0  0  0  0  0  0  0  0  0  0  0
    0.6094   72.9256   80.7760 N   0  0  0  0  0  0  0  0  0  0  0  0
   -0.1261   74.1942   81.0724 C   0  0  0  0  0  0  0  0  0  0  0  0
    1.7905   72.7909   81.7400 C   0  0  0  0  0  0  0  0  0  0  0  0
    1.7938   71.5847   82.7541 C   0  0  0  0  0  0  0  0  0  0  0  0
    1.0694   72.9046   79.8658 H   0  0  0  0  0  0  0  0  0  0  0  0
    3.9709   65.5632   85.6745 O   0  0  0  0  0  0  0  0  0  0  0  0
    5.3375   65.1716   85.9139 C   0  0  0  0  0  0  0  0  0  0  0  0
    5.5933   65.5119   87.3727 C   0  0  0  0  0  0  0  0  0  0  0  0
 20 21  1  0  0  0
 21 19  1  0  0  0
 19  7  1  0  0  0
  7 17  1  0  0  0
  7  8  2  0  0  0
  8  9  1  0  0  0
  9 10  1  0  0  0
 11  9  1  0  0  0
 11 12  1  0  0  0
 12 13  2  0  0  0
 14 12  1  0  0  0
 15 14  2  0  0  0
 16 17  1  0  0  0
 16 15  1  0  0  0
 16 18  1  0  0  0
 17 11  2  0  0  0
  1 15  1  0  0  0
  1  6  1  0  0  0
  2  1  2  0  0  0
  3  2  1  0  0  0
  3  4  2  0  0  0
  4  5  1  0  0  0
  5  6  2  0  0  0
  6 33  1  0  0  0
 33 34  1  0  0  0
 34 35  1  0  0  0
 22 24  2  0  0  0
 22 25  1  0  0  0
 22  3  1  0  0  0
 23 22  2  0  0  0
 25 26  1  0  0  0
 27 26  1  0  0  0
 28 29  1  0  0  0
 28 27  1  0  0  0
 28 32  1  0  0  0
 30 28  1  0  0  0
 30 31  1  0  0  0
 31 25  1  0  0  0
M  CHG 1  28   1
M  END
> <minimizedAffinity>
-8.99754

$$$$
/home/hjpark/lecture_drug1/0905_agent/pde5_harness/sample_run/structures/work/ligand_ref.pdb


 35 38  0  0  0  0  0  0  0  0999 V2000
    0.9460   65.9953   81.9719 C   0  0  0  0  0  0  0  0  0  0  0  0
    1.4734   67.2299   82.5165 C   0  0  0  0  0  0  0  0  0  0  0  0
    2.0620   68.2475   81.6486 C   0  0  0  0  0  0  0  0  0  0  0  0
    2.0929   67.9660   80.1780 C   0  0  0  0  0  0  0  0  0  0  0  0
    1.5676   66.7289   79.6099 C   0  0  0  0  0  0  0  0  0  0  0  0
    0.9834   65.7043   80.4967 C   0  0  0  0  0  0  0  0  0  0  0  0
   -1.9122   62.2427   83.6413 C   0  0  0  0  0  0  0  0  0  0  0  0
   -2.0103   61.7188   84.9371 N   0  0  0  0  0  0  0  0  0  0  0  0
   -1.1626   62.4034   85.7592 N   0  0  0  0  0  0  0  0  0  0  0  0
   -1.0263   62.1022   87.1869 C   0  0  0  0  0  0  0  0  0  0  0  0
   -0.5309   63.3519   84.9953 C   0  0  0  0  0  0  0  0  0  0  0  0
    0.4537   64.3580   85.2781 C   0  0  0  0  0  0  0  0  0  0  0  0
    0.9273   64.5298   86.3778 O   0  0  0  0  0  0  0  0  0  0  0  0
    0.8837   65.1788   84.2377 N   0  0  0  0  0  0  0  0  0  0  0  0
    0.4135   65.0802   82.9207 C   0  0  0  0  0  0  0  0  0  0  0  0
   -0.5437   64.1119   82.5958 N   0  0  0  0  0  0  0  0  0  0  0  0
   -0.9951   63.2665   83.6488 C   0  0  0  0  0  0  0  0  0  0  0  0
   -0.8898   64.0193   81.6788 H   0  0  0  0  0  0  0  0  0  0  0  0
   -2.6811   61.7505   82.4578 C   0  0  0  0  0  0  0  0  0  0  0  0
   -1.1294   61.0949   80.5464 C   0  0  0  0  0  0  0  0  0  0  0  0
   -1.7302   60.6600   81.8558 C   0  0  0  0  0  0  0  0  0  0  0  0
    2.6712   69.6029   82.2447 S   0  0  0  0  0  0  0  0  0  0  0  0
    2.3107   69.9108   83.4767 O   0  0  0  0  0  0  0  0  0  0  0  0
    3.9795   69.5088   82.2855 O   0  0  0  0  0  0  0  0  0  0  0  0
    2.1641   70.6499   81.1606 N   0  0  0  0  0  0  0  0  0  0  0  0
    3.0582   71.9428   81.0120 C   0  0  0  0  0  0  0  0  0  0  0  0
    2.8150   73.0900   82.0115 C   0  0  0  0  0  0  0  0  0  0  0  0
    1.3866   73.3320   82.4081 N   0  0  0  0  0  0  0  0  0  0  0  0
    0.9752   74.6721   81.8856 C   0  0  0  0  0  0  0  0  0  0  0  0
    0.3217   72.2975   82.0361 C   0  0  0  0  0  0  0  0  0  0  0  0
    0.7266   71.1240   81.0653 C   0  0  0  0  0  0  0  0  0  0  0  0
    1.4100   73.2622   83.4255 H   0  0  0  0  0  0  0  0  0  0  0  0
    0.4590   64.4378   80.0321 O   0  0  0  0  0  0  0  0  0  0  0  0
   -0.0084   64.1767   78.6935 C   0  0  0  0  0  0  0  0  0  0  0  0
    0.9415   63.1252   78.1445 C   0  0  0  0  0  0  0  0  0  0  0  0
 20 21  1  0  0  0
 21 19  1  0  0  0
 19  7  1  0  0  0
  7 17  1  0  0  0
  7  8  2  0  0  0
  8  9  1  0  0  0
  9 10  1  0  0  0
 11  9  1  0  0  0
 11 12  1  0  0  0
 12 13  2  0  0  0
 14 12  1  0  0  0
 15 14  2  0  0  0
 16 17  1  0  0  0
 16 15  1  0  0  0
 16 18  1  0  0  0
 17 11  2  0  0  0
  1 15  1  0  0  0
  1  6  1  0  0  0
  2  1  2  0  0  0
  3  2  1  0  0  0
  3  4  2  0  0  0
  4  5  1  0  0  0
  5  6  2  0  0  0
  6 33  1  0  0  0
 33 34  1  0  0  0
 34 35  1  0  0  0
 22 24  2  0  0  0
 22 25  1  0  0  0
 22  3  1  0  0  0
 23 22  2  0  0  0
 25 26  1  0  0  0
 27 26  1  0  0  0
 28 29  1  0  0  0
 28 27  1  0  0  0
 28 32  1  0  0  0
 30 28  1  0  0  0
 30 31  1  0  0  0
 31 25  1  0  0  0
M  CHG 1  28   1
M  END
> <minimizedAffinity>
-8.99312

$$$$
/home/hjpark/lecture_drug1/0905_agent/pde5_harness/sample_run/structures/work/ligand_ref.pdb


 35 38  0  0  0  0  0  0  0  0999 V2000
    0.3144   65.0101   81.3155 C   0  0  0  0  0  0  0  0  0  0  0  0
    0.6670   66.2884   80.7321 C   0  0  0  0  0  0  0  0  0  0  0  0
    1.2121   67.3682   81.5519 C   0  0  0  0  0  0  0  0  0  0  0  0
    1.3957   67.0991   83.0137 C   0  0  0  0  0  0  0  0  0  0  0  0
    1.0462   65.8191   83.6206 C   0  0  0  0  0  0  0  0  0  0  0  0
    0.4884   64.7386   82.7847 C   0  0  0  0  0  0  0  0  0  0  0  0
   -2.8245   61.4611   79.7060 C   0  0  0  0  0  0  0  0  0  0  0  0
   -2.8106   60.7552   78.4958 N   0  0  0  0  0  0  0  0  0  0  0  0
   -1.7578   61.1860   77.7414 N   0  0  0  0  0  0  0  0  0  0  0  0
   -1.4594   60.6444   76.4128 C   0  0  0  0  0  0  0  0  0  0  0  0
   -1.1090   62.1562   78.4627 C   0  0  0  0  0  0  0  0  0  0  0  0
    0.0447   62.9733   78.2119 C   0  0  0  0  0  0  0  0  0  0  0  0
    0.6899   62.9115   77.1907 O   0  0  0  0  0  0  0  0  0  0  0  0
    0.4435   63.8798   79.1919 N   0  0  0  0  0  0  0  0  0  0  0  0
   -0.2192   64.0473   80.4159 C   0  0  0  0  0  0  0  0  0  0  0  0
   -1.3514   63.2761   80.7038 N   0  0  0  0  0  0  0  0  0  0  0  0
   -1.7704   62.3433   79.7131 C   0  0  0  0  0  0  0  0  0  0  0  0
   -1.8369   63.3744   81.5545 H   0  0  0  0  0  0  0  0  0  0  0  0
   -3.8324   61.2761   80.7941 C   0  0  0  0  0  0  0  0  0  0  0  0
   -3.2056   60.4793   83.1315 C   0  0  0  0  0  0  0  0  0  0  0  0
   -3.1970   60.1391   81.6655 C   0  0  0  0  0  0  0  0  0  0  0  0
    1.5794   68.7928   80.9202 S   0  0  0  0  0  0  0  0  0  0  0  0
    2.8400   68.9660   80.5685 O   0  0  0  0  0  0  0  0  0  0  0  0
    0.8903   68.9685   79.8173 O   0  0  0  0  0  0  0  0  0  0  0  0
    1.1157   69.7589   82.0950 N   0  0  0  0  0  0  0  0  0  0  0  0
   -0.1036   70.6988   81.7440 C   0  0  0  0  0  0  0  0  0  0  0  0
    0.2058   72.0088   80.9939 C   0  0  0  0  0  0  0  0  0  0  0  0
    1.4749   72.7117   81.3832 N   0  0  0  0  0  0  0  0  0  0  0  0
    1.1123   74.0147   82.0225 C   0  0  0  0  0  0  0  0  0  0  0  0
    2.4927   71.9839   82.2646 C   0  0  0  0  0  0  0  0  0  0  0  0
    2.0754   70.6070   82.9074 C   0  0  0  0  0  0  0  0  0  0  0  0
    1.9766   72.7979   80.4992 H   0  0  0  0  0  0  0  0  0  0  0  0
    0.0899   63.4448   83.2968 O   0  0  0  0  0  0  0  0  0  0  0  0
   -0.9676   63.2225   84.2511 C   0  0  0  0  0  0  0  0  0  0  0  0
   -0.4453   62.1288   85.1677 C   0  0  0  0  0  0  0  0  0  0  0  0
 20 21  1  0  0  0
 21 19  1  0  0  0
 19  7  1  0  0  0
  7 17  1  0  0  0
  7  8  2  0  0  0
  8  9  1  0  0  0
  9 10  1  0  0  0
 11  9  1  0  0  0
 11 12  1  0  0  0
 12 13  2  0  0  0
 14 12  1  0  0  0
 15 14  2  0  0  0
 16 17  1  0  0  0
 16 15  1  0  0  0
 16 18  1  0  0  0
 17 11  2  0  0  0
  1 15  1  0  0  0
  1  6  1  0  0  0
  2  1  2  0  0  0
  3  2  1  0  0  0
  3  4  2  0  0  0
  4  5  1  0  0  0
  5  6  2  0  0  0
  6 33  1  0  0  0
 33 34  1  0  0  0
 34 35  1  0  0  0
 22 24  2  0  0  0
 22 25  1  0  0  0
 22  3  1  0  0  0
 23 22  2  0  0  0
 25 26  1  0  0  0
 27 26  1  0  0  0
 28 29  1  0  0  0
 28 27  1  0  0  0
 28 32  1  0  0  0
 30 28  1  0  0  0
 30 31  1  0  0  0
 31 25  1  0  0  0
M  CHG 1  28   1
M  END
> <minimizedAffinity>
-8.95653

$$$$
/home/hjpark/lecture_drug1/0905_agent/pde5_harness/sample_run/structures/work/ligand_ref.pdb


 35 38  0  0  0  0  0  0  0  0999 V2000
    0.3333   64.6850   82.5472 C   0  0  0  0  0  0  0  0  0  0  0  0
    1.1343   65.8783   82.3645 C   0  0  0  0  0  0  0  0  0  0  0  0
    1.6918   66.5963   83.5086 C   0  0  0  0  0  0  0  0  0  0  0  0
    1.4071   66.0476   84.8727 C   0  0  0  0  0  0  0  0  0  0  0  0
    0.6024   64.8478   85.0779 C   0  0  0  0  0  0  0  0  0  0  0  0
    0.0372   64.1357   83.9157 C   0  0  0  0  0  0  0  0  0  0  0  0
   -2.7802   61.9866   79.7078 C   0  0  0  0  0  0  0  0  0  0  0  0
   -2.7033   61.7060   78.3372 N   0  0  0  0  0  0  0  0  0  0  0  0
   -1.5917   62.3073   77.8216 N   0  0  0  0  0  0  0  0  0  0  0  0
   -1.2190   62.2071   76.4078 C   0  0  0  0  0  0  0  0  0  0  0  0
   -0.9682   62.9644   78.8520 C   0  0  0  0  0  0  0  0  0  0  0  0
    0.2202   63.7652   78.9424 C   0  0  0  0  0  0  0  0  0  0  0  0
    0.9305   64.0046   77.9931 O   0  0  0  0  0  0  0  0  0  0  0  0
    0.5755   64.2904   80.1829 N   0  0  0  0  0  0  0  0  0  0  0  0
   -0.1632   64.0869   81.3570 C   0  0  0  0  0  0  0  0  0  0  0  0
   -1.3314   63.3167   81.3177 N   0  0  0  0  0  0  0  0  0  0  0  0
   -1.7068   62.7708   80.0574 C   0  0  0  0  0  0  0  0  0  0  0  0
   -1.8701   63.1592   82.1264 H   0  0  0  0  0  0  0  0  0  0  0  0
   -3.8630   61.5088   80.6206 C   0  0  0  0  0  0  0  0  0  0  0  0
   -3.1844   60.2863   82.7505 C   0  0  0  0  0  0  0  0  0  0  0  0
   -3.2413   60.2145   81.2483 C   0  0  0  0  0  0  0  0  0  0  0  0
    2.5557   67.9307   83.3171 S   0  0  0  0  0  0  0  0  0  0  0  0
    2.5105   68.8007   84.3089 O   0  0  0  0  0  0  0  0  0  0  0  0
    3.8235   67.6130   83.1992 O   0  0  0  0  0  0  0  0  0  0  0  0
    1.9332   68.4869   81.9635 N   0  0  0  0  0  0  0  0  0  0  0  0
    2.9652   69.1793   80.9895 C   0  0  0  0  0  0  0  0  0  0  0  0
    3.3114   70.6564   81.2593 C   0  0  0  0  0  0  0  0  0  0  0  0
    2.1818   71.5265   81.7315 N   0  0  0  0  0  0  0  0  0  0  0  0
    1.8968   72.5420   80.6706 C   0  0  0  0  0  0  0  0  0  0  0  0
    0.8686   70.8742   82.1705 C   0  0  0  0  0  0  0  0  0  0  0  0
    0.6754   69.3325   81.9078 C   0  0  0  0  0  0  0  0  0  0  0  0
    2.5339   71.9145   82.6067 H   0  0  0  0  0  0  0  0  0  0  0  0
   -0.7914   62.9533   84.0176 O   0  0  0  0  0  0  0  0  0  0  0  0
   -1.0327   62.2140   85.2315 C   0  0  0  0  0  0  0  0  0  0  0  0
   -2.4499   62.5809   85.6390 C   0  0  0  0  0  0  0  0  0  0  0  0
 20 21  1  0  0  0
 21 19  1  0  0  0
 19  7  1  0  0  0
  7 17  1  0  0  0
  7  8  2  0  0  0
  8  9  1  0  0  0
  9 10  1  0  0  0
 11  9  1  0  0  0
 11 12  1  0  0  0
 12 13  2  0  0  0
 14 12  1  0  0  0
 15 14  2  0  0  0
 16 17  1  0  0  0
 16 15  1  0  0  0
 16 18  1  0  0  0
 17 11  2  0  0  0
  1 15  1  0  0  0
  1  6  1  0  0  0
  2  1  2  0  0  0
  3  2  1  0  0  0
  3  4  2  0  0  0
  4  5  1  0  0  0
  5  6  2  0  0  0
  6 33  1  0  0  0
 33 34  1  0  0  0
 34 35  1  0  0  0
 22 24  2  0  0  0
 22 25  1  0  0  0
 22  3  1  0  0  0
 23 22  2  0  0  0
 25 26  1  0  0  0
 27 26  1  0  0  0
 28 29  1  0  0  0
 28 27  1  0  0  0
 28 32  1  0  0  0
 30 28  1  0  0  0
 30 31  1  0  0  0
 31 25  1  0  0  0
M  CHG 1  28   1
M  END
> <minimizedAffinity>
-8.93866

$$$$
/home/hjpark/lecture_drug1/0905_agent/pde5_harness/sample_run/structures/work/ligand_ref.pdb


 35 38  0  0  0  0  0  0  0  0999 V2000
    0.4011   64.4552   84.5794 C   0  0  0  0  0  0  0  0  0  0  0  0
   -0.1534   64.1775   83.2701 C   0  0  0  0  0  0  0  0  0  0  0  0
   -1.3055   63.2931   83.1098 C   0  0  0  0  0  0  0  0  0  0  0  0
   -1.8912   62.6916   84.3500 C   0  0  0  0  0  0  0  0  0  0  0  0
   -1.3473   62.9581   85.6775 C   0  0  0  0  0  0  0  0  0  0  0  0
   -0.1782   63.8460   85.8267 C   0  0  0  0  0  0  0  0  0  0  0  0
    3.0811   68.5493   83.5333 C   0  0  0  0  0  0  0  0  0  0  0  0
    4.3936   68.8633   83.9100 N   0  0  0  0  0  0  0  0  0  0  0  0
    4.8974   67.8415   84.6616 N   0  0  0  0  0  0  0  0  0  0  0  0
    6.2550   67.8569   85.2133 C   0  0  0  0  0  0  0  0  0  0  0  0
    3.9166   66.8877   84.7634 C   0  0  0  0  0  0  0  0  0  0  0  0
    3.8398   65.6098   85.4137 C   0  0  0  0  0  0  0  0  0  0  0  0
    4.7529   65.1347   86.0490 O   0  0  0  0  0  0  0  0  0  0  0  0
    2.6584   64.8790   85.3067 N   0  0  0  0  0  0  0  0  0  0  0  0
    1.5298   65.3191   84.6010 C   0  0  0  0  0  0  0  0  0  0  0  0
    1.5557   66.5602   83.9542 N   0  0  0  0  0  0  0  0  0  0  0  0
    2.7569   67.3183   84.0522 C   0  0  0  0  0  0  0  0  0  0  0  0
    0.7770   66.8945   83.4532 H   0  0  0  0  0  0  0  0  0  0  0  0
    2.1935   69.4250   82.7093 C   0  0  0  0  0  0  0  0  0  0  0  0
    3.3680   70.0335   80.5317 C   0  0  0  0  0  0  0  0  0  0  0  0
    2.5450   68.9942   81.2441 C   0  0  0  0  0  0  0  0  0  0  0  0
   -1.9079   62.9597   81.6643 S   0  0  0  0  0  0  0  0  0  0  0  0
   -3.2162   63.0814   81.5367 O   0  0  0  0  0  0  0  0  0  0  0  0
   -1.4005   63.7879   80.7818 O   0  0  0  0  0  0  0  0  0  0  0  0
   -1.3933   61.4672   81.4732 N   0  0  0  0  0  0  0  0  0  0  0  0
   -0.1947   61.2992   80.4592 C   0  0  0  0  0  0  0  0  0  0  0  0
   -0.5429   61.2096   78.9608 C   0  0  0  0  0  0  0  0  0  0  0  0
   -1.7949   60.4552   78.6151 N   0  0  0  0  0  0  0  0  0  0  0  0
   -1.4073   59.2268   77.8542 C   0  0  0  0  0  0  0  0  0  0  0  0
   -2.7683   60.0702   79.7316 C   0  0  0  0  0  0  0  0  0  0  0  0
   -2.3171   60.2902   81.2254 C   0  0  0  0  0  0  0  0  0  0  0  0
   -2.3372   61.1327   78.0792 H   0  0  0  0  0  0  0  0  0  0  0  0
    0.4469   64.1522   87.0958 O   0  0  0  0  0  0  0  0  0  0  0  0
    0.7189   63.1930   88.1370 C   0  0  0  0  0  0  0  0  0  0  0  0
   -0.4613   63.3014   89.0883 C   0  0  0  0  0  0  0  0  0  0  0  0
 20 21  1  0  0  0
 21 19  1  0  0  0
 19  7  1  0  0  0
  7 17  1  0  0  0
  7  8  2  0  0  0
  8  9  1  0  0  0
  9 10  1  0  0  0
 11  9  1  0  0  0
 11 12  1  0  0  0
 12 13  2  0  0  0
 14 12  1  0  0  0
 15 14  2  0  0  0
 16 17  1  0  0  0
 16 15  1  0  0  0
 16 18  1  0  0  0
 17 11  2  0  0  0
  1 15  1  0  0  0
  1  6  1  0  0  0
  2  1  2  0  0  0
  3  2  1  0  0  0
  3  4  2  0  0  0
  4  5  1  0  0  0
  5  6  2  0  0  0
  6 33  1  0  0  0
 33 34  1  0  0  0
 34 35  1  0  0  0
 22 24  2  0  0  0
 22 25  1  0  0  0
 22  3  1  0  0  0
 23 22  2  0  0  0
 25 26  1  0  0  0
 27 26  1  0  0  0
 28 29  1  0  0  0
 28 27  1  0  0  0
 28 32  1  0  0  0
 30 28  1  0  0  0
 30 31  1  0  0  0
 31 25  1  0  0  0
M  CHG 1  28   1
M  END
> <minimizedAffinity>
-8.93021

$$$$
/home/hjpark/lecture_drug1/0905_agent/pde5_harness/sample_run/structures/work/ligand_ref.pdb


 35 38  0  0  0  0  0  0  0  0999 V2000
    0.3722   65.1066   81.0076 C   0  0  0  0  0  0  0  0  0  0  0  0
    0.6130   66.3623   80.3262 C   0  0  0  0  0  0  0  0  0  0  0  0
    1.1447   67.5200   81.0419 C   0  0  0  0  0  0  0  0  0  0  0  0
    1.4346   67.3551   82.5019 C   0  0  0  0  0  0  0  0  0  0  0  0
    1.1984   66.0994   83.2065 C   0  0  0  0  0  0  0  0  0  0  0  0
    0.6531   64.9392   82.4758 C   0  0  0  0  0  0  0  0  0  0  0  0
   -2.7587   61.4117   79.7489 C   0  0  0  0  0  0  0  0  0  0  0  0
   -2.7444   60.5937   78.6115 N   0  0  0  0  0  0  0  0  0  0  0  0
   -1.6938   60.9536   77.8178 N   0  0  0  0  0  0  0  0  0  0  0  0
   -1.3958   60.2886   76.5463 C   0  0  0  0  0  0  0  0  0  0  0  0
   -1.0469   61.9898   78.4422 C   0  0  0  0  0  0  0  0  0  0  0  0
    0.1041   62.7825   78.1127 C   0  0  0  0  0  0  0  0  0  0  0  0
    0.7481   62.6254   77.1010 O   0  0  0  0  0  0  0  0  0  0  0  0
    0.5016   63.7794   79.0012 N   0  0  0  0  0  0  0  0  0  0  0  0
   -0.1599   64.0610   80.2047 C   0  0  0  0  0  0  0  0  0  0  0  0
   -1.2894   63.3177   80.5667 N   0  0  0  0  0  0  0  0  0  0  0  0
   -1.7071   62.2935   79.6702 C   0  0  0  0  0  0  0  0  0  0  0  0
   -1.7740   63.4953   81.4050 H   0  0  0  0  0  0  0  0  0  0  0  0
   -3.7645   61.3286   80.8514 C   0  0  0  0  0  0  0  0  0  0  0  0
   -3.0379   60.7010   83.2114 C   0  0  0  0  0  0  0  0  0  0  0  0
   -3.1613   60.2268   81.7885 C   0  0  0  0  0  0  0  0  0  0  0  0
    1.3887   68.9191   80.3026 S   0  0  0  0  0  0  0  0  0  0  0  0
    2.0216   68.8634   79.1454 O   0  0  0  0  0  0  0  0  0  0  0  0
    0.2307   69.4740   80.0319 O   0  0  0  0  0  0  0  0  0  0  0  0
    2.1980   69.7026   81.4251 N   0  0  0  0  0  0  0  0  0  0  0  0
    1.5760   71.0901   81.8506 C   0  0  0  0  0  0  0  0  0  0  0  0
    1.9070   72.3127   80.9732 C   0  0  0  0  0  0  0  0  0  0  0  0
    3.3006   72.3710   80.4159 N   0  0  0  0  0  0  0  0  0  0  0  0
    4.0050   73.5366   81.0349 C   0  0  0  0  0  0  0  0  0  0  0  0
    4.1959   71.1332   80.5099 C   0  0  0  0  0  0  0  0  0  0  0  0
    3.6989   69.9155   81.3781 C   0  0  0  0  0  0  0  0  0  0  0  0
    3.1485   72.4523   79.4105 H   0  0  0  0  0  0  0  0  0  0  0  0
    0.3630   63.6612   83.0900 O   0  0  0  0  0  0  0  0  0  0  0  0
   -0.6618   63.4313   84.0775 C   0  0  0  0  0  0  0  0  0  0  0  0
    0.0679   63.4438   85.4105 C   0  0  0  0  0  0  0  0  0  0  0  0
 20 21  1  0  0  0
 21 19  1  0  0  0
 19  7  1  0  0  0
  7 17  1  0  0  0
  7  8  2  0  0  0
  8  9  1  0  0  0
  9 10  1  0  0  0
 11  9  1  0  0  0
 11 12  1  0  0  0
 12 13  2  0  0  0
 14 12  1  0  0  0
 15 14  2  0  0  0
 16 17  1  0  0  0
 16 15  1  0  0  0
 16 18  1  0  0  0
 17 11  2  0  0  0
  1 15  1  0  0  0
  1  6  1  0  0  0
  2  1  2  0  0  0
  3  2  1  0  0  0
  3  4  2  0  0  0
  4  5  1  0  0  0
  5  6  2  0  0  0
  6 33  1  0  0  0
 33 34  1  0  0  0
 34 35  1  0  0  0
 22 24  2  0  0  0
 22 25  1  0  0  0
 22  3  1  0  0  0
 23 22  2  0  0  0
 25 26  1  0  0  0
 27 26  1  0  0  0
 28 29  1  0  0  0
 28 27  1  0  0  0
 28 32  1  0  0  0
 30 28  1  0  0  0
 30 31  1  0  0  0
 31 25  1  0  0  0
M  CHG 1  28   1
M  END
> <minimizedAffinity>
-8.87960

$$$$
/home/hjpark/lecture_drug1/0905_agent/pde5_harness/sample_run/structures/work/ligand_ref.pdb


 35 38  0  0  0  0  0  0  0  0999 V2000
    0.5061   65.3951   81.7745 C   0  0  0  0  0  0  0  0  0  0  0  0
    1.1458   66.0108   82.9193 C   0  0  0  0  0  0  0  0  0  0  0  0
    1.9781   67.2024   82.7692 C   0  0  0  0  0  0  0  0  0  0  0  0
    2.1383   67.7626   81.3895 C   0  0  0  0  0  0  0  0  0  0  0  0
    1.5032   67.1571   80.2237 C   0  0  0  0  0  0  0  0  0  0  0  0
    0.6718   65.9488   80.3858 C   0  0  0  0  0  0  0  0  0  0  0  0
   -2.3023   62.2766   84.4996 C   0  0  0  0  0  0  0  0  0  0  0  0
   -2.8573   61.0431   84.1341 N   0  0  0  0  0  0  0  0  0  0  0  0
   -2.5200   60.7693   82.8401 N   0  0  0  0  0  0  0  0  0  0  0  0
   -2.9437   59.5471   82.1514 C   0  0  0  0  0  0  0  0  0  0  0  0
   -1.7595   61.8171   82.3862 C   0  0  0  0  0  0  0  0  0  0  0  0
   -1.1221   62.1100   81.1334 C   0  0  0  0  0  0  0  0  0  0  0  0
   -1.1769   61.3740   80.1751 O   0  0  0  0  0  0  0  0  0  0  0  0
   -0.4030   63.2974   81.0146 N   0  0  0  0  0  0  0  0  0  0  0  0
   -0.2652   64.2330   82.0496 C   0  0  0  0  0  0  0  0  0  0  0  0
   -0.8722   63.9932   83.2878 N   0  0  0  0  0  0  0  0  0  0  0  0
   -1.6090   62.7827   83.4259 C   0  0  0  0  0  0  0  0  0  0  0  0
   -0.7932   64.6338   84.0311 H   0  0  0  0  0  0  0  0  0  0  0  0
   -2.4565   62.9223   85.8387 C   0  0  0  0  0  0  0  0  0  0  0  0
   -0.2641   63.6894   86.8858 C   0  0  0  0  0  0  0  0  0  0  0  0
   -1.1398   62.5045   86.5786 C   0  0  0  0  0  0  0  0  0  0  0  0
    2.7101   67.8736   84.0250 S   0  0  0  0  0  0  0  0  0  0  0  0
    2.8582   69.1846   83.9802 O   0  0  0  0  0  0  0  0  0  0  0  0
    2.0064   67.6466   85.1091 O   0  0  0  0  0  0  0  0  0  0  0  0
    4.0903   67.0838   84.0118 N   0  0  0  0  0  0  0  0  0  0  0  0
    4.0252   65.6166   84.5918 C   0  0  0  0  0  0  0  0  0  0  0  0
    4.1221   65.4554   86.1211 C   0  0  0  0  0  0  0  0  0  0  0  0
    5.0609   66.3906   86.8282 N   0  0  0  0  0  0  0  0  0  0  0  0
    6.1832   65.5842   87.4013 C   0  0  0  0  0  0  0  0  0  0  0  0
    5.6374   67.5875   86.0681 C   0  0  0  0  0  0  0  0  0  0  0  0
    5.3948   67.6728   84.5134 C   0  0  0  0  0  0  0  0  0  0  0  0
    4.4650   66.8417   87.5224 H   0  0  0  0  0  0  0  0  0  0  0  0
    0.0211   65.2630   79.2899 O   0  0  0  0  0  0  0  0  0  0  0  0
    0.6142   65.0162   77.9993 C   0  0  0  0  0  0  0  0  0  0  0  0
   -0.5478   64.6234   77.1022 C   0  0  0  0  0  0  0  0  0  0  0  0
 20 21  1  0  0  0
 21 19  1  0  0  0
 19  7  1  0  0  0
  7 17  1  0  0  0
  7  8  2  0  0  0
  8  9  1  0  0  0
  9 10  1  0  0  0
 11  9  1  0  0  0
 11 12  1  0  0  0
 12 13  2  0  0  0
 14 12  1  0  0  0
 15 14  2  0  0  0
 16 17  1  0  0  0
 16 15  1  0  0  0
 16 18  1  0  0  0
 17 11  2  0  0  0
  1 15  1  0  0  0
  1  6  1  0  0  0
  2  1  2  0  0  0
  3  2  1  0  0  0
  3  4  2  0  0  0
  4  5  1  0  0  0
  5  6  2  0  0  0
  6 33  1  0  0  0
 33 34  1  0  0  0
 34 35  1  0  0  0
 22 24  2  0  0  0
 22 25  1  0  0  0
 22  3  1  0  0  0
 23 22  2  0  0  0
 25 26  1  0  0  0
 27 26  1  0  0  0
 28 29  1  0  0  0
 28 27  1  0  0  0
 28 32  1  0  0  0
 30 28  1  0  0  0
 30 31  1  0  0  0
 31 25  1  0  0  0
M  CHG 1  28   1
M  END
> <minimizedAffinity>
-8.75187

$$$$
/home/hjpark/lecture_drug1/0905_agent/pde5_harness/sample_run/structures/work/ligand_ref.pdb


 35 38  0  0  0  0  0  0  0  0999 V2000
    0.0751   63.3428   84.0658 C   0  0  0  0  0  0  0  0  0  0  0  0
    0.9433   64.4153   83.6243 C   0  0  0  0  0  0  0  0  0  0  0  0
    1.5912   65.3062   84.5844 C   0  0  0  0  0  0  0  0  0  0  0  0
    1.3267   65.0633   86.0383 C   0  0  0  0  0  0  0  0  0  0  0  0
    0.4552   63.9893   86.5032 C   0  0  0  0  0  0  0  0  0  0  0  0
   -0.2008   63.1010   85.5245 C   0  0  0  0  0  0  0  0  0  0  0  0
   -0.5590   61.5824   79.4250 C   0  0  0  0  0  0  0  0  0  0  0  0
   -1.4905   60.6461   78.9573 N   0  0  0  0  0  0  0  0  0  0  0  0
   -2.2665   60.2311   80.0007 N   0  0  0  0  0  0  0  0  0  0  0  0
   -3.3438   59.2495   79.8470 C   0  0  0  0  0  0  0  0  0  0  0  0
   -1.8335   60.8949   81.1206 C   0  0  0  0  0  0  0  0  0  0  0  0
   -2.2397   60.8859   82.4977 C   0  0  0  0  0  0  0  0  0  0  0  0
   -3.1410   60.1968   82.9172 O   0  0  0  0  0  0  0  0  0  0  0  0
   -1.5665   61.7119   83.3952 N   0  0  0  0  0  0  0  0  0  0  0  0
   -0.5062   62.5553   83.0348 C   0  0  0  0  0  0  0  0  0  0  0  0
   -0.0719   62.5953   81.7047 N   0  0  0  0  0  0  0  0  0  0  0  0
   -0.7516   61.7584   80.7746 C   0  0  0  0  0  0  0  0  0  0  0  0
    0.6712   63.1769   81.4243 H   0  0  0  0  0  0  0  0  0  0  0  0
    0.4710   62.2612   78.5810 C   0  0  0  0  0  0  0  0  0  0  0  0
   -0.3840   64.3525   77.4034 C   0  0  0  0  0  0  0  0  0  0  0  0
   -0.3785   62.8475   77.4019 C   0  0  0  0  0  0  0  0  0  0  0  0
    2.5308   66.5104   84.1041 S   0  0  0  0  0  0  0  0  0  0  0  0
    3.1034   66.3666   82.9233 O   0  0  0  0  0  0  0  0  0  0  0  0
    1.8149   67.6057   84.0050 O   0  0  0  0  0  0  0  0  0  0  0  0
    3.5712   66.5629   85.3056 N   0  0  0  0  0  0  0  0  0  0  0  0
    4.4592   67.8673   85.3629 C   0  0  0  0  0  0  0  0  0  0  0  0
    5.7165   67.9069   84.4729 C   0  0  0  0  0  0  0  0  0  0  0  0
    6.4704   66.6154   84.3326 N   0  0  0  0  0  0  0  0  0  0  0  0
    7.8094   66.7812   84.9787 C   0  0  0  0  0  0  0  0  0  0  0  0
    5.8288   65.3174   84.8287 C   0  0  0  0  0  0  0  0  0  0  0  0
    4.4948   65.4139   85.6620 C   0  0  0  0  0  0  0  0  0  0  0  0
    6.5013   66.4696   83.3235 H   0  0  0  0  0  0  0  0  0  0  0  0
   -1.0989   62.0249   85.8853 O   0  0  0  0  0  0  0  0  0  0  0  0
   -1.7842   61.9073   87.1482 C   0  0  0  0  0  0  0  0  0  0  0  0
   -2.9024   62.9344   87.0849 C   0  0  0  0  0  0  0  0  0  0  0  0
 20 21  1  0  0  0
 21 19  1  0  0  0
 19  7  1  0  0  0
  7 17  1  0  0  0
  7  8  2  0  0  0
  8  9  1  0  0  0
  9 10  1  0  0  0
 11  9  1  0  0  0
 11 12  1  0  0  0
 12 13  2  0  0  0
 14 12  1  0  0  0
 15 14  2  0  0  0
 16 17  1  0  0  0
 16 15  1  0  0  0
 16 18  1  0  0  0
 17 11  2  0  0  0
  1 15  1  0  0  0
  1  6  1  0  0  0
  2  1  2  0  0  0
  3  2  1  0  0  0
  3  4  2  0  0  0
  4  5  1  0  0  0
  5  6  2  0  0  0
  6 33  1  0  0  0
 33 34  1  0  0  0
 34 35  1  0  0  0
 22 24  2  0  0  0
 22 25  1  0  0  0
 22  3  1  0  0  0
 23 22  2  0  0  0
 25 26  1  0  0  0
 27 26  1  0  0  0
 28 29  1  0  0  0
 28 27  1  0  0  0
 28 32  1  0  0  0
 30 28  1  0  0  0
 30 31  1  0  0  0
 31 25  1  0  0  0
M  CHG 1  28   1
M  END
> <minimizedAffinity>
-8.71917

$$$$
/home/hjpark/lecture_drug1/0905_agent/pde5_harness/sample_run/structures/work/ligand_ref.pdb


 35 38  0  0  0  0  0  0  0  0999 V2000
    0.8383   65.5014   82.8326 C   0  0  0  0  0  0  0  0  0  0  0  0
    1.6673   66.3979   83.6124 C   0  0  0  0  0  0  0  0  0  0  0  0
    2.5439   67.3712   82.9648 C   0  0  0  0  0  0  0  0  0  0  0  0
    2.5468   67.4081   81.4677 C   0  0  0  0  0  0  0  0  0  0  0  0
    1.7200   66.5135   80.6643 C   0  0  0  0  0  0  0  0  0  0  0  0
    0.8449   65.5286   81.3287 C   0  0  0  0  0  0  0  0  0  0  0  0
   -2.5711   61.9166   83.5829 C   0  0  0  0  0  0  0  0  0  0  0  0
   -3.0013   61.3481   84.7891 N   0  0  0  0  0  0  0  0  0  0  0  0
   -2.3236   61.9294   85.8215 N   0  0  0  0  0  0  0  0  0  0  0  0
   -2.5422   61.5589   87.2225 C   0  0  0  0  0  0  0  0  0  0  0  0
   -1.4707   62.8569   85.2790 C   0  0  0  0  0  0  0  0  0  0  0  0
   -0.5140   63.7704   85.8374 C   0  0  0  0  0  0  0  0  0  0  0  0
   -0.2978   63.8584   87.0242 O   0  0  0  0  0  0  0  0  0  0  0  0
    0.1988   64.5981   84.9725 N   0  0  0  0  0  0  0  0  0  0  0  0
    0.0411   64.5917   83.5795 C   0  0  0  0  0  0  0  0  0  0  0  0
   -0.8768   63.7155   82.9886 N   0  0  0  0  0  0  0  0  0  0  0  0
   -1.6149   62.8645   83.8594 C   0  0  0  0  0  0  0  0  0  0  0  0
   -1.0064   63.6887   82.0131 H   0  0  0  0  0  0  0  0  0  0  0  0
   -3.0757   61.5359   82.2284 C   0  0  0  0  0  0  0  0  0  0  0  0
   -3.1578   59.4024   80.8382 C   0  0  0  0  0  0  0  0  0  0  0  0
   -2.7735   59.9995   82.1651 C   0  0  0  0  0  0  0  0  0  0  0  0
    3.4830   68.3473   83.8185 S   0  0  0  0  0  0  0  0  0  0  0  0
    3.7569   69.5171   83.2713 O   0  0  0  0  0  0  0  0  0  0  0  0
    2.8925   68.6322   84.9552 O   0  0  0  0  0  0  0  0  0  0  0  0
    4.7648   67.4250   84.0062 N   0  0  0  0  0  0  0  0  0  0  0  0
    4.4584   65.9342   84.4267 C   0  0  0  0  0  0  0  0  0  0  0  0
    4.2262   65.6549   85.9241 C   0  0  0  0  0  0  0  0  0  0  0  0
    5.0761   66.4375   86.8841 N   0  0  0  0  0  0  0  0  0  0  0  0
    5.9848   65.4828   87.5917 C   0  0  0  0  0  0  0  0  0  0  0  0
    5.8950   67.6212   86.3640 C   0  0  0  0  0  0  0  0  0  0  0  0
    5.9841   67.8416   84.8062 C   0  0  0  0  0  0  0  0  0  0  0  0
    4.3909   66.8956   87.4851 H   0  0  0  0  0  0  0  0  0  0  0  0
    0.0073   64.5846   80.6202 O   0  0  0  0  0  0  0  0  0  0  0  0
    0.3826   63.8868   79.4158 C   0  0  0  0  0  0  0  0  0  0  0  0
    0.3385   62.4136   79.7860 C   0  0  0  0  0  0  0  0  0  0  0  0
 20 21  1  0  0  0
 21 19  1  0  0  0
 19  7  1  0  0  0
  7 17  1  0  0  0
  7  8  2  0  0  0
  8  9  1  0  0  0
  9 10  1  0  0  0
 11  9  1  0  0  0
 11 12  1  0  0  0
 12 13  2  0  0  0
 14 12  1  0  0  0
 15 14  2  0  0  0
 16 17  1  0  0  0
 16 15  1  0  0  0
 16 18  1  0  0  0
 17 11  2  0  0  0
  1 15  1  0  0  0
  1  6  1  0  0  0
  2  1  2  0  0  0
  3  2  1  0  0  0
  3  4  2  0  0  0
  4  5  1  0  0  0
  5  6  2  0  0  0
  6 33  1  0  0  0
 33 34  1  0  0  0
 34 35  1  0  0  0
 22 24  2  0  0  0
 22 25  1  0  0  0
 22  3  1  0  0  0
 23 22  2  0  0  0
 25 26  1  0  0  0
 27 26  1  0  0  0
 28 29  1  0  0  0
 28 27  1  0  0  0
 28 32  1  0  0  0
 30 28  1  0  0  0
 30 31  1  0  0  0
 31 25  1  0  0  0
M  CHG 1  28   1
M  END
> <minimizedAffinity>
-8.66150

$$$$
/home/hjpark/lecture_drug1/0905_agent/pde5_harness/sample_run/structures/work/ligand_ref.pdb


 35 38  0  0  0  0  0  0  0  0999 V2000
    0.5293   65.3291   82.5026 C   0  0  0  0  0  0  0  0  0  0  0  0
    0.6696   66.4361   81.5785 C   0  0  0  0  0  0  0  0  0  0  0  0
    1.3225   67.6793   81.9827 C   0  0  0  0  0  0  0  0  0  0  0  0
    1.8437   67.7607   83.3843 C   0  0  0  0  0  0  0  0  0  0  0  0
    1.7118   66.6576   84.3303 C   0  0  0  0  0  0  0  0  0  0  0  0
    1.0430   65.4099   83.9140 C   0  0  0  0  0  0  0  0  0  0  0  0
   -0.6627   61.8109   79.1501 C   0  0  0  0  0  0  0  0  0  0  0  0
   -1.5753   60.7543   79.2682 N   0  0  0  0  0  0  0  0  0  0  0  0
   -2.1458   60.7955   80.5075 N   0  0  0  0  0  0  0  0  0  0  0  0
   -3.1502   59.8249   80.9513 C   0  0  0  0  0  0  0  0  0  0  0  0
   -1.6019   61.8656   81.1717 C   0  0  0  0  0  0  0  0  0  0  0  0
   -1.7902   62.4183   82.4835 C   0  0  0  0  0  0  0  0  0  0  0  0
   -2.5572   61.9519   83.2942 O   0  0  0  0  0  0  0  0  0  0  0  0
   -1.0570   63.5478   82.8409 N   0  0  0  0  0  0  0  0  0  0  0  0
   -0.1369   64.1810   81.9937 C   0  0  0  0  0  0  0  0  0  0  0  0
    0.0837   63.6762   80.7069 N   0  0  0  0  0  0  0  0  0  0  0  0
   -0.6598   62.5234   80.3257 C   0  0  0  0  0  0  0  0  0  0  0  0
    0.7252   64.1000   80.0920 H   0  0  0  0  0  0  0  0  0  0  0  0
    0.1670   62.0950   77.9399 C   0  0  0  0  0  0  0  0  0  0  0  0
   -0.4831   64.4102   77.0981 C   0  0  0  0  0  0  0  0  0  0  0  0
   -0.8029   62.9406   77.0454 C   0  0  0  0  0  0  0  0  0  0  0  0
    1.4580   68.9171   80.9762 S   0  0  0  0  0  0  0  0  0  0  0  0
    1.8949   68.6355   79.7627 O   0  0  0  0  0  0  0  0  0  0  0  0
    0.2772   69.4605   80.7961 O   0  0  0  0  0  0  0  0  0  0  0  0
    2.4460   69.8528   81.7991 N   0  0  0  0  0  0  0  0  0  0  0  0
    1.8875   71.2944   82.1201 C   0  0  0  0  0  0  0  0  0  0  0  0
    2.0280   72.3679   81.0236 C   0  0  0  0  0  0  0  0  0  0  0  0
    3.2934   72.3282   80.2153 N   0  0  0  0  0  0  0  0  0  0  0  0
    4.0782   73.5669   80.5115 C   0  0  0  0  0  0  0  0  0  0  0  0
    4.2135   71.1101   80.3259 C   0  0  0  0  0  0  0  0  0  0  0  0
    3.9081   70.0418   81.4434 C   0  0  0  0  0  0  0  0  0  0  0  0
    2.9568   72.2587   79.2549 H   0  0  0  0  0  0  0  0  0  0  0  0
    0.8431   64.2712   84.7847 O   0  0  0  0  0  0  0  0  0  0  0  0
    0.5250   64.3488   86.1887 C   0  0  0  0  0  0  0  0  0  0  0  0
   -0.5028   63.2535   86.4193 C   0  0  0  0  0  0  0  0  0  0  0  0
 20 21  1  0  0  0
 21 19  1  0  0  0
 19  7  1  0  0  0
  7 17  1  0  0  0
  7  8  2  0  0  0
  8  9  1  0  0  0
  9 10  1  0  0  0
 11  9  1  0  0  0
 11 12  1  0  0  0
 12 13  2  0  0  0
 14 12  1  0  0  0
 15 14  2  0  0  0
 16 17  1  0  0  0
 16 15  1  0  0  0
 16 18  1  0  0  0
 17 11  2  0  0  0
  1 15  1  0  0  0
  1  6  1  0  0  0
  2  1  2  0  0  0
  3  2  1  0  0  0
  3  4  2  0  0  0
  4  5  1  0  0  0
  5  6  2  0  0  0
  6 33  1  0  0  0
 33 34  1  0  0  0
 34 35  1  0  0  0
 22 24  2  0  0  0
 22 25  1  0  0  0
 22  3  1  0  0  0
 23 22  2  0  0  0
 25 26  1  0  0  0
 27 26  1  0  0  0
 28 29  1  0  0  0
 28 27  1  0  0  0
 28 32  1  0  0  0
 30 28  1  0  0  0
 30 31  1  0  0  0
 31 25  1  0  0  0
M  CHG 1  28   1
M  END
> <minimizedAffinity>
-8.65530

$$$$
/home/hjpark/lecture_drug1/0905_agent/pde5_harness/sample_run/structures/work/ligand_ref.pdb


 35 38  0  0  0  0  0  0  0  0999 V2000
    0.2851   63.9442   84.3108 C   0  0  0  0  0  0  0  0  0  0  0  0
    0.0656   63.2460   83.0606 C   0  0  0  0  0  0  0  0  0  0  0  0
   -0.9074   62.1602   82.9626 C   0  0  0  0  0  0  0  0  0  0  0  0
   -1.6697   61.8032   84.2013 C   0  0  0  0  0  0  0  0  0  0  0  0
   -1.4629   62.4936   85.4700 C   0  0  0  0  0  0  0  0  0  0  0  0
   -0.4716   63.5828   85.5596 C   0  0  0  0  0  0  0  0  0  0  0  0
    2.3333   68.3136   82.9873 C   0  0  0  0  0  0  0  0  0  0  0  0
    3.5731   68.8528   83.3548 N   0  0  0  0  0  0  0  0  0  0  0  0
    4.2090   67.9789   84.1884 N   0  0  0  0  0  0  0  0  0  0  0  0
    5.5349   68.2437   84.7538 C   0  0  0  0  0  0  0  0  0  0  0  0
    3.3830   66.8957   84.3510 C   0  0  0  0  0  0  0  0  0  0  0  0
    3.4866   65.6727   85.0961 C   0  0  0  0  0  0  0  0  0  0  0  0
    4.4462   65.3919   85.7769 O   0  0  0  0  0  0  0  0  0  0  0  0
    2.4334   64.7629   85.0310 N   0  0  0  0  0  0  0  0  0  0  0  0
    1.2680   64.9708   84.2800 C   0  0  0  0  0  0  0  0  0  0  0  0
    1.1196   66.1500   83.5405 N   0  0  0  0  0  0  0  0  0  0  0  0
    2.1885   67.0891   83.5948 C   0  0  0  0  0  0  0  0  0  0  0  0
    0.3111   66.3226   83.0060 H   0  0  0  0  0  0  0  0  0  0  0  0
    1.3422   68.9792   82.0880 C   0  0  0  0  0  0  0  0  0  0  0  0
    1.8103   67.5537   80.0287 C   0  0  0  0  0  0  0  0  0  0  0  0
    2.0334   68.8899   80.6843 C   0  0  0  0  0  0  0  0  0  0  0  0
   -1.1370   61.3656   81.5917 S   0  0  0  0  0  0  0  0  0  0  0  0
   -0.0539   60.8886   81.0068 O   0  0  0  0  0  0  0  0  0  0  0  0
   -1.8916   60.3165   81.8200 O   0  0  0  0  0  0  0  0  0  0  0  0
   -1.8776   62.4796   80.7318 N   0  0  0  0  0  0  0  0  0  0  0  0
   -3.3522   62.1176   80.2986 C   0  0  0  0  0  0  0  0  0  0  0  0
   -3.5261   61.2464   79.0396 C   0  0  0  0  0  0  0  0  0  0  0  0
   -2.5660   61.5080   77.9146 N   0  0  0  0  0  0  0  0  0  0  0  0
   -3.3384   62.0558   76.7564 C   0  0  0  0  0  0  0  0  0  0  0  0
   -1.3415   62.3910   78.1666 C   0  0  0  0  0  0  0  0  0  0  0  0
   -1.2484   63.1668   79.5351 C   0  0  0  0  0  0  0  0  0  0  0  0
   -2.1435   60.5944   77.7488 H   0  0  0  0  0  0  0  0  0  0  0  0
   -0.1784   64.3104   86.7760 O   0  0  0  0  0  0  0  0  0  0  0  0
    0.4933   63.7611   87.9273 C   0  0  0  0  0  0  0  0  0  0  0  0
   -0.6228   63.2954   88.8475 C   0  0  0  0  0  0  0  0  0  0  0  0
 20 21  1  0  0  0
 21 19  1  0  0  0
 19  7  1  0  0  0
  7 17  1  0  0  0
  7  8  2  0  0  0
  8  9  1  0  0  0
  9 10  1  0  0  0
 11  9  1  0  0  0
 11 12  1  0  0  0
 12 13  2  0  0  0
 14 12  1  0  0  0
 15 14  2  0  0  0
 16 17  1  0  0  0
 16 15  1  0  0  0
 16 18  1  0  0  0
 17 11  2  0  0  0
  1 15  1  0  0  0
  1  6  1  0  0  0
  2  1  2  0  0  0
  3  2  1  0  0  0
  3  4  2  0  0  0
  4  5  1  0  0  0
  5  6  2  0  0  0
  6 33  1  0  0  0
 33 34  1  0  0  0
 34 35  1  0  0  0
 22 24  2  0  0  0
 22 25  1  0  0  0
 22  3  1  0  0  0
 23 22  2  0  0  0
 25 26  1  0  0  0
 27 26  1  0  0  0
 28 29  1  0  0  0
 28 27  1  0  0  0
 28 32  1  0  0  0
 30 28  1  0  0  0
 30 31  1  0  0  0
 31 25  1  0  0  0
M  CHG 1  28   1
M  END
> <minimizedAffinity>
-8.62882

$$$$
/home/hjpark/lecture_drug1/0905_agent/pde5_harness/sample_run/structures/work/ligand_ref.pdb


 35 38  0  0  0  0  0  0  0  0999 V2000
    0.9006   65.5074   83.0372 C   0  0  0  0  0  0  0  0  0  0  0  0
    0.5058   64.9610   81.7548 C   0  0  0  0  0  0  0  0  0  0  0  0
    0.7993   65.6679   80.5101 C   0  0  0  0  0  0  0  0  0  0  0  0
    1.5268   66.9728   80.6129 C   0  0  0  0  0  0  0  0  0  0  0  0
    1.9324   67.5404   81.8945 C   0  0  0  0  0  0  0  0  0  0  0  0
    1.6232   66.8221   83.1458 C   0  0  0  0  0  0  0  0  0  0  0  0
   -1.8359   62.3252   85.7618 C   0  0  0  0  0  0  0  0  0  0  0  0
   -1.6276   61.8854   87.0757 N   0  0  0  0  0  0  0  0  0  0  0  0
   -0.4956   62.4694   87.5662 N   0  0  0  0  0  0  0  0  0  0  0  0
    0.0028   62.2194   88.9215 C   0  0  0  0  0  0  0  0  0  0  0  0
    0.0119   63.2714   86.5756 C   0  0  0  0  0  0  0  0  0  0  0  0
    1.1622   64.1258   86.4835 C   0  0  0  0  0  0  0  0  0  0  0  0
    1.9500   64.2748   87.3891 O   0  0  0  0  0  0  0  0  0  0  0  0
    1.3819   64.8197   85.2955 N   0  0  0  0  0  0  0  0  0  0  0  0
    0.5448   64.7319   84.1743 C   0  0  0  0  0  0  0  0  0  0  0  0
   -0.5865   63.9085   84.2152 N   0  0  0  0  0  0  0  0  0  0  0  0
   -0.8262   63.1944   85.4234 C   0  0  0  0  0  0  0  0  0  0  0  0
   -1.1903   63.8268   83.4420 H   0  0  0  0  0  0  0  0  0  0  0  0
   -2.9709   61.9016   84.8864 C   0  0  0  0  0  0  0  0  0  0  0  0
   -3.0574   60.4726   82.7788 C   0  0  0  0  0  0  0  0  0  0  0  0
   -2.2468   61.4662   83.5665 C   0  0  0  0  0  0  0  0  0  0  0  0
    0.3431   65.0843   79.0906 S   0  0  0  0  0  0  0  0  0  0  0  0
   -0.7084   65.6582   78.5359 O   0  0  0  0  0  0  0  0  0  0  0  0
    1.3155   65.2433   78.2239 O   0  0  0  0  0  0  0  0  0  0  0  0
    0.1006   63.5589   79.4690 N   0  0  0  0  0  0  0  0  0  0  0  0
    0.8197   62.5152   78.5272 C   0  0  0  0  0  0  0  0  0  0  0  0
    0.1101   62.1436   77.2109 C   0  0  0  0  0  0  0  0  0  0  0  0
   -1.3869   62.0375   77.2719 N   0  0  0  0  0  0  0  0  0  0  0  0
   -1.7663   60.6104   77.0321 C   0  0  0  0  0  0  0  0  0  0  0  0
   -2.1233   62.5534   78.5105 C   0  0  0  0  0  0  0  0  0  0  0  0
   -1.2692   62.9789   79.7646 C   0  0  0  0  0  0  0  0  0  0  0  0
   -1.6982   62.6865   76.5491 H   0  0  0  0  0  0  0  0  0  0  0  0
    1.9623   67.3136   84.4643 O   0  0  0  0  0  0  0  0  0  0  0  0
    2.9644   68.3118   84.7428 C   0  0  0  0  0  0  0  0  0  0  0  0
    4.2657   67.5369   84.8683 C   0  0  0  0  0  0  0  0  0  0  0  0
 20 21  1  0  0  0
 21 19  1  0  0  0
 19  7  1  0  0  0
  7 17  1  0  0  0
  7  8  2  0  0  0
  8  9  1  0  0  0
  9 10  1  0  0  0
 11  9  1  0  0  0
 11 12  1  0  0  0
 12 13  2  0  0  0
 14 12  1  0  0  0
 15 14  2  0  0  0
 16 17  1  0  0  0
 16 15  1  0  0  0
 16 18  1  0  0  0
 17 11  2  0  0  0
  1 15  1  0  0  0
  1  6  1  0  0  0
  2  1  2  0  0  0
  3  2  1  0  0  0
  3  4  2  0  0  0
  4  5  1  0  0  0
  5  6  2  0  0  0
  6 33  1  0  0  0
 33 34  1  0  0  0
 34 35  1  0  0  0
 22 24  2  0  0  0
 22 25  1  0  0  0
 22  3  1  0  0  0
 23 22  2  0  0  0
 25 26  1  0  0  0
 27 26  1  0  0  0
 28 29  1  0  0  0
 28 27  1  0  0  0
 28 32  1  0  0  0
 30 28  1  0  0  0
 30 31  1  0  0  0
 31 25  1  0  0  0
M  CHG 1  28   1
M  END
> <minimizedAffinity>
-8.58074

$$$$
/home/hjpark/lecture_drug1/0905_agent/pde5_harness/sample_run/structures/work/ligand_ref.pdb


 35 38  0  0  0  0  0  0  0  0999 V2000
    1.2572   66.2260   81.9772 C   0  0  0  0  0  0  0  0  0  0  0  0
    1.6974   67.4357   81.3124 C   0  0  0  0  0  0  0  0  0  0  0  0
    2.3399   68.5160   82.0577 C   0  0  0  0  0  0  0  0  0  0  0  0
    2.5290   68.3206   83.5304 C   0  0  0  0  0  0  0  0  0  0  0  0
    2.0923   67.1104   84.2186 C   0  0  0  0  0  0  0  0  0  0  0  0
    1.4369   66.0294   83.4575 C   0  0  0  0  0  0  0  0  0  0  0  0
   -0.7713   61.8107   80.7821 C   0  0  0  0  0  0  0  0  0  0  0  0
   -1.2964   61.3855   79.5546 N   0  0  0  0  0  0  0  0  0  0  0  0
   -1.1864   62.4001   78.6482 N   0  0  0  0  0  0  0  0  0  0  0  0
   -1.6435   62.2779   77.2612 C   0  0  0  0  0  0  0  0  0  0  0  0
   -0.5988   63.4599   79.2914 C   0  0  0  0  0  0  0  0  0  0  0  0
   -0.2268   64.7852   78.8827 C   0  0  0  0  0  0  0  0  0  0  0  0
   -0.4065   65.2074   77.7636 O   0  0  0  0  0  0  0  0  0  0  0  0
    0.3726   65.6260   79.8181 N   0  0  0  0  0  0  0  0  0  0  0  0
    0.6338   65.2565   81.1450 C   0  0  0  0  0  0  0  0  0  0  0  0
    0.2852   63.9763   81.5909 N   0  0  0  0  0  0  0  0  0  0  0  0
   -0.3262   63.1041   80.6460 C   0  0  0  0  0  0  0  0  0  0  0  0
    0.4555   63.6912   82.5176 H   0  0  0  0  0  0  0  0  0  0  0  0
   -0.7195   60.9820   82.0249 C   0  0  0  0  0  0  0  0  0  0  0  0
   -3.1276   60.3542   82.5711 C   0  0  0  0  0  0  0  0  0  0  0  0
   -2.0435   61.3804   82.7625 C   0  0  0  0  0  0  0  0  0  0  0  0
    2.8051   69.8672   81.3356 S   0  0  0  0  0  0  0  0  0  0  0  0
    4.1042   70.0102   81.1495 O   0  0  0  0  0  0  0  0  0  0  0  0
    2.2805   69.9192   80.1339 O   0  0  0  0  0  0  0  0  0  0  0  0
    2.1880   70.9504   82.3228 N   0  0  0  0  0  0  0  0  0  0  0  0
    0.7065   71.3863   81.9935 C   0  0  0  0  0  0  0  0  0  0  0  0
    0.5112   72.4750   80.9207 C   0  0  0  0  0  0  0  0  0  0  0  0
    1.5305   73.5781   80.9024 N   0  0  0  0  0  0  0  0  0  0  0  0
    0.8478   74.8540   81.2821 C   0  0  0  0  0  0  0  0  0  0  0  0
    2.8109   73.4269   81.7272 C   0  0  0  0  0  0  0  0  0  0  0  0
    2.9141   72.2175   82.7322 C   0  0  0  0  0  0  0  0  0  0  0  0
    1.8850   73.5548   79.9462 H   0  0  0  0  0  0  0  0  0  0  0  0
    0.9485   64.8038   84.0527 O   0  0  0  0  0  0  0  0  0  0  0  0
    0.5553   64.6527   85.4314 C   0  0  0  0  0  0  0  0  0  0  0  0
   -0.3734   63.4499   85.4450 C   0  0  0  0  0  0  0  0  0  0  0  0
 20 21  1  0  0  0
 21 19  1  0  0  0
 19  7  1  0  0  0
  7 17  1  0  0  0
  7  8  2  0  0  0
  8  9  1  0  0  0
  9 10  1  0  0  0
 11  9  1  0  0  0
 11 12  1  0  0  0
 12 13  2  0  0  0
 14 12  1  0  0  0
 15 14  2  0  0  0
 16 17  1  0  0  0
 16 15  1  0  0  0
 16 18  1  0  0  0
 17 11  2  0  0  0
  1 15  1  0  0  0
  1  6  1  0  0  0
  2  1  2  0  0  0
  3  2  1  0  0  0
  3  4  2  0  0  0
  4  5  1  0  0  0
  5  6  2  0  0  0
  6 33  1  0  0  0
 33 34  1  0  0  0
 34 35  1  0  0  0
 22 24  2  0  0  0
 22 25  1  0  0  0
 22  3  1  0  0  0
 23 22  2  0  0  0
 25 26  1  0  0  0
 27 26  1  0  0  0
 28 29  1  0  0  0
 28 27  1  0  0  0
 28 32  1  0  0  0
 30 28  1  0  0  0
 30 31  1  0  0  0
 31 25  1  0  0  0
M  CHG 1  28   1
M  END
> <minimizedAffinity>
-8.55391

$$$$
/home/hjpark/lecture_drug1/0905_agent/pde5_harness/sample_run/structures/work/ligand_ref.pdb


 35 38  0  0  0  0  0  0  0  0999 V2000
   -0.7101   64.0820   82.8480 C   0  0  0  0  0  0  0  0  0  0  0  0
   -1.5220   63.4501   81.8280 C   0  0  0  0  0  0  0  0  0  0  0  0
   -2.3157   62.2596   82.1246 C   0  0  0  0  0  0  0  0  0  0  0  0
   -2.2604   61.7241   83.5221 C   0  0  0  0  0  0  0  0  0  0  0  0
   -1.4487   62.3454   84.5633 C   0  0  0  0  0  0  0  0  0  0  0  0
   -0.6443   63.5422   84.2505 C   0  0  0  0  0  0  0  0  0  0  0  0
    2.5431   67.8613   83.2621 C   0  0  0  0  0  0  0  0  0  0  0  0
    2.8840   68.8381   82.3172 N   0  0  0  0  0  0  0  0  0  0  0  0
    2.1710   68.6194   81.1740 N   0  0  0  0  0  0  0  0  0  0  0  0
    2.2941   69.4701   79.9871 C   0  0  0  0  0  0  0  0  0  0  0  0
    1.3856   67.5150   81.3880 C   0  0  0  0  0  0  0  0  0  0  0  0
    0.4365   66.8018   80.5805 C   0  0  0  0  0  0  0  0  0  0  0  0
    0.1630   67.1185   79.4456 O   0  0  0  0  0  0  0  0  0  0  0  0
   -0.2034   65.6927   81.1296 N   0  0  0  0  0  0  0  0  0  0  0  0
    0.0264   65.2241   82.4308 C   0  0  0  0  0  0  0  0  0  0  0  0
    0.9460   65.8842   83.2542 N   0  0  0  0  0  0  0  0  0  0  0  0
    1.6067   67.0211   82.7083 C   0  0  0  0  0  0  0  0  0  0  0  0
    1.1280   65.5757   84.1712 H   0  0  0  0  0  0  0  0  0  0  0  0
    3.1196   67.7618   84.6375 C   0  0  0  0  0  0  0  0  0  0  0  0
    5.2967   66.4411   84.5505 C   0  0  0  0  0  0  0  0  0  0  0  0
    4.6633   67.7943   84.3695 C   0  0  0  0  0  0  0  0  0  0  0  0
   -3.1947   61.5395   80.9966 S   0  0  0  0  0  0  0  0  0  0  0  0
   -3.3608   60.2368   81.1314 O   0  0  0  0  0  0  0  0  0  0  0  0
   -4.4074   62.0409   81.0063 O   0  0  0  0  0  0  0  0  0  0  0  0
   -2.3756   61.9377   79.6930 N   0  0  0  0  0  0  0  0  0  0  0  0
   -3.1762   61.8129   78.3377 C   0  0  0  0  0  0  0  0  0  0  0  0
   -3.2466   60.4197   77.6832 C   0  0  0  0  0  0  0  0  0  0  0  0
   -2.0076   59.5766   77.7839 N   0  0  0  0  0  0  0  0  0  0  0  0
   -1.4507   59.3947   76.4074 C   0  0  0  0  0  0  0  0  0  0  0  0
   -0.8839   60.0086   78.7291 C   0  0  0  0  0  0  0  0  0  0  0  0
   -0.9763   61.4322   79.3985 C   0  0  0  0  0  0  0  0  0  0  0  0
   -2.3419   58.7188   78.2231 H   0  0  0  0  0  0  0  0  0  0  0  0
    0.2090   64.2147   85.2068 O   0  0  0  0  0  0  0  0  0  0  0  0
    0.6919   63.6356   86.4355 C   0  0  0  0  0  0  0  0  0  0  0  0
   -0.2900   64.0975   87.4994 C   0  0  0  0  0  0  0  0  0  0  0  0
 20 21  1  0  0  0
 21 19  1  0  0  0
 19  7  1  0  0  0
  7 17  1  0  0  0
  7  8  2  0  0  0
  8  9  1  0  0  0
  9 10  1  0  0  0
 11  9  1  0  0  0
 11 12  1  0  0  0
 12 13  2  0  0  0
 14 12  1  0  0  0
 15 14  2  0  0  0
 16 17  1  0  0  0
 16 15  1  0  0  0
 16 18  1  0  0  0
 17 11  2  0  0  0
  1 15  1  0  0  0
  1  6  1  0  0  0
  2  1  2  0  0  0
  3  2  1  0  0  0
  3  4  2  0  0  0
  4  5  1  0  0  0
  5  6  2  0  0  0
  6 33  1  0  0  0
 33 34  1  0  0  0
 34 35  1  0  0  0
 22 24  2  0  0  0
 22 25  1  0  0  0
 22  3  1  0  0  0
 23 22  2  0  0  0
 25 26  1  0  0  0
 27 26  1  0  0  0
 28 29  1  0  0  0
 28 27  1  0  0  0
 28 32  1  0  0  0
 30 28  1  0  0  0
 30 31  1  0  0  0
 31 25  1  0  0  0
M  CHG 1  28   1
M  END
> <minimizedAffinity>
-8.41059

$$$$
/home/hjpark/lecture_drug1/0905_agent/pde5_harness/sample_run/structures/work/ligand_ref.pdb


 35 38  0  0  0  0  0  0  0  0999 V2000
    2.2991   66.9644   83.7804 C   0  0  0  0  0  0  0  0  0  0  0  0
    1.7324   68.1279   83.1292 C   0  0  0  0  0  0  0  0  0  0  0  0
    2.5567   69.2916   82.8108 C   0  0  0  0  0  0  0  0  0  0  0  0
    4.0071   69.2311   83.1788 C   0  0  0  0  0  0  0  0  0  0  0  0
    4.5969   68.0692   83.8355 C   0  0  0  0  0  0  0  0  0  0  0  0
    3.7532   66.9029   84.1602 C   0  0  0  0  0  0  0  0  0  0  0  0
   -0.2465   63.6849   86.5738 C   0  0  0  0  0  0  0  0  0  0  0  0
   -1.1566   62.7003   86.1671 N   0  0  0  0  0  0  0  0  0  0  0  0
   -1.2833   62.7454   84.8088 N   0  0  0  0  0  0  0  0  0  0  0  0
   -2.1626   61.8404   84.0635 C   0  0  0  0  0  0  0  0  0  0  0  0
   -0.4639   63.7481   84.3556 C   0  0  0  0  0  0  0  0  0  0  0  0
   -0.1674   64.2736   83.0527 C   0  0  0  0  0  0  0  0  0  0  0  0
   -0.6688   63.8477   82.0376 O   0  0  0  0  0  0  0  0  0  0  0  0
    0.7435   65.3228   82.9501 N   0  0  0  0  0  0  0  0  0  0  0  0
    1.3910   65.9042   84.0493 C   0  0  0  0  0  0  0  0  0  0  0  0
    1.1309   65.4284   85.3398 N   0  0  0  0  0  0  0  0  0  0  0  0
    0.2038   64.3547   85.4611 C   0  0  0  0  0  0  0  0  0  0  0  0
    1.5701   65.8193   86.1294 H   0  0  0  0  0  0  0  0  0  0  0  0
    0.1504   63.9522   87.9898 C   0  0  0  0  0  0  0  0  0  0  0  0
    0.2486   61.8643   89.4467 C   0  0  0  0  0  0  0  0  0  0  0  0
   -0.6557   62.8695   88.7860 C   0  0  0  0  0  0  0  0  0  0  0  0
    1.9330   70.5920   82.1154 S   0  0  0  0  0  0  0  0  0  0  0  0
    0.8034   71.0419   82.6296 O   0  0  0  0  0  0  0  0  0  0  0  0
    2.7787   71.5895   82.2244 O   0  0  0  0  0  0  0  0  0  0  0  0
    1.7814   70.0757   80.6190 N   0  0  0  0  0  0  0  0  0  0  0  0
    0.2956   69.8255   80.1467 C   0  0  0  0  0  0  0  0  0  0  0  0
   -0.3466   68.4747   80.5169 C   0  0  0  0  0  0  0  0  0  0  0  0
    0.5579   67.2763   80.4726 N   0  0  0  0  0  0  0  0  0  0  0  0
    0.0876   66.3739   79.3760 C   0  0  0  0  0  0  0  0  0  0  0  0
    2.0686   67.4842   80.3411 C   0  0  0  0  0  0  0  0  0  0  0  0
    2.5998   68.9371   80.0410 C   0  0  0  0  0  0  0  0  0  0  0  0
    0.4742   66.8838   81.4103 H   0  0  0  0  0  0  0  0  0  0  0  0
    4.2393   65.7158   84.8304 O   0  0  0  0  0  0  0  0  0  0  0  0
    5.5725   65.5475   85.3525 C   0  0  0  0  0  0  0  0  0  0  0  0
    5.3797   64.9407   86.7323 C   0  0  0  0  0  0  0  0  0  0  0  0
 20 21  1  0  0  0
 21 19  1  0  0  0
 19  7  1  0  0  0
  7 17  1  0  0  0
  7  8  2  0  0  0
  8  9  1  0  0  0
  9 10  1  0  0  0
 11  9  1  0  0  0
 11 12  1  0  0  0
 12 13  2  0  0  0
 14 12  1  0  0  0
 15 14  2  0  0  0
 16 17  1  0  0  0
 16 15  1  0  0  0
 16 18  1  0  0  0
 17 11  2  0  0  0
  1 15  1  0  0  0
  1  6  1  0  0  0
  2  1  2  0  0  0
  3  2  1  0  0  0
  3  4  2  0  0  0
  4  5  1  0  0  0
  5  6  2  0  0  0
  6 33  1  0  0  0
 33 34  1  0  0  0
 34 35  1  0  0  0
 22 24  2  0  0  0
 22 25  1  0  0  0
 22  3  1  0  0  0
 23 22  2  0  0  0
 25 26  1  0  0  0
 27 26  1  0  0  0
 28 29  1  0  0  0
 28 27  1  0  0  0
 28 32  1  0  0  0
 30 28  1  0  0  0
 30 31  1  0  0  0
 31 25  1  0  0  0
M  CHG 1  28   1
M  END
> <minimizedAffinity>
-8.26029

$$$$
/home/hjpark/lecture_drug1/0905_agent/pde5_harness/sample_run/structures/work/ligand_ref.pdb


 35 38  0  0  0  0  0  0  0  0999 V2000
    0.9550   66.8772   81.2372 C   0  0  0  0  0  0  0  0  0  0  0  0
    0.6062   66.2184   79.9949 C   0  0  0  0  0  0  0  0  0  0  0  0
    0.2618   64.7986   79.9638 C   0  0  0  0  0  0  0  0  0  0  0  0
    0.2787   64.0560   81.2642 C   0  0  0  0  0  0  0  0  0  0  0  0
    0.6278   64.7010   82.5257 C   0  0  0  0  0  0  0  0  0  0  0  0
    0.9823   66.1332   82.5441 C   0  0  0  0  0  0  0  0  0  0  0  0
    0.1055   71.7984   80.9230 C   0  0  0  0  0  0  0  0  0  0  0  0
    1.0284   72.8464   80.8087 N   0  0  0  0  0  0  0  0  0  0  0  0
    2.2911   72.3281   80.7968 N   0  0  0  0  0  0  0  0  0  0  0  0
    3.4904   73.1629   80.6854 C   0  0  0  0  0  0  0  0  0  0  0  0
    2.1738   70.9654   80.9033 C   0  0  0  0  0  0  0  0  0  0  0  0
    3.1229   69.8889   80.9478 C   0  0  0  0  0  0  0  0  0  0  0  0
    4.3192   70.0588   80.8915 O   0  0  0  0  0  0  0  0  0  0  0  0
    2.6451   68.5849   81.0583 N   0  0  0  0  0  0  0  0  0  0  0  0
    1.2842   68.2563   81.1330 C   0  0  0  0  0  0  0  0  0  0  0  0
    0.3216   69.2720   81.0977 N   0  0  0  0  0  0  0  0  0  0  0  0
    0.7941   70.6102   80.9827 C   0  0  0  0  0  0  0  0  0  0  0  0
   -0.6404   69.0698   81.1502 H   0  0  0  0  0  0  0  0  0  0  0  0
   -1.3787   71.9660   80.9770 C   0  0  0  0  0  0  0  0  0  0  0  0
   -2.9373   72.5748   79.0556 C   0  0  0  0  0  0  0  0  0  0  0  0
   -1.6628   72.9288   79.7736 C   0  0  0  0  0  0  0  0  0  0  0  0
   -0.0989   64.0566   78.5917 S   0  0  0  0  0  0  0  0  0  0  0  0
   -0.8204   64.7473   77.7285 O   0  0  0  0  0  0  0  0  0  0  0  0
    1.0095   63.7639   77.9529 O   0  0  0  0  0  0  0  0  0  0  0  0
   -0.8465   62.7677   79.1473 N   0  0  0  0  0  0  0  0  0  0  0  0
   -0.3090   61.3919   78.5891 C   0  0  0  0  0  0  0  0  0  0  0  0
   -0.8441   60.9258   77.2213 C   0  0  0  0  0  0  0  0  0  0  0  0
   -2.2903   61.2185   76.9405 N   0  0  0  0  0  0  0  0  0  0  0  0
   -3.0243   59.9177   76.8556 C   0  0  0  0  0  0  0  0  0  0  0  0
   -3.0542   62.1688   77.8656 C   0  0  0  0  0  0  0  0  0  0  0  0
   -2.3564   62.6350   79.1994 C   0  0  0  0  0  0  0  0  0  0  0  0
   -2.2583   61.7454   76.0676 H   0  0  0  0  0  0  0  0  0  0  0  0
    1.3648   66.8554   83.7387 O   0  0  0  0  0  0  0  0  0  0  0  0
    2.6808   66.8435   84.3272 C   0  0  0  0  0  0  0  0  0  0  0  0
    3.0098   68.3051   84.5819 C   0  0  0  0  0  0  0  0  0  0  0  0
 20 21  1  0  0  0
 21 19  1  0  0  0
 19  7  1  0  0  0
  7 17  1  0  0  0
  7  8  2  0  0  0
  8  9  1  0  0  0
  9 10  1  0  0  0
 11  9  1  0  0  0
 11 12  1  0  0  0
 12 13  2  0  0  0
 14 12  1  0  0  0
 15 14  2  0  0  0
 16 17  1  0  0  0
 16 15  1  0  0  0
 16 18  1  0  0  0
 17 11  2  0  0  0
  1 15  1  0  0  0
  1  6  1  0  0  0
  2  1  2  0  0  0
  3  2  1  0  0  0
  3  4  2  0  0  0
  4  5  1  0  0  0
  5  6  2  0  0  0
  6 33  1  0  0  0
 33 34  1  0  0  0
 34 35  1  0  0  0
 22 24  2  0  0  0
 22 25  1  0  0  0
 22  3  1  0  0  0
 23 22  2  0  0  0
 25 26  1  0  0  0
 27 26  1  0  0  0
 28 29  1  0  0  0
 28 27  1  0  0  0
 28 32  1  0  0  0
 30 28  1  0  0  0
 30 31  1  0  0  0
 31 25  1  0  0  0
M  CHG 1  28   1
M  END
> <minimizedAffinity>
-8.18082

$$$$
