/home/hjpark/lecture_drug1/0905_agent/pde5_harness/sample_run/structures/work/ligand_ref.pdb


 35 38  0  0  0  0  0  0  0  0999 V2000
    0.4105   64.1435   83.8799 C   0  0  0  0  0  0  0  0  0  0  0  0
    0.1392   63.4037   82.6642 C   0  0  0  0  0  0  0  0  0  0  0  0
   -0.6982   62.2063   82.6797 C   0  0  0  0  0  0  0  0  0  0  0  0
   -1.2669   61.7793   83.9977 C   0  0  0  0  0  0  0  0  0  0  0  0
   -1.0051   62.5101   85.2332 C   0  0  0  0  0  0  0  0  0  0  0  0
   -0.1510   63.7130   85.2073 C   0  0  0  0  0  0  0  0  0  0  0  0
    4.3066   67.1358   84.8311 C   0  0  0  0  0  0  0  0  0  0  0  0
    4.6381   68.3643   84.2444 N   0  0  0  0  0  0  0  0  0  0  0  0
    3.7009   68.6745   83.3018 N   0  0  0  0  0  0  0  0  0  0  0  0
    3.7552   69.9019   82.5029 C   0  0  0  0  0  0  0  0  0  0  0  0
    2.7834   67.6547   83.2876 C   0  0  0  0  0  0  0  0  0  0  0  0
    1.5908   67.4044   82.5280 C   0  0  0  0  0  0  0  0  0  0  0  0
    1.1757   68.1602   81.6798 O   0  0  0  0  0  0  0  0  0  0  0  0
    0.8743   66.2365   82.7806 N   0  0  0  0  0  0  0  0  0  0  0  0
    1.2504   65.2814   83.7354 C   0  0  0  0  0  0  0  0  0  0  0  0
    2.4078   65.4796   84.4974 N   0  0  0  0  0  0  0  0  0  0  0  0
    3.1500   66.6697   84.2527 C   0  0  0  0  0  0  0  0  0  0  0  0
    2.6961   64.8245   85.1732 H   0  0  0  0  0  0  0  0  0  0  0  0
    5.0974   66.4570   85.9025 C   0  0  0  0  0  0  0  0  0  0  0  0
    7.3951   65.9338   84.9338 C   0  0  0  0  0  0  0  0  0  0  0  0
    5.9804   65.4460   85.0938 C   0  0  0  0  0  0  0  0  0  0  0  0
   -0.9813   61.3677   81.3455 S   0  0  0  0  0  0  0  0  0  0  0  0
    0.0803   60.8971   80.7175 O   0  0  0  0  0  0  0  0  0  0  0  0
   -1.6988   60.3099   81.6425 O   0  0  0  0  0  0  0  0  0  0  0  0
   -1.7909   62.4404   80.4954 N   0  0  0  0  0  0  0  0  0  0  0  0
   -3.2787   62.0364   80.1542 C   0  0  0  0  0  0  0  0  0  0  0  0
   -3.5016   61.1245   78.9323 C   0  0  0  0  0  0  0  0  0  0  0  0
   -2.6095   61.3711   77.7493 N   0  0  0  0  0  0  0  0  0  0  0  0
   -3.4549   61.8685   76.6198 C   0  0  0  0  0  0  0  0  0  0  0  0
   -1.3924   62.2855   77.9084 C   0  0  0  0  0  0  0  0  0  0  0  0
   -1.2421   63.1037   79.2468 C   0  0  0  0  0  0  0  0  0  0  0  0
   -2.1771   60.4616   77.5872 H   0  0  0  0  0  0  0  0  0  0  0  0
    0.1855   64.4903   86.3809 O   0  0  0  0  0  0  0  0  0  0  0  0
   -0.2316   64.1811   87.7258 C   0  0  0  0  0  0  0  0  0  0  0  0
    0.8966   63.3427   88.3035 C   0  0  0  0  0  0  0  0  0  0  0  0
 20 21  1  0  0  0
 21 19  1  0  0  0
 19  7  1  0  0  0
  7 17  1  0  0  0
  7  8  2  0  0  0
  8  9  1  0  0  0
  9 10  1  0  0  0
 11  9  1  0  0  0
 11 12  1  0  0  0
 12 13  2  0  0  0
 14 12  1  0  0  0
 15 14  2  0  0  0
 16 17  1  0  0  0
 16 15  1  0  0  0
 16 18  1  0  0  0
 17 11  2  0  0  0
  1 15  1  0  0  0
  1  6  1  0  0  0
  2  1  2  0  0  0
  3  2  1  0  0  0
  3  4  2  0  0  0
  4  5  1  0  0  0
  5  6  2  0  0  0
  6 33  1  0  0  0
 33 34  1  0  0  0
 34 35  1  0  0  0
 22 24  2  0  0  0
 22 25  1  0  0  0
 22  3  1  0  0  0
 23 22  2  0  0  0
 25 26  1  0  0  0
 27 26  1  0  0  0
 28 29  1  0  0  0
 28 27  1  0  0  0
 28 32  1  0  0  0
 30 28  1  0  0  0
 30 31  1  0  0  0
 31 25  1  0  0  0
M  CHG 1  28   1
M  END
> <minimizedAffinity>
-9.63554

$$$$
/home/hjpark/lecture_drug1/0905_agent/pde5_harness/sample_run/structures/work/ligand_ref.pdb


 35 38  0  0  0  0  0  0  0  0999 V2000
    0.1894   64.3584   84.1674 C   0  0  0  0  0  0  0  0  0  0  0  0
   -0.4095   63.8151   82.9653 C   0  0  0  0  0  0  0  0  0  0  0  0
   -1.3707   62.7164   83.0305 C   0  0  0  0  0  0  0  0  0  0  0  0
   -1.7143   62.1801   84.3859 C   0  0  0  0  0  0  0  0  0  0  0  0
   -1.1218   62.7128   85.6083 C   0  0  0  0  0  0  0  0  0  0  0  0
   -0.1458   63.8167   85.5300 C   0  0  0  0  0  0  0  0  0  0  0  0
    4.3504   67.0281   84.9401 C   0  0  0  0  0  0  0  0  0  0  0  0
    4.7711   68.2065   84.3097 N   0  0  0  0  0  0  0  0  0  0  0  0
    3.8404   68.5704   83.3799 N   0  0  0  0  0  0  0  0  0  0  0  0
    3.9795   69.7659   82.5438 C   0  0  0  0  0  0  0  0  0  0  0  0
    2.8388   67.6336   83.4169 C   0  0  0  0  0  0  0  0  0  0  0  0
    1.6104   67.4663   82.6925 C   0  0  0  0  0  0  0  0  0  0  0  0
    1.2404   68.2313   81.8318 O   0  0  0  0  0  0  0  0  0  0  0  0
    0.8030   66.3722   82.9960 N   0  0  0  0  0  0  0  0  0  0  0  0
    1.1199   65.4150   83.9700 C   0  0  0  0  0  0  0  0  0  0  0  0
    2.3088   65.5335   84.6992 N   0  0  0  0  0  0  0  0  0  0  0  0
    3.1439   66.6478   84.4024 C   0  0  0  0  0  0  0  0  0  0  0  0
    2.5569   64.8749   85.3876 H   0  0  0  0  0  0  0  0  0  0  0  0
    5.1069   66.3134   86.0130 C   0  0  0  0  0  0  0  0  0  0  0  0
    7.4969   65.9270   85.2193 C   0  0  0  0  0  0  0  0  0  0  0  0
    6.0867   65.4017   85.1978 C   0  0  0  0  0  0  0  0  0  0  0  0
   -2.0171   62.0924   81.7053 S   0  0  0  0  0  0  0  0  0  0  0  0
   -2.4354   60.8434   81.7941 O   0  0  0  0  0  0  0  0  0  0  0  0
   -3.0809   62.7858   81.3741 O   0  0  0  0  0  0  0  0  0  0  0  0
   -0.8163   62.2823   80.6802 N   0  0  0  0  0  0  0  0  0  0  0  0
   -1.0736   63.3440   79.5402 C   0  0  0  0  0  0  0  0  0  0  0  0
   -1.8577   62.8742   78.2997 C   0  0  0  0  0  0  0  0  0  0  0  0
   -1.5802   61.4744   77.8309 N   0  0  0  0  0  0  0  0  0  0  0  0
   -0.9242   61.5505   76.4886 C   0  0  0  0  0  0  0  0  0  0  0  0
   -0.7794   60.5296   78.7302 C   0  0  0  0  0  0  0  0  0  0  0  0
   -0.0928   61.1258   80.0173 C   0  0  0  0  0  0  0  0  0  0  0  0
   -2.5031   61.0401   77.8282 H   0  0  0  0  0  0  0  0  0  0  0  0
    0.5129   64.3958   86.6814 O   0  0  0  0  0  0  0  0  0  0  0  0
    1.2992   63.6616   87.6411 C   0  0  0  0  0  0  0  0  0  0  0  0
    0.3222   63.2846   88.7424 C   0  0  0  0  0  0  0  0  0  0  0  0
 20 21  1  0  0  0
 21 19  1  0  0  0
 19  7  1  0  0  0
  7 17  1  0  0  0
  7  8  2  0  0  0
  8  9  1  0  0  0
  9 10  1  0  0  0
 11  9  1  0  0  0
 11 12  1  0  0  0
 12 13  2  0  0  0
 14 12  1  0  0  0
 15 14  2  0  0  0
 16 17  1  0  0  0
 16 15  1  0  0  0
 16 18  1  0  0  0
 17 11  2  0  0  0
  1 15  1  0  0  0
  1  6  1  0  0  0
  2  1  2  0  0  0
  3  2  1  0  0  0
  3  4  2  0  0  0
  4  5  1  0  0  0
  5  6  2  0  0  0
  6 33  1  0  0  0
 33 34  1  0  0  0
 34 35  1  0  0  0
 22 24  2  0  0  0
 22 25  1  0  0  0
 22  3  1  0  0  0
 23 22  2  0  0  0
 25 26  1  0  0  0
 27 26  1  0  0  0
 28 29  1  0  0  0
 28 27  1  0  0  0
 28 32  1  0  0  0
 30 28  1  0  0  0
 30 31  1  0  0  0
 31 25  1  0  0  0
M  CHG 1  28   1
M  END
> <minimizedAffinity>
-9.53998

$$$$
/home/hjpark/lecture_drug1/0905_agent/pde5_harness/sample_run/structures/work/ligand_ref.pdb


 35 38  0  0  0  0  0  0  0  0999 V2000
    2.1175   67.2010   83.3108 C   0  0  0  0  0  0  0  0  0  0  0  0
    1.5613   68.1712   82.3898 C   0  0  0  0  0  0  0  0  0  0  0  0
    2.3019   69.3767   82.0244 C   0  0  0  0  0  0  0  0  0  0  0  0
    3.6566   69.5655   82.6343 C   0  0  0  0  0  0  0  0  0  0  0  0
    4.2342   68.6007   83.5642 C   0  0  0  0  0  0  0  0  0  0  0  0
    3.4738   67.3911   83.9329 C   0  0  0  0  0  0  0  0  0  0  0  0
   -0.1284   63.7478   86.1515 C   0  0  0  0  0  0  0  0  0  0  0  0
   -0.9741   62.7007   85.7623 N   0  0  0  0  0  0  0  0  0  0  0  0
   -1.1320   62.7367   84.4070 N   0  0  0  0  0  0  0  0  0  0  0  0
   -1.9597   61.7712   83.6787 C   0  0  0  0  0  0  0  0  0  0  0  0
   -0.3960   63.7954   83.9384 C   0  0  0  0  0  0  0  0  0  0  0  0
   -0.1650   64.3408   82.6304 C   0  0  0  0  0  0  0  0  0  0  0  0
   -0.6557   63.8803   81.6253 O   0  0  0  0  0  0  0  0  0  0  0  0
    0.6663   65.4524   82.5105 N   0  0  0  0  0  0  0  0  0  0  0  0
    1.2933   66.0786   83.5969 C   0  0  0  0  0  0  0  0  0  0  0  0
    1.0949   65.5854   84.8918 N   0  0  0  0  0  0  0  0  0  0  0  0
    0.2496   64.4482   85.0307 C   0  0  0  0  0  0  0  0  0  0  0  0
    1.5213   66.0067   85.6727 H   0  0  0  0  0  0  0  0  0  0  0  0
    0.2778   64.0427   87.5594 C   0  0  0  0  0  0  0  0  0  0  0  0
    0.2651   62.1501   89.2650 C   0  0  0  0  0  0  0  0  0  0  0  0
   -0.5845   63.0301   88.3882 C   0  0  0  0  0  0  0  0  0  0  0  0
    1.6836   70.4671   81.0282 S   0  0  0  0  0  0  0  0  0  0  0  0
    2.5398   71.0796   80.2317 O   0  0  0  0  0  0  0  0  0  0  0  0
    0.8271   69.8828   80.2238 O   0  0  0  0  0  0  0  0  0  0  0  0
    0.9817   71.4444   82.0680 N   0  0  0  0  0  0  0  0  0  0  0  0
   -0.4851   71.8853   81.6841 C   0  0  0  0  0  0  0  0  0  0  0  0
   -0.6357   73.0654   80.7049 C   0  0  0  0  0  0  0  0  0  0  0  0
    0.3585   74.1815   80.8538 N   0  0  0  0  0  0  0  0  0  0  0  0
   -0.3745   75.4058   81.3032 C   0  0  0  0  0  0  0  0  0  0  0  0
    1.5870   73.9749   81.7430 C   0  0  0  0  0  0  0  0  0  0  0  0
    1.6526   72.6795   82.6379 C   0  0  0  0  0  0  0  0  0  0  0  0
    0.7733   74.2524   79.9246 H   0  0  0  0  0  0  0  0  0  0  0  0
    3.9502   66.3896   84.8628 O   0  0  0  0  0  0  0  0  0  0  0  0
    5.0764   66.5515   85.7482 C   0  0  0  0  0  0  0  0  0  0  0  0
    5.8315   65.2353   85.6673 C   0  0  0  0  0  0  0  0  0  0  0  0
 20 21  1  0  0  0
 21 19  1  0  0  0
 19  7  1  0  0  0
  7 17  1  0  0  0
  7  8  2  0  0  0
  8  9  1  0  0  0
  9 10  1  0  0  0
 11  9  1  0  0  0
 11 12  1  0  0  0
 12 13  2  0  0  0
 14 12  1  0  0  0
 15 14  2  0  0  0
 16 17  1  0  0  0
 16 15  1  0  0  0
 16 18  1  0  0  0
 17 11  2  0  0  0
  1 15  1  0  0  0
  1  6  1  0  0  0
  2  1  2  0  0  0
  3  2  1  0  0  0
  3  4  2  0  0  0
  4  5  1  0  0  0
  5  6  2  0  0  0
  6 33  1  0  0  0
 33 34  1  0  0  0
 34 35  1  0  0  0
 22 24  2  0  0  0
 22 25  1  0  0  0
 22  3  1  0  0  0
 23 22  2  0  0  0
 25 26  1  0  0  0
 27 26  1  0  0  0
 28 29  1  0  0  0
 28 27  1  0  0  0
 28 32  1  0  0  0
 30 28  1  0  0  0
 30 31  1  0  0  0
 31 25  1  0  0  0
M  CHG 1  28   1
M  END
> <minimizedAffinity>
-9.49934

$$$$
/home/hjpark/lecture_drug1/0905_agent/pde5_harness/sample_run/structures/work/ligand_ref.pdb


 35 38  0  0  0  0  0  0  0  0999 V2000
    2.2879   66.9708   83.6056 C   0  0  0  0  0  0  0  0  0  0  0  0
    1.7610   68.0509   82.7964 C   0  0  0  0  0  0  0  0  0  0  0  0
    2.5657   69.2340   82.4993 C   0  0  0  0  0  0  0  0  0  0  0  0
    3.9540   69.2823   83.0588 C   0  0  0  0  0  0  0  0  0  0  0  0
    4.5029   68.2055   83.8764 C   0  0  0  0  0  0  0  0  0  0  0  0
    3.6784   67.0193   84.1772 C   0  0  0  0  0  0  0  0  0  0  0  0
   -0.3635   63.6840   86.2898 C   0  0  0  0  0  0  0  0  0  0  0  0
   -1.1941   62.6478   85.8431 N   0  0  0  0  0  0  0  0  0  0  0  0
   -1.2015   62.6404   84.4782 N   0  0  0  0  0  0  0  0  0  0  0  0
   -1.9747   61.6733   83.6943 C   0  0  0  0  0  0  0  0  0  0  0  0
   -0.3855   63.6609   84.0602 C   0  0  0  0  0  0  0  0  0  0  0  0
    0.0043   64.1532   82.7690 C   0  0  0  0  0  0  0  0  0  0  0  0
   -0.3878   63.6714   81.7311 O   0  0  0  0  0  0  0  0  0  0  0  0
    0.8785   65.2363   82.7062 N   0  0  0  0  0  0  0  0  0  0  0  0
    1.4023   65.8826   83.8346 C   0  0  0  0  0  0  0  0  0  0  0  0
    1.0478   65.4412   85.1147 N   0  0  0  0  0  0  0  0  0  0  0  0
    0.1569   64.3335   85.1957 C   0  0  0  0  0  0  0  0  0  0  0  0
    1.3993   65.8776   85.9241 H   0  0  0  0  0  0  0  0  0  0  0  0
   -0.1047   64.0169   87.7237 C   0  0  0  0  0  0  0  0  0  0  0  0
    0.2516   62.0230   89.2694 C   0  0  0  0  0  0  0  0  0  0  0  0
   -0.7598   62.8125   88.4828 C   0  0  0  0  0  0  0  0  0  0  0  0
    1.9819   70.4439   81.6283 S   0  0  0  0  0  0  0  0  0  0  0  0
    1.9899   70.2755   80.3190 O   0  0  0  0  0  0  0  0  0  0  0  0
    0.7214   70.6339   81.9403 O   0  0  0  0  0  0  0  0  0  0  0  0
    2.9211   71.6311   82.1156 N   0  0  0  0  0  0  0  0  0  0  0  0
    2.2355   72.6675   83.0899 C   0  0  0  0  0  0  0  0  0  0  0  0
    1.4001   73.7936   82.4509 C   0  0  0  0  0  0  0  0  0  0  0  0
    1.9290   74.3640   81.1660 N   0  0  0  0  0  0  0  0  0  0  0  0
    2.3235   75.7861   81.4113 C   0  0  0  0  0  0  0  0  0  0  0  0
    3.0678   73.6432   80.4406 C   0  0  0  0  0  0  0  0  0  0  0  0
    3.7869   72.4503   81.1778 C   0  0  0  0  0  0  0  0  0  0  0  0
    1.1503   74.2454   80.5179 H   0  0  0  0  0  0  0  0  0  0  0  0
    4.1240   65.9124   84.9964 O   0  0  0  0  0  0  0  0  0  0  0  0
    5.5019   65.5718   85.2487 C   0  0  0  0  0  0  0  0  0  0  0  0
    5.5353   65.1212   86.6996 C   0  0  0  0  0  0  0  0  0  0  0  0
 20 21  1  0  0  0
 21 19  1  0  0  0
 19  7  1  0  0  0
  7 17  1  0  0  0
  7  8  2  0  0  0
  8  9  1  0  0  0
  9 10  1  0  0  0
 11  9  1  0  0  0
 11 12  1  0  0  0
 12 13  2  0  0  0
 14 12  1  0  0  0
 15 14  2  0  0  0
 16 17  1  0  0  0
 16 15  1  0  0  0
 16 18  1  0  0  0
 17 11  2  0  0  0
  1 15  1  0  0  0
  1  6  1  0  0  0
  2  1  2  0  0  0
  3  2  1  0  0  0
  3  4  2  0  0  0
  4  5  1  0  0  0
  5  6  2  0  0  0
  6 33  1  0  0  0
 33 34  1  0  0  0
 34 35  1  0  0  0
 22 24  2  0  0  0
 22 25  1  0  0  0
 22  3  1  0  0  0
 23 22  2  0  0  0
 25 26  1  0  0  0
 27 26  1  0  0  0
 28 29  1  0  0  0
 28 27  1  0  0  0
 28 32  1  0  0  0
 30 28  1  0  0  0
 30 31  1  0  0  0
 31 25  1  0  0  0
M  CHG 1  28   1
M  END
> <minimizedAffinity>
-9.16291

$$$$
/home/hjpark/lecture_drug1/0905_agent/pde5_harness/sample_run/structures/work/ligand_ref.pdb


 35 38  0  0  0  0  0  0  0  0999 V2000
    0.9430   66.0222   81.9140 C   0  0  0  0  0  0  0  0  0  0  0  0
    1.4475   67.2700   82.4501 C   0  0  0  0  0  0  0  0  0  0  0  0
    2.0209   68.2908   81.5757 C   0  0  0  0  0  0  0  0  0  0  0  0
    2.0610   67.9981   80.1075 C   0  0  0  0  0  0  0  0  0  0  0  0
    1.5587   66.7476   79.5479 C   0  0  0  0  0  0  0  0  0  0  0  0
    0.9896   65.7202   80.4412 C   0  0  0  0  0  0  0  0  0  0  0  0
   -1.8857   62.2614   83.6149 C   0  0  0  0  0  0  0  0  0  0  0  0
   -1.9680   61.7374   84.9117 N   0  0  0  0  0  0  0  0  0  0  0  0
   -1.1134   62.4246   85.7244 N   0  0  0  0  0  0  0  0  0  0  0  0
   -0.9607   62.1240   87.1506 C   0  0  0  0  0  0  0  0  0  0  0  0
   -0.4929   63.3749   84.9536 C   0  0  0  0  0  0  0  0  0  0  0  0
    0.4917   64.3840   85.2255 C   0  0  0  0  0  0  0  0  0  0  0  0
    0.9768   64.5573   86.3199 O   0  0  0  0  0  0  0  0  0  0  0  0
    0.9079   65.2059   84.1804 N   0  0  0  0  0  0  0  0  0  0  0  0
    0.4236   65.1057   82.8686 C   0  0  0  0  0  0  0  0  0  0  0  0
   -0.5341   64.1345   82.5542 N   0  0  0  0  0  0  0  0  0  0  0  0
   -0.9715   63.2880   83.6122 C   0  0  0  0  0  0  0  0  0  0  0  0
   -0.8900   64.0408   81.6412 H   0  0  0  0  0  0  0  0  0  0  0  0
   -2.6659   61.7668   82.4399 C   0  0  0  0  0  0  0  0  0  0  0  0
   -1.0718   61.0853   80.5729 C   0  0  0  0  0  0  0  0  0  0  0  0
   -1.7363   60.6508   81.8514 C   0  0  0  0  0  0  0  0  0  0  0  0
    2.6051   69.6611   82.1626 S   0  0  0  0  0  0  0  0  0  0  0  0
    2.2549   69.9607   83.3996 O   0  0  0  0  0  0  0  0  0  0  0  0
    3.9157   69.5995   82.1843 O   0  0  0  0  0  0  0  0  0  0  0  0
    2.0564   70.6946   81.0857 N   0  0  0  0  0  0  0  0  0  0  0  0
    2.9311   71.9966   80.9040 C   0  0  0  0  0  0  0  0  0  0  0  0
    2.7018   73.1479   81.9021 C   0  0  0  0  0  0  0  0  0  0  0  0
    1.2820   73.3764   82.3360 N   0  0  0  0  0  0  0  0  0  0  0  0
    0.8410   74.7080   81.8159 C   0  0  0  0  0  0  0  0  0  0  0  0
    0.2195   72.3272   82.0001 C   0  0  0  0  0  0  0  0  0  0  0  0
    0.6114   71.1516   81.0266 C   0  0  0  0  0  0  0  0  0  0  0  0
    1.3340   73.3140   83.3528 H   0  0  0  0  0  0  0  0  0  0  0  0
    0.4885   64.4412   79.9854 O   0  0  0  0  0  0  0  0  0  0  0  0
   -0.0368   64.1799   78.6685 C   0  0  0  0  0  0  0  0  0  0  0  0
    0.8789   63.1170   78.0846 C   0  0  0  0  0  0  0  0  0  0  0  0
 20 21  1  0  0  0
 21 19  1  0  0  0
 19  7  1  0  0  0
  7 17  1  0  0  0
  7  8  2  0  0  0
  8  9  1  0  0  0
  9 10  1  0  0  0
 11  9  1  0  0  0
 11 12  1  0  0  0
 12 13  2  0  0  0
 14 12  1  0  0  0
 15 14  2  0  0  0
 16 17  1  0  0  0
 16 15  1  0  0  0
 16 18  1  0  0  0
 17 11  2  0  0  0
  1 15  1  0  0  0
  1  6  1  0  0  0
  2  1  2  0  0  0
  3  2  1  0  0  0
  3  4  2  0  0  0
  4  5  1  0  0  0
  5  6  2  0  0  0
  6 33  1  0  0  0
 33 34  1  0  0  0
 34 35  1  0  0  0
 22 24  2  0  0  0
 22 25  1  0  0  0
 22  3  1  0  0  0
 23 22  2  0  0  0
 25 26  1  0  0  0
 27 26  1  0  0  0
 28 29  1  0  0  0
 28 27  1  0  0  0
 28 32  1  0  0  0
 30 28  1  0  0  0
 30 31  1  0  0  0
 31 25  1  0  0  0
M  CHG 1  28   1
M  END
> <minimizedAffinity>
-8.95660

$$$$
/home/hjpark/lecture_drug1/0905_agent/pde5_harness/sample_run/structures/work/ligand_ref.pdb


 35 38  0  0  0  0  0  0  0  0999 V2000
    0.4683   64.4374   84.6164 C   0  0  0  0  0  0  0  0  0  0  0  0
   -0.0915   64.1652   83.3081 C   0  0  0  0  0  0  0  0  0  0  0  0
   -1.2471   63.2851   83.1493 C   0  0  0  0  0  0  0  0  0  0  0  0
   -1.8306   62.6822   84.3898 C   0  0  0  0  0  0  0  0  0  0  0  0
   -1.2814   62.9432   85.7162 C   0  0  0  0  0  0  0  0  0  0  0  0
   -0.1088   63.8268   85.8640 C   0  0  0  0  0  0  0  0  0  0  0  0
    3.1390   68.5499   83.6197 C   0  0  0  0  0  0  0  0  0  0  0  0
    4.4600   68.8507   83.9769 N   0  0  0  0  0  0  0  0  0  0  0  0
    4.9761   67.8086   84.6915 N   0  0  0  0  0  0  0  0  0  0  0  0
    6.3449   67.8063   85.2150 C   0  0  0  0  0  0  0  0  0  0  0  0
    3.9945   66.8551   84.7893 C   0  0  0  0  0  0  0  0  0  0  0  0
    3.9272   65.5612   85.4081 C   0  0  0  0  0  0  0  0  0  0  0  0
    4.8518   65.0676   86.0118 O   0  0  0  0  0  0  0  0  0  0  0  0
    2.7415   64.8365   85.3071 N   0  0  0  0  0  0  0  0  0  0  0  0
    1.6000   65.2976   84.6365 C   0  0  0  0  0  0  0  0  0  0  0  0
    1.6164   66.5548   84.0213 N   0  0  0  0  0  0  0  0  0  0  0  0
    2.8218   67.3069   84.1136 C   0  0  0  0  0  0  0  0  0  0  0  0
    0.8285   66.9039   83.5453 H   0  0  0  0  0  0  0  0  0  0  0  0
    2.2372   69.4489   82.8370 C   0  0  0  0  0  0  0  0  0  0  0  0
    3.2560   69.9036   80.5464 C   0  0  0  0  0  0  0  0  0  0  0  0
    2.4362   68.9445   81.3667 C   0  0  0  0  0  0  0  0  0  0  0  0
   -1.8554   62.9577   81.7050 S   0  0  0  0  0  0  0  0  0  0  0  0
   -3.1617   63.1000   81.5776 O   0  0  0  0  0  0  0  0  0  0  0  0
   -1.3352   63.7754   80.8201 O   0  0  0  0  0  0  0  0  0  0  0  0
   -1.3649   61.4567   81.5175 N   0  0  0  0  0  0  0  0  0  0  0  0
   -0.1713   61.2666   80.5015 C   0  0  0  0  0  0  0  0  0  0  0  0
   -0.5240   61.1779   79.0041 C   0  0  0  0  0  0  0  0  0  0  0  0
   -1.7885   60.4423   78.6633 N   0  0  0  0  0  0  0  0  0  0  0  0
   -1.4220   59.2055   77.9056 C   0  0  0  0  0  0  0  0  0  0  0  0
   -2.7655   60.0762   79.7831 C   0  0  0  0  0  0  0  0  0  0  0  0
   -2.3077   60.2936   81.2753 C   0  0  0  0  0  0  0  0  0  0  0  0
   -2.3212   61.1266   78.1264 H   0  0  0  0  0  0  0  0  0  0  0  0
    0.5215   64.1274   87.1317 O   0  0  0  0  0  0  0  0  0  0  0  0
    0.7129   63.1841   88.2050 C   0  0  0  0  0  0  0  0  0  0  0  0
   -0.5382   63.3028   89.0594 C   0  0  0  0  0  0  0  0  0  0  0  0
 20 21  1  0  0  0
 21 19  1  0  0  0
 19  7  1  0  0  0
  7 17  1  0  0  0
  7  8  2  0  0  0
  8  9  1  0  0  0
  9 10  1  0  0  0
 11  9  1  0  0  0
 11 12  1  0  0  0
 12 13  2  0  0  0
 14 12  1  0  0  0
 15 14  2  0  0  0
 16 17  1  0  0  0
 16 15  1  0  0  0
 16 18  1  0  0  0
 17 11  2  0  0  0
  1 15  1  0  0  0
  1  6  1  0  0  0
  2  1  2  0  0  0
  3  2  1  0  0  0
  3  4  2  0  0  0
  4  5  1  0  0  0
  5  6  2  0  0  0
  6 33  1  0  0  0
 33 34  1  0  0  0
 34 35  1  0  0  0
 22 24  2  0  0  0
 22 25  1  0  0  0
 22  3  1  0  0  0
 23 22  2  0  0  0
 25 26  1  0  0  0
 27 26  1  0  0  0
 28 29  1  0  0  0
 28 27  1  0  0  0
 28 32  1  0  0  0
 30 28  1  0  0  0
 30 31  1  0  0  0
 31 25  1  0  0  0
M  CHG 1  28   1
M  END
> <minimizedAffinity>
-8.93670

$$$$
/home/hjpark/lecture_drug1/0905_agent/pde5_harness/sample_run/structures/work/ligand_ref.pdb


 35 38  0  0  0  0  0  0  0  0999 V2000
    0.3466   65.0245   81.3275 C   0  0  0  0  0  0  0  0  0  0  0  0
    0.7136   66.3003   80.7474 C   0  0  0  0  0  0  0  0  0  0  0  0
    1.2749   67.3702   81.5693 C   0  0  0  0  0  0  0  0  0  0  0  0
    1.4598   67.0936   83.0295 C   0  0  0  0  0  0  0  0  0  0  0  0
    1.0961   65.8159   83.6331 C   0  0  0  0  0  0  0  0  0  0  0  0
    0.5220   64.7456   82.7952 C   0  0  0  0  0  0  0  0  0  0  0  0
   -2.8206   61.4952   79.7302 C   0  0  0  0  0  0  0  0  0  0  0  0
   -2.8264   60.8022   78.5125 N   0  0  0  0  0  0  0  0  0  0  0  0
   -1.7853   61.2403   77.7463 N   0  0  0  0  0  0  0  0  0  0  0  0
   -1.5085   60.7126   76.4074 C   0  0  0  0  0  0  0  0  0  0  0  0
   -1.1243   62.2021   78.4674 C   0  0  0  0  0  0  0  0  0  0  0  0
    0.0261   63.0210   78.2071 C   0  0  0  0  0  0  0  0  0  0  0  0
    0.6551   62.9696   77.1752 O   0  0  0  0  0  0  0  0  0  0  0  0
    0.4412   63.9167   79.1902 N   0  0  0  0  0  0  0  0  0  0  0  0
   -0.2020   64.0717   80.4262 C   0  0  0  0  0  0  0  0  0  0  0  0
   -1.3302   63.2984   80.7238 N   0  0  0  0  0  0  0  0  0  0  0  0
   -1.7656   62.3765   79.7301 C   0  0  0  0  0  0  0  0  0  0  0  0
   -1.8021   63.3881   81.5831 H   0  0  0  0  0  0  0  0  0  0  0  0
   -3.8113   61.2995   80.8321 C   0  0  0  0  0  0  0  0  0  0  0  0
   -3.1169   60.4734   83.1401 C   0  0  0  0  0  0  0  0  0  0  0  0
   -3.1705   60.1426   81.6729 C   0  0  0  0  0  0  0  0  0  0  0  0
    1.6583   68.7922   80.9413 S   0  0  0  0  0  0  0  0  0  0  0  0
    2.9349   68.9806   80.6630 O   0  0  0  0  0  0  0  0  0  0  0  0
    1.0336   68.9433   79.7972 O   0  0  0  0  0  0  0  0  0  0  0  0
    1.1110   69.7658   82.0734 N   0  0  0  0  0  0  0  0  0  0  0  0
   -0.1728   70.5952   81.6768 C   0  0  0  0  0  0  0  0  0  0  0  0
    0.0434   71.8943   80.8769 C   0  0  0  0  0  0  0  0  0  0  0  0
    1.2515   72.7070   81.2461 N   0  0  0  0  0  0  0  0  0  0  0  0
    0.7847   74.0027   81.8302 C   0  0  0  0  0  0  0  0  0  0  0  0
    2.3131   72.0944   82.1628 C   0  0  0  0  0  0  0  0  0  0  0  0
    1.9955   70.7161   82.8575 C   0  0  0  0  0  0  0  0  0  0  0  0
    1.7537   72.7962   80.3627 H   0  0  0  0  0  0  0  0  0  0  0  0
    0.1088   63.4552   83.3041 O   0  0  0  0  0  0  0  0  0  0  0  0
   -1.0139   63.2322   84.1805 C   0  0  0  0  0  0  0  0  0  0  0  0
   -0.4856   62.3117   85.2682 C   0  0  0  0  0  0  0  0  0  0  0  0
 20 21  1  0  0  0
 21 19  1  0  0  0
 19  7  1  0  0  0
  7 17  1  0  0  0
  7  8  2  0  0  0
  8  9  1  0  0  0
  9 10  1  0  0  0
 11  9  1  0  0  0
 11 12  1  0  0  0
 12 13  2  0  0  0
 14 12  1  0  0  0
 15 14  2  0  0  0
 16 17  1  0  0  0
 16 15  1  0  0  0
 16 18  1  0  0  0
 17 11  2  0  0  0
  1 15  1  0  0  0
  1  6  1  0  0  0
  2  1  2  0  0  0
  3  2  1  0  0  0
  3  4  2  0  0  0
  4  5  1  0  0  0
  5  6  2  0  0  0
  6 33  1  0  0  0
 33 34  1  0  0  0
 34 35  1  0  0  0
 22 24  2  0  0  0
 22 25  1  0  0  0
 22  3  1  0  0  0
 23 22  2  0  0  0
 25 26  1  0  0  0
 27 26  1  0  0  0
 28 29  1  0  0  0
 28 27  1  0  0  0
 28 32  1  0  0  0
 30 28  1  0  0  0
 30 31  1  0  0  0
 31 25  1  0  0  0
M  CHG 1  28   1
M  END
> <minimizedAffinity>
-8.92449

$$$$
/home/hjpark/lecture_drug1/0905_agent/pde5_harness/sample_run/structures/work/ligand_ref.pdb


 35 38  0  0  0  0  0  0  0  0999 V2000
    2.1708   66.3864   84.0278 C   0  0  0  0  0  0  0  0  0  0  0  0
    1.6357   67.2595   83.0029 C   0  0  0  0  0  0  0  0  0  0  0  0
    2.4282   68.3601   82.4590 C   0  0  0  0  0  0  0  0  0  0  0  0
    3.8131   68.5452   82.9982 C   0  0  0  0  0  0  0  0  0  0  0  0
    4.3701   67.6774   84.0306 C   0  0  0  0  0  0  0  0  0  0  0  0
    3.5577   66.5743   84.5788 C   0  0  0  0  0  0  0  0  0  0  0  0
   -0.9086   62.4603   83.6516 C   0  0  0  0  0  0  0  0  0  0  0  0
   -1.5996   61.7822   84.6644 N   0  0  0  0  0  0  0  0  0  0  0  0
   -1.3083   62.3606   85.8660 N   0  0  0  0  0  0  0  0  0  0  0  0
   -1.8740   61.8871   87.1323 C   0  0  0  0  0  0  0  0  0  0  0  0
   -0.4407   63.3948   85.6214 C   0  0  0  0  0  0  0  0  0  0  0  0
    0.2154   64.3580   86.4600 C   0  0  0  0  0  0  0  0  0  0  0  0
    0.0758   64.3938   87.6610 O   0  0  0  0  0  0  0  0  0  0  0  0
    1.0515   65.2994   85.8634 N   0  0  0  0  0  0  0  0  0  0  0  0
    1.2965   65.3627   84.4845 C   0  0  0  0  0  0  0  0  0  0  0  0
    0.6827   64.4421   83.6272 N   0  0  0  0  0  0  0  0  0  0  0  0
   -0.1767   63.4749   84.2214 C   0  0  0  0  0  0  0  0  0  0  0  0
    0.8384   64.4626   82.6553 H   0  0  0  0  0  0  0  0  0  0  0  0
   -0.9651   62.1170   82.1980 C   0  0  0  0  0  0  0  0  0  0  0  0
   -3.2150   62.1634   81.0033 C   0  0  0  0  0  0  0  0  0  0  0  0
   -2.1577   62.9925   81.6813 C   0  0  0  0  0  0  0  0  0  0  0  0
    1.8351   69.3458   81.3455 S   0  0  0  0  0  0  0  0  0  0  0  0
    2.7102   69.8747   80.5105 O   0  0  0  0  0  0  0  0  0  0  0  0
    0.9943   68.6849   80.5850 O   0  0  0  0  0  0  0  0  0  0  0  0
    1.1141   70.4230   82.2667 N   0  0  0  0  0  0  0  0  0  0  0  0
   -0.3325   70.8440   81.7942 C   0  0  0  0  0  0  0  0  0  0  0  0
   -0.4332   71.9306   80.7063 C   0  0  0  0  0  0  0  0  0  0  0  0
    0.5720   73.0438   80.7861 N   0  0  0  0  0  0  0  0  0  0  0  0
   -0.1570   74.3129   81.0961 C   0  0  0  0  0  0  0  0  0  0  0  0
    1.7674   72.9055   81.7318 C   0  0  0  0  0  0  0  0  0  0  0  0
    1.7842   71.6973   82.7435 C   0  0  0  0  0  0  0  0  0  0  0  0
    1.0181   73.0239   79.8690 H   0  0  0  0  0  0  0  0  0  0  0  0
    4.0118   65.6763   85.6191 O   0  0  0  0  0  0  0  0  0  0  0  0
    5.3651   65.2033   85.7714 C   0  0  0  0  0  0  0  0  0  0  0  0
    5.7080   65.4583   87.2297 C   0  0  0  0  0  0  0  0  0  0  0  0
 20 21  1  0  0  0
 21 19  1  0  0  0
 19  7  1  0  0  0
  7 17  1  0  0  0
  7  8  2  0  0  0
  8  9  1  0  0  0
  9 10  1  0  0  0
 11  9  1  0  0  0
 11 12  1  0  0  0
 12 13  2  0  0  0
 14 12  1  0  0  0
 15 14  2  0  0  0
 16 17  1  0  0  0
 16 15  1  0  0  0
 16 18  1  0  0  0
 17 11  2  0  0  0
  1 15  1  0  0  0
  1  6  1  0  0  0
  2  1  2  0  0  0
  3  2  1  0  0  0
  3  4  2  0  0  0
  4  5  1  0  0  0
  5  6  2  0  0  0
  6 33  1  0  0  0
 33 34  1  0  0  0
 34 35  1  0  0  0
 22 24  2  0  0  0
 22 25  1  0  0  0
 22  3  1  0  0  0
 23 22  2  0  0  0
 25 26  1  0  0  0
 27 26  1  0  0  0
 28 29  1  0  0  0
 28 27  1  0  0  0
 28 32  1  0  0  0
 30 28  1  0  0  0
 30 31  1  0  0  0
 31 25  1  0  0  0
M  CHG 1  28   1
M  END
> <minimizedAffinity>
-8.91783

$$$$
/home/hjpark/lecture_drug1/0905_agent/pde5_harness/sample_run/structures/work/ligand_ref.pdb


 35 38  0  0  0  0  0  0  0  0999 V2000
    0.2544   65.0079   80.9452 C   0  0  0  0  0  0  0  0  0  0  0  0
    0.5251   66.2637   80.2753 C   0  0  0  0  0  0  0  0  0  0  0  0
    1.0645   67.4085   81.0059 C   0  0  0  0  0  0  0  0  0  0  0  0
    1.3303   67.2301   82.4689 C   0  0  0  0  0  0  0  0  0  0  0  0
    1.0640   65.9740   83.1621 C   0  0  0  0  0  0  0  0  0  0  0  0
    0.5111   64.8272   82.4162 C   0  0  0  0  0  0  0  0  0  0  0  0
   -2.8663   61.3150   79.6561 C   0  0  0  0  0  0  0  0  0  0  0  0
   -2.8642   60.5226   78.5007 N   0  0  0  0  0  0  0  0  0  0  0  0
   -1.8301   60.9090   77.6979 N   0  0  0  0  0  0  0  0  0  0  0  0
   -1.5478   60.2750   76.4072 C   0  0  0  0  0  0  0  0  0  0  0  0
   -1.1814   61.9367   78.3346 C   0  0  0  0  0  0  0  0  0  0  0  0
   -0.0427   62.7464   78.0039 C   0  0  0  0  0  0  0  0  0  0  0  0
    0.5856   62.6174   76.9784 O   0  0  0  0  0  0  0  0  0  0  0  0
    0.3614   63.7267   78.9077 N   0  0  0  0  0  0  0  0  0  0  0  0
   -0.2823   63.9758   80.1280 C   0  0  0  0  0  0  0  0  0  0  0  0
   -1.3994   63.2149   80.4919 N   0  0  0  0  0  0  0  0  0  0  0  0
   -1.8235   62.2073   79.5797 C   0  0  0  0  0  0  0  0  0  0  0  0
   -1.8714   63.3697   81.3418 H   0  0  0  0  0  0  0  0  0  0  0  0
   -3.8529   61.1987   80.7729 C   0  0  0  0  0  0  0  0  0  0  0  0
   -3.1088   60.5911   83.1327 C   0  0  0  0  0  0  0  0  0  0  0  0
   -3.1963   60.1235   81.7049 C   0  0  0  0  0  0  0  0  0  0  0  0
    1.3415   68.8080   80.2792 S   0  0  0  0  0  0  0  0  0  0  0  0
    1.9905   68.7493   79.1311 O   0  0  0  0  0  0  0  0  0  0  0  0
    0.1965   69.3827   79.9949 O   0  0  0  0  0  0  0  0  0  0  0  0
    2.1462   69.5717   81.4184 N   0  0  0  0  0  0  0  0  0  0  0  0
    1.5123   70.9428   81.8786 C   0  0  0  0  0  0  0  0  0  0  0  0
    1.8299   72.1892   81.0301 C   0  0  0  0  0  0  0  0  0  0  0  0
    3.2215   72.2738   80.4713 N   0  0  0  0  0  0  0  0  0  0  0  0
    3.9167   73.4307   81.1166 C   0  0  0  0  0  0  0  0  0  0  0  0
    4.1285   71.0425   80.5336 C   0  0  0  0  0  0  0  0  0  0  0  0
    3.6449   69.7997   81.3733 C   0  0  0  0  0  0  0  0  0  0  0  0
    3.0663   72.3778   79.4685 H   0  0  0  0  0  0  0  0  0  0  0  0
    0.1919   63.5502   83.0181 O   0  0  0  0  0  0  0  0  0  0  0  0
   -0.7539   63.3531   84.0881 C   0  0  0  0  0  0  0  0  0  0  0  0
   -0.2286   62.1541   84.8600 C   0  0  0  0  0  0  0  0  0  0  0  0
 20 21  1  0  0  0
 21 19  1  0  0  0
 19  7  1  0  0  0
  7 17  1  0  0  0
  7  8  2  0  0  0
  8  9  1  0  0  0
  9 10  1  0  0  0
 11  9  1  0  0  0
 11 12  1  0  0  0
 12 13  2  0  0  0
 14 12  1  0  0  0
 15 14  2  0  0  0
 16 17  1  0  0  0
 16 15  1  0  0  0
 16 18  1  0  0  0
 17 11  2  0  0  0
  1 15  1  0  0  0
  1  6  1  0  0  0
  2  1  2  0  0  0
  3  2  1  0  0  0
  3  4  2  0  0  0
  4  5  1  0  0  0
  5  6  2  0  0  0
  6 33  1  0  0  0
 33 34  1  0  0  0
 34 35  1  0  0  0
 22 24  2  0  0  0
 22 25  1  0  0  0
 22  3  1  0  0  0
 23 22  2  0  0  0
 25 26  1  0  0  0
 27 26  1  0  0  0
 28 29  1  0  0  0
 28 27  1  0  0  0
 28 32  1  0  0  0
 30 28  1  0  0  0
 30 31  1  0  0  0
 31 25  1  0  0  0
M  CHG 1  28   1
M  END
> <minimizedAffinity>
-8.88365

$$$$
/home/hjpark/lecture_drug1/0905_agent/pde5_harness/sample_run/structures/work/ligand_ref.pdb


 35 38  0  0  0  0  0  0  0  0999 V2000
    0.3654   64.7051   82.5127 C   0  0  0  0  0  0  0  0  0  0  0  0
    1.1685   65.8944   82.3140 C   0  0  0  0  0  0  0  0  0  0  0  0
    1.7248   66.6284   83.4486 C   0  0  0  0  0  0  0  0  0  0  0  0
    1.4365   66.1003   84.8200 C   0  0  0  0  0  0  0  0  0  0  0  0
    0.6295   64.9049   85.0413 C   0  0  0  0  0  0  0  0  0  0  0  0
    0.0656   64.1765   83.8887 C   0  0  0  0  0  0  0  0  0  0  0  0
   -2.7483   61.9723   79.7064 C   0  0  0  0  0  0  0  0  0  0  0  0
   -2.6684   61.6705   78.3406 N   0  0  0  0  0  0  0  0  0  0  0  0
   -1.5537   62.2605   77.8189 N   0  0  0  0  0  0  0  0  0  0  0  0
   -1.1774   62.1375   76.4079 C   0  0  0  0  0  0  0  0  0  0  0  0
   -0.9310   62.9315   78.8408 C   0  0  0  0  0  0  0  0  0  0  0  0
    0.2595   63.7301   78.9222 C   0  0  0  0  0  0  0  0  0  0  0  0
    0.9732   63.9528   77.9714 O   0  0  0  0  0  0  0  0  0  0  0  0
    0.6129   64.2734   80.1555 N   0  0  0  0  0  0  0  0  0  0  0  0
   -0.1297   64.0902   81.3304 C   0  0  0  0  0  0  0  0  0  0  0  0
   -1.3000   63.3229   81.2997 N   0  0  0  0  0  0  0  0  0  0  0  0
   -1.6735   62.7587   80.0470 C   0  0  0  0  0  0  0  0  0  0  0  0
   -1.8414   63.1794   82.1093 H   0  0  0  0  0  0  0  0  0  0  0  0
   -3.8351   61.5119   80.6234 C   0  0  0  0  0  0  0  0  0  0  0  0
   -3.1765   60.3331   82.7840 C   0  0  0  0  0  0  0  0  0  0  0  0
   -3.2137   60.2333   81.2828 C   0  0  0  0  0  0  0  0  0  0  0  0
    2.5910   67.9585   83.2391 S   0  0  0  0  0  0  0  0  0  0  0  0
    2.5406   68.8458   84.2153 O   0  0  0  0  0  0  0  0  0  0  0  0
    3.8592   67.6378   83.1347 O   0  0  0  0  0  0  0  0  0  0  0  0
    1.9774   68.4915   81.8723 N   0  0  0  0  0  0  0  0  0  0  0  0
    2.9962   69.2503   80.9344 C   0  0  0  0  0  0  0  0  0  0  0  0
    3.2500   70.7419   81.2259 C   0  0  0  0  0  0  0  0  0  0  0  0
    2.0597   71.5423   81.6715 N   0  0  0  0  0  0  0  0  0  0  0  0
    1.7483   72.5502   80.6107 C   0  0  0  0  0  0  0  0  0  0  0  0
    0.7735   70.8128   82.0666 C   0  0  0  0  0  0  0  0  0  0  0  0
    0.6758   69.2651   81.7861 C   0  0  0  0  0  0  0  0  0  0  0  0
    2.3638   71.9413   82.5597 H   0  0  0  0  0  0  0  0  0  0  0  0
   -0.7649   62.9969   84.0062 O   0  0  0  0  0  0  0  0  0  0  0  0
   -0.8674   62.1710   85.1834 C   0  0  0  0  0  0  0  0  0  0  0  0
   -2.1701   62.5899   85.8443 C   0  0  0  0  0  0  0  0  0  0  0  0
 20 21  1  0  0  0
 21 19  1  0  0  0
 19  7  1  0  0  0
  7 17  1  0  0  0
  7  8  2  0  0  0
  8  9  1  0  0  0
  9 10  1  0  0  0
 11  9  1  0  0  0
 11 12  1  0  0  0
 12 13  2  0  0  0
 14 12  1  0  0  0
 15 14  2  0  0  0
 16 17  1  0  0  0
 16 15  1  0  0  0
 16 18  1  0  0  0
 17 11  2  0  0  0
  1 15  1  0  0  0
  1  6  1  0  0  0
  2  1  2  0  0  0
  3  2  1  0  0  0
  3  4  2  0  0  0
  4  5  1  0  0  0
  5  6  2  0  0  0
  6 33  1  0  0  0
 33 34  1  0  0  0
 34 35  1  0  0  0
 22 24  2  0  0  0
 22 25  1  0  0  0
 22  3  1  0  0  0
 23 22  2  0  0  0
 25 26  1  0  0  0
 27 26  1  0  0  0
 28 29  1  0  0  0
 28 27  1  0  0  0
 28 32  1  0  0  0
 30 28  1  0  0  0
 30 31  1  0  0  0
 31 25  1  0  0  0
M  CHG 1  28   1
M  END
> <minimizedAffinity>
-8.83841

$$$$
/home/hjpark/lecture_drug1/0905_agent/pde5_harness/sample_run/structures/work/ligand_ref.pdb


 35 38  0  0  0  0  0  0  0  0999 V2000
    0.5019   65.4788   81.7518 C   0  0  0  0  0  0  0  0  0  0  0  0
    1.1611   66.0686   82.8992 C   0  0  0  0  0  0  0  0  0  0  0  0
    1.9837   67.2687   82.7634 C   0  0  0  0  0  0  0  0  0  0  0  0
    2.1130   67.8652   81.3958 C   0  0  0  0  0  0  0  0  0  0  0  0
    1.4578   67.2862   80.2276 C   0  0  0  0  0  0  0  0  0  0  0  0
    0.6365   66.0692   80.3749 C   0  0  0  0  0  0  0  0  0  0  0  0
   -2.2276   62.2706   84.4528 C   0  0  0  0  0  0  0  0  0  0  0  0
   -2.7853   61.0449   84.0659 N   0  0  0  0  0  0  0  0  0  0  0  0
   -2.4769   60.8091   82.7573 N   0  0  0  0  0  0  0  0  0  0  0  0
   -2.9108   59.6043   82.0446 C   0  0  0  0  0  0  0  0  0  0  0  0
   -1.7321   61.8731   82.3154 C   0  0  0  0  0  0  0  0  0  0  0  0
   -1.1255   62.2043   81.0569 C   0  0  0  0  0  0  0  0  0  0  0  0
   -1.1991   61.4950   80.0799 O   0  0  0  0  0  0  0  0  0  0  0  0
   -0.4149   63.3983   80.9547 N   0  0  0  0  0  0  0  0  0  0  0  0
   -0.2574   64.3054   82.0120 C   0  0  0  0  0  0  0  0  0  0  0  0
   -0.8343   64.0279   83.2568 N   0  0  0  0  0  0  0  0  0  0  0  0
   -1.5619   62.8101   83.3780 C   0  0  0  0  0  0  0  0  0  0  0  0
   -0.7410   64.6480   84.0158 H   0  0  0  0  0  0  0  0  0  0  0  0
   -2.3536   62.8779   85.8127 C   0  0  0  0  0  0  0  0  0  0  0  0
   -0.1826   63.6838   86.8751 C   0  0  0  0  0  0  0  0  0  0  0  0
   -1.0014   62.4790   86.4970 C   0  0  0  0  0  0  0  0  0  0  0  0
    2.7372   67.9115   84.0213 S   0  0  0  0  0  0  0  0  0  0  0  0
    2.9295   69.2169   83.9799 O   0  0  0  0  0  0  0  0  0  0  0  0
    2.0256   67.7056   85.1045 O   0  0  0  0  0  0  0  0  0  0  0  0
    4.0900   67.0756   84.0068 N   0  0  0  0  0  0  0  0  0  0  0  0
    3.9815   65.6201   84.6092 C   0  0  0  0  0  0  0  0  0  0  0  0
    4.0883   65.4781   86.1398 C   0  0  0  0  0  0  0  0  0  0  0  0
    5.0650   66.3915   86.8239 N   0  0  0  0  0  0  0  0  0  0  0  0
    6.1653   65.5562   87.3982 C   0  0  0  0  0  0  0  0  0  0  0  0
    5.6736   67.5570   86.0405 C   0  0  0  0  0  0  0  0  0  0  0  0
    5.4185   67.6277   84.4870 C   0  0  0  0  0  0  0  0  0  0  0  0
    4.4915   66.8725   87.5168 H   0  0  0  0  0  0  0  0  0  0  0  0
   -0.0325   65.4081   79.2749 O   0  0  0  0  0  0  0  0  0  0  0  0
    0.6130   64.9453   78.0717 C   0  0  0  0  0  0  0  0  0  0  0  0
   -0.5075   64.3687   77.2223 C   0  0  0  0  0  0  0  0  0  0  0  0
 20 21  1  0  0  0
 21 19  1  0  0  0
 19  7  1  0  0  0
  7 17  1  0  0  0
  7  8  2  0  0  0
  8  9  1  0  0  0
  9 10  1  0  0  0
 11  9  1  0  0  0
 11 12  1  0  0  0
 12 13  2  0  0  0
 14 12  1  0  0  0
 15 14  2  0  0  0
 16 17  1  0  0  0
 16 15  1  0  0  0
 16 18  1  0  0  0
 17 11  2  0  0  0
  1 15  1  0  0  0
  1  6  1  0  0  0
  2  1  2  0  0  0
  3  2  1  0  0  0
  3  4  2  0  0  0
  4  5  1  0  0  0
  5  6  2  0  0  0
  6 33  1  0  0  0
 33 34  1  0  0  0
 34 35  1  0  0  0
 22 24  2  0  0  0
 22 25  1  0  0  0
 22  3  1  0  0  0
 23 22  2  0  0  0
 25 26  1  0  0  0
 27 26  1  0  0  0
 28 29  1  0  0  0
 28 27  1  0  0  0
 28 32  1  0  0  0
 30 28  1  0  0  0
 30 31  1  0  0  0
 31 25  1  0  0  0
M  CHG 1  28   1
M  END
> <minimizedAffinity>
-8.74469

$$$$
/home/hjpark/lecture_drug1/0905_agent/pde5_harness/sample_run/structures/work/ligand_ref.pdb


 35 38  0  0  0  0  0  0  0  0999 V2000
    0.0595   63.3055   84.0732 C   0  0  0  0  0  0  0  0  0  0  0  0
    0.9204   64.3799   83.6221 C   0  0  0  0  0  0  0  0  0  0  0  0
    1.5752   65.2736   84.5749 C   0  0  0  0  0  0  0  0  0  0  0  0
    1.3256   65.0315   86.0315 C   0  0  0  0  0  0  0  0  0  0  0  0
    0.4617   63.9556   86.5061 C   0  0  0  0  0  0  0  0  0  0  0  0
   -0.2014   63.0645   85.5348 C   0  0  0  0  0  0  0  0  0  0  0  0
   -0.6263   61.5507   79.4376 C   0  0  0  0  0  0  0  0  0  0  0  0
   -1.5561   60.6073   78.9811 N   0  0  0  0  0  0  0  0  0  0  0  0
   -2.3133   60.1830   80.0345 N   0  0  0  0  0  0  0  0  0  0  0  0
   -3.3839   59.1923   79.8940 C   0  0  0  0  0  0  0  0  0  0  0  0
   -1.8699   60.8479   81.1497 C   0  0  0  0  0  0  0  0  0  0  0  0
   -2.2561   60.8320   82.5325 C   0  0  0  0  0  0  0  0  0  0  0  0
   -3.1451   60.1340   82.9633 O   0  0  0  0  0  0  0  0  0  0  0  0
   -1.5772   61.6618   83.4223 N   0  0  0  0  0  0  0  0  0  0  0  0
   -0.5297   62.5155   83.0487 C   0  0  0  0  0  0  0  0  0  0  0  0
   -0.1151   62.5624   81.7125 N   0  0  0  0  0  0  0  0  0  0  0  0
   -0.8008   61.7218   80.7903 C   0  0  0  0  0  0  0  0  0  0  0  0
    0.6187   63.1512   81.4229 H   0  0  0  0  0  0  0  0  0  0  0  0
    0.3855   62.2406   78.5805 C   0  0  0  0  0  0  0  0  0  0  0  0
   -0.6401   63.8295   76.8732 C   0  0  0  0  0  0  0  0  0  0  0  0
   -0.2752   63.6376   78.3206 C   0  0  0  0  0  0  0  0  0  0  0  0
    2.5068   66.4798   84.0842 S   0  0  0  0  0  0  0  0  0  0  0  0
    3.0891   66.3250   82.9096 O   0  0  0  0  0  0  0  0  0  0  0  0
    1.7813   67.5668   83.9648 O   0  0  0  0  0  0  0  0  0  0  0  0
    3.5381   66.5591   85.2920 N   0  0  0  0  0  0  0  0  0  0  0  0
    4.4165   67.8705   85.3345 C   0  0  0  0  0  0  0  0  0  0  0  0
    5.6799   67.9048   84.4530 C   0  0  0  0  0  0  0  0  0  0  0  0
    6.4438   66.6166   84.3388 N   0  0  0  0  0  0  0  0  0  0  0  0
    7.7770   66.8024   84.9916 C   0  0  0  0  0  0  0  0  0  0  0  0
    5.8078   65.3222   84.8512 C   0  0  0  0  0  0  0  0  0  0  0  0
    4.4672   65.4226   85.6734 C   0  0  0  0  0  0  0  0  0  0  0  0
    6.4830   66.4548   83.3325 H   0  0  0  0  0  0  0  0  0  0  0  0
   -1.0931   61.9863   85.9054 O   0  0  0  0  0  0  0  0  0  0  0  0
   -1.8379   61.9150   87.1377 C   0  0  0  0  0  0  0  0  0  0  0  0
   -2.9143   62.9797   87.0076 C   0  0  0  0  0  0  0  0  0  0  0  0
 20 21  1  0  0  0
 21 19  1  0  0  0
 19  7  1  0  0  0
  7 17  1  0  0  0
  7  8  2  0  0  0
  8  9  1  0  0  0
  9 10  1  0  0  0
 11  9  1  0  0  0
 11 12  1  0  0  0
 12 13  2  0  0  0
 14 12  1  0  0  0
 15 14  2  0  0  0
 16 17  1  0  0  0
 16 15  1  0  0  0
 16 18  1  0  0  0
 17 11  2  0  0  0
  1 15  1  0  0  0
  1  6  1  0  0  0
  2  1  2  0  0  0
  3  2  1  0  0  0
  3  4  2  0  0  0
  4  5  1  0  0  0
  5  6  2  0  0  0
  6 33  1  0  0  0
 33 34  1  0  0  0
 34 35  1  0  0  0
 22 24  2  0  0  0
 22 25  1  0  0  0
 22  3  1  0  0  0
 23 22  2  0  0  0
 25 26  1  0  0  0
 27 26  1  0  0  0
 28 29  1  0  0  0
 28 27  1  0  0  0
 28 32  1  0  0  0
 30 28  1  0  0  0
 30 31  1  0  0  0
 31 25  1  0  0  0
M  CHG 1  28   1
M  END
> <minimizedAffinity>
-8.72392

$$$$
/home/hjpark/lecture_drug1/0905_agent/pde5_harness/sample_run/structures/work/ligand_ref.pdb


 35 38  0  0  0  0  0  0  0  0999 V2000
    0.2341   64.7614   82.1830 C   0  0  0  0  0  0  0  0  0  0  0  0
    0.4229   65.9034   81.3117 C   0  0  0  0  0  0  0  0  0  0  0  0
    1.0515   67.1293   81.7987 C   0  0  0  0  0  0  0  0  0  0  0  0
    1.4961   67.1555   83.2286 C   0  0  0  0  0  0  0  0  0  0  0  0
    1.3146   66.0165   84.1224 C   0  0  0  0  0  0  0  0  0  0  0  0
    0.6707   64.7866   83.6222 C   0  0  0  0  0  0  0  0  0  0  0  0
   -0.8538   61.4447   78.5978 C   0  0  0  0  0  0  0  0  0  0  0  0
   -1.7431   60.3628   78.6387 N   0  0  0  0  0  0  0  0  0  0  0  0
   -2.3233   60.3102   79.8730 N   0  0  0  0  0  0  0  0  0  0  0  0
   -3.3087   59.2907   80.2437 C   0  0  0  0  0  0  0  0  0  0  0  0
   -1.8086   61.3463   80.6104 C   0  0  0  0  0  0  0  0  0  0  0  0
   -2.0188   61.8076   81.9537 C   0  0  0  0  0  0  0  0  0  0  0  0
   -2.7810   61.2723   82.7255 O   0  0  0  0  0  0  0  0  0  0  0  0
   -1.3140   62.9272   82.3905 N   0  0  0  0  0  0  0  0  0  0  0  0
   -0.4023   63.6347   81.5944 C   0  0  0  0  0  0  0  0  0  0  0  0
   -0.1610   63.2202   80.2794 N   0  0  0  0  0  0  0  0  0  0  0  0
   -0.8755   62.0786   79.8173 C   0  0  0  0  0  0  0  0  0  0  0  0
    0.4752   63.6973   79.6991 H   0  0  0  0  0  0  0  0  0  0  0  0
   -0.0219   61.8257   77.4159 C   0  0  0  0  0  0  0  0  0  0  0  0
   -0.6781   64.2171   76.8310 C   0  0  0  0  0  0  0  0  0  0  0  0
   -0.9818   62.7607   76.6034 C   0  0  0  0  0  0  0  0  0  0  0  0
    1.2398   68.4053   80.8501 S   0  0  0  0  0  0  0  0  0  0  0  0
    1.8129   68.1826   79.6819 O   0  0  0  0  0  0  0  0  0  0  0  0
    0.0626   68.9088   80.5622 O   0  0  0  0  0  0  0  0  0  0  0  0
    2.0960   69.3494   81.8010 N   0  0  0  0  0  0  0  0  0  0  0  0
    1.4399   70.7506   82.1165 C   0  0  0  0  0  0  0  0  0  0  0  0
    1.6356   71.8731   81.0792 C   0  0  0  0  0  0  0  0  0  0  0  0
    2.9747   71.9226   80.4006 N   0  0  0  0  0  0  0  0  0  0  0  0
    3.6662   73.1817   80.8185 C   0  0  0  0  0  0  0  0  0  0  0  0
    3.9371   70.7430   80.5584 C   0  0  0  0  0  0  0  0  0  0  0  0
    3.5752   69.6175   81.6004 C   0  0  0  0  0  0  0  0  0  0  0  0
    2.7378   71.8775   79.4094 H   0  0  0  0  0  0  0  0  0  0  0  0
    0.4253   63.6150   84.4358 O   0  0  0  0  0  0  0  0  0  0  0  0
   -0.0717   63.6365   85.7889 C   0  0  0  0  0  0  0  0  0  0  0  0
   -0.8254   62.3269   85.9508 C   0  0  0  0  0  0  0  0  0  0  0  0
 20 21  1  0  0  0
 21 19  1  0  0  0
 19  7  1  0  0  0
  7 17  1  0  0  0
  7  8  2  0  0  0
  8  9  1  0  0  0
  9 10  1  0  0  0
 11  9  1  0  0  0
 11 12  1  0  0  0
 12 13  2  0  0  0
 14 12  1  0  0  0
 15 14  2  0  0  0
 16 17  1  0  0  0
 16 15  1  0  0  0
 16 18  1  0  0  0
 17 11  2  0  0  0
  1 15  1  0  0  0
  1  6  1  0  0  0
  2  1  2  0  0  0
  3  2  1  0  0  0
  3  4  2  0  0  0
  4  5  1  0  0  0
  5  6  2  0  0  0
  6 33  1  0  0  0
 33 34  1  0  0  0
 34 35  1  0  0  0
 22 24  2  0  0  0
 22 25  1  0  0  0
 22  3  1  0  0  0
 23 22  2  0  0  0
 25 26  1  0  0  0
 27 26  1  0  0  0
 28 29  1  0  0  0
 28 27  1  0  0  0
 28 32  1  0  0  0
 30 28  1  0  0  0
 30 31  1  0  0  0
 31 25  1  0  0  0
M  CHG 1  28   1
M  END
> <minimizedAffinity>
-8.70142

$$$$
/home/hjpark/lecture_drug1/0905_agent/pde5_harness/sample_run/structures/work/ligand_ref.pdb


 35 38  0  0  0  0  0  0  0  0999 V2000
    0.3338   64.2760   83.0887 C   0  0  0  0  0  0  0  0  0  0  0  0
    1.3185   65.3386   83.0708 C   0  0  0  0  0  0  0  0  0  0  0  0
    1.8874   65.8621   84.3108 C   0  0  0  0  0  0  0  0  0  0  0  0
    1.4170   65.2543   85.5961 C   0  0  0  0  0  0  0  0  0  0  0  0
    0.4259   64.1841   85.6356 C   0  0  0  0  0  0  0  0  0  0  0  0
   -0.1483   63.6690   84.3778 C   0  0  0  0  0  0  0  0  0  0  0  0
   -2.7498   62.0285   79.8517 C   0  0  0  0  0  0  0  0  0  0  0  0
   -2.6643   61.9612   78.4549 N   0  0  0  0  0  0  0  0  0  0  0  0
   -1.5535   62.6397   78.0438 N   0  0  0  0  0  0  0  0  0  0  0  0
   -1.1731   62.7586   76.6336 C   0  0  0  0  0  0  0  0  0  0  0  0
   -0.9390   63.1344   79.1662 C   0  0  0  0  0  0  0  0  0  0  0  0
    0.2443   63.9177   79.3850 C   0  0  0  0  0  0  0  0  0  0  0  0
    0.9581   64.3029   78.4878 O   0  0  0  0  0  0  0  0  0  0  0  0
    0.5903   64.2488   80.6934 N   0  0  0  0  0  0  0  0  0  0  0  0
   -0.1532   63.8645   81.8181 C   0  0  0  0  0  0  0  0  0  0  0  0
   -1.3168   63.1037   81.6546 N   0  0  0  0  0  0  0  0  0  0  0  0
   -1.6826   62.7552   80.3235 C   0  0  0  0  0  0  0  0  0  0  0  0
   -1.8587   62.8218   82.4266 H   0  0  0  0  0  0  0  0  0  0  0  0
   -3.8345   61.4115   80.6743 C   0  0  0  0  0  0  0  0  0  0  0  0
   -2.9079   59.8437   82.4562 C   0  0  0  0  0  0  0  0  0  0  0  0
   -3.2576   59.9913   80.9998 C   0  0  0  0  0  0  0  0  0  0  0  0
    2.9561   67.0543   84.3014 S   0  0  0  0  0  0  0  0  0  0  0  0
    3.5222   67.3195   83.1386 O   0  0  0  0  0  0  0  0  0  0  0  0
    2.3633   68.1704   84.6548 O   0  0  0  0  0  0  0  0  0  0  0  0
    3.9836   66.5308   85.3964 N   0  0  0  0  0  0  0  0  0  0  0  0
    4.9041   67.6441   86.0340 C   0  0  0  0  0  0  0  0  0  0  0  0
    6.1722   68.0447   85.2557 C   0  0  0  0  0  0  0  0  0  0  0  0
    6.8942   66.9341   84.5476 N   0  0  0  0  0  0  0  0  0  0  0  0
    8.2295   66.7534   85.1975 C   0  0  0  0  0  0  0  0  0  0  0  0
    6.2137   65.5704   84.4067 C   0  0  0  0  0  0  0  0  0  0  0  0
    4.8731   65.3189   85.1959 C   0  0  0  0  0  0  0  0  0  0  0  0
    6.9330   67.2575   83.5810 H   0  0  0  0  0  0  0  0  0  0  0  0
   -1.1521   62.6282   84.3146 O   0  0  0  0  0  0  0  0  0  0  0  0
   -2.4958   62.7424   84.8244 C   0  0  0  0  0  0  0  0  0  0  0  0
   -2.4204   62.2198   86.2494 C   0  0  0  0  0  0  0  0  0  0  0  0
 20 21  1  0  0  0
 21 19  1  0  0  0
 19  7  1  0  0  0
  7 17  1  0  0  0
  7  8  2  0  0  0
  8  9  1  0  0  0
  9 10  1  0  0  0
 11  9  1  0  0  0
 11 12  1  0  0  0
 12 13  2  0  0  0
 14 12  1  0  0  0
 15 14  2  0  0  0
 16 17  1  0  0  0
 16 15  1  0  0  0
 16 18  1  0  0  0
 17 11  2  0  0  0
  1 15  1  0  0  0
  1  6  1  0  0  0
  2  1  2  0  0  0
  3  2  1  0  0  0
  3  4  2  0  0  0
  4  5  1  0  0  0
  5  6  2  0  0  0
  6 33  1  0  0  0
 33 34  1  0  0  0
 34 35  1  0  0  0
 22 24  2  0  0  0
 22 25  1  0  0  0
 22  3  1  0  0  0
 23 22  2  0  0  0
 25 26  1  0  0  0
 27 26  1  0  0  0
 28 29  1  0  0  0
 28 27  1  0  0  0
 28 32  1  0  0  0
 30 28  1  0  0  0
 30 31  1  0  0  0
 31 25  1  0  0  0
M  CHG 1  28   1
M  END
> <minimizedAffinity>
-8.68121

$$$$
/home/hjpark/lecture_drug1/0905_agent/pde5_harness/sample_run/structures/work/ligand_ref.pdb


 35 38  0  0  0  0  0  0  0  0999 V2000
    0.8827   65.4860   83.0346 C   0  0  0  0  0  0  0  0  0  0  0  0
    0.4909   64.9253   81.7575 C   0  0  0  0  0  0  0  0  0  0  0  0
    0.7758   65.6243   80.5063 C   0  0  0  0  0  0  0  0  0  0  0  0
    1.4915   66.9368   80.5969 C   0  0  0  0  0  0  0  0  0  0  0  0
    1.8939   67.5187   81.8731 C   0  0  0  0  0  0  0  0  0  0  0  0
    1.5934   66.8082   83.1309 C   0  0  0  0  0  0  0  0  0  0  0  0
   -1.8328   62.3200   85.7987 C   0  0  0  0  0  0  0  0  0  0  0  0
   -1.6139   61.8871   87.1132 N   0  0  0  0  0  0  0  0  0  0  0  0
   -0.4776   62.4732   87.5913 N   0  0  0  0  0  0  0  0  0  0  0  0
    0.0318   62.2303   88.9437 C   0  0  0  0  0  0  0  0  0  0  0  0
    0.0221   63.2696   86.5922 C   0  0  0  0  0  0  0  0  0  0  0  0
    1.1720   64.1229   86.4860 C   0  0  0  0  0  0  0  0  0  0  0  0
    1.9673   64.2764   87.3843 O   0  0  0  0  0  0  0  0  0  0  0  0
    1.3823   64.8103   85.2924 N   0  0  0  0  0  0  0  0  0  0  0  0
    0.5359   64.7168   84.1787 C   0  0  0  0  0  0  0  0  0  0  0  0
   -0.5954   63.8943   84.2333 N   0  0  0  0  0  0  0  0  0  0  0  0
   -0.8255   63.1868   85.4473 C   0  0  0  0  0  0  0  0  0  0  0  0
   -1.2056   63.8087   83.4656 H   0  0  0  0  0  0  0  0  0  0  0  0
   -2.9751   61.8922   84.9350 C   0  0  0  0  0  0  0  0  0  0  0  0
   -3.0841   60.4820   82.8158 C   0  0  0  0  0  0  0  0  0  0  0  0
   -2.2637   61.4662   83.6053 C   0  0  0  0  0  0  0  0  0  0  0  0
    0.3227   65.0247   79.0926 S   0  0  0  0  0  0  0  0  0  0  0  0
   -0.6949   65.6258   78.5045 O   0  0  0  0  0  0  0  0  0  0  0  0
    1.3163   65.1243   78.2411 O   0  0  0  0  0  0  0  0  0  0  0  0
    0.0131   63.5196   79.5022 N   0  0  0  0  0  0  0  0  0  0  0  0
    0.7730   62.4270   78.6525 C   0  0  0  0  0  0  0  0  0  0  0  0
    0.1539   62.0261   77.2996 C   0  0  0  0  0  0  0  0  0  0  0  0
   -1.3458   61.9574   77.2511 N   0  0  0  0  0  0  0  0  0  0  0  0
   -1.7433   60.5320   77.0311 C   0  0  0  0  0  0  0  0  0  0  0  0
   -2.1587   62.5336   78.4129 C   0  0  0  0  0  0  0  0  0  0  0  0
   -1.3896   62.9827   79.7130 C   0  0  0  0  0  0  0  0  0  0  0  0
   -1.5854   62.5877   76.4858 H   0  0  0  0  0  0  0  0  0  0  0  0
    1.9301   67.3138   84.4446 O   0  0  0  0  0  0  0  0  0  0  0  0
    3.1019   68.0938   84.7558 C   0  0  0  0  0  0  0  0  0  0  0  0
    4.2464   67.0943   84.7688 C   0  0  0  0  0  0  0  0  0  0  0  0
 20 21  1  0  0  0
 21 19  1  0  0  0
 19  7  1  0  0  0
  7 17  1  0  0  0
  7  8  2  0  0  0
  8  9  1  0  0  0
  9 10  1  0  0  0
 11  9  1  0  0  0
 11 12  1  0  0  0
 12 13  2  0  0  0
 14 12  1  0  0  0
 15 14  2  0  0  0
 16 17  1  0  0  0
 16 15  1  0  0  0
 16 18  1  0  0  0
 17 11  2  0  0  0
  1 15  1  0  0  0
  1  6  1  0  0  0
  2  1  2  0  0  0
  3  2  1  0  0  0
  3  4  2  0  0  0
  4  5  1  0  0  0
  5  6  2  0  0  0
  6 33  1  0  0  0
 33 34  1  0  0  0
 34 35  1  0  0  0
 22 24  2  0  0  0
 22 25  1  0  0  0
 22  3  1  0  0  0
 23 22  2  0  0  0
 25 26  1  0  0  0
 27 26  1  0  0  0
 28 29  1  0  0  0
 28 27  1  0  0  0
 28 32  1  0  0  0
 30 28  1  0  0  0
 30 31  1  0  0  0
 31 25  1  0  0  0
M  CHG 1  28   1
M  END
> <minimizedAffinity>
-8.61047

$$$$
/home/hjpark/lecture_drug1/0905_agent/pde5_harness/sample_run/structures/work/ligand_ref.pdb


 35 38  0  0  0  0  0  0  0  0999 V2000
    1.2694   66.2019   81.9575 C   0  0  0  0  0  0  0  0  0  0  0  0
    1.6387   67.4504   81.3220 C   0  0  0  0  0  0  0  0  0  0  0  0
    2.2384   68.5399   82.0892 C   0  0  0  0  0  0  0  0  0  0  0  0
    2.4600   68.3126   83.5527 C   0  0  0  0  0  0  0  0  0  0  0  0
    2.0946   67.0630   84.2116 C   0  0  0  0  0  0  0  0  0  0  0  0
    1.4816   65.9727   83.4288 C   0  0  0  0  0  0  0  0  0  0  0  0
   -0.7447   61.7922   80.7180 C   0  0  0  0  0  0  0  0  0  0  0  0
   -1.2047   61.3534   79.4694 N   0  0  0  0  0  0  0  0  0  0  0  0
   -1.0303   62.3516   78.5550 N   0  0  0  0  0  0  0  0  0  0  0  0
   -1.4094   62.2122   77.1462 C   0  0  0  0  0  0  0  0  0  0  0  0
   -0.4665   63.4147   79.2139 C   0  0  0  0  0  0  0  0  0  0  0  0
   -0.0549   64.7285   78.8064 C   0  0  0  0  0  0  0  0  0  0  0  0
   -0.1652   65.1345   77.6724 O   0  0  0  0  0  0  0  0  0  0  0  0
    0.5012   65.5773   79.7612 N   0  0  0  0  0  0  0  0  0  0  0  0
    0.6818   65.2265   81.1064 C   0  0  0  0  0  0  0  0  0  0  0  0
    0.2920   63.9580   81.5517 N   0  0  0  0  0  0  0  0  0  0  0  0
   -0.2760   63.0779   80.5873 C   0  0  0  0  0  0  0  0  0  0  0  0
    0.4056   63.6861   82.4910 H   0  0  0  0  0  0  0  0  0  0  0  0
   -0.7743   60.9834   81.9745 C   0  0  0  0  0  0  0  0  0  0  0  0
   -3.0407   59.8955   82.3883 C   0  0  0  0  0  0  0  0  0  0  0  0
   -2.2479   61.1719   82.4734 C   0  0  0  0  0  0  0  0  0  0  0  0
    2.6249   69.9325   81.4002 S   0  0  0  0  0  0  0  0  0  0  0  0
    3.9151   70.1887   81.2890 O   0  0  0  0  0  0  0  0  0  0  0  0
    2.1664   69.9498   80.1707 O   0  0  0  0  0  0  0  0  0  0  0  0
    1.8616   70.9497   82.3549 N   0  0  0  0  0  0  0  0  0  0  0  0
    0.3606   71.2384   81.9589 C   0  0  0  0  0  0  0  0  0  0  0  0
    0.1072   72.3031   80.8743 C   0  0  0  0  0  0  0  0  0  0  0  0
    1.0134   73.5009   80.8965 N   0  0  0  0  0  0  0  0  0  0  0  0
    0.1929   74.7035   81.2407 C   0  0  0  0  0  0  0  0  0  0  0  0
    2.2647   73.4755   81.7776 C   0  0  0  0  0  0  0  0  0  0  0  0
    2.4412   72.2817   82.7909 C   0  0  0  0  0  0  0  0  0  0  0  0
    1.4104   73.5128   79.9570 H   0  0  0  0  0  0  0  0  0  0  0  0
    1.0639   64.7078   83.9949 O   0  0  0  0  0  0  0  0  0  0  0  0
    0.4535   64.5423   85.2905 C   0  0  0  0  0  0  0  0  0  0  0  0
   -0.4999   63.3702   85.1280 C   0  0  0  0  0  0  0  0  0  0  0  0
 20 21  1  0  0  0
 21 19  1  0  0  0
 19  7  1  0  0  0
  7 17  1  0  0  0
  7  8  2  0  0  0
  8  9  1  0  0  0
  9 10  1  0  0  0
 11  9  1  0  0  0
 11 12  1  0  0  0
 12 13  2  0  0  0
 14 12  1  0  0  0
 15 14  2  0  0  0
 16 17  1  0  0  0
 16 15  1  0  0  0
 16 18  1  0  0  0
 17 11  2  0  0  0
  1 15  1  0  0  0
  1  6  1  0  0  0
  2  1  2  0  0  0
  3  2  1  0  0  0
  3  4  2  0  0  0
  4  5  1  0  0  0
  5  6  2  0  0  0
  6 33  1  0  0  0
 33 34  1  0  0  0
 34 35  1  0  0  0
 22 24  2  0  0  0
 22 25  1  0  0  0
 22  3  1  0  0  0
 23 22  2  0  0  0
 25 26  1  0  0  0
 27 26  1  0  0  0
 28 29  1  0  0  0
 28 27  1  0  0  0
 28 32  1  0  0  0
 30 28  1  0  0  0
 30 31  1  0  0  0
 31 25  1  0  0  0
M  CHG 1  28   1
M  END
> <minimizedAffinity>
-8.51187

$$$$
/home/hjpark/lecture_drug1/0905_agent/pde5_harness/sample_run/structures/work/ligand_ref.pdb


 35 38  0  0  0  0  0  0  0  0999 V2000
    0.7647   65.4352   81.3477 C   0  0  0  0  0  0  0  0  0  0  0  0
    1.2475   66.0115   82.5862 C   0  0  0  0  0  0  0  0  0  0  0  0
    2.0908   67.2048   82.5858 C   0  0  0  0  0  0  0  0  0  0  0  0
    2.4303   67.8091   81.2582 C   0  0  0  0  0  0  0  0  0  0  0  0
    1.9548   67.2437   79.9999 C   0  0  0  0  0  0  0  0  0  0  0  0
    1.1109   66.0334   80.0118 C   0  0  0  0  0  0  0  0  0  0  0  0
   -1.3865   61.1466   79.9272 C   0  0  0  0  0  0  0  0  0  0  0  0
   -2.2404   60.3062   80.6536 N   0  0  0  0  0  0  0  0  0  0  0  0
   -2.4299   60.8329   81.8985 N   0  0  0  0  0  0  0  0  0  0  0  0
   -3.2768   60.1942   82.9097 C   0  0  0  0  0  0  0  0  0  0  0  0
   -1.7041   61.9952   81.9646 C   0  0  0  0  0  0  0  0  0  0  0  0
   -1.5001   62.9798   82.9895 C   0  0  0  0  0  0  0  0  0  0  0  0
   -2.0077   62.9095   84.0851 O   0  0  0  0  0  0  0  0  0  0  0  0
   -0.6805   64.0712   82.7097 N   0  0  0  0  0  0  0  0  0  0  0  0
   -0.0346   64.2672   81.4809 C   0  0  0  0  0  0  0  0  0  0  0  0
   -0.1999   63.3320   80.4526 N   0  0  0  0  0  0  0  0  0  0  0  0
   -1.0365   62.2120   80.7222 C   0  0  0  0  0  0  0  0  0  0  0  0
    0.2432   63.4438   79.5807 H   0  0  0  0  0  0  0  0  0  0  0  0
   -0.9361   60.9035   78.5229 C   0  0  0  0  0  0  0  0  0  0  0  0
   -3.1038   61.8504   77.5762 C   0  0  0  0  0  0  0  0  0  0  0  0
   -2.2804   60.6062   77.7743 C   0  0  0  0  0  0  0  0  0  0  0  0
    2.6505   67.8326   83.9482 S   0  0  0  0  0  0  0  0  0  0  0  0
    2.6698   69.1508   84.0170 O   0  0  0  0  0  0  0  0  0  0  0  0
    1.8894   67.4499   84.9465 O   0  0  0  0  0  0  0  0  0  0  0  0
    4.0994   67.1789   83.9945 N   0  0  0  0  0  0  0  0  0  0  0  0
    4.1391   65.6782   84.4839 C   0  0  0  0  0  0  0  0  0  0  0  0
    4.1447   65.4297   86.0046 C   0  0  0  0  0  0  0  0  0  0  0  0
    4.9351   66.4024   86.8324 N   0  0  0  0  0  0  0  0  0  0  0  0
    6.0888   65.6706   87.4419 C   0  0  0  0  0  0  0  0  0  0  0  0
    5.4422   67.6943   86.1870 C   0  0  0  0  0  0  0  0  0  0  0  0
    5.3013   67.8551   84.6257 C   0  0  0  0  0  0  0  0  0  0  0  0
    4.2507   66.7502   87.5040 H   0  0  0  0  0  0  0  0  0  0  0  0
    0.6108   65.3856   78.8180 O   0  0  0  0  0  0  0  0  0  0  0  0
   -0.6295   65.7097   78.1584 C   0  0  0  0  0  0  0  0  0  0  0  0
   -0.7746   64.6677   77.0618 C   0  0  0  0  0  0  0  0  0  0  0  0
 20 21  1  0  0  0
 21 19  1  0  0  0
 19  7  1  0  0  0
  7 17  1  0  0  0
  7  8  2  0  0  0
  8  9  1  0  0  0
  9 10  1  0  0  0
 11  9  1  0  0  0
 11 12  1  0  0  0
 12 13  2  0  0  0
 14 12  1  0  0  0
 15 14  2  0  0  0
 16 17  1  0  0  0
 16 15  1  0  0  0
 16 18  1  0  0  0
 17 11  2  0  0  0
  1 15  1  0  0  0
  1  6  1  0  0  0
  2  1  2  0  0  0
  3  2  1  0  0  0
  3  4  2  0  0  0
  4  5  1  0  0  0
  5  6  2  0  0  0
  6 33  1  0  0  0
 33 34  1  0  0  0
 34 35  1  0  0  0
 22 24  2  0  0  0
 22 25  1  0  0  0
 22  3  1  0  0  0
 23 22  2  0  0  0
 25 26  1  0  0  0
 27 26  1  0  0  0
 28 29  1  0  0  0
 28 27  1  0  0  0
 28 32  1  0  0  0
 30 28  1  0  0  0
 30 31  1  0  0  0
 31 25  1  0  0  0
M  CHG 1  28   1
M  END
> <minimizedAffinity>
-8.29347

$$$$
/home/hjpark/lecture_drug1/0905_agent/pde5_harness/sample_run/structures/work/ligand_ref.pdb


 35 38  0  0  0  0  0  0  0  0999 V2000
    0.9594   66.9002   81.2324 C   0  0  0  0  0  0  0  0  0  0  0  0
    0.6137   66.2461   79.9868 C   0  0  0  0  0  0  0  0  0  0  0  0
    0.2636   64.8278   79.9502 C   0  0  0  0  0  0  0  0  0  0  0  0
    0.2714   64.0817   81.2487 C   0  0  0  0  0  0  0  0  0  0  0  0
    0.6171   64.7218   82.5135 C   0  0  0  0  0  0  0  0  0  0  0  0
    0.9775   66.1525   82.5375 C   0  0  0  0  0  0  0  0  0  0  0  0
    0.1323   71.8273   80.9539 C   0  0  0  0  0  0  0  0  0  0  0  0
    1.0595   72.8713   80.8380 N   0  0  0  0  0  0  0  0  0  0  0  0
    2.3194   72.3467   80.8125 N   0  0  0  0  0  0  0  0  0  0  0  0
    3.5220   73.1761   80.6959 C   0  0  0  0  0  0  0  0  0  0  0  0
    2.1961   70.9840   80.9121 C   0  0  0  0  0  0  0  0  0  0  0  0
    3.1401   69.9025   80.9424 C   0  0  0  0  0  0  0  0  0  0  0  0
    4.3367   70.0667   80.8770 O   0  0  0  0  0  0  0  0  0  0  0  0
    2.6565   68.6003   81.0493 N   0  0  0  0  0  0  0  0  0  0  0  0
    1.2947   68.2781   81.1335 C   0  0  0  0  0  0  0  0  0  0  0  0
    0.3370   69.2988   81.1122 N   0  0  0  0  0  0  0  0  0  0  0  0
    0.8153   70.6353   81.0010 C   0  0  0  0  0  0  0  0  0  0  0  0
   -0.6255   69.1012   81.1716 H   0  0  0  0  0  0  0  0  0  0  0  0
   -1.3505   72.0021   81.0214 C   0  0  0  0  0  0  0  0  0  0  0  0
   -2.8776   72.5017   79.0440 C   0  0  0  0  0  0  0  0  0  0  0  0
   -1.6461   72.9316   79.7948 C   0  0  0  0  0  0  0  0  0  0  0  0
   -0.0936   64.0909   78.5744 S   0  0  0  0  0  0  0  0  0  0  0  0
   -0.8204   64.7816   77.7157 O   0  0  0  0  0  0  0  0  0  0  0  0
    1.0160   63.8088   77.9330 O   0  0  0  0  0  0  0  0  0  0  0  0
   -0.8323   62.7942   79.1237 N   0  0  0  0  0  0  0  0  0  0  0  0
   -0.2634   61.4234   78.5849 C   0  0  0  0  0  0  0  0  0  0  0  0
   -0.7647   60.9408   77.2100 C   0  0  0  0  0  0  0  0  0  0  0  0
   -2.2095   61.2098   76.8994 N   0  0  0  0  0  0  0  0  0  0  0  0
   -2.9220   59.8975   76.8087 C   0  0  0  0  0  0  0  0  0  0  0  0
   -3.0055   62.1540   77.8034 C   0  0  0  0  0  0  0  0  0  0  0  0
   -2.3409   62.6390   79.1475 C   0  0  0  0  0  0  0  0  0  0  0  0
   -2.1685   61.7317   76.0239 H   0  0  0  0  0  0  0  0  0  0  0  0
    1.3572   66.8700   83.7357 O   0  0  0  0  0  0  0  0  0  0  0  0
    2.6785   66.8768   84.3124 C   0  0  0  0  0  0  0  0  0  0  0  0
    2.9849   68.3422   84.5736 C   0  0  0  0  0  0  0  0  0  0  0  0
 20 21  1  0  0  0
 21 19  1  0  0  0
 19  7  1  0  0  0
  7 17  1  0  0  0
  7  8  2  0  0  0
  8  9  1  0  0  0
  9 10  1  0  0  0
 11  9  1  0  0  0
 11 12  1  0  0  0
 12 13  2  0  0  0
 14 12  1  0  0  0
 15 14  2  0  0  0
 16 17  1  0  0  0
 16 15  1  0  0  0
 16 18  1  0  0  0
 17 11  2  0  0  0
  1 15  1  0  0  0
  1  6  1  0  0  0
  2  1  2  0  0  0
  3  2  1  0  0  0
  3  4  2  0  0  0
  4  5  1  0  0  0
  5  6  2  0  0  0
  6 33  1  0  0  0
 33 34  1  0  0  0
 34 35  1  0  0  0
 22 24  2  0  0  0
 22 25  1  0  0  0
 22  3  1  0  0  0
 23 22  2  0  0  0
 25 26  1  0  0  0
 27 26  1  0  0  0
 28 29  1  0  0  0
 28 27  1  0  0  0
 28 32  1  0  0  0
 30 28  1  0  0  0
 30 31  1  0  0  0
 31 25  1  0  0  0
M  CHG 1  28   1
M  END
> <minimizedAffinity>
-8.17741

$$$$
/home/hjpark/lecture_drug1/0905_agent/pde5_harness/sample_run/structures/work/ligand_ref.pdb


 35 38  0  0  0  0  0  0  0  0999 V2000
    0.4953   65.3567   82.4412 C   0  0  0  0  0  0  0  0  0  0  0  0
    0.6622   66.4556   81.5118 C   0  0  0  0  0  0  0  0  0  0  0  0
    1.3512   67.6818   81.9079 C   0  0  0  0  0  0  0  0  0  0  0  0
    1.8807   67.7543   83.3069 C   0  0  0  0  0  0  0  0  0  0  0  0
    1.7224   66.6592   84.2581 C   0  0  0  0  0  0  0  0  0  0  0  0
    1.0173   65.4289   83.8500 C   0  0  0  0  0  0  0  0  0  0  0  0
   -2.3666   61.2571   82.6437 C   0  0  0  0  0  0  0  0  0  0  0  0
   -2.7655   60.4086   81.6026 N   0  0  0  0  0  0  0  0  0  0  0  0
   -2.2445   60.8698   80.4283 N   0  0  0  0  0  0  0  0  0  0  0  0
   -2.4733   60.2039   79.1430 C   0  0  0  0  0  0  0  0  0  0  0  0
   -1.5227   61.9999   80.7181 C   0  0  0  0  0  0  0  0  0  0  0  0
   -0.7577   62.9188   79.9231 C   0  0  0  0  0  0  0  0  0  0  0  0
   -0.6282   62.8090   78.7255 O   0  0  0  0  0  0  0  0  0  0  0  0
   -0.1311   63.9878   80.5603 N   0  0  0  0  0  0  0  0  0  0  0  0
   -0.2049   64.2256   81.9400 C   0  0  0  0  0  0  0  0  0  0  0  0
   -0.9425   63.3594   82.7555 N   0  0  0  0  0  0  0  0  0  0  0  0
   -1.5870   62.2606   82.1195 C   0  0  0  0  0  0  0  0  0  0  0  0
   -1.0126   63.5037   83.7267 H   0  0  0  0  0  0  0  0  0  0  0  0
   -2.7435   61.0866   84.0800 C   0  0  0  0  0  0  0  0  0  0  0  0
   -2.7792   62.5811   86.1431 C   0  0  0  0  0  0  0  0  0  0  0  0
   -2.6113   62.5411   84.6481 C   0  0  0  0  0  0  0  0  0  0  0  0
    1.5166   68.9112   80.8957 S   0  0  0  0  0  0  0  0  0  0  0  0
    2.0050   68.6222   79.7037 O   0  0  0  0  0  0  0  0  0  0  0  0
    0.3393   69.4420   80.6625 O   0  0  0  0  0  0  0  0  0  0  0  0
    2.4620   69.8636   81.7488 N   0  0  0  0  0  0  0  0  0  0  0  0
    1.8474   71.2758   82.0972 C   0  0  0  0  0  0  0  0  0  0  0  0
    1.9571   72.3787   81.0267 C   0  0  0  0  0  0  0  0  0  0  0  0
    3.2298   72.4047   80.2295 N   0  0  0  0  0  0  0  0  0  0  0  0
    3.9654   73.6645   80.5611 C   0  0  0  0  0  0  0  0  0  0  0  0
    4.1938   71.2193   80.3210 C   0  0  0  0  0  0  0  0  0  0  0  0
    3.9190   70.1150   81.4111 C   0  0  0  0  0  0  0  0  0  0  0  0
    2.9042   72.3449   79.2647 H   0  0  0  0  0  0  0  0  0  0  0  0
    0.7896   64.2998   84.7263 O   0  0  0  0  0  0  0  0  0  0  0  0
    0.2397   64.3823   86.0564 C   0  0  0  0  0  0  0  0  0  0  0  0
    1.4010   64.0591   86.9818 C   0  0  0  0  0  0  0  0  0  0  0  0
 20 21  1  0  0  0
 21 19  1  0  0  0
 19  7  1  0  0  0
  7 17  1  0  0  0
  7  8  2  0  0  0
  8  9  1  0  0  0
  9 10  1  0  0  0
 11  9  1  0  0  0
 11 12  1  0  0  0
 12 13  2  0  0  0
 14 12  1  0  0  0
 15 14  2  0  0  0
 16 17  1  0  0  0
 16 15  1  0  0  0
 16 18  1  0  0  0
 17 11  2  0  0  0
  1 15  1  0  0  0
  1  6  1  0  0  0
  2  1  2  0  0  0
  3  2  1  0  0  0
  3  4  2  0  0  0
  4  5  1  0  0  0
  5  6  2  0  0  0
  6 33  1  0  0  0
 33 34  1  0  0  0
 34 35  1  0  0  0
 22 24  2  0  0  0
 22 25  1  0  0  0
 22  3  1  0  0  0
 23 22  2  0  0  0
 25 26  1  0  0  0
 27 26  1  0  0  0
 28 29  1  0  0  0
 28 27  1  0  0  0
 28 32  1  0  0  0
 30 28  1  0  0  0
 30 31  1  0  0  0
 31 25  1  0  0  0
M  CHG 1  28   1
M  END
> <minimizedAffinity>
-8.10789

$$$$
