/home/hjpark/lecture_drug1/0905_agent/pde5_harness/sample_run/structures/work/ligand_ref.pdb


 34 37  0  0  0  0  0  0  0  0999 V2000
    0.4057   64.1272   83.8818 C   0  0  0  0  0  0  0  0  0  0  0  0
    0.1343   63.3916   82.6636 C   0  0  0  0  0  0  0  0  0  0  0  0
   -0.7097   62.1988   82.6737 C   0  0  0  0  0  0  0  0  0  0  0  0
   -1.2851   61.7720   83.9888 C   0  0  0  0  0  0  0  0  0  0  0  0
   -1.0233   62.4985   85.2268 C   0  0  0  0  0  0  0  0  0  0  0  0
   -0.1625   63.6969   85.2064 C   0  0  0  0  0  0  0  0  0  0  0  0
    4.3120   67.0986   84.8561 C   0  0  0  0  0  0  0  0  0  0  0  0
    4.6531   68.3257   84.2720 N   0  0  0  0  0  0  0  0  0  0  0  0
    3.7227   68.6413   83.3245 N   0  0  0  0  0  0  0  0  0  0  0  0
    3.7878   69.8689   82.5267 C   0  0  0  0  0  0  0  0  0  0  0  0
    2.8000   67.6263   83.3046 C   0  0  0  0  0  0  0  0  0  0  0  0
    1.6104   67.3826   82.5384 C   0  0  0  0  0  0  0  0  0  0  0  0
    1.2039   68.1411   81.6884 O   0  0  0  0  0  0  0  0  0  0  0  0
    0.8863   66.2184   82.7863 N   0  0  0  0  0  0  0  0  0  0  0  0
    1.2523   65.2608   83.7426 C   0  0  0  0  0  0  0  0  0  0  0  0
    2.4064   65.4525   84.5110 N   0  0  0  0  0  0  0  0  0  0  0  0
    3.1562   66.6389   84.2711 C   0  0  0  0  0  0  0  0  0  0  0  0
    2.6877   64.7955   85.1881 H   0  0  0  0  0  0  0  0  0  0  0  0
    5.0934   66.4151   85.9315 C   0  0  0  0  0  0  0  0  0  0  0  0
    7.3943   65.8838   84.9749 C   0  0  0  0  0  0  0  0  0  0  0  0
    5.9769   65.4013   85.1268 C   0  0  0  0  0  0  0  0  0  0  0  0
   -0.9930   61.3647   81.3366 S   0  0  0  0  0  0  0  0  0  0  0  0
    0.0682   60.8926   80.7092 O   0  0  0  0  0  0  0  0  0  0  0  0
   -1.7144   60.3083   81.6295 O   0  0  0  0  0  0  0  0  0  0  0  0
   -1.7978   62.4423   80.4881 N   0  0  0  0  0  0  0  0  0  0  0  0
   -3.2819   62.0378   80.1314 C   0  0  0  0  0  0  0  0  0  0  0  0
   -3.4927   61.1349   78.9007 C   0  0  0  0  0  0  0  0  0  0  0  0
   -2.5912   61.3925   77.7272 N   0  0  0  0  0  0  0  0  0  0  0  0
   -3.4283   61.8968   76.5944 C   0  0  0  0  0  0  0  0  0  0  0  0
   -1.3775   62.3082   77.9034 C   0  0  0  0  0  0  0  0  0  0  0  0
   -1.2402   63.1164   79.2492 C   0  0  0  0  0  0  0  0  0  0  0  0
    0.1744   64.4696   86.3829 O   0  0  0  0  0  0  0  0  0  0  0  0
   -0.2510   64.1612   87.7253 C   0  0  0  0  0  0  0  0  0  0  0  0
    0.8718   63.3199   88.3092 C   0  0  0  0  0  0  0  0  0  0  0  0
 20 21  1  0  0  0
 21 19  1  0  0  0
 19  7  1  0  0  0
  7 17  1  0  0  0
  7  8  2  0  0  0
  8  9  1  0  0  0
  9 10  1  0  0  0
 11  9  1  0  0  0
 11 12  1  0  0  0
 12 13  2  0  0  0
 14 12  1  0  0  0
 15 14  2  0  0  0
 16 17  1  0  0  0
 16 15  1  0  0  0
 16 18  1  0  0  0
 17 11  2  0  0  0
  1 15  1  0  0  0
  1  6  1  0  0  0
  2  1  2  0  0  0
  3  2  1  0  0  0
  3  4  2  0  0  0
  4  5  1  0  0  0
  5  6  2  0  0  0
  6 32  1  0  0  0
 32 33  1  0  0  0
 33 34  1  0  0  0
 22 24  2  0  0  0
 22 25  1  0  0  0
 22  3  1  0  0  0
 23 22  2  0  0  0
 25 26  1  0  0  0
 27 26  1  0  0  0
 28 29  1  0  0  0
 28 27  1  0  0  0
 30 28  1  0  0  0
 30 31  1  0  0  0
 31 25  1  0  0  0
M  END
> <minimizedAffinity>
-9.62748

$$$$
/home/hjpark/lecture_drug1/0905_agent/pde5_harness/sample_run/structures/work/ligand_ref.pdb


 34 37  0  0  0  0  0  0  0  0999 V2000
    2.1163   67.1992   83.3143 C   0  0  0  0  0  0  0  0  0  0  0  0
    1.5624   68.1717   82.3943 C   0  0  0  0  0  0  0  0  0  0  0  0
    2.3049   69.3770   82.0320 C   0  0  0  0  0  0  0  0  0  0  0  0
    3.6591   69.5630   82.6439 C   0  0  0  0  0  0  0  0  0  0  0  0
    4.2343   68.5958   83.5728 C   0  0  0  0  0  0  0  0  0  0  0  0
    3.4720   67.3865   83.9383 C   0  0  0  0  0  0  0  0  0  0  0  0
   -0.1484   63.7522   86.1476 C   0  0  0  0  0  0  0  0  0  0  0  0
   -0.9912   62.7041   85.7550 N   0  0  0  0  0  0  0  0  0  0  0  0
   -1.1399   62.7369   84.3986 N   0  0  0  0  0  0  0  0  0  0  0  0
   -1.9626   61.7696   83.6670 C   0  0  0  0  0  0  0  0  0  0  0  0
   -0.4009   63.7946   83.9326 C   0  0  0  0  0  0  0  0  0  0  0  0
   -0.1612   64.3371   82.6249 C   0  0  0  0  0  0  0  0  0  0  0  0
   -0.6450   63.8741   81.6177 O   0  0  0  0  0  0  0  0  0  0  0  0
    0.6707   65.4485   82.5081 N   0  0  0  0  0  0  0  0  0  0  0  0
    1.2903   66.0773   83.5973 C   0  0  0  0  0  0  0  0  0  0  0  0
    1.0831   65.5871   84.8920 N   0  0  0  0  0  0  0  0  0  0  0  0
    0.2371   64.4500   85.0278 C   0  0  0  0  0  0  0  0  0  0  0  0
    1.5042   66.0102   85.6748 H   0  0  0  0  0  0  0  0  0  0  0  0
    0.2482   64.0504   87.5575 C   0  0  0  0  0  0  0  0  0  0  0  0
    0.2826   62.1441   89.2476 C   0  0  0  0  0  0  0  0  0  0  0  0
   -0.5889   63.0118   88.3801 C   0  0  0  0  0  0  0  0  0  0  0  0
    1.6892   70.4698   81.0370 S   0  0  0  0  0  0  0  0  0  0  0  0
    2.5473   71.0834   80.2432 O   0  0  0  0  0  0  0  0  0  0  0  0
    0.8337   69.8879   80.2298 O   0  0  0  0  0  0  0  0  0  0  0  0
    0.9862   71.4455   82.0775 N   0  0  0  0  0  0  0  0  0  0  0  0
   -0.4716   71.9050   81.6816 C   0  0  0  0  0  0  0  0  0  0  0  0
   -0.5994   73.0949   80.7110 C   0  0  0  0  0  0  0  0  0  0  0  0
    0.4046   74.1993   80.8803 N   0  0  0  0  0  0  0  0  0  0  0  0
   -0.3205   75.4273   81.3324 C   0  0  0  0  0  0  0  0  0  0  0  0
    1.6211   73.9723   81.7809 C   0  0  0  0  0  0  0  0  0  0  0  0
    1.6636   72.6686   82.6652 C   0  0  0  0  0  0  0  0  0  0  0  0
    3.9460   66.3827   84.8671 O   0  0  0  0  0  0  0  0  0  0  0  0
    5.0733   66.5405   85.7518 C   0  0  0  0  0  0  0  0  0  0  0  0
    5.8388   65.2318   85.6490 C   0  0  0  0  0  0  0  0  0  0  0  0
 20 21  1  0  0  0
 21 19  1  0  0  0
 19  7  1  0  0  0
  7 17  1  0  0  0
  7  8  2  0  0  0
  8  9  1  0  0  0
  9 10  1  0  0  0
 11  9  1  0  0  0
 11 12  1  0  0  0
 12 13  2  0  0  0
 14 12  1  0  0  0
 15 14  2  0  0  0
 16 17  1  0  0  0
 16 15  1  0  0  0
 16 18  1  0  0  0
 17 11  2  0  0  0
  1 15  1  0  0  0
  1  6  1  0  0  0
  2  1  2  0  0  0
  3  2  1  0  0  0
  3  4  2  0  0  0
  4  5  1  0  0  0
  5  6  2  0  0  0
  6 32  1  0  0  0
 32 33  1  0  0  0
 33 34  1  0  0  0
 22 24  2  0  0  0
 22 25  1  0  0  0
 22  3  1  0  0  0
 23 22  2  0  0  0
 25 26  1  0  0  0
 27 26  1  0  0  0
 28 29  1  0  0  0
 28 27  1  0  0  0
 30 28  1  0  0  0
 30 31  1  0  0  0
 31 25  1  0  0  0
M  END
> <minimizedAffinity>
-9.49215

$$$$
/home/hjpark/lecture_drug1/0905_agent/pde5_harness/sample_run/structures/work/ligand_ref.pdb


 34 37  0  0  0  0  0  0  0  0999 V2000
    0.0570   64.3048   83.7604 C   0  0  0  0  0  0  0  0  0  0  0  0
   -0.6327   63.9631   82.5330 C   0  0  0  0  0  0  0  0  0  0  0  0
   -1.6227   62.8889   82.4969 C   0  0  0  0  0  0  0  0  0  0  0  0
   -1.8983   62.1616   83.7767 C   0  0  0  0  0  0  0  0  0  0  0  0
   -1.2141   62.4899   85.0229 C   0  0  0  0  0  0  0  0  0  0  0  0
   -0.2099   63.5709   85.0459 C   0  0  0  0  0  0  0  0  0  0  0  0
    4.2037   66.8782   84.8654 C   0  0  0  0  0  0  0  0  0  0  0  0
    4.6663   68.0817   84.3170 N   0  0  0  0  0  0  0  0  0  0  0  0
    3.7851   68.5042   83.3641 N   0  0  0  0  0  0  0  0  0  0  0  0
    3.9765   69.7388   82.5980 C   0  0  0  0  0  0  0  0  0  0  0  0
    2.7732   67.5797   83.3054 C   0  0  0  0  0  0  0  0  0  0  0  0
    1.5793   67.4652   82.5161 C   0  0  0  0  0  0  0  0  0  0  0  0
    1.2588   68.2777   81.6793 O   0  0  0  0  0  0  0  0  0  0  0  0
    0.7469   66.3675   82.7243 N   0  0  0  0  0  0  0  0  0  0  0  0
    1.0068   65.3580   83.6618 C   0  0  0  0  0  0  0  0  0  0  0  0
    2.1606   65.4241   84.4516 N   0  0  0  0  0  0  0  0  0  0  0  0
    3.0205   66.5413   84.2523 C   0  0  0  0  0  0  0  0  0  0  0  0
    2.3685   64.7282   85.1161 H   0  0  0  0  0  0  0  0  0  0  0  0
    4.9004   66.1003   85.9347 C   0  0  0  0  0  0  0  0  0  0  0  0
    7.3524   65.8855   85.2765 C   0  0  0  0  0  0  0  0  0  0  0  0
    5.9766   65.2931   85.1309 C   0  0  0  0  0  0  0  0  0  0  0  0
   -2.3701   62.4871   81.1392 S   0  0  0  0  0  0  0  0  0  0  0  0
   -3.6891   62.5323   81.1654 O   0  0  0  0  0  0  0  0  0  0  0  0
   -2.0189   63.3204   80.1882 O   0  0  0  0  0  0  0  0  0  0  0  0
   -1.7952   61.0215   80.9150 N   0  0  0  0  0  0  0  0  0  0  0  0
   -0.4902   60.9447   80.0293 C   0  0  0  0  0  0  0  0  0  0  0  0
   -0.6726   60.9429   78.4993 C   0  0  0  0  0  0  0  0  0  0  0  0
   -1.8579   60.1846   77.9738 N   0  0  0  0  0  0  0  0  0  0  0  0
   -1.3556   59.0159   77.1865 C   0  0  0  0  0  0  0  0  0  0  0  0
   -2.9343   59.7080   78.9520 C   0  0  0  0  0  0  0  0  0  0  0  0
   -2.6527   59.8425   80.4967 C   0  0  0  0  0  0  0  0  0  0  0  0
    0.5374   63.9543   86.2246 O   0  0  0  0  0  0  0  0  0  0  0  0
   -0.0343   64.1877   87.5273 C   0  0  0  0  0  0  0  0  0  0  0  0
    0.6483   63.1834   88.4409 C   0  0  0  0  0  0  0  0  0  0  0  0
 20 21  1  0  0  0
 21 19  1  0  0  0
 19  7  1  0  0  0
  7 17  1  0  0  0
  7  8  2  0  0  0
  8  9  1  0  0  0
  9 10  1  0  0  0
 11  9  1  0  0  0
 11 12  1  0  0  0
 12 13  2  0  0  0
 14 12  1  0  0  0
 15 14  2  0  0  0
 16 17  1  0  0  0
 16 15  1  0  0  0
 16 18  1  0  0  0
 17 11  2  0  0  0
  1 15  1  0  0  0
  1  6  1  0  0  0
  2  1  2  0  0  0
  3  2  1  0  0  0
  3  4  2  0  0  0
  4  5  1  0  0  0
  5  6  2  0  0  0
  6 32  1  0  0  0
 32 33  1  0  0  0
 33 34  1  0  0  0
 22 24  2  0  0  0
 22 25  1  0  0  0
 22  3  1  0  0  0
 23 22  2  0  0  0
 25 26  1  0  0  0
 27 26  1  0  0  0
 28 29  1  0  0  0
 28 27  1  0  0  0
 30 28  1  0  0  0
 30 31  1  0  0  0
 31 25  1  0  0  0
M  END
> <minimizedAffinity>
-9.44859

$$$$
/home/hjpark/lecture_drug1/0905_agent/pde5_harness/sample_run/structures/work/ligand_ref.pdb


 34 37  0  0  0  0  0  0  0  0999 V2000
    0.9260   65.9909   81.9249 C   0  0  0  0  0  0  0  0  0  0  0  0
    1.4313   67.2421   82.4522 C   0  0  0  0  0  0  0  0  0  0  0  0
    2.0145   68.2521   81.5719 C   0  0  0  0  0  0  0  0  0  0  0  0
    2.0636   67.9449   80.1069 C   0  0  0  0  0  0  0  0  0  0  0  0
    1.5608   66.6907   79.5562 C   0  0  0  0  0  0  0  0  0  0  0  0
    0.9818   65.6742   80.4555 C   0  0  0  0  0  0  0  0  0  0  0  0
   -1.9189   62.2488   83.6400 C   0  0  0  0  0  0  0  0  0  0  0  0
   -2.0153   61.7405   84.9421 N   0  0  0  0  0  0  0  0  0  0  0  0
   -1.1702   62.4382   85.7558 N   0  0  0  0  0  0  0  0  0  0  0  0
   -1.0330   62.1551   87.1871 C   0  0  0  0  0  0  0  0  0  0  0  0
   -0.5418   63.3796   84.9804 C   0  0  0  0  0  0  0  0  0  0  0  0
    0.4391   64.3926   85.2509 C   0  0  0  0  0  0  0  0  0  0  0  0
    0.9119   64.5796   86.3484 O   0  0  0  0  0  0  0  0  0  0  0  0
    0.8663   65.2021   84.2005 N   0  0  0  0  0  0  0  0  0  0  0  0
    0.3967   65.0856   82.8847 C   0  0  0  0  0  0  0  0  0  0  0  0
   -0.5569   64.1099   82.5716 N   0  0  0  0  0  0  0  0  0  0  0  0
   -1.0054   63.2759   83.6349 C   0  0  0  0  0  0  0  0  0  0  0  0
   -0.9026   64.0048   81.6559 H   0  0  0  0  0  0  0  0  0  0  0  0
   -2.6858   61.7393   82.4625 C   0  0  0  0  0  0  0  0  0  0  0  0
   -1.1490   61.0674   80.5446 C   0  0  0  0  0  0  0  0  0  0  0  0
   -1.7276   60.6501   81.8698 C   0  0  0  0  0  0  0  0  0  0  0  0
    2.5994   69.6261   82.1494 S   0  0  0  0  0  0  0  0  0  0  0  0
    2.2625   69.9265   83.3899 O   0  0  0  0  0  0  0  0  0  0  0  0
    3.9105   69.5701   82.1559 O   0  0  0  0  0  0  0  0  0  0  0  0
    2.0337   70.6551   81.0771 N   0  0  0  0  0  0  0  0  0  0  0  0
    2.8772   71.9800   80.9139 C   0  0  0  0  0  0  0  0  0  0  0  0
    2.6115   73.1164   81.9200 C   0  0  0  0  0  0  0  0  0  0  0  0
    1.1831   73.3057   82.3443 N   0  0  0  0  0  0  0  0  0  0  0  0
    0.7132   74.6305   81.8322 C   0  0  0  0  0  0  0  0  0  0  0  0
    0.1497   72.2335   81.9907 C   0  0  0  0  0  0  0  0  0  0  0  0
    0.5784   71.0766   81.0103 C   0  0  0  0  0  0  0  0  0  0  0  0
    0.4792   64.3926   80.0087 O   0  0  0  0  0  0  0  0  0  0  0  0
   -0.0205   64.1154   78.6851 C   0  0  0  0  0  0  0  0  0  0  0  0
    0.9346   63.0807   78.1139 C   0  0  0  0  0  0  0  0  0  0  0  0
 20 21  1  0  0  0
 21 19  1  0  0  0
 19  7  1  0  0  0
  7 17  1  0  0  0
  7  8  2  0  0  0
  8  9  1  0  0  0
  9 10  1  0  0  0
 11  9  1  0  0  0
 11 12  1  0  0  0
 12 13  2  0  0  0
 14 12  1  0  0  0
 15 14  2  0  0  0
 16 17  1  0  0  0
 16 15  1  0  0  0
 16 18  1  0  0  0
 17 11  2  0  0  0
  1 15  1  0  0  0
  1  6  1  0  0  0
  2  1  2  0  0  0
  3  2  1  0  0  0
  3  4  2  0  0  0
  4  5  1  0  0  0
  5  6  2  0  0  0
  6 32  1  0  0  0
 32 33  1  0  0  0
 33 34  1  0  0  0
 22 24  2  0  0  0
 22 25  1  0  0  0
 22  3  1  0  0  0
 23 22  2  0  0  0
 25 26  1  0  0  0
 27 26  1  0  0  0
 28 29  1  0  0  0
 28 27  1  0  0  0
 30 28  1  0  0  0
 30 31  1  0  0  0
 31 25  1  0  0  0
M  END
> <minimizedAffinity>
-8.98644

$$$$
/home/hjpark/lecture_drug1/0905_agent/pde5_harness/sample_run/structures/work/ligand_ref.pdb


 34 37  0  0  0  0  0  0  0  0999 V2000
    2.1492   66.3161   84.0491 C   0  0  0  0  0  0  0  0  0  0  0  0
    1.6374   67.1946   83.0169 C   0  0  0  0  0  0  0  0  0  0  0  0
    2.4534   68.2790   82.4752 C   0  0  0  0  0  0  0  0  0  0  0  0
    3.8371   68.4418   83.0245 C   0  0  0  0  0  0  0  0  0  0  0  0
    4.3708   67.5682   84.0643 C   0  0  0  0  0  0  0  0  0  0  0  0
    3.5349   66.4817   84.6102 C   0  0  0  0  0  0  0  0  0  0  0  0
   -1.0502   62.4888   83.6568 C   0  0  0  0  0  0  0  0  0  0  0  0
   -1.7427   61.8118   84.6693 N   0  0  0  0  0  0  0  0  0  0  0  0
   -1.4132   62.3585   85.8758 N   0  0  0  0  0  0  0  0  0  0  0  0
   -1.9698   61.8775   87.1433 C   0  0  0  0  0  0  0  0  0  0  0  0
   -0.5202   63.3716   85.6346 C   0  0  0  0  0  0  0  0  0  0  0  0
    0.1788   64.2992   86.4788 C   0  0  0  0  0  0  0  0  0  0  0  0
    0.0617   64.3161   87.6825 O   0  0  0  0  0  0  0  0  0  0  0  0
    1.0313   65.2272   85.8845 N   0  0  0  0  0  0  0  0  0  0  0  0
    1.2535   65.3097   84.5027 C   0  0  0  0  0  0  0  0  0  0  0  0
    0.5978   64.4238   83.6399 N   0  0  0  0  0  0  0  0  0  0  0  0
   -0.2789   63.4707   84.2317 C   0  0  0  0  0  0  0  0  0  0  0  0
    0.7367   64.4582   82.6659 H   0  0  0  0  0  0  0  0  0  0  0  0
   -1.1427   62.1751   82.1983 C   0  0  0  0  0  0  0  0  0  0  0  0
   -3.3107   62.0994   80.8621 C   0  0  0  0  0  0  0  0  0  0  0  0
   -2.4414   62.9359   81.7618 C   0  0  0  0  0  0  0  0  0  0  0  0
    1.8863   69.2709   81.3536 S   0  0  0  0  0  0  0  0  0  0  0  0
    2.7801   69.8014   80.5397 O   0  0  0  0  0  0  0  0  0  0  0  0
    1.0604   68.6151   80.5725 O   0  0  0  0  0  0  0  0  0  0  0  0
    1.1481   70.3458   82.2639 N   0  0  0  0  0  0  0  0  0  0  0  0
   -0.3009   70.7467   81.7813 C   0  0  0  0  0  0  0  0  0  0  0  0
   -0.4088   71.8247   80.6856 C   0  0  0  0  0  0  0  0  0  0  0  0
    0.5830   72.9501   80.7629 N   0  0  0  0  0  0  0  0  0  0  0  0
   -0.1623   74.2126   81.0606 C   0  0  0  0  0  0  0  0  0  0  0  0
    1.7752   72.8321   81.7155 C   0  0  0  0  0  0  0  0  0  0  0  0
    1.8009   71.6310   82.7353 C   0  0  0  0  0  0  0  0  0  0  0  0
    3.9651   65.5797   85.6572 O   0  0  0  0  0  0  0  0  0  0  0  0
    5.3312   65.1918   85.9056 C   0  0  0  0  0  0  0  0  0  0  0  0
    5.5742   65.5262   87.3679 C   0  0  0  0  0  0  0  0  0  0  0  0
 20 21  1  0  0  0
 21 19  1  0  0  0
 19  7  1  0  0  0
  7 17  1  0  0  0
  7  8  2  0  0  0
  8  9  1  0  0  0
  9 10  1  0  0  0
 11  9  1  0  0  0
 11 12  1  0  0  0
 12 13  2  0  0  0
 14 12  1  0  0  0
 15 14  2  0  0  0
 16 17  1  0  0  0
 16 15  1  0  0  0
 16 18  1  0  0  0
 17 11  2  0  0  0
  1 15  1  0  0  0
  1  6  1  0  0  0
  2  1  2  0  0  0
  3  2  1  0  0  0
  3  4  2  0  0  0
  4  5  1  0  0  0
  5  6  2  0  0  0
  6 32  1  0  0  0
 32 33  1  0  0  0
 33 34  1  0  0  0
 22 24  2  0  0  0
 22 25  1  0  0  0
 22  3  1  0  0  0
 23 22  2  0  0  0
 25 26  1  0  0  0
 27 26  1  0  0  0
 28 29  1  0  0  0
 28 27  1  0  0  0
 30 28  1  0  0  0
 30 31  1  0  0  0
 31 25  1  0  0  0
M  END
> <minimizedAffinity>
-8.94590

$$$$
/home/hjpark/lecture_drug1/0905_agent/pde5_harness/sample_run/structures/work/ligand_ref.pdb


 34 37  0  0  0  0  0  0  0  0999 V2000
    0.5152   64.5380   84.6408 C   0  0  0  0  0  0  0  0  0  0  0  0
   -0.0395   64.2571   83.3322 C   0  0  0  0  0  0  0  0  0  0  0  0
   -1.2079   63.3935   83.1767 C   0  0  0  0  0  0  0  0  0  0  0  0
   -1.8099   62.8168   84.4208 C   0  0  0  0  0  0  0  0  0  0  0  0
   -1.2660   63.0869   85.7476 C   0  0  0  0  0  0  0  0  0  0  0  0
   -0.0805   63.9535   85.8921 C   0  0  0  0  0  0  0  0  0  0  0  0
    3.2522   68.6020   83.6255 C   0  0  0  0  0  0  0  0  0  0  0  0
    4.5774   68.8837   83.9827 N   0  0  0  0  0  0  0  0  0  0  0  0
    5.0760   67.8374   84.7035 N   0  0  0  0  0  0  0  0  0  0  0  0
    6.4440   67.8161   85.2287 C   0  0  0  0  0  0  0  0  0  0  0  0
    4.0793   66.9002   84.8051 C   0  0  0  0  0  0  0  0  0  0  0  0
    3.9906   65.6109   85.4308 C   0  0  0  0  0  0  0  0  0  0  0  0
    4.9065   65.1058   86.0383 O   0  0  0  0  0  0  0  0  0  0  0  0
    2.7937   64.9046   85.3322 N   0  0  0  0  0  0  0  0  0  0  0  0
    1.6604   65.3801   84.6577 C   0  0  0  0  0  0  0  0  0  0  0  0
    1.6975   66.6336   84.0358 N   0  0  0  0  0  0  0  0  0  0  0  0
    2.9146   67.3669   84.1256 C   0  0  0  0  0  0  0  0  0  0  0  0
    0.9159   66.9926   83.5570 H   0  0  0  0  0  0  0  0  0  0  0  0
    2.3657   69.5110   82.8369 C   0  0  0  0  0  0  0  0  0  0  0  0
    2.1649   68.3418   80.5821 C   0  0  0  0  0  0  0  0  0  0  0  0
    2.9267   69.3648   81.3809 C   0  0  0  0  0  0  0  0  0  0  0  0
   -1.8111   63.0564   81.7324 S   0  0  0  0  0  0  0  0  0  0  0  0
   -3.1184   63.1864   81.6027 O   0  0  0  0  0  0  0  0  0  0  0  0
   -1.2971   63.8762   80.8460 O   0  0  0  0  0  0  0  0  0  0  0  0
   -1.3067   61.5594   81.5500 N   0  0  0  0  0  0  0  0  0  0  0  0
   -0.1412   61.3710   80.5015 C   0  0  0  0  0  0  0  0  0  0  0  0
   -0.5369   61.2577   79.0166 C   0  0  0  0  0  0  0  0  0  0  0  0
   -1.8011   60.5014   78.7232 N   0  0  0  0  0  0  0  0  0  0  0  0
   -1.4409   59.2594   77.9710 C   0  0  0  0  0  0  0  0  0  0  0  0
   -2.7397   60.1379   79.8762 C   0  0  0  0  0  0  0  0  0  0  0  0
   -2.2408   60.3812   81.3511 C   0  0  0  0  0  0  0  0  0  0  0  0
    0.5455   64.2611   87.1604 O   0  0  0  0  0  0  0  0  0  0  0  0
    1.0314   63.2836   88.1020 C   0  0  0  0  0  0  0  0  0  0  0  0
   -0.0957   63.1127   89.1068 C   0  0  0  0  0  0  0  0  0  0  0  0
 20 21  1  0  0  0
 21 19  1  0  0  0
 19  7  1  0  0  0
  7 17  1  0  0  0
  7  8  2  0  0  0
  8  9  1  0  0  0
  9 10  1  0  0  0
 11  9  1  0  0  0
 11 12  1  0  0  0
 12 13  2  0  0  0
 14 12  1  0  0  0
 15 14  2  0  0  0
 16 17  1  0  0  0
 16 15  1  0  0  0
 16 18  1  0  0  0
 17 11  2  0  0  0
  1 15  1  0  0  0
  1  6  1  0  0  0
  2  1  2  0  0  0
  3  2  1  0  0  0
  3  4  2  0  0  0
  4  5  1  0  0  0
  5  6  2  0  0  0
  6 32  1  0  0  0
 32 33  1  0  0  0
 33 34  1  0  0  0
 22 24  2  0  0  0
 22 25  1  0  0  0
 22  3  1  0  0  0
 23 22  2  0  0  0
 25 26  1  0  0  0
 27 26  1  0  0  0
 28 29  1  0  0  0
 28 27  1  0  0  0
 30 28  1  0  0  0
 30 31  1  0  0  0
 31 25  1  0  0  0
M  END
> <minimizedAffinity>
-8.94560

$$$$
/home/hjpark/lecture_drug1/0905_agent/pde5_harness/sample_run/structures/work/ligand_ref.pdb


 34 37  0  0  0  0  0  0  0  0999 V2000
    0.4443   65.0989   81.3106 C   0  0  0  0  0  0  0  0  0  0  0  0
    0.7797   66.3862   80.7369 C   0  0  0  0  0  0  0  0  0  0  0  0
    1.3566   67.4506   81.5552 C   0  0  0  0  0  0  0  0  0  0  0  0
    1.5911   67.1561   83.0047 C   0  0  0  0  0  0  0  0  0  0  0  0
    1.2596   65.8666   83.6018 C   0  0  0  0  0  0  0  0  0  0  0  0
    0.6695   64.8019   82.7679 C   0  0  0  0  0  0  0  0  0  0  0  0
   -2.7834   61.6135   79.7382 C   0  0  0  0  0  0  0  0  0  0  0  0
   -2.8067   60.9189   78.5216 N   0  0  0  0  0  0  0  0  0  0  0  0
   -1.7641   61.3408   77.7483 N   0  0  0  0  0  0  0  0  0  0  0  0
   -1.5031   60.8072   76.4085 C   0  0  0  0  0  0  0  0  0  0  0  0
   -1.0848   62.2940   78.4639 C   0  0  0  0  0  0  0  0  0  0  0  0
    0.0756   63.0958   78.1953 C   0  0  0  0  0  0  0  0  0  0  0  0
    0.6974   63.0338   77.1596 O   0  0  0  0  0  0  0  0  0  0  0  0
    0.5097   63.9868   79.1745 N   0  0  0  0  0  0  0  0  0  0  0  0
   -0.1236   64.1529   80.4142 C   0  0  0  0  0  0  0  0  0  0  0  0
   -1.2610   63.3964   80.7199 N   0  0  0  0  0  0  0  0  0  0  0  0
   -1.7158   62.4794   79.7302 C   0  0  0  0  0  0  0  0  0  0  0  0
   -1.7263   63.4941   81.5819 H   0  0  0  0  0  0  0  0  0  0  0  0
   -3.7701   61.4337   80.8464 C   0  0  0  0  0  0  0  0  0  0  0  0
   -3.1259   60.5802   83.1590 C   0  0  0  0  0  0  0  0  0  0  0  0
   -3.1397   60.2705   81.6863 C   0  0  0  0  0  0  0  0  0  0  0  0
    1.7054   68.8850   80.9352 S   0  0  0  0  0  0  0  0  0  0  0  0
    2.9818   69.1198   80.6934 O   0  0  0  0  0  0  0  0  0  0  0  0
    1.1091   69.0114   79.7731 O   0  0  0  0  0  0  0  0  0  0  0  0
    1.0901   69.8392   82.0486 N   0  0  0  0  0  0  0  0  0  0  0  0
   -0.2754   70.5284   81.6564 C   0  0  0  0  0  0  0  0  0  0  0  0
   -0.2016   71.8146   80.8111 C   0  0  0  0  0  0  0  0  0  0  0  0
    0.9299   72.7509   81.1260 N   0  0  0  0  0  0  0  0  0  0  0  0
    0.3525   74.0150   81.6799 C   0  0  0  0  0  0  0  0  0  0  0  0
    2.0640   72.2737   82.0363 C   0  0  0  0  0  0  0  0  0  0  0  0
    1.8948   70.8955   82.7814 C   0  0  0  0  0  0  0  0  0  0  0  0
    0.2857   63.5005   83.2717 O   0  0  0  0  0  0  0  0  0  0  0  0
   -0.8010   63.2549   84.1867 C   0  0  0  0  0  0  0  0  0  0  0  0
   -0.1387   63.0710   85.5420 C   0  0  0  0  0  0  0  0  0  0  0  0
 20 21  1  0  0  0
 21 19  1  0  0  0
 19  7  1  0  0  0
  7 17  1  0  0  0
  7  8  2  0  0  0
  8  9  1  0  0  0
  9 10  1  0  0  0
 11  9  1  0  0  0
 11 12  1  0  0  0
 12 13  2  0  0  0
 14 12  1  0  0  0
 15 14  2  0  0  0
 16 17  1  0  0  0
 16 15  1  0  0  0
 16 18  1  0  0  0
 17 11  2  0  0  0
  1 15  1  0  0  0
  1  6  1  0  0  0
  2  1  2  0  0  0
  3  2  1  0  0  0
  3  4  2  0  0  0
  4  5  1  0  0  0
  5  6  2  0  0  0
  6 32  1  0  0  0
 32 33  1  0  0  0
 33 34  1  0  0  0
 22 24  2  0  0  0
 22 25  1  0  0  0
 22  3  1  0  0  0
 23 22  2  0  0  0
 25 26  1  0  0  0
 27 26  1  0  0  0
 28 29  1  0  0  0
 28 27  1  0  0  0
 30 28  1  0  0  0
 30 31  1  0  0  0
 31 25  1  0  0  0
M  END
> <minimizedAffinity>
-8.87272

$$$$
/home/hjpark/lecture_drug1/0905_agent/pde5_harness/sample_run/structures/work/ligand_ref.pdb


 34 37  0  0  0  0  0  0  0  0999 V2000
    0.0892   63.3113   84.0428 C   0  0  0  0  0  0  0  0  0  0  0  0
    0.9495   64.3887   83.5979 C   0  0  0  0  0  0  0  0  0  0  0  0
    1.6067   65.2750   84.5560 C   0  0  0  0  0  0  0  0  0  0  0  0
    1.3601   65.0221   86.0113 C   0  0  0  0  0  0  0  0  0  0  0  0
    0.4968   63.9429   86.4796 C   0  0  0  0  0  0  0  0  0  0  0  0
   -0.1687   63.0593   85.5031 C   0  0  0  0  0  0  0  0  0  0  0  0
   -0.5723   61.5527   79.4051 C   0  0  0  0  0  0  0  0  0  0  0  0
   -1.5148   60.6262   78.9401 N   0  0  0  0  0  0  0  0  0  0  0  0
   -2.2935   60.2209   79.9853 N   0  0  0  0  0  0  0  0  0  0  0  0
   -3.3818   59.2510   79.8345 C   0  0  0  0  0  0  0  0  0  0  0  0
   -1.8513   60.8812   81.1036 C   0  0  0  0  0  0  0  0  0  0  0  0
   -2.2552   60.8782   82.4814 C   0  0  0  0  0  0  0  0  0  0  0  0
   -3.1633   60.1996   82.9033 O   0  0  0  0  0  0  0  0  0  0  0  0
   -1.5714   61.6978   83.3768 N   0  0  0  0  0  0  0  0  0  0  0  0
   -0.5025   62.5291   83.0136 C   0  0  0  0  0  0  0  0  0  0  0  0
   -0.0701   62.5628   81.6827 N   0  0  0  0  0  0  0  0  0  0  0  0
   -0.7605   61.7324   80.7548 C   0  0  0  0  0  0  0  0  0  0  0  0
    0.6789   63.1358   81.4005 H   0  0  0  0  0  0  0  0  0  0  0  0
    0.4638   62.2191   78.5586 C   0  0  0  0  0  0  0  0  0  0  0  0
    0.5761   64.7645   78.5607 C   0  0  0  0  0  0  0  0  0  0  0  0
   -0.2327   63.5629   78.1521 C   0  0  0  0  0  0  0  0  0  0  0  0
    2.5376   66.4845   84.0724 S   0  0  0  0  0  0  0  0  0  0  0  0
    3.1229   66.3353   82.8985 O   0  0  0  0  0  0  0  0  0  0  0  0
    1.8109   67.5710   83.9557 O   0  0  0  0  0  0  0  0  0  0  0  0
    3.5661   66.5604   85.2829 N   0  0  0  0  0  0  0  0  0  0  0  0
    4.4370   67.8764   85.3372 C   0  0  0  0  0  0  0  0  0  0  0  0
    5.7019   67.9245   84.4585 C   0  0  0  0  0  0  0  0  0  0  0  0
    6.4733   66.6415   84.3361 N   0  0  0  0  0  0  0  0  0  0  0  0
    7.8041   66.8298   84.9930 C   0  0  0  0  0  0  0  0  0  0  0  0
    5.8436   65.3397   84.8373 C   0  0  0  0  0  0  0  0  0  0  0  0
    4.5008   65.4262   85.6575 C   0  0  0  0  0  0  0  0  0  0  0  0
   -1.0599   61.9788   85.8676 O   0  0  0  0  0  0  0  0  0  0  0  0
   -1.7974   61.8955   87.1035 C   0  0  0  0  0  0  0  0  0  0  0  0
   -2.8735   62.9625   86.9909 C   0  0  0  0  0  0  0  0  0  0  0  0
 20 21  1  0  0  0
 21 19  1  0  0  0
 19  7  1  0  0  0
  7 17  1  0  0  0
  7  8  2  0  0  0
  8  9  1  0  0  0
  9 10  1  0  0  0
 11  9  1  0  0  0
 11 12  1  0  0  0
 12 13  2  0  0  0
 14 12  1  0  0  0
 15 14  2  0  0  0
 16 17  1  0  0  0
 16 15  1  0  0  0
 16 18  1  0  0  0
 17 11  2  0  0  0
  1 15  1  0  0  0
  1  6  1  0  0  0
  2  1  2  0  0  0
  3  2  1  0  0  0
  3  4  2  0  0  0
  4  5  1  0  0  0
  5  6  2  0  0  0
  6 32  1  0  0  0
 32 33  1  0  0  0
 33 34  1  0  0  0
 22 24  2  0  0  0
 22 25  1  0  0  0
 22  3  1  0  0  0
 23 22  2  0  0  0
 25 26  1  0  0  0
 27 26  1  0  0  0
 28 29  1  0  0  0
 28 27  1  0  0  0
 30 28  1  0  0  0
 30 31  1  0  0  0
 31 25  1  0  0  0
M  END
> <minimizedAffinity>
-8.71972

$$$$
/home/hjpark/lecture_drug1/0905_agent/pde5_harness/sample_run/structures/work/ligand_ref.pdb


 34 37  0  0  0  0  0  0  0  0999 V2000
    0.3323   64.2917   83.0883 C   0  0  0  0  0  0  0  0  0  0  0  0
    1.3198   65.3517   83.0747 C   0  0  0  0  0  0  0  0  0  0  0  0
    1.8854   65.8730   84.3171 C   0  0  0  0  0  0  0  0  0  0  0  0
    1.4086   65.2657   85.6004 C   0  0  0  0  0  0  0  0  0  0  0  0
    0.4146   64.1981   85.6355 C   0  0  0  0  0  0  0  0  0  0  0  0
   -0.1563   63.6852   84.3752 C   0  0  0  0  0  0  0  0  0  0  0  0
   -2.7258   62.0251   79.8405 C   0  0  0  0  0  0  0  0  0  0  0  0
   -2.6414   61.9682   78.4431 N   0  0  0  0  0  0  0  0  0  0  0  0
   -1.5403   62.6641   78.0351 N   0  0  0  0  0  0  0  0  0  0  0  0
   -1.1634   62.7975   76.6252 C   0  0  0  0  0  0  0  0  0  0  0  0
   -0.9308   63.1594   79.1600 C   0  0  0  0  0  0  0  0  0  0  0  0
    0.2424   63.9569   79.3824 C   0  0  0  0  0  0  0  0  0  0  0  0
    0.9498   64.3574   78.4868 O   0  0  0  0  0  0  0  0  0  0  0  0
    0.5858   64.2838   80.6925 N   0  0  0  0  0  0  0  0  0  0  0  0
   -0.1510   63.8823   81.8156 C   0  0  0  0  0  0  0  0  0  0  0  0
   -1.3046   63.1073   81.6486 N   0  0  0  0  0  0  0  0  0  0  0  0
   -1.6677   62.7628   80.3157 C   0  0  0  0  0  0  0  0  0  0  0  0
   -1.8417   62.8131   82.4194 H   0  0  0  0  0  0  0  0  0  0  0  0
   -3.8012   61.3884   80.6604 C   0  0  0  0  0  0  0  0  0  0  0  0
   -2.9487   59.8299   82.4868 C   0  0  0  0  0  0  0  0  0  0  0  0
   -3.1882   59.9891   81.0095 C   0  0  0  0  0  0  0  0  0  0  0  0
    2.9572   67.0624   84.3125 S   0  0  0  0  0  0  0  0  0  0  0  0
    3.5190   67.3353   83.1494 O   0  0  0  0  0  0  0  0  0  0  0  0
    2.3690   68.1773   84.6773 O   0  0  0  0  0  0  0  0  0  0  0  0
    3.9880   66.5277   85.3989 N   0  0  0  0  0  0  0  0  0  0  0  0
    4.9132   67.6337   86.0424 C   0  0  0  0  0  0  0  0  0  0  0  0
    6.1790   68.0386   85.2625 C   0  0  0  0  0  0  0  0  0  0  0  0
    6.8960   66.9327   84.5421 N   0  0  0  0  0  0  0  0  0  0  0  0
    8.2336   66.7439   85.1851 C   0  0  0  0  0  0  0  0  0  0  0  0
    6.2124   65.5715   84.3922 C   0  0  0  0  0  0  0  0  0  0  0  0
    4.8744   65.3158   85.1845 C   0  0  0  0  0  0  0  0  0  0  0  0
   -1.1625   62.6471   84.3076 O   0  0  0  0  0  0  0  0  0  0  0  0
   -2.5086   62.7655   84.8100 C   0  0  0  0  0  0  0  0  0  0  0  0
   -2.4507   62.2078   86.2224 C   0  0  0  0  0  0  0  0  0  0  0  0
 20 21  1  0  0  0
 21 19  1  0  0  0
 19  7  1  0  0  0
  7 17  1  0  0  0
  7  8  2  0  0  0
  8  9  1  0  0  0
  9 10  1  0  0  0
 11  9  1  0  0  0
 11 12  1  0  0  0
 12 13  2  0  0  0
 14 12  1  0  0  0
 15 14  2  0  0  0
 16 17  1  0  0  0
 16 15  1  0  0  0
 16 18  1  0  0  0
 17 11  2  0  0  0
  1 15  1  0  0  0
  1  6  1  0  0  0
  2  1  2  0  0  0
  3  2  1  0  0  0
  3  4  2  0  0  0
  4  5  1  0  0  0
  5  6  2  0  0  0
  6 32  1  0  0  0
 32 33  1  0  0  0
 33 34  1  0  0  0
 22 24  2  0  0  0
 22 25  1  0  0  0
 22  3  1  0  0  0
 23 22  2  0  0  0
 25 26  1  0  0  0
 27 26  1  0  0  0
 28 29  1  0  0  0
 28 27  1  0  0  0
 30 28  1  0  0  0
 30 31  1  0  0  0
 31 25  1  0  0  0
M  END
> <minimizedAffinity>
-8.66819

$$$$
/home/hjpark/lecture_drug1/0905_agent/pde5_harness/sample_run/structures/work/ligand_ref.pdb


 34 37  0  0  0  0  0  0  0  0999 V2000
    0.3152   64.5764   82.5972 C   0  0  0  0  0  0  0  0  0  0  0  0
    1.1259   65.7669   82.4412 C   0  0  0  0  0  0  0  0  0  0  0  0
    1.6704   66.4673   83.6024 C   0  0  0  0  0  0  0  0  0  0  0  0
    1.3620   65.9037   84.9551 C   0  0  0  0  0  0  0  0  0  0  0  0
    0.5472   64.7064   85.1335 C   0  0  0  0  0  0  0  0  0  0  0  0
   -0.0048   64.0121   83.9543 C   0  0  0  0  0  0  0  0  0  0  0  0
   -2.7897   61.9609   79.6719 C   0  0  0  0  0  0  0  0  0  0  0  0
   -2.6880   61.6870   78.3016 N   0  0  0  0  0  0  0  0  0  0  0  0
   -1.5529   62.2680   77.8148 N   0  0  0  0  0  0  0  0  0  0  0  0
   -1.1509   62.1684   76.4090 C   0  0  0  0  0  0  0  0  0  0  0  0
   -0.9390   62.9056   78.8630 C   0  0  0  0  0  0  0  0  0  0  0  0
    0.2635   63.6807   78.9849 C   0  0  0  0  0  0  0  0  0  0  0  0
    0.9997   63.9108   78.0533 O   0  0  0  0  0  0  0  0  0  0  0  0
    0.6018   64.1910   80.2364 N   0  0  0  0  0  0  0  0  0  0  0  0
   -0.1670   63.9959   81.3924 C   0  0  0  0  0  0  0  0  0  0  0  0
   -1.3498   63.2507   81.3222 N   0  0  0  0  0  0  0  0  0  0  0  0
   -1.7082   62.7203   80.0504 C   0  0  0  0  0  0  0  0  0  0  0  0
   -1.9096   63.0997   82.1177 H   0  0  0  0  0  0  0  0  0  0  0  0
   -3.9024   61.5005   80.5574 C   0  0  0  0  0  0  0  0  0  0  0  0
   -3.2179   60.2213   82.6518 C   0  0  0  0  0  0  0  0  0  0  0  0
   -3.3411   60.1641   81.1529 C   0  0  0  0  0  0  0  0  0  0  0  0
    2.5450   67.7986   83.4403 S   0  0  0  0  0  0  0  0  0  0  0  0
    2.5060   68.6473   84.4507 O   0  0  0  0  0  0  0  0  0  0  0  0
    3.8103   67.4736   83.3163 O   0  0  0  0  0  0  0  0  0  0  0  0
    1.9279   68.3889   82.0988 N   0  0  0  0  0  0  0  0  0  0  0  0
    2.9839   68.9621   81.0742 C   0  0  0  0  0  0  0  0  0  0  0  0
    3.4795   70.4034   81.3009 C   0  0  0  0  0  0  0  0  0  0  0  0
    2.4568   71.3861   81.7954 N   0  0  0  0  0  0  0  0  0  0  0  0
    2.2303   72.4061   80.7247 C   0  0  0  0  0  0  0  0  0  0  0  0
    1.1048   70.8708   82.2945 C   0  0  0  0  0  0  0  0  0  0  0  0
    0.7554   69.3505   82.0707 C   0  0  0  0  0  0  0  0  0  0  0  0
   -0.8417   62.8336   84.0292 O   0  0  0  0  0  0  0  0  0  0  0  0
   -2.0015   62.6947   84.8740 C   0  0  0  0  0  0  0  0  0  0  0  0
   -1.4605   62.1979   86.2044 C   0  0  0  0  0  0  0  0  0  0  0  0
 20 21  1  0  0  0
 21 19  1  0  0  0
 19  7  1  0  0  0
  7 17  1  0  0  0
  7  8  2  0  0  0
  8  9  1  0  0  0
  9 10  1  0  0  0
 11  9  1  0  0  0
 11 12  1  0  0  0
 12 13  2  0  0  0
 14 12  1  0  0  0
 15 14  2  0  0  0
 16 17  1  0  0  0
 16 15  1  0  0  0
 16 18  1  0  0  0
 17 11  2  0  0  0
  1 15  1  0  0  0
  1  6  1  0  0  0
  2  1  2  0  0  0
  3  2  1  0  0  0
  3  4  2  0  0  0
  4  5  1  0  0  0
  5  6  2  0  0  0
  6 32  1  0  0  0
 32 33  1  0  0  0
 33 34  1  0  0  0
 22 24  2  0  0  0
 22 25  1  0  0  0
 22  3  1  0  0  0
 23 22  2  0  0  0
 25 26  1  0  0  0
 27 26  1  0  0  0
 28 29  1  0  0  0
 28 27  1  0  0  0
 30 28  1  0  0  0
 30 31  1  0  0  0
 31 25  1  0  0  0
M  END
> <minimizedAffinity>
-8.66082

$$$$
/home/hjpark/lecture_drug1/0905_agent/pde5_harness/sample_run/structures/work/ligand_ref.pdb


 34 37  0  0  0  0  0  0  0  0999 V2000
    0.5442   65.3879   82.4438 C   0  0  0  0  0  0  0  0  0  0  0  0
    0.6578   66.5200   81.5469 C   0  0  0  0  0  0  0  0  0  0  0  0
    1.3057   67.7587   81.9724 C   0  0  0  0  0  0  0  0  0  0  0  0
    1.8505   67.8086   83.3665 C   0  0  0  0  0  0  0  0  0  0  0  0
    1.7458   66.6798   84.2852 C   0  0  0  0  0  0  0  0  0  0  0  0
    1.0817   65.4368   83.8478 C   0  0  0  0  0  0  0  0  0  0  0  0
   -0.6064   61.8941   79.0515 C   0  0  0  0  0  0  0  0  0  0  0  0
   -1.5284   60.8434   79.1466 N   0  0  0  0  0  0  0  0  0  0  0  0
   -2.1226   60.8826   80.3748 N   0  0  0  0  0  0  0  0  0  0  0  0
   -3.1420   59.9169   80.7942 C   0  0  0  0  0  0  0  0  0  0  0  0
   -1.5844   61.9457   81.0547 C   0  0  0  0  0  0  0  0  0  0  0  0
   -1.7944   62.4933   82.3653 C   0  0  0  0  0  0  0  0  0  0  0  0
   -2.5803   62.0284   83.1586 O   0  0  0  0  0  0  0  0  0  0  0  0
   -1.0606   63.6160   82.7425 N   0  0  0  0  0  0  0  0  0  0  0  0
   -0.1198   64.2469   81.9164 C   0  0  0  0  0  0  0  0  0  0  0  0
    0.1223   63.7468   80.6316 N   0  0  0  0  0  0  0  0  0  0  0  0
   -0.6216   62.6010   80.2304 C   0  0  0  0  0  0  0  0  0  0  0  0
    0.7785   64.1690   80.0314 H   0  0  0  0  0  0  0  0  0  0  0  0
    0.2486   62.1783   77.8590 C   0  0  0  0  0  0  0  0  0  0  0  0
   -0.6644   64.3625   76.9171 C   0  0  0  0  0  0  0  0  0  0  0  0
   -0.7549   62.8611   76.8677 C   0  0  0  0  0  0  0  0  0  0  0  0
    1.4118   69.0237   80.9967 S   0  0  0  0  0  0  0  0  0  0  0  0
    1.7885   68.7724   79.7566 O   0  0  0  0  0  0  0  0  0  0  0  0
    0.2315   69.5868   80.8872 O   0  0  0  0  0  0  0  0  0  0  0  0
    2.4493   69.9225   81.7995 N   0  0  0  0  0  0  0  0  0  0  0  0
    1.9492   71.3825   82.1331 C   0  0  0  0  0  0  0  0  0  0  0  0
    2.1048   72.4520   81.0347 C   0  0  0  0  0  0  0  0  0  0  0  0
    3.3508   72.3687   80.2001 N   0  0  0  0  0  0  0  0  0  0  0  0
    4.1852   73.5783   80.4807 C   0  0  0  0  0  0  0  0  0  0  0  0
    4.2292   71.1186   80.2905 C   0  0  0  0  0  0  0  0  0  0  0  0
    3.9095   70.0601   81.4134 C   0  0  0  0  0  0  0  0  0  0  0  0
    0.9079   64.2738   84.6916 O   0  0  0  0  0  0  0  0  0  0  0  0
    0.6073   64.3114   86.1010 C   0  0  0  0  0  0  0  0  0  0  0  0
   -0.5071   63.2960   86.2917 C   0  0  0  0  0  0  0  0  0  0  0  0
 20 21  1  0  0  0
 21 19  1  0  0  0
 19  7  1  0  0  0
  7 17  1  0  0  0
  7  8  2  0  0  0
  8  9  1  0  0  0
  9 10  1  0  0  0
 11  9  1  0  0  0
 11 12  1  0  0  0
 12 13  2  0  0  0
 14 12  1  0  0  0
 15 14  2  0  0  0
 16 17  1  0  0  0
 16 15  1  0  0  0
 16 18  1  0  0  0
 17 11  2  0  0  0
  1 15  1  0  0  0
  1  6  1  0  0  0
  2  1  2  0  0  0
  3  2  1  0  0  0
  3  4  2  0  0  0
  4  5  1  0  0  0
  5  6  2  0  0  0
  6 32  1  0  0  0
 32 33  1  0  0  0
 33 34  1  0  0  0
 22 24  2  0  0  0
 22 25  1  0  0  0
 22  3  1  0  0  0
 23 22  2  0  0  0
 25 26  1  0  0  0
 27 26  1  0  0  0
 28 29  1  0  0  0
 28 27  1  0  0  0
 30 28  1  0  0  0
 30 31  1  0  0  0
 31 25  1  0  0  0
M  END
> <minimizedAffinity>
-8.64652

$$$$
/home/hjpark/lecture_drug1/0905_agent/pde5_harness/sample_run/structures/work/ligand_ref.pdb


 34 37  0  0  0  0  0  0  0  0999 V2000
    0.8660   65.4740   83.0061 C   0  0  0  0  0  0  0  0  0  0  0  0
    0.4728   64.9103   81.7307 C   0  0  0  0  0  0  0  0  0  0  0  0
    0.7564   65.6066   80.4777 C   0  0  0  0  0  0  0  0  0  0  0  0
    1.4721   66.9192   80.5646 C   0  0  0  0  0  0  0  0  0  0  0  0
    1.8759   67.5041   81.8389 C   0  0  0  0  0  0  0  0  0  0  0  0
    1.5767   66.7963   83.0987 C   0  0  0  0  0  0  0  0  0  0  0  0
   -1.8474   62.3154   85.7809 C   0  0  0  0  0  0  0  0  0  0  0  0
   -1.6267   61.8851   87.0959 N   0  0  0  0  0  0  0  0  0  0  0  0
   -0.4893   62.4714   87.5710 N   0  0  0  0  0  0  0  0  0  0  0  0
    0.0220   62.2308   88.9231 C   0  0  0  0  0  0  0  0  0  0  0  0
    0.0094   63.2654   86.5695 C   0  0  0  0  0  0  0  0  0  0  0  0
    1.1597   64.1176   86.4598 C   0  0  0  0  0  0  0  0  0  0  0  0
    1.9565   64.2724   87.3565 O   0  0  0  0  0  0  0  0  0  0  0  0
    1.3686   64.8024   85.2645 N   0  0  0  0  0  0  0  0  0  0  0  0
    0.5204   64.7073   84.1523 C   0  0  0  0  0  0  0  0  0  0  0  0
   -0.6114   63.8857   84.2104 N   0  0  0  0  0  0  0  0  0  0  0  0
   -0.8400   63.1808   85.4261 C   0  0  0  0  0  0  0  0  0  0  0  0
   -1.2228   63.7990   83.4438 H   0  0  0  0  0  0  0  0  0  0  0  0
   -2.9914   61.8868   84.9198 C   0  0  0  0  0  0  0  0  0  0  0  0
   -3.0955   60.5168   82.7741 C   0  0  0  0  0  0  0  0  0  0  0  0
   -2.2870   61.5028   83.5736 C   0  0  0  0  0  0  0  0  0  0  0  0
    0.3018   65.0038   79.0658 S   0  0  0  0  0  0  0  0  0  0  0  0
   -0.6998   65.6194   78.4653 O   0  0  0  0  0  0  0  0  0  0  0  0
    1.3031   65.0769   78.2207 O   0  0  0  0  0  0  0  0  0  0  0  0
   -0.0399   63.5085   79.4857 N   0  0  0  0  0  0  0  0  0  0  0  0
    0.7270   62.3946   78.6707 C   0  0  0  0  0  0  0  0  0  0  0  0
    0.1388   61.9848   77.3067 C   0  0  0  0  0  0  0  0  0  0  0  0
   -1.3599   61.9361   77.2186 N   0  0  0  0  0  0  0  0  0  0  0  0
   -1.7713   60.5136   77.0059 C   0  0  0  0  0  0  0  0  0  0  0  0
   -2.1954   62.5384   78.3507 C   0  0  0  0  0  0  0  0  0  0  0  0
   -1.4551   62.9937   79.6653 C   0  0  0  0  0  0  0  0  0  0  0  0
    1.9148   67.3049   84.4109 O   0  0  0  0  0  0  0  0  0  0  0  0
    3.1094   68.0469   84.7283 C   0  0  0  0  0  0  0  0  0  0  0  0
    4.2329   67.0253   84.6697 C   0  0  0  0  0  0  0  0  0  0  0  0
 20 21  1  0  0  0
 21 19  1  0  0  0
 19  7  1  0  0  0
  7 17  1  0  0  0
  7  8  2  0  0  0
  8  9  1  0  0  0
  9 10  1  0  0  0
 11  9  1  0  0  0
 11 12  1  0  0  0
 12 13  2  0  0  0
 14 12  1  0  0  0
 15 14  2  0  0  0
 16 17  1  0  0  0
 16 15  1  0  0  0
 16 18  1  0  0  0
 17 11  2  0  0  0
  1 15  1  0  0  0
  1  6  1  0  0  0
  2  1  2  0  0  0
  3  2  1  0  0  0
  3  4  2  0  0  0
  4  5  1  0  0  0
  5  6  2  0  0  0
  6 32  1  0  0  0
 32 33  1  0  0  0
 33 34  1  0  0  0
 22 24  2  0  0  0
 22 25  1  0  0  0
 22  3  1  0  0  0
 23 22  2  0  0  0
 25 26  1  0  0  0
 27 26  1  0  0  0
 28 29  1  0  0  0
 28 27  1  0  0  0
 30 28  1  0  0  0
 30 31  1  0  0  0
 31 25  1  0  0  0
M  END
> <minimizedAffinity>
-8.60110

$$$$
/home/hjpark/lecture_drug1/0905_agent/pde5_harness/sample_run/structures/work/ligand_ref.pdb


 34 37  0  0  0  0  0  0  0  0999 V2000
    0.5098   65.5022   81.7581 C   0  0  0  0  0  0  0  0  0  0  0  0
    1.1764   66.0722   82.9112 C   0  0  0  0  0  0  0  0  0  0  0  0
    1.9958   67.2762   82.7913 C   0  0  0  0  0  0  0  0  0  0  0  0
    2.1138   67.8979   81.4340 C   0  0  0  0  0  0  0  0  0  0  0  0
    1.4510   67.3391   80.2603 C   0  0  0  0  0  0  0  0  0  0  0  0
    0.6331   66.1180   80.3914 C   0  0  0  0  0  0  0  0  0  0  0  0
   -2.2014   62.2441   84.4176 C   0  0  0  0  0  0  0  0  0  0  0  0
   -2.7570   61.0231   84.0133 N   0  0  0  0  0  0  0  0  0  0  0  0
   -2.4528   60.8089   82.7001 N   0  0  0  0  0  0  0  0  0  0  0  0
   -2.8859   59.6144   81.9699 C   0  0  0  0  0  0  0  0  0  0  0  0
   -1.7124   61.8819   82.2725 C   0  0  0  0  0  0  0  0  0  0  0  0
   -1.1112   62.2346   81.0172 C   0  0  0  0  0  0  0  0  0  0  0  0
   -1.1864   61.5407   80.0293 O   0  0  0  0  0  0  0  0  0  0  0  0
   -0.4042   63.4321   80.9315 N   0  0  0  0  0  0  0  0  0  0  0  0
   -0.2454   64.3228   82.0024 C   0  0  0  0  0  0  0  0  0  0  0  0
   -0.8170   64.0240   83.2447 N   0  0  0  0  0  0  0  0  0  0  0  0
   -1.5409   62.8024   83.3491 C   0  0  0  0  0  0  0  0  0  0  0  0
   -0.7227   64.6322   84.0130 H   0  0  0  0  0  0  0  0  0  0  0  0
   -2.3241   62.8294   85.7874 C   0  0  0  0  0  0  0  0  0  0  0  0
   -0.2083   63.6864   86.9191 C   0  0  0  0  0  0  0  0  0  0  0  0
   -0.9488   62.4652   86.4445 C   0  0  0  0  0  0  0  0  0  0  0  0
    2.7575   67.8974   84.0552 S   0  0  0  0  0  0  0  0  0  0  0  0
    2.9345   69.2055   84.0430 O   0  0  0  0  0  0  0  0  0  0  0  0
    2.0616   67.6574   85.1416 O   0  0  0  0  0  0  0  0  0  0  0  0
    4.1193   67.0778   84.0043 N   0  0  0  0  0  0  0  0  0  0  0  0
    4.0412   65.6164   84.5972 C   0  0  0  0  0  0  0  0  0  0  0  0
    4.1833   65.4638   86.1239 C   0  0  0  0  0  0  0  0  0  0  0  0
    5.1642   66.3834   86.7937 N   0  0  0  0  0  0  0  0  0  0  0  0
    6.2865   65.5568   87.3370 C   0  0  0  0  0  0  0  0  0  0  0  0
    5.7416   67.5621   86.0065 C   0  0  0  0  0  0  0  0  0  0  0  0
    5.4515   67.6418   84.4596 C   0  0  0  0  0  0  0  0  0  0  0  0
   -0.0428   65.4758   79.2843 O   0  0  0  0  0  0  0  0  0  0  0  0
    0.6006   65.0022   78.0843 C   0  0  0  0  0  0  0  0  0  0  0  0
   -0.5255   64.4461   77.2287 C   0  0  0  0  0  0  0  0  0  0  0  0
 20 21  1  0  0  0
 21 19  1  0  0  0
 19  7  1  0  0  0
  7 17  1  0  0  0
  7  8  2  0  0  0
  8  9  1  0  0  0
  9 10  1  0  0  0
 11  9  1  0  0  0
 11 12  1  0  0  0
 12 13  2  0  0  0
 14 12  1  0  0  0
 15 14  2  0  0  0
 16 17  1  0  0  0
 16 15  1  0  0  0
 16 18  1  0  0  0
 17 11  2  0  0  0
  1 15  1  0  0  0
  1  6  1  0  0  0
  2  1  2  0  0  0
  3  2  1  0  0  0
  3  4  2  0  0  0
  4  5  1  0  0  0
  5  6  2  0  0  0
  6 32  1  0  0  0
 32 33  1  0  0  0
 33 34  1  0  0  0
 22 24  2  0  0  0
 22 25  1  0  0  0
 22  3  1  0  0  0
 23 22  2  0  0  0
 25 26  1  0  0  0
 27 26  1  0  0  0
 28 29  1  0  0  0
 28 27  1  0  0  0
 30 28  1  0  0  0
 30 31  1  0  0  0
 31 25  1  0  0  0
M  END
> <minimizedAffinity>
-8.57457

$$$$
/home/hjpark/lecture_drug1/0905_agent/pde5_harness/sample_run/structures/work/ligand_ref.pdb


 34 37  0  0  0  0  0  0  0  0999 V2000
    1.2421   66.2171   81.9462 C   0  0  0  0  0  0  0  0  0  0  0  0
    1.5748   67.4847   81.3284 C   0  0  0  0  0  0  0  0  0  0  0  0
    2.1588   68.5743   82.1075 C   0  0  0  0  0  0  0  0  0  0  0  0
    2.4037   68.3268   83.5640 C   0  0  0  0  0  0  0  0  0  0  0  0
    2.0752   67.0578   84.2051 C   0  0  0  0  0  0  0  0  0  0  0  0
    1.4778   65.9673   83.4106 C   0  0  0  0  0  0  0  0  0  0  0  0
   -0.6970   61.7883   80.6564 C   0  0  0  0  0  0  0  0  0  0  0  0
   -1.1585   61.3592   79.4050 N   0  0  0  0  0  0  0  0  0  0  0  0
   -1.0105   62.3740   78.5042 N   0  0  0  0  0  0  0  0  0  0  0  0
   -1.3980   62.2482   77.0965 C   0  0  0  0  0  0  0  0  0  0  0  0
   -0.4619   63.4379   79.1746 C   0  0  0  0  0  0  0  0  0  0  0  0
   -0.0787   64.7653   78.7837 C   0  0  0  0  0  0  0  0  0  0  0  0
   -0.2058   65.1858   77.6568 O   0  0  0  0  0  0  0  0  0  0  0  0
    0.4686   65.6104   79.7467 N   0  0  0  0  0  0  0  0  0  0  0  0
    0.6666   65.2433   81.0852 C   0  0  0  0  0  0  0  0  0  0  0  0
    0.3046   63.9610   81.5144 N   0  0  0  0  0  0  0  0  0  0  0  0
   -0.2541   63.0845   80.5414 C   0  0  0  0  0  0  0  0  0  0  0  0
    0.4309   63.6775   82.4486 H   0  0  0  0  0  0  0  0  0  0  0  0
   -0.7012   60.9606   81.9009 C   0  0  0  0  0  0  0  0  0  0  0  0
   -2.9618   59.8890   82.3836 C   0  0  0  0  0  0  0  0  0  0  0  0
   -2.1574   61.1595   82.4446 C   0  0  0  0  0  0  0  0  0  0  0  0
    2.5047   69.9872   81.4385 S   0  0  0  0  0  0  0  0  0  0  0  0
    3.7852   70.3012   81.3704 O   0  0  0  0  0  0  0  0  0  0  0  0
    2.0855   69.9922   80.1950 O   0  0  0  0  0  0  0  0  0  0  0  0
    1.6666   70.9632   82.3734 N   0  0  0  0  0  0  0  0  0  0  0  0
    0.1735   71.2032   81.9194 C   0  0  0  0  0  0  0  0  0  0  0  0
   -0.0740   72.2730   80.8384 C   0  0  0  0  0  0  0  0  0  0  0  0
    0.7863   73.5021   80.9127 N   0  0  0  0  0  0  0  0  0  0  0  0
   -0.0907   74.6697   81.2374 C   0  0  0  0  0  0  0  0  0  0  0  0
    2.0007   73.5095   81.8442 C   0  0  0  0  0  0  0  0  0  0  0  0
    2.1792   72.3090   82.8492 C   0  0  0  0  0  0  0  0  0  0  0  0
    1.0962   64.6835   83.9593 O   0  0  0  0  0  0  0  0  0  0  0  0
    0.4144   64.4898   85.2147 C   0  0  0  0  0  0  0  0  0  0  0  0
   -0.2096   63.1079   85.1130 C   0  0  0  0  0  0  0  0  0  0  0  0
 20 21  1  0  0  0
 21 19  1  0  0  0
 19  7  1  0  0  0
  7 17  1  0  0  0
  7  8  2  0  0  0
  8  9  1  0  0  0
  9 10  1  0  0  0
 11  9  1  0  0  0
 11 12  1  0  0  0
 12 13  2  0  0  0
 14 12  1  0  0  0
 15 14  2  0  0  0
 16 17  1  0  0  0
 16 15  1  0  0  0
 16 18  1  0  0  0
 17 11  2  0  0  0
  1 15  1  0  0  0
  1  6  1  0  0  0
  2  1  2  0  0  0
  3  2  1  0  0  0
  3  4  2  0  0  0
  4  5  1  0  0  0
  5  6  2  0  0  0
  6 32  1  0  0  0
 32 33  1  0  0  0
 33 34  1  0  0  0
 22 24  2  0  0  0
 22 25  1  0  0  0
 22  3  1  0  0  0
 23 22  2  0  0  0
 25 26  1  0  0  0
 27 26  1  0  0  0
 28 29  1  0  0  0
 28 27  1  0  0  0
 30 28  1  0  0  0
 30 31  1  0  0  0
 31 25  1  0  0  0
M  END
> <minimizedAffinity>
-8.50932

$$$$
/home/hjpark/lecture_drug1/0905_agent/pde5_harness/sample_run/structures/work/ligand_ref.pdb


 34 37  0  0  0  0  0  0  0  0999 V2000
    2.1553   67.1880   83.3552 C   0  0  0  0  0  0  0  0  0  0  0  0
    1.5667   68.1471   82.4427 C   0  0  0  0  0  0  0  0  0  0  0  0
    2.3020   69.3370   82.0198 C   0  0  0  0  0  0  0  0  0  0  0  0
    3.6859   69.5215   82.5618 C   0  0  0  0  0  0  0  0  0  0  0  0
    4.2962   68.5677   83.4821 C   0  0  0  0  0  0  0  0  0  0  0  0
    3.5412   67.3741   83.9092 C   0  0  0  0  0  0  0  0  0  0  0  0
   -0.9726   63.3603   82.5780 C   0  0  0  0  0  0  0  0  0  0  0  0
   -1.5452   62.4867   83.5118 N   0  0  0  0  0  0  0  0  0  0  0  0
   -1.1119   62.8246   84.7613 N   0  0  0  0  0  0  0  0  0  0  0  0
   -1.5291   62.1044   85.9675 C   0  0  0  0  0  0  0  0  0  0  0  0
   -0.2721   63.9008   84.6248 C   0  0  0  0  0  0  0  0  0  0  0  0
    0.4837   64.6928   85.5538 C   0  0  0  0  0  0  0  0  0  0  0  0
    0.4854   64.4918   86.7465 O   0  0  0  0  0  0  0  0  0  0  0  0
    1.2506   65.7460   85.0600 N   0  0  0  0  0  0  0  0  0  0  0  0
    1.3335   66.0807   83.7011 C   0  0  0  0  0  0  0  0  0  0  0  0
    0.6179   65.3348   82.7573 N   0  0  0  0  0  0  0  0  0  0  0  0
   -0.1726   64.2563   83.2465 C   0  0  0  0  0  0  0  0  0  0  0  0
    0.6593   65.5467   81.7968 H   0  0  0  0  0  0  0  0  0  0  0  0
   -1.2005   63.3059   81.1019 C   0  0  0  0  0  0  0  0  0  0  0  0
    0.5391   61.5759   80.4147 C   0  0  0  0  0  0  0  0  0  0  0  0
   -0.9075   61.8046   80.7611 C   0  0  0  0  0  0  0  0  0  0  0  0
    1.6491   70.4154   81.0329 S   0  0  0  0  0  0  0  0  0  0  0  0
    2.4818   71.0422   80.2226 O   0  0  0  0  0  0  0  0  0  0  0  0
    0.7904   69.8156   80.2424 O   0  0  0  0  0  0  0  0  0  0  0  0
    0.9468   71.3813   82.0830 N   0  0  0  0  0  0  0  0  0  0  0  0
   -0.5068   71.8538   81.6868 C   0  0  0  0  0  0  0  0  0  0  0  0
   -0.6238   73.0570   80.7313 C   0  0  0  0  0  0  0  0  0  0  0  0
    0.3853   74.1535   80.9195 N   0  0  0  0  0  0  0  0  0  0  0  0
   -0.3352   75.3794   81.3844 C   0  0  0  0  0  0  0  0  0  0  0  0
    1.5966   73.9082   81.8223 C   0  0  0  0  0  0  0  0  0  0  0  0
    1.6281   72.5929   82.6897 C   0  0  0  0  0  0  0  0  0  0  0  0
    4.0502   66.3847   84.8349 O   0  0  0  0  0  0  0  0  0  0  0  0
    5.1713   66.5793   85.7202 C   0  0  0  0  0  0  0  0  0  0  0  0
    6.2994   65.7645   85.1095 C   0  0  0  0  0  0  0  0  0  0  0  0
 20 21  1  0  0  0
 21 19  1  0  0  0
 19  7  1  0  0  0
  7 17  1  0  0  0
  7  8  2  0  0  0
  8  9  1  0  0  0
  9 10  1  0  0  0
 11  9  1  0  0  0
 11 12  1  0  0  0
 12 13  2  0  0  0
 14 12  1  0  0  0
 15 14  2  0  0  0
 16 17  1  0  0  0
 16 15  1  0  0  0
 16 18  1  0  0  0
 17 11  2  0  0  0
  1 15  1  0  0  0
  1  6  1  0  0  0
  2  1  2  0  0  0
  3  2  1  0  0  0
  3  4  2  0  0  0
  4  5  1  0  0  0
  5  6  2  0  0  0
  6 32  1  0  0  0
 32 33  1  0  0  0
 33 34  1  0  0  0
 22 24  2  0  0  0
 22 25  1  0  0  0
 22  3  1  0  0  0
 23 22  2  0  0  0
 25 26  1  0  0  0
 27 26  1  0  0  0
 28 29  1  0  0  0
 28 27  1  0  0  0
 30 28  1  0  0  0
 30 31  1  0  0  0
 31 25  1  0  0  0
M  END
> <minimizedAffinity>
-8.38213

$$$$
/home/hjpark/lecture_drug1/0905_agent/pde5_harness/sample_run/structures/work/ligand_ref.pdb


 34 37  0  0  0  0  0  0  0  0999 V2000
    0.0016   63.8331   83.0666 C   0  0  0  0  0  0  0  0  0  0  0  0
    0.8129   64.8338   82.4037 C   0  0  0  0  0  0  0  0  0  0  0  0
    1.4948   65.8785   83.1645 C   0  0  0  0  0  0  0  0  0  0  0  0
    1.3260   65.8698   84.6525 C   0  0  0  0  0  0  0  0  0  0  0  0
    0.5130   64.8714   85.3391 C   0  0  0  0  0  0  0  0  0  0  0  0
   -0.1782   63.8262   84.5600 C   0  0  0  0  0  0  0  0  0  0  0  0
   -0.8787   61.3451   78.8154 C   0  0  0  0  0  0  0  0  0  0  0  0
   -1.8091   60.3275   78.5664 N   0  0  0  0  0  0  0  0  0  0  0  0
   -2.5020   60.0678   79.7133 N   0  0  0  0  0  0  0  0  0  0  0  0
   -3.5558   59.0523   79.7909 C   0  0  0  0  0  0  0  0  0  0  0  0
   -2.0178   60.9098   80.6822 C   0  0  0  0  0  0  0  0  0  0  0  0
   -2.3328   61.1114   82.0685 C   0  0  0  0  0  0  0  0  0  0  0  0
   -3.1828   60.4794   82.6525 O   0  0  0  0  0  0  0  0  0  0  0  0
   -1.6285   62.0831   82.7761 N   0  0  0  0  0  0  0  0  0  0  0  0
   -0.6209   62.8801   82.2149 C   0  0  0  0  0  0  0  0  0  0  0  0
   -0.2758   62.7171   80.8682 N   0  0  0  0  0  0  0  0  0  0  0  0
   -0.9882   61.7294   80.1306 C   0  0  0  0  0  0  0  0  0  0  0  0
    0.4290   63.2619   80.4491 H   0  0  0  0  0  0  0  0  0  0  0  0
    0.0724   61.9021   77.8058 C   0  0  0  0  0  0  0  0  0  0  0  0
   -0.1252   64.4273   77.5303 C   0  0  0  0  0  0  0  0  0  0  0  0
   -0.7359   63.0947   77.1892 C   0  0  0  0  0  0  0  0  0  0  0  0
    2.3715   67.0039   82.4376 S   0  0  0  0  0  0  0  0  0  0  0  0
    3.6168   67.1325   82.8565 O   0  0  0  0  0  0  0  0  0  0  0  0
    2.4688   66.7195   81.1602 O   0  0  0  0  0  0  0  0  0  0  0  0
    1.4786   68.2903   82.7144 N   0  0  0  0  0  0  0  0  0  0  0  0
    0.6598   68.8147   81.4703 C   0  0  0  0  0  0  0  0  0  0  0  0
    1.3971   69.7284   80.4723 C   0  0  0  0  0  0  0  0  0  0  0  0
    2.3734   70.7047   81.0637 N   0  0  0  0  0  0  0  0  0  0  0  0
    1.8541   72.0879   80.8291 C   0  0  0  0  0  0  0  0  0  0  0  0
    2.7778   70.5607   82.5328 C   0  0  0  0  0  0  0  0  0  0  0  0
    1.9928   69.5269   83.4263 C   0  0  0  0  0  0  0  0  0  0  0  0
   -1.0242   62.8085   85.1459 O   0  0  0  0  0  0  0  0  0  0  0  0
   -1.2478   62.6311   86.5591 C   0  0  0  0  0  0  0  0  0  0  0  0
   -2.7337   62.8818   86.7556 C   0  0  0  0  0  0  0  0  0  0  0  0
 20 21  1  0  0  0
 21 19  1  0  0  0
 19  7  1  0  0  0
  7 17  1  0  0  0
  7  8  2  0  0  0
  8  9  1  0  0  0
  9 10  1  0  0  0
 11  9  1  0  0  0
 11 12  1  0  0  0
 12 13  2  0  0  0
 14 12  1  0  0  0
 15 14  2  0  0  0
 16 17  1  0  0  0
 16 15  1  0  0  0
 16 18  1  0  0  0
 17 11  2  0  0  0
  1 15  1  0  0  0
  1  6  1  0  0  0
  2  1  2  0  0  0
  3  2  1  0  0  0
  3  4  2  0  0  0
  4  5  1  0  0  0
  5  6  2  0  0  0
  6 32  1  0  0  0
 32 33  1  0  0  0
 33 34  1  0  0  0
 22 24  2  0  0  0
 22 25  1  0  0  0
 22  3  1  0  0  0
 23 22  2  0  0  0
 25 26  1  0  0  0
 27 26  1  0  0  0
 28 29  1  0  0  0
 28 27  1  0  0  0
 30 28  1  0  0  0
 30 31  1  0  0  0
 31 25  1  0  0  0
M  END
> <minimizedAffinity>
-8.12109

$$$$
/home/hjpark/lecture_drug1/0905_agent/pde5_harness/sample_run/structures/work/ligand_ref.pdb


 34 37  0  0  0  0  0  0  0  0999 V2000
    0.5323   65.6524   81.4908 C   0  0  0  0  0  0  0  0  0  0  0  0
    1.1674   66.1165   82.7075 C   0  0  0  0  0  0  0  0  0  0  0  0
    1.9686   67.3384   82.7225 C   0  0  0  0  0  0  0  0  0  0  0  0
    2.1019   68.0918   81.4350 C   0  0  0  0  0  0  0  0  0  0  0  0
    1.4708   67.6409   80.1991 C   0  0  0  0  0  0  0  0  0  0  0  0
    0.6711   66.4008   80.1935 C   0  0  0  0  0  0  0  0  0  0  0  0
   -1.4665   61.3241   79.9714 C   0  0  0  0  0  0  0  0  0  0  0  0
   -2.2557   60.4172   80.6910 N   0  0  0  0  0  0  0  0  0  0  0  0
   -2.4268   60.8865   81.9613 N   0  0  0  0  0  0  0  0  0  0  0  0
   -3.2086   60.1706   82.9731 C   0  0  0  0  0  0  0  0  0  0  0  0
   -1.7534   62.0785   82.0500 C   0  0  0  0  0  0  0  0  0  0  0  0
   -1.5602   63.0320   83.1060 C   0  0  0  0  0  0  0  0  0  0  0  0
   -2.0265   62.8960   84.2137 O   0  0  0  0  0  0  0  0  0  0  0  0
   -0.8015   64.1707   82.8435 N   0  0  0  0  0  0  0  0  0  0  0  0
   -0.2075   64.4436   81.6033 C   0  0  0  0  0  0  0  0  0  0  0  0
   -0.3644   63.5415   80.5446 N   0  0  0  0  0  0  0  0  0  0  0  0
   -1.1391   62.3737   80.7964 C   0  0  0  0  0  0  0  0  0  0  0  0
    0.0432   63.7072   79.6639 H   0  0  0  0  0  0  0  0  0  0  0  0
   -1.0534   61.1561   78.5448 C   0  0  0  0  0  0  0  0  0  0  0  0
   -3.2190   62.1309   77.6221 C   0  0  0  0  0  0  0  0  0  0  0  0
   -2.4144   60.8747   77.8207 C   0  0  0  0  0  0  0  0  0  0  0  0
    2.6958   67.8440   84.0563 S   0  0  0  0  0  0  0  0  0  0  0  0
    2.8769   69.1474   84.1622 O   0  0  0  0  0  0  0  0  0  0  0  0
    1.9685   67.5148   85.0978 O   0  0  0  0  0  0  0  0  0  0  0  0
    4.0561   67.0246   83.9730 N   0  0  0  0  0  0  0  0  0  0  0  0
    4.0021   65.5763   84.5998 C   0  0  0  0  0  0  0  0  0  0  0  0
    4.2006   65.4569   86.1232 C   0  0  0  0  0  0  0  0  0  0  0  0
    5.2039   66.3915   86.7364 N   0  0  0  0  0  0  0  0  0  0  0  0
    6.3468   65.5778   87.2558 C   0  0  0  0  0  0  0  0  0  0  0  0
    5.7502   67.5534   85.9033 C   0  0  0  0  0  0  0  0  0  0  0  0
    5.4032   67.5993   84.3667 C   0  0  0  0  0  0  0  0  0  0  0  0
    0.0270   65.8602   79.0155 O   0  0  0  0  0  0  0  0  0  0  0  0
    0.6784   65.0561   78.0117 C   0  0  0  0  0  0  0  0  0  0  0  0
   -0.4399   64.5957   77.0915 C   0  0  0  0  0  0  0  0  0  0  0  0
 20 21  1  0  0  0
 21 19  1  0  0  0
 19  7  1  0  0  0
  7 17  1  0  0  0
  7  8  2  0  0  0
  8  9  1  0  0  0
  9 10  1  0  0  0
 11  9  1  0  0  0
 11 12  1  0  0  0
 12 13  2  0  0  0
 14 12  1  0  0  0
 15 14  2  0  0  0
 16 17  1  0  0  0
 16 15  1  0  0  0
 16 18  1  0  0  0
 17 11  2  0  0  0
  1 15  1  0  0  0
  1  6  1  0  0  0
  2  1  2  0  0  0
  3  2  1  0  0  0
  3  4  2  0  0  0
  4  5  1  0  0  0
  5  6  2  0  0  0
  6 32  1  0  0  0
 32 33  1  0  0  0
 33 34  1  0  0  0
 22 24  2  0  0  0
 22 25  1  0  0  0
 22  3  1  0  0  0
 23 22  2  0  0  0
 25 26  1  0  0  0
 27 26  1  0  0  0
 28 29  1  0  0  0
 28 27  1  0  0  0
 30 28  1  0  0  0
 30 31  1  0  0  0
 31 25  1  0  0  0
M  END
> <minimizedAffinity>
-8.09925

$$$$
/home/hjpark/lecture_drug1/0905_agent/pde5_harness/sample_run/structures/work/ligand_ref.pdb


 34 37  0  0  0  0  0  0  0  0999 V2000
    0.8825   66.7877   81.1126 C   0  0  0  0  0  0  0  0  0  0  0  0
    0.5344   66.1677   79.8503 C   0  0  0  0  0  0  0  0  0  0  0  0
    0.1822   64.7514   79.7762 C   0  0  0  0  0  0  0  0  0  0  0  0
    0.1904   63.9708   81.0543 C   0  0  0  0  0  0  0  0  0  0  0  0
    0.5386   64.5763   82.3353 C   0  0  0  0  0  0  0  0  0  0  0  0
    0.9011   66.0054   82.3971 C   0  0  0  0  0  0  0  0  0  0  0  0
    0.0613   71.7203   80.9302 C   0  0  0  0  0  0  0  0  0  0  0  0
    0.9906   72.7661   80.8534 N   0  0  0  0  0  0  0  0  0  0  0  0
    2.2506   72.2415   80.8375 N   0  0  0  0  0  0  0  0  0  0  0  0
    3.4551   73.0725   80.7598 C   0  0  0  0  0  0  0  0  0  0  0  0
    2.1253   70.8769   80.9045 C   0  0  0  0  0  0  0  0  0  0  0  0
    3.0684   69.7945   80.9266 C   0  0  0  0  0  0  0  0  0  0  0  0
    4.2660   69.9594   80.8852 O   0  0  0  0  0  0  0  0  0  0  0  0
    2.5828   68.4905   80.9962 N   0  0  0  0  0  0  0  0  0  0  0  0
    1.2197   68.1673   81.0501 C   0  0  0  0  0  0  0  0  0  0  0  0
    0.2628   69.1888   81.0354 N   0  0  0  0  0  0  0  0  0  0  0  0
    0.7431   70.5271   80.9622 C   0  0  0  0  0  0  0  0  0  0  0  0
   -0.7007   68.9905   81.0741 H   0  0  0  0  0  0  0  0  0  0  0  0
   -1.4225   71.8944   80.9765 C   0  0  0  0  0  0  0  0  0  0  0  0
   -2.9516   72.4848   79.0259 C   0  0  0  0  0  0  0  0  0  0  0  0
   -1.6965   72.8552   79.7692 C   0  0  0  0  0  0  0  0  0  0  0  0
   -0.1779   64.0521   78.3817 S   0  0  0  0  0  0  0  0  0  0  0  0
   -0.8933   64.7717   77.5372 O   0  0  0  0  0  0  0  0  0  0  0  0
    0.9310   63.7730   77.7378 O   0  0  0  0  0  0  0  0  0  0  0  0
   -0.9335   62.7511   78.8966 N   0  0  0  0  0  0  0  0  0  0  0  0
   -0.3338   61.3837   78.3829 C   0  0  0  0  0  0  0  0  0  0  0  0
   -0.7705   60.8997   76.9868 C   0  0  0  0  0  0  0  0  0  0  0  0
   -2.2014   61.1612   76.6120 N   0  0  0  0  0  0  0  0  0  0  0  0
   -2.9021   59.8453   76.4888 C   0  0  0  0  0  0  0  0  0  0  0  0
   -3.0420   62.1005   77.4801 C   0  0  0  0  0  0  0  0  0  0  0  0
   -2.4407   62.5879   78.8528 C   0  0  0  0  0  0  0  0  0  0  0  0
    1.2834   66.6899   83.6137 O   0  0  0  0  0  0  0  0  0  0  0  0
    2.3109   66.2487   84.5236 C   0  0  0  0  0  0  0  0  0  0  0  0
    3.5551   67.0189   84.1137 C   0  0  0  0  0  0  0  0  0  0  0  0
 20 21  1  0  0  0
 21 19  1  0  0  0
 19  7  1  0  0  0
  7 17  1  0  0  0
  7  8  2  0  0  0
  8  9  1  0  0  0
  9 10  1  0  0  0
 11  9  1  0  0  0
 11 12  1  0  0  0
 12 13  2  0  0  0
 14 12  1  0  0  0
 15 14  2  0  0  0
 16 17  1  0  0  0
 16 15  1  0  0  0
 16 18  1  0  0  0
 17 11  2  0  0  0
  1 15  1  0  0  0
  1  6  1  0  0  0
  2  1  2  0  0  0
  3  2  1  0  0  0
  3  4  2  0  0  0
  4  5  1  0  0  0
  5  6  2  0  0  0
  6 32  1  0  0  0
 32 33  1  0  0  0
 33 34  1  0  0  0
 22 24  2  0  0  0
 22 25  1  0  0  0
 22  3  1  0  0  0
 23 22  2  0  0  0
 25 26  1  0  0  0
 27 26  1  0  0  0
 28 29  1  0  0  0
 28 27  1  0  0  0
 30 28  1  0  0  0
 30 31  1  0  0  0
 31 25  1  0  0  0
M  END
> <minimizedAffinity>
-8.04953

$$$$
/home/hjpark/lecture_drug1/0905_agent/pde5_harness/sample_run/structures/work/ligand_ref.pdb


 34 37  0  0  0  0  0  0  0  0999 V2000
    0.6651   65.6846   81.0584 C   0  0  0  0  0  0  0  0  0  0  0  0
    1.0830   66.7593   81.9355 C   0  0  0  0  0  0  0  0  0  0  0  0
    1.8747   67.8800   81.4327 C   0  0  0  0  0  0  0  0  0  0  0  0
    2.2308   67.8753   79.9781 C   0  0  0  0  0  0  0  0  0  0  0  0
    1.8203   66.8023   79.0785 C   0  0  0  0  0  0  0  0  0  0  0  0
    1.0284   65.6712   79.5988 C   0  0  0  0  0  0  0  0  0  0  0  0
   -1.0641   62.8484   84.8006 C   0  0  0  0  0  0  0  0  0  0  0  0
   -1.9432   61.7588   84.7468 N   0  0  0  0  0  0  0  0  0  0  0  0
   -2.3079   61.5450   83.4489 N   0  0  0  0  0  0  0  0  0  0  0  0
   -3.2227   60.4724   83.0483 C   0  0  0  0  0  0  0  0  0  0  0  0
   -1.6691   62.4885   82.6848 C   0  0  0  0  0  0  0  0  0  0  0  0
   -1.6503   62.7788   81.2788 C   0  0  0  0  0  0  0  0  0  0  0  0
   -2.2823   62.1465   80.4641 O   0  0  0  0  0  0  0  0  0  0  0  0
   -0.8646   63.8376   80.8287 N   0  0  0  0  0  0  0  0  0  0  0  0
   -0.0879   64.6459   81.6707 C   0  0  0  0  0  0  0  0  0  0  0  0
   -0.0774   64.4040   83.0494 N   0  0  0  0  0  0  0  0  0  0  0  0
   -0.8736   63.3237   83.5249 C   0  0  0  0  0  0  0  0  0  0  0  0
    0.4573   64.9570   83.6637 H   0  0  0  0  0  0  0  0  0  0  0  0
   -0.4511   63.3937   86.0499 C   0  0  0  0  0  0  0  0  0  0  0  0
   -0.9359   63.2263   88.5456 C   0  0  0  0  0  0  0  0  0  0  0  0
   -1.3025   62.7165   87.1779 C   0  0  0  0  0  0  0  0  0  0  0  0
    2.3633   69.0581   82.4006 S   0  0  0  0  0  0  0  0  0  0  0  0
    1.6656   69.2287   83.5082 O   0  0  0  0  0  0  0  0  0  0  0  0
    3.5872   68.8088   82.8032 O   0  0  0  0  0  0  0  0  0  0  0  0
    2.2834   70.2991   81.4094 N   0  0  0  0  0  0  0  0  0  0  0  0
    3.3312   71.4463   81.6905 C   0  0  0  0  0  0  0  0  0  0  0  0
    2.9727   72.4822   82.7734 C   0  0  0  0  0  0  0  0  0  0  0  0
    1.5292   72.8905   82.8483 N   0  0  0  0  0  0  0  0  0  0  0  0
    1.4292   74.3331   82.4650 C   0  0  0  0  0  0  0  0  0  0  0  0
    0.4839   72.0885   82.0694 C   0  0  0  0  0  0  0  0  0  0  0  0
    0.9867   70.9982   81.0487 C   0  0  0  0  0  0  0  0  0  0  0  0
    0.5947   64.5501   78.7926 O   0  0  0  0  0  0  0  0  0  0  0  0
   -0.0860   64.6558   77.5262 C   0  0  0  0  0  0  0  0  0  0  0  0
   -0.4344   63.2260   77.1475 C   0  0  0  0  0  0  0  0  0  0  0  0
 20 21  1  0  0  0
 21 19  1  0  0  0
 19  7  1  0  0  0
  7 17  1  0  0  0
  7  8  2  0  0  0
  8  9  1  0  0  0
  9 10  1  0  0  0
 11  9  1  0  0  0
 11 12  1  0  0  0
 12 13  2  0  0  0
 14 12  1  0  0  0
 15 14  2  0  0  0
 16 17  1  0  0  0
 16 15  1  0  0  0
 16 18  1  0  0  0
 17 11  2  0  0  0
  1 15  1  0  0  0
  1  6  1  0  0  0
  2  1  2  0  0  0
  3  2  1  0  0  0
  3  4  2  0  0  0
  4  5  1  0  0  0
  5  6  2  0  0  0
  6 32  1  0  0  0
 32 33  1  0  0  0
 33 34  1  0  0  0
 22 24  2  0  0  0
 22 25  1  0  0  0
 22  3  1  0  0  0
 23 22  2  0  0  0
 25 26  1  0  0  0
 27 26  1  0  0  0
 28 29  1  0  0  0
 28 27  1  0  0  0
 30 28  1  0  0  0
 30 31  1  0  0  0
 31 25  1  0  0  0
M  END
> <minimizedAffinity>
-8.03723

$$$$
/home/hjpark/lecture_drug1/0905_agent/pde5_harness/sample_run/structures/work/ligand_ref.pdb


 34 37  0  0  0  0  0  0  0  0999 V2000
    1.7635   67.6869   82.6291 C   0  0  0  0  0  0  0  0  0  0  0  0
    0.8993   66.7790   81.9026 C   0  0  0  0  0  0  0  0  0  0  0  0
    0.7099   65.3995   82.3457 C   0  0  0  0  0  0  0  0  0  0  0  0
    1.4385   64.9652   83.5799 C   0  0  0  0  0  0  0  0  0  0  0  0
    2.3137   65.8638   84.3253 C   0  0  0  0  0  0  0  0  0  0  0  0
    2.5044   67.2523   83.8639 C   0  0  0  0  0  0  0  0  0  0  0  0
    4.0003   71.5660   80.3959 C   0  0  0  0  0  0  0  0  0  0  0  0
    3.4799   72.8329   80.1008 N   0  0  0  0  0  0  0  0  0  0  0  0
    2.1832   72.8907   80.5232 N   0  0  0  0  0  0  0  0  0  0  0  0
    1.3495   74.0854   80.3644 C   0  0  0  0  0  0  0  0  0  0  0  0
    1.8809   71.6739   81.0801 C   0  0  0  0  0  0  0  0  0  0  0  0
    0.6997   71.1268   81.6861 C   0  0  0  0  0  0  0  0  0  0  0  0
   -0.3319   71.7472   81.8032 O   0  0  0  0  0  0  0  0  0  0  0  0
    0.7427   69.8193   82.1655 N   0  0  0  0  0  0  0  0  0  0  0  0
    1.8757   68.9971   82.0890 C   0  0  0  0  0  0  0  0  0  0  0  0
    3.0495   69.4850   81.5029 N   0  0  0  0  0  0  0  0  0  0  0  0
    3.0223   70.8205   81.0102 C   0  0  0  0  0  0  0  0  0  0  0  0
    3.8589   68.9288   81.4344 H   0  0  0  0  0  0  0  0  0  0  0  0
    5.3902   71.1159   80.0799 C   0  0  0  0  0  0  0  0  0  0  0  0
    6.6195   71.7527   77.9410 C   0  0  0  0  0  0  0  0  0  0  0  0
    5.9320   72.2742   79.1740 C   0  0  0  0  0  0  0  0  0  0  0  0
   -0.2222   64.3820   81.5337 S   0  0  0  0  0  0  0  0  0  0  0  0
   -1.4495   64.7951   81.2769 O   0  0  0  0  0  0  0  0  0  0  0  0
    0.3122   64.1485   80.3581 O   0  0  0  0  0  0  0  0  0  0  0  0
   -0.1729   63.1151   82.4936 N   0  0  0  0  0  0  0  0  0  0  0  0
    0.1077   61.7400   81.7699 C   0  0  0  0  0  0  0  0  0  0  0  0
   -1.0946   61.0187   81.1306 C   0  0  0  0  0  0  0  0  0  0  0  0
   -2.3936   61.1034   81.8800 N   0  0  0  0  0  0  0  0  0  0  0  0
   -2.7509   59.7310   82.3561 C   0  0  0  0  0  0  0  0  0  0  0  0
   -2.5229   62.0899   83.0431 C   0  0  0  0  0  0  0  0  0  0  0  0
   -1.2235   62.8244   83.5482 C   0  0  0  0  0  0  0  0  0  0  0  0
    3.3683   68.2102   84.5203 O   0  0  0  0  0  0  0  0  0  0  0  0
    4.8028   68.1021   84.6149 C   0  0  0  0  0  0  0  0  0  0  0  0
    5.0779   67.8045   86.0795 C   0  0  0  0  0  0  0  0  0  0  0  0
 20 21  1  0  0  0
 21 19  1  0  0  0
 19  7  1  0  0  0
  7 17  1  0  0  0
  7  8  2  0  0  0
  8  9  1  0  0  0
  9 10  1  0  0  0
 11  9  1  0  0  0
 11 12  1  0  0  0
 12 13  2  0  0  0
 14 12  1  0  0  0
 15 14  2  0  0  0
 16 17  1  0  0  0
 16 15  1  0  0  0
 16 18  1  0  0  0
 17 11  2  0  0  0
  1 15  1  0  0  0
  1  6  1  0  0  0
  2  1  2  0  0  0
  3  2  1  0  0  0
  3  4  2  0  0  0
  4  5  1  0  0  0
  5  6  2  0  0  0
  6 32  1  0  0  0
 32 33  1  0  0  0
 33 34  1  0  0  0
 22 24  2  0  0  0
 22 25  1  0  0  0
 22  3  1  0  0  0
 23 22  2  0  0  0
 25 26  1  0  0  0
 27 26  1  0  0  0
 28 29  1  0  0  0
 28 27  1  0  0  0
 30 28  1  0  0  0
 30 31  1  0  0  0
 31 25  1  0  0  0
M  END
> <minimizedAffinity>
-7.97789

$$$$
