/home/hjpark/lecture_drug1/0905_agent/pde5_harness/sample_run/structures/work/ligand_ref.pdb


 35 38  0  0  0  0  0  0  0  0999 V2000
    0.4343   64.1613   83.8475 C   0  0  0  0  0  0  0  0  0  0  0  0
    0.1608   63.4139   82.6369 C   0  0  0  0  0  0  0  0  0  0  0  0
   -0.6622   62.2067   82.6643 C   0  0  0  0  0  0  0  0  0  0  0  0
   -1.2138   61.7778   83.9889 C   0  0  0  0  0  0  0  0  0  0  0  0
   -0.9495   62.5162   85.2194 C   0  0  0  0  0  0  0  0  0  0  0  0
   -0.1100   63.7290   85.1814 C   0  0  0  0  0  0  0  0  0  0  0  0
    4.3026   67.2034   84.7533 C   0  0  0  0  0  0  0  0  0  0  0  0
    4.6144   68.4333   84.1590 N   0  0  0  0  0  0  0  0  0  0  0  0
    3.6655   68.7287   83.2234 N   0  0  0  0  0  0  0  0  0  0  0  0
    3.6982   69.9534   82.4193 C   0  0  0  0  0  0  0  0  0  0  0  0
    2.7600   67.6979   83.2210 C   0  0  0  0  0  0  0  0  0  0  0  0
    1.5641   67.4305   82.4728 C   0  0  0  0  0  0  0  0  0  0  0  0
    1.1327   68.1779   81.6253 O   0  0  0  0  0  0  0  0  0  0  0  0
    0.8637   66.2552   82.7361 N   0  0  0  0  0  0  0  0  0  0  0  0
    1.2594   65.3084   83.6913 C   0  0  0  0  0  0  0  0  0  0  0  0
    2.4208   65.5234   84.4425 N   0  0  0  0  0  0  0  0  0  0  0  0
    3.1467   66.7213   84.1868 C   0  0  0  0  0  0  0  0  0  0  0  0
    2.7227   64.8744   85.1184 H   0  0  0  0  0  0  0  0  0  0  0  0
    5.1106   66.5383   85.8204 C   0  0  0  0  0  0  0  0  0  0  0  0
    7.4255   65.9954   84.9051 C   0  0  0  0  0  0  0  0  0  0  0  0
    5.9970   65.5331   85.0082 C   0  0  0  0  0  0  0  0  0  0  0  0
   -0.9474   61.3600   81.3357 S   0  0  0  0  0  0  0  0  0  0  0  0
    0.1136   60.8939   80.7035 O   0  0  0  0  0  0  0  0  0  0  0  0
   -1.6557   60.2986   81.6420 O   0  0  0  0  0  0  0  0  0  0  0  0
   -1.7696   62.4231   80.4857 N   0  0  0  0  0  0  0  0  0  0  0  0
   -3.2590   62.0106   80.1620 C   0  0  0  0  0  0  0  0  0  0  0  0
   -3.4902   61.0886   78.9492 C   0  0  0  0  0  0  0  0  0  0  0  0
   -2.6107   61.3299   77.7558 N   0  0  0  0  0  0  0  0  0  0  0  0
   -3.4692   61.8154   76.6309 C   0  0  0  0  0  0  0  0  0  0  0  0
   -1.3959   62.2503   77.8961 C   0  0  0  0  0  0  0  0  0  0  0  0
   -1.2358   63.0792   79.2268 C   0  0  0  0  0  0  0  0  0  0  0  0
   -2.1762   60.4209   77.5962 H   0  0  0  0  0  0  0  0  0  0  0  0
    0.2280   64.5145   86.3492 O   0  0  0  0  0  0  0  0  0  0  0  0
   -0.1612   64.1975   87.7007 C   0  0  0  0  0  0  0  0  0  0  0  0
    0.9803   63.3590   88.2512 C   0  0  0  0  0  0  0  0  0  0  0  0
 20 21  1  0  0  0
 21 19  1  0  0  0
 19  7  1  0  0  0
  7 17  1  0  0  0
  7  8  2  0  0  0
  8  9  1  0  0  0
  9 10  1  0  0  0
 11  9  1  0  0  0
 11 12  1  0  0  0
 12 13  2  0  0  0
 14 12  1  0  0  0
 15 14  2  0  0  0
 16 17  1  0  0  0
 16 15  1  0  0  0
 16 18  1  0  0  0
 17 11  2  0  0  0
  1 15  1  0  0  0
  1  6  1  0  0  0
  2  1  2  0  0  0
  3  2  1  0  0  0
  3  4  2  0  0  0
  4  5  1  0  0  0
  5  6  2  0  0  0
  6 33  1  0  0  0
 33 34  1  0  0  0
 34 35  1  0  0  0
 22 24  2  0  0  0
 22 25  1  0  0  0
 22  3  1  0  0  0
 23 22  2  0  0  0
 25 26  1  0  0  0
 27 26  1  0  0  0
 28 29  1  0  0  0
 28 27  1  0  0  0
 28 32  1  0  0  0
 30 28  1  0  0  0
 30 31  1  0  0  0
 31 25  1  0  0  0
M  CHG 1  28   1
M  END
> <minimizedAffinity>
-9.60905

$$$$
/home/hjpark/lecture_drug1/0905_agent/pde5_harness/sample_run/structures/work/ligand_ref.pdb


 35 38  0  0  0  0  0  0  0  0999 V2000
    2.1371   67.1677   83.3191 C   0  0  0  0  0  0  0  0  0  0  0  0
    1.5855   68.1557   82.4144 C   0  0  0  0  0  0  0  0  0  0  0  0
    2.3371   69.3573   82.0588 C   0  0  0  0  0  0  0  0  0  0  0  0
    3.6981   69.5231   82.6612 C   0  0  0  0  0  0  0  0  0  0  0  0
    4.2713   68.5402   83.5747 C   0  0  0  0  0  0  0  0  0  0  0  0
    3.4998   67.3346   83.9336 C   0  0  0  0  0  0  0  0  0  0  0  0
   -0.1696   63.7374   86.1387 C   0  0  0  0  0  0  0  0  0  0  0  0
   -1.0159   62.6940   85.7408 N   0  0  0  0  0  0  0  0  0  0  0  0
   -1.1542   62.7264   84.3832 N   0  0  0  0  0  0  0  0  0  0  0  0
   -1.9772   61.7634   83.6464 C   0  0  0  0  0  0  0  0  0  0  0  0
   -0.4053   63.7792   83.9218 C   0  0  0  0  0  0  0  0  0  0  0  0
   -0.1524   64.3188   82.6154 C   0  0  0  0  0  0  0  0  0  0  0  0
   -0.6315   63.8578   81.6050 O   0  0  0  0  0  0  0  0  0  0  0  0
    0.6871   65.4251   82.5038 N   0  0  0  0  0  0  0  0  0  0  0  0
    1.3022   66.0512   83.5970 C   0  0  0  0  0  0  0  0  0  0  0  0
    1.0824   65.5635   84.8905 N   0  0  0  0  0  0  0  0  0  0  0  0
    0.2285   64.4317   85.0211 C   0  0  0  0  0  0  0  0  0  0  0  0
    1.5001   65.9849   85.6761 H   0  0  0  0  0  0  0  0  0  0  0  0
    0.2181   64.0346   87.5512 C   0  0  0  0  0  0  0  0  0  0  0  0
    0.2629   62.1396   89.2537 C   0  0  0  0  0  0  0  0  0  0  0  0
   -0.6114   62.9845   88.3667 C   0  0  0  0  0  0  0  0  0  0  0  0
    1.7242   70.4670   81.0808 S   0  0  0  0  0  0  0  0  0  0  0  0
    2.5823   71.0831   80.2891 O   0  0  0  0  0  0  0  0  0  0  0  0
    0.8589   69.9018   80.2722 O   0  0  0  0  0  0  0  0  0  0  0  0
    1.0357   71.4358   82.1374 N   0  0  0  0  0  0  0  0  0  0  0  0
   -0.4141   71.9254   81.7482 C   0  0  0  0  0  0  0  0  0  0  0  0
   -0.5216   73.1338   80.7982 C   0  0  0  0  0  0  0  0  0  0  0  0
    0.4997   74.2188   80.9874 N   0  0  0  0  0  0  0  0  0  0  0  0
   -0.2061   75.4503   81.4599 C   0  0  0  0  0  0  0  0  0  0  0  0
    1.7115   73.9568   81.8850 C   0  0  0  0  0  0  0  0  0  0  0  0
    1.7320   72.6376   82.7468 C   0  0  0  0  0  0  0  0  0  0  0  0
    0.9276   74.3023   80.0652 H   0  0  0  0  0  0  0  0  0  0  0  0
    3.9714   66.3162   84.8475 O   0  0  0  0  0  0  0  0  0  0  0  0
    5.3486   65.9208   85.0067 C   0  0  0  0  0  0  0  0  0  0  0  0
    5.3829   65.1333   86.3060 C   0  0  0  0  0  0  0  0  0  0  0  0
 20 21  1  0  0  0
 21 19  1  0  0  0
 19  7  1  0  0  0
  7 17  1  0  0  0
  7  8  2  0  0  0
  8  9  1  0  0  0
  9 10  1  0  0  0
 11  9  1  0  0  0
 11 12  1  0  0  0
 12 13  2  0  0  0
 14 12  1  0  0  0
 15 14  2  0  0  0
 16 17  1  0  0  0
 16 15  1  0  0  0
 16 18  1  0  0  0
 17 11  2  0  0  0
  1 15  1  0  0  0
  1  6  1  0  0  0
  2  1  2  0  0  0
  3  2  1  0  0  0
  3  4  2  0  0  0
  4  5  1  0  0  0
  5  6  2  0  0  0
  6 33  1  0  0  0
 33 34  1  0  0  0
 34 35  1  0  0  0
 22 24  2  0  0  0
 22 25  1  0  0  0
 22  3  1  0  0  0
 23 22  2  0  0  0
 25 26  1  0  0  0
 27 26  1  0  0  0
 28 29  1  0  0  0
 28 27  1  0  0  0
 28 32  1  0  0  0
 30 28  1  0  0  0
 30 31  1  0  0  0
 31 25  1  0  0  0
M  CHG 1  28   1
M  END
> <minimizedAffinity>
-9.49702

$$$$
/home/hjpark/lecture_drug1/0905_agent/pde5_harness/sample_run/structures/work/ligand_ref.pdb


 35 38  0  0  0  0  0  0  0  0999 V2000
    0.1837   64.3416   84.0653 C   0  0  0  0  0  0  0  0  0  0  0  0
   -0.4490   63.8321   82.8657 C   0  0  0  0  0  0  0  0  0  0  0  0
   -1.4075   62.7308   82.9268 C   0  0  0  0  0  0  0  0  0  0  0  0
   -1.7124   62.1558   84.2756 C   0  0  0  0  0  0  0  0  0  0  0  0
   -1.0857   62.6542   85.4953 C   0  0  0  0  0  0  0  0  0  0  0  0
   -0.1126   63.7610   85.4208 C   0  0  0  0  0  0  0  0  0  0  0  0
    4.3168   67.0466   84.8644 C   0  0  0  0  0  0  0  0  0  0  0  0
    4.7342   68.2255   84.2326 N   0  0  0  0  0  0  0  0  0  0  0  0
    3.8095   68.5780   83.2925 N   0  0  0  0  0  0  0  0  0  0  0  0
    3.9472   69.7708   82.4523 C   0  0  0  0  0  0  0  0  0  0  0  0
    2.8147   67.6337   83.3245 C   0  0  0  0  0  0  0  0  0  0  0  0
    1.5945   67.4538   82.5895 C   0  0  0  0  0  0  0  0  0  0  0  0
    1.2266   68.2121   81.7220 O   0  0  0  0  0  0  0  0  0  0  0  0
    0.7926   66.3548   82.8905 N   0  0  0  0  0  0  0  0  0  0  0  0
    1.1078   65.4044   83.8717 C   0  0  0  0  0  0  0  0  0  0  0  0
    2.2889   65.5353   84.6113 N   0  0  0  0  0  0  0  0  0  0  0  0
    3.1182   66.6547   84.3172 C   0  0  0  0  0  0  0  0  0  0  0  0
    2.5357   64.8817   85.3049 H   0  0  0  0  0  0  0  0  0  0  0  0
    5.0686   66.3426   85.9474 C   0  0  0  0  0  0  0  0  0  0  0  0
    7.3893   65.9267   84.9814 C   0  0  0  0  0  0  0  0  0  0  0  0
    6.0008   65.3702   85.1466 C   0  0  0  0  0  0  0  0  0  0  0  0
   -2.0911   62.1440   81.6032 S   0  0  0  0  0  0  0  0  0  0  0  0
   -2.5661   60.9153   81.6891 O   0  0  0  0  0  0  0  0  0  0  0  0
   -3.1238   62.8875   81.2827 O   0  0  0  0  0  0  0  0  0  0  0  0
   -0.8897   62.2832   80.5707 N   0  0  0  0  0  0  0  0  0  0  0  0
   -1.1383   63.3031   79.3911 C   0  0  0  0  0  0  0  0  0  0  0  0
   -1.9282   62.7937   78.1701 C   0  0  0  0  0  0  0  0  0  0  0  0
   -1.6645   61.3745   77.7549 N   0  0  0  0  0  0  0  0  0  0  0  0
   -1.0094   61.3931   76.4101 C   0  0  0  0  0  0  0  0  0  0  0  0
   -0.8716   60.4572   78.6890 C   0  0  0  0  0  0  0  0  0  0  0  0
   -0.1779   61.0955   79.9518 C   0  0  0  0  0  0  0  0  0  0  0  0
   -2.5915   60.9491   77.7695 H   0  0  0  0  0  0  0  0  0  0  0  0
    0.5783   64.3079   86.5691 O   0  0  0  0  0  0  0  0  0  0  0  0
    1.0292   63.5433   87.7050 C   0  0  0  0  0  0  0  0  0  0  0  0
   -0.1314   63.5760   88.6856 C   0  0  0  0  0  0  0  0  0  0  0  0
 20 21  1  0  0  0
 21 19  1  0  0  0
 19  7  1  0  0  0
  7 17  1  0  0  0
  7  8  2  0  0  0
  8  9  1  0  0  0
  9 10  1  0  0  0
 11  9  1  0  0  0
 11 12  1  0  0  0
 12 13  2  0  0  0
 14 12  1  0  0  0
 15 14  2  0  0  0
 16 17  1  0  0  0
 16 15  1  0  0  0
 16 18  1  0  0  0
 17 11  2  0  0  0
  1 15  1  0  0  0
  1  6  1  0  0  0
  2  1  2  0  0  0
  3  2  1  0  0  0
  3  4  2  0  0  0
  4  5  1  0  0  0
  5  6  2  0  0  0
  6 33  1  0  0  0
 33 34  1  0  0  0
 34 35  1  0  0  0
 22 24  2  0  0  0
 22 25  1  0  0  0
 22  3  1  0  0  0
 23 22  2  0  0  0
 25 26  1  0  0  0
 27 26  1  0  0  0
 28 29  1  0  0  0
 28 27  1  0  0  0
 28 32  1  0  0  0
 30 28  1  0  0  0
 30 31  1  0  0  0
 31 25  1  0  0  0
M  CHG 1  28   1
M  END
> <minimizedAffinity>
-9.48096

$$$$
/home/hjpark/lecture_drug1/0905_agent/pde5_harness/sample_run/structures/work/ligand_ref.pdb


 35 38  0  0  0  0  0  0  0  0999 V2000
    2.1016   66.7197   83.5687 C   0  0  0  0  0  0  0  0  0  0  0  0
    1.6269   67.8048   82.7344 C   0  0  0  0  0  0  0  0  0  0  0  0
    2.4215   69.0168   82.5471 C   0  0  0  0  0  0  0  0  0  0  0  0
    3.7441   69.0894   83.2458 C   0  0  0  0  0  0  0  0  0  0  0  0
    4.2397   68.0080   84.0908 C   0  0  0  0  0  0  0  0  0  0  0  0
    3.4251   66.7922   84.2798 C   0  0  0  0  0  0  0  0  0  0  0  0
   -0.6851   63.2770   85.8969 C   0  0  0  0  0  0  0  0  0  0  0  0
   -1.4422   62.2356   85.3445 N   0  0  0  0  0  0  0  0  0  0  0  0
   -1.3267   62.2740   83.9850 N   0  0  0  0  0  0  0  0  0  0  0  0
   -1.9983   61.3145   83.1042 C   0  0  0  0  0  0  0  0  0  0  0  0
   -0.5060   63.3288   83.6750 C   0  0  0  0  0  0  0  0  0  0  0  0
   -0.0160   63.8743   82.4405 C   0  0  0  0  0  0  0  0  0  0  0  0
   -0.2992   63.4178   81.3568 O   0  0  0  0  0  0  0  0  0  0  0  0
    0.8289   64.9809   82.4912 N   0  0  0  0  0  0  0  0  0  0  0  0
    1.2305   65.6020   83.6822 C   0  0  0  0  0  0  0  0  0  0  0  0
    0.7752   65.1086   84.9105 N   0  0  0  0  0  0  0  0  0  0  0  0
   -0.0873   63.9763   84.8756 C   0  0  0  0  0  0  0  0  0  0  0  0
    1.0399   65.5264   85.7617 H   0  0  0  0  0  0  0  0  0  0  0  0
   -0.5659   63.5678   87.3582 C   0  0  0  0  0  0  0  0  0  0  0  0
    0.2676   62.1349   89.2930 C   0  0  0  0  0  0  0  0  0  0  0  0
   -0.4876   62.1364   87.9912 C   0  0  0  0  0  0  0  0  0  0  0  0
    1.8926   70.2317   81.6483 S   0  0  0  0  0  0  0  0  0  0  0  0
    1.9484   70.0561   80.3411 O   0  0  0  0  0  0  0  0  0  0  0  0
    0.6244   70.4445   81.9102 O   0  0  0  0  0  0  0  0  0  0  0  0
    2.8322   71.4055   82.1660 N   0  0  0  0  0  0  0  0  0  0  0  0
    2.1231   72.4677   83.0946 C   0  0  0  0  0  0  0  0  0  0  0  0
    1.3426   73.6025   82.4036 C   0  0  0  0  0  0  0  0  0  0  0  0
    1.9437   74.1459   81.1388 N   0  0  0  0  0  0  0  0  0  0  0  0
    2.3557   75.5627   81.3862 C   0  0  0  0  0  0  0  0  0  0  0  0
    3.1002   73.3931   80.4769 C   0  0  0  0  0  0  0  0  0  0  0  0
    3.7584   72.1952   81.2611 C   0  0  0  0  0  0  0  0  0  0  0  0
    1.1942   74.0351   80.4558 H   0  0  0  0  0  0  0  0  0  0  0  0
    3.8187   65.6779   85.1153 O   0  0  0  0  0  0  0  0  0  0  0  0
    5.1763   65.3527   85.4755 C   0  0  0  0  0  0  0  0  0  0  0  0
    5.1422   65.1375   86.9794 C   0  0  0  0  0  0  0  0  0  0  0  0
 20 21  1  0  0  0
 21 19  1  0  0  0
 19  7  1  0  0  0
  7 17  1  0  0  0
  7  8  2  0  0  0
  8  9  1  0  0  0
  9 10  1  0  0  0
 11  9  1  0  0  0
 11 12  1  0  0  0
 12 13  2  0  0  0
 14 12  1  0  0  0
 15 14  2  0  0  0
 16 17  1  0  0  0
 16 15  1  0  0  0
 16 18  1  0  0  0
 17 11  2  0  0  0
  1 15  1  0  0  0
  1  6  1  0  0  0
  2  1  2  0  0  0
  3  2  1  0  0  0
  3  4  2  0  0  0
  4  5  1  0  0  0
  5  6  2  0  0  0
  6 33  1  0  0  0
 33 34  1  0  0  0
 34 35  1  0  0  0
 22 24  2  0  0  0
 22 25  1  0  0  0
 22  3  1  0  0  0
 23 22  2  0  0  0
 25 26  1  0  0  0
 27 26  1  0  0  0
 28 29  1  0  0  0
 28 27  1  0  0  0
 28 32  1  0  0  0
 30 28  1  0  0  0
 30 31  1  0  0  0
 31 25  1  0  0  0
M  CHG 1  28   1
M  END
> <minimizedAffinity>
-9.23518

$$$$
/home/hjpark/lecture_drug1/0905_agent/pde5_harness/sample_run/structures/work/ligand_ref.pdb


 35 38  0  0  0  0  0  0  0  0999 V2000
    0.9569   65.9879   82.0077 C   0  0  0  0  0  0  0  0  0  0  0  0
    1.4908   67.2166   82.5593 C   0  0  0  0  0  0  0  0  0  0  0  0
    2.0856   68.2356   81.6974 C   0  0  0  0  0  0  0  0  0  0  0  0
    2.1161   67.9619   80.2253 C   0  0  0  0  0  0  0  0  0  0  0  0
    1.5844   66.7308   79.6502 C   0  0  0  0  0  0  0  0  0  0  0  0
    0.9938   65.7048   80.5309 C   0  0  0  0  0  0  0  0  0  0  0  0
   -1.9131   62.2330   83.6514 C   0  0  0  0  0  0  0  0  0  0  0  0
   -2.0186   61.7057   84.9452 N   0  0  0  0  0  0  0  0  0  0  0  0
   -1.1748   62.3874   85.7737 N   0  0  0  0  0  0  0  0  0  0  0  0
   -1.0465   62.0822   87.2013 C   0  0  0  0  0  0  0  0  0  0  0  0
   -0.5383   63.3375   85.0159 C   0  0  0  0  0  0  0  0  0  0  0  0
    0.4455   64.3421   85.3067 C   0  0  0  0  0  0  0  0  0  0  0  0
    0.9133   64.5105   86.4094 O   0  0  0  0  0  0  0  0  0  0  0  0
    0.8818   65.1654   84.2709 N   0  0  0  0  0  0  0  0  0  0  0  0
    0.4186   65.0706   82.9510 C   0  0  0  0  0  0  0  0  0  0  0  0
   -0.5375   64.1040   82.6184 N   0  0  0  0  0  0  0  0  0  0  0  0
   -0.9952   63.2561   83.6666 C   0  0  0  0  0  0  0  0  0  0  0  0
   -0.8787   64.0142   81.6993 H   0  0  0  0  0  0  0  0  0  0  0  0
   -2.6759   61.7446   82.4625 C   0  0  0  0  0  0  0  0  0  0  0  0
   -1.0935   61.0967   80.5737 C   0  0  0  0  0  0  0  0  0  0  0  0
   -1.7247   60.6517   81.8654 C   0  0  0  0  0  0  0  0  0  0  0  0
    2.7020   69.5843   82.3013 S   0  0  0  0  0  0  0  0  0  0  0  0
    2.3259   69.8984   83.5272 O   0  0  0  0  0  0  0  0  0  0  0  0
    4.0082   69.4743   82.3628 O   0  0  0  0  0  0  0  0  0  0  0  0
    2.2247   70.6358   81.2080 N   0  0  0  0  0  0  0  0  0  0  0  0
    3.1431   71.9121   81.0639 C   0  0  0  0  0  0  0  0  0  0  0  0
    2.9098   73.0674   82.0566 C   0  0  0  0  0  0  0  0  0  0  0  0
    1.4819   73.3362   82.4374 N   0  0  0  0  0  0  0  0  0  0  0  0
    1.0998   74.6813   81.9056 C   0  0  0  0  0  0  0  0  0  0  0  0
    0.4028   72.3192   82.0581 C   0  0  0  0  0  0  0  0  0  0  0  0
    0.7969   71.1349   81.0961 C   0  0  0  0  0  0  0  0  0  0  0  0
    1.4936   73.2700   83.4552 H   0  0  0  0  0  0  0  0  0  0  0  0
    0.4627   64.4437   80.0591 O   0  0  0  0  0  0  0  0  0  0  0  0
   -0.0364   64.2021   78.7283 C   0  0  0  0  0  0  0  0  0  0  0  0
    0.9133   63.1755   78.1336 C   0  0  0  0  0  0  0  0  0  0  0  0
 20 21  1  0  0  0
 21 19  1  0  0  0
 19  7  1  0  0  0
  7 17  1  0  0  0
  7  8  2  0  0  0
  8  9  1  0  0  0
  9 10  1  0  0  0
 11  9  1  0  0  0
 11 12  1  0  0  0
 12 13  2  0  0  0
 14 12  1  0  0  0
 15 14  2  0  0  0
 16 17  1  0  0  0
 16 15  1  0  0  0
 16 18  1  0  0  0
 17 11  2  0  0  0
  1 15  1  0  0  0
  1  6  1  0  0  0
  2  1  2  0  0  0
  3  2  1  0  0  0
  3  4  2  0  0  0
  4  5  1  0  0  0
  5  6  2  0  0  0
  6 33  1  0  0  0
 33 34  1  0  0  0
 34 35  1  0  0  0
 22 24  2  0  0  0
 22 25  1  0  0  0
 22  3  1  0  0  0
 23 22  2  0  0  0
 25 26  1  0  0  0
 27 26  1  0  0  0
 28 29  1  0  0  0
 28 27  1  0  0  0
 28 32  1  0  0  0
 30 28  1  0  0  0
 30 31  1  0  0  0
 31 25  1  0  0  0
M  CHG 1  28   1
M  END
> <minimizedAffinity>
-8.99895

$$$$
/home/hjpark/lecture_drug1/0905_agent/pde5_harness/sample_run/structures/work/ligand_ref.pdb


 35 38  0  0  0  0  0  0  0  0999 V2000
    2.1021   66.2561   84.1031 C   0  0  0  0  0  0  0  0  0  0  0  0
    1.6171   67.1406   83.0632 C   0  0  0  0  0  0  0  0  0  0  0  0
    2.4621   68.2014   82.5192 C   0  0  0  0  0  0  0  0  0  0  0  0
    3.8466   68.3336   83.0746 C   0  0  0  0  0  0  0  0  0  0  0  0
    4.3536   67.4535   84.1222 C   0  0  0  0  0  0  0  0  0  0  0  0
    3.4886   66.3911   84.6703 C   0  0  0  0  0  0  0  0  0  0  0  0
   -1.2997   62.6076   83.7102 C   0  0  0  0  0  0  0  0  0  0  0  0
   -1.9763   61.9205   84.7267 N   0  0  0  0  0  0  0  0  0  0  0  0
   -1.5629   62.3968   85.9372 N   0  0  0  0  0  0  0  0  0  0  0  0
   -2.0821   61.8875   87.2095 C   0  0  0  0  0  0  0  0  0  0  0  0
   -0.6328   63.3756   85.6945 C   0  0  0  0  0  0  0  0  0  0  0  0
    0.1509   64.2304   86.5411 C   0  0  0  0  0  0  0  0  0  0  0  0
    0.0922   64.1997   87.7488 O   0  0  0  0  0  0  0  0  0  0  0  0
    1.0196   65.1419   85.9446 N   0  0  0  0  0  0  0  0  0  0  0  0
    1.1798   65.2747   84.5582 C   0  0  0  0  0  0  0  0  0  0  0  0
    0.4403   64.4602   83.6926 N   0  0  0  0  0  0  0  0  0  0  0  0
   -0.4538   63.5250   84.2868 C   0  0  0  0  0  0  0  0  0  0  0  0
    0.5343   64.5310   82.7152 H   0  0  0  0  0  0  0  0  0  0  0  0
   -1.4769   62.3635   82.2464 C   0  0  0  0  0  0  0  0  0  0  0  0
    0.7557   61.4605   81.4148 C   0  0  0  0  0  0  0  0  0  0  0  0
   -0.5851   61.0996   81.9953 C   0  0  0  0  0  0  0  0  0  0  0  0
    1.9250   69.2001   81.3888 S   0  0  0  0  0  0  0  0  0  0  0  0
    2.8391   69.7263   80.5949 O   0  0  0  0  0  0  0  0  0  0  0  0
    1.1109   68.5521   80.5893 O   0  0  0  0  0  0  0  0  0  0  0  0
    1.1759   70.2778   82.2867 N   0  0  0  0  0  0  0  0  0  0  0  0
   -0.2444   70.7179   81.7553 C   0  0  0  0  0  0  0  0  0  0  0  0
   -0.2864   71.8139   80.6730 C   0  0  0  0  0  0  0  0  0  0  0  0
    0.7259   72.9156   80.8054 N   0  0  0  0  0  0  0  0  0  0  0  0
   -0.0028   74.1900   81.0938 C   0  0  0  0  0  0  0  0  0  0  0  0
    1.8775   72.7572   81.8010 C   0  0  0  0  0  0  0  0  0  0  0  0
    1.8378   71.5411   82.8025 C   0  0  0  0  0  0  0  0  0  0  0  0
    1.2112   72.8980   79.9085 H   0  0  0  0  0  0  0  0  0  0  0  0
    3.8914   65.4852   85.7248 O   0  0  0  0  0  0  0  0  0  0  0  0
    5.2546   65.1449   86.0476 C   0  0  0  0  0  0  0  0  0  0  0  0
    5.4098   65.4986   87.5173 C   0  0  0  0  0  0  0  0  0  0  0  0
 20 21  1  0  0  0
 21 19  1  0  0  0
 19  7  1  0  0  0
  7 17  1  0  0  0
  7  8  2  0  0  0
  8  9  1  0  0  0
  9 10  1  0  0  0
 11  9  1  0  0  0
 11 12  1  0  0  0
 12 13  2  0  0  0
 14 12  1  0  0  0
 15 14  2  0  0  0
 16 17  1  0  0  0
 16 15  1  0  0  0
 16 18  1  0  0  0
 17 11  2  0  0  0
  1 15  1  0  0  0
  1  6  1  0  0  0
  2  1  2  0  0  0
  3  2  1  0  0  0
  3  4  2  0  0  0
  4  5  1  0  0  0
  5  6  2  0  0  0
  6 33  1  0  0  0
 33 34  1  0  0  0
 34 35  1  0  0  0
 22 24  2  0  0  0
 22 25  1  0  0  0
 22  3  1  0  0  0
 23 22  2  0  0  0
 25 26  1  0  0  0
 27 26  1  0  0  0
 28 29  1  0  0  0
 28 27  1  0  0  0
 28 32  1  0  0  0
 30 28  1  0  0  0
 30 31  1  0  0  0
 31 25  1  0  0  0
M  CHG 1  28   1
M  END
> <minimizedAffinity>
-8.97012

$$$$
/home/hjpark/lecture_drug1/0905_agent/pde5_harness/sample_run/structures/work/ligand_ref.pdb


 35 38  0  0  0  0  0  0  0  0999 V2000
    0.3404   65.0485   81.3033 C   0  0  0  0  0  0  0  0  0  0  0  0
    0.6812   66.3309   80.7218 C   0  0  0  0  0  0  0  0  0  0  0  0
    1.2248   67.4115   81.5417 C   0  0  0  0  0  0  0  0  0  0  0  0
    1.4195   67.1388   83.0014 C   0  0  0  0  0  0  0  0  0  0  0  0
    1.0820   65.8546   83.6063 C   0  0  0  0  0  0  0  0  0  0  0  0
    0.5256   64.7733   82.7704 C   0  0  0  0  0  0  0  0  0  0  0  0
   -2.8121   61.5157   79.6847 C   0  0  0  0  0  0  0  0  0  0  0  0
   -2.7933   60.8036   78.4782 N   0  0  0  0  0  0  0  0  0  0  0  0
   -1.7307   61.2225   77.7308 N   0  0  0  0  0  0  0  0  0  0  0  0
   -1.4252   60.6718   76.4075 C   0  0  0  0  0  0  0  0  0  0  0  0
   -1.0806   62.1912   78.4527 C   0  0  0  0  0  0  0  0  0  0  0  0
    0.0815   62.9981   78.2077 C   0  0  0  0  0  0  0  0  0  0  0  0
    0.7350   62.9262   77.1924 O   0  0  0  0  0  0  0  0  0  0  0  0
    0.4789   63.9064   79.1866 N   0  0  0  0  0  0  0  0  0  0  0  0
   -0.1930   64.0853   80.4040 C   0  0  0  0  0  0  0  0  0  0  0  0
   -1.3335   63.3244   80.6860 N   0  0  0  0  0  0  0  0  0  0  0  0
   -1.7512   62.3898   79.6964 C   0  0  0  0  0  0  0  0  0  0  0  0
   -1.8255   63.4308   81.5320 H   0  0  0  0  0  0  0  0  0  0  0  0
   -3.8307   61.3441   80.7650 C   0  0  0  0  0  0  0  0  0  0  0  0
   -3.1950   60.5258   83.0926 C   0  0  0  0  0  0  0  0  0  0  0  0
   -3.2286   60.1825   81.6276 C   0  0  0  0  0  0  0  0  0  0  0  0
    1.5791   68.8404   80.9123 S   0  0  0  0  0  0  0  0  0  0  0  0
    2.8429   69.0346   80.5840 O   0  0  0  0  0  0  0  0  0  0  0  0
    0.9080   69.0007   79.7960 O   0  0  0  0  0  0  0  0  0  0  0  0
    1.0763   69.8017   82.0750 N   0  0  0  0  0  0  0  0  0  0  0  0
   -0.1956   70.6681   81.7213 C   0  0  0  0  0  0  0  0  0  0  0  0
    0.0349   71.9787   80.9444 C   0  0  0  0  0  0  0  0  0  0  0  0
    1.2682   72.7559   81.3064 N   0  0  0  0  0  0  0  0  0  0  0  0
    0.8426   74.0492   81.9265 C   0  0  0  0  0  0  0  0  0  0  0  0
    2.3330   72.1002   82.1889 C   0  0  0  0  0  0  0  0  0  0  0  0
    1.9973   70.7150   82.8610 C   0  0  0  0  0  0  0  0  0  0  0  0
    1.7552   72.8525   80.4153 H   0  0  0  0  0  0  0  0  0  0  0  0
    0.1386   63.4754   83.2809 O   0  0  0  0  0  0  0  0  0  0  0  0
   -0.9316   63.2402   84.2177 C   0  0  0  0  0  0  0  0  0  0  0  0
   -0.4219   62.1334   85.1257 C   0  0  0  0  0  0  0  0  0  0  0  0
 20 21  1  0  0  0
 21 19  1  0  0  0
 19  7  1  0  0  0
  7 17  1  0  0  0
  7  8  2  0  0  0
  8  9  1  0  0  0
  9 10  1  0  0  0
 11  9  1  0  0  0
 11 12  1  0  0  0
 12 13  2  0  0  0
 14 12  1  0  0  0
 15 14  2  0  0  0
 16 17  1  0  0  0
 16 15  1  0  0  0
 16 18  1  0  0  0
 17 11  2  0  0  0
  1 15  1  0  0  0
  1  6  1  0  0  0
  2  1  2  0  0  0
  3  2  1  0  0  0
  3  4  2  0  0  0
  4  5  1  0  0  0
  5  6  2  0  0  0
  6 33  1  0  0  0
 33 34  1  0  0  0
 34 35  1  0  0  0
 22 24  2  0  0  0
 22 25  1  0  0  0
 22  3  1  0  0  0
 23 22  2  0  0  0
 25 26  1  0  0  0
 27 26  1  0  0  0
 28 29  1  0  0  0
 28 27  1  0  0  0
 28 32  1  0  0  0
 30 28  1  0  0  0
 30 31  1  0  0  0
 31 25  1  0  0  0
M  CHG 1  28   1
M  END
> <minimizedAffinity>
-8.96182

$$$$
/home/hjpark/lecture_drug1/0905_agent/pde5_harness/sample_run/structures/work/ligand_ref.pdb


 35 38  0  0  0  0  0  0  0  0999 V2000
    0.3391   64.6482   82.5049 C   0  0  0  0  0  0  0  0  0  0  0  0
    1.1238   65.8497   82.3061 C   0  0  0  0  0  0  0  0  0  0  0  0
    1.6708   66.5908   83.4405 C   0  0  0  0  0  0  0  0  0  0  0  0
    1.3928   66.0570   84.8119 C   0  0  0  0  0  0  0  0  0  0  0  0
    0.6045   64.8493   85.0333 C   0  0  0  0  0  0  0  0  0  0  0  0
    0.0497   64.1136   83.8807 C   0  0  0  0  0  0  0  0  0  0  0  0
   -2.7718   61.9237   79.6875 C   0  0  0  0  0  0  0  0  0  0  0  0
   -2.6787   61.6070   78.3259 N   0  0  0  0  0  0  0  0  0  0  0  0
   -1.5506   62.1786   77.8123 N   0  0  0  0  0  0  0  0  0  0  0  0
   -1.1584   62.0367   76.4074 C   0  0  0  0  0  0  0  0  0  0  0  0
   -0.9327   62.8526   78.8350 C   0  0  0  0  0  0  0  0  0  0  0  0
    0.2661   63.6380   78.9233 C   0  0  0  0  0  0  0  0  0  0  0  0
    0.9941   63.8425   77.9792 O   0  0  0  0  0  0  0  0  0  0  0  0
    0.6107   64.1896   80.1554 N   0  0  0  0  0  0  0  0  0  0  0  0
   -0.1485   64.0271   81.3227 C   0  0  0  0  0  0  0  0  0  0  0  0
   -1.3274   63.2733   81.2851 N   0  0  0  0  0  0  0  0  0  0  0  0
   -1.6921   62.7008   80.0335 C   0  0  0  0  0  0  0  0  0  0  0  0
   -1.8804   63.1445   82.0893 H   0  0  0  0  0  0  0  0  0  0  0  0
   -3.8752   61.4854   80.5955 C   0  0  0  0  0  0  0  0  0  0  0  0
   -3.1776   60.3364   82.7598 C   0  0  0  0  0  0  0  0  0  0  0  0
   -3.2827   60.1983   81.2649 C   0  0  0  0  0  0  0  0  0  0  0  0
    2.5164   67.9342   83.2311 S   0  0  0  0  0  0  0  0  0  0  0  0
    2.4461   68.8239   84.2038 O   0  0  0  0  0  0  0  0  0  0  0  0
    3.7902   67.6338   83.1348 O   0  0  0  0  0  0  0  0  0  0  0  0
    1.9018   68.4523   81.8590 N   0  0  0  0  0  0  0  0  0  0  0  0
    2.9186   69.2058   80.9147 C   0  0  0  0  0  0  0  0  0  0  0  0
    3.1672   70.7010   81.1924 C   0  0  0  0  0  0  0  0  0  0  0  0
    1.9739   71.5014   81.6299 N   0  0  0  0  0  0  0  0  0  0  0  0
    1.6598   72.4983   80.5596 C   0  0  0  0  0  0  0  0  0  0  0  0
    0.6900   70.7712   82.0310 C   0  0  0  0  0  0  0  0  0  0  0  0
    0.5976   69.2208   81.7649 C   0  0  0  0  0  0  0  0  0  0  0  0
    2.2761   71.9096   82.5145 H   0  0  0  0  0  0  0  0  0  0  0  0
   -0.7626   62.9215   83.9984 O   0  0  0  0  0  0  0  0  0  0  0  0
   -0.9996   62.1992   85.2234 C   0  0  0  0  0  0  0  0  0  0  0  0
   -2.4153   62.5721   85.6310 C   0  0  0  0  0  0  0  0  0  0  0  0
 20 21  1  0  0  0
 21 19  1  0  0  0
 19  7  1  0  0  0
  7 17  1  0  0  0
  7  8  2  0  0  0
  8  9  1  0  0  0
  9 10  1  0  0  0
 11  9  1  0  0  0
 11 12  1  0  0  0
 12 13  2  0  0  0
 14 12  1  0  0  0
 15 14  2  0  0  0
 16 17  1  0  0  0
 16 15  1  0  0  0
 16 18  1  0  0  0
 17 11  2  0  0  0
  1 15  1  0  0  0
  1  6  1  0  0  0
  2  1  2  0  0  0
  3  2  1  0  0  0
  3  4  2  0  0  0
  4  5  1  0  0  0
  5  6  2  0  0  0
  6 33  1  0  0  0
 33 34  1  0  0  0
 34 35  1  0  0  0
 22 24  2  0  0  0
 22 25  1  0  0  0
 22  3  1  0  0  0
 23 22  2  0  0  0
 25 26  1  0  0  0
 27 26  1  0  0  0
 28 29  1  0  0  0
 28 27  1  0  0  0
 28 32  1  0  0  0
 30 28  1  0  0  0
 30 31  1  0  0  0
 31 25  1  0  0  0
M  CHG 1  28   1
M  END
> <minimizedAffinity>
-8.91378

$$$$
/home/hjpark/lecture_drug1/0905_agent/pde5_harness/sample_run/structures/work/ligand_ref.pdb


 35 38  0  0  0  0  0  0  0  0999 V2000
    0.5027   64.5421   84.6409 C   0  0  0  0  0  0  0  0  0  0  0  0
   -0.0527   64.2570   83.3336 C   0  0  0  0  0  0  0  0  0  0  0  0
   -1.2208   63.3923   83.1815 C   0  0  0  0  0  0  0  0  0  0  0  0
   -1.8217   62.8190   84.4277 C   0  0  0  0  0  0  0  0  0  0  0  0
   -1.2771   63.0935   85.7533 C   0  0  0  0  0  0  0  0  0  0  0  0
   -0.0919   63.9612   85.8944 C   0  0  0  0  0  0  0  0  0  0  0  0
    3.2368   68.6045   83.6114 C   0  0  0  0  0  0  0  0  0  0  0  0
    4.5621   68.8881   83.9669 N   0  0  0  0  0  0  0  0  0  0  0  0
    5.0617   67.8442   84.6906 N   0  0  0  0  0  0  0  0  0  0  0  0
    6.4300   67.8253   85.2150 C   0  0  0  0  0  0  0  0  0  0  0  0
    4.0656   66.9068   84.7958 C   0  0  0  0  0  0  0  0  0  0  0  0
    3.9780   65.6193   85.4254 C   0  0  0  0  0  0  0  0  0  0  0  0
    4.8946   65.1167   86.0339 O   0  0  0  0  0  0  0  0  0  0  0  0
    2.7815   64.9121   85.3298 N   0  0  0  0  0  0  0  0  0  0  0  0
    1.6475   65.3849   84.6545 C   0  0  0  0  0  0  0  0  0  0  0  0
    1.6835   66.6365   84.0287 N   0  0  0  0  0  0  0  0  0  0  0  0
    2.9003   67.3708   84.1155 C   0  0  0  0  0  0  0  0  0  0  0  0
    0.9013   66.9936   83.5493 H   0  0  0  0  0  0  0  0  0  0  0  0
    2.3494   69.5106   82.8205 C   0  0  0  0  0  0  0  0  0  0  0  0
    1.4989   68.3092   80.7409 C   0  0  0  0  0  0  0  0  0  0  0  0
    2.6430   69.0799   81.3426 C   0  0  0  0  0  0  0  0  0  0  0  0
   -1.8248   63.0505   81.7386 S   0  0  0  0  0  0  0  0  0  0  0  0
   -3.1338   63.1664   81.6131 O   0  0  0  0  0  0  0  0  0  0  0  0
   -1.3224   63.8770   80.8516 O   0  0  0  0  0  0  0  0  0  0  0  0
   -1.3046   61.5593   81.5527 N   0  0  0  0  0  0  0  0  0  0  0  0
   -0.1479   61.3833   80.4923 C   0  0  0  0  0  0  0  0  0  0  0  0
   -0.5577   61.2633   79.0117 C   0  0  0  0  0  0  0  0  0  0  0  0
   -1.8159   60.4919   78.7324 N   0  0  0  0  0  0  0  0  0  0  0  0
   -1.4489   59.2532   77.9780 C   0  0  0  0  0  0  0  0  0  0  0  0
   -2.7380   60.1188   79.8956 C   0  0  0  0  0  0  0  0  0  0  0  0
   -2.2268   60.3699   81.3649 C   0  0  0  0  0  0  0  0  0  0  0  0
   -2.3866   61.1548   78.2078 H   0  0  0  0  0  0  0  0  0  0  0  0
    0.5347   64.2730   87.1613 O   0  0  0  0  0  0  0  0  0  0  0  0
    1.0548   63.2997   88.0890 C   0  0  0  0  0  0  0  0  0  0  0  0
   -0.0495   63.1065   89.1149 C   0  0  0  0  0  0  0  0  0  0  0  0
 20 21  1  0  0  0
 21 19  1  0  0  0
 19  7  1  0  0  0
  7 17  1  0  0  0
  7  8  2  0  0  0
  8  9  1  0  0  0
  9 10  1  0  0  0
 11  9  1  0  0  0
 11 12  1  0  0  0
 12 13  2  0  0  0
 14 12  1  0  0  0
 15 14  2  0  0  0
 16 17  1  0  0  0
 16 15  1  0  0  0
 16 18  1  0  0  0
 17 11  2  0  0  0
  1 15  1  0  0  0
  1  6  1  0  0  0
  2  1  2  0  0  0
  3  2  1  0  0  0
  3  4  2  0  0  0
  4  5  1  0  0  0
  5  6  2  0  0  0
  6 33  1  0  0  0
 33 34  1  0  0  0
 34 35  1  0  0  0
 22 24  2  0  0  0
 22 25  1  0  0  0
 22  3  1  0  0  0
 23 22  2  0  0  0
 25 26  1  0  0  0
 27 26  1  0  0  0
 28 29  1  0  0  0
 28 27  1  0  0  0
 28 32  1  0  0  0
 30 28  1  0  0  0
 30 31  1  0  0  0
 31 25  1  0  0  0
M  CHG 1  28   1
M  END
> <minimizedAffinity>
-8.90070

$$$$
/home/hjpark/lecture_drug1/0905_agent/pde5_harness/sample_run/structures/work/ligand_ref.pdb


 35 38  0  0  0  0  0  0  0  0999 V2000
    0.3804   65.1335   81.0157 C   0  0  0  0  0  0  0  0  0  0  0  0
    0.6259   66.3905   80.3386 C   0  0  0  0  0  0  0  0  0  0  0  0
    1.1613   67.5441   81.0582 C   0  0  0  0  0  0  0  0  0  0  0  0
    1.4500   67.3734   82.5178 C   0  0  0  0  0  0  0  0  0  0  0  0
    1.2092   66.1161   83.2182 C   0  0  0  0  0  0  0  0  0  0  0  0
    0.6602   64.9603   82.4834 C   0  0  0  0  0  0  0  0  0  0  0  0
   -2.7689   61.4608   79.7385 C   0  0  0  0  0  0  0  0  0  0  0  0
   -2.7549   60.6441   78.6001 N   0  0  0  0  0  0  0  0  0  0  0  0
   -1.6985   60.9980   77.8115 N   0  0  0  0  0  0  0  0  0  0  0  0
   -1.3992   60.3326   76.5406 C   0  0  0  0  0  0  0  0  0  0  0  0
   -1.0476   62.0292   78.4401 C   0  0  0  0  0  0  0  0  0  0  0  0
    0.1101   62.8147   78.1168 C   0  0  0  0  0  0  0  0  0  0  0  0
    0.7575   62.6546   77.1077 O   0  0  0  0  0  0  0  0  0  0  0  0
    0.5102   63.8078   79.0082 N   0  0  0  0  0  0  0  0  0  0  0  0
   -0.1549   64.0924   80.2091 C   0  0  0  0  0  0  0  0  0  0  0  0
   -1.2908   63.3560   80.5652 N   0  0  0  0  0  0  0  0  0  0  0  0
   -1.7112   62.3357   79.6655 C   0  0  0  0  0  0  0  0  0  0  0  0
   -1.7781   63.5359   81.4015 H   0  0  0  0  0  0  0  0  0  0  0  0
   -3.7802   61.3829   80.8363 C   0  0  0  0  0  0  0  0  0  0  0  0
   -3.0266   60.6846   83.1678 C   0  0  0  0  0  0  0  0  0  0  0  0
   -3.2186   60.2357   81.7442 C   0  0  0  0  0  0  0  0  0  0  0  0
    1.4104   68.9448   80.3237 S   0  0  0  0  0  0  0  0  0  0  0  0
    2.0336   68.8897   79.1612 O   0  0  0  0  0  0  0  0  0  0  0  0
    0.2547   69.5100   80.0648 O   0  0  0  0  0  0  0  0  0  0  0  0
    2.2346   69.7165   81.4435 N   0  0  0  0  0  0  0  0  0  0  0  0
    1.6204   71.1013   81.8889 C   0  0  0  0  0  0  0  0  0  0  0  0
    1.9434   72.3312   81.0186 C   0  0  0  0  0  0  0  0  0  0  0  0
    3.3304   72.3918   80.4452 N   0  0  0  0  0  0  0  0  0  0  0  0
    4.0446   73.5504   81.0663 C   0  0  0  0  0  0  0  0  0  0  0  0
    4.2242   71.1515   80.5174 C   0  0  0  0  0  0  0  0  0  0  0  0
    3.7353   69.9270   81.3804 C   0  0  0  0  0  0  0  0  0  0  0  0
    3.1665   72.4824   79.4425 H   0  0  0  0  0  0  0  0  0  0  0  0
    0.3655   63.6812   83.0933 O   0  0  0  0  0  0  0  0  0  0  0  0
   -0.6659   63.4500   84.0737 C   0  0  0  0  0  0  0  0  0  0  0  0
    0.0516   63.4811   85.4129 C   0  0  0  0  0  0  0  0  0  0  0  0
 20 21  1  0  0  0
 21 19  1  0  0  0
 19  7  1  0  0  0
  7 17  1  0  0  0
  7  8  2  0  0  0
  8  9  1  0  0  0
  9 10  1  0  0  0
 11  9  1  0  0  0
 11 12  1  0  0  0
 12 13  2  0  0  0
 14 12  1  0  0  0
 15 14  2  0  0  0
 16 17  1  0  0  0
 16 15  1  0  0  0
 16 18  1  0  0  0
 17 11  2  0  0  0
  1 15  1  0  0  0
  1  6  1  0  0  0
  2  1  2  0  0  0
  3  2  1  0  0  0
  3  4  2  0  0  0
  4  5  1  0  0  0
  5  6  2  0  0  0
  6 33  1  0  0  0
 33 34  1  0  0  0
 34 35  1  0  0  0
 22 24  2  0  0  0
 22 25  1  0  0  0
 22  3  1  0  0  0
 23 22  2  0  0  0
 25 26  1  0  0  0
 27 26  1  0  0  0
 28 29  1  0  0  0
 28 27  1  0  0  0
 28 32  1  0  0  0
 30 28  1  0  0  0
 30 31  1  0  0  0
 31 25  1  0  0  0
M  CHG 1  28   1
M  END
> <minimizedAffinity>
-8.89133

$$$$
/home/hjpark/lecture_drug1/0905_agent/pde5_harness/sample_run/structures/work/ligand_ref.pdb


 35 38  0  0  0  0  0  0  0  0999 V2000
    0.4978   65.4823   81.7492 C   0  0  0  0  0  0  0  0  0  0  0  0
    1.1605   66.0660   82.8977 C   0  0  0  0  0  0  0  0  0  0  0  0
    1.9831   67.2664   82.7657 C   0  0  0  0  0  0  0  0  0  0  0  0
    2.1088   67.8699   81.4009 C   0  0  0  0  0  0  0  0  0  0  0  0
    1.4501   67.2972   80.2316 C   0  0  0  0  0  0  0  0  0  0  0  0
    0.6288   66.0797   80.3750 C   0  0  0  0  0  0  0  0  0  0  0  0
   -2.2287   62.2633   84.4403 C   0  0  0  0  0  0  0  0  0  0  0  0
   -2.7868   61.0391   84.0491 N   0  0  0  0  0  0  0  0  0  0  0  0
   -2.4799   60.8086   82.7392 N   0  0  0  0  0  0  0  0  0  0  0  0
   -2.9145   59.6067   82.0221 C   0  0  0  0  0  0  0  0  0  0  0  0
   -1.7356   61.8744   82.3008 C   0  0  0  0  0  0  0  0  0  0  0  0
   -1.1303   62.2106   81.0429 C   0  0  0  0  0  0  0  0  0  0  0  0
   -1.2050   61.5053   80.0632 O   0  0  0  0  0  0  0  0  0  0  0  0
   -0.4198   63.4051   80.9448 N   0  0  0  0  0  0  0  0  0  0  0  0
   -0.2612   64.3079   82.0055 C   0  0  0  0  0  0  0  0  0  0  0  0
   -0.8367   64.0254   83.2498 N   0  0  0  0  0  0  0  0  0  0  0  0
   -1.5642   62.8071   83.3669 C   0  0  0  0  0  0  0  0  0  0  0  0
   -0.7425   64.6424   84.0111 H   0  0  0  0  0  0  0  0  0  0  0  0
   -2.3532   62.8651   85.8028 C   0  0  0  0  0  0  0  0  0  0  0  0
   -0.1389   63.5676   86.8491 C   0  0  0  0  0  0  0  0  0  0  0  0
   -1.0311   62.4049   86.5071 C   0  0  0  0  0  0  0  0  0  0  0  0
    2.7405   67.9026   84.0248 S   0  0  0  0  0  0  0  0  0  0  0  0
    2.9380   69.2073   83.9871 O   0  0  0  0  0  0  0  0  0  0  0  0
    2.0290   67.6964   85.1081 O   0  0  0  0  0  0  0  0  0  0  0  0
    4.0898   67.0613   84.0066 N   0  0  0  0  0  0  0  0  0  0  0  0
    3.9791   65.6091   84.6166 C   0  0  0  0  0  0  0  0  0  0  0  0
    4.0942   65.4741   86.1473 C   0  0  0  0  0  0  0  0  0  0  0  0
    5.0784   66.3869   86.8213 N   0  0  0  0  0  0  0  0  0  0  0  0
    6.1787   65.5500   87.3933 C   0  0  0  0  0  0  0  0  0  0  0  0
    5.6870   67.5462   86.0287 C   0  0  0  0  0  0  0  0  0  0  0  0
    5.4232   67.6103   84.4764 C   0  0  0  0  0  0  0  0  0  0  0  0
    4.5108   66.8735   87.5152 H   0  0  0  0  0  0  0  0  0  0  0  0
   -0.0436   65.4245   79.2734 O   0  0  0  0  0  0  0  0  0  0  0  0
    0.6002   64.9577   78.0709 C   0  0  0  0  0  0  0  0  0  0  0  0
   -0.5361   64.5145   77.1644 C   0  0  0  0  0  0  0  0  0  0  0  0
 20 21  1  0  0  0
 21 19  1  0  0  0
 19  7  1  0  0  0
  7 17  1  0  0  0
  7  8  2  0  0  0
  8  9  1  0  0  0
  9 10  1  0  0  0
 11  9  1  0  0  0
 11 12  1  0  0  0
 12 13  2  0  0  0
 14 12  1  0  0  0
 15 14  2  0  0  0
 16 17  1  0  0  0
 16 15  1  0  0  0
 16 18  1  0  0  0
 17 11  2  0  0  0
  1 15  1  0  0  0
  1  6  1  0  0  0
  2  1  2  0  0  0
  3  2  1  0  0  0
  3  4  2  0  0  0
  4  5  1  0  0  0
  5  6  2  0  0  0
  6 33  1  0  0  0
 33 34  1  0  0  0
 34 35  1  0  0  0
 22 24  2  0  0  0
 22 25  1  0  0  0
 22  3  1  0  0  0
 23 22  2  0  0  0
 25 26  1  0  0  0
 27 26  1  0  0  0
 28 29  1  0  0  0
 28 27  1  0  0  0
 28 32  1  0  0  0
 30 28  1  0  0  0
 30 31  1  0  0  0
 31 25  1  0  0  0
M  CHG 1  28   1
M  END
> <minimizedAffinity>
-8.73827

$$$$
/home/hjpark/lecture_drug1/0905_agent/pde5_harness/sample_run/structures/work/ligand_ref.pdb


 35 38  0  0  0  0  0  0  0  0999 V2000
    0.3502   64.4528   83.1003 C   0  0  0  0  0  0  0  0  0  0  0  0
    1.3736   65.4780   83.0754 C   0  0  0  0  0  0  0  0  0  0  0  0
    1.9356   66.0144   84.3130 C   0  0  0  0  0  0  0  0  0  0  0  0
    1.4165   65.4597   85.6036 C   0  0  0  0  0  0  0  0  0  0  0  0
    0.3859   64.4277   85.6502 C   0  0  0  0  0  0  0  0  0  0  0  0
   -0.1807   63.8995   84.3943 C   0  0  0  0  0  0  0  0  0  0  0  0
   -2.6983   62.1540   79.8661 C   0  0  0  0  0  0  0  0  0  0  0  0
   -2.6019   62.0711   78.4708 N   0  0  0  0  0  0  0  0  0  0  0  0
   -1.4912   62.7501   78.0604 N   0  0  0  0  0  0  0  0  0  0  0  0
   -1.1006   62.8548   76.6518 C   0  0  0  0  0  0  0  0  0  0  0  0
   -0.8875   63.2605   79.1817 C   0  0  0  0  0  0  0  0  0  0  0  0
    0.2905   64.0518   79.4004 C   0  0  0  0  0  0  0  0  0  0  0  0
    1.0093   64.4301   78.5042 O   0  0  0  0  0  0  0  0  0  0  0  0
    0.6250   64.3995   80.7075 N   0  0  0  0  0  0  0  0  0  0  0  0
   -0.1253   64.0246   81.8309 C   0  0  0  0  0  0  0  0  0  0  0  0
   -1.2840   63.2565   81.6673 N   0  0  0  0  0  0  0  0  0  0  0  0
   -1.6381   62.8911   80.3376 C   0  0  0  0  0  0  0  0  0  0  0  0
   -1.8305   62.9809   82.4384 H   0  0  0  0  0  0  0  0  0  0  0  0
   -3.7864   61.5414   80.6875 C   0  0  0  0  0  0  0  0  0  0  0  0
   -2.8771   59.9752   82.4796 C   0  0  0  0  0  0  0  0  0  0  0  0
   -3.2123   60.1215   81.0198 C   0  0  0  0  0  0  0  0  0  0  0  0
    3.0476   67.1662   84.2951 S   0  0  0  0  0  0  0  0  0  0  0  0
    3.6132   67.4111   83.1276 O   0  0  0  0  0  0  0  0  0  0  0  0
    2.4996   68.3033   84.6540 O   0  0  0  0  0  0  0  0  0  0  0  0
    4.0643   66.6043   85.3811 N   0  0  0  0  0  0  0  0  0  0  0  0
    5.0178   67.6856   86.0251 C   0  0  0  0  0  0  0  0  0  0  0  0
    6.2935   68.0581   85.2454 C   0  0  0  0  0  0  0  0  0  0  0  0
    6.9817   66.9345   84.5242 N   0  0  0  0  0  0  0  0  0  0  0  0
    8.3140   66.7108   85.1670 C   0  0  0  0  0  0  0  0  0  0  0  0
    6.2631   65.5916   84.3735 C   0  0  0  0  0  0  0  0  0  0  0  0
    4.9190   65.3700   85.1658 C   0  0  0  0  0  0  0  0  0  0  0  0
    7.0258   67.2658   83.5605 H   0  0  0  0  0  0  0  0  0  0  0  0
   -1.2208   62.8945   84.3372 O   0  0  0  0  0  0  0  0  0  0  0  0
   -1.5799   62.0128   85.4197 C   0  0  0  0  0  0  0  0  0  0  0  0
   -2.7771   62.6734   86.0829 C   0  0  0  0  0  0  0  0  0  0  0  0
 20 21  1  0  0  0
 21 19  1  0  0  0
 19  7  1  0  0  0
  7 17  1  0  0  0
  7  8  2  0  0  0
  8  9  1  0  0  0
  9 10  1  0  0  0
 11  9  1  0  0  0
 11 12  1  0  0  0
 12 13  2  0  0  0
 14 12  1  0  0  0
 15 14  2  0  0  0
 16 17  1  0  0  0
 16 15  1  0  0  0
 16 18  1  0  0  0
 17 11  2  0  0  0
  1 15  1  0  0  0
  1  6  1  0  0  0
  2  1  2  0  0  0
  3  2  1  0  0  0
  3  4  2  0  0  0
  4  5  1  0  0  0
  5  6  2  0  0  0
  6 33  1  0  0  0
 33 34  1  0  0  0
 34 35  1  0  0  0
 22 24  2  0  0  0
 22 25  1  0  0  0
 22  3  1  0  0  0
 23 22  2  0  0  0
 25 26  1  0  0  0
 27 26  1  0  0  0
 28 29  1  0  0  0
 28 27  1  0  0  0
 28 32  1  0  0  0
 30 28  1  0  0  0
 30 31  1  0  0  0
 31 25  1  0  0  0
M  CHG 1  28   1
M  END
> <minimizedAffinity>
-8.73481

$$$$
/home/hjpark/lecture_drug1/0905_agent/pde5_harness/sample_run/structures/work/ligand_ref.pdb


 35 38  0  0  0  0  0  0  0  0999 V2000
    0.0690   63.3259   84.0504 C   0  0  0  0  0  0  0  0  0  0  0  0
    0.9356   64.3954   83.5985 C   0  0  0  0  0  0  0  0  0  0  0  0
    1.5857   65.2938   84.5500 C   0  0  0  0  0  0  0  0  0  0  0  0
    1.3251   65.0618   86.0064 C   0  0  0  0  0  0  0  0  0  0  0  0
    0.4554   63.9910   86.4818 C   0  0  0  0  0  0  0  0  0  0  0  0
   -0.2029   63.0950   85.5116 C   0  0  0  0  0  0  0  0  0  0  0  0
   -0.5705   61.5232   79.4266 C   0  0  0  0  0  0  0  0  0  0  0  0
   -1.5050   60.5855   78.9678 N   0  0  0  0  0  0  0  0  0  0  0  0
   -2.2823   60.1829   80.0151 N   0  0  0  0  0  0  0  0  0  0  0  0
   -3.3626   59.2033   79.8707 C   0  0  0  0  0  0  0  0  0  0  0  0
   -1.8472   60.8560   81.1285 C   0  0  0  0  0  0  0  0  0  0  0  0
   -2.2535   60.8614   82.5057 C   0  0  0  0  0  0  0  0  0  0  0  0
   -3.1570   60.1793   82.9317 O   0  0  0  0  0  0  0  0  0  0  0  0
   -1.5777   61.6939   83.3953 N   0  0  0  0  0  0  0  0  0  0  0  0
   -0.5147   62.5305   83.0269 C   0  0  0  0  0  0  0  0  0  0  0  0
   -0.0803   62.5563   81.6965 N   0  0  0  0  0  0  0  0  0  0  0  0
   -0.7625   61.7128   80.7744 C   0  0  0  0  0  0  0  0  0  0  0  0
    0.6647   63.1329   81.4106 H   0  0  0  0  0  0  0  0  0  0  0  0
    0.4617   62.1906   78.5762 C   0  0  0  0  0  0  0  0  0  0  0  0
   -0.5538   64.0088   77.1084 C   0  0  0  0  0  0  0  0  0  0  0  0
   -0.3325   62.5288   77.2683 C   0  0  0  0  0  0  0  0  0  0  0  0
    2.5236   66.4946   84.0581 S   0  0  0  0  0  0  0  0  0  0  0  0
    3.1133   66.3310   82.8884 O   0  0  0  0  0  0  0  0  0  0  0  0
    1.8016   67.5826   83.9271 O   0  0  0  0  0  0  0  0  0  0  0  0
    3.5470   66.5789   85.2723 N   0  0  0  0  0  0  0  0  0  0  0  0
    4.4267   67.8895   85.3139 C   0  0  0  0  0  0  0  0  0  0  0  0
    5.6958   67.9177   84.4406 C   0  0  0  0  0  0  0  0  0  0  0  0
    6.4589   66.6280   84.3381 N   0  0  0  0  0  0  0  0  0  0  0  0
    7.7880   66.8156   84.9988 C   0  0  0  0  0  0  0  0  0  0  0  0
    5.8180   65.3370   84.8529 C   0  0  0  0  0  0  0  0  0  0  0  0
    4.4721   65.4432   85.6657 C   0  0  0  0  0  0  0  0  0  0  0  0
    6.5046   66.4611   83.3329 H   0  0  0  0  0  0  0  0  0  0  0  0
   -1.0997   62.0214   85.8829 O   0  0  0  0  0  0  0  0  0  0  0  0
   -1.6647   61.8318   87.1956 C   0  0  0  0  0  0  0  0  0  0  0  0
   -2.8182   62.8182   87.2724 C   0  0  0  0  0  0  0  0  0  0  0  0
 20 21  1  0  0  0
 21 19  1  0  0  0
 19  7  1  0  0  0
  7 17  1  0  0  0
  7  8  2  0  0  0
  8  9  1  0  0  0
  9 10  1  0  0  0
 11  9  1  0  0  0
 11 12  1  0  0  0
 12 13  2  0  0  0
 14 12  1  0  0  0
 15 14  2  0  0  0
 16 17  1  0  0  0
 16 15  1  0  0  0
 16 18  1  0  0  0
 17 11  2  0  0  0
  1 15  1  0  0  0
  1  6  1  0  0  0
  2  1  2  0  0  0
  3  2  1  0  0  0
  3  4  2  0  0  0
  4  5  1  0  0  0
  5  6  2  0  0  0
  6 33  1  0  0  0
 33 34  1  0  0  0
 34 35  1  0  0  0
 22 24  2  0  0  0
 22 25  1  0  0  0
 22  3  1  0  0  0
 23 22  2  0  0  0
 25 26  1  0  0  0
 27 26  1  0  0  0
 28 29  1  0  0  0
 28 27  1  0  0  0
 28 32  1  0  0  0
 30 28  1  0  0  0
 30 31  1  0  0  0
 31 25  1  0  0  0
M  CHG 1  28   1
M  END
> <minimizedAffinity>
-8.69993

$$$$
/home/hjpark/lecture_drug1/0905_agent/pde5_harness/sample_run/structures/work/ligand_ref.pdb


 35 38  0  0  0  0  0  0  0  0999 V2000
    0.5427   65.3789   82.4341 C   0  0  0  0  0  0  0  0  0  0  0  0
    0.6641   66.5069   81.5331 C   0  0  0  0  0  0  0  0  0  0  0  0
    1.3122   67.7460   81.9573 C   0  0  0  0  0  0  0  0  0  0  0  0
    1.8487   67.8006   83.3544 C   0  0  0  0  0  0  0  0  0  0  0  0
    1.7359   66.6759   84.2773 C   0  0  0  0  0  0  0  0  0  0  0  0
    1.0717   65.4326   83.8411 C   0  0  0  0  0  0  0  0  0  0  0  0
   -0.6200   61.8935   79.0372 C   0  0  0  0  0  0  0  0  0  0  0  0
   -1.5368   60.8385   79.1355 N   0  0  0  0  0  0  0  0  0  0  0  0
   -2.1213   60.8703   80.3685 N   0  0  0  0  0  0  0  0  0  0  0  0
   -3.1333   59.8986   80.7921 C   0  0  0  0  0  0  0  0  0  0  0  0
   -1.5823   61.9331   81.0483 C   0  0  0  0  0  0  0  0  0  0  0  0
   -1.7842   62.4747   82.3627 C   0  0  0  0  0  0  0  0  0  0  0  0
   -2.5617   62.0033   83.1603 O   0  0  0  0  0  0  0  0  0  0  0  0
   -1.0522   63.5990   82.7384 N   0  0  0  0  0  0  0  0  0  0  0  0
   -0.1207   64.2372   81.9074 C   0  0  0  0  0  0  0  0  0  0  0  0
    0.1133   63.7431   80.6188 N   0  0  0  0  0  0  0  0  0  0  0  0
   -0.6288   62.5957   80.2189 C   0  0  0  0  0  0  0  0  0  0  0  0
    0.7629   64.1704   80.0151 H   0  0  0  0  0  0  0  0  0  0  0  0
    0.2243   62.1860   77.8391 C   0  0  0  0  0  0  0  0  0  0  0  0
   -0.5823   64.4542   77.0047 C   0  0  0  0  0  0  0  0  0  0  0  0
   -0.7618   62.9635   76.9016 C   0  0  0  0  0  0  0  0  0  0  0  0
    1.4270   69.0066   80.9769 S   0  0  0  0  0  0  0  0  0  0  0  0
    1.8194   68.7505   79.7428 O   0  0  0  0  0  0  0  0  0  0  0  0
    0.2467   69.5662   80.8505 O   0  0  0  0  0  0  0  0  0  0  0  0
    2.4524   69.9119   81.7880 N   0  0  0  0  0  0  0  0  0  0  0  0
    1.9414   71.3696   82.1155 C   0  0  0  0  0  0  0  0  0  0  0  0
    2.1010   72.4387   81.0174 C   0  0  0  0  0  0  0  0  0  0  0  0
    3.3549   72.3613   80.1940 N   0  0  0  0  0  0  0  0  0  0  0  0
    4.1802   73.5757   80.4809 C   0  0  0  0  0  0  0  0  0  0  0  0
    4.2392   71.1160   80.2937 C   0  0  0  0  0  0  0  0  0  0  0  0
    3.9152   70.0570   81.4149 C   0  0  0  0  0  0  0  0  0  0  0  0
    3.0050   72.3022   79.2378 H   0  0  0  0  0  0  0  0  0  0  0  0
    0.8903   64.2735   84.6886 O   0  0  0  0  0  0  0  0  0  0  0  0
    0.5793   64.3177   86.0957 C   0  0  0  0  0  0  0  0  0  0  0  0
   -0.4663   63.2342   86.3006 C   0  0  0  0  0  0  0  0  0  0  0  0
 20 21  1  0  0  0
 21 19  1  0  0  0
 19  7  1  0  0  0
  7 17  1  0  0  0
  7  8  2  0  0  0
  8  9  1  0  0  0
  9 10  1  0  0  0
 11  9  1  0  0  0
 11 12  1  0  0  0
 12 13  2  0  0  0
 14 12  1  0  0  0
 15 14  2  0  0  0
 16 17  1  0  0  0
 16 15  1  0  0  0
 16 18  1  0  0  0
 17 11  2  0  0  0
  1 15  1  0  0  0
  1  6  1  0  0  0
  2  1  2  0  0  0
  3  2  1  0  0  0
  3  4  2  0  0  0
  4  5  1  0  0  0
  5  6  2  0  0  0
  6 33  1  0  0  0
 33 34  1  0  0  0
 34 35  1  0  0  0
 22 24  2  0  0  0
 22 25  1  0  0  0
 22  3  1  0  0  0
 23 22  2  0  0  0
 25 26  1  0  0  0
 27 26  1  0  0  0
 28 29  1  0  0  0
 28 27  1  0  0  0
 28 32  1  0  0  0
 30 28  1  0  0  0
 30 31  1  0  0  0
 31 25  1  0  0  0
M  CHG 1  28   1
M  END
> <minimizedAffinity>
-8.65394

$$$$
/home/hjpark/lecture_drug1/0905_agent/pde5_harness/sample_run/structures/work/ligand_ref.pdb


 35 38  0  0  0  0  0  0  0  0999 V2000
    0.8908   65.5238   82.8449 C   0  0  0  0  0  0  0  0  0  0  0  0
    1.6901   66.4432   83.6290 C   0  0  0  0  0  0  0  0  0  0  0  0
    2.5706   67.4162   82.9862 C   0  0  0  0  0  0  0  0  0  0  0  0
    2.6092   67.4281   81.4891 C   0  0  0  0  0  0  0  0  0  0  0  0
    1.8127   66.5103   80.6814 C   0  0  0  0  0  0  0  0  0  0  0  0
    0.9335   65.5260   81.3414 C   0  0  0  0  0  0  0  0  0  0  0  0
   -2.4991   61.9163   83.5744 C   0  0  0  0  0  0  0  0  0  0  0  0
   -2.9496   61.3610   84.7793 N   0  0  0  0  0  0  0  0  0  0  0  0
   -2.3000   61.9639   85.8174 N   0  0  0  0  0  0  0  0  0  0  0  0
   -2.5450   61.6114   87.2186 C   0  0  0  0  0  0  0  0  0  0  0  0
   -1.4446   62.8920   85.2797 C   0  0  0  0  0  0  0  0  0  0  0  0
   -0.5090   63.8229   85.8451 C   0  0  0  0  0  0  0  0  0  0  0  0
   -0.3192   63.9301   87.0348 O   0  0  0  0  0  0  0  0  0  0  0  0
    0.2142   64.6451   84.9836 N   0  0  0  0  0  0  0  0  0  0  0  0
    0.0866   64.6170   83.5878 C   0  0  0  0  0  0  0  0  0  0  0  0
   -0.8098   63.7233   82.9903 N   0  0  0  0  0  0  0  0  0  0  0  0
   -1.5583   62.8777   83.8574 C   0  0  0  0  0  0  0  0  0  0  0  0
   -0.9182   63.6812   82.0127 H   0  0  0  0  0  0  0  0  0  0  0  0
   -2.9708   61.5112   82.2152 C   0  0  0  0  0  0  0  0  0  0  0  0
   -1.2598   61.0031   80.3970 C   0  0  0  0  0  0  0  0  0  0  0  0
   -1.8263   60.5623   81.7198 C   0  0  0  0  0  0  0  0  0  0  0  0
    3.4772   68.4178   83.8454 S   0  0  0  0  0  0  0  0  0  0  0  0
    3.7192   69.5961   83.3014 O   0  0  0  0  0  0  0  0  0  0  0  0
    2.8739   68.6833   84.9801 O   0  0  0  0  0  0  0  0  0  0  0  0
    4.7846   67.5330   84.0370 N   0  0  0  0  0  0  0  0  0  0  0  0
    4.5186   66.0142   84.3772 C   0  0  0  0  0  0  0  0  0  0  0  0
    4.2450   65.6567   85.8508 C   0  0  0  0  0  0  0  0  0  0  0  0
    5.0319   66.4222   86.8759 N   0  0  0  0  0  0  0  0  0  0  0  0
    5.9499   65.4675   87.5715 C   0  0  0  0  0  0  0  0  0  0  0  0
    5.8246   67.6571   86.4408 C   0  0  0  0  0  0  0  0  0  0  0  0
    5.9594   67.9537   84.8990 C   0  0  0  0  0  0  0  0  0  0  0  0
    4.3101   66.8273   87.4720 H   0  0  0  0  0  0  0  0  0  0  0  0
    0.1244   64.5601   80.6291 O   0  0  0  0  0  0  0  0  0  0  0  0
   -0.2019   64.6278   79.2265 C   0  0  0  0  0  0  0  0  0  0  0  0
    0.7013   63.6011   78.5636 C   0  0  0  0  0  0  0  0  0  0  0  0
 20 21  1  0  0  0
 21 19  1  0  0  0
 19  7  1  0  0  0
  7 17  1  0  0  0
  7  8  2  0  0  0
  8  9  1  0  0  0
  9 10  1  0  0  0
 11  9  1  0  0  0
 11 12  1  0  0  0
 12 13  2  0  0  0
 14 12  1  0  0  0
 15 14  2  0  0  0
 16 17  1  0  0  0
 16 15  1  0  0  0
 16 18  1  0  0  0
 17 11  2  0  0  0
  1 15  1  0  0  0
  1  6  1  0  0  0
  2  1  2  0  0  0
  3  2  1  0  0  0
  3  4  2  0  0  0
  4  5  1  0  0  0
  5  6  2  0  0  0
  6 33  1  0  0  0
 33 34  1  0  0  0
 34 35  1  0  0  0
 22 24  2  0  0  0
 22 25  1  0  0  0
 22  3  1  0  0  0
 23 22  2  0  0  0
 25 26  1  0  0  0
 27 26  1  0  0  0
 28 29  1  0  0  0
 28 27  1  0  0  0
 28 32  1  0  0  0
 30 28  1  0  0  0
 30 31  1  0  0  0
 31 25  1  0  0  0
M  CHG 1  28   1
M  END
> <minimizedAffinity>
-8.64062

$$$$
/home/hjpark/lecture_drug1/0905_agent/pde5_harness/sample_run/structures/work/ligand_ref.pdb


 35 38  0  0  0  0  0  0  0  0999 V2000
    0.8780   65.4811   83.0351 C   0  0  0  0  0  0  0  0  0  0  0  0
    0.4880   64.9187   81.7582 C   0  0  0  0  0  0  0  0  0  0  0  0
    0.7727   65.6171   80.5067 C   0  0  0  0  0  0  0  0  0  0  0  0
    1.4863   66.9307   80.5966 C   0  0  0  0  0  0  0  0  0  0  0  0
    1.8869   67.5144   81.8725 C   0  0  0  0  0  0  0  0  0  0  0  0
    1.5866   66.8045   83.1308 C   0  0  0  0  0  0  0  0  0  0  0  0
   -1.8388   62.3194   85.8029 C   0  0  0  0  0  0  0  0  0  0  0  0
   -1.6187   61.8861   87.1170 N   0  0  0  0  0  0  0  0  0  0  0  0
   -0.4808   62.4702   87.5935 N   0  0  0  0  0  0  0  0  0  0  0  0
    0.0302   62.2262   88.9452 C   0  0  0  0  0  0  0  0  0  0  0  0
    0.0188   63.2658   86.5937 C   0  0  0  0  0  0  0  0  0  0  0  0
    1.1700   64.1172   86.4859 C   0  0  0  0  0  0  0  0  0  0  0  0
    1.9669   64.2692   87.3831 O   0  0  0  0  0  0  0  0  0  0  0  0
    1.3797   64.8043   85.2922 N   0  0  0  0  0  0  0  0  0  0  0  0
    0.5315   64.7124   84.1797 C   0  0  0  0  0  0  0  0  0  0  0  0
   -0.6011   63.8918   84.2359 N   0  0  0  0  0  0  0  0  0  0  0  0
   -0.8306   63.1846   85.4501 C   0  0  0  0  0  0  0  0  0  0  0  0
   -1.2125   63.8073   83.4690 H   0  0  0  0  0  0  0  0  0  0  0  0
   -2.9831   61.8937   84.9408 C   0  0  0  0  0  0  0  0  0  0  0  0
   -3.0806   60.5085   82.8046 C   0  0  0  0  0  0  0  0  0  0  0  0
   -2.2784   61.5063   83.5958 C   0  0  0  0  0  0  0  0  0  0  0  0
    0.3216   65.0155   79.0931 S   0  0  0  0  0  0  0  0  0  0  0  0
   -0.6889   65.6218   78.4982 O   0  0  0  0  0  0  0  0  0  0  0  0
    1.3197   65.1045   78.2458 O   0  0  0  0  0  0  0  0  0  0  0  0
   -0.0010   63.5143   79.5069 N   0  0  0  0  0  0  0  0  0  0  0  0
    0.7637   62.4131   78.6728 C   0  0  0  0  0  0  0  0  0  0  0  0
    0.1595   62.0080   77.3144 C   0  0  0  0  0  0  0  0  0  0  0  0
   -1.3398   61.9468   77.2474 N   0  0  0  0  0  0  0  0  0  0  0  0
   -1.7419   60.5223   77.0301 C   0  0  0  0  0  0  0  0  0  0  0  0
   -2.1641   62.5336   78.3958 C   0  0  0  0  0  0  0  0  0  0  0  0
   -1.4090   62.9858   79.7029 C   0  0  0  0  0  0  0  0  0  0  0  0
   -1.5665   62.5742   76.4757 H   0  0  0  0  0  0  0  0  0  0  0  0
    1.9215   67.3118   84.4443 O   0  0  0  0  0  0  0  0  0  0  0  0
    3.0238   68.1946   84.7341 C   0  0  0  0  0  0  0  0  0  0  0  0
    4.2431   67.2903   84.8031 C   0  0  0  0  0  0  0  0  0  0  0  0
 20 21  1  0  0  0
 21 19  1  0  0  0
 19  7  1  0  0  0
  7 17  1  0  0  0
  7  8  2  0  0  0
  8  9  1  0  0  0
  9 10  1  0  0  0
 11  9  1  0  0  0
 11 12  1  0  0  0
 12 13  2  0  0  0
 14 12  1  0  0  0
 15 14  2  0  0  0
 16 17  1  0  0  0
 16 15  1  0  0  0
 16 18  1  0  0  0
 17 11  2  0  0  0
  1 15  1  0  0  0
  1  6  1  0  0  0
  2  1  2  0  0  0
  3  2  1  0  0  0
  3  4  2  0  0  0
  4  5  1  0  0  0
  5  6  2  0  0  0
  6 33  1  0  0  0
 33 34  1  0  0  0
 34 35  1  0  0  0
 22 24  2  0  0  0
 22 25  1  0  0  0
 22  3  1  0  0  0
 23 22  2  0  0  0
 25 26  1  0  0  0
 27 26  1  0  0  0
 28 29  1  0  0  0
 28 27  1  0  0  0
 28 32  1  0  0  0
 30 28  1  0  0  0
 30 31  1  0  0  0
 31 25  1  0  0  0
M  CHG 1  28   1
M  END
> <minimizedAffinity>
-8.59730

$$$$
/home/hjpark/lecture_drug1/0905_agent/pde5_harness/sample_run/structures/work/ligand_ref.pdb


 35 38  0  0  0  0  0  0  0  0999 V2000
    1.2773   66.2533   81.9505 C   0  0  0  0  0  0  0  0  0  0  0  0
    1.7181   67.4635   81.2871 C   0  0  0  0  0  0  0  0  0  0  0  0
    2.3539   68.5461   82.0349 C   0  0  0  0  0  0  0  0  0  0  0  0
    2.5357   68.3523   83.5087 C   0  0  0  0  0  0  0  0  0  0  0  0
    2.0982   67.1416   84.1957 C   0  0  0  0  0  0  0  0  0  0  0  0
    1.4495   66.0584   83.4320 C   0  0  0  0  0  0  0  0  0  0  0  0
   -0.7493   61.8378   80.7529 C   0  0  0  0  0  0  0  0  0  0  0  0
   -1.2617   61.4084   79.5216 N   0  0  0  0  0  0  0  0  0  0  0  0
   -1.1389   62.4185   78.6118 N   0  0  0  0  0  0  0  0  0  0  0  0
   -1.5806   62.2911   77.2203 C   0  0  0  0  0  0  0  0  0  0  0  0
   -0.5557   63.4797   79.2567 C   0  0  0  0  0  0  0  0  0  0  0  0
   -0.1756   64.8021   78.8462 C   0  0  0  0  0  0  0  0  0  0  0  0
   -0.3416   65.2197   77.7232 O   0  0  0  0  0  0  0  0  0  0  0  0
    0.4154   65.6457   79.7844 N   0  0  0  0  0  0  0  0  0  0  0  0
    0.6608   65.2817   81.1158 C   0  0  0  0  0  0  0  0  0  0  0  0
    0.3038   64.0044   81.5636 N   0  0  0  0  0  0  0  0  0  0  0  0
   -0.2993   63.1295   80.6160 C   0  0  0  0  0  0  0  0  0  0  0  0
    0.4628   63.7231   82.4935 H   0  0  0  0  0  0  0  0  0  0  0  0
   -0.7136   61.0147   82.0000 C   0  0  0  0  0  0  0  0  0  0  0  0
   -2.9602   59.8804   82.3972 C   0  0  0  0  0  0  0  0  0  0  0  0
   -2.1745   61.1549   82.5496 C   0  0  0  0  0  0  0  0  0  0  0  0
    2.8198   69.8977   81.3142 S   0  0  0  0  0  0  0  0  0  0  0  0
    4.1183   70.0369   81.1213 O   0  0  0  0  0  0  0  0  0  0  0  0
    2.2887   69.9550   80.1155 O   0  0  0  0  0  0  0  0  0  0  0  0
    2.2118   70.9802   82.3079 N   0  0  0  0  0  0  0  0  0  0  0  0
    0.7383   71.4392   81.9744 C   0  0  0  0  0  0  0  0  0  0  0  0
    0.5638   72.5403   80.9107 C   0  0  0  0  0  0  0  0  0  0  0  0
    1.5981   73.6295   80.9083 N   0  0  0  0  0  0  0  0  0  0  0  0
    0.9306   74.9110   81.2959 C   0  0  0  0  0  0  0  0  0  0  0  0
    2.8716   73.4533   81.7387 C   0  0  0  0  0  0  0  0  0  0  0  0
    2.9527   72.2335   82.7331 C   0  0  0  0  0  0  0  0  0  0  0  0
    1.9576   73.6102   79.9539 H   0  0  0  0  0  0  0  0  0  0  0  0
    0.9609   64.8321   84.0255 O   0  0  0  0  0  0  0  0  0  0  0  0
    0.5736   64.6777   85.4056 C   0  0  0  0  0  0  0  0  0  0  0  0
   -0.2868   63.4254   85.4338 C   0  0  0  0  0  0  0  0  0  0  0  0
 20 21  1  0  0  0
 21 19  1  0  0  0
 19  7  1  0  0  0
  7 17  1  0  0  0
  7  8  2  0  0  0
  8  9  1  0  0  0
  9 10  1  0  0  0
 11  9  1  0  0  0
 11 12  1  0  0  0
 12 13  2  0  0  0
 14 12  1  0  0  0
 15 14  2  0  0  0
 16 17  1  0  0  0
 16 15  1  0  0  0
 16 18  1  0  0  0
 17 11  2  0  0  0
  1 15  1  0  0  0
  1  6  1  0  0  0
  2  1  2  0  0  0
  3  2  1  0  0  0
  3  4  2  0  0  0
  4  5  1  0  0  0
  5  6  2  0  0  0
  6 33  1  0  0  0
 33 34  1  0  0  0
 34 35  1  0  0  0
 22 24  2  0  0  0
 22 25  1  0  0  0
 22  3  1  0  0  0
 23 22  2  0  0  0
 25 26  1  0  0  0
 27 26  1  0  0  0
 28 29  1  0  0  0
 28 27  1  0  0  0
 28 32  1  0  0  0
 30 28  1  0  0  0
 30 31  1  0  0  0
 31 25  1  0  0  0
M  CHG 1  28   1
M  END
> <minimizedAffinity>
-8.53002

$$$$
/home/hjpark/lecture_drug1/0905_agent/pde5_harness/sample_run/structures/work/ligand_ref.pdb


 35 38  0  0  0  0  0  0  0  0999 V2000
    0.7089   65.3124   83.1640 C   0  0  0  0  0  0  0  0  0  0  0  0
    0.7829   66.3207   82.1262 C   0  0  0  0  0  0  0  0  0  0  0  0
    1.5534   67.5473   82.3186 C   0  0  0  0  0  0  0  0  0  0  0  0
    2.2652   67.7171   83.6252 C   0  0  0  0  0  0  0  0  0  0  0  0
    2.2027   66.7140   84.6831 C   0  0  0  0  0  0  0  0  0  0  0  0
    1.4146   65.4830   84.4813 C   0  0  0  0  0  0  0  0  0  0  0  0
   -2.6367   61.6842   83.9894 C   0  0  0  0  0  0  0  0  0  0  0  0
   -3.0562   60.6602   83.1300 N   0  0  0  0  0  0  0  0  0  0  0  0
   -2.3962   60.7788   81.9411 N   0  0  0  0  0  0  0  0  0  0  0  0
   -2.6068   59.8572   80.8213 C   0  0  0  0  0  0  0  0  0  0  0  0
   -1.5664   61.8666   82.0418 C   0  0  0  0  0  0  0  0  0  0  0  0
   -0.6378   62.4920   81.1427 C   0  0  0  0  0  0  0  0  0  0  0  0
   -0.4330   62.0924   80.0196 O   0  0  0  0  0  0  0  0  0  0  0  0
    0.0641   63.6116   81.5842 N   0  0  0  0  0  0  0  0  0  0  0  0
   -0.0838   64.1719   82.8608 C   0  0  0  0  0  0  0  0  0  0  0  0
   -0.9803   63.5996   83.7707 N   0  0  0  0  0  0  0  0  0  0  0  0
   -1.7038   62.4532   83.3353 C   0  0  0  0  0  0  0  0  0  0  0  0
   -1.1052   63.9735   84.6728 H   0  0  0  0  0  0  0  0  0  0  0  0
   -3.1384   61.8934   85.3817 C   0  0  0  0  0  0  0  0  0  0  0  0
   -2.0815   62.5236   87.6127 C   0  0  0  0  0  0  0  0  0  0  0  0
   -1.8158   62.0618   86.2052 C   0  0  0  0  0  0  0  0  0  0  0  0
    1.6187   68.6786   81.1875 S   0  0  0  0  0  0  0  0  0  0  0  0
    2.1037   68.3051   80.0179 O   0  0  0  0  0  0  0  0  0  0  0  0
    0.4049   69.1072   80.9325 O   0  0  0  0  0  0  0  0  0  0  0  0
    2.5141   69.7695   81.9204 N   0  0  0  0  0  0  0  0  0  0  0  0
    1.7663   71.1118   82.2841 C   0  0  0  0  0  0  0  0  0  0  0  0
    1.6446   72.1764   81.1768 C   0  0  0  0  0  0  0  0  0  0  0  0
    2.8280   72.3210   80.2632 N   0  0  0  0  0  0  0  0  0  0  0  0
    3.4318   73.6712   80.4879 C   0  0  0  0  0  0  0  0  0  0  0  0
    3.9331   71.2627   80.2978 C   0  0  0  0  0  0  0  0  0  0  0  0
    3.8936   70.1779   81.4402 C   0  0  0  0  0  0  0  0  0  0  0  0
    2.4268   72.1847   79.3354 H   0  0  0  0  0  0  0  0  0  0  0  0
    1.2724   64.4425   85.4773 O   0  0  0  0  0  0  0  0  0  0  0  0
    0.6179   64.6009   86.7520 C   0  0  0  0  0  0  0  0  0  0  0  0
    1.4108   63.7290   87.7112 C   0  0  0  0  0  0  0  0  0  0  0  0
 20 21  1  0  0  0
 21 19  1  0  0  0
 19  7  1  0  0  0
  7 17  1  0  0  0
  7  8  2  0  0  0
  8  9  1  0  0  0
  9 10  1  0  0  0
 11  9  1  0  0  0
 11 12  1  0  0  0
 12 13  2  0  0  0
 14 12  1  0  0  0
 15 14  2  0  0  0
 16 17  1  0  0  0
 16 15  1  0  0  0
 16 18  1  0  0  0
 17 11  2  0  0  0
  1 15  1  0  0  0
  1  6  1  0  0  0
  2  1  2  0  0  0
  3  2  1  0  0  0
  3  4  2  0  0  0
  4  5  1  0  0  0
  5  6  2  0  0  0
  6 33  1  0  0  0
 33 34  1  0  0  0
 34 35  1  0  0  0
 22 24  2  0  0  0
 22 25  1  0  0  0
 22  3  1  0  0  0
 23 22  2  0  0  0
 25 26  1  0  0  0
 27 26  1  0  0  0
 28 29  1  0  0  0
 28 27  1  0  0  0
 28 32  1  0  0  0
 30 28  1  0  0  0
 30 31  1  0  0  0
 31 25  1  0  0  0
M  CHG 1  28   1
M  END
> <minimizedAffinity>
-8.28284

$$$$
/home/hjpark/lecture_drug1/0905_agent/pde5_harness/sample_run/structures/work/ligand_ref.pdb


 35 38  0  0  0  0  0  0  0  0999 V2000
    0.9480   66.8613   81.2387 C   0  0  0  0  0  0  0  0  0  0  0  0
    0.5929   66.2066   79.9960 C   0  0  0  0  0  0  0  0  0  0  0  0
    0.2466   64.7873   79.9623 C   0  0  0  0  0  0  0  0  0  0  0  0
    0.2686   64.0409   81.2604 C   0  0  0  0  0  0  0  0  0  0  0  0
    0.6240   64.6816   82.5222 C   0  0  0  0  0  0  0  0  0  0  0  0
    0.9803   66.1134   82.5432 C   0  0  0  0  0  0  0  0  0  0  0  0
    0.1036   71.7858   80.9646 C   0  0  0  0  0  0  0  0  0  0  0  0
    1.0267   72.8326   80.8420 N   0  0  0  0  0  0  0  0  0  0  0  0
    2.2880   72.3120   80.8080 N   0  0  0  0  0  0  0  0  0  0  0  0
    3.4872   73.1451   80.6829 C   0  0  0  0  0  0  0  0  0  0  0  0
    2.1697   70.9489   80.9088 C   0  0  0  0  0  0  0  0  0  0  0  0
    3.1172   69.8704   80.9328 C   0  0  0  0  0  0  0  0  0  0  0  0
    4.3128   70.0384   80.8592 O   0  0  0  0  0  0  0  0  0  0  0  0
    2.6385   68.5667   81.0434 N   0  0  0  0  0  0  0  0  0  0  0  0
    1.2783   68.2403   81.1371 C   0  0  0  0  0  0  0  0  0  0  0  0
    0.3173   69.2580   81.1221 N   0  0  0  0  0  0  0  0  0  0  0  0
    0.7906   70.5959   81.0072 C   0  0  0  0  0  0  0  0  0  0  0  0
   -0.6442   69.0574   81.1882 H   0  0  0  0  0  0  0  0  0  0  0  0
   -1.3793   71.9559   81.0422 C   0  0  0  0  0  0  0  0  0  0  0  0
   -2.8576   72.4015   79.0155 C   0  0  0  0  0  0  0  0  0  0  0  0
   -1.6852   72.8909   79.8223 C   0  0  0  0  0  0  0  0  0  0  0  0
   -0.1211   64.0497   78.5896 S   0  0  0  0  0  0  0  0  0  0  0  0
   -0.8618   64.7367   77.7399 O   0  0  0  0  0  0  0  0  0  0  0  0
    0.9831   63.7757   77.9356 O   0  0  0  0  0  0  0  0  0  0  0  0
   -0.8452   62.7476   79.1454 N   0  0  0  0  0  0  0  0  0  0  0  0
   -0.2994   61.3828   78.5687 C   0  0  0  0  0  0  0  0  0  0  0  0
   -0.8483   60.9210   77.2050 C   0  0  0  0  0  0  0  0  0  0  0  0
   -2.3018   61.1985   76.9470 N   0  0  0  0  0  0  0  0  0  0  0  0
   -3.0214   59.8896   76.8622 C   0  0  0  0  0  0  0  0  0  0  0  0
   -3.0638   62.1322   77.8904 C   0  0  0  0  0  0  0  0  0  0  0  0
   -2.3526   62.5964   79.2179 C   0  0  0  0  0  0  0  0  0  0  0  0
   -2.2886   61.7325   76.0780 H   0  0  0  0  0  0  0  0  0  0  0  0
    1.3690   66.8317   83.7382 O   0  0  0  0  0  0  0  0  0  0  0  0
    2.6959   66.8439   84.3016 C   0  0  0  0  0  0  0  0  0  0  0  0
    2.9853   68.3071   84.5921 C   0  0  0  0  0  0  0  0  0  0  0  0
 20 21  1  0  0  0
 21 19  1  0  0  0
 19  7  1  0  0  0
  7 17  1  0  0  0
  7  8  2  0  0  0
  8  9  1  0  0  0
  9 10  1  0  0  0
 11  9  1  0  0  0
 11 12  1  0  0  0
 12 13  2  0  0  0
 14 12  1  0  0  0
 15 14  2  0  0  0
 16 17  1  0  0  0
 16 15  1  0  0  0
 16 18  1  0  0  0
 17 11  2  0  0  0
  1 15  1  0  0  0
  1  6  1  0  0  0
  2  1  2  0  0  0
  3  2  1  0  0  0
  3  4  2  0  0  0
  4  5  1  0  0  0
  5  6  2  0  0  0
  6 33  1  0  0  0
 33 34  1  0  0  0
 34 35  1  0  0  0
 22 24  2  0  0  0
 22 25  1  0  0  0
 22  3  1  0  0  0
 23 22  2  0  0  0
 25 26  1  0  0  0
 27 26  1  0  0  0
 28 29  1  0  0  0
 28 27  1  0  0  0
 28 32  1  0  0  0
 30 28  1  0  0  0
 30 31  1  0  0  0
 31 25  1  0  0  0
M  CHG 1  28   1
M  END
> <minimizedAffinity>
-8.20189

$$$$
