/home/hjpark/lecture_drug1/0905_agent/pde5_harness/sample_run/structures/work/ligand_ref.pdb


 34 37  0  0  0  0  0  0  0  0999 V2000
    0.4052   64.1338   83.8910 C   0  0  0  0  0  0  0  0  0  0  0  0
    0.1319   63.3966   82.6741 C   0  0  0  0  0  0  0  0  0  0  0  0
   -0.7110   62.2031   82.6873 C   0  0  0  0  0  0  0  0  0  0  0  0
   -1.2832   61.7772   84.0042 C   0  0  0  0  0  0  0  0  0  0  0  0
   -1.0195   62.5054   85.2408 C   0  0  0  0  0  0  0  0  0  0  0  0
   -0.1598   63.7044   85.2172 C   0  0  0  0  0  0  0  0  0  0  0  0
    4.3135   67.1074   84.8506 C   0  0  0  0  0  0  0  0  0  0  0  0
    4.6515   68.3348   84.2655 N   0  0  0  0  0  0  0  0  0  0  0  0
    3.7172   68.6502   83.3218 N   0  0  0  0  0  0  0  0  0  0  0  0
    3.7783   69.8780   82.5240 C   0  0  0  0  0  0  0  0  0  0  0  0
    2.7950   67.6346   83.3052 C   0  0  0  0  0  0  0  0  0  0  0  0
    1.6025   67.3903   82.5437 C   0  0  0  0  0  0  0  0  0  0  0  0
    1.1922   68.1487   81.6955 O   0  0  0  0  0  0  0  0  0  0  0  0
    0.8802   66.2256   82.7942 N   0  0  0  0  0  0  0  0  0  0  0  0
    1.2505   65.2679   83.7487 C   0  0  0  0  0  0  0  0  0  0  0  0
    2.4076   65.4602   84.5126 N   0  0  0  0  0  0  0  0  0  0  0  0
    3.1557   66.6471   84.2701 C   0  0  0  0  0  0  0  0  0  0  0  0
    2.6919   64.8032   85.1884 H   0  0  0  0  0  0  0  0  0  0  0  0
    5.0995   66.4241   85.9226 C   0  0  0  0  0  0  0  0  0  0  0  0
    7.3478   65.8902   84.8494 C   0  0  0  0  0  0  0  0  0  0  0  0
    5.9550   65.3869   85.1175 C   0  0  0  0  0  0  0  0  0  0  0  0
   -0.9965   61.3673   81.3518 S   0  0  0  0  0  0  0  0  0  0  0  0
    0.0636   60.8923   80.7246 O   0  0  0  0  0  0  0  0  0  0  0  0
   -1.7195   60.3126   81.6468 O   0  0  0  0  0  0  0  0  0  0  0  0
   -1.7999   62.4448   80.5020 N   0  0  0  0  0  0  0  0  0  0  0  0
   -3.2876   62.0460   80.1540 C   0  0  0  0  0  0  0  0  0  0  0  0
   -3.5086   61.1383   78.9286 C   0  0  0  0  0  0  0  0  0  0  0  0
   -2.6114   61.3860   77.7497 N   0  0  0  0  0  0  0  0  0  0  0  0
   -3.4512   61.8890   76.6185 C   0  0  0  0  0  0  0  0  0  0  0  0
   -1.3924   62.2964   77.9160 C   0  0  0  0  0  0  0  0  0  0  0  0
   -1.2447   63.1103   79.2573 C   0  0  0  0  0  0  0  0  0  0  0  0
    0.1790   64.4788   86.3921 O   0  0  0  0  0  0  0  0  0  0  0  0
   -0.2403   64.1694   87.7363 C   0  0  0  0  0  0  0  0  0  0  0  0
    0.8863   63.3298   88.3153 C   0  0  0  0  0  0  0  0  0  0  0  0
 20 21  1  0  0  0
 21 19  1  0  0  0
 19  7  1  0  0  0
  7 17  1  0  0  0
  7  8  2  0  0  0
  8  9  1  0  0  0
  9 10  1  0  0  0
 11  9  1  0  0  0
 11 12  1  0  0  0
 12 13  2  0  0  0
 14 12  1  0  0  0
 15 14  2  0  0  0
 16 17  1  0  0  0
 16 15  1  0  0  0
 16 18  1  0  0  0
 17 11  2  0  0  0
  1 15  1  0  0  0
  1  6  1  0  0  0
  2  1  2  0  0  0
  3  2  1  0  0  0
  3  4  2  0  0  0
  4  5  1  0  0  0
  5  6  2  0  0  0
  6 32  1  0  0  0
 32 33  1  0  0  0
 33 34  1  0  0  0
 22 24  2  0  0  0
 22 25  1  0  0  0
 22  3  1  0  0  0
 23 22  2  0  0  0
 25 26  1  0  0  0
 27 26  1  0  0  0
 28 29  1  0  0  0
 28 27  1  0  0  0
 30 28  1  0  0  0
 30 31  1  0  0  0
 31 25  1  0  0  0
M  END
> <minimizedAffinity>
-9.64360

$$$$
/home/hjpark/lecture_drug1/0905_agent/pde5_harness/sample_run/structures/work/ligand_ref.pdb


 34 37  0  0  0  0  0  0  0  0999 V2000
    0.2253   64.2964   84.1652 C   0  0  0  0  0  0  0  0  0  0  0  0
   -0.3415   63.7277   82.9593 C   0  0  0  0  0  0  0  0  0  0  0  0
   -1.2847   62.6133   83.0209 C   0  0  0  0  0  0  0  0  0  0  0  0
   -1.6446   62.0882   84.3764 C   0  0  0  0  0  0  0  0  0  0  0  0
   -1.0845   62.6466   85.6026 C   0  0  0  0  0  0  0  0  0  0  0  0
   -0.1262   63.7662   85.5282 C   0  0  0  0  0  0  0  0  0  0  0  0
    4.3405   67.0302   84.9589 C   0  0  0  0  0  0  0  0  0  0  0  0
    4.7474   68.2135   84.3286 N   0  0  0  0  0  0  0  0  0  0  0  0
    3.8175   68.5612   83.3920 N   0  0  0  0  0  0  0  0  0  0  0  0
    3.9441   69.7569   82.5541 C   0  0  0  0  0  0  0  0  0  0  0  0
    2.8299   67.6096   83.4246 C   0  0  0  0  0  0  0  0  0  0  0  0
    1.6089   67.4222   82.6926 C   0  0  0  0  0  0  0  0  0  0  0  0
    1.2330   68.1798   81.8278 O   0  0  0  0  0  0  0  0  0  0  0  0
    0.8161   66.3167   82.9933 N   0  0  0  0  0  0  0  0  0  0  0  0
    1.1410   65.3665   83.9715 C   0  0  0  0  0  0  0  0  0  0  0  0
    2.3232   65.5045   84.7081 N   0  0  0  0  0  0  0  0  0  0  0  0
    3.1433   66.6306   84.4142 C   0  0  0  0  0  0  0  0  0  0  0  0
    2.5767   64.8512   85.3995 H   0  0  0  0  0  0  0  0  0  0  0  0
    5.1006   66.3293   86.0383 C   0  0  0  0  0  0  0  0  0  0  0  0
    7.3131   65.7739   84.9036 C   0  0  0  0  0  0  0  0  0  0  0  0
    5.9361   65.2695   85.2418 C   0  0  0  0  0  0  0  0  0  0  0  0
   -1.8952   61.9613   81.6920 S   0  0  0  0  0  0  0  0  0  0  0  0
   -2.1089   60.6591   81.7277 O   0  0  0  0  0  0  0  0  0  0  0  0
   -3.0698   62.4934   81.4485 O   0  0  0  0  0  0  0  0  0  0  0  0
   -0.7942   62.3892   80.6273 N   0  0  0  0  0  0  0  0  0  0  0  0
   -1.3035   63.3666   79.4967 C   0  0  0  0  0  0  0  0  0  0  0  0
   -2.0132   62.7359   78.2830 C   0  0  0  0  0  0  0  0  0  0  0  0
   -1.4667   61.4209   77.8051 N   0  0  0  0  0  0  0  0  0  0  0  0
   -0.8852   61.6223   76.4415 C   0  0  0  0  0  0  0  0  0  0  0  0
   -0.4582   60.6690   78.6770 C   0  0  0  0  0  0  0  0  0  0  0  0
    0.1315   61.4035   79.9404 C   0  0  0  0  0  0  0  0  0  0  0  0
    0.5005   64.3713   86.6840 O   0  0  0  0  0  0  0  0  0  0  0  0
    1.2944   63.6659   87.6591 C   0  0  0  0  0  0  0  0  0  0  0  0
    0.3155   63.2766   88.7543 C   0  0  0  0  0  0  0  0  0  0  0  0
 20 21  1  0  0  0
 21 19  1  0  0  0
 19  7  1  0  0  0
  7 17  1  0  0  0
  7  8  2  0  0  0
  8  9  1  0  0  0
  9 10  1  0  0  0
 11  9  1  0  0  0
 11 12  1  0  0  0
 12 13  2  0  0  0
 14 12  1  0  0  0
 15 14  2  0  0  0
 16 17  1  0  0  0
 16 15  1  0  0  0
 16 18  1  0  0  0
 17 11  2  0  0  0
  1 15  1  0  0  0
  1  6  1  0  0  0
  2  1  2  0  0  0
  3  2  1  0  0  0
  3  4  2  0  0  0
  4  5  1  0  0  0
  5  6  2  0  0  0
  6 32  1  0  0  0
 32 33  1  0  0  0
 33 34  1  0  0  0
 22 24  2  0  0  0
 22 25  1  0  0  0
 22  3  1  0  0  0
 23 22  2  0  0  0
 25 26  1  0  0  0
 27 26  1  0  0  0
 28 29  1  0  0  0
 28 27  1  0  0  0
 30 28  1  0  0  0
 30 31  1  0  0  0
 31 25  1  0  0  0
M  END
> <minimizedAffinity>
-9.52050

$$$$
/home/hjpark/lecture_drug1/0905_agent/pde5_harness/sample_run/structures/work/ligand_ref.pdb


 34 37  0  0  0  0  0  0  0  0999 V2000
    2.1217   67.2057   83.3140 C   0  0  0  0  0  0  0  0  0  0  0  0
    1.5625   68.1745   82.3934 C   0  0  0  0  0  0  0  0  0  0  0  0
    2.2999   69.3818   82.0273 C   0  0  0  0  0  0  0  0  0  0  0  0
    3.6548   69.5737   82.6360 C   0  0  0  0  0  0  0  0  0  0  0  0
    4.2353   68.6103   83.5655 C   0  0  0  0  0  0  0  0  0  0  0  0
    3.4781   67.3989   83.9348 C   0  0  0  0  0  0  0  0  0  0  0  0
   -0.1182   63.7509   86.1575 C   0  0  0  0  0  0  0  0  0  0  0  0
   -0.9603   62.7007   85.7689 N   0  0  0  0  0  0  0  0  0  0  0  0
   -1.1164   62.7339   84.4133 N   0  0  0  0  0  0  0  0  0  0  0  0
   -1.9404   61.7648   83.6856 C   0  0  0  0  0  0  0  0  0  0  0  0
   -0.3828   63.7939   83.9439 C   0  0  0  0  0  0  0  0  0  0  0  0
   -0.1516   64.3377   82.6353 C   0  0  0  0  0  0  0  0  0  0  0  0
   -0.6396   63.8740   81.6304 O   0  0  0  0  0  0  0  0  0  0  0  0
    0.6766   65.4516   82.5147 N   0  0  0  0  0  0  0  0  0  0  0  0
    1.3003   66.0814   83.6008 C   0  0  0  0  0  0  0  0  0  0  0  0
    1.1015   65.5899   84.8963 N   0  0  0  0  0  0  0  0  0  0  0  0
    0.2593   64.4504   85.0360 C   0  0  0  0  0  0  0  0  0  0  0  0
    1.5257   66.0137   85.6771 H   0  0  0  0  0  0  0  0  0  0  0  0
    0.2852   64.0494   87.5654 C   0  0  0  0  0  0  0  0  0  0  0  0
    0.2387   62.1422   89.2542 C   0  0  0  0  0  0  0  0  0  0  0  0
   -0.5958   63.0550   88.3966 C   0  0  0  0  0  0  0  0  0  0  0  0
    1.6783   70.4706   81.0316 S   0  0  0  0  0  0  0  0  0  0  0  0
    2.5331   71.0895   80.2386 O   0  0  0  0  0  0  0  0  0  0  0  0
    0.8272   69.8831   80.2237 O   0  0  0  0  0  0  0  0  0  0  0  0
    0.9681   71.4419   82.0714 N   0  0  0  0  0  0  0  0  0  0  0  0
   -0.5020   71.8711   81.6870 C   0  0  0  0  0  0  0  0  0  0  0  0
   -0.6617   73.0503   80.7081 C   0  0  0  0  0  0  0  0  0  0  0  0
    0.3233   74.1743   80.8578 N   0  0  0  0  0  0  0  0  0  0  0  0
   -0.4197   75.3925   81.3073 C   0  0  0  0  0  0  0  0  0  0  0  0
    1.5531   73.9773   81.7474 C   0  0  0  0  0  0  0  0  0  0  0  0
    1.6288   72.6821   82.6419 C   0  0  0  0  0  0  0  0  0  0  0  0
    3.9577   66.3986   84.8644 O   0  0  0  0  0  0  0  0  0  0  0  0
    5.0796   66.5659   85.7541 C   0  0  0  0  0  0  0  0  0  0  0  0
    5.8285   65.2449   85.6938 C   0  0  0  0  0  0  0  0  0  0  0  0
 20 21  1  0  0  0
 21 19  1  0  0  0
 19  7  1  0  0  0
  7 17  1  0  0  0
  7  8  2  0  0  0
  8  9  1  0  0  0
  9 10  1  0  0  0
 11  9  1  0  0  0
 11 12  1  0  0  0
 12 13  2  0  0  0
 14 12  1  0  0  0
 15 14  2  0  0  0
 16 17  1  0  0  0
 16 15  1  0  0  0
 16 18  1  0  0  0
 17 11  2  0  0  0
  1 15  1  0  0  0
  1  6  1  0  0  0
  2  1  2  0  0  0
  3  2  1  0  0  0
  3  4  2  0  0  0
  4  5  1  0  0  0
  5  6  2  0  0  0
  6 32  1  0  0  0
 32 33  1  0  0  0
 33 34  1  0  0  0
 22 24  2  0  0  0
 22 25  1  0  0  0
 22  3  1  0  0  0
 23 22  2  0  0  0
 25 26  1  0  0  0
 27 26  1  0  0  0
 28 29  1  0  0  0
 28 27  1  0  0  0
 30 28  1  0  0  0
 30 31  1  0  0  0
 31 25  1  0  0  0
M  END
> <minimizedAffinity>
-9.49906

$$$$
/home/hjpark/lecture_drug1/0905_agent/pde5_harness/sample_run/structures/work/ligand_ref.pdb


 34 37  0  0  0  0  0  0  0  0999 V2000
    2.0435   66.6669   83.5826 C   0  0  0  0  0  0  0  0  0  0  0  0
    1.5616   67.7574   82.7595 C   0  0  0  0  0  0  0  0  0  0  0  0
    2.3376   68.9857   82.6033 C   0  0  0  0  0  0  0  0  0  0  0  0
    3.6489   69.0693   83.3217 C   0  0  0  0  0  0  0  0  0  0  0  0
    4.1515   67.9827   84.1558 C   0  0  0  0  0  0  0  0  0  0  0  0
    3.3555   66.7502   84.3134 C   0  0  0  0  0  0  0  0  0  0  0  0
   -0.7959   63.1992   85.8078 C   0  0  0  0  0  0  0  0  0  0  0  0
   -1.5002   62.1342   85.2309 N   0  0  0  0  0  0  0  0  0  0  0  0
   -1.3112   62.1559   83.8793 N   0  0  0  0  0  0  0  0  0  0  0  0
   -1.9139   61.1700   82.9779 C   0  0  0  0  0  0  0  0  0  0  0  0
   -0.4964   63.2233   83.5983 C   0  0  0  0  0  0  0  0  0  0  0  0
    0.0493   63.7616   82.3842 C   0  0  0  0  0  0  0  0  0  0  0  0
   -0.1648   63.2841   81.2937 O   0  0  0  0  0  0  0  0  0  0  0  0
    0.8674   64.8865   82.4640 N   0  0  0  0  0  0  0  0  0  0  0  0
    1.1904   65.5327   83.6655 C   0  0  0  0  0  0  0  0  0  0  0  0
    0.6786   65.0471   84.8745 N   0  0  0  0  0  0  0  0  0  0  0  0
   -0.1574   63.8965   84.8099 C   0  0  0  0  0  0  0  0  0  0  0  0
    0.8877   65.4824   85.7324 H   0  0  0  0  0  0  0  0  0  0  0  0
   -0.7628   63.5130   87.2687 C   0  0  0  0  0  0  0  0  0  0  0  0
    0.2811   62.1843   89.1756 C   0  0  0  0  0  0  0  0  0  0  0  0
   -0.5462   62.1046   87.9210 C   0  0  0  0  0  0  0  0  0  0  0  0
    1.8002   70.2061   81.7171 S   0  0  0  0  0  0  0  0  0  0  0  0
    1.7952   70.0188   80.4103 O   0  0  0  0  0  0  0  0  0  0  0  0
    0.5500   70.4523   82.0312 O   0  0  0  0  0  0  0  0  0  0  0  0
    2.7896   71.3604   82.1833 N   0  0  0  0  0  0  0  0  0  0  0  0
    2.1400   72.4631   83.1081 C   0  0  0  0  0  0  0  0  0  0  0  0
    1.3755   73.6073   82.4147 C   0  0  0  0  0  0  0  0  0  0  0  0
    1.9569   74.1055   81.1225 N   0  0  0  0  0  0  0  0  0  0  0  0
    2.4189   75.5135   81.3279 C   0  0  0  0  0  0  0  0  0  0  0  0
    3.0706   73.3034   80.4451 C   0  0  0  0  0  0  0  0  0  0  0  0
    3.7137   72.1019   81.2364 C   0  0  0  0  0  0  0  0  0  0  0  0
    3.7569   65.6291   85.1360 O   0  0  0  0  0  0  0  0  0  0  0  0
    5.1181   65.2975   85.4760 C   0  0  0  0  0  0  0  0  0  0  0  0
    5.2233   65.5558   86.9698 C   0  0  0  0  0  0  0  0  0  0  0  0
 20 21  1  0  0  0
 21 19  1  0  0  0
 19  7  1  0  0  0
  7 17  1  0  0  0
  7  8  2  0  0  0
  8  9  1  0  0  0
  9 10  1  0  0  0
 11  9  1  0  0  0
 11 12  1  0  0  0
 12 13  2  0  0  0
 14 12  1  0  0  0
 15 14  2  0  0  0
 16 17  1  0  0  0
 16 15  1  0  0  0
 16 18  1  0  0  0
 17 11  2  0  0  0
  1 15  1  0  0  0
  1  6  1  0  0  0
  2  1  2  0  0  0
  3  2  1  0  0  0
  3  4  2  0  0  0
  4  5  1  0  0  0
  5  6  2  0  0  0
  6 32  1  0  0  0
 32 33  1  0  0  0
 33 34  1  0  0  0
 22 24  2  0  0  0
 22 25  1  0  0  0
 22  3  1  0  0  0
 23 22  2  0  0  0
 25 26  1  0  0  0
 27 26  1  0  0  0
 28 29  1  0  0  0
 28 27  1  0  0  0
 30 28  1  0  0  0
 30 31  1  0  0  0
 31 25  1  0  0  0
M  END
> <minimizedAffinity>
-9.19284

$$$$
/home/hjpark/lecture_drug1/0905_agent/pde5_harness/sample_run/structures/work/ligand_ref.pdb


 34 37  0  0  0  0  0  0  0  0999 V2000
    0.9504   65.9959   81.9757 C   0  0  0  0  0  0  0  0  0  0  0  0
    1.4818   67.2279   82.5223 C   0  0  0  0  0  0  0  0  0  0  0  0
    2.0744   68.2447   81.6562 C   0  0  0  0  0  0  0  0  0  0  0  0
    2.1054   67.9650   80.1852 C   0  0  0  0  0  0  0  0  0  0  0  0
    1.5762   66.7304   79.6152 C   0  0  0  0  0  0  0  0  0  0  0  0
    0.9878   65.7068   80.5001 C   0  0  0  0  0  0  0  0  0  0  0  0
   -1.9153   62.2449   83.6361 C   0  0  0  0  0  0  0  0  0  0  0  0
   -2.0184   61.7217   84.9317 N   0  0  0  0  0  0  0  0  0  0  0  0
   -1.1735   62.4064   85.7566 N   0  0  0  0  0  0  0  0  0  0  0  0
   -1.0427   62.1057   87.1850 C   0  0  0  0  0  0  0  0  0  0  0  0
   -0.5387   63.3544   84.9948 C   0  0  0  0  0  0  0  0  0  0  0  0
    0.4452   64.3603   85.2808 C   0  0  0  0  0  0  0  0  0  0  0  0
    0.9147   64.5324   86.3821 O   0  0  0  0  0  0  0  0  0  0  0  0
    0.8794   65.1805   84.2416 N   0  0  0  0  0  0  0  0  0  0  0  0
    0.4141   65.0814   82.9229 C   0  0  0  0  0  0  0  0  0  0  0  0
   -0.5422   64.1132   82.5948 N   0  0  0  0  0  0  0  0  0  0  0  0
   -0.9978   63.2685   83.6465 C   0  0  0  0  0  0  0  0  0  0  0  0
   -0.8849   64.0204   81.6766 H   0  0  0  0  0  0  0  0  0  0  0  0
   -2.6798   61.7525   82.4499 C   0  0  0  0  0  0  0  0  0  0  0  0
   -1.1016   61.0815   80.5657 C   0  0  0  0  0  0  0  0  0  0  0  0
   -1.7342   60.6501   81.8613 C   0  0  0  0  0  0  0  0  0  0  0  0
    2.6880   69.5971   82.2545 S   0  0  0  0  0  0  0  0  0  0  0  0
    2.3296   69.9033   83.4876 O   0  0  0  0  0  0  0  0  0  0  0  0
    3.9961   69.4993   82.2937 O   0  0  0  0  0  0  0  0  0  0  0  0
    2.1825   70.6477   81.1731 N   0  0  0  0  0  0  0  0  0  0  0  0
    3.0942   71.9263   81.0079 C   0  0  0  0  0  0  0  0  0  0  0  0
    2.8815   73.0807   82.0062 C   0  0  0  0  0  0  0  0  0  0  0  0
    1.4623   73.3459   82.4206 N   0  0  0  0  0  0  0  0  0  0  0  0
    1.0645   74.6902   81.8984 C   0  0  0  0  0  0  0  0  0  0  0  0
    0.3770   72.3264   82.0665 C   0  0  0  0  0  0  0  0  0  0  0  0
    0.7512   71.1433   81.0950 C   0  0  0  0  0  0  0  0  0  0  0  0
    0.4593   64.4427   80.0335 O   0  0  0  0  0  0  0  0  0  0  0  0
   -0.0426   64.1955   78.7048 C   0  0  0  0  0  0  0  0  0  0  0  0
    0.9086   63.1701   78.1107 C   0  0  0  0  0  0  0  0  0  0  0  0
 20 21  1  0  0  0
 21 19  1  0  0  0
 19  7  1  0  0  0
  7 17  1  0  0  0
  7  8  2  0  0  0
  8  9  1  0  0  0
  9 10  1  0  0  0
 11  9  1  0  0  0
 11 12  1  0  0  0
 12 13  2  0  0  0
 14 12  1  0  0  0
 15 14  2  0  0  0
 16 17  1  0  0  0
 16 15  1  0  0  0
 16 18  1  0  0  0
 17 11  2  0  0  0
  1 15  1  0  0  0
  1  6  1  0  0  0
  2  1  2  0  0  0
  3  2  1  0  0  0
  3  4  2  0  0  0
  4  5  1  0  0  0
  5  6  2  0  0  0
  6 32  1  0  0  0
 32 33  1  0  0  0
 33 34  1  0  0  0
 22 24  2  0  0  0
 22 25  1  0  0  0
 22  3  1  0  0  0
 23 22  2  0  0  0
 25 26  1  0  0  0
 27 26  1  0  0  0
 28 29  1  0  0  0
 28 27  1  0  0  0
 30 28  1  0  0  0
 30 31  1  0  0  0
 31 25  1  0  0  0
M  END
> <minimizedAffinity>
-8.99458

$$$$
/home/hjpark/lecture_drug1/0905_agent/pde5_harness/sample_run/structures/work/ligand_ref.pdb


 34 37  0  0  0  0  0  0  0  0999 V2000
    2.0360   66.5440   83.8783 C   0  0  0  0  0  0  0  0  0  0  0  0
    1.4199   67.3875   82.8743 C   0  0  0  0  0  0  0  0  0  0  0  0
    2.1369   68.5232   82.2986 C   0  0  0  0  0  0  0  0  0  0  0  0
    3.5313   68.7759   82.7828 C   0  0  0  0  0  0  0  0  0  0  0  0
    4.1693   67.9388   83.7934 C   0  0  0  0  0  0  0  0  0  0  0  0
    3.4329   66.7997   84.3742 C   0  0  0  0  0  0  0  0  0  0  0  0
   -0.9289   62.5213   83.6232 C   0  0  0  0  0  0  0  0  0  0  0  0
   -1.5247   61.7983   84.6650 N   0  0  0  0  0  0  0  0  0  0  0  0
   -1.1701   62.3611   85.8568 N   0  0  0  0  0  0  0  0  0  0  0  0
   -1.6301   61.8416   87.1476 C   0  0  0  0  0  0  0  0  0  0  0  0
   -0.3567   63.4300   85.5773 C   0  0  0  0  0  0  0  0  0  0  0  0
    0.3236   64.3977   86.3912 C   0  0  0  0  0  0  0  0  0  0  0  0
    0.2668   64.4034   87.5994 O   0  0  0  0  0  0  0  0  0  0  0  0
    1.0841   65.3802   85.7607 N   0  0  0  0  0  0  0  0  0  0  0  0
    1.2304   65.4810   84.3700 C   0  0  0  0  0  0  0  0  0  0  0  0
    0.5895   64.5577   83.5356 N   0  0  0  0  0  0  0  0  0  0  0  0
   -0.1935   63.5487   84.1648 C   0  0  0  0  0  0  0  0  0  0  0  0
    0.6765   64.6040   82.5561 H   0  0  0  0  0  0  0  0  0  0  0  0
   -1.0749   62.2069   82.1693 C   0  0  0  0  0  0  0  0  0  0  0  0
    0.6596   61.5844   80.4099 C   0  0  0  0  0  0  0  0  0  0  0  0
    0.2467   61.4281   81.8486 C   0  0  0  0  0  0  0  0  0  0  0  0
    1.4540   69.4763   81.2083 S   0  0  0  0  0  0  0  0  0  0  0  0
    2.2500   69.9467   80.2661 O   0  0  0  0  0  0  0  0  0  0  0  0
    0.5256   68.8059   80.5673 O   0  0  0  0  0  0  0  0  0  0  0  0
    0.8545   70.6096   82.1491 N   0  0  0  0  0  0  0  0  0  0  0  0
   -0.5915   71.1074   81.7561 C   0  0  0  0  0  0  0  0  0  0  0  0
   -0.6956   72.1795   80.6543 C   0  0  0  0  0  0  0  0  0  0  0  0
    0.3755   73.2325   80.6505 N   0  0  0  0  0  0  0  0  0  0  0  0
   -0.2584   74.5475   80.9779 C   0  0  0  0  0  0  0  0  0  0  0  0
    1.6166   73.0398   81.5251 C   0  0  0  0  0  0  0  0  0  0  0  0
    1.6254   71.8500   82.5584 C   0  0  0  0  0  0  0  0  0  0  0  0
    3.9699   65.9274   85.3967 O   0  0  0  0  0  0  0  0  0  0  0  0
    5.3107   65.3978   85.4121 C   0  0  0  0  0  0  0  0  0  0  0  0
    5.5964   65.0957   86.8737 C   0  0  0  0  0  0  0  0  0  0  0  0
 20 21  1  0  0  0
 21 19  1  0  0  0
 19  7  1  0  0  0
  7 17  1  0  0  0
  7  8  2  0  0  0
  8  9  1  0  0  0
  9 10  1  0  0  0
 11  9  1  0  0  0
 11 12  1  0  0  0
 12 13  2  0  0  0
 14 12  1  0  0  0
 15 14  2  0  0  0
 16 17  1  0  0  0
 16 15  1  0  0  0
 16 18  1  0  0  0
 17 11  2  0  0  0
  1 15  1  0  0  0
  1  6  1  0  0  0
  2  1  2  0  0  0
  3  2  1  0  0  0
  3  4  2  0  0  0
  4  5  1  0  0  0
  5  6  2  0  0  0
  6 32  1  0  0  0
 32 33  1  0  0  0
 33 34  1  0  0  0
 22 24  2  0  0  0
 22 25  1  0  0  0
 22  3  1  0  0  0
 23 22  2  0  0  0
 25 26  1  0  0  0
 27 26  1  0  0  0
 28 29  1  0  0  0
 28 27  1  0  0  0
 30 28  1  0  0  0
 30 31  1  0  0  0
 31 25  1  0  0  0
M  END
> <minimizedAffinity>
-8.98557

$$$$
/home/hjpark/lecture_drug1/0905_agent/pde5_harness/sample_run/structures/work/ligand_ref.pdb


 34 37  0  0  0  0  0  0  0  0999 V2000
    0.5112   65.2353   81.4723 C   0  0  0  0  0  0  0  0  0  0  0  0
    0.8136   66.5104   80.8544 C   0  0  0  0  0  0  0  0  0  0  0  0
    1.3678   67.6150   81.6341 C   0  0  0  0  0  0  0  0  0  0  0  0
    1.6147   67.3749   83.0916 C   0  0  0  0  0  0  0  0  0  0  0  0
    1.3164   66.0986   83.7328 C   0  0  0  0  0  0  0  0  0  0  0  0
    0.7489   64.9928   82.9376 C   0  0  0  0  0  0  0  0  0  0  0  0
   -2.7015   61.6990   79.9854 C   0  0  0  0  0  0  0  0  0  0  0  0
   -2.6921   60.9384   78.8088 N   0  0  0  0  0  0  0  0  0  0  0  0
   -1.6195   61.3068   78.0492 N   0  0  0  0  0  0  0  0  0  0  0  0
   -1.3202   60.6975   76.7505 C   0  0  0  0  0  0  0  0  0  0  0  0
   -0.9538   62.2918   78.7339 C   0  0  0  0  0  0  0  0  0  0  0  0
    0.2240   63.0664   78.4611 C   0  0  0  0  0  0  0  0  0  0  0  0
    0.8792   62.9413   77.4522 O   0  0  0  0  0  0  0  0  0  0  0  0
    0.6352   64.0061   79.4040 N   0  0  0  0  0  0  0  0  0  0  0  0
   -0.0371   64.2466   80.6105 C   0  0  0  0  0  0  0  0  0  0  0  0
   -1.1925   63.5190   80.9186 N   0  0  0  0  0  0  0  0  0  0  0  0
   -1.6245   62.5530   79.9660 C   0  0  0  0  0  0  0  0  0  0  0  0
   -1.6852   63.6687   81.7576 H   0  0  0  0  0  0  0  0  0  0  0  0
   -3.7265   61.5901   81.0677 C   0  0  0  0  0  0  0  0  0  0  0  0
   -2.9121   59.4198   82.1251 C   0  0  0  0  0  0  0  0  0  0  0  0
   -2.9262   60.9206   82.2370 C   0  0  0  0  0  0  0  0  0  0  0  0
    1.6799   69.0357   80.9650 S   0  0  0  0  0  0  0  0  0  0  0  0
    2.9450   69.2775   80.6755 O   0  0  0  0  0  0  0  0  0  0  0  0
    1.0449   69.1243   79.8200 O   0  0  0  0  0  0  0  0  0  0  0  0
    1.0899   70.0131   82.0720 N   0  0  0  0  0  0  0  0  0  0  0  0
   -0.2979   70.6727   81.7086 C   0  0  0  0  0  0  0  0  0  0  0  0
   -0.2717   71.9352   80.8255 C   0  0  0  0  0  0  0  0  0  0  0  0
    0.8567   72.8949   81.0743 N   0  0  0  0  0  0  0  0  0  0  0  0
    0.2809   74.1666   81.6124 C   0  0  0  0  0  0  0  0  0  0  0  0
    2.0282   72.4589   81.9575 C   0  0  0  0  0  0  0  0  0  0  0  0
    1.9044   71.1004   82.7463 C   0  0  0  0  0  0  0  0  0  0  0  0
    0.3983   63.7002   83.4863 O   0  0  0  0  0  0  0  0  0  0  0  0
   -0.0264   63.4650   84.8438 C   0  0  0  0  0  0  0  0  0  0  0  0
   -0.5857   62.0521   84.8407 C   0  0  0  0  0  0  0  0  0  0  0  0
 20 21  1  0  0  0
 21 19  1  0  0  0
 19  7  1  0  0  0
  7 17  1  0  0  0
  7  8  2  0  0  0
  8  9  1  0  0  0
  9 10  1  0  0  0
 11  9  1  0  0  0
 11 12  1  0  0  0
 12 13  2  0  0  0
 14 12  1  0  0  0
 15 14  2  0  0  0
 16 17  1  0  0  0
 16 15  1  0  0  0
 16 18  1  0  0  0
 17 11  2  0  0  0
  1 15  1  0  0  0
  1  6  1  0  0  0
  2  1  2  0  0  0
  3  2  1  0  0  0
  3  4  2  0  0  0
  4  5  1  0  0  0
  5  6  2  0  0  0
  6 32  1  0  0  0
 32 33  1  0  0  0
 33 34  1  0  0  0
 22 24  2  0  0  0
 22 25  1  0  0  0
 22  3  1  0  0  0
 23 22  2  0  0  0
 25 26  1  0  0  0
 27 26  1  0  0  0
 28 29  1  0  0  0
 28 27  1  0  0  0
 30 28  1  0  0  0
 30 31  1  0  0  0
 31 25  1  0  0  0
M  END
> <minimizedAffinity>
-8.92113

$$$$
/home/hjpark/lecture_drug1/0905_agent/pde5_harness/sample_run/structures/work/ligand_ref.pdb


 34 37  0  0  0  0  0  0  0  0999 V2000
    0.4708   64.5283   84.5741 C   0  0  0  0  0  0  0  0  0  0  0  0
   -0.0783   64.2385   83.2651 C   0  0  0  0  0  0  0  0  0  0  0  0
   -1.2407   63.3668   83.1099 C   0  0  0  0  0  0  0  0  0  0  0  0
   -1.8425   62.7912   84.3546 C   0  0  0  0  0  0  0  0  0  0  0  0
   -1.3041   63.0703   85.6818 C   0  0  0  0  0  0  0  0  0  0  0  0
   -0.1247   63.9451   85.8262 C   0  0  0  0  0  0  0  0  0  0  0  0
    3.2123   68.5697   83.4832 C   0  0  0  0  0  0  0  0  0  0  0  0
    4.5257   68.8730   83.8655 N   0  0  0  0  0  0  0  0  0  0  0  0
    5.0101   67.8573   84.6380 N   0  0  0  0  0  0  0  0  0  0  0  0
    6.3633   67.8643   85.2006 C   0  0  0  0  0  0  0  0  0  0  0  0
    4.0161   66.9180   84.7473 C   0  0  0  0  0  0  0  0  0  0  0  0
    3.9174   65.6522   85.4178 C   0  0  0  0  0  0  0  0  0  0  0  0
    4.8191   65.1759   86.0683 O   0  0  0  0  0  0  0  0  0  0  0  0
    2.7275   64.9350   85.3131 N   0  0  0  0  0  0  0  0  0  0  0  0
    1.6106   65.3779   84.5908 C   0  0  0  0  0  0  0  0  0  0  0  0
    1.6578   66.6077   83.9240 N   0  0  0  0  0  0  0  0  0  0  0  0
    2.8680   67.3517   84.0195 C   0  0  0  0  0  0  0  0  0  0  0  0
    0.8876   66.9437   83.4111 H   0  0  0  0  0  0  0  0  0  0  0  0
    2.3428   69.4431   82.6375 C   0  0  0  0  0  0  0  0  0  0  0  0
    2.6802   69.9379   80.1611 C   0  0  0  0  0  0  0  0  0  0  0  0
    2.5557   68.8563   81.2001 C   0  0  0  0  0  0  0  0  0  0  0  0
   -1.8376   63.0199   81.6653 S   0  0  0  0  0  0  0  0  0  0  0  0
   -3.1476   63.1218   81.5369 O   0  0  0  0  0  0  0  0  0  0  0  0
   -1.3422   63.8527   80.7803 O   0  0  0  0  0  0  0  0  0  0  0  0
   -1.3009   61.5346   81.4791 N   0  0  0  0  0  0  0  0  0  0  0  0
   -0.1511   61.3697   80.4095 C   0  0  0  0  0  0  0  0  0  0  0  0
   -0.5718   61.2406   78.9328 C   0  0  0  0  0  0  0  0  0  0  0  0
   -1.8228   60.4532   78.6661 N   0  0  0  0  0  0  0  0  0  0  0  0
   -1.4471   59.2169   77.9120 C   0  0  0  0  0  0  0  0  0  0  0  0
   -2.7306   60.0723   79.8380 C   0  0  0  0  0  0  0  0  0  0  0  0
   -2.2102   60.3337   81.3023 C   0  0  0  0  0  0  0  0  0  0  0  0
    0.4957   64.2619   87.0949 O   0  0  0  0  0  0  0  0  0  0  0  0
    0.9986   63.2917   88.0353 C   0  0  0  0  0  0  0  0  0  0  0  0
   -0.1343   63.0821   89.0261 C   0  0  0  0  0  0  0  0  0  0  0  0
 20 21  1  0  0  0
 21 19  1  0  0  0
 19  7  1  0  0  0
  7 17  1  0  0  0
  7  8  2  0  0  0
  8  9  1  0  0  0
  9 10  1  0  0  0
 11  9  1  0  0  0
 11 12  1  0  0  0
 12 13  2  0  0  0
 14 12  1  0  0  0
 15 14  2  0  0  0
 16 17  1  0  0  0
 16 15  1  0  0  0
 16 18  1  0  0  0
 17 11  2  0  0  0
  1 15  1  0  0  0
  1  6  1  0  0  0
  2  1  2  0  0  0
  3  2  1  0  0  0
  3  4  2  0  0  0
  4  5  1  0  0  0
  5  6  2  0  0  0
  6 32  1  0  0  0
 32 33  1  0  0  0
 33 34  1  0  0  0
 22 24  2  0  0  0
 22 25  1  0  0  0
 22  3  1  0  0  0
 23 22  2  0  0  0
 25 26  1  0  0  0
 27 26  1  0  0  0
 28 29  1  0  0  0
 28 27  1  0  0  0
 30 28  1  0  0  0
 30 31  1  0  0  0
 31 25  1  0  0  0
M  END
> <minimizedAffinity>
-8.89459

$$$$
/home/hjpark/lecture_drug1/0905_agent/pde5_harness/sample_run/structures/work/ligand_ref.pdb


 34 37  0  0  0  0  0  0  0  0999 V2000
    0.4657   64.7289   82.5810 C   0  0  0  0  0  0  0  0  0  0  0  0
    1.2072   65.9626   82.4163 C   0  0  0  0  0  0  0  0  0  0  0  0
    1.8008   66.6460   83.5635 C   0  0  0  0  0  0  0  0  0  0  0  0
    1.6168   66.0188   84.9109 C   0  0  0  0  0  0  0  0  0  0  0  0
    0.8731   64.7774   85.0980 C   0  0  0  0  0  0  0  0  0  0  0  0
    0.2706   64.1004   83.9335 C   0  0  0  0  0  0  0  0  0  0  0  0
   -2.6893   62.0346   79.7838 C   0  0  0  0  0  0  0  0  0  0  0  0
   -2.6828   61.8293   78.3978 N   0  0  0  0  0  0  0  0  0  0  0  0
   -1.6324   62.5091   77.8522 N   0  0  0  0  0  0  0  0  0  0  0  0
   -1.3416   62.5002   76.4159 C   0  0  0  0  0  0  0  0  0  0  0  0
   -0.9779   63.1412   78.8791 C   0  0  0  0  0  0  0  0  0  0  0  0
    0.1766   63.9923   78.9440 C   0  0  0  0  0  0  0  0  0  0  0  0
    0.8170   64.3143   77.9697 O   0  0  0  0  0  0  0  0  0  0  0  0
    0.5822   64.4692   80.1887 N   0  0  0  0  0  0  0  0  0  0  0  0
   -0.0744   64.1700   81.3907 C   0  0  0  0  0  0  0  0  0  0  0  0
   -1.2071   63.3477   81.3772 N   0  0  0  0  0  0  0  0  0  0  0  0
   -1.6330   62.8503   80.1129 C   0  0  0  0  0  0  0  0  0  0  0  0
   -1.6885   63.1230   82.2060 H   0  0  0  0  0  0  0  0  0  0  0  0
   -3.6926   61.4589   80.7303 C   0  0  0  0  0  0  0  0  0  0  0  0
   -2.8717   59.6752   82.3539 C   0  0  0  0  0  0  0  0  0  0  0  0
   -3.1890   59.9866   80.9160 C   0  0  0  0  0  0  0  0  0  0  0  0
    2.5989   68.0236   83.3939 S   0  0  0  0  0  0  0  0  0  0  0  0
    2.4659   68.8978   84.3740 O   0  0  0  0  0  0  0  0  0  0  0  0
    3.8857   67.7740   83.3313 O   0  0  0  0  0  0  0  0  0  0  0  0
    2.0041   68.5344   82.0103 N   0  0  0  0  0  0  0  0  0  0  0  0
    3.0434   69.2493   81.0605 C   0  0  0  0  0  0  0  0  0  0  0  0
    3.3252   70.7424   81.3165 C   0  0  0  0  0  0  0  0  0  0  0  0
    2.1484   71.5770   81.7346 N   0  0  0  0  0  0  0  0  0  0  0  0
    1.8635   72.5642   80.6471 C   0  0  0  0  0  0  0  0  0  0  0  0
    0.8456   70.8832   82.1393 C   0  0  0  0  0  0  0  0  0  0  0  0
    0.7187   69.3313   81.8967 C   0  0  0  0  0  0  0  0  0  0  0  0
   -0.5034   62.8804   84.0197 O   0  0  0  0  0  0  0  0  0  0  0  0
   -1.0934   62.3582   85.2270 C   0  0  0  0  0  0  0  0  0  0  0  0
   -2.5901   62.3578   84.9638 C   0  0  0  0  0  0  0  0  0  0  0  0
 20 21  1  0  0  0
 21 19  1  0  0  0
 19  7  1  0  0  0
  7 17  1  0  0  0
  7  8  2  0  0  0
  8  9  1  0  0  0
  9 10  1  0  0  0
 11  9  1  0  0  0
 11 12  1  0  0  0
 12 13  2  0  0  0
 14 12  1  0  0  0
 15 14  2  0  0  0
 16 17  1  0  0  0
 16 15  1  0  0  0
 16 18  1  0  0  0
 17 11  2  0  0  0
  1 15  1  0  0  0
  1  6  1  0  0  0
  2  1  2  0  0  0
  3  2  1  0  0  0
  3  4  2  0  0  0
  4  5  1  0  0  0
  5  6  2  0  0  0
  6 32  1  0  0  0
 32 33  1  0  0  0
 33 34  1  0  0  0
 22 24  2  0  0  0
 22 25  1  0  0  0
 22  3  1  0  0  0
 23 22  2  0  0  0
 25 26  1  0  0  0
 27 26  1  0  0  0
 28 29  1  0  0  0
 28 27  1  0  0  0
 30 28  1  0  0  0
 30 31  1  0  0  0
 31 25  1  0  0  0
M  END
> <minimizedAffinity>
-8.75003

$$$$
/home/hjpark/lecture_drug1/0905_agent/pde5_harness/sample_run/structures/work/ligand_ref.pdb


 34 37  0  0  0  0  0  0  0  0999 V2000
    0.0780   63.3194   84.0521 C   0  0  0  0  0  0  0  0  0  0  0  0
    0.9441   64.3896   83.6009 C   0  0  0  0  0  0  0  0  0  0  0  0
    1.5979   65.2844   84.5533 C   0  0  0  0  0  0  0  0  0  0  0  0
    1.3417   65.0480   86.0098 C   0  0  0  0  0  0  0  0  0  0  0  0
    0.4725   63.9764   86.4844 C   0  0  0  0  0  0  0  0  0  0  0  0
   -0.1895   63.0841   85.5134 C   0  0  0  0  0  0  0  0  0  0  0  0
   -0.5828   61.5382   79.4229 C   0  0  0  0  0  0  0  0  0  0  0  0
   -1.5177   60.6006   78.9647 N   0  0  0  0  0  0  0  0  0  0  0  0
   -2.2883   60.1911   80.0142 N   0  0  0  0  0  0  0  0  0  0  0  0
   -3.3672   59.2097   79.8709 C   0  0  0  0  0  0  0  0  0  0  0  0
   -1.8487   60.8596   81.1286 C   0  0  0  0  0  0  0  0  0  0  0  0
   -2.2474   60.8573   82.5079 C   0  0  0  0  0  0  0  0  0  0  0  0
   -3.1469   60.1710   82.9355 O   0  0  0  0  0  0  0  0  0  0  0  0
   -1.5686   61.6869   83.3979 N   0  0  0  0  0  0  0  0  0  0  0  0
   -0.5095   62.5277   83.0279 C   0  0  0  0  0  0  0  0  0  0  0  0
   -0.0825   62.5612   81.6952 N   0  0  0  0  0  0  0  0  0  0  0  0
   -0.7679   61.7206   80.7728 C   0  0  0  0  0  0  0  0  0  0  0  0
    0.6597   63.1408   81.4082 H   0  0  0  0  0  0  0  0  0  0  0  0
    0.4432   62.2121   78.5703 C   0  0  0  0  0  0  0  0  0  0  0  0
   -0.6111   63.7935   76.8735 C   0  0  0  0  0  0  0  0  0  0  0  0
   -0.1937   63.6200   78.3089 C   0  0  0  0  0  0  0  0  0  0  0  0
    2.5352   66.4861   84.0623 S   0  0  0  0  0  0  0  0  0  0  0  0
    3.1236   66.3244   82.8917 O   0  0  0  0  0  0  0  0  0  0  0  0
    1.8131   67.5743   83.9340 O   0  0  0  0  0  0  0  0  0  0  0  0
    3.5600   66.5683   85.2755 N   0  0  0  0  0  0  0  0  0  0  0  0
    4.4309   67.8845   85.3255 C   0  0  0  0  0  0  0  0  0  0  0  0
    5.6984   67.9278   84.4503 C   0  0  0  0  0  0  0  0  0  0  0  0
    6.4701   66.6441   84.3371 N   0  0  0  0  0  0  0  0  0  0  0  0
    7.7989   66.8358   84.9970 C   0  0  0  0  0  0  0  0  0  0  0  0
    5.8387   65.3450   84.8433 C   0  0  0  0  0  0  0  0  0  0  0  0
    4.4935   65.4361   85.6590 C   0  0  0  0  0  0  0  0  0  0  0  0
   -1.0860   62.0100   85.8841 O   0  0  0  0  0  0  0  0  0  0  0  0
   -1.6174   61.7949   87.2069 C   0  0  0  0  0  0  0  0  0  0  0  0
   -2.7808   62.7655   87.3248 C   0  0  0  0  0  0  0  0  0  0  0  0
 20 21  1  0  0  0
 21 19  1  0  0  0
 19  7  1  0  0  0
  7 17  1  0  0  0
  7  8  2  0  0  0
  8  9  1  0  0  0
  9 10  1  0  0  0
 11  9  1  0  0  0
 11 12  1  0  0  0
 12 13  2  0  0  0
 14 12  1  0  0  0
 15 14  2  0  0  0
 16 17  1  0  0  0
 16 15  1  0  0  0
 16 18  1  0  0  0
 17 11  2  0  0  0
  1 15  1  0  0  0
  1  6  1  0  0  0
  2  1  2  0  0  0
  3  2  1  0  0  0
  3  4  2  0  0  0
  4  5  1  0  0  0
  5  6  2  0  0  0
  6 32  1  0  0  0
 32 33  1  0  0  0
 33 34  1  0  0  0
 22 24  2  0  0  0
 22 25  1  0  0  0
 22  3  1  0  0  0
 23 22  2  0  0  0
 25 26  1  0  0  0
 27 26  1  0  0  0
 28 29  1  0  0  0
 28 27  1  0  0  0
 30 28  1  0  0  0
 30 31  1  0  0  0
 31 25  1  0  0  0
M  END
> <minimizedAffinity>
-8.65335

$$$$
/home/hjpark/lecture_drug1/0905_agent/pde5_harness/sample_run/structures/work/ligand_ref.pdb


 34 37  0  0  0  0  0  0  0  0999 V2000
    0.5239   65.3342   82.4147 C   0  0  0  0  0  0  0  0  0  0  0  0
    0.6446   66.4673   81.5199 C   0  0  0  0  0  0  0  0  0  0  0  0
    1.2914   67.7046   81.9511 C   0  0  0  0  0  0  0  0  0  0  0  0
    1.8272   67.7521   83.3488 C   0  0  0  0  0  0  0  0  0  0  0  0
    1.7151   66.6224   84.2655 C   0  0  0  0  0  0  0  0  0  0  0  0
    1.0523   65.3808   83.8222 C   0  0  0  0  0  0  0  0  0  0  0  0
   -0.6312   61.8640   78.9998 C   0  0  0  0  0  0  0  0  0  0  0  0
   -1.5479   60.8083   79.0915 N   0  0  0  0  0  0  0  0  0  0  0  0
   -2.1349   60.8345   80.3234 N   0  0  0  0  0  0  0  0  0  0  0  0
   -3.1475   59.8607   80.7406 C   0  0  0  0  0  0  0  0  0  0  0  0
   -1.5975   61.8942   81.0091 C   0  0  0  0  0  0  0  0  0  0  0  0
   -1.8022   62.4299   82.3255 C   0  0  0  0  0  0  0  0  0  0  0  0
   -2.5812   61.9547   83.1194 O   0  0  0  0  0  0  0  0  0  0  0  0
   -1.0712   63.5527   82.7078 N   0  0  0  0  0  0  0  0  0  0  0  0
   -0.1382   64.1947   81.8816 C   0  0  0  0  0  0  0  0  0  0  0  0
    0.0986   63.7065   80.5912 N   0  0  0  0  0  0  0  0  0  0  0  0
   -0.6425   62.5608   80.1847 C   0  0  0  0  0  0  0  0  0  0  0  0
    0.7493   64.1368   79.9908 H   0  0  0  0  0  0  0  0  0  0  0  0
    0.2155   62.1621   77.8047 C   0  0  0  0  0  0  0  0  0  0  0  0
   -0.5947   64.4319   76.9782 C   0  0  0  0  0  0  0  0  0  0  0  0
   -0.7697   62.9412   76.8676 C   0  0  0  0  0  0  0  0  0  0  0  0
    1.4054   68.9707   80.9777 S   0  0  0  0  0  0  0  0  0  0  0  0
    1.8070   68.7227   79.7448 O   0  0  0  0  0  0  0  0  0  0  0  0
    0.2229   69.5244   80.8466 O   0  0  0  0  0  0  0  0  0  0  0  0
    2.4207   69.8775   81.7996 N   0  0  0  0  0  0  0  0  0  0  0  0
    1.8956   71.3272   82.1400 C   0  0  0  0  0  0  0  0  0  0  0  0
    2.0477   72.4082   81.0525 C   0  0  0  0  0  0  0  0  0  0  0  0
    3.3039   72.3503   80.2312 N   0  0  0  0  0  0  0  0  0  0  0  0
    4.1173   73.5694   80.5314 C   0  0  0  0  0  0  0  0  0  0  0  0
    4.1995   71.1123   80.3208 C   0  0  0  0  0  0  0  0  0  0  0  0
    3.8829   70.0397   81.4310 C   0  0  0  0  0  0  0  0  0  0  0  0
    0.8715   64.2169   84.6634 O   0  0  0  0  0  0  0  0  0  0  0  0
    0.6049   64.2529   86.0797 C   0  0  0  0  0  0  0  0  0  0  0  0
   -0.5287   63.2630   86.2907 C   0  0  0  0  0  0  0  0  0  0  0  0
 20 21  1  0  0  0
 21 19  1  0  0  0
 19  7  1  0  0  0
  7 17  1  0  0  0
  7  8  2  0  0  0
  8  9  1  0  0  0
  9 10  1  0  0  0
 11  9  1  0  0  0
 11 12  1  0  0  0
 12 13  2  0  0  0
 14 12  1  0  0  0
 15 14  2  0  0  0
 16 17  1  0  0  0
 16 15  1  0  0  0
 16 18  1  0  0  0
 17 11  2  0  0  0
  1 15  1  0  0  0
  1  6  1  0  0  0
  2  1  2  0  0  0
  3  2  1  0  0  0
  3  4  2  0  0  0
  4  5  1  0  0  0
  5  6  2  0  0  0
  6 32  1  0  0  0
 32 33  1  0  0  0
 33 34  1  0  0  0
 22 24  2  0  0  0
 22 25  1  0  0  0
 22  3  1  0  0  0
 23 22  2  0  0  0
 25 26  1  0  0  0
 27 26  1  0  0  0
 28 29  1  0  0  0
 28 27  1  0  0  0
 30 28  1  0  0  0
 30 31  1  0  0  0
 31 25  1  0  0  0
M  END
> <minimizedAffinity>
-8.64821

$$$$
/home/hjpark/lecture_drug1/0905_agent/pde5_harness/sample_run/structures/work/ligand_ref.pdb


 34 37  0  0  0  0  0  0  0  0999 V2000
   -0.4637   64.0271   82.9573 C   0  0  0  0  0  0  0  0  0  0  0  0
   -1.3509   63.4407   81.9735 C   0  0  0  0  0  0  0  0  0  0  0  0
   -2.1218   62.2363   82.2743 C   0  0  0  0  0  0  0  0  0  0  0  0
   -1.9622   61.6378   83.6377 C   0  0  0  0  0  0  0  0  0  0  0  0
   -1.0735   62.2125   84.6423 C   0  0  0  0  0  0  0  0  0  0  0  0
   -0.2933   63.4240   84.3247 C   0  0  0  0  0  0  0  0  0  0  0  0
    2.5997   67.9588   83.3997 C   0  0  0  0  0  0  0  0  0  0  0  0
    2.9409   68.9222   82.4414 N   0  0  0  0  0  0  0  0  0  0  0  0
    2.2916   68.6388   81.2747 N   0  0  0  0  0  0  0  0  0  0  0  0
    2.4322   69.4596   80.0688 C   0  0  0  0  0  0  0  0  0  0  0  0
    1.5459   67.5070   81.4873 C   0  0  0  0  0  0  0  0  0  0  0  0
    0.6669   66.7289   80.6605 C   0  0  0  0  0  0  0  0  0  0  0  0
    0.4325   67.0002   79.5053 O   0  0  0  0  0  0  0  0  0  0  0  0
    0.0511   65.6086   81.2144 N   0  0  0  0  0  0  0  0  0  0  0  0
    0.2409   65.1885   82.5384 C   0  0  0  0  0  0  0  0  0  0  0  0
    1.0920   65.9126   83.3814 N   0  0  0  0  0  0  0  0  0  0  0  0
    1.7272   67.0618   82.8308 C   0  0  0  0  0  0  0  0  0  0  0  0
    1.2448   65.6392   84.3147 H   0  0  0  0  0  0  0  0  0  0  0  0
    3.1159   67.9249   84.8020 C   0  0  0  0  0  0  0  0  0  0  0  0
    5.1209   66.3678   84.5857 C   0  0  0  0  0  0  0  0  0  0  0  0
    4.6649   67.8020   84.5982 C   0  0  0  0  0  0  0  0  0  0  0  0
   -3.0842   61.5667   81.1839 S   0  0  0  0  0  0  0  0  0  0  0  0
   -3.3499   60.2844   81.3512 O   0  0  0  0  0  0  0  0  0  0  0  0
   -4.2525   62.1637   81.2120 O   0  0  0  0  0  0  0  0  0  0  0  0
   -2.2700   61.8719   79.8525 N   0  0  0  0  0  0  0  0  0  0  0  0
   -3.1453   61.9653   78.5416 C   0  0  0  0  0  0  0  0  0  0  0  0
   -3.5068   60.6437   77.8366 C   0  0  0  0  0  0  0  0  0  0  0  0
   -2.4438   59.5825   77.8319 N   0  0  0  0  0  0  0  0  0  0  0  0
   -1.9990   59.3705   76.4194 C   0  0  0  0  0  0  0  0  0  0  0  0
   -1.2143   59.7517   78.7274 C   0  0  0  0  0  0  0  0  0  0  0  0
   -1.0060   61.1324   79.4579 C   0  0  0  0  0  0  0  0  0  0  0  0
    0.6305   64.0538   85.2438 O   0  0  0  0  0  0  0  0  0  0  0  0
    0.2787   64.5832   86.5378 C   0  0  0  0  0  0  0  0  0  0  0  0
    0.8341   63.5808   87.5358 C   0  0  0  0  0  0  0  0  0  0  0  0
 20 21  1  0  0  0
 21 19  1  0  0  0
 19  7  1  0  0  0
  7 17  1  0  0  0
  7  8  2  0  0  0
  8  9  1  0  0  0
  9 10  1  0  0  0
 11  9  1  0  0  0
 11 12  1  0  0  0
 12 13  2  0  0  0
 14 12  1  0  0  0
 15 14  2  0  0  0
 16 17  1  0  0  0
 16 15  1  0  0  0
 16 18  1  0  0  0
 17 11  2  0  0  0
  1 15  1  0  0  0
  1  6  1  0  0  0
  2  1  2  0  0  0
  3  2  1  0  0  0
  3  4  2  0  0  0
  4  5  1  0  0  0
  5  6  2  0  0  0
  6 32  1  0  0  0
 32 33  1  0  0  0
 33 34  1  0  0  0
 22 24  2  0  0  0
 22 25  1  0  0  0
 22  3  1  0  0  0
 23 22  2  0  0  0
 25 26  1  0  0  0
 27 26  1  0  0  0
 28 29  1  0  0  0
 28 27  1  0  0  0
 30 28  1  0  0  0
 30 31  1  0  0  0
 31 25  1  0  0  0
M  END
> <minimizedAffinity>
-8.62619

$$$$
/home/hjpark/lecture_drug1/0905_agent/pde5_harness/sample_run/structures/work/ligand_ref.pdb


 34 37  0  0  0  0  0  0  0  0999 V2000
    1.0033   65.5330   83.1037 C   0  0  0  0  0  0  0  0  0  0  0  0
    0.5834   64.9679   81.8374 C   0  0  0  0  0  0  0  0  0  0  0  0
    0.8575   65.6535   80.5764 C   0  0  0  0  0  0  0  0  0  0  0  0
    1.5922   66.9566   80.6453 C   0  0  0  0  0  0  0  0  0  0  0  0
    2.0230   67.5428   81.9101 C   0  0  0  0  0  0  0  0  0  0  0  0
    1.7333   66.8460   83.1782 C   0  0  0  0  0  0  0  0  0  0  0  0
   -1.7310   62.4580   85.9508 C   0  0  0  0  0  0  0  0  0  0  0  0
   -1.4894   62.0216   87.2601 N   0  0  0  0  0  0  0  0  0  0  0  0
   -0.3230   62.5735   87.7051 N   0  0  0  0  0  0  0  0  0  0  0  0
    0.2156   62.3181   89.0438 C   0  0  0  0  0  0  0  0  0  0  0  0
    0.1732   63.3520   86.6903 C   0  0  0  0  0  0  0  0  0  0  0  0
    1.3454   64.1693   86.5500 C   0  0  0  0  0  0  0  0  0  0  0  0
    2.1694   64.3003   87.4257 O   0  0  0  0  0  0  0  0  0  0  0  0
    1.5437   64.8472   85.3491 N   0  0  0  0  0  0  0  0  0  0  0  0
    0.6646   64.7774   84.2592 C   0  0  0  0  0  0  0  0  0  0  0  0
   -0.4894   63.9901   84.3473 N   0  0  0  0  0  0  0  0  0  0  0  0
   -0.7076   63.2927   85.5693 C   0  0  0  0  0  0  0  0  0  0  0  0
   -1.1228   63.9216   83.5968 H   0  0  0  0  0  0  0  0  0  0  0  0
   -2.9092   62.0636   85.1200 C   0  0  0  0  0  0  0  0  0  0  0  0
   -3.0656   60.6472   83.0079 C   0  0  0  0  0  0  0  0  0  0  0  0
   -2.2531   61.6727   83.7516 C   0  0  0  0  0  0  0  0  0  0  0  0
    0.3736   65.0493   79.1749 S   0  0  0  0  0  0  0  0  0  0  0  0
   -0.6794   65.6253   78.6251 O   0  0  0  0  0  0  0  0  0  0  0  0
    1.3348   65.1809   78.2912 O   0  0  0  0  0  0  0  0  0  0  0  0
    0.1192   63.5341   79.5850 N   0  0  0  0  0  0  0  0  0  0  0  0
    0.8283   62.4653   78.6641 C   0  0  0  0  0  0  0  0  0  0  0  0
    0.1137   62.0724   77.3567 C   0  0  0  0  0  0  0  0  0  0  0  0
   -1.3841   61.9799   77.4218 N   0  0  0  0  0  0  0  0  0  0  0  0
   -1.7754   60.5513   77.2121 C   0  0  0  0  0  0  0  0  0  0  0  0
   -2.1143   62.5273   78.6505 C   0  0  0  0  0  0  0  0  0  0  0  0
   -1.2549   62.9715   79.8945 C   0  0  0  0  0  0  0  0  0  0  0  0
    2.0979   67.3570   84.4823 O   0  0  0  0  0  0  0  0  0  0  0  0
    3.3059   68.0865   84.7771 C   0  0  0  0  0  0  0  0  0  0  0  0
    4.4166   67.0519   84.7047 C   0  0  0  0  0  0  0  0  0  0  0  0
 20 21  1  0  0  0
 21 19  1  0  0  0
 19  7  1  0  0  0
  7 17  1  0  0  0
  7  8  2  0  0  0
  8  9  1  0  0  0
  9 10  1  0  0  0
 11  9  1  0  0  0
 11 12  1  0  0  0
 12 13  2  0  0  0
 14 12  1  0  0  0
 15 14  2  0  0  0
 16 17  1  0  0  0
 16 15  1  0  0  0
 16 18  1  0  0  0
 17 11  2  0  0  0
  1 15  1  0  0  0
  1  6  1  0  0  0
  2  1  2  0  0  0
  3  2  1  0  0  0
  3  4  2  0  0  0
  4  5  1  0  0  0
  5  6  2  0  0  0
  6 32  1  0  0  0
 32 33  1  0  0  0
 33 34  1  0  0  0
 22 24  2  0  0  0
 22 25  1  0  0  0
 22  3  1  0  0  0
 23 22  2  0  0  0
 25 26  1  0  0  0
 27 26  1  0  0  0
 28 29  1  0  0  0
 28 27  1  0  0  0
 30 28  1  0  0  0
 30 31  1  0  0  0
 31 25  1  0  0  0
M  END
> <minimizedAffinity>
-8.57075

$$$$
/home/hjpark/lecture_drug1/0905_agent/pde5_harness/sample_run/structures/work/ligand_ref.pdb


 34 37  0  0  0  0  0  0  0  0999 V2000
    0.5178   65.4844   81.7569 C   0  0  0  0  0  0  0  0  0  0  0  0
    1.1852   66.0565   82.9086 C   0  0  0  0  0  0  0  0  0  0  0  0
    2.0081   67.2577   82.7852 C   0  0  0  0  0  0  0  0  0  0  0  0
    2.1289   67.8744   81.4258 C   0  0  0  0  0  0  0  0  0  0  0  0
    1.4655   67.3134   80.2535 C   0  0  0  0  0  0  0  0  0  0  0  0
    0.6439   66.0951   80.3881 C   0  0  0  0  0  0  0  0  0  0  0  0
   -2.2116   62.2473   84.4233 C   0  0  0  0  0  0  0  0  0  0  0  0
   -2.7681   61.0252   84.0235 N   0  0  0  0  0  0  0  0  0  0  0  0
   -2.4587   60.8028   82.7129 N   0  0  0  0  0  0  0  0  0  0  0  0
   -2.8912   59.6050   81.9877 C   0  0  0  0  0  0  0  0  0  0  0  0
   -1.7142   61.8718   82.2823 C   0  0  0  0  0  0  0  0  0  0  0  0
   -1.1069   62.2160   81.0277 C   0  0  0  0  0  0  0  0  0  0  0  0
   -1.1793   61.5167   80.0435 O   0  0  0  0  0  0  0  0  0  0  0  0
   -0.3970   63.4115   80.9381 N   0  0  0  0  0  0  0  0  0  0  0  0
   -0.2409   64.3080   82.0047 C   0  0  0  0  0  0  0  0  0  0  0  0
   -0.8185   64.0175   83.2462 N   0  0  0  0  0  0  0  0  0  0  0  0
   -1.5454   62.7981   83.3545 C   0  0  0  0  0  0  0  0  0  0  0  0
   -0.7261   64.6299   84.0114 H   0  0  0  0  0  0  0  0  0  0  0  0
   -2.3389   62.8407   85.7892 C   0  0  0  0  0  0  0  0  0  0  0  0
   -0.1349   63.6471   86.7807 C   0  0  0  0  0  0  0  0  0  0  0  0
   -0.9829   62.4440   86.4672 C   0  0  0  0  0  0  0  0  0  0  0  0
    2.7706   67.8811   84.0475 S   0  0  0  0  0  0  0  0  0  0  0  0
    2.9529   69.1885   84.0301 O   0  0  0  0  0  0  0  0  0  0  0  0
    2.0722   67.6484   85.1339 O   0  0  0  0  0  0  0  0  0  0  0  0
    4.1291   67.0559   84.0018 N   0  0  0  0  0  0  0  0  0  0  0  0
    4.0476   65.6019   84.6121 C   0  0  0  0  0  0  0  0  0  0  0  0
    4.1941   65.4667   86.1401 C   0  0  0  0  0  0  0  0  0  0  0  0
    5.1806   66.3904   86.7958 N   0  0  0  0  0  0  0  0  0  0  0  0
    6.3016   65.5660   87.3451 C   0  0  0  0  0  0  0  0  0  0  0  0
    5.7598   67.5576   85.9929 C   0  0  0  0  0  0  0  0  0  0  0  0
    5.4649   67.6202   84.4462 C   0  0  0  0  0  0  0  0  0  0  0  0
   -0.0330   65.4510   79.2828 O   0  0  0  0  0  0  0  0  0  0  0  0
    0.6085   64.9812   78.0802 C   0  0  0  0  0  0  0  0  0  0  0  0
   -0.4909   64.2845   77.2957 C   0  0  0  0  0  0  0  0  0  0  0  0
 20 21  1  0  0  0
 21 19  1  0  0  0
 19  7  1  0  0  0
  7 17  1  0  0  0
  7  8  2  0  0  0
  8  9  1  0  0  0
  9 10  1  0  0  0
 11  9  1  0  0  0
 11 12  1  0  0  0
 12 13  2  0  0  0
 14 12  1  0  0  0
 15 14  2  0  0  0
 16 17  1  0  0  0
 16 15  1  0  0  0
 16 18  1  0  0  0
 17 11  2  0  0  0
  1 15  1  0  0  0
  1  6  1  0  0  0
  2  1  2  0  0  0
  3  2  1  0  0  0
  3  4  2  0  0  0
  4  5  1  0  0  0
  5  6  2  0  0  0
  6 32  1  0  0  0
 32 33  1  0  0  0
 33 34  1  0  0  0
 22 24  2  0  0  0
 22 25  1  0  0  0
 22  3  1  0  0  0
 23 22  2  0  0  0
 25 26  1  0  0  0
 27 26  1  0  0  0
 28 29  1  0  0  0
 28 27  1  0  0  0
 30 28  1  0  0  0
 30 31  1  0  0  0
 31 25  1  0  0  0
M  END
> <minimizedAffinity>
-8.56040

$$$$
/home/hjpark/lecture_drug1/0905_agent/pde5_harness/sample_run/structures/work/ligand_ref.pdb


 34 37  0  0  0  0  0  0  0  0999 V2000
    1.2412   66.2246   81.9081 C   0  0  0  0  0  0  0  0  0  0  0  0
    1.7049   67.4309   81.2532 C   0  0  0  0  0  0  0  0  0  0  0  0
    2.3275   68.5118   82.0143 C   0  0  0  0  0  0  0  0  0  0  0  0
    2.4711   68.3207   83.4927 C   0  0  0  0  0  0  0  0  0  0  0  0
    2.0101   67.1139   84.1711 C   0  0  0  0  0  0  0  0  0  0  0  0
    1.3750   66.0323   83.3939 C   0  0  0  0  0  0  0  0  0  0  0  0
   -0.7628   61.8111   80.6656 C   0  0  0  0  0  0  0  0  0  0  0  0
   -1.2515   61.3835   79.4241 N   0  0  0  0  0  0  0  0  0  0  0  0
   -1.1110   62.3948   78.5183 N   0  0  0  0  0  0  0  0  0  0  0  0
   -1.5260   62.2694   77.1184 C   0  0  0  0  0  0  0  0  0  0  0  0
   -0.5402   63.4550   79.1757 C   0  0  0  0  0  0  0  0  0  0  0  0
   -0.1521   64.7779   78.7744 C   0  0  0  0  0  0  0  0  0  0  0  0
   -0.2963   65.1970   77.6490 O   0  0  0  0  0  0  0  0  0  0  0  0
    0.4210   65.6201   79.7250 N   0  0  0  0  0  0  0  0  0  0  0  0
    0.6406   65.2542   81.0604 C   0  0  0  0  0  0  0  0  0  0  0  0
    0.2748   63.9764   81.4994 N   0  0  0  0  0  0  0  0  0  0  0  0
   -0.3101   63.1029   80.5392 C   0  0  0  0  0  0  0  0  0  0  0  0
    0.4159   63.6938   82.4318 H   0  0  0  0  0  0  0  0  0  0  0  0
   -0.7513   60.9863   81.9120 C   0  0  0  0  0  0  0  0  0  0  0  0
   -3.1009   60.2608   82.5787 C   0  0  0  0  0  0  0  0  0  0  0  0
   -2.1001   61.3845   82.6036 C   0  0  0  0  0  0  0  0  0  0  0  0
    2.8185   69.8593   81.3025 S   0  0  0  0  0  0  0  0  0  0  0  0
    4.1207   69.9816   81.1230 O   0  0  0  0  0  0  0  0  0  0  0  0
    2.3002   69.9273   80.0988 O   0  0  0  0  0  0  0  0  0  0  0  0
    2.2152   70.9468   82.2936 N   0  0  0  0  0  0  0  0  0  0  0  0
    0.7142   71.3472   82.0112 C   0  0  0  0  0  0  0  0  0  0  0  0
    0.4580   72.4133   80.9285 C   0  0  0  0  0  0  0  0  0  0  0  0
    1.4531   73.5361   80.8550 N   0  0  0  0  0  0  0  0  0  0  0  0
    0.7584   74.8044   81.2382 C   0  0  0  0  0  0  0  0  0  0  0  0
    2.7652   73.4246   81.6351 C   0  0  0  0  0  0  0  0  0  0  0  0
    2.9293   72.2349   82.6554 C   0  0  0  0  0  0  0  0  0  0  0  0
    0.8651   64.8100   83.9777 O   0  0  0  0  0  0  0  0  0  0  0  0
    0.5820   64.6171   85.3781 C   0  0  0  0  0  0  0  0  0  0  0  0
   -0.3805   63.4421   85.4254 C   0  0  0  0  0  0  0  0  0  0  0  0
 20 21  1  0  0  0
 21 19  1  0  0  0
 19  7  1  0  0  0
  7 17  1  0  0  0
  7  8  2  0  0  0
  8  9  1  0  0  0
  9 10  1  0  0  0
 11  9  1  0  0  0
 11 12  1  0  0  0
 12 13  2  0  0  0
 14 12  1  0  0  0
 15 14  2  0  0  0
 16 17  1  0  0  0
 16 15  1  0  0  0
 16 18  1  0  0  0
 17 11  2  0  0  0
  1 15  1  0  0  0
  1  6  1  0  0  0
  2  1  2  0  0  0
  3  2  1  0  0  0
  3  4  2  0  0  0
  4  5  1  0  0  0
  5  6  2  0  0  0
  6 32  1  0  0  0
 32 33  1  0  0  0
 33 34  1  0  0  0
 22 24  2  0  0  0
 22 25  1  0  0  0
 22  3  1  0  0  0
 23 22  2  0  0  0
 25 26  1  0  0  0
 27 26  1  0  0  0
 28 29  1  0  0  0
 28 27  1  0  0  0
 30 28  1  0  0  0
 30 31  1  0  0  0
 31 25  1  0  0  0
M  END
> <minimizedAffinity>
-8.55710

$$$$
/home/hjpark/lecture_drug1/0905_agent/pde5_harness/sample_run/structures/work/ligand_ref.pdb


 34 37  0  0  0  0  0  0  0  0999 V2000
    0.8332   65.5028   82.8148 C   0  0  0  0  0  0  0  0  0  0  0  0
    1.6740   66.3855   83.5976 C   0  0  0  0  0  0  0  0  0  0  0  0
    2.5519   67.3601   82.9535 C   0  0  0  0  0  0  0  0  0  0  0  0
    2.5433   67.4130   81.4568 C   0  0  0  0  0  0  0  0  0  0  0  0
    1.7045   66.5324   80.6505 C   0  0  0  0  0  0  0  0  0  0  0  0
    0.8283   65.5461   81.3113 C   0  0  0  0  0  0  0  0  0  0  0  0
   -2.5690   61.9081   83.5505 C   0  0  0  0  0  0  0  0  0  0  0  0
   -3.0016   61.3374   84.7547 N   0  0  0  0  0  0  0  0  0  0  0  0
   -2.3290   61.9196   85.7900 N   0  0  0  0  0  0  0  0  0  0  0  0
   -2.5512   61.5472   87.1898 C   0  0  0  0  0  0  0  0  0  0  0  0
   -1.4768   62.8499   85.2511 C   0  0  0  0  0  0  0  0  0  0  0  0
   -0.5243   63.7654   85.8135 C   0  0  0  0  0  0  0  0  0  0  0  0
   -0.3123   63.8530   87.0011 O   0  0  0  0  0  0  0  0  0  0  0  0
    0.1891   64.5958   84.9518 N   0  0  0  0  0  0  0  0  0  0  0  0
    0.0360   64.5902   83.5582 C   0  0  0  0  0  0  0  0  0  0  0  0
   -0.8775   63.7121   82.9635 N   0  0  0  0  0  0  0  0  0  0  0  0
   -1.6162   62.8584   83.8310 C   0  0  0  0  0  0  0  0  0  0  0  0
   -1.0038   63.6859   81.9875 H   0  0  0  0  0  0  0  0  0  0  0  0
   -3.0681   61.5274   82.1940 C   0  0  0  0  0  0  0  0  0  0  0  0
   -3.1602   59.3823   80.8224 C   0  0  0  0  0  0  0  0  0  0  0  0
   -2.8722   59.9726   82.1764 C   0  0  0  0  0  0  0  0  0  0  0  0
    3.5039   68.3210   83.8100 S   0  0  0  0  0  0  0  0  0  0  0  0
    3.7747   69.4980   83.2769 O   0  0  0  0  0  0  0  0  0  0  0  0
    2.9279   68.5908   84.9579 O   0  0  0  0  0  0  0  0  0  0  0  0
    4.7852   67.3926   83.9688 N   0  0  0  0  0  0  0  0  0  0  0  0
    4.4831   65.9095   84.4186 C   0  0  0  0  0  0  0  0  0  0  0  0
    4.2972   65.6513   85.9263 C   0  0  0  0  0  0  0  0  0  0  0  0
    5.1824   66.4405   86.8481 N   0  0  0  0  0  0  0  0  0  0  0  0
    6.1073   65.4890   87.5389 C   0  0  0  0  0  0  0  0  0  0  0  0
    5.9917   67.6119   86.2865 C   0  0  0  0  0  0  0  0  0  0  0  0
    6.0321   67.8114   84.7239 C   0  0  0  0  0  0  0  0  0  0  0  0
   -0.0209   64.6150   80.5994 O   0  0  0  0  0  0  0  0  0  0  0  0
    0.3710   63.8624   79.4339 C   0  0  0  0  0  0  0  0  0  0  0  0
    0.3215   62.4079   79.8713 C   0  0  0  0  0  0  0  0  0  0  0  0
 20 21  1  0  0  0
 21 19  1  0  0  0
 19  7  1  0  0  0
  7 17  1  0  0  0
  7  8  2  0  0  0
  8  9  1  0  0  0
  9 10  1  0  0  0
 11  9  1  0  0  0
 11 12  1  0  0  0
 12 13  2  0  0  0
 14 12  1  0  0  0
 15 14  2  0  0  0
 16 17  1  0  0  0
 16 15  1  0  0  0
 16 18  1  0  0  0
 17 11  2  0  0  0
  1 15  1  0  0  0
  1  6  1  0  0  0
  2  1  2  0  0  0
  3  2  1  0  0  0
  3  4  2  0  0  0
  4  5  1  0  0  0
  5  6  2  0  0  0
  6 32  1  0  0  0
 32 33  1  0  0  0
 33 34  1  0  0  0
 22 24  2  0  0  0
 22 25  1  0  0  0
 22  3  1  0  0  0
 23 22  2  0  0  0
 25 26  1  0  0  0
 27 26  1  0  0  0
 28 29  1  0  0  0
 28 27  1  0  0  0
 30 28  1  0  0  0
 30 31  1  0  0  0
 31 25  1  0  0  0
M  END
> <minimizedAffinity>
-8.46493

$$$$
/home/hjpark/lecture_drug1/0905_agent/pde5_harness/sample_run/structures/work/ligand_ref.pdb


 34 37  0  0  0  0  0  0  0  0999 V2000
    0.0353   63.8840   84.0838 C   0  0  0  0  0  0  0  0  0  0  0  0
   -0.2162   63.1769   82.8445 C   0  0  0  0  0  0  0  0  0  0  0  0
   -1.1548   62.0582   82.7904 C   0  0  0  0  0  0  0  0  0  0  0  0
   -1.8477   61.6770   84.0621 C   0  0  0  0  0  0  0  0  0  0  0  0
   -1.6078   62.3758   85.3204 C   0  0  0  0  0  0  0  0  0  0  0  0
   -0.6514   63.4986   85.3653 C   0  0  0  0  0  0  0  0  0  0  0  0
    1.9589   68.2295   82.5170 C   0  0  0  0  0  0  0  0  0  0  0  0
    3.1664   68.8406   82.8801 N   0  0  0  0  0  0  0  0  0  0  0  0
    3.8088   68.0511   83.7895 N   0  0  0  0  0  0  0  0  0  0  0  0
    5.1063   68.4055   84.3714 C   0  0  0  0  0  0  0  0  0  0  0  0
    3.0190   66.9501   84.0041 C   0  0  0  0  0  0  0  0  0  0  0  0
    3.1454   65.7858   84.8348 C   0  0  0  0  0  0  0  0  0  0  0  0
    4.0938   65.5899   85.5595 O   0  0  0  0  0  0  0  0  0  0  0  0
    2.1292   64.8332   84.8041 N   0  0  0  0  0  0  0  0  0  0  0  0
    0.9800   64.9437   84.0088 C   0  0  0  0  0  0  0  0  0  0  0  0
    0.8102   66.0630   83.1854 N   0  0  0  0  0  0  0  0  0  0  0  0
    1.8414   67.0446   83.2038 C   0  0  0  0  0  0  0  0  0  0  0  0
    0.0124   66.1670   82.6182 H   0  0  0  0  0  0  0  0  0  0  0  0
    0.9714   68.7929   81.5468 C   0  0  0  0  0  0  0  0  0  0  0  0
    0.3403   71.2451   81.8289 C   0  0  0  0  0  0  0  0  0  0  0  0
    1.4258   70.2871   81.4180 C   0  0  0  0  0  0  0  0  0  0  0  0
   -1.4186   61.2543   81.4311 S   0  0  0  0  0  0  0  0  0  0  0  0
   -0.3526   60.7534   80.8348 O   0  0  0  0  0  0  0  0  0  0  0  0
   -2.1870   60.2204   81.6812 O   0  0  0  0  0  0  0  0  0  0  0  0
   -2.1533   62.3723   80.5714 N   0  0  0  0  0  0  0  0  0  0  0  0
   -3.5759   61.9636   80.0214 C   0  0  0  0  0  0  0  0  0  0  0  0
   -3.6218   61.1454   78.7165 C   0  0  0  0  0  0  0  0  0  0  0  0
   -2.6021   61.5034   77.6734 N   0  0  0  0  0  0  0  0  0  0  0  0
   -3.3208   62.0690   76.4894 C   0  0  0  0  0  0  0  0  0  0  0  0
   -1.4422   62.4291   78.0481 C   0  0  0  0  0  0  0  0  0  0  0  0
   -1.4795   63.1431   79.4524 C   0  0  0  0  0  0  0  0  0  0  0  0
   -0.3289   64.2374   86.5674 O   0  0  0  0  0  0  0  0  0  0  0  0
   -0.7203   63.8580   87.9020 C   0  0  0  0  0  0  0  0  0  0  0  0
    0.5032   63.1754   88.4905 C   0  0  0  0  0  0  0  0  0  0  0  0
 20 21  1  0  0  0
 21 19  1  0  0  0
 19  7  1  0  0  0
  7 17  1  0  0  0
  7  8  2  0  0  0
  8  9  1  0  0  0
  9 10  1  0  0  0
 11  9  1  0  0  0
 11 12  1  0  0  0
 12 13  2  0  0  0
 14 12  1  0  0  0
 15 14  2  0  0  0
 16 17  1  0  0  0
 16 15  1  0  0  0
 16 18  1  0  0  0
 17 11  2  0  0  0
  1 15  1  0  0  0
  1  6  1  0  0  0
  2  1  2  0  0  0
  3  2  1  0  0  0
  3  4  2  0  0  0
  4  5  1  0  0  0
  5  6  2  0  0  0
  6 32  1  0  0  0
 32 33  1  0  0  0
 33 34  1  0  0  0
 22 24  2  0  0  0
 22 25  1  0  0  0
 22  3  1  0  0  0
 23 22  2  0  0  0
 25 26  1  0  0  0
 27 26  1  0  0  0
 28 29  1  0  0  0
 28 27  1  0  0  0
 30 28  1  0  0  0
 30 31  1  0  0  0
 31 25  1  0  0  0
M  END
> <minimizedAffinity>
-8.24792

$$$$
/home/hjpark/lecture_drug1/0905_agent/pde5_harness/sample_run/structures/work/ligand_ref.pdb


 34 37  0  0  0  0  0  0  0  0999 V2000
    0.9458   66.8595   81.2426 C   0  0  0  0  0  0  0  0  0  0  0  0
    0.6011   66.2087   79.9949 C   0  0  0  0  0  0  0  0  0  0  0  0
    0.2536   64.7900   79.9539 C   0  0  0  0  0  0  0  0  0  0  0  0
    0.2628   64.0398   81.2501 C   0  0  0  0  0  0  0  0  0  0  0  0
    0.6076   64.6766   82.5169 C   0  0  0  0  0  0  0  0  0  0  0  0
    0.9654   66.1078   82.5452 C   0  0  0  0  0  0  0  0  0  0  0  0
    0.1113   71.7878   81.0094 C   0  0  0  0  0  0  0  0  0  0  0  0
    1.0359   72.8332   80.8867 N   0  0  0  0  0  0  0  0  0  0  0  0
    2.2956   72.3098   80.8391 N   0  0  0  0  0  0  0  0  0  0  0  0
    3.4958   73.1409   80.7102 C   0  0  0  0  0  0  0  0  0  0  0  0
    2.1747   70.9464   80.9314 C   0  0  0  0  0  0  0  0  0  0  0  0
    3.1199   69.8655   80.9404 C   0  0  0  0  0  0  0  0  0  0  0  0
    4.3152   70.0311   80.8584 O   0  0  0  0  0  0  0  0  0  0  0  0
    2.6388   68.5622   81.0457 N   0  0  0  0  0  0  0  0  0  0  0  0
    1.2786   68.2384   81.1479 C   0  0  0  0  0  0  0  0  0  0  0  0
    0.3201   69.2585   81.1477 N   0  0  0  0  0  0  0  0  0  0  0  0
    0.7957   70.5960   81.0383 C   0  0  0  0  0  0  0  0  0  0  0  0
   -0.6414   69.0597   81.2200 H   0  0  0  0  0  0  0  0  0  0  0  0
   -1.3706   71.9609   81.1000 C   0  0  0  0  0  0  0  0  0  0  0  0
   -2.7775   72.3717   79.0159 C   0  0  0  0  0  0  0  0  0  0  0  0
   -1.6826   72.9132   79.8951 C   0  0  0  0  0  0  0  0  0  0  0  0
   -0.1026   64.0568   78.5759 S   0  0  0  0  0  0  0  0  0  0  0  0
   -0.8322   64.7483   77.7202 O   0  0  0  0  0  0  0  0  0  0  0  0
    1.0073   63.7804   77.9326 O   0  0  0  0  0  0  0  0  0  0  0  0
   -0.8369   62.7560   79.1213 N   0  0  0  0  0  0  0  0  0  0  0  0
   -0.2870   61.3903   78.5504 C   0  0  0  0  0  0  0  0  0  0  0  0
   -0.8196   60.9310   77.1794 C   0  0  0  0  0  0  0  0  0  0  0  0
   -2.2689   61.2121   76.9031 N   0  0  0  0  0  0  0  0  0  0  0  0
   -2.9905   59.9051   76.8079 C   0  0  0  0  0  0  0  0  0  0  0  0
   -3.0407   62.1469   77.8375 C   0  0  0  0  0  0  0  0  0  0  0  0
   -2.3454   62.6083   79.1743 C   0  0  0  0  0  0  0  0  0  0  0  0
    1.3441   66.8222   83.7457 O   0  0  0  0  0  0  0  0  0  0  0  0
    2.6687   66.8409   84.3145 C   0  0  0  0  0  0  0  0  0  0  0  0
    2.9683   68.3099   84.5625 C   0  0  0  0  0  0  0  0  0  0  0  0
 20 21  1  0  0  0
 21 19  1  0  0  0
 19  7  1  0  0  0
  7 17  1  0  0  0
  7  8  2  0  0  0
  8  9  1  0  0  0
  9 10  1  0  0  0
 11  9  1  0  0  0
 11 12  1  0  0  0
 12 13  2  0  0  0
 14 12  1  0  0  0
 15 14  2  0  0  0
 16 17  1  0  0  0
 16 15  1  0  0  0
 16 18  1  0  0  0
 17 11  2  0  0  0
  1 15  1  0  0  0
  1  6  1  0  0  0
  2  1  2  0  0  0
  3  2  1  0  0  0
  3  4  2  0  0  0
  4  5  1  0  0  0
  5  6  2  0  0  0
  6 32  1  0  0  0
 32 33  1  0  0  0
 33 34  1  0  0  0
 22 24  2  0  0  0
 22 25  1  0  0  0
 22  3  1  0  0  0
 23 22  2  0  0  0
 25 26  1  0  0  0
 27 26  1  0  0  0
 28 29  1  0  0  0
 28 27  1  0  0  0
 30 28  1  0  0  0
 30 31  1  0  0  0
 31 25  1  0  0  0
M  END
> <minimizedAffinity>
-8.19211

$$$$
/home/hjpark/lecture_drug1/0905_agent/pde5_harness/sample_run/structures/work/ligand_ref.pdb


 34 37  0  0  0  0  0  0  0  0999 V2000
    2.0687   66.6225   83.9212 C   0  0  0  0  0  0  0  0  0  0  0  0
    1.3722   67.6029   83.1133 C   0  0  0  0  0  0  0  0  0  0  0  0
    2.0678   68.7698   82.5752 C   0  0  0  0  0  0  0  0  0  0  0  0
    3.5260   68.9083   82.8872 C   0  0  0  0  0  0  0  0  0  0  0  0
    4.2455   67.9326   83.6993 C   0  0  0  0  0  0  0  0  0  0  0  0
    3.5310   66.7624   84.2447 C   0  0  0  0  0  0  0  0  0  0  0  0
   -0.8771   62.5901   83.6058 C   0  0  0  0  0  0  0  0  0  0  0  0
   -1.4499   61.8344   84.6373 N   0  0  0  0  0  0  0  0  0  0  0  0
   -1.0772   62.3658   85.8380 N   0  0  0  0  0  0  0  0  0  0  0  0
   -1.5109   61.8075   87.1217 C   0  0  0  0  0  0  0  0  0  0  0  0
   -0.2751   63.4472   85.5743 C   0  0  0  0  0  0  0  0  0  0  0  0
    0.4141   64.3960   86.4028 C   0  0  0  0  0  0  0  0  0  0  0  0
    0.3790   64.3674   87.6115 O   0  0  0  0  0  0  0  0  0  0  0  0
    1.1575   65.4005   85.7868 N   0  0  0  0  0  0  0  0  0  0  0  0
    1.2782   65.5411   84.3971 C   0  0  0  0  0  0  0  0  0  0  0  0
    0.6278   64.6376   83.5486 N   0  0  0  0  0  0  0  0  0  0  0  0
   -0.1380   63.6064   84.1630 C   0  0  0  0  0  0  0  0  0  0  0  0
    0.6969   64.7118   82.5694 H   0  0  0  0  0  0  0  0  0  0  0  0
   -1.0473   62.3156   82.1465 C   0  0  0  0  0  0  0  0  0  0  0  0
    0.6024   61.5815   80.3490 C   0  0  0  0  0  0  0  0  0  0  0  0
    0.2263   61.4699   81.8020 C   0  0  0  0  0  0  0  0  0  0  0  0
    1.2997   69.8718   81.7038 S   0  0  0  0  0  0  0  0  0  0  0  0
    0.1041   70.2265   82.1367 O   0  0  0  0  0  0  0  0  0  0  0  0
    2.0012   70.9808   81.6917 O   0  0  0  0  0  0  0  0  0  0  0  0
    1.2672   69.1498   80.2873 N   0  0  0  0  0  0  0  0  0  0  0  0
   -0.1671   68.7093   79.7956 C   0  0  0  0  0  0  0  0  0  0  0  0
   -0.7144   67.3683   80.3215 C   0  0  0  0  0  0  0  0  0  0  0  0
    0.2864   66.2591   80.4771 N   0  0  0  0  0  0  0  0  0  0  0  0
   -0.0520   65.1810   79.4966 C   0  0  0  0  0  0  0  0  0  0  0  0
    1.7796   66.5799   80.3780 C   0  0  0  0  0  0  0  0  0  0  0  0
    2.2046   68.0211   79.9031 C   0  0  0  0  0  0  0  0  0  0  0  0
    4.1502   65.7544   85.0786 O   0  0  0  0  0  0  0  0  0  0  0  0
    5.5376   65.7423   85.4701 C   0  0  0  0  0  0  0  0  0  0  0  0
    5.5582   66.3546   86.8608 C   0  0  0  0  0  0  0  0  0  0  0  0
 20 21  1  0  0  0
 21 19  1  0  0  0
 19  7  1  0  0  0
  7 17  1  0  0  0
  7  8  2  0  0  0
  8  9  1  0  0  0
  9 10  1  0  0  0
 11  9  1  0  0  0
 11 12  1  0  0  0
 12 13  2  0  0  0
 14 12  1  0  0  0
 15 14  2  0  0  0
 16 17  1  0  0  0
 16 15  1  0  0  0
 16 18  1  0  0  0
 17 11  2  0  0  0
  1 15  1  0  0  0
  1  6  1  0  0  0
  2  1  2  0  0  0
  3  2  1  0  0  0
  3  4  2  0  0  0
  4  5  1  0  0  0
  5  6  2  0  0  0
  6 32  1  0  0  0
 32 33  1  0  0  0
 33 34  1  0  0  0
 22 24  2  0  0  0
 22 25  1  0  0  0
 22  3  1  0  0  0
 23 22  2  0  0  0
 25 26  1  0  0  0
 27 26  1  0  0  0
 28 29  1  0  0  0
 28 27  1  0  0  0
 30 28  1  0  0  0
 30 31  1  0  0  0
 31 25  1  0  0  0
M  END
> <minimizedAffinity>
-8.16111

$$$$
/home/hjpark/lecture_drug1/0905_agent/pde5_harness/sample_run/structures/work/ligand_ref.pdb


 34 37  0  0  0  0  0  0  0  0999 V2000
    0.6996   65.7695   81.0464 C   0  0  0  0  0  0  0  0  0  0  0  0
    1.1140   66.8409   81.9293 C   0  0  0  0  0  0  0  0  0  0  0  0
    1.8921   67.9725   81.4303 C   0  0  0  0  0  0  0  0  0  0  0  0
    2.2382   67.9828   79.9733 C   0  0  0  0  0  0  0  0  0  0  0  0
    1.8311   66.9134   79.0678 C   0  0  0  0  0  0  0  0  0  0  0  0
    1.0529   65.7711   79.5844 C   0  0  0  0  0  0  0  0  0  0  0  0
   -0.8688   62.7970   84.7535 C   0  0  0  0  0  0  0  0  0  0  0  0
   -1.7754   61.7299   84.7037 N   0  0  0  0  0  0  0  0  0  0  0  0
   -2.2225   61.5854   83.4222 N   0  0  0  0  0  0  0  0  0  0  0  0
   -3.1852   60.5525   83.0296 C   0  0  0  0  0  0  0  0  0  0  0  0
   -1.6084   62.5502   82.6645 C   0  0  0  0  0  0  0  0  0  0  0  0
   -1.6673   62.9061   81.2747 C   0  0  0  0  0  0  0  0  0  0  0  0
   -2.3622   62.3265   80.4721 O   0  0  0  0  0  0  0  0  0  0  0  0
   -0.8849   63.9682   80.8264 N   0  0  0  0  0  0  0  0  0  0  0  0
   -0.0399   64.7192   81.6554 C   0  0  0  0  0  0  0  0  0  0  0  0
    0.0477   64.4123   83.0184 N   0  0  0  0  0  0  0  0  0  0  0  0
   -0.7441   63.3278   83.4917 C   0  0  0  0  0  0  0  0  0  0  0  0
    0.6316   64.9243   83.6235 H   0  0  0  0  0  0  0  0  0  0  0  0
   -0.1688   63.2696   85.9867 C   0  0  0  0  0  0  0  0  0  0  0  0
   -1.7393   63.1593   87.9899 C   0  0  0  0  0  0  0  0  0  0  0  0
   -0.8028   62.3777   87.1085 C   0  0  0  0  0  0  0  0  0  0  0  0
    2.3768   69.1472   82.4043 S   0  0  0  0  0  0  0  0  0  0  0  0
    1.6703   69.3186   83.5062 O   0  0  0  0  0  0  0  0  0  0  0  0
    3.5962   68.8925   82.8170 O   0  0  0  0  0  0  0  0  0  0  0  0
    2.3102   70.3901   81.4145 N   0  0  0  0  0  0  0  0  0  0  0  0
    3.3240   71.5565   81.7388 C   0  0  0  0  0  0  0  0  0  0  0  0
    2.9044   72.5811   82.8104 C   0  0  0  0  0  0  0  0  0  0  0  0
    1.4513   72.9609   82.8316 N   0  0  0  0  0  0  0  0  0  0  0  0
    1.3376   74.4027   82.4491 C   0  0  0  0  0  0  0  0  0  0  0  0
    0.4523   72.1416   82.0110 C   0  0  0  0  0  0  0  0  0  0  0  0
    1.0147   71.0652   81.0069 C   0  0  0  0  0  0  0  0  0  0  0  0
    0.6237   64.6527   78.7721 O   0  0  0  0  0  0  0  0  0  0  0  0
   -0.0507   64.7626   77.5026 C   0  0  0  0  0  0  0  0  0  0  0  0
   -0.5580   63.3613   77.2054 C   0  0  0  0  0  0  0  0  0  0  0  0
 20 21  1  0  0  0
 21 19  1  0  0  0
 19  7  1  0  0  0
  7 17  1  0  0  0
  7  8  2  0  0  0
  8  9  1  0  0  0
  9 10  1  0  0  0
 11  9  1  0  0  0
 11 12  1  0  0  0
 12 13  2  0  0  0
 14 12  1  0  0  0
 15 14  2  0  0  0
 16 17  1  0  0  0
 16 15  1  0  0  0
 16 18  1  0  0  0
 17 11  2  0  0  0
  1 15  1  0  0  0
  1  6  1  0  0  0
  2  1  2  0  0  0
  3  2  1  0  0  0
  3  4  2  0  0  0
  4  5  1  0  0  0
  5  6  2  0  0  0
  6 32  1  0  0  0
 32 33  1  0  0  0
 33 34  1  0  0  0
 22 24  2  0  0  0
 22 25  1  0  0  0
 22  3  1  0  0  0
 23 22  2  0  0  0
 25 26  1  0  0  0
 27 26  1  0  0  0
 28 29  1  0  0  0
 28 27  1  0  0  0
 30 28  1  0  0  0
 30 31  1  0  0  0
 31 25  1  0  0  0
M  END
> <minimizedAffinity>
-8.04198

$$$$
