/home/hjpark/lecture_drug1/0905_agent/pde5_harness/sample_run/structures/work/ligand_ref.pdb


 34 37  0  0  0  0  0  0  0  0999 V2000
    0.4296   64.1523   83.8733 C   0  0  0  0  0  0  0  0  0  0  0  0
    0.1548   63.4134   82.6578 C   0  0  0  0  0  0  0  0  0  0  0  0
   -0.6794   62.2137   82.6755 C   0  0  0  0  0  0  0  0  0  0  0  0
   -1.2410   61.7835   83.9954 C   0  0  0  0  0  0  0  0  0  0  0  0
   -0.9756   62.5133   85.2307 C   0  0  0  0  0  0  0  0  0  0  0  0
   -0.1247   63.7186   85.2025 C   0  0  0  0  0  0  0  0  0  0  0  0
    4.3170   67.1582   84.8174 C   0  0  0  0  0  0  0  0  0  0  0  0
    4.6443   68.3867   84.2287 N   0  0  0  0  0  0  0  0  0  0  0  0
    3.7055   68.6926   83.2861 N   0  0  0  0  0  0  0  0  0  0  0  0
    3.7555   69.9189   82.4853 C   0  0  0  0  0  0  0  0  0  0  0  0
    2.7912   67.6699   83.2740 C   0  0  0  0  0  0  0  0  0  0  0  0
    1.5990   67.4147   82.5156 C   0  0  0  0  0  0  0  0  0  0  0  0
    1.1810   68.1678   81.6664 O   0  0  0  0  0  0  0  0  0  0  0  0
    0.8862   66.2450   82.7704 N   0  0  0  0  0  0  0  0  0  0  0  0
    1.2659   65.2925   83.7265 C   0  0  0  0  0  0  0  0  0  0  0  0
    2.4231   65.4955   84.4874 N   0  0  0  0  0  0  0  0  0  0  0  0
    3.1615   66.6876   84.2405 C   0  0  0  0  0  0  0  0  0  0  0  0
    2.7139   64.8424   85.1642 H   0  0  0  0  0  0  0  0  0  0  0  0
    5.1105   66.4835   85.8894 C   0  0  0  0  0  0  0  0  0  0  0  0
    7.3854   65.9201   84.8901 C   0  0  0  0  0  0  0  0  0  0  0  0
    5.9697   65.4485   85.0853 C   0  0  0  0  0  0  0  0  0  0  0  0
   -0.9663   61.3762   81.3414 S   0  0  0  0  0  0  0  0  0  0  0  0
    0.0924   60.8919   80.7191 O   0  0  0  0  0  0  0  0  0  0  0  0
   -1.6977   60.3275   81.6370 O   0  0  0  0  0  0  0  0  0  0  0  0
   -1.7593   62.4569   80.4858 N   0  0  0  0  0  0  0  0  0  0  0  0
   -3.2543   62.0759   80.1498 C   0  0  0  0  0  0  0  0  0  0  0  0
   -3.4949   61.1599   78.9343 C   0  0  0  0  0  0  0  0  0  0  0  0
   -2.6009   61.3838   77.7482 N   0  0  0  0  0  0  0  0  0  0  0  0
   -3.4399   61.8880   76.6169 C   0  0  0  0  0  0  0  0  0  0  0  0
   -1.3683   62.2785   77.8992 C   0  0  0  0  0  0  0  0  0  0  0  0
   -1.2017   63.1027   79.2319 C   0  0  0  0  0  0  0  0  0  0  0  0
    0.2151   64.4951   86.3757 O   0  0  0  0  0  0  0  0  0  0  0  0
   -0.1863   64.1772   87.7234 C   0  0  0  0  0  0  0  0  0  0  0  0
    0.9528   63.3430   88.2854 C   0  0  0  0  0  0  0  0  0  0  0  0
 20 21  1  0  0  0
 21 19  1  0  0  0
 19  7  1  0  0  0
  7 17  1  0  0  0
  7  8  2  0  0  0
  8  9  1  0  0  0
  9 10  1  0  0  0
 11  9  1  0  0  0
 11 12  1  0  0  0
 12 13  2  0  0  0
 14 12  1  0  0  0
 15 14  2  0  0  0
 16 17  1  0  0  0
 16 15  1  0  0  0
 16 18  1  0  0  0
 17 11  2  0  0  0
  1 15  1  0  0  0
  1  6  1  0  0  0
  2  1  2  0  0  0
  3  2  1  0  0  0
  3  4  2  0  0  0
  4  5  1  0  0  0
  5  6  2  0  0  0
  6 32  1  0  0  0
 32 33  1  0  0  0
 33 34  1  0  0  0
 22 24  2  0  0  0
 22 25  1  0  0  0
 22  3  1  0  0  0
 23 22  2  0  0  0
 25 26  1  0  0  0
 27 26  1  0  0  0
 28 29  1  0  0  0
 28 27  1  0  0  0
 30 28  1  0  0  0
 30 31  1  0  0  0
 31 25  1  0  0  0
M  END
> <minimizedAffinity>
-9.62656

$$$$
/home/hjpark/lecture_drug1/0905_agent/pde5_harness/sample_run/structures/work/ligand_ref.pdb


 34 37  0  0  0  0  0  0  0  0999 V2000
    2.1207   67.1834   83.3181 C   0  0  0  0  0  0  0  0  0  0  0  0
    1.5703   68.1591   82.3994 C   0  0  0  0  0  0  0  0  0  0  0  0
    2.3164   69.3630   82.0399 C   0  0  0  0  0  0  0  0  0  0  0  0
    3.6706   69.5442   82.6533 C   0  0  0  0  0  0  0  0  0  0  0  0
    4.2423   68.5739   83.5810 C   0  0  0  0  0  0  0  0  0  0  0  0
    3.4764   67.3659   83.9437 C   0  0  0  0  0  0  0  0  0  0  0  0
   -0.1465   63.7303   86.1419 C   0  0  0  0  0  0  0  0  0  0  0  0
   -0.9949   62.6876   85.7470 N   0  0  0  0  0  0  0  0  0  0  0  0
   -1.1486   62.7281   84.3914 N   0  0  0  0  0  0  0  0  0  0  0  0
   -1.9779   61.7679   83.6578 C   0  0  0  0  0  0  0  0  0  0  0  0
   -0.4073   63.7854   83.9281 C   0  0  0  0  0  0  0  0  0  0  0  0
   -0.1705   64.3338   82.6224 C   0  0  0  0  0  0  0  0  0  0  0  0
   -0.6599   63.8781   81.6146 O   0  0  0  0  0  0  0  0  0  0  0  0
    0.6653   65.4427   82.5083 N   0  0  0  0  0  0  0  0  0  0  0  0
    1.2915   66.0633   83.5984 C   0  0  0  0  0  0  0  0  0  0  0  0
    1.0874   65.5670   84.8912 N   0  0  0  0  0  0  0  0  0  0  0  0
    0.2374   64.4325   85.0243 C   0  0  0  0  0  0  0  0  0  0  0  0
    1.5131   65.9844   85.6746 H   0  0  0  0  0  0  0  0  0  0  0  0
    0.2566   64.0195   87.5518 C   0  0  0  0  0  0  0  0  0  0  0  0
    0.2570   62.1303   89.2613 C   0  0  0  0  0  0  0  0  0  0  0  0
   -0.5976   62.9945   88.3737 C   0  0  0  0  0  0  0  0  0  0  0  0
    1.7046   70.4593   81.0463 S   0  0  0  0  0  0  0  0  0  0  0  0
    2.5648   71.0712   80.2536 O   0  0  0  0  0  0  0  0  0  0  0  0
    0.8473   69.8814   80.2382 O   0  0  0  0  0  0  0  0  0  0  0  0
    1.0046   71.4359   82.0881 N   0  0  0  0  0  0  0  0  0  0  0  0
   -0.4544   71.8951   81.6961 C   0  0  0  0  0  0  0  0  0  0  0  0
   -0.5849   73.0843   80.7250 C   0  0  0  0  0  0  0  0  0  0  0  0
    0.4196   74.1887   80.8905 N   0  0  0  0  0  0  0  0  0  0  0  0
   -0.3041   75.4171   81.3437 C   0  0  0  0  0  0  0  0  0  0  0  0
    1.6388   73.9624   81.7877 C   0  0  0  0  0  0  0  0  0  0  0  0
    1.6837   72.6594   82.6730 C   0  0  0  0  0  0  0  0  0  0  0  0
    3.9469   66.3592   84.8710 O   0  0  0  0  0  0  0  0  0  0  0  0
    5.3205   65.9469   85.0180 C   0  0  0  0  0  0  0  0  0  0  0  0
    5.3585   65.1668   86.3216 C   0  0  0  0  0  0  0  0  0  0  0  0
 20 21  1  0  0  0
 21 19  1  0  0  0
 19  7  1  0  0  0
  7 17  1  0  0  0
  7  8  2  0  0  0
  8  9  1  0  0  0
  9 10  1  0  0  0
 11  9  1  0  0  0
 11 12  1  0  0  0
 12 13  2  0  0  0
 14 12  1  0  0  0
 15 14  2  0  0  0
 16 17  1  0  0  0
 16 15  1  0  0  0
 16 18  1  0  0  0
 17 11  2  0  0  0
  1 15  1  0  0  0
  1  6  1  0  0  0
  2  1  2  0  0  0
  3  2  1  0  0  0
  3  4  2  0  0  0
  4  5  1  0  0  0
  5  6  2  0  0  0
  6 32  1  0  0  0
 32 33  1  0  0  0
 33 34  1  0  0  0
 22 24  2  0  0  0
 22 25  1  0  0  0
 22  3  1  0  0  0
 23 22  2  0  0  0
 25 26  1  0  0  0
 27 26  1  0  0  0
 28 29  1  0  0  0
 28 27  1  0  0  0
 30 28  1  0  0  0
 30 31  1  0  0  0
 31 25  1  0  0  0
M  END
> <minimizedAffinity>
-9.49269

$$$$
/home/hjpark/lecture_drug1/0905_agent/pde5_harness/sample_run/structures/work/ligand_ref.pdb


 34 37  0  0  0  0  0  0  0  0999 V2000
    0.1961   64.3563   84.0874 C   0  0  0  0  0  0  0  0  0  0  0  0
   -0.4101   63.8043   82.8929 C   0  0  0  0  0  0  0  0  0  0  0  0
   -1.3628   62.6991   82.9711 C   0  0  0  0  0  0  0  0  0  0  0  0
   -1.6901   62.1654   84.3316 C   0  0  0  0  0  0  0  0  0  0  0  0
   -1.0901   62.7069   85.5464 C   0  0  0  0  0  0  0  0  0  0  0  0
   -0.1226   63.8173   85.4550 C   0  0  0  0  0  0  0  0  0  0  0  0
    4.3775   67.0205   84.7631 C   0  0  0  0  0  0  0  0  0  0  0  0
    4.7735   68.2118   84.1410 N   0  0  0  0  0  0  0  0  0  0  0  0
    3.8097   68.5912   83.2520 N   0  0  0  0  0  0  0  0  0  0  0  0
    3.9170   69.8029   82.4346 C   0  0  0  0  0  0  0  0  0  0  0  0
    2.8116   67.6516   83.3065 C   0  0  0  0  0  0  0  0  0  0  0  0
    1.5586   67.4953   82.6231 C   0  0  0  0  0  0  0  0  0  0  0  0
    1.1568   68.2758   81.7910 O   0  0  0  0  0  0  0  0  0  0  0  0
    0.7643   66.3937   82.9339 N   0  0  0  0  0  0  0  0  0  0  0  0
    1.1172   65.4187   83.8774 C   0  0  0  0  0  0  0  0  0  0  0  0
    2.3311   65.5260   84.5661 N   0  0  0  0  0  0  0  0  0  0  0  0
    3.1532   66.6477   84.2613 C   0  0  0  0  0  0  0  0  0  0  0  0
    2.6046   64.8549   85.2324 H   0  0  0  0  0  0  0  0  0  0  0  0
    5.1728   66.2872   85.7945 C   0  0  0  0  0  0  0  0  0  0  0  0
    7.5330   65.9425   84.8989 C   0  0  0  0  0  0  0  0  0  0  0  0
    6.6089   66.8887   85.6170 C   0  0  0  0  0  0  0  0  0  0  0  0
   -2.0170   62.0655   81.6542 S   0  0  0  0  0  0  0  0  0  0  0  0
   -2.4343   60.8171   81.7544 O   0  0  0  0  0  0  0  0  0  0  0  0
   -3.0830   62.7563   81.3246 O   0  0  0  0  0  0  0  0  0  0  0  0
   -0.8224   62.2485   80.6206 N   0  0  0  0  0  0  0  0  0  0  0  0
   -1.0787   63.3172   79.4868 C   0  0  0  0  0  0  0  0  0  0  0  0
   -1.8767   62.8597   78.2506 C   0  0  0  0  0  0  0  0  0  0  0  0
   -1.6158   61.4593   77.7741 N   0  0  0  0  0  0  0  0  0  0  0  0
   -0.9696   61.5348   76.4270 C   0  0  0  0  0  0  0  0  0  0  0  0
   -0.8169   60.5035   78.6634 C   0  0  0  0  0  0  0  0  0  0  0  0
   -0.1149   61.0881   79.9474 C   0  0  0  0  0  0  0  0  0  0  0  0
    0.5425   64.4054   86.5980 O   0  0  0  0  0  0  0  0  0  0  0  0
    1.2985   63.6727   87.5830 C   0  0  0  0  0  0  0  0  0  0  0  0
    0.2871   63.2952   88.6525 C   0  0  0  0  0  0  0  0  0  0  0  0
 20 21  1  0  0  0
 21 19  1  0  0  0
 19  7  1  0  0  0
  7 17  1  0  0  0
  7  8  2  0  0  0
  8  9  1  0  0  0
  9 10  1  0  0  0
 11  9  1  0  0  0
 11 12  1  0  0  0
 12 13  2  0  0  0
 14 12  1  0  0  0
 15 14  2  0  0  0
 16 17  1  0  0  0
 16 15  1  0  0  0
 16 18  1  0  0  0
 17 11  2  0  0  0
  1 15  1  0  0  0
  1  6  1  0  0  0
  2  1  2  0  0  0
  3  2  1  0  0  0
  3  4  2  0  0  0
  4  5  1  0  0  0
  5  6  2  0  0  0
  6 32  1  0  0  0
 32 33  1  0  0  0
 33 34  1  0  0  0
 22 24  2  0  0  0
 22 25  1  0  0  0
 22  3  1  0  0  0
 23 22  2  0  0  0
 25 26  1  0  0  0
 27 26  1  0  0  0
 28 29  1  0  0  0
 28 27  1  0  0  0
 30 28  1  0  0  0
 30 31  1  0  0  0
 31 25  1  0  0  0
M  END
> <minimizedAffinity>
-9.43151

$$$$
/home/hjpark/lecture_drug1/0905_agent/pde5_harness/sample_run/structures/work/ligand_ref.pdb


 34 37  0  0  0  0  0  0  0  0999 V2000
    2.1055   66.7120   83.5152 C   0  0  0  0  0  0  0  0  0  0  0  0
    1.6344   67.7797   82.6567 C   0  0  0  0  0  0  0  0  0  0  0  0
    2.4196   68.9971   82.4653 C   0  0  0  0  0  0  0  0  0  0  0  0
    3.7290   69.0938   83.1857 C   0  0  0  0  0  0  0  0  0  0  0  0
    4.2208   68.0302   84.0551 C   0  0  0  0  0  0  0  0  0  0  0  0
    3.4156   66.8088   84.2480 C   0  0  0  0  0  0  0  0  0  0  0  0
   -0.6771   63.2680   85.8463 C   0  0  0  0  0  0  0  0  0  0  0  0
   -1.4166   62.2128   85.2961 N   0  0  0  0  0  0  0  0  0  0  0  0
   -1.2838   62.2371   83.9379 N   0  0  0  0  0  0  0  0  0  0  0  0
   -1.9343   61.2609   83.0594 C   0  0  0  0  0  0  0  0  0  0  0  0
   -0.4696   63.2965   83.6264 C   0  0  0  0  0  0  0  0  0  0  0  0
    0.0311   63.8328   82.3922 C   0  0  0  0  0  0  0  0  0  0  0  0
   -0.2334   63.3614   81.3102 O   0  0  0  0  0  0  0  0  0  0  0  0
    0.8643   64.9485   82.4413 N   0  0  0  0  0  0  0  0  0  0  0  0
    1.2441   65.5869   83.6302 C   0  0  0  0  0  0  0  0  0  0  0  0
    0.7777   65.1029   84.8580 N   0  0  0  0  0  0  0  0  0  0  0  0
   -0.0730   63.9617   84.8248 C   0  0  0  0  0  0  0  0  0  0  0  0
    1.0271   65.5328   85.7077 H   0  0  0  0  0  0  0  0  0  0  0  0
   -0.5799   63.5765   87.3056 C   0  0  0  0  0  0  0  0  0  0  0  0
    0.2519   62.1059   89.2127 C   0  0  0  0  0  0  0  0  0  0  0  0
   -0.5834   62.1533   87.9617 C   0  0  0  0  0  0  0  0  0  0  0  0
    1.8940   70.1930   81.5395 S   0  0  0  0  0  0  0  0  0  0  0  0
    1.9957   70.0083   80.2363 O   0  0  0  0  0  0  0  0  0  0  0  0
    0.6138   70.3803   81.7588 O   0  0  0  0  0  0  0  0  0  0  0  0
    2.7911   71.3910   82.0769 N   0  0  0  0  0  0  0  0  0  0  0  0
    2.0462   72.4084   83.0273 C   0  0  0  0  0  0  0  0  0  0  0  0
    1.2218   73.5262   82.3599 C   0  0  0  0  0  0  0  0  0  0  0  0
    1.7980   74.1153   81.1041 N   0  0  0  0  0  0  0  0  0  0  0  0
    2.1579   75.5415   81.3773 C   0  0  0  0  0  0  0  0  0  0  0  0
    2.9795   73.4186   80.4250 C   0  0  0  0  0  0  0  0  0  0  0  0
    3.6844   72.2315   81.1847 C   0  0  0  0  0  0  0  0  0  0  0  0
    3.8060   65.7110   85.1066 O   0  0  0  0  0  0  0  0  0  0  0  0
    5.1653   65.3590   85.4333 C   0  0  0  0  0  0  0  0  0  0  0  0
    5.1236   64.9493   86.8961 C   0  0  0  0  0  0  0  0  0  0  0  0
 20 21  1  0  0  0
 21 19  1  0  0  0
 19  7  1  0  0  0
  7 17  1  0  0  0
  7  8  2  0  0  0
  8  9  1  0  0  0
  9 10  1  0  0  0
 11  9  1  0  0  0
 11 12  1  0  0  0
 12 13  2  0  0  0
 14 12  1  0  0  0
 15 14  2  0  0  0
 16 17  1  0  0  0
 16 15  1  0  0  0
 16 18  1  0  0  0
 17 11  2  0  0  0
  1 15  1  0  0  0
  1  6  1  0  0  0
  2  1  2  0  0  0
  3  2  1  0  0  0
  3  4  2  0  0  0
  4  5  1  0  0  0
  5  6  2  0  0  0
  6 32  1  0  0  0
 32 33  1  0  0  0
 33 34  1  0  0  0
 22 24  2  0  0  0
 22 25  1  0  0  0
 22  3  1  0  0  0
 23 22  2  0  0  0
 25 26  1  0  0  0
 27 26  1  0  0  0
 28 29  1  0  0  0
 28 27  1  0  0  0
 30 28  1  0  0  0
 30 31  1  0  0  0
 31 25  1  0  0  0
M  END
> <minimizedAffinity>
-9.21291

$$$$
/home/hjpark/lecture_drug1/0905_agent/pde5_harness/sample_run/structures/work/ligand_ref.pdb


 34 37  0  0  0  0  0  0  0  0999 V2000
    0.9510   65.9952   81.9778 C   0  0  0  0  0  0  0  0  0  0  0  0
    1.4756   67.2296   82.5256 C   0  0  0  0  0  0  0  0  0  0  0  0
    2.0661   68.2488   81.6609 C   0  0  0  0  0  0  0  0  0  0  0  0
    2.1023   67.9690   80.1901 C   0  0  0  0  0  0  0  0  0  0  0  0
    1.5800   66.7321   79.6188 C   0  0  0  0  0  0  0  0  0  0  0  0
    0.9936   65.7060   80.5024 C   0  0  0  0  0  0  0  0  0  0  0  0
   -1.9113   62.2398   83.6338 C   0  0  0  0  0  0  0  0  0  0  0  0
   -2.0127   61.7138   84.9284 N   0  0  0  0  0  0  0  0  0  0  0  0
   -1.1671   62.3971   85.7538 N   0  0  0  0  0  0  0  0  0  0  0  0
   -1.0345   62.0936   87.1814 C   0  0  0  0  0  0  0  0  0  0  0  0
   -0.5335   63.3469   84.9931 C   0  0  0  0  0  0  0  0  0  0  0  0
    0.4503   64.3526   85.2801 C   0  0  0  0  0  0  0  0  0  0  0  0
    0.9211   64.5226   86.3812 O   0  0  0  0  0  0  0  0  0  0  0  0
    0.8830   65.1751   84.2421 N   0  0  0  0  0  0  0  0  0  0  0  0
    0.4162   65.0785   82.9237 C   0  0  0  0  0  0  0  0  0  0  0  0
   -0.5401   64.1107   82.5948 N   0  0  0  0  0  0  0  0  0  0  0  0
   -0.9942   63.2637   83.6452 C   0  0  0  0  0  0  0  0  0  0  0  0
   -0.8839   64.0197   81.6768 H   0  0  0  0  0  0  0  0  0  0  0  0
   -2.6770   61.7495   82.4475 C   0  0  0  0  0  0  0  0  0  0  0  0
   -1.0885   61.0849   80.5697 C   0  0  0  0  0  0  0  0  0  0  0  0
   -1.7330   60.6467   81.8571 C   0  0  0  0  0  0  0  0  0  0  0  0
    2.6723   69.6040   82.2606 S   0  0  0  0  0  0  0  0  0  0  0  0
    2.3024   69.9133   83.4895 O   0  0  0  0  0  0  0  0  0  0  0  0
    3.9801   69.5084   82.3117 O   0  0  0  0  0  0  0  0  0  0  0  0
    2.1747   70.6506   81.1716 N   0  0  0  0  0  0  0  0  0  0  0  0
    3.0773   71.9375   81.0216 C   0  0  0  0  0  0  0  0  0  0  0  0
    2.8381   73.0894   82.0168 C   0  0  0  0  0  0  0  0  0  0  0  0
    1.4101   73.3414   82.4084 N   0  0  0  0  0  0  0  0  0  0  0  0
    1.0085   74.6823   81.8804 C   0  0  0  0  0  0  0  0  0  0  0  0
    0.3399   72.3123   82.0365 C   0  0  0  0  0  0  0  0  0  0  0  0
    0.7405   71.1333   81.0707 C   0  0  0  0  0  0  0  0  0  0  0  0
    0.4719   64.4396   80.0345 O   0  0  0  0  0  0  0  0  0  0  0  0
   -0.0153   64.1870   78.7014 C   0  0  0  0  0  0  0  0  0  0  0  0
    0.9206   63.1323   78.1350 C   0  0  0  0  0  0  0  0  0  0  0  0
 20 21  1  0  0  0
 21 19  1  0  0  0
 19  7  1  0  0  0
  7 17  1  0  0  0
  7  8  2  0  0  0
  8  9  1  0  0  0
  9 10  1  0  0  0
 11  9  1  0  0  0
 11 12  1  0  0  0
 12 13  2  0  0  0
 14 12  1  0  0  0
 15 14  2  0  0  0
 16 17  1  0  0  0
 16 15  1  0  0  0
 16 18  1  0  0  0
 17 11  2  0  0  0
  1 15  1  0  0  0
  1  6  1  0  0  0
  2  1  2  0  0  0
  3  2  1  0  0  0
  3  4  2  0  0  0
  4  5  1  0  0  0
  5  6  2  0  0  0
  6 32  1  0  0  0
 32 33  1  0  0  0
 33 34  1  0  0  0
 22 24  2  0  0  0
 22 25  1  0  0  0
 22  3  1  0  0  0
 23 22  2  0  0  0
 25 26  1  0  0  0
 27 26  1  0  0  0
 28 29  1  0  0  0
 28 27  1  0  0  0
 30 28  1  0  0  0
 30 31  1  0  0  0
 31 25  1  0  0  0
M  END
> <minimizedAffinity>
-8.99528

$$$$
/home/hjpark/lecture_drug1/0905_agent/pde5_harness/sample_run/structures/work/ligand_ref.pdb


 34 37  0  0  0  0  0  0  0  0999 V2000
    2.1403   66.2794   84.0986 C   0  0  0  0  0  0  0  0  0  0  0  0
    1.6253   67.1646   83.0738 C   0  0  0  0  0  0  0  0  0  0  0  0
    2.4425   68.2473   82.5305 C   0  0  0  0  0  0  0  0  0  0  0  0
    3.8310   68.4010   83.0701 C   0  0  0  0  0  0  0  0  0  0  0  0
    4.3681   67.5206   84.1023 C   0  0  0  0  0  0  0  0  0  0  0  0
    3.5310   66.4359   84.6500 C   0  0  0  0  0  0  0  0  0  0  0  0
   -1.0567   62.4491   83.7167 C   0  0  0  0  0  0  0  0  0  0  0  0
   -1.7529   61.7780   84.7305 N   0  0  0  0  0  0  0  0  0  0  0  0
   -1.4283   62.3319   85.9350 N   0  0  0  0  0  0  0  0  0  0  0  0
   -1.9898   61.8584   87.2032 C   0  0  0  0  0  0  0  0  0  0  0  0
   -0.5345   63.3438   85.6912 C   0  0  0  0  0  0  0  0  0  0  0  0
    0.1609   64.2766   86.5325 C   0  0  0  0  0  0  0  0  0  0  0  0
    0.0391   64.3007   87.7357 O   0  0  0  0  0  0  0  0  0  0  0  0
    1.0155   65.2012   85.9361 N   0  0  0  0  0  0  0  0  0  0  0  0
    1.2431   65.2755   84.5547 C   0  0  0  0  0  0  0  0  0  0  0  0
    0.5909   64.3843   83.6946 N   0  0  0  0  0  0  0  0  0  0  0  0
   -0.2878   63.4345   84.2887 C   0  0  0  0  0  0  0  0  0  0  0  0
    0.7336   64.4129   82.7210 H   0  0  0  0  0  0  0  0  0  0  0  0
   -1.1433   62.1266   82.2598 C   0  0  0  0  0  0  0  0  0  0  0  0
    0.7229   61.4884   80.6469 C   0  0  0  0  0  0  0  0  0  0  0  0
    0.1438   61.2659   82.0181 C   0  0  0  0  0  0  0  0  0  0  0  0
    1.8720   69.2466   81.4173 S   0  0  0  0  0  0  0  0  0  0  0  0
    2.7548   69.7349   80.5659 O   0  0  0  0  0  0  0  0  0  0  0  0
    0.9957   68.6127   80.6740 O   0  0  0  0  0  0  0  0  0  0  0  0
    1.2060   70.3579   82.3395 N   0  0  0  0  0  0  0  0  0  0  0  0
   -0.2178   70.8512   81.8676 C   0  0  0  0  0  0  0  0  0  0  0  0
   -0.2642   71.9422   80.7806 C   0  0  0  0  0  0  0  0  0  0  0  0
    0.7956   73.0037   80.8609 N   0  0  0  0  0  0  0  0  0  0  0  0
    0.1311   74.3074   81.1720 C   0  0  0  0  0  0  0  0  0  0  0  0
    1.9827   72.8049   81.8063 C   0  0  0  0  0  0  0  0  0  0  0  0
    1.9392   71.5967   82.8170 C   0  0  0  0  0  0  0  0  0  0  0  0
    3.9645   65.5275   85.6900 O   0  0  0  0  0  0  0  0  0  0  0  0
    5.3282   65.1174   85.9150 C   0  0  0  0  0  0  0  0  0  0  0  0
    5.5965   65.4327   87.3772 C   0  0  0  0  0  0  0  0  0  0  0  0
 20 21  1  0  0  0
 21 19  1  0  0  0
 19  7  1  0  0  0
  7 17  1  0  0  0
  7  8  2  0  0  0
  8  9  1  0  0  0
  9 10  1  0  0  0
 11  9  1  0  0  0
 11 12  1  0  0  0
 12 13  2  0  0  0
 14 12  1  0  0  0
 15 14  2  0  0  0
 16 17  1  0  0  0
 16 15  1  0  0  0
 16 18  1  0  0  0
 17 11  2  0  0  0
  1 15  1  0  0  0
  1  6  1  0  0  0
  2  1  2  0  0  0
  3  2  1  0  0  0
  3  4  2  0  0  0
  4  5  1  0  0  0
  5  6  2  0  0  0
  6 32  1  0  0  0
 32 33  1  0  0  0
 33 34  1  0  0  0
 22 24  2  0  0  0
 22 25  1  0  0  0
 22  3  1  0  0  0
 23 22  2  0  0  0
 25 26  1  0  0  0
 27 26  1  0  0  0
 28 29  1  0  0  0
 28 27  1  0  0  0
 30 28  1  0  0  0
 30 31  1  0  0  0
 31 25  1  0  0  0
M  END
> <minimizedAffinity>
-8.97270

$$$$
/home/hjpark/lecture_drug1/0905_agent/pde5_harness/sample_run/structures/work/ligand_ref.pdb


 34 37  0  0  0  0  0  0  0  0999 V2000
    0.3553   64.6888   82.6117 C   0  0  0  0  0  0  0  0  0  0  0  0
    1.1780   65.8717   82.4605 C   0  0  0  0  0  0  0  0  0  0  0  0
    1.7334   66.5592   83.6241 C   0  0  0  0  0  0  0  0  0  0  0  0
    1.4231   65.9906   84.9744 C   0  0  0  0  0  0  0  0  0  0  0  0
    0.5962   64.8010   85.1480 C   0  0  0  0  0  0  0  0  0  0  0  0
    0.0334   64.1197   83.9663 C   0  0  0  0  0  0  0  0  0  0  0  0
   -2.7562   62.0770   79.6902 C   0  0  0  0  0  0  0  0  0  0  0  0
   -2.6710   61.8263   78.3143 N   0  0  0  0  0  0  0  0  0  0  0  0
   -1.5512   62.4306   77.8204 N   0  0  0  0  0  0  0  0  0  0  0  0
   -1.1686   62.3589   76.4076 C   0  0  0  0  0  0  0  0  0  0  0  0
   -0.9307   63.0600   78.8697 C   0  0  0  0  0  0  0  0  0  0  0  0
    0.2627   63.8498   78.9866 C   0  0  0  0  0  0  0  0  0  0  0  0
    0.9819   64.1048   78.0482 O   0  0  0  0  0  0  0  0  0  0  0  0
    0.6124   64.3448   80.2411 N   0  0  0  0  0  0  0  0  0  0  0  0
   -0.1366   64.1209   81.4048 C   0  0  0  0  0  0  0  0  0  0  0  0
   -1.3100   63.3604   81.3398 N   0  0  0  0  0  0  0  0  0  0  0  0
   -1.6798   62.8453   80.0650 C   0  0  0  0  0  0  0  0  0  0  0  0
   -1.8560   63.1891   82.1409 H   0  0  0  0  0  0  0  0  0  0  0  0
   -3.8494   61.5873   80.5841 C   0  0  0  0  0  0  0  0  0  0  0  0
   -2.8244   60.1380   82.4118 C   0  0  0  0  0  0  0  0  0  0  0  0
   -3.3451   60.1630   81.0000 C   0  0  0  0  0  0  0  0  0  0  0  0
    2.6214   67.8822   83.4675 S   0  0  0  0  0  0  0  0  0  0  0  0
    2.6724   68.6771   84.5202 O   0  0  0  0  0  0  0  0  0  0  0  0
    3.8676   67.5427   83.2355 O   0  0  0  0  0  0  0  0  0  0  0  0
    1.9223   68.5526   82.2063 N   0  0  0  0  0  0  0  0  0  0  0  0
    2.8974   68.9212   81.0202 C   0  0  0  0  0  0  0  0  0  0  0  0
    3.6575   70.2579   81.1186 C   0  0  0  0  0  0  0  0  0  0  0  0
    2.8998   71.4090   81.7161 N   0  0  0  0  0  0  0  0  0  0  0  0
    2.6938   72.4387   80.6505 C   0  0  0  0  0  0  0  0  0  0  0  0
    1.5686   71.1418   82.4226 C   0  0  0  0  0  0  0  0  0  0  0  0
    0.9381   69.7020   82.3092 C   0  0  0  0  0  0  0  0  0  0  0  0
   -0.8157   62.9497   84.0365 O   0  0  0  0  0  0  0  0  0  0  0  0
   -1.0878   62.1953   85.2345 C   0  0  0  0  0  0  0  0  0  0  0  0
   -2.5518   62.4622   85.5421 C   0  0  0  0  0  0  0  0  0  0  0  0
 20 21  1  0  0  0
 21 19  1  0  0  0
 19  7  1  0  0  0
  7 17  1  0  0  0
  7  8  2  0  0  0
  8  9  1  0  0  0
  9 10  1  0  0  0
 11  9  1  0  0  0
 11 12  1  0  0  0
 12 13  2  0  0  0
 14 12  1  0  0  0
 15 14  2  0  0  0
 16 17  1  0  0  0
 16 15  1  0  0  0
 16 18  1  0  0  0
 17 11  2  0  0  0
  1 15  1  0  0  0
  1  6  1  0  0  0
  2  1  2  0  0  0
  3  2  1  0  0  0
  3  4  2  0  0  0
  4  5  1  0  0  0
  5  6  2  0  0  0
  6 32  1  0  0  0
 32 33  1  0  0  0
 33 34  1  0  0  0
 22 24  2  0  0  0
 22 25  1  0  0  0
 22  3  1  0  0  0
 23 22  2  0  0  0
 25 26  1  0  0  0
 27 26  1  0  0  0
 28 29  1  0  0  0
 28 27  1  0  0  0
 30 28  1  0  0  0
 30 31  1  0  0  0
 31 25  1  0  0  0
M  END
> <minimizedAffinity>
-8.93822

$$$$
/home/hjpark/lecture_drug1/0905_agent/pde5_harness/sample_run/structures/work/ligand_ref.pdb


 34 37  0  0  0  0  0  0  0  0999 V2000
    0.3983   64.4763   84.5509 C   0  0  0  0  0  0  0  0  0  0  0  0
   -0.1600   64.1907   83.2449 C   0  0  0  0  0  0  0  0  0  0  0  0
   -1.3120   63.3047   83.0933 C   0  0  0  0  0  0  0  0  0  0  0  0
   -1.8935   62.7100   84.3388 C   0  0  0  0  0  0  0  0  0  0  0  0
   -1.3456   62.9845   85.6630 C   0  0  0  0  0  0  0  0  0  0  0  0
   -0.1767   63.8740   85.8035 C   0  0  0  0  0  0  0  0  0  0  0  0
    3.0675   68.5723   83.4848 C   0  0  0  0  0  0  0  0  0  0  0  0
    4.3825   68.8873   83.8515 N   0  0  0  0  0  0  0  0  0  0  0  0
    4.8928   67.8658   84.5993 N   0  0  0  0  0  0  0  0  0  0  0  0
    6.2545   67.8821   85.1408 C   0  0  0  0  0  0  0  0  0  0  0  0
    3.9134   66.9113   84.7085 C   0  0  0  0  0  0  0  0  0  0  0  0
    3.8424   65.6334   85.3593 C   0  0  0  0  0  0  0  0  0  0  0  0
    4.7606   65.1589   85.9876 O   0  0  0  0  0  0  0  0  0  0  0  0
    2.6608   64.9017   85.2612 N   0  0  0  0  0  0  0  0  0  0  0  0
    1.5266   65.3411   84.5640 C   0  0  0  0  0  0  0  0  0  0  0  0
    1.5467   66.5822   83.9171 N   0  0  0  0  0  0  0  0  0  0  0  0
    2.7481   67.3411   84.0060 C   0  0  0  0  0  0  0  0  0  0  0  0
    0.7641   66.9160   83.4220 H   0  0  0  0  0  0  0  0  0  0  0  0
    2.1730   69.4475   82.6675 C   0  0  0  0  0  0  0  0  0  0  0  0
    2.1022   68.1841   80.4561 C   0  0  0  0  0  0  0  0  0  0  0  0
    2.7645   69.2960   81.2242 C   0  0  0  0  0  0  0  0  0  0  0  0
   -1.9187   62.9626   81.6517 S   0  0  0  0  0  0  0  0  0  0  0  0
   -3.2269   63.0874   81.5261 O   0  0  0  0  0  0  0  0  0  0  0  0
   -1.4107   63.7828   80.7620 O   0  0  0  0  0  0  0  0  0  0  0  0
   -1.4091   61.4672   81.4704 N   0  0  0  0  0  0  0  0  0  0  0  0
   -0.2124   61.2883   80.4559 C   0  0  0  0  0  0  0  0  0  0  0  0
   -0.5630   61.1893   78.9587 C   0  0  0  0  0  0  0  0  0  0  0  0
   -1.8178   60.4364   78.6199 N   0  0  0  0  0  0  0  0  0  0  0  0
   -1.4351   59.2015   77.8672 C   0  0  0  0  0  0  0  0  0  0  0  0
   -2.7909   60.0624   79.7404 C   0  0  0  0  0  0  0  0  0  0  0  0
   -2.3370   60.2914   81.2320 C   0  0  0  0  0  0  0  0  0  0  0  0
    0.4521   64.1879   87.0688 O   0  0  0  0  0  0  0  0  0  0  0  0
    0.7346   63.2335   88.1118 C   0  0  0  0  0  0  0  0  0  0  0  0
   -0.4662   63.3008   89.0408 C   0  0  0  0  0  0  0  0  0  0  0  0
 20 21  1  0  0  0
 21 19  1  0  0  0
 19  7  1  0  0  0
  7 17  1  0  0  0
  7  8  2  0  0  0
  8  9  1  0  0  0
  9 10  1  0  0  0
 11  9  1  0  0  0
 11 12  1  0  0  0
 12 13  2  0  0  0
 14 12  1  0  0  0
 15 14  2  0  0  0
 16 17  1  0  0  0
 16 15  1  0  0  0
 16 18  1  0  0  0
 17 11  2  0  0  0
  1 15  1  0  0  0
  1  6  1  0  0  0
  2  1  2  0  0  0
  3  2  1  0  0  0
  3  4  2  0  0  0
  4  5  1  0  0  0
  5  6  2  0  0  0
  6 32  1  0  0  0
 32 33  1  0  0  0
 33 34  1  0  0  0
 22 24  2  0  0  0
 22 25  1  0  0  0
 22  3  1  0  0  0
 23 22  2  0  0  0
 25 26  1  0  0  0
 27 26  1  0  0  0
 28 29  1  0  0  0
 28 27  1  0  0  0
 30 28  1  0  0  0
 30 31  1  0  0  0
 31 25  1  0  0  0
M  END
> <minimizedAffinity>
-8.92526

$$$$
/home/hjpark/lecture_drug1/0905_agent/pde5_harness/sample_run/structures/work/ligand_ref.pdb


 34 37  0  0  0  0  0  0  0  0999 V2000
    0.3655   65.0369   81.2818 C   0  0  0  0  0  0  0  0  0  0  0  0
    0.6832   66.3259   80.7016 C   0  0  0  0  0  0  0  0  0  0  0  0
    1.2427   67.4031   81.5151 C   0  0  0  0  0  0  0  0  0  0  0  0
    1.4787   67.1200   82.9667 C   0  0  0  0  0  0  0  0  0  0  0  0
    1.1649   65.8291   83.5702 C   0  0  0  0  0  0  0  0  0  0  0  0
    0.5921   64.7512   82.7410 C   0  0  0  0  0  0  0  0  0  0  0  0
   -2.8280   61.5205   79.7087 C   0  0  0  0  0  0  0  0  0  0  0  0
   -2.8322   60.8108   78.5007 N   0  0  0  0  0  0  0  0  0  0  0  0
   -1.7805   61.2268   77.7365 N   0  0  0  0  0  0  0  0  0  0  0  0
   -1.4993   60.6776   76.4073 C   0  0  0  0  0  0  0  0  0  0  0  0
   -1.1145   62.1914   78.4495 C   0  0  0  0  0  0  0  0  0  0  0  0
    0.0467   62.9940   78.1868 C   0  0  0  0  0  0  0  0  0  0  0  0
    0.6829   62.9215   77.1607 O   0  0  0  0  0  0  0  0  0  0  0  0
    0.4641   63.8987   79.1607 N   0  0  0  0  0  0  0  0  0  0  0  0
   -0.1867   64.0778   80.3894 C   0  0  0  0  0  0  0  0  0  0  0  0
   -1.3255   63.3210   80.6889 N   0  0  0  0  0  0  0  0  0  0  0  0
   -1.7635   62.3902   79.7046 C   0  0  0  0  0  0  0  0  0  0  0  0
   -1.8030   63.4277   81.5432 H   0  0  0  0  0  0  0  0  0  0  0  0
   -3.8292   61.3509   80.8054 C   0  0  0  0  0  0  0  0  0  0  0  0
   -3.0859   60.6158   83.1289 C   0  0  0  0  0  0  0  0  0  0  0  0
   -3.1946   60.2172   81.6818 C   0  0  0  0  0  0  0  0  0  0  0  0
    1.5718   68.8389   80.8878 S   0  0  0  0  0  0  0  0  0  0  0  0
    2.8324   69.0568   80.5619 O   0  0  0  0  0  0  0  0  0  0  0  0
    0.8998   68.9881   79.7706 O   0  0  0  0  0  0  0  0  0  0  0  0
    1.0493   69.7896   82.0507 N   0  0  0  0  0  0  0  0  0  0  0  0
   -0.2122   70.6645   81.6813 C   0  0  0  0  0  0  0  0  0  0  0  0
    0.0382   71.9825   80.9234 C   0  0  0  0  0  0  0  0  0  0  0  0
    1.2668   72.7511   81.3181 N   0  0  0  0  0  0  0  0  0  0  0  0
    0.8335   74.0392   81.9436 C   0  0  0  0  0  0  0  0  0  0  0  0
    2.3116   72.0821   82.2144 C   0  0  0  0  0  0  0  0  0  0  0  0
    1.9578   70.6909   82.8647 C   0  0  0  0  0  0  0  0  0  0  0  0
    0.2264   63.4471   83.2513 O   0  0  0  0  0  0  0  0  0  0  0  0
   -0.8250   63.1968   84.2054 C   0  0  0  0  0  0  0  0  0  0  0  0
   -0.1245   63.1294   85.5523 C   0  0  0  0  0  0  0  0  0  0  0  0
 20 21  1  0  0  0
 21 19  1  0  0  0
 19  7  1  0  0  0
  7 17  1  0  0  0
  7  8  2  0  0  0
  8  9  1  0  0  0
  9 10  1  0  0  0
 11  9  1  0  0  0
 11 12  1  0  0  0
 12 13  2  0  0  0
 14 12  1  0  0  0
 15 14  2  0  0  0
 16 17  1  0  0  0
 16 15  1  0  0  0
 16 18  1  0  0  0
 17 11  2  0  0  0
  1 15  1  0  0  0
  1  6  1  0  0  0
  2  1  2  0  0  0
  3  2  1  0  0  0
  3  4  2  0  0  0
  4  5  1  0  0  0
  5  6  2  0  0  0
  6 32  1  0  0  0
 32 33  1  0  0  0
 33 34  1  0  0  0
 22 24  2  0  0  0
 22 25  1  0  0  0
 22  3  1  0  0  0
 23 22  2  0  0  0
 25 26  1  0  0  0
 27 26  1  0  0  0
 28 29  1  0  0  0
 28 27  1  0  0  0
 30 28  1  0  0  0
 30 31  1  0  0  0
 31 25  1  0  0  0
M  END
> <minimizedAffinity>
-8.91196

$$$$
/home/hjpark/lecture_drug1/0905_agent/pde5_harness/sample_run/structures/work/ligand_ref.pdb


 34 37  0  0  0  0  0  0  0  0999 V2000
    0.2733   65.0124   80.9548 C   0  0  0  0  0  0  0  0  0  0  0  0
    0.5430   66.2682   80.2846 C   0  0  0  0  0  0  0  0  0  0  0  0
    1.0835   67.4130   81.0145 C   0  0  0  0  0  0  0  0  0  0  0  0
    1.3515   67.2345   82.4770 C   0  0  0  0  0  0  0  0  0  0  0  0
    1.0862   65.9784   83.1706 C   0  0  0  0  0  0  0  0  0  0  0  0
    0.5322   64.8316   82.4255 C   0  0  0  0  0  0  0  0  0  0  0  0
   -2.8560   61.3268   79.6655 C   0  0  0  0  0  0  0  0  0  0  0  0
   -2.8535   60.5320   78.5117 N   0  0  0  0  0  0  0  0  0  0  0  0
   -1.8161   60.9134   77.7108 N   0  0  0  0  0  0  0  0  0  0  0  0
   -1.5326   60.2758   76.4222 C   0  0  0  0  0  0  0  0  0  0  0  0
   -1.1658   61.9403   78.3470 C   0  0  0  0  0  0  0  0  0  0  0  0
   -0.0236   62.7457   78.0175 C   0  0  0  0  0  0  0  0  0  0  0  0
    0.6069   62.6125   76.9940 O   0  0  0  0  0  0  0  0  0  0  0  0
    0.3813   63.7266   78.9204 N   0  0  0  0  0  0  0  0  0  0  0  0
   -0.2646   63.9803   80.1385 C   0  0  0  0  0  0  0  0  0  0  0  0
   -1.3851   63.2238   80.5011 N   0  0  0  0  0  0  0  0  0  0  0  0
   -1.8101   62.2157   79.5899 C   0  0  0  0  0  0  0  0  0  0  0  0
   -1.8588   63.3819   81.3495 H   0  0  0  0  0  0  0  0  0  0  0  0
   -3.8458   61.2161   80.7800 C   0  0  0  0  0  0  0  0  0  0  0  0
   -3.1157   60.6073   83.1439 C   0  0  0  0  0  0  0  0  0  0  0  0
   -3.1955   60.1400   81.7155 C   0  0  0  0  0  0  0  0  0  0  0  0
    1.3594   68.8125   80.2873 S   0  0  0  0  0  0  0  0  0  0  0  0
    1.9978   68.7530   79.1333 O   0  0  0  0  0  0  0  0  0  0  0  0
    0.2141   69.3921   80.0142 O   0  0  0  0  0  0  0  0  0  0  0  0
    2.1773   69.5713   81.4204 N   0  0  0  0  0  0  0  0  0  0  0  0
    1.5547   70.9456   81.8861 C   0  0  0  0  0  0  0  0  0  0  0  0
    1.8723   72.1906   81.0355 C   0  0  0  0  0  0  0  0  0  0  0  0
    3.2600   72.2678   80.4657 N   0  0  0  0  0  0  0  0  0  0  0  0
    3.9666   73.4206   81.1059 C   0  0  0  0  0  0  0  0  0  0  0  0
    4.1606   71.0315   80.5203 C   0  0  0  0  0  0  0  0  0  0  0  0
    3.6769   69.7911   81.3633 C   0  0  0  0  0  0  0  0  0  0  0  0
    0.2139   63.5546   83.0278 O   0  0  0  0  0  0  0  0  0  0  0  0
   -0.7393   63.3558   84.0909 C   0  0  0  0  0  0  0  0  0  0  0  0
   -0.2285   62.1452   84.8544 C   0  0  0  0  0  0  0  0  0  0  0  0
 20 21  1  0  0  0
 21 19  1  0  0  0
 19  7  1  0  0  0
  7 17  1  0  0  0
  7  8  2  0  0  0
  8  9  1  0  0  0
  9 10  1  0  0  0
 11  9  1  0  0  0
 11 12  1  0  0  0
 12 13  2  0  0  0
 14 12  1  0  0  0
 15 14  2  0  0  0
 16 17  1  0  0  0
 16 15  1  0  0  0
 16 18  1  0  0  0
 17 11  2  0  0  0
  1 15  1  0  0  0
  1  6  1  0  0  0
  2  1  2  0  0  0
  3  2  1  0  0  0
  3  4  2  0  0  0
  4  5  1  0  0  0
  5  6  2  0  0  0
  6 32  1  0  0  0
 32 33  1  0  0  0
 33 34  1  0  0  0
 22 24  2  0  0  0
 22 25  1  0  0  0
 22  3  1  0  0  0
 23 22  2  0  0  0
 25 26  1  0  0  0
 27 26  1  0  0  0
 28 29  1  0  0  0
 28 27  1  0  0  0
 30 28  1  0  0  0
 30 31  1  0  0  0
 31 25  1  0  0  0
M  END
> <minimizedAffinity>
-8.88935

$$$$
/home/hjpark/lecture_drug1/0905_agent/pde5_harness/sample_run/structures/work/ligand_ref.pdb


 34 37  0  0  0  0  0  0  0  0999 V2000
    0.5174   65.3302   82.4757 C   0  0  0  0  0  0  0  0  0  0  0  0
    0.6330   66.4609   81.5774 C   0  0  0  0  0  0  0  0  0  0  0  0
    1.2789   67.7007   82.0029 C   0  0  0  0  0  0  0  0  0  0  0  0
    1.8194   67.7531   83.3986 C   0  0  0  0  0  0  0  0  0  0  0  0
    1.7125   66.6257   84.3188 C   0  0  0  0  0  0  0  0  0  0  0  0
    1.0505   65.3817   83.8813 C   0  0  0  0  0  0  0  0  0  0  0  0
   -0.6441   61.8492   79.0740 C   0  0  0  0  0  0  0  0  0  0  0  0
   -1.5582   60.7918   79.1719 N   0  0  0  0  0  0  0  0  0  0  0  0
   -2.1402   60.8197   80.4062 N   0  0  0  0  0  0  0  0  0  0  0  0
   -3.1490   59.8447   80.8299 C   0  0  0  0  0  0  0  0  0  0  0  0
   -1.6023   61.8823   81.0872 C   0  0  0  0  0  0  0  0  0  0  0  0
   -1.8027   62.4206   82.4031 C   0  0  0  0  0  0  0  0  0  0  0  0
   -2.5775   61.9457   83.2013 O   0  0  0  0  0  0  0  0  0  0  0  0
   -1.0726   63.5459   82.7797 N   0  0  0  0  0  0  0  0  0  0  0  0
   -0.1444   64.1880   81.9480 C   0  0  0  0  0  0  0  0  0  0  0  0
    0.0881   63.6972   80.6579 N   0  0  0  0  0  0  0  0  0  0  0  0
   -0.6521   62.5489   80.2572 C   0  0  0  0  0  0  0  0  0  0  0  0
    0.7355   64.1274   80.0537 H   0  0  0  0  0  0  0  0  0  0  0  0
    0.1970   62.1463   77.8747 C   0  0  0  0  0  0  0  0  0  0  0  0
   -0.5271   64.4473   77.0546 C   0  0  0  0  0  0  0  0  0  0  0  0
   -0.7780   62.9663   76.9620 C   0  0  0  0  0  0  0  0  0  0  0  0
    1.3872   68.9642   81.0255 S   0  0  0  0  0  0  0  0  0  0  0  0
    1.7691   68.7114   79.7873 O   0  0  0  0  0  0  0  0  0  0  0  0
    0.2067   69.5257   80.9106 O   0  0  0  0  0  0  0  0  0  0  0  0
    2.4206   69.8656   81.8308 N   0  0  0  0  0  0  0  0  0  0  0  0
    1.9176   71.3258   82.1596 C   0  0  0  0  0  0  0  0  0  0  0  0
    2.0766   72.3933   81.0599 C   0  0  0  0  0  0  0  0  0  0  0  0
    3.3261   72.3097   80.2305 N   0  0  0  0  0  0  0  0  0  0  0  0
    4.1581   73.5207   80.5122 C   0  0  0  0  0  0  0  0  0  0  0  0
    4.2054   71.0606   80.3268 C   0  0  0  0  0  0  0  0  0  0  0  0
    3.8822   70.0040   81.4504 C   0  0  0  0  0  0  0  0  0  0  0  0
    0.8748   64.2199   84.7263 O   0  0  0  0  0  0  0  0  0  0  0  0
    0.6742   64.2573   86.1534 C   0  0  0  0  0  0  0  0  0  0  0  0
   -0.5276   63.3618   86.4043 C   0  0  0  0  0  0  0  0  0  0  0  0
 20 21  1  0  0  0
 21 19  1  0  0  0
 19  7  1  0  0  0
  7 17  1  0  0  0
  7  8  2  0  0  0
  8  9  1  0  0  0
  9 10  1  0  0  0
 11  9  1  0  0  0
 11 12  1  0  0  0
 12 13  2  0  0  0
 14 12  1  0  0  0
 15 14  2  0  0  0
 16 17  1  0  0  0
 16 15  1  0  0  0
 16 18  1  0  0  0
 17 11  2  0  0  0
  1 15  1  0  0  0
  1  6  1  0  0  0
  2  1  2  0  0  0
  3  2  1  0  0  0
  3  4  2  0  0  0
  4  5  1  0  0  0
  5  6  2  0  0  0
  6 32  1  0  0  0
 32 33  1  0  0  0
 33 34  1  0  0  0
 22 24  2  0  0  0
 22 25  1  0  0  0
 22  3  1  0  0  0
 23 22  2  0  0  0
 25 26  1  0  0  0
 27 26  1  0  0  0
 28 29  1  0  0  0
 28 27  1  0  0  0
 30 28  1  0  0  0
 30 31  1  0  0  0
 31 25  1  0  0  0
M  END
> <minimizedAffinity>
-8.66274

$$$$
/home/hjpark/lecture_drug1/0905_agent/pde5_harness/sample_run/structures/work/ligand_ref.pdb


 34 37  0  0  0  0  0  0  0  0999 V2000
    0.3075   64.3621   83.0933 C   0  0  0  0  0  0  0  0  0  0  0  0
    1.3276   65.3906   83.0721 C   0  0  0  0  0  0  0  0  0  0  0  0
    1.8840   65.9281   84.3118 C   0  0  0  0  0  0  0  0  0  0  0  0
    1.3626   65.3711   85.6004 C   0  0  0  0  0  0  0  0  0  0  0  0
    0.3353   64.3358   85.6432 C   0  0  0  0  0  0  0  0  0  0  0  0
   -0.2257   63.8063   84.3853 C   0  0  0  0  0  0  0  0  0  0  0  0
   -2.7206   62.0510   79.8487 C   0  0  0  0  0  0  0  0  0  0  0  0
   -2.6204   61.9705   78.4535 N   0  0  0  0  0  0  0  0  0  0  0  0
   -1.5124   62.6560   78.0467 N   0  0  0  0  0  0  0  0  0  0  0  0
   -1.1190   62.7647   76.6392 C   0  0  0  0  0  0  0  0  0  0  0  0
   -0.9142   63.1682   79.1701 C   0  0  0  0  0  0  0  0  0  0  0  0
    0.2589   63.9657   79.3927 C   0  0  0  0  0  0  0  0  0  0  0  0
    0.9778   64.3490   78.4987 O   0  0  0  0  0  0  0  0  0  0  0  0
    0.5883   64.3134   80.7010 N   0  0  0  0  0  0  0  0  0  0  0  0
   -0.1626   63.9329   81.8221 C   0  0  0  0  0  0  0  0  0  0  0  0
   -1.3167   63.1588   81.6547 N   0  0  0  0  0  0  0  0  0  0  0  0
   -1.6656   62.7932   80.3236 C   0  0  0  0  0  0  0  0  0  0  0  0
   -1.8636   62.8792   82.4241 H   0  0  0  0  0  0  0  0  0  0  0  0
   -3.8073   61.4313   80.6666 C   0  0  0  0  0  0  0  0  0  0  0  0
   -2.9671   60.0116   82.6082 C   0  0  0  0  0  0  0  0  0  0  0  0
   -3.1696   60.0729   81.1182 C   0  0  0  0  0  0  0  0  0  0  0  0
    2.9923   67.0836   84.2979 S   0  0  0  0  0  0  0  0  0  0  0  0
    3.5589   67.3327   83.1318 O   0  0  0  0  0  0  0  0  0  0  0  0
    2.4400   68.2182   84.6583 O   0  0  0  0  0  0  0  0  0  0  0  0
    4.0091   66.5227   85.3843 N   0  0  0  0  0  0  0  0  0  0  0  0
    4.9334   67.6113   86.0580 C   0  0  0  0  0  0  0  0  0  0  0  0
    6.2092   68.0240   85.2988 C   0  0  0  0  0  0  0  0  0  0  0  0
    6.9277   66.9281   84.5648 N   0  0  0  0  0  0  0  0  0  0  0  0
    8.2577   66.7199   85.2175 C   0  0  0  0  0  0  0  0  0  0  0  0
    6.2386   65.5738   84.3821 C   0  0  0  0  0  0  0  0  0  0  0  0
    4.8912   65.3103   85.1558 C   0  0  0  0  0  0  0  0  0  0  0  0
   -1.2622   62.7980   84.3244 O   0  0  0  0  0  0  0  0  0  0  0  0
   -2.4786   62.8139   85.0981 C   0  0  0  0  0  0  0  0  0  0  0  0
   -2.1096   62.1660   86.4223 C   0  0  0  0  0  0  0  0  0  0  0  0
 20 21  1  0  0  0
 21 19  1  0  0  0
 19  7  1  0  0  0
  7 17  1  0  0  0
  7  8  2  0  0  0
  8  9  1  0  0  0
  9 10  1  0  0  0
 11  9  1  0  0  0
 11 12  1  0  0  0
 12 13  2  0  0  0
 14 12  1  0  0  0
 15 14  2  0  0  0
 16 17  1  0  0  0
 16 15  1  0  0  0
 16 18  1  0  0  0
 17 11  2  0  0  0
  1 15  1  0  0  0
  1  6  1  0  0  0
  2  1  2  0  0  0
  3  2  1  0  0  0
  3  4  2  0  0  0
  4  5  1  0  0  0
  5  6  2  0  0  0
  6 32  1  0  0  0
 32 33  1  0  0  0
 33 34  1  0  0  0
 22 24  2  0  0  0
 22 25  1  0  0  0
 22  3  1  0  0  0
 23 22  2  0  0  0
 25 26  1  0  0  0
 27 26  1  0  0  0
 28 29  1  0  0  0
 28 27  1  0  0  0
 30 28  1  0  0  0
 30 31  1  0  0  0
 31 25  1  0  0  0
M  END
> <minimizedAffinity>
-8.62661

$$$$
/home/hjpark/lecture_drug1/0905_agent/pde5_harness/sample_run/structures/work/ligand_ref.pdb


 34 37  0  0  0  0  0  0  0  0999 V2000
    1.0272   65.5338   83.1463 C   0  0  0  0  0  0  0  0  0  0  0  0
    0.6132   64.9727   81.8763 C   0  0  0  0  0  0  0  0  0  0  0  0
    0.8861   65.6662   80.6194 C   0  0  0  0  0  0  0  0  0  0  0  0
    1.6132   66.9732   80.6964 C   0  0  0  0  0  0  0  0  0  0  0  0
    2.0380   67.5553   81.9651 C   0  0  0  0  0  0  0  0  0  0  0  0
    1.7494   66.8506   83.2290 C   0  0  0  0  0  0  0  0  0  0  0  0
   -1.6919   62.4232   85.9693 C   0  0  0  0  0  0  0  0  0  0  0  0
   -1.4520   61.9835   87.2778 N   0  0  0  0  0  0  0  0  0  0  0  0
   -0.2923   62.5437   87.7299 N   0  0  0  0  0  0  0  0  0  0  0  0
    0.2430   62.2873   89.0698 C   0  0  0  0  0  0  0  0  0  0  0  0
    0.2013   63.3307   86.7203 C   0  0  0  0  0  0  0  0  0  0  0  0
    1.3669   64.1587   86.5883 C   0  0  0  0  0  0  0  0  0  0  0  0
    2.1861   64.2932   87.4680 O   0  0  0  0  0  0  0  0  0  0  0  0
    1.5643   64.8434   85.3911 N   0  0  0  0  0  0  0  0  0  0  0  0
    0.6903   64.7704   84.2973 C   0  0  0  0  0  0  0  0  0  0  0  0
   -0.4572   63.9728   84.3773 N   0  0  0  0  0  0  0  0  0  0  0  0
   -0.6743   63.2684   85.5954 C   0  0  0  0  0  0  0  0  0  0  0  0
   -1.0868   63.9019   83.6239 H   0  0  0  0  0  0  0  0  0  0  0  0
   -2.8632   62.0221   85.1319 C   0  0  0  0  0  0  0  0  0  0  0  0
   -2.9967   60.6928   82.9624 C   0  0  0  0  0  0  0  0  0  0  0  0
   -2.2058   61.7064   83.7449 C   0  0  0  0  0  0  0  0  0  0  0  0
    0.4087   65.0663   79.2138 S   0  0  0  0  0  0  0  0  0  0  0  0
   -0.6406   65.6452   78.6601 O   0  0  0  0  0  0  0  0  0  0  0  0
    1.3746   65.1989   78.3355 O   0  0  0  0  0  0  0  0  0  0  0  0
    0.1501   63.5504   79.6186 N   0  0  0  0  0  0  0  0  0  0  0  0
    0.8214   62.4822   78.6691 C   0  0  0  0  0  0  0  0  0  0  0  0
    0.0657   62.1078   77.3795 C   0  0  0  0  0  0  0  0  0  0  0  0
   -1.4305   62.0302   77.4866 N   0  0  0  0  0  0  0  0  0  0  0  0
   -1.8427   60.6076   77.2765 C   0  0  0  0  0  0  0  0  0  0  0  0
   -2.1197   62.5747   78.7401 C   0  0  0  0  0  0  0  0  0  0  0  0
   -1.2205   62.9995   79.9626 C   0  0  0  0  0  0  0  0  0  0  0  0
    2.1084   67.3570   84.5365 O   0  0  0  0  0  0  0  0  0  0  0  0
    3.2426   68.2026   84.8136 C   0  0  0  0  0  0  0  0  0  0  0  0
    4.4342   67.2603   84.8528 C   0  0  0  0  0  0  0  0  0  0  0  0
 20 21  1  0  0  0
 21 19  1  0  0  0
 19  7  1  0  0  0
  7 17  1  0  0  0
  7  8  2  0  0  0
  8  9  1  0  0  0
  9 10  1  0  0  0
 11  9  1  0  0  0
 11 12  1  0  0  0
 12 13  2  0  0  0
 14 12  1  0  0  0
 15 14  2  0  0  0
 16 17  1  0  0  0
 16 15  1  0  0  0
 16 18  1  0  0  0
 17 11  2  0  0  0
  1 15  1  0  0  0
  1  6  1  0  0  0
  2  1  2  0  0  0
  3  2  1  0  0  0
  3  4  2  0  0  0
  4  5  1  0  0  0
  5  6  2  0  0  0
  6 32  1  0  0  0
 32 33  1  0  0  0
 33 34  1  0  0  0
 22 24  2  0  0  0
 22 25  1  0  0  0
 22  3  1  0  0  0
 23 22  2  0  0  0
 25 26  1  0  0  0
 27 26  1  0  0  0
 28 29  1  0  0  0
 28 27  1  0  0  0
 30 28  1  0  0  0
 30 31  1  0  0  0
 31 25  1  0  0  0
M  END
> <minimizedAffinity>
-8.57720

$$$$
/home/hjpark/lecture_drug1/0905_agent/pde5_harness/sample_run/structures/work/ligand_ref.pdb


 34 37  0  0  0  0  0  0  0  0999 V2000
    1.2525   66.2067   81.9360 C   0  0  0  0  0  0  0  0  0  0  0  0
    1.7070   67.4208   81.2892 C   0  0  0  0  0  0  0  0  0  0  0  0
    2.3273   68.4986   82.0565 C   0  0  0  0  0  0  0  0  0  0  0  0
    2.4786   68.2959   83.5326 C   0  0  0  0  0  0  0  0  0  0  0  0
    2.0270   67.0810   84.2030 C   0  0  0  0  0  0  0  0  0  0  0  0
    1.3940   66.0027   83.4195 C   0  0  0  0  0  0  0  0  0  0  0  0
   -0.7960   61.8169   80.6824 C   0  0  0  0  0  0  0  0  0  0  0  0
   -1.2674   61.3889   79.4343 N   0  0  0  0  0  0  0  0  0  0  0  0
   -1.0937   62.3920   78.5251 N   0  0  0  0  0  0  0  0  0  0  0  0
   -1.4836   62.2640   77.1182 C   0  0  0  0  0  0  0  0  0  0  0  0
   -0.5191   63.4475   79.1869 C   0  0  0  0  0  0  0  0  0  0  0  0
   -0.1027   64.7615   78.7850 C   0  0  0  0  0  0  0  0  0  0  0  0
   -0.2187   65.1755   77.6544 O   0  0  0  0  0  0  0  0  0  0  0  0
    0.4651   65.6008   79.7412 N   0  0  0  0  0  0  0  0  0  0  0  0
    0.6532   65.2402   81.0828 C   0  0  0  0  0  0  0  0  0  0  0  0
    0.2592   63.9711   81.5226 N   0  0  0  0  0  0  0  0  0  0  0  0
   -0.3208   63.1006   80.5567 C   0  0  0  0  0  0  0  0  0  0  0  0
    0.3779   63.6925   82.4593 H   0  0  0  0  0  0  0  0  0  0  0  0
   -0.8214   61.0001   81.9338 C   0  0  0  0  0  0  0  0  0  0  0  0
   -3.1536   60.2989   82.6826 C   0  0  0  0  0  0  0  0  0  0  0  0
   -2.1696   61.4349   82.6042 C   0  0  0  0  0  0  0  0  0  0  0  0
    2.8080   69.8546   81.3539 S   0  0  0  0  0  0  0  0  0  0  0  0
    4.1109   69.9991   81.1977 O   0  0  0  0  0  0  0  0  0  0  0  0
    2.3102   69.9144   80.1412 O   0  0  0  0  0  0  0  0  0  0  0  0
    2.1687   70.9312   82.3342 N   0  0  0  0  0  0  0  0  0  0  0  0
    0.6849   71.3483   81.9911 C   0  0  0  0  0  0  0  0  0  0  0  0
    0.4858   72.4334   80.9153 C   0  0  0  0  0  0  0  0  0  0  0  0
    1.4915   73.5490   80.9048 N   0  0  0  0  0  0  0  0  0  0  0  0
    0.7896   74.8167   81.2768 C   0  0  0  0  0  0  0  0  0  0  0  0
    2.7661   73.4146   81.7412 C   0  0  0  0  0  0  0  0  0  0  0  0
    2.8753   72.2077   82.7486 C   0  0  0  0  0  0  0  0  0  0  0  0
    0.8933   64.7728   83.9953 O   0  0  0  0  0  0  0  0  0  0  0  0
    0.5273   64.5956   85.3784 C   0  0  0  0  0  0  0  0  0  0  0  0
   -0.3467   63.3526   85.3967 C   0  0  0  0  0  0  0  0  0  0  0  0
 20 21  1  0  0  0
 21 19  1  0  0  0
 19  7  1  0  0  0
  7 17  1  0  0  0
  7  8  2  0  0  0
  8  9  1  0  0  0
  9 10  1  0  0  0
 11  9  1  0  0  0
 11 12  1  0  0  0
 12 13  2  0  0  0
 14 12  1  0  0  0
 15 14  2  0  0  0
 16 17  1  0  0  0
 16 15  1  0  0  0
 16 18  1  0  0  0
 17 11  2  0  0  0
  1 15  1  0  0  0
  1  6  1  0  0  0
  2  1  2  0  0  0
  3  2  1  0  0  0
  3  4  2  0  0  0
  4  5  1  0  0  0
  5  6  2  0  0  0
  6 32  1  0  0  0
 32 33  1  0  0  0
 33 34  1  0  0  0
 22 24  2  0  0  0
 22 25  1  0  0  0
 22  3  1  0  0  0
 23 22  2  0  0  0
 25 26  1  0  0  0
 27 26  1  0  0  0
 28 29  1  0  0  0
 28 27  1  0  0  0
 30 28  1  0  0  0
 30 31  1  0  0  0
 31 25  1  0  0  0
M  END
> <minimizedAffinity>
-8.54925

$$$$
/home/hjpark/lecture_drug1/0905_agent/pde5_harness/sample_run/structures/work/ligand_ref.pdb


 34 37  0  0  0  0  0  0  0  0999 V2000
    0.5044   65.5006   81.7701 C   0  0  0  0  0  0  0  0  0  0  0  0
    1.1772   66.0719   82.9190 C   0  0  0  0  0  0  0  0  0  0  0  0
    1.9962   67.2755   82.7933 C   0  0  0  0  0  0  0  0  0  0  0  0
    2.1072   67.8956   81.4346 C   0  0  0  0  0  0  0  0  0  0  0  0
    1.4381   67.3355   80.2651 C   0  0  0  0  0  0  0  0  0  0  0  0
    0.6206   66.1147   80.4019 C   0  0  0  0  0  0  0  0  0  0  0  0
   -2.2233   62.2635   84.4381 C   0  0  0  0  0  0  0  0  0  0  0  0
   -2.7714   61.0365   84.0417 N   0  0  0  0  0  0  0  0  0  0  0  0
   -2.4535   60.8089   82.7339 N   0  0  0  0  0  0  0  0  0  0  0  0
   -2.8759   59.6051   82.0126 C   0  0  0  0  0  0  0  0  0  0  0  0
   -1.7121   61.8794   82.3020 C   0  0  0  0  0  0  0  0  0  0  0  0
   -1.0995   62.2202   81.0489 C   0  0  0  0  0  0  0  0  0  0  0  0
   -1.1629   61.5153   80.0680 O   0  0  0  0  0  0  0  0  0  0  0  0
   -0.3952   63.4188   80.9571 N   0  0  0  0  0  0  0  0  0  0  0  0
   -0.2496   64.3216   82.0198 C   0  0  0  0  0  0  0  0  0  0  0  0
   -0.8327   64.0347   83.2595 N   0  0  0  0  0  0  0  0  0  0  0  0
   -1.5540   62.8121   83.3702 C   0  0  0  0  0  0  0  0  0  0  0  0
   -0.7478   64.6515   84.0220 H   0  0  0  0  0  0  0  0  0  0  0  0
   -2.3614   62.8633   85.8001 C   0  0  0  0  0  0  0  0  0  0  0  0
   -0.4794   63.6097   87.3470 C   0  0  0  0  0  0  0  0  0  0  0  0
   -0.9992   62.4937   86.4813 C   0  0  0  0  0  0  0  0  0  0  0  0
    2.7646   67.8981   84.0524 S   0  0  0  0  0  0  0  0  0  0  0  0
    2.9476   69.2054   84.0346 O   0  0  0  0  0  0  0  0  0  0  0  0
    2.0710   67.6655   85.1419 O   0  0  0  0  0  0  0  0  0  0  0  0
    4.1225   67.0721   84.0004 N   0  0  0  0  0  0  0  0  0  0  0  0
    4.0404   65.6146   84.6020 C   0  0  0  0  0  0  0  0  0  0  0  0
    4.1884   65.4701   86.1290 C   0  0  0  0  0  0  0  0  0  0  0  0
    5.1762   66.3890   86.7893 N   0  0  0  0  0  0  0  0  0  0  0  0
    6.2971   65.5605   87.3325 C   0  0  0  0  0  0  0  0  0  0  0  0
    5.7555   67.5606   85.9929 C   0  0  0  0  0  0  0  0  0  0  0  0
    5.4592   67.6327   84.4468 C   0  0  0  0  0  0  0  0  0  0  0  0
   -0.0612   65.4713   79.2992 O   0  0  0  0  0  0  0  0  0  0  0  0
    0.5800   64.9684   78.1100 C   0  0  0  0  0  0  0  0  0  0  0  0
   -0.5540   64.4445   77.2446 C   0  0  0  0  0  0  0  0  0  0  0  0
 20 21  1  0  0  0
 21 19  1  0  0  0
 19  7  1  0  0  0
  7 17  1  0  0  0
  7  8  2  0  0  0
  8  9  1  0  0  0
  9 10  1  0  0  0
 11  9  1  0  0  0
 11 12  1  0  0  0
 12 13  2  0  0  0
 14 12  1  0  0  0
 15 14  2  0  0  0
 16 17  1  0  0  0
 16 15  1  0  0  0
 16 18  1  0  0  0
 17 11  2  0  0  0
  1 15  1  0  0  0
  1  6  1  0  0  0
  2  1  2  0  0  0
  3  2  1  0  0  0
  3  4  2  0  0  0
  4  5  1  0  0  0
  5  6  2  0  0  0
  6 32  1  0  0  0
 32 33  1  0  0  0
 33 34  1  0  0  0
 22 24  2  0  0  0
 22 25  1  0  0  0
 22  3  1  0  0  0
 23 22  2  0  0  0
 25 26  1  0  0  0
 27 26  1  0  0  0
 28 29  1  0  0  0
 28 27  1  0  0  0
 30 28  1  0  0  0
 30 31  1  0  0  0
 31 25  1  0  0  0
M  END
> <minimizedAffinity>
-8.53869

$$$$
/home/hjpark/lecture_drug1/0905_agent/pde5_harness/sample_run/structures/work/ligand_ref.pdb


 34 37  0  0  0  0  0  0  0  0999 V2000
    0.8175   66.3138   81.9822 C   0  0  0  0  0  0  0  0  0  0  0  0
    0.9031   67.6526   81.4350 C   0  0  0  0  0  0  0  0  0  0  0  0
    1.4826   68.7488   82.2081 C   0  0  0  0  0  0  0  0  0  0  0  0
    1.9876   68.4325   83.5821 C   0  0  0  0  0  0  0  0  0  0  0  0
    1.9100   67.0913   84.1514 C   0  0  0  0  0  0  0  0  0  0  0  0
    1.3149   65.9936   83.3651 C   0  0  0  0  0  0  0  0  0  0  0  0
   -1.9978   62.3467   80.8099 C   0  0  0  0  0  0  0  0  0  0  0  0
   -2.2123   61.7578   79.5568 N   0  0  0  0  0  0  0  0  0  0  0  0
   -1.5107   62.4511   78.6133 N   0  0  0  0  0  0  0  0  0  0  0  0
   -1.5193   62.0894   77.1932 C   0  0  0  0  0  0  0  0  0  0  0  0
   -0.8574   63.4708   79.2581 C   0  0  0  0  0  0  0  0  0  0  0  0
    0.0182   64.5210   78.8199 C   0  0  0  0  0  0  0  0  0  0  0  0
    0.3430   64.6728   77.6647 O   0  0  0  0  0  0  0  0  0  0  0  0
    0.5212   65.4073   79.7698 N   0  0  0  0  0  0  0  0  0  0  0  0
    0.2201   65.3389   81.1374 C   0  0  0  0  0  0  0  0  0  0  0  0
   -0.6323   64.3350   81.6114 N   0  0  0  0  0  0  0  0  0  0  0  0
   -1.1529   63.4196   80.6531 C   0  0  0  0  0  0  0  0  0  0  0  0
   -0.8619   64.2647   82.5661 H   0  0  0  0  0  0  0  0  0  0  0  0
   -2.6031   61.8757   82.0927 C   0  0  0  0  0  0  0  0  0  0  0  0
   -2.9246   59.3523   82.2371 C   0  0  0  0  0  0  0  0  0  0  0  0
   -3.4455   60.6331   81.6429 C   0  0  0  0  0  0  0  0  0  0  0  0
    1.5568   70.2367   81.6214 S   0  0  0  0  0  0  0  0  0  0  0  0
    1.3074   70.3669   80.3316 O   0  0  0  0  0  0  0  0  0  0  0  0
    0.6589   70.9838   82.2196 O   0  0  0  0  0  0  0  0  0  0  0  0
    3.0459   70.6302   82.0171 N   0  0  0  0  0  0  0  0  0  0  0  0
    3.2631   72.1549   82.3652 C   0  0  0  0  0  0  0  0  0  0  0  0
    3.4812   73.1253   81.1883 C   0  0  0  0  0  0  0  0  0  0  0  0
    4.2932   72.6010   80.0385 N   0  0  0  0  0  0  0  0  0  0  0  0
    5.5680   73.3810   79.9703 C   0  0  0  0  0  0  0  0  0  0  0  0
    4.6129   71.1058   79.9692 C   0  0  0  0  0  0  0  0  0  0  0  0
    4.2626   70.2080   81.2160 C   0  0  0  0  0  0  0  0  0  0  0  0
    1.1720   64.6375   83.8504 O   0  0  0  0  0  0  0  0  0  0  0  0
    0.5888   64.2688   85.1163 C   0  0  0  0  0  0  0  0  0  0  0  0
   -0.1414   62.9637   84.8465 C   0  0  0  0  0  0  0  0  0  0  0  0
 20 21  1  0  0  0
 21 19  1  0  0  0
 19  7  1  0  0  0
  7 17  1  0  0  0
  7  8  2  0  0  0
  8  9  1  0  0  0
  9 10  1  0  0  0
 11  9  1  0  0  0
 11 12  1  0  0  0
 12 13  2  0  0  0
 14 12  1  0  0  0
 15 14  2  0  0  0
 16 17  1  0  0  0
 16 15  1  0  0  0
 16 18  1  0  0  0
 17 11  2  0  0  0
  1 15  1  0  0  0
  1  6  1  0  0  0
  2  1  2  0  0  0
  3  2  1  0  0  0
  3  4  2  0  0  0
  4  5  1  0  0  0
  5  6  2  0  0  0
  6 32  1  0  0  0
 32 33  1  0  0  0
 33 34  1  0  0  0
 22 24  2  0  0  0
 22 25  1  0  0  0
 22  3  1  0  0  0
 23 22  2  0  0  0
 25 26  1  0  0  0
 27 26  1  0  0  0
 28 29  1  0  0  0
 28 27  1  0  0  0
 30 28  1  0  0  0
 30 31  1  0  0  0
 31 25  1  0  0  0
M  END
> <minimizedAffinity>
-8.48456

$$$$
/home/hjpark/lecture_drug1/0905_agent/pde5_harness/sample_run/structures/work/ligand_ref.pdb


 34 37  0  0  0  0  0  0  0  0999 V2000
    0.2187   63.6152   83.6853 C   0  0  0  0  0  0  0  0  0  0  0  0
    1.1743   64.6681   83.4072 C   0  0  0  0  0  0  0  0  0  0  0  0
    1.6877   65.5234   84.4749 C   0  0  0  0  0  0  0  0  0  0  0  0
    1.1920   65.2651   85.8643 C   0  0  0  0  0  0  0  0  0  0  0  0
    0.2295   64.2104   86.1650 C   0  0  0  0  0  0  0  0  0  0  0  0
   -0.2889   63.3582   85.0777 C   0  0  0  0  0  0  0  0  0  0  0  0
    0.0671   62.1750   78.8956 C   0  0  0  0  0  0  0  0  0  0  0  0
   -0.7383   61.1990   78.2940 N   0  0  0  0  0  0  0  0  0  0  0  0
   -1.5400   60.6360   79.2444 N   0  0  0  0  0  0  0  0  0  0  0  0
   -2.5070   59.5774   78.9410 C   0  0  0  0  0  0  0  0  0  0  0  0
   -1.2479   61.2457   80.4381 C   0  0  0  0  0  0  0  0  0  0  0  0
   -1.7431   61.0925   81.7771 C   0  0  0  0  0  0  0  0  0  0  0  0
   -2.6014   60.2952   82.0780 O   0  0  0  0  0  0  0  0  0  0  0  0
   -1.2127   61.9023   82.7792 N   0  0  0  0  0  0  0  0  0  0  0  0
   -0.2150   62.8625   82.5600 C   0  0  0  0  0  0  0  0  0  0  0  0
    0.3020   63.0452   81.2721 N   0  0  0  0  0  0  0  0  0  0  0  0
   -0.2315   62.2267   80.2364 C   0  0  0  0  0  0  0  0  0  0  0  0
    1.0041   63.7109   81.0902 H   0  0  0  0  0  0  0  0  0  0  0  0
    1.0828   63.0069   78.1814 C   0  0  0  0  0  0  0  0  0  0  0  0
    1.1617   65.4921   78.7375 C   0  0  0  0  0  0  0  0  0  0  0  0
    0.3727   64.3993   78.0679 C   0  0  0  0  0  0  0  0  0  0  0  0
    2.7234   66.7063   84.1724 S   0  0  0  0  0  0  0  0  0  0  0  0
    3.2949   66.6895   82.9825 O   0  0  0  0  0  0  0  0  0  0  0  0
    2.0964   67.8575   84.2336 O   0  0  0  0  0  0  0  0  0  0  0  0
    3.7526   66.5029   85.3674 N   0  0  0  0  0  0  0  0  0  0  0  0
    4.6952   67.7369   85.6537 C   0  0  0  0  0  0  0  0  0  0  0  0
    5.9622   67.8753   84.7878 C   0  0  0  0  0  0  0  0  0  0  0  0
    6.6613   66.5959   84.4264 N   0  0  0  0  0  0  0  0  0  0  0  0
    7.9995   66.5875   85.0952 C   0  0  0  0  0  0  0  0  0  0  0  0
    5.9594   65.2610   84.6868 C   0  0  0  0  0  0  0  0  0  0  0  0
    4.6222   65.2697   85.5205 C   0  0  0  0  0  0  0  0  0  0  0  0
   -1.2615   62.3040   85.2714 O   0  0  0  0  0  0  0  0  0  0  0  0
   -2.6274   62.5044   85.6866 C   0  0  0  0  0  0  0  0  0  0  0  0
   -2.6135   62.3011   87.1925 C   0  0  0  0  0  0  0  0  0  0  0  0
 20 21  1  0  0  0
 21 19  1  0  0  0
 19  7  1  0  0  0
  7 17  1  0  0  0
  7  8  2  0  0  0
  8  9  1  0  0  0
  9 10  1  0  0  0
 11  9  1  0  0  0
 11 12  1  0  0  0
 12 13  2  0  0  0
 14 12  1  0  0  0
 15 14  2  0  0  0
 16 17  1  0  0  0
 16 15  1  0  0  0
 16 18  1  0  0  0
 17 11  2  0  0  0
  1 15  1  0  0  0
  1  6  1  0  0  0
  2  1  2  0  0  0
  3  2  1  0  0  0
  3  4  2  0  0  0
  4  5  1  0  0  0
  5  6  2  0  0  0
  6 32  1  0  0  0
 32 33  1  0  0  0
 33 34  1  0  0  0
 22 24  2  0  0  0
 22 25  1  0  0  0
 22  3  1  0  0  0
 23 22  2  0  0  0
 25 26  1  0  0  0
 27 26  1  0  0  0
 28 29  1  0  0  0
 28 27  1  0  0  0
 30 28  1  0  0  0
 30 31  1  0  0  0
 31 25  1  0  0  0
M  END
> <minimizedAffinity>
-8.44202

$$$$
/home/hjpark/lecture_drug1/0905_agent/pde5_harness/sample_run/structures/work/ligand_ref.pdb


 34 37  0  0  0  0  0  0  0  0999 V2000
    2.4557   66.2265   84.5632 C   0  0  0  0  0  0  0  0  0  0  0  0
    2.0192   67.3256   83.7263 C   0  0  0  0  0  0  0  0  0  0  0  0
    2.9453   68.3811   83.3221 C   0  0  0  0  0  0  0  0  0  0  0  0
    4.3602   68.2784   83.8018 C   0  0  0  0  0  0  0  0  0  0  0  0
    4.8194   67.1801   84.6457 C   0  0  0  0  0  0  0  0  0  0  0  0
    3.8735   66.1242   85.0550 C   0  0  0  0  0  0  0  0  0  0  0  0
   -1.0238   62.7260   83.7401 C   0  0  0  0  0  0  0  0  0  0  0  0
   -1.8228   62.0427   84.6663 N   0  0  0  0  0  0  0  0  0  0  0  0
   -1.5139   62.4739   85.9239 N   0  0  0  0  0  0  0  0  0  0  0  0
   -2.1750   61.9561   87.1250 C   0  0  0  0  0  0  0  0  0  0  0  0
   -0.5285   63.4205   85.8002 C   0  0  0  0  0  0  0  0  0  0  0  0
    0.1988   64.2235   86.7424 C   0  0  0  0  0  0  0  0  0  0  0  0
    0.0197   64.1670   87.9373 O   0  0  0  0  0  0  0  0  0  0  0  0
    1.1556   65.1135   86.2588 N   0  0  0  0  0  0  0  0  0  0  0  0
    1.4570   65.2721   84.8989 C   0  0  0  0  0  0  0  0  0  0  0  0
    0.7770   64.5080   83.9432 N   0  0  0  0  0  0  0  0  0  0  0  0
   -0.2056   63.5954   84.4214 C   0  0  0  0  0  0  0  0  0  0  0  0
    0.9699   64.5978   82.9821 H   0  0  0  0  0  0  0  0  0  0  0  0
   -1.0643   62.5233   82.2598 C   0  0  0  0  0  0  0  0  0  0  0  0
    1.1305   61.2792   81.9032 C   0  0  0  0  0  0  0  0  0  0  0  0
   -0.3572   61.1363   82.0804 C   0  0  0  0  0  0  0  0  0  0  0  0
    2.4649   69.6133   82.4196 S   0  0  0  0  0  0  0  0  0  0  0  0
    1.3462   70.2067   82.7925 O   0  0  0  0  0  0  0  0  0  0  0  0
    3.3778   70.5554   82.4510 O   0  0  0  0  0  0  0  0  0  0  0  0
    2.3590   68.9074   80.9985 N   0  0  0  0  0  0  0  0  0  0  0  0
    1.4176   69.6351   79.9604 C   0  0  0  0  0  0  0  0  0  0  0  0
   -0.0927   69.3425   80.0488 C   0  0  0  0  0  0  0  0  0  0  0  0
   -0.4756   67.9313   80.3927 N   0  0  0  0  0  0  0  0  0  0  0  0
   -1.1669   67.3312   79.2095 C   0  0  0  0  0  0  0  0  0  0  0  0
    0.6013   66.9646   80.8909 C   0  0  0  0  0  0  0  0  0  0  0  0
    2.1075   67.4225   80.8198 C   0  0  0  0  0  0  0  0  0  0  0  0
    4.2268   65.0094   85.9077 O   0  0  0  0  0  0  0  0  0  0  0  0
    5.5070   64.8286   86.5455 C   0  0  0  0  0  0  0  0  0  0  0  0
    5.3611   65.4813   87.9100 C   0  0  0  0  0  0  0  0  0  0  0  0
 20 21  1  0  0  0
 21 19  1  0  0  0
 19  7  1  0  0  0
  7 17  1  0  0  0
  7  8  2  0  0  0
  8  9  1  0  0  0
  9 10  1  0  0  0
 11  9  1  0  0  0
 11 12  1  0  0  0
 12 13  2  0  0  0
 14 12  1  0  0  0
 15 14  2  0  0  0
 16 17  1  0  0  0
 16 15  1  0  0  0
 16 18  1  0  0  0
 17 11  2  0  0  0
  1 15  1  0  0  0
  1  6  1  0  0  0
  2  1  2  0  0  0
  3  2  1  0  0  0
  3  4  2  0  0  0
  4  5  1  0  0  0
  5  6  2  0  0  0
  6 32  1  0  0  0
 32 33  1  0  0  0
 33 34  1  0  0  0
 22 24  2  0  0  0
 22 25  1  0  0  0
 22  3  1  0  0  0
 23 22  2  0  0  0
 25 26  1  0  0  0
 27 26  1  0  0  0
 28 29  1  0  0  0
 28 27  1  0  0  0
 30 28  1  0  0  0
 30 31  1  0  0  0
 31 25  1  0  0  0
M  END
> <minimizedAffinity>
-8.31993

$$$$
/home/hjpark/lecture_drug1/0905_agent/pde5_harness/sample_run/structures/work/ligand_ref.pdb


 34 37  0  0  0  0  0  0  0  0999 V2000
    0.9412   66.8731   81.2205 C   0  0  0  0  0  0  0  0  0  0  0  0
    0.5902   66.2218   79.9749 C   0  0  0  0  0  0  0  0  0  0  0  0
    0.2427   64.8030   79.9362 C   0  0  0  0  0  0  0  0  0  0  0  0
    0.2589   64.0533   81.2325 C   0  0  0  0  0  0  0  0  0  0  0  0
    0.6102   64.6905   82.4973 C   0  0  0  0  0  0  0  0  0  0  0  0
    0.9678   66.1219   82.5233 C   0  0  0  0  0  0  0  0  0  0  0  0
    0.1036   71.8002   80.9735 C   0  0  0  0  0  0  0  0  0  0  0  0
    1.0278   72.8461   80.8512 N   0  0  0  0  0  0  0  0  0  0  0  0
    2.2881   72.3235   80.8084 N   0  0  0  0  0  0  0  0  0  0  0  0
    3.4879   73.1553   80.6812 C   0  0  0  0  0  0  0  0  0  0  0  0
    2.1679   70.9602   80.9035 C   0  0  0  0  0  0  0  0  0  0  0  0
    3.1139   69.8801   80.9178 C   0  0  0  0  0  0  0  0  0  0  0  0
    4.3093   70.0464   80.8390 O   0  0  0  0  0  0  0  0  0  0  0  0
    2.6335   68.5766   81.0247 N   0  0  0  0  0  0  0  0  0  0  0  0
    1.2733   68.2520   81.1236 C   0  0  0  0  0  0  0  0  0  0  0  0
    0.3139   69.2713   81.1182 N   0  0  0  0  0  0  0  0  0  0  0  0
    0.7888   70.6090   81.0072 C   0  0  0  0  0  0  0  0  0  0  0  0
   -0.6476   69.0720   81.1881 H   0  0  0  0  0  0  0  0  0  0  0  0
   -1.3786   71.9723   81.0593 C   0  0  0  0  0  0  0  0  0  0  0  0
   -2.8261   72.4224   79.0114 C   0  0  0  0  0  0  0  0  0  0  0  0
   -1.6869   72.9272   79.8555 C   0  0  0  0  0  0  0  0  0  0  0  0
   -0.1206   64.0693   78.5603 S   0  0  0  0  0  0  0  0  0  0  0  0
   -0.8496   64.7626   77.7056 O   0  0  0  0  0  0  0  0  0  0  0  0
    0.9863   63.7871   77.9142 O   0  0  0  0  0  0  0  0  0  0  0  0
   -0.8589   62.7725   79.1097 N   0  0  0  0  0  0  0  0  0  0  0  0
   -0.3092   61.4030   78.5478 C   0  0  0  0  0  0  0  0  0  0  0  0
   -0.8376   60.9375   77.1773 C   0  0  0  0  0  0  0  0  0  0  0  0
   -2.2856   61.2195   76.8943 N   0  0  0  0  0  0  0  0  0  0  0  0
   -3.0089   59.9132   76.8033 C   0  0  0  0  0  0  0  0  0  0  0  0
   -3.0591   62.1603   77.8212 C   0  0  0  0  0  0  0  0  0  0  0  0
   -2.3678   62.6275   79.1581 C   0  0  0  0  0  0  0  0  0  0  0  0
    1.3526   66.8367   83.7215 O   0  0  0  0  0  0  0  0  0  0  0  0
    2.6840   66.8705   84.2733 C   0  0  0  0  0  0  0  0  0  0  0  0
    2.9444   68.3359   84.5802 C   0  0  0  0  0  0  0  0  0  0  0  0
 20 21  1  0  0  0
 21 19  1  0  0  0
 19  7  1  0  0  0
  7 17  1  0  0  0
  7  8  2  0  0  0
  8  9  1  0  0  0
  9 10  1  0  0  0
 11  9  1  0  0  0
 11 12  1  0  0  0
 12 13  2  0  0  0
 14 12  1  0  0  0
 15 14  2  0  0  0
 16 17  1  0  0  0
 16 15  1  0  0  0
 16 18  1  0  0  0
 17 11  2  0  0  0
  1 15  1  0  0  0
  1  6  1  0  0  0
  2  1  2  0  0  0
  3  2  1  0  0  0
  3  4  2  0  0  0
  4  5  1  0  0  0
  5  6  2  0  0  0
  6 32  1  0  0  0
 32 33  1  0  0  0
 33 34  1  0  0  0
 22 24  2  0  0  0
 22 25  1  0  0  0
 22  3  1  0  0  0
 23 22  2  0  0  0
 25 26  1  0  0  0
 27 26  1  0  0  0
 28 29  1  0  0  0
 28 27  1  0  0  0
 30 28  1  0  0  0
 30 31  1  0  0  0
 31 25  1  0  0  0
M  END
> <minimizedAffinity>
-8.20454

$$$$
/home/hjpark/lecture_drug1/0905_agent/pde5_harness/sample_run/structures/work/ligand_ref.pdb


 34 37  0  0  0  0  0  0  0  0999 V2000
    0.0051   63.8319   83.0693 C   0  0  0  0  0  0  0  0  0  0  0  0
    0.8121   64.8344   82.4038 C   0  0  0  0  0  0  0  0  0  0  0  0
    1.4950   65.8799   83.1626 C   0  0  0  0  0  0  0  0  0  0  0  0
    1.3319   65.8702   84.6512 C   0  0  0  0  0  0  0  0  0  0  0  0
    0.5233   64.8700   85.3404 C   0  0  0  0  0  0  0  0  0  0  0  0
   -0.1689   63.8239   84.5634 C   0  0  0  0  0  0  0  0  0  0  0  0
   -0.8827   61.3403   78.8218 C   0  0  0  0  0  0  0  0  0  0  0  0
   -1.8136   60.3226   78.5753 N   0  0  0  0  0  0  0  0  0  0  0  0
   -2.5046   60.0639   79.7236 N   0  0  0  0  0  0  0  0  0  0  0  0
   -3.5583   59.0486   79.8039 C   0  0  0  0  0  0  0  0  0  0  0  0
   -2.0186   60.9067   80.6909 C   0  0  0  0  0  0  0  0  0  0  0  0
   -2.3312   61.1095   82.0776 C   0  0  0  0  0  0  0  0  0  0  0  0
   -3.1803   60.4781   82.6636 O   0  0  0  0  0  0  0  0  0  0  0  0
   -1.6257   62.0818   82.7832 N   0  0  0  0  0  0  0  0  0  0  0  0
   -0.6189   62.8783   82.2196 C   0  0  0  0  0  0  0  0  0  0  0  0
   -0.2761   62.7141   80.8724 N   0  0  0  0  0  0  0  0  0  0  0  0
   -0.9899   61.7257   80.1369 C   0  0  0  0  0  0  0  0  0  0  0  0
    0.4280   63.2584   80.4516 H   0  0  0  0  0  0  0  0  0  0  0  0
    0.0667   61.8963   77.8101 C   0  0  0  0  0  0  0  0  0  0  0  0
   -0.1682   64.4160   77.5141 C   0  0  0  0  0  0  0  0  0  0  0  0
   -0.7527   63.0713   77.1748 C   0  0  0  0  0  0  0  0  0  0  0  0
    2.3669   67.0072   82.4329 S   0  0  0  0  0  0  0  0  0  0  0  0
    3.6124   67.1404   82.8497 O   0  0  0  0  0  0  0  0  0  0  0  0
    2.4631   66.7217   81.1557 O   0  0  0  0  0  0  0  0  0  0  0  0
    1.4703   68.2911   82.7096 N   0  0  0  0  0  0  0  0  0  0  0  0
    0.6497   68.8128   81.4655 C   0  0  0  0  0  0  0  0  0  0  0  0
    1.3841   69.7284   80.4671 C   0  0  0  0  0  0  0  0  0  0  0  0
    2.3577   70.7077   81.0581 N   0  0  0  0  0  0  0  0  0  0  0  0
    1.8343   72.0893   80.8232 C   0  0  0  0  0  0  0  0  0  0  0  0
    2.7628   70.5653   82.5271 C   0  0  0  0  0  0  0  0  0  0  0  0
    1.9810   69.5294   83.4210 C   0  0  0  0  0  0  0  0  0  0  0  0
   -1.0109   62.8044   85.1520 O   0  0  0  0  0  0  0  0  0  0  0  0
   -1.2566   62.6477   86.5640 C   0  0  0  0  0  0  0  0  0  0  0  0
   -2.7484   62.8842   86.7312 C   0  0  0  0  0  0  0  0  0  0  0  0
 20 21  1  0  0  0
 21 19  1  0  0  0
 19  7  1  0  0  0
  7 17  1  0  0  0
  7  8  2  0  0  0
  8  9  1  0  0  0
  9 10  1  0  0  0
 11  9  1  0  0  0
 11 12  1  0  0  0
 12 13  2  0  0  0
 14 12  1  0  0  0
 15 14  2  0  0  0
 16 17  1  0  0  0
 16 15  1  0  0  0
 16 18  1  0  0  0
 17 11  2  0  0  0
  1 15  1  0  0  0
  1  6  1  0  0  0
  2  1  2  0  0  0
  3  2  1  0  0  0
  3  4  2  0  0  0
  4  5  1  0  0  0
  5  6  2  0  0  0
  6 32  1  0  0  0
 32 33  1  0  0  0
 33 34  1  0  0  0
 22 24  2  0  0  0
 22 25  1  0  0  0
 22  3  1  0  0  0
 23 22  2  0  0  0
 25 26  1  0  0  0
 27 26  1  0  0  0
 28 29  1  0  0  0
 28 27  1  0  0  0
 30 28  1  0  0  0
 30 31  1  0  0  0
 31 25  1  0  0  0
M  END
> <minimizedAffinity>
-8.12056

$$$$
