/home/hjpark/lecture_drug1/0905_agent/pde5_harness/sample_run/structures/work/ligand_ref.pdb


 35 38  0  0  0  0  0  0  0  0999 V2000
    0.4013   64.1013   83.9137 C   0  0  0  0  0  0  0  0  0  0  0  0
    0.1192   63.3712   82.6945 C   0  0  0  0  0  0  0  0  0  0  0  0
   -0.7352   62.1858   82.7047 C   0  0  0  0  0  0  0  0  0  0  0  0
   -1.3096   61.7607   84.0208 C   0  0  0  0  0  0  0  0  0  0  0  0
   -1.0371   62.4818   85.2597 C   0  0  0  0  0  0  0  0  0  0  0  0
   -0.1659   63.6726   85.2391 C   0  0  0  0  0  0  0  0  0  0  0  0
    4.3237   67.0482   84.8983 C   0  0  0  0  0  0  0  0  0  0  0  0
    4.6777   68.2697   84.3103 N   0  0  0  0  0  0  0  0  0  0  0  0
    3.7558   68.5876   83.3553 N   0  0  0  0  0  0  0  0  0  0  0  0
    3.8352   69.8106   82.5518 C   0  0  0  0  0  0  0  0  0  0  0  0
    2.8256   67.5794   83.3345 C   0  0  0  0  0  0  0  0  0  0  0  0
    1.6391   67.3408   82.5619 C   0  0  0  0  0  0  0  0  0  0  0  0
    1.2438   68.0980   81.7055 O   0  0  0  0  0  0  0  0  0  0  0  0
    0.9047   66.1833   82.8109 N   0  0  0  0  0  0  0  0  0  0  0  0
    1.2573   65.2278   83.7743 C   0  0  0  0  0  0  0  0  0  0  0  0
    2.4080   65.4147   84.5491 N   0  0  0  0  0  0  0  0  0  0  0  0
    3.1681   66.5942   84.3082 C   0  0  0  0  0  0  0  0  0  0  0  0
    2.6799   64.7590   85.2312 H   0  0  0  0  0  0  0  0  0  0  0  0
    5.0929   66.3642   85.9820 C   0  0  0  0  0  0  0  0  0  0  0  0
    7.4162   65.8938   85.0478 C   0  0  0  0  0  0  0  0  0  0  0  0
    6.0101   65.3749   85.1846 C   0  0  0  0  0  0  0  0  0  0  0  0
   -1.0305   61.3577   81.3666 S   0  0  0  0  0  0  0  0  0  0  0  0
    0.0233   60.8654   80.7421 O   0  0  0  0  0  0  0  0  0  0  0  0
   -1.7729   60.3152   81.6570 O   0  0  0  0  0  0  0  0  0  0  0  0
   -1.8120   62.4507   80.5160 N   0  0  0  0  0  0  0  0  0  0  0  0
   -3.2937   62.0631   80.1316 C   0  0  0  0  0  0  0  0  0  0  0  0
   -3.4927   61.1741   78.8889 C   0  0  0  0  0  0  0  0  0  0  0  0
   -2.5703   61.4350   77.7325 N   0  0  0  0  0  0  0  0  0  0  0  0
   -3.3846   61.9578   76.5916 C   0  0  0  0  0  0  0  0  0  0  0  0
   -1.3515   62.3379   77.9371 C   0  0  0  0  0  0  0  0  0  0  0  0
   -1.2286   63.1317   79.2929 C   0  0  0  0  0  0  0  0  0  0  0  0
   -2.1401   60.5254   77.5650 H   0  0  0  0  0  0  0  0  0  0  0  0
    0.1820   64.4394   86.4164 O   0  0  0  0  0  0  0  0  0  0  0  0
   -0.2667   64.1492   87.7553 C   0  0  0  0  0  0  0  0  0  0  0  0
    0.8426   63.3101   88.3675 C   0  0  0  0  0  0  0  0  0  0  0  0
 20 21  1  0  0  0
 21 19  1  0  0  0
 19  7  1  0  0  0
  7 17  1  0  0  0
  7  8  2  0  0  0
  8  9  1  0  0  0
  9 10  1  0  0  0
 11  9  1  0  0  0
 11 12  1  0  0  0
 12 13  2  0  0  0
 14 12  1  0  0  0
 15 14  2  0  0  0
 16 17  1  0  0  0
 16 15  1  0  0  0
 16 18  1  0  0  0
 17 11  2  0  0  0
  1 15  1  0  0  0
  1  6  1  0  0  0
  2  1  2  0  0  0
  3  2  1  0  0  0
  3  4  2  0  0  0
  4  5  1  0  0  0
  5  6  2  0  0  0
  6 33  1  0  0  0
 33 34  1  0  0  0
 34 35  1  0  0  0
 22 24  2  0  0  0
 22 25  1  0  0  0
 22  3  1  0  0  0
 23 22  2  0  0  0
 25 26  1  0  0  0
 27 26  1  0  0  0
 28 29  1  0  0  0
 28 27  1  0  0  0
 28 32  1  0  0  0
 30 28  1  0  0  0
 30 31  1  0  0  0
 31 25  1  0  0  0
M  CHG 1  28   1
M  END
> <minimizedAffinity>
-9.64041

$$$$
/home/hjpark/lecture_drug1/0905_agent/pde5_harness/sample_run/structures/work/ligand_ref.pdb


 35 38  0  0  0  0  0  0  0  0999 V2000
    0.1917   64.3373   84.1556 C   0  0  0  0  0  0  0  0  0  0  0  0
   -0.4053   63.7931   82.9529 C   0  0  0  0  0  0  0  0  0  0  0  0
   -1.3623   62.6908   83.0170 C   0  0  0  0  0  0  0  0  0  0  0  0
   -1.7039   62.1516   84.3717 C   0  0  0  0  0  0  0  0  0  0  0  0
   -1.1133   62.6852   85.5947 C   0  0  0  0  0  0  0  0  0  0  0  0
   -0.1414   63.7928   85.5176 C   0  0  0  0  0  0  0  0  0  0  0  0
    4.3176   67.0500   84.9658 C   0  0  0  0  0  0  0  0  0  0  0  0
    4.7419   68.2214   84.3249 N   0  0  0  0  0  0  0  0  0  0  0  0
    3.8269   68.5635   83.3716 N   0  0  0  0  0  0  0  0  0  0  0  0
    3.9737   69.7467   82.5194 C   0  0  0  0  0  0  0  0  0  0  0  0
    2.8315   67.6200   83.4042 C   0  0  0  0  0  0  0  0  0  0  0  0
    1.6187   67.4320   82.6590 C   0  0  0  0  0  0  0  0  0  0  0  0
    1.2599   68.1806   81.7792 O   0  0  0  0  0  0  0  0  0  0  0  0
    0.8134   66.3368   82.9643 N   0  0  0  0  0  0  0  0  0  0  0  0
    1.1182   65.3975   83.9594 C   0  0  0  0  0  0  0  0  0  0  0  0
    2.2918   65.5365   84.7094 N   0  0  0  0  0  0  0  0  0  0  0  0
    3.1245   66.6522   84.4110 C   0  0  0  0  0  0  0  0  0  0  0  0
    2.5312   64.8908   85.4129 H   0  0  0  0  0  0  0  0  0  0  0  0
    5.0582   66.3581   86.0644 C   0  0  0  0  0  0  0  0  0  0  0  0
    7.2371   65.7862   84.8741 C   0  0  0  0  0  0  0  0  0  0  0  0
    5.8862   65.2730   85.2944 C   0  0  0  0  0  0  0  0  0  0  0  0
   -2.0065   62.0658   81.6910 S   0  0  0  0  0  0  0  0  0  0  0  0
   -2.3770   60.8009   81.7643 O   0  0  0  0  0  0  0  0  0  0  0  0
   -3.1002   62.7248   81.3885 O   0  0  0  0  0  0  0  0  0  0  0  0
   -0.8300   62.3175   80.6511 N   0  0  0  0  0  0  0  0  0  0  0  0
   -1.1674   63.3402   79.4964 C   0  0  0  0  0  0  0  0  0  0  0  0
   -1.9293   62.7982   78.2716 C   0  0  0  0  0  0  0  0  0  0  0  0
   -1.5634   61.4121   77.8232 N   0  0  0  0  0  0  0  0  0  0  0  0
   -0.9258   61.5087   76.4734 C   0  0  0  0  0  0  0  0  0  0  0  0
   -0.6937   60.5381   78.7300 C   0  0  0  0  0  0  0  0  0  0  0  0
   -0.0370   61.2005   80.0002 C   0  0  0  0  0  0  0  0  0  0  0  0
   -2.4554   60.9175   77.8368 H   0  0  0  0  0  0  0  0  0  0  0  0
    0.5151   64.3730   86.6696 O   0  0  0  0  0  0  0  0  0  0  0  0
    1.2754   63.6355   87.6475 C   0  0  0  0  0  0  0  0  0  0  0  0
    0.2776   63.2890   88.7402 C   0  0  0  0  0  0  0  0  0  0  0  0
 20 21  1  0  0  0
 21 19  1  0  0  0
 19  7  1  0  0  0
  7 17  1  0  0  0
  7  8  2  0  0  0
  8  9  1  0  0  0
  9 10  1  0  0  0
 11  9  1  0  0  0
 11 12  1  0  0  0
 12 13  2  0  0  0
 14 12  1  0  0  0
 15 14  2  0  0  0
 16 17  1  0  0  0
 16 15  1  0  0  0
 16 18  1  0  0  0
 17 11  2  0  0  0
  1 15  1  0  0  0
  1  6  1  0  0  0
  2  1  2  0  0  0
  3  2  1  0  0  0
  3  4  2  0  0  0
  4  5  1  0  0  0
  5  6  2  0  0  0
  6 33  1  0  0  0
 33 34  1  0  0  0
 34 35  1  0  0  0
 22 24  2  0  0  0
 22 25  1  0  0  0
 22  3  1  0  0  0
 23 22  2  0  0  0
 25 26  1  0  0  0
 27 26  1  0  0  0
 28 29  1  0  0  0
 28 27  1  0  0  0
 28 32  1  0  0  0
 30 28  1  0  0  0
 30 31  1  0  0  0
 31 25  1  0  0  0
M  CHG 1  28   1
M  END
> <minimizedAffinity>
-9.56379

$$$$
/home/hjpark/lecture_drug1/0905_agent/pde5_harness/sample_run/structures/work/ligand_ref.pdb


 35 38  0  0  0  0  0  0  0  0999 V2000
    2.1149   67.2041   83.3129 C   0  0  0  0  0  0  0  0  0  0  0  0
    1.5585   68.1790   82.3970 C   0  0  0  0  0  0  0  0  0  0  0  0
    2.3002   69.3850   82.0353 C   0  0  0  0  0  0  0  0  0  0  0  0
    3.6564   69.5691   82.6434 C   0  0  0  0  0  0  0  0  0  0  0  0
    4.2341   68.5996   83.5682 C   0  0  0  0  0  0  0  0  0  0  0  0
    3.4726   67.3895   83.9332 C   0  0  0  0  0  0  0  0  0  0  0  0
   -0.1406   63.7498   86.1446 C   0  0  0  0  0  0  0  0  0  0  0  0
   -0.9854   62.7032   85.7521 N   0  0  0  0  0  0  0  0  0  0  0  0
   -1.1392   62.7401   84.3964 N   0  0  0  0  0  0  0  0  0  0  0  0
   -1.9650   61.7753   83.6650 C   0  0  0  0  0  0  0  0  0  0  0  0
   -0.4014   63.7989   83.9307 C   0  0  0  0  0  0  0  0  0  0  0  0
   -0.1664   64.3450   82.6237 C   0  0  0  0  0  0  0  0  0  0  0  0
   -0.6542   63.8852   81.6169 O   0  0  0  0  0  0  0  0  0  0  0  0
    0.6656   65.4565   82.5071 N   0  0  0  0  0  0  0  0  0  0  0  0
    1.2895   66.0818   83.5957 C   0  0  0  0  0  0  0  0  0  0  0  0
    1.0870   65.5879   84.8897 N   0  0  0  0  0  0  0  0  0  0  0  0
    0.2410   64.4507   85.0254 C   0  0  0  0  0  0  0  0  0  0  0  0
    1.5112   66.0085   85.6722 H   0  0  0  0  0  0  0  0  0  0  0  0
    0.2614   64.0437   87.5539 C   0  0  0  0  0  0  0  0  0  0  0  0
    0.2606   62.1466   89.2546 C   0  0  0  0  0  0  0  0  0  0  0  0
   -0.5943   63.0222   88.3786 C   0  0  0  0  0  0  0  0  0  0  0  0
    1.6818   70.4804   81.0448 S   0  0  0  0  0  0  0  0  0  0  0  0
    2.5375   71.0956   80.2498 O   0  0  0  0  0  0  0  0  0  0  0  0
    0.8235   69.9007   80.2390 O   0  0  0  0  0  0  0  0  0  0  0  0
    0.9824   71.4538   82.0899 N   0  0  0  0  0  0  0  0  0  0  0  0
   -0.4764   71.9151   81.6995 C   0  0  0  0  0  0  0  0  0  0  0  0
   -0.6063   73.1076   80.7323 C   0  0  0  0  0  0  0  0  0  0  0  0
    0.3988   74.2109   80.9015 N   0  0  0  0  0  0  0  0  0  0  0  0
   -0.3243   75.4382   81.3587 C   0  0  0  0  0  0  0  0  0  0  0  0
    1.6179   73.9810   81.7978 C   0  0  0  0  0  0  0  0  0  0  0  0
    1.6622   72.6751   82.6787 C   0  0  0  0  0  0  0  0  0  0  0  0
    0.8217   74.2876   79.9764 H   0  0  0  0  0  0  0  0  0  0  0  0
    3.9492   66.3834   84.8581 O   0  0  0  0  0  0  0  0  0  0  0  0
    5.0609   66.5494   85.7608 C   0  0  0  0  0  0  0  0  0  0  0  0
    5.8146   65.2312   85.7015 C   0  0  0  0  0  0  0  0  0  0  0  0
 20 21  1  0  0  0
 21 19  1  0  0  0
 19  7  1  0  0  0
  7 17  1  0  0  0
  7  8  2  0  0  0
  8  9  1  0  0  0
  9 10  1  0  0  0
 11  9  1  0  0  0
 11 12  1  0  0  0
 12 13  2  0  0  0
 14 12  1  0  0  0
 15 14  2  0  0  0
 16 17  1  0  0  0
 16 15  1  0  0  0
 16 18  1  0  0  0
 17 11  2  0  0  0
  1 15  1  0  0  0
  1  6  1  0  0  0
  2  1  2  0  0  0
  3  2  1  0  0  0
  3  4  2  0  0  0
  4  5  1  0  0  0
  5  6  2  0  0  0
  6 33  1  0  0  0
 33 34  1  0  0  0
 34 35  1  0  0  0
 22 24  2  0  0  0
 22 25  1  0  0  0
 22  3  1  0  0  0
 23 22  2  0  0  0
 25 26  1  0  0  0
 27 26  1  0  0  0
 28 29  1  0  0  0
 28 27  1  0  0  0
 28 32  1  0  0  0
 30 28  1  0  0  0
 30 31  1  0  0  0
 31 25  1  0  0  0
M  CHG 1  28   1
M  END
> <minimizedAffinity>
-9.49700

$$$$
/home/hjpark/lecture_drug1/0905_agent/pde5_harness/sample_run/structures/work/ligand_ref.pdb


 35 38  0  0  0  0  0  0  0  0999 V2000
   -0.1117   64.0703   84.1940 C   0  0  0  0  0  0  0  0  0  0  0  0
   -0.7208   63.7758   82.9129 C   0  0  0  0  0  0  0  0  0  0  0  0
   -1.8270   62.8274   82.8028 C   0  0  0  0  0  0  0  0  0  0  0  0
   -2.3074   62.1784   84.0641 C   0  0  0  0  0  0  0  0  0  0  0  0
   -1.7071   62.4609   85.3637 C   0  0  0  0  0  0  0  0  0  0  0  0
   -0.5848   63.4139   85.4620 C   0  0  0  0  0  0  0  0  0  0  0  0
    4.3562   65.9702   85.4049 C   0  0  0  0  0  0  0  0  0  0  0  0
    4.9600   67.1541   84.9610 N   0  0  0  0  0  0  0  0  0  0  0  0
    4.1219   67.7792   84.0836 N   0  0  0  0  0  0  0  0  0  0  0  0
    4.4565   69.0501   83.4352 C   0  0  0  0  0  0  0  0  0  0  0  0
    2.9973   67.0017   83.9692 C   0  0  0  0  0  0  0  0  0  0  0  0
    1.7827   67.1203   83.2127 C   0  0  0  0  0  0  0  0  0  0  0  0
    1.5536   68.0470   82.4699 O   0  0  0  0  0  0  0  0  0  0  0  0
    0.8191   66.1222   83.3409 N   0  0  0  0  0  0  0  0  0  0  0  0
    0.9647   64.9986   84.1666 C   0  0  0  0  0  0  0  0  0  0  0  0
    2.1333   64.8373   84.9202 N   0  0  0  0  0  0  0  0  0  0  0  0
    3.1269   65.8502   84.8018 C   0  0  0  0  0  0  0  0  0  0  0  0
    2.2626   64.0573   85.5066 H   0  0  0  0  0  0  0  0  0  0  0  0
    4.9677   65.0063   86.3698 C   0  0  0  0  0  0  0  0  0  0  0  0
    5.6305   65.4645   88.7868 C   0  0  0  0  0  0  0  0  0  0  0  0
    5.7288   65.9477   87.3649 C   0  0  0  0  0  0  0  0  0  0  0  0
   -2.4883   62.4761   81.3876 S   0  0  0  0  0  0  0  0  0  0  0  0
   -3.8050   62.5488   81.3262 O   0  0  0  0  0  0  0  0  0  0  0  0
   -2.0572   63.3256   80.4850 O   0  0  0  0  0  0  0  0  0  0  0  0
   -1.9284   61.0047   81.1635 N   0  0  0  0  0  0  0  0  0  0  0  0
   -0.5869   60.9201   80.3349 C   0  0  0  0  0  0  0  0  0  0  0  0
   -0.7014   60.9468   78.7985 C   0  0  0  0  0  0  0  0  0  0  0  0
   -1.8747   60.2179   78.2084 N   0  0  0  0  0  0  0  0  0  0  0  0
   -1.3575   59.0539   77.4238 C   0  0  0  0  0  0  0  0  0  0  0  0
   -3.0010   59.7439   79.1300 C   0  0  0  0  0  0  0  0  0  0  0  0
   -2.7860   59.8478   80.6876 C   0  0  0  0  0  0  0  0  0  0  0  0
   -2.3392   60.9336   77.6494 H   0  0  0  0  0  0  0  0  0  0  0  0
    0.0909   63.7415   86.6993 O   0  0  0  0  0  0  0  0  0  0  0  0
   -0.5179   63.7179   88.0059 C   0  0  0  0  0  0  0  0  0  0  0  0
    0.3300   62.7517   88.8164 C   0  0  0  0  0  0  0  0  0  0  0  0
 20 21  1  0  0  0
 21 19  1  0  0  0
 19  7  1  0  0  0
  7 17  1  0  0  0
  7  8  2  0  0  0
  8  9  1  0  0  0
  9 10  1  0  0  0
 11  9  1  0  0  0
 11 12  1  0  0  0
 12 13  2  0  0  0
 14 12  1  0  0  0
 15 14  2  0  0  0
 16 17  1  0  0  0
 16 15  1  0  0  0
 16 18  1  0  0  0
 17 11  2  0  0  0
  1 15  1  0  0  0
  1  6  1  0  0  0
  2  1  2  0  0  0
  3  2  1  0  0  0
  3  4  2  0  0  0
  4  5  1  0  0  0
  5  6  2  0  0  0
  6 33  1  0  0  0
 33 34  1  0  0  0
 34 35  1  0  0  0
 22 24  2  0  0  0
 22 25  1  0  0  0
 22  3  1  0  0  0
 23 22  2  0  0  0
 25 26  1  0  0  0
 27 26  1  0  0  0
 28 29  1  0  0  0
 28 27  1  0  0  0
 28 32  1  0  0  0
 30 28  1  0  0  0
 30 31  1  0  0  0
 31 25  1  0  0  0
M  CHG 1  28   1
M  END
> <minimizedAffinity>
-9.38354

$$$$
/home/hjpark/lecture_drug1/0905_agent/pde5_harness/sample_run/structures/work/ligand_ref.pdb


 35 38  0  0  0  0  0  0  0  0999 V2000
    2.0891   66.7479   83.5215 C   0  0  0  0  0  0  0  0  0  0  0  0
    1.6273   67.8115   82.6530 C   0  0  0  0  0  0  0  0  0  0  0  0
    2.4152   69.0275   82.4633 C   0  0  0  0  0  0  0  0  0  0  0  0
    3.7174   69.1270   83.1963 C   0  0  0  0  0  0  0  0  0  0  0  0
    4.1998   68.0674   84.0759 C   0  0  0  0  0  0  0  0  0  0  0  0
    3.3918   66.8476   84.2668 C   0  0  0  0  0  0  0  0  0  0  0  0
   -0.6748   63.2836   85.8449 C   0  0  0  0  0  0  0  0  0  0  0  0
   -1.4243   62.2374   85.2911 N   0  0  0  0  0  0  0  0  0  0  0  0
   -1.3082   62.2779   83.9317 N   0  0  0  0  0  0  0  0  0  0  0  0
   -1.9726   61.3144   83.0496 C   0  0  0  0  0  0  0  0  0  0  0  0
   -0.4948   63.3386   83.6230 C   0  0  0  0  0  0  0  0  0  0  0  0
   -0.0079   63.8887   82.3894 C   0  0  0  0  0  0  0  0  0  0  0  0
   -0.2873   63.4313   81.3050 O   0  0  0  0  0  0  0  0  0  0  0  0
    0.8292   65.0012   82.4416 N   0  0  0  0  0  0  0  0  0  0  0  0
    1.2257   65.6240   83.6334 C   0  0  0  0  0  0  0  0  0  0  0  0
    0.7732   65.1263   84.8609 N   0  0  0  0  0  0  0  0  0  0  0  0
   -0.0814   63.9880   84.8245 C   0  0  0  0  0  0  0  0  0  0  0  0
    1.0344   65.5451   85.7127 H   0  0  0  0  0  0  0  0  0  0  0  0
   -0.5585   63.5739   87.3064 C   0  0  0  0  0  0  0  0  0  0  0  0
    0.2458   62.1019   89.2242 C   0  0  0  0  0  0  0  0  0  0  0  0
   -0.5445   62.1424   87.9441 C   0  0  0  0  0  0  0  0  0  0  0  0
    1.8998   70.2191   81.5263 S   0  0  0  0  0  0  0  0  0  0  0  0
    2.0020   70.0222   80.2250 O   0  0  0  0  0  0  0  0  0  0  0  0
    0.6207   70.4177   81.7420 O   0  0  0  0  0  0  0  0  0  0  0  0
    2.8049   71.4151   82.0546 N   0  0  0  0  0  0  0  0  0  0  0  0
    2.0739   72.4298   83.0187 C   0  0  0  0  0  0  0  0  0  0  0  0
    1.2404   73.5499   82.3667 C   0  0  0  0  0  0  0  0  0  0  0  0
    1.7989   74.1428   81.1047 N   0  0  0  0  0  0  0  0  0  0  0  0
    2.1631   75.5680   81.3771 C   0  0  0  0  0  0  0  0  0  0  0  0
    2.9703   73.4479   80.4066 C   0  0  0  0  0  0  0  0  0  0  0  0
    3.6856   72.2581   81.1524 C   0  0  0  0  0  0  0  0  0  0  0  0
    1.0421   74.0194   80.4320 H   0  0  0  0  0  0  0  0  0  0  0  0
    3.7728   65.7538   85.1347 O   0  0  0  0  0  0  0  0  0  0  0  0
    5.1293   65.3881   85.4582 C   0  0  0  0  0  0  0  0  0  0  0  0
    5.1012   65.0475   86.9390 C   0  0  0  0  0  0  0  0  0  0  0  0
 20 21  1  0  0  0
 21 19  1  0  0  0
 19  7  1  0  0  0
  7 17  1  0  0  0
  7  8  2  0  0  0
  8  9  1  0  0  0
  9 10  1  0  0  0
 11  9  1  0  0  0
 11 12  1  0  0  0
 12 13  2  0  0  0
 14 12  1  0  0  0
 15 14  2  0  0  0
 16 17  1  0  0  0
 16 15  1  0  0  0
 16 18  1  0  0  0
 17 11  2  0  0  0
  1 15  1  0  0  0
  1  6  1  0  0  0
  2  1  2  0  0  0
  3  2  1  0  0  0
  3  4  2  0  0  0
  4  5  1  0  0  0
  5  6  2  0  0  0
  6 33  1  0  0  0
 33 34  1  0  0  0
 34 35  1  0  0  0
 22 24  2  0  0  0
 22 25  1  0  0  0
 22  3  1  0  0  0
 23 22  2  0  0  0
 25 26  1  0  0  0
 27 26  1  0  0  0
 28 29  1  0  0  0
 28 27  1  0  0  0
 28 32  1  0  0  0
 30 28  1  0  0  0
 30 31  1  0  0  0
 31 25  1  0  0  0
M  CHG 1  28   1
M  END
> <minimizedAffinity>
-9.21857

$$$$
/home/hjpark/lecture_drug1/0905_agent/pde5_harness/sample_run/structures/work/ligand_ref.pdb


 35 38  0  0  0  0  0  0  0  0999 V2000
    2.1529   66.3607   84.0605 C   0  0  0  0  0  0  0  0  0  0  0  0
    1.6552   67.2444   83.0259 C   0  0  0  0  0  0  0  0  0  0  0  0
    2.4821   68.3254   82.4939 C   0  0  0  0  0  0  0  0  0  0  0  0
    3.8619   68.4789   83.0556 C   0  0  0  0  0  0  0  0  0  0  0  0
    4.3814   67.6000   84.0980 C   0  0  0  0  0  0  0  0  0  0  0  0
    3.5345   66.5171   84.6341 C   0  0  0  0  0  0  0  0  0  0  0  0
   -1.1584   62.6346   83.6253 C   0  0  0  0  0  0  0  0  0  0  0  0
   -1.8323   61.9324   84.6332 N   0  0  0  0  0  0  0  0  0  0  0  0
   -1.4461   62.4186   85.8487 N   0  0  0  0  0  0  0  0  0  0  0  0
   -1.9701   61.8979   87.1144 C   0  0  0  0  0  0  0  0  0  0  0  0
   -0.5357   63.4185   85.6177 C   0  0  0  0  0  0  0  0  0  0  0  0
    0.2169   64.2915   86.4739 C   0  0  0  0  0  0  0  0  0  0  0  0
    0.1430   64.2599   87.6808 O   0  0  0  0  0  0  0  0  0  0  0  0
    1.0722   65.2225   85.8883 N   0  0  0  0  0  0  0  0  0  0  0  0
    1.2475   65.3584   84.5040 C   0  0  0  0  0  0  0  0  0  0  0  0
    0.5385   64.5269   83.6293 N   0  0  0  0  0  0  0  0  0  0  0  0
   -0.3416   63.5715   84.2123 C   0  0  0  0  0  0  0  0  0  0  0  0
    0.6437   64.5994   82.6532 H   0  0  0  0  0  0  0  0  0  0  0  0
   -1.3106   62.3859   82.1593 C   0  0  0  0  0  0  0  0  0  0  0  0
    0.9734   61.3530   81.7037 C   0  0  0  0  0  0  0  0  0  0  0  0
   -0.4854   61.0713   81.9433 C   0  0  0  0  0  0  0  0  0  0  0  0
    1.9305   69.3230   81.3696 S   0  0  0  0  0  0  0  0  0  0  0  0
    2.8371   69.8695   80.5807 O   0  0  0  0  0  0  0  0  0  0  0  0
    1.1281   68.6675   80.5644 O   0  0  0  0  0  0  0  0  0  0  0  0
    1.1628   70.3822   82.2737 N   0  0  0  0  0  0  0  0  0  0  0  0
   -0.2846   70.7640   81.7711 C   0  0  0  0  0  0  0  0  0  0  0  0
   -0.3920   71.8457   80.6791 C   0  0  0  0  0  0  0  0  0  0  0  0
    0.5816   72.9853   80.7767 N   0  0  0  0  0  0  0  0  0  0  0  0
   -0.1869   74.2351   81.0691 C   0  0  0  0  0  0  0  0  0  0  0  0
    1.7609   72.8803   81.7468 C   0  0  0  0  0  0  0  0  0  0  0  0
    1.7891   71.6746   82.7612 C   0  0  0  0  0  0  0  0  0  0  0  0
    1.0466   72.9757   79.8689 H   0  0  0  0  0  0  0  0  0  0  0  0
    3.9504   65.6103   85.6828 O   0  0  0  0  0  0  0  0  0  0  0  0
    5.3080   65.1883   85.9216 C   0  0  0  0  0  0  0  0  0  0  0  0
    5.5989   65.5962   87.3563 C   0  0  0  0  0  0  0  0  0  0  0  0
 20 21  1  0  0  0
 21 19  1  0  0  0
 19  7  1  0  0  0
  7 17  1  0  0  0
  7  8  2  0  0  0
  8  9  1  0  0  0
  9 10  1  0  0  0
 11  9  1  0  0  0
 11 12  1  0  0  0
 12 13  2  0  0  0
 14 12  1  0  0  0
 15 14  2  0  0  0
 16 17  1  0  0  0
 16 15  1  0  0  0
 16 18  1  0  0  0
 17 11  2  0  0  0
  1 15  1  0  0  0
  1  6  1  0  0  0
  2  1  2  0  0  0
  3  2  1  0  0  0
  3  4  2  0  0  0
  4  5  1  0  0  0
  5  6  2  0  0  0
  6 33  1  0  0  0
 33 34  1  0  0  0
 34 35  1  0  0  0
 22 24  2  0  0  0
 22 25  1  0  0  0
 22  3  1  0  0  0
 23 22  2  0  0  0
 25 26  1  0  0  0
 27 26  1  0  0  0
 28 29  1  0  0  0
 28 27  1  0  0  0
 28 32  1  0  0  0
 30 28  1  0  0  0
 30 31  1  0  0  0
 31 25  1  0  0  0
M  CHG 1  28   1
M  END
> <minimizedAffinity>
-8.97641

$$$$
/home/hjpark/lecture_drug1/0905_agent/pde5_harness/sample_run/structures/work/ligand_ref.pdb


 35 38  0  0  0  0  0  0  0  0999 V2000
    0.9541   66.0152   81.9489 C   0  0  0  0  0  0  0  0  0  0  0  0
    1.4666   67.2547   82.4964 C   0  0  0  0  0  0  0  0  0  0  0  0
    2.0531   68.2767   81.6322 C   0  0  0  0  0  0  0  0  0  0  0  0
    2.0980   67.9942   80.1622 C   0  0  0  0  0  0  0  0  0  0  0  0
    1.5878   66.7522   79.5912 C   0  0  0  0  0  0  0  0  0  0  0  0
    1.0054   65.7234   80.4742 C   0  0  0  0  0  0  0  0  0  0  0  0
   -1.9072   62.2595   83.6060 C   0  0  0  0  0  0  0  0  0  0  0  0
   -2.0033   61.7294   84.8994 N   0  0  0  0  0  0  0  0  0  0  0  0
   -1.1524   62.4083   85.7229 N   0  0  0  0  0  0  0  0  0  0  0  0
   -1.0134   62.0997   87.1488 C   0  0  0  0  0  0  0  0  0  0  0  0
   -0.5207   63.3595   84.9624 C   0  0  0  0  0  0  0  0  0  0  0  0
    0.4664   64.3623   85.2479 C   0  0  0  0  0  0  0  0  0  0  0  0
    0.9428   64.5277   86.3473 O   0  0  0  0  0  0  0  0  0  0  0  0
    0.8955   65.1876   84.2107 N   0  0  0  0  0  0  0  0  0  0  0  0
    0.4221   65.0963   82.8942 C   0  0  0  0  0  0  0  0  0  0  0  0
   -0.5376   64.1314   82.5667 N   0  0  0  0  0  0  0  0  0  0  0  0
   -0.9881   63.2817   83.6165 C   0  0  0  0  0  0  0  0  0  0  0  0
   -0.8860   64.0441   81.6501 H   0  0  0  0  0  0  0  0  0  0  0  0
   -2.6797   61.7747   82.4219 C   0  0  0  0  0  0  0  0  0  0  0  0
   -1.0607   61.0789   80.5817 C   0  0  0  0  0  0  0  0  0  0  0  0
   -1.7571   60.6473   81.8441 C   0  0  0  0  0  0  0  0  0  0  0  0
    2.6461   69.6377   82.2319 S   0  0  0  0  0  0  0  0  0  0  0  0
    2.2784   69.9403   83.4631 O   0  0  0  0  0  0  0  0  0  0  0  0
    3.9552   69.5575   82.2767 O   0  0  0  0  0  0  0  0  0  0  0  0
    2.1312   70.6806   81.1474 N   0  0  0  0  0  0  0  0  0  0  0  0
    3.0225   71.9744   80.9897 C   0  0  0  0  0  0  0  0  0  0  0  0
    2.7831   73.1243   81.9871 C   0  0  0  0  0  0  0  0  0  0  0  0
    1.3567   73.3654   82.3910 N   0  0  0  0  0  0  0  0  0  0  0  0
    0.9403   74.7032   81.8667 C   0  0  0  0  0  0  0  0  0  0  0  0
    0.2913   72.3282   82.0282 C   0  0  0  0  0  0  0  0  0  0  0  0
    0.6924   71.1523   81.0588 C   0  0  0  0  0  0  0  0  0  0  0  0
    1.3860   73.2988   83.4085 H   0  0  0  0  0  0  0  0  0  0  0  0
    0.4956   64.4520   80.0067 O   0  0  0  0  0  0  0  0  0  0  0  0
   -0.0031   64.1986   78.6780 C   0  0  0  0  0  0  0  0  0  0  0  0
    0.8932   63.1031   78.1249 C   0  0  0  0  0  0  0  0  0  0  0  0
 20 21  1  0  0  0
 21 19  1  0  0  0
 19  7  1  0  0  0
  7 17  1  0  0  0
  7  8  2  0  0  0
  8  9  1  0  0  0
  9 10  1  0  0  0
 11  9  1  0  0  0
 11 12  1  0  0  0
 12 13  2  0  0  0
 14 12  1  0  0  0
 15 14  2  0  0  0
 16 17  1  0  0  0
 16 15  1  0  0  0
 16 18  1  0  0  0
 17 11  2  0  0  0
  1 15  1  0  0  0
  1  6  1  0  0  0
  2  1  2  0  0  0
  3  2  1  0  0  0
  3  4  2  0  0  0
  4  5  1  0  0  0
  5  6  2  0  0  0
  6 33  1  0  0  0
 33 34  1  0  0  0
 34 35  1  0  0  0
 22 24  2  0  0  0
 22 25  1  0  0  0
 22  3  1  0  0  0
 23 22  2  0  0  0
 25 26  1  0  0  0
 27 26  1  0  0  0
 28 29  1  0  0  0
 28 27  1  0  0  0
 28 32  1  0  0  0
 30 28  1  0  0  0
 30 31  1  0  0  0
 31 25  1  0  0  0
M  CHG 1  28   1
M  END
> <minimizedAffinity>
-8.95890

$$$$
/home/hjpark/lecture_drug1/0905_agent/pde5_harness/sample_run/structures/work/ligand_ref.pdb


 35 38  0  0  0  0  0  0  0  0999 V2000
    0.4566   64.4510   84.6110 C   0  0  0  0  0  0  0  0  0  0  0  0
   -0.0956   64.1840   83.2985 C   0  0  0  0  0  0  0  0  0  0  0  0
   -1.2513   63.3058   83.1297 C   0  0  0  0  0  0  0  0  0  0  0  0
   -1.8431   62.6994   84.3645 C   0  0  0  0  0  0  0  0  0  0  0  0
   -1.3016   62.9553   85.6951 C   0  0  0  0  0  0  0  0  0  0  0  0
   -0.1289   63.8369   85.8530 C   0  0  0  0  0  0  0  0  0  0  0  0
    3.1473   68.5525   83.6230 C   0  0  0  0  0  0  0  0  0  0  0  0
    4.4636   68.8540   83.9965 N   0  0  0  0  0  0  0  0  0  0  0  0
    4.9680   67.8162   84.7256 N   0  0  0  0  0  0  0  0  0  0  0  0
    6.3293   67.8156   85.2683 C   0  0  0  0  0  0  0  0  0  0  0  0
    3.9837   66.8649   84.8163 C   0  0  0  0  0  0  0  0  0  0  0  0
    3.9057   65.5755   85.4433 C   0  0  0  0  0  0  0  0  0  0  0  0
    4.8210   65.0848   86.0634 O   0  0  0  0  0  0  0  0  0  0  0  0
    2.7205   64.8518   85.3308 N   0  0  0  0  0  0  0  0  0  0  0  0
    1.5892   65.3097   84.6410 C   0  0  0  0  0  0  0  0  0  0  0  0
    1.6161   66.5625   84.0172 N   0  0  0  0  0  0  0  0  0  0  0  0
    2.8212   67.3135   84.1211 C   0  0  0  0  0  0  0  0  0  0  0  0
    0.8355   66.9093   83.5277 H   0  0  0  0  0  0  0  0  0  0  0  0
    2.2579   69.4472   82.8214 C   0  0  0  0  0  0  0  0  0  0  0  0
    1.2112   68.3623   80.7674 C   0  0  0  0  0  0  0  0  0  0  0  0
    2.4738   68.9297   81.3580 C   0  0  0  0  0  0  0  0  0  0  0  0
   -1.8512   62.9841   81.6805 S   0  0  0  0  0  0  0  0  0  0  0  0
   -3.1585   63.1136   81.5498 O   0  0  0  0  0  0  0  0  0  0  0  0
   -1.3368   63.8147   80.8043 O   0  0  0  0  0  0  0  0  0  0  0  0
   -1.3441   61.4900   81.4822 N   0  0  0  0  0  0  0  0  0  0  0  0
   -0.1683   61.3168   80.4426 C   0  0  0  0  0  0  0  0  0  0  0  0
   -0.5494   61.2239   78.9525 C   0  0  0  0  0  0  0  0  0  0  0  0
   -1.8102   60.4713   78.6363 N   0  0  0  0  0  0  0  0  0  0  0  0
   -1.4420   59.2400   77.8704 C   0  0  0  0  0  0  0  0  0  0  0  0
   -2.7598   60.0913   79.7749 C   0  0  0  0  0  0  0  0  0  0  0  0
   -2.2756   60.3143   81.2578 C   0  0  0  0  0  0  0  0  0  0  0  0
   -2.3628   61.1486   78.1105 H   0  0  0  0  0  0  0  0  0  0  0  0
    0.4941   64.1324   87.1256 O   0  0  0  0  0  0  0  0  0  0  0  0
    0.7245   63.1730   88.1767 C   0  0  0  0  0  0  0  0  0  0  0  0
   -0.4869   63.2896   89.0867 C   0  0  0  0  0  0  0  0  0  0  0  0
 20 21  1  0  0  0
 21 19  1  0  0  0
 19  7  1  0  0  0
  7 17  1  0  0  0
  7  8  2  0  0  0
  8  9  1  0  0  0
  9 10  1  0  0  0
 11  9  1  0  0  0
 11 12  1  0  0  0
 12 13  2  0  0  0
 14 12  1  0  0  0
 15 14  2  0  0  0
 16 17  1  0  0  0
 16 15  1  0  0  0
 16 18  1  0  0  0
 17 11  2  0  0  0
  1 15  1  0  0  0
  1  6  1  0  0  0
  2  1  2  0  0  0
  3  2  1  0  0  0
  3  4  2  0  0  0
  4  5  1  0  0  0
  5  6  2  0  0  0
  6 33  1  0  0  0
 33 34  1  0  0  0
 34 35  1  0  0  0
 22 24  2  0  0  0
 22 25  1  0  0  0
 22  3  1  0  0  0
 23 22  2  0  0  0
 25 26  1  0  0  0
 27 26  1  0  0  0
 28 29  1  0  0  0
 28 27  1  0  0  0
 28 32  1  0  0  0
 30 28  1  0  0  0
 30 31  1  0  0  0
 31 25  1  0  0  0
M  CHG 1  28   1
M  END
> <minimizedAffinity>
-8.92124

$$$$
/home/hjpark/lecture_drug1/0905_agent/pde5_harness/sample_run/structures/work/ligand_ref.pdb


 35 38  0  0  0  0  0  0  0  0999 V2000
    0.2948   64.9587   81.3391 C   0  0  0  0  0  0  0  0  0  0  0  0
    0.6605   66.2352   80.7597 C   0  0  0  0  0  0  0  0  0  0  0  0
    1.1887   67.3170   81.5879 C   0  0  0  0  0  0  0  0  0  0  0  0
    1.3412   67.0519   83.0539 C   0  0  0  0  0  0  0  0  0  0  0  0
    0.9782   65.7737   83.6569 C   0  0  0  0  0  0  0  0  0  0  0  0
    0.4376   64.6912   82.8123 C   0  0  0  0  0  0  0  0  0  0  0  0
   -2.8085   61.4034   79.6755 C   0  0  0  0  0  0  0  0  0  0  0  0
   -2.7703   60.6953   78.4671 N   0  0  0  0  0  0  0  0  0  0  0  0
   -1.7035   61.1260   77.7325 N   0  0  0  0  0  0  0  0  0  0  0  0
   -1.3789   60.5823   76.4109 C   0  0  0  0  0  0  0  0  0  0  0  0
   -1.0699   62.0981   78.4644 C   0  0  0  0  0  0  0  0  0  0  0  0
    0.0875   62.9161   78.2345 C   0  0  0  0  0  0  0  0  0  0  0  0
    0.7525   62.8532   77.2261 O   0  0  0  0  0  0  0  0  0  0  0  0
    0.4663   63.8247   79.2204 N   0  0  0  0  0  0  0  0  0  0  0  0
   -0.2202   63.9938   80.4310 C   0  0  0  0  0  0  0  0  0  0  0  0
   -1.3569   63.2218   80.6983 N   0  0  0  0  0  0  0  0  0  0  0  0
   -1.7556   62.2868   79.7014 C   0  0  0  0  0  0  0  0  0  0  0  0
   -1.8590   63.3212   81.5393 H   0  0  0  0  0  0  0  0  0  0  0  0
   -3.8371   61.2193   80.7442 C   0  0  0  0  0  0  0  0  0  0  0  0
   -3.1315   60.6134   83.1162 C   0  0  0  0  0  0  0  0  0  0  0  0
   -3.1741   60.1544   81.6836 C   0  0  0  0  0  0  0  0  0  0  0  0
    1.5702   68.7396   80.9601 S   0  0  0  0  0  0  0  0  0  0  0  0
    2.8434   68.9224   80.6632 O   0  0  0  0  0  0  0  0  0  0  0  0
    0.9291   68.8989   79.8262 O   0  0  0  0  0  0  0  0  0  0  0  0
    1.0453   69.7113   82.1043 N   0  0  0  0  0  0  0  0  0  0  0  0
   -0.1864   70.6132   81.7009 C   0  0  0  0  0  0  0  0  0  0  0  0
    0.1123   71.9191   80.9395 C   0  0  0  0  0  0  0  0  0  0  0  0
    1.3501   72.6612   81.3559 N   0  0  0  0  0  0  0  0  0  0  0  0
    0.9342   73.9639   81.9625 C   0  0  0  0  0  0  0  0  0  0  0  0
    2.3585   71.9741   82.2798 C   0  0  0  0  0  0  0  0  0  0  0  0
    1.9571   70.5968   82.9319 C   0  0  0  0  0  0  0  0  0  0  0  0
    1.8765   72.7468   80.4865 H   0  0  0  0  0  0  0  0  0  0  0  0
    0.0276   63.3991   83.3195 O   0  0  0  0  0  0  0  0  0  0  0  0
   -0.9805   63.1880   84.3282 C   0  0  0  0  0  0  0  0  0  0  0  0
   -0.3234   62.2816   85.3558 C   0  0  0  0  0  0  0  0  0  0  0  0
 20 21  1  0  0  0
 21 19  1  0  0  0
 19  7  1  0  0  0
  7 17  1  0  0  0
  7  8  2  0  0  0
  8  9  1  0  0  0
  9 10  1  0  0  0
 11  9  1  0  0  0
 11 12  1  0  0  0
 12 13  2  0  0  0
 14 12  1  0  0  0
 15 14  2  0  0  0
 16 17  1  0  0  0
 16 15  1  0  0  0
 16 18  1  0  0  0
 17 11  2  0  0  0
  1 15  1  0  0  0
  1  6  1  0  0  0
  2  1  2  0  0  0
  3  2  1  0  0  0
  3  4  2  0  0  0
  4  5  1  0  0  0
  5  6  2  0  0  0
  6 33  1  0  0  0
 33 34  1  0  0  0
 34 35  1  0  0  0
 22 24  2  0  0  0
 22 25  1  0  0  0
 22  3  1  0  0  0
 23 22  2  0  0  0
 25 26  1  0  0  0
 27 26  1  0  0  0
 28 29  1  0  0  0
 28 27  1  0  0  0
 28 32  1  0  0  0
 30 28  1  0  0  0
 30 31  1  0  0  0
 31 25  1  0  0  0
M  CHG 1  28   1
M  END
> <minimizedAffinity>
-8.91047

$$$$
/home/hjpark/lecture_drug1/0905_agent/pde5_harness/sample_run/structures/work/ligand_ref.pdb


 35 38  0  0  0  0  0  0  0  0999 V2000
    0.4998   65.5071   81.7266 C   0  0  0  0  0  0  0  0  0  0  0  0
    1.1565   66.1013   82.8732 C   0  0  0  0  0  0  0  0  0  0  0  0
    1.9727   67.3056   82.7361 C   0  0  0  0  0  0  0  0  0  0  0  0
    2.0981   67.9017   81.3680 C   0  0  0  0  0  0  0  0  0  0  0  0
    1.4454   67.3184   80.2006 C   0  0  0  0  0  0  0  0  0  0  0  0
    0.6306   66.0971   80.3492 C   0  0  0  0  0  0  0  0  0  0  0  0
   -2.1871   62.2729   84.4392 C   0  0  0  0  0  0  0  0  0  0  0  0
   -2.7464   61.0484   84.0508 N   0  0  0  0  0  0  0  0  0  0  0  0
   -2.4540   60.8226   82.7368 N   0  0  0  0  0  0  0  0  0  0  0  0
   -2.8938   59.6217   82.0212 C   0  0  0  0  0  0  0  0  0  0  0  0
   -1.7176   61.8916   82.2931 C   0  0  0  0  0  0  0  0  0  0  0  0
   -1.1277   62.2332   81.0293 C   0  0  0  0  0  0  0  0  0  0  0  0
   -1.2119   61.5306   80.0483 O   0  0  0  0  0  0  0  0  0  0  0  0
   -0.4216   63.4298   80.9266 N   0  0  0  0  0  0  0  0  0  0  0  0
   -0.2531   64.3299   81.9882 C   0  0  0  0  0  0  0  0  0  0  0  0
   -0.8135   64.0422   83.2382 N   0  0  0  0  0  0  0  0  0  0  0  0
   -1.5364   62.8217   83.3599 C   0  0  0  0  0  0  0  0  0  0  0  0
   -0.7122   64.6572   84.0002 H   0  0  0  0  0  0  0  0  0  0  0  0
   -2.2975   62.8703   85.8049 C   0  0  0  0  0  0  0  0  0  0  0  0
   -0.1314   63.7469   86.8202 C   0  0  0  0  0  0  0  0  0  0  0  0
   -0.9144   62.5159   86.4510 C   0  0  0  0  0  0  0  0  0  0  0  0
    2.7234   67.9534   83.9931 S   0  0  0  0  0  0  0  0  0  0  0  0
    2.8955   69.2618   83.9575 O   0  0  0  0  0  0  0  0  0  0  0  0
    2.0212   67.7310   85.0791 O   0  0  0  0  0  0  0  0  0  0  0  0
    4.0887   67.1384   83.9666 N   0  0  0  0  0  0  0  0  0  0  0  0
    3.9986   65.6670   84.5322 C   0  0  0  0  0  0  0  0  0  0  0  0
    4.0983   65.4887   86.0595 C   0  0  0  0  0  0  0  0  0  0  0  0
    5.0570   66.3993   86.7721 N   0  0  0  0  0  0  0  0  0  0  0  0
    6.1662   65.5666   87.3326 C   0  0  0  0  0  0  0  0  0  0  0  0
    5.6526   67.5929   86.0216 C   0  0  0  0  0  0  0  0  0  0  0  0
    5.4058   67.6981   84.4688 C   0  0  0  0  0  0  0  0  0  0  0  0
    4.4721   66.8544   87.4730 H   0  0  0  0  0  0  0  0  0  0  0  0
   -0.0354   65.4316   79.2500 O   0  0  0  0  0  0  0  0  0  0  0  0
    0.6164   64.9470   78.0589 C   0  0  0  0  0  0  0  0  0  0  0  0
   -0.5140   64.4937   77.1500 C   0  0  0  0  0  0  0  0  0  0  0  0
 20 21  1  0  0  0
 21 19  1  0  0  0
 19  7  1  0  0  0
  7 17  1  0  0  0
  7  8  2  0  0  0
  8  9  1  0  0  0
  9 10  1  0  0  0
 11  9  1  0  0  0
 11 12  1  0  0  0
 12 13  2  0  0  0
 14 12  1  0  0  0
 15 14  2  0  0  0
 16 17  1  0  0  0
 16 15  1  0  0  0
 16 18  1  0  0  0
 17 11  2  0  0  0
  1 15  1  0  0  0
  1  6  1  0  0  0
  2  1  2  0  0  0
  3  2  1  0  0  0
  3  4  2  0  0  0
  4  5  1  0  0  0
  5  6  2  0  0  0
  6 33  1  0  0  0
 33 34  1  0  0  0
 34 35  1  0  0  0
 22 24  2  0  0  0
 22 25  1  0  0  0
 22  3  1  0  0  0
 23 22  2  0  0  0
 25 26  1  0  0  0
 27 26  1  0  0  0
 28 29  1  0  0  0
 28 27  1  0  0  0
 28 32  1  0  0  0
 30 28  1  0  0  0
 30 31  1  0  0  0
 31 25  1  0  0  0
M  CHG 1  28   1
M  END
> <minimizedAffinity>
-8.75254

$$$$
/home/hjpark/lecture_drug1/0905_agent/pde5_harness/sample_run/structures/work/ligand_ref.pdb


 35 38  0  0  0  0  0  0  0  0999 V2000
    0.8831   65.5136   82.8238 C   0  0  0  0  0  0  0  0  0  0  0  0
    1.6882   66.4211   83.6158 C   0  0  0  0  0  0  0  0  0  0  0  0
    2.5741   67.3947   82.9814 C   0  0  0  0  0  0  0  0  0  0  0  0
    2.6121   67.4199   81.4844 C   0  0  0  0  0  0  0  0  0  0  0  0
    1.8099   66.5141   80.6689 C   0  0  0  0  0  0  0  0  0  0  0  0
    0.9251   65.5291   81.3204 C   0  0  0  0  0  0  0  0  0  0  0  0
   -2.5079   61.9006   83.5207 C   0  0  0  0  0  0  0  0  0  0  0  0
   -2.9678   61.3434   84.7212 N   0  0  0  0  0  0  0  0  0  0  0  0
   -2.3278   61.9460   85.7654 N   0  0  0  0  0  0  0  0  0  0  0  0
   -2.5842   61.5917   87.1641 C   0  0  0  0  0  0  0  0  0  0  0  0
   -1.4692   62.8759   85.2360 C   0  0  0  0  0  0  0  0  0  0  0  0
   -0.5397   63.8075   85.8102 C   0  0  0  0  0  0  0  0  0  0  0  0
   -0.3602   63.9137   87.0016 O   0  0  0  0  0  0  0  0  0  0  0  0
    0.1896   64.6316   84.9558 N   0  0  0  0  0  0  0  0  0  0  0  0
    0.0739   64.6049   83.5589 C   0  0  0  0  0  0  0  0  0  0  0  0
   -0.8162   63.7106   82.9529 N   0  0  0  0  0  0  0  0  0  0  0  0
   -1.5708   62.8630   83.8127 C   0  0  0  0  0  0  0  0  0  0  0  0
   -0.9162   63.6694   81.9744 H   0  0  0  0  0  0  0  0  0  0  0  0
   -2.9674   61.4963   82.1572 C   0  0  0  0  0  0  0  0  0  0  0  0
   -1.3215   61.0414   80.2663 C   0  0  0  0  0  0  0  0  0  0  0  0
   -1.7780   60.6187   81.6366 C   0  0  0  0  0  0  0  0  0  0  0  0
    3.4870   68.3831   83.8491 S   0  0  0  0  0  0  0  0  0  0  0  0
    3.7402   69.5627   83.3132 O   0  0  0  0  0  0  0  0  0  0  0  0
    2.8832   68.6464   84.9841 O   0  0  0  0  0  0  0  0  0  0  0  0
    4.7864   67.4861   84.0382 N   0  0  0  0  0  0  0  0  0  0  0  0
    4.5073   65.9763   84.4070 C   0  0  0  0  0  0  0  0  0  0  0  0
    4.2490   65.6463   85.8898 C   0  0  0  0  0  0  0  0  0  0  0  0
    5.0584   66.4191   86.8917 N   0  0  0  0  0  0  0  0  0  0  0  0
    5.9744   65.4651   87.5909 C   0  0  0  0  0  0  0  0  0  0  0  0
    5.8596   67.6372   86.4259 C   0  0  0  0  0  0  0  0  0  0  0  0
    5.9774   67.9069   84.8778 C   0  0  0  0  0  0  0  0  0  0  0  0
    4.3493   66.8425   87.4904 H   0  0  0  0  0  0  0  0  0  0  0  0
    0.1101   64.5745   80.5998 O   0  0  0  0  0  0  0  0  0  0  0  0
   -0.1905   64.6396   79.1913 C   0  0  0  0  0  0  0  0  0  0  0  0
    0.7557   63.6434   78.5419 C   0  0  0  0  0  0  0  0  0  0  0  0
 20 21  1  0  0  0
 21 19  1  0  0  0
 19  7  1  0  0  0
  7 17  1  0  0  0
  7  8  2  0  0  0
  8  9  1  0  0  0
  9 10  1  0  0  0
 11  9  1  0  0  0
 11 12  1  0  0  0
 12 13  2  0  0  0
 14 12  1  0  0  0
 15 14  2  0  0  0
 16 17  1  0  0  0
 16 15  1  0  0  0
 16 18  1  0  0  0
 17 11  2  0  0  0
  1 15  1  0  0  0
  1  6  1  0  0  0
  2  1  2  0  0  0
  3  2  1  0  0  0
  3  4  2  0  0  0
  4  5  1  0  0  0
  5  6  2  0  0  0
  6 33  1  0  0  0
 33 34  1  0  0  0
 34 35  1  0  0  0
 22 24  2  0  0  0
 22 25  1  0  0  0
 22  3  1  0  0  0
 23 22  2  0  0  0
 25 26  1  0  0  0
 27 26  1  0  0  0
 28 29  1  0  0  0
 28 27  1  0  0  0
 28 32  1  0  0  0
 30 28  1  0  0  0
 30 31  1  0  0  0
 31 25  1  0  0  0
M  CHG 1  28   1
M  END
> <minimizedAffinity>
-8.62031

$$$$
/home/hjpark/lecture_drug1/0905_agent/pde5_harness/sample_run/structures/work/ligand_ref.pdb


 35 38  0  0  0  0  0  0  0  0999 V2000
    1.0147   65.5323   83.1059 C   0  0  0  0  0  0  0  0  0  0  0  0
    0.6055   64.9765   81.8322 C   0  0  0  0  0  0  0  0  0  0  0  0
    0.8950   65.6685   80.5781 C   0  0  0  0  0  0  0  0  0  0  0  0
    1.6339   66.9684   80.6623 C   0  0  0  0  0  0  0  0  0  0  0  0
    2.0541   67.5453   81.9350 C   0  0  0  0  0  0  0  0  0  0  0  0
    1.7488   66.8420   83.1958 C   0  0  0  0  0  0  0  0  0  0  0  0
   -1.7454   62.4284   85.8962 C   0  0  0  0  0  0  0  0  0  0  0  0
   -1.5239   61.9905   87.2086 N   0  0  0  0  0  0  0  0  0  0  0  0
   -0.3701   62.5507   87.6757 N   0  0  0  0  0  0  0  0  0  0  0  0
    0.1465   62.2961   89.0233 C   0  0  0  0  0  0  0  0  0  0  0  0
    0.1380   63.3356   86.6718 C   0  0  0  0  0  0  0  0  0  0  0  0
    1.3058   64.1627   86.5546 C   0  0  0  0  0  0  0  0  0  0  0  0
    2.1129   64.2980   87.4453 O   0  0  0  0  0  0  0  0  0  0  0  0
    1.5203   64.8452   85.3590 N   0  0  0  0  0  0  0  0  0  0  0  0
    0.6614   64.7711   84.2534 C   0  0  0  0  0  0  0  0  0  0  0  0
   -0.4876   63.9744   84.3189 N   0  0  0  0  0  0  0  0  0  0  0  0
   -0.7221   63.2721   85.5351 C   0  0  0  0  0  0  0  0  0  0  0  0
   -1.1069   63.9027   83.5570 H   0  0  0  0  0  0  0  0  0  0  0  0
   -2.9053   62.0267   85.0434 C   0  0  0  0  0  0  0  0  0  0  0  0
   -2.9834   60.6057   82.9301 C   0  0  0  0  0  0  0  0  0  0  0  0
   -2.2242   61.6681   83.6784 C   0  0  0  0  0  0  0  0  0  0  0  0
    0.4230   65.0747   79.1682 S   0  0  0  0  0  0  0  0  0  0  0  0
   -0.6170   65.6634   78.6073 O   0  0  0  0  0  0  0  0  0  0  0  0
    1.3967   65.1998   78.2974 O   0  0  0  0  0  0  0  0  0  0  0  0
    0.1481   63.5605   79.5690 N   0  0  0  0  0  0  0  0  0  0  0  0
    0.8421   62.4880   78.6411 C   0  0  0  0  0  0  0  0  0  0  0  0
    0.1216   62.1130   77.3316 C   0  0  0  0  0  0  0  0  0  0  0  0
   -1.3773   62.0406   77.3970 N   0  0  0  0  0  0  0  0  0  0  0  0
   -1.7882   60.6188   77.1786 C   0  0  0  0  0  0  0  0  0  0  0  0
   -2.0994   62.5902   78.6295 C   0  0  0  0  0  0  0  0  0  0  0  0
   -1.2334   63.0150   79.8756 C   0  0  0  0  0  0  0  0  0  0  0  0
   -1.6759   62.6858   76.6655 H   0  0  0  0  0  0  0  0  0  0  0  0
    2.1022   67.3437   84.5066 O   0  0  0  0  0  0  0  0  0  0  0  0
    3.2426   68.1777   84.7937 C   0  0  0  0  0  0  0  0  0  0  0  0
    4.4267   67.2257   84.8256 C   0  0  0  0  0  0  0  0  0  0  0  0
 20 21  1  0  0  0
 21 19  1  0  0  0
 19  7  1  0  0  0
  7 17  1  0  0  0
  7  8  2  0  0  0
  8  9  1  0  0  0
  9 10  1  0  0  0
 11  9  1  0  0  0
 11 12  1  0  0  0
 12 13  2  0  0  0
 14 12  1  0  0  0
 15 14  2  0  0  0
 16 17  1  0  0  0
 16 15  1  0  0  0
 16 18  1  0  0  0
 17 11  2  0  0  0
  1 15  1  0  0  0
  1  6  1  0  0  0
  2  1  2  0  0  0
  3  2  1  0  0  0
  3  4  2  0  0  0
  4  5  1  0  0  0
  5  6  2  0  0  0
  6 33  1  0  0  0
 33 34  1  0  0  0
 34 35  1  0  0  0
 22 24  2  0  0  0
 22 25  1  0  0  0
 22  3  1  0  0  0
 23 22  2  0  0  0
 25 26  1  0  0  0
 27 26  1  0  0  0
 28 29  1  0  0  0
 28 27  1  0  0  0
 28 32  1  0  0  0
 30 28  1  0  0  0
 30 31  1  0  0  0
 31 25  1  0  0  0
M  CHG 1  28   1
M  END
> <minimizedAffinity>
-8.56863

$$$$
/home/hjpark/lecture_drug1/0905_agent/pde5_harness/sample_run/structures/work/ligand_ref.pdb


 35 38  0  0  0  0  0  0  0  0999 V2000
    0.3814   64.7012   82.5924 C   0  0  0  0  0  0  0  0  0  0  0  0
    1.1588   65.9139   82.4370 C   0  0  0  0  0  0  0  0  0  0  0  0
    1.7360   66.5945   83.5942 C   0  0  0  0  0  0  0  0  0  0  0  0
    1.4967   65.9870   84.9420 C   0  0  0  0  0  0  0  0  0  0  0  0
    0.7163   64.7670   85.1197 C   0  0  0  0  0  0  0  0  0  0  0  0
    0.1308   64.0927   83.9450 C   0  0  0  0  0  0  0  0  0  0  0  0
   -2.8047   62.1266   79.7188 C   0  0  0  0  0  0  0  0  0  0  0  0
   -2.7482   61.8827   78.3402 N   0  0  0  0  0  0  0  0  0  0  0  0
   -1.6340   62.4819   77.8276 N   0  0  0  0  0  0  0  0  0  0  0  0
   -1.2796   62.4152   76.4072 C   0  0  0  0  0  0  0  0  0  0  0  0
   -0.9888   63.1014   78.8678 C   0  0  0  0  0  0  0  0  0  0  0  0
    0.2122   63.8823   78.9655 C   0  0  0  0  0  0  0  0  0  0  0  0
    0.9147   64.1374   78.0145 O   0  0  0  0  0  0  0  0  0  0  0  0
    0.5898   64.3682   80.2155 N   0  0  0  0  0  0  0  0  0  0  0  0
   -0.1379   64.1432   81.3925 C   0  0  0  0  0  0  0  0  0  0  0  0
   -1.3176   63.3912   81.3465 N   0  0  0  0  0  0  0  0  0  0  0  0
   -1.7158   62.8855   80.0765 C   0  0  0  0  0  0  0  0  0  0  0  0
   -1.8490   63.2193   82.1572 H   0  0  0  0  0  0  0  0  0  0  0  0
   -3.8836   61.6396   80.6314 C   0  0  0  0  0  0  0  0  0  0  0  0
   -3.2357   59.1779   80.5245 C   0  0  0  0  0  0  0  0  0  0  0  0
   -3.2026   60.4301   81.3587 C   0  0  0  0  0  0  0  0  0  0  0  0
    2.5738   67.9495   83.4341 S   0  0  0  0  0  0  0  0  0  0  0  0
    2.5475   68.7752   84.4637 O   0  0  0  0  0  0  0  0  0  0  0  0
    3.8417   67.6574   83.2631 O   0  0  0  0  0  0  0  0  0  0  0  0
    1.9006   68.5534   82.1260 N   0  0  0  0  0  0  0  0  0  0  0  0
    2.9145   69.0461   81.0204 C   0  0  0  0  0  0  0  0  0  0  0  0
    3.5075   70.4590   81.1834 C   0  0  0  0  0  0  0  0  0  0  0  0
    2.5802   71.5085   81.7263 N   0  0  0  0  0  0  0  0  0  0  0  0
    2.3397   72.5226   80.6531 C   0  0  0  0  0  0  0  0  0  0  0  0
    1.2384   71.0826   82.3270 C   0  0  0  0  0  0  0  0  0  0  0  0
    0.7868   69.5822   82.1585 C   0  0  0  0  0  0  0  0  0  0  0  0
    3.0793   71.8641   82.5418 H   0  0  0  0  0  0  0  0  0  0  0  0
   -0.6764   62.8938   84.0207 O   0  0  0  0  0  0  0  0  0  0  0  0
   -1.2289   62.3434   85.2332 C   0  0  0  0  0  0  0  0  0  0  0  0
   -2.7133   62.1825   84.9502 C   0  0  0  0  0  0  0  0  0  0  0  0
 20 21  1  0  0  0
 21 19  1  0  0  0
 19  7  1  0  0  0
  7 17  1  0  0  0
  7  8  2  0  0  0
  8  9  1  0  0  0
  9 10  1  0  0  0
 11  9  1  0  0  0
 11 12  1  0  0  0
 12 13  2  0  0  0
 14 12  1  0  0  0
 15 14  2  0  0  0
 16 17  1  0  0  0
 16 15  1  0  0  0
 16 18  1  0  0  0
 17 11  2  0  0  0
  1 15  1  0  0  0
  1  6  1  0  0  0
  2  1  2  0  0  0
  3  2  1  0  0  0
  3  4  2  0  0  0
  4  5  1  0  0  0
  5  6  2  0  0  0
  6 33  1  0  0  0
 33 34  1  0  0  0
 34 35  1  0  0  0
 22 24  2  0  0  0
 22 25  1  0  0  0
 22  3  1  0  0  0
 23 22  2  0  0  0
 25 26  1  0  0  0
 27 26  1  0  0  0
 28 29  1  0  0  0
 28 27  1  0  0  0
 28 32  1  0  0  0
 30 28  1  0  0  0
 30 31  1  0  0  0
 31 25  1  0  0  0
M  CHG 1  28   1
M  END
> <minimizedAffinity>
-8.54980

$$$$
/home/hjpark/lecture_drug1/0905_agent/pde5_harness/sample_run/structures/work/ligand_ref.pdb


 35 38  0  0  0  0  0  0  0  0999 V2000
    1.2433   66.2226   81.9716 C   0  0  0  0  0  0  0  0  0  0  0  0
    1.5884   67.4832   81.3466 C   0  0  0  0  0  0  0  0  0  0  0  0
    2.1871   68.5699   82.1185 C   0  0  0  0  0  0  0  0  0  0  0  0
    2.4336   68.3267   83.5756 C   0  0  0  0  0  0  0  0  0  0  0  0
    2.0927   67.0647   84.2238 C   0  0  0  0  0  0  0  0  0  0  0  0
    1.4805   65.9773   83.4365 C   0  0  0  0  0  0  0  0  0  0  0  0
   -0.7094   61.7949   80.6983 C   0  0  0  0  0  0  0  0  0  0  0  0
   -1.1929   61.3702   79.4537 N   0  0  0  0  0  0  0  0  0  0  0  0
   -1.0639   62.3893   78.5549 N   0  0  0  0  0  0  0  0  0  0  0  0
   -1.4770   62.2687   77.1540 C   0  0  0  0  0  0  0  0  0  0  0  0
   -0.5054   63.4515   79.2197 C   0  0  0  0  0  0  0  0  0  0  0  0
   -0.1325   64.7814   78.8276 C   0  0  0  0  0  0  0  0  0  0  0  0
   -0.2813   65.2066   77.7051 O   0  0  0  0  0  0  0  0  0  0  0  0
    0.4306   65.6236   79.7841 N   0  0  0  0  0  0  0  0  0  0  0  0
    0.6541   65.2511   81.1170 C   0  0  0  0  0  0  0  0  0  0  0  0
    0.3030   63.9662   81.5472 N   0  0  0  0  0  0  0  0  0  0  0  0
   -0.2716   63.0926   80.5808 C   0  0  0  0  0  0  0  0  0  0  0  0
    0.4471   63.6789   82.4777 H   0  0  0  0  0  0  0  0  0  0  0  0
   -0.6887   60.9618   81.9390 C   0  0  0  0  0  0  0  0  0  0  0  0
   -2.9670   59.9084   82.3768 C   0  0  0  0  0  0  0  0  0  0  0  0
   -2.1350   61.1554   82.5107 C   0  0  0  0  0  0  0  0  0  0  0  0
    2.5470   69.9756   81.4417 S   0  0  0  0  0  0  0  0  0  0  0  0
    3.8312   70.2704   81.3597 O   0  0  0  0  0  0  0  0  0  0  0  0
    2.1154   69.9830   80.2024 O   0  0  0  0  0  0  0  0  0  0  0  0
    1.7329   70.9666   82.3818 N   0  0  0  0  0  0  0  0  0  0  0  0
    0.2258   71.1918   81.9681 C   0  0  0  0  0  0  0  0  0  0  0  0
   -0.0587   72.2390   80.8741 C   0  0  0  0  0  0  0  0  0  0  0  0
    0.7979   73.4726   80.8983 N   0  0  0  0  0  0  0  0  0  0  0  0
   -0.0742   74.6430   81.2261 C   0  0  0  0  0  0  0  0  0  0  0  0
    2.0396   73.5032   81.7927 C   0  0  0  0  0  0  0  0  0  0  0  0
    2.2533   72.3236   82.8155 C   0  0  0  0  0  0  0  0  0  0  0  0
    1.2043   73.4950   79.9630 H   0  0  0  0  0  0  0  0  0  0  0  0
    1.0861   64.7006   83.9926 O   0  0  0  0  0  0  0  0  0  0  0  0
    0.5180   64.5090   85.3037 C   0  0  0  0  0  0  0  0  0  0  0  0
   -0.4748   63.3705   85.1386 C   0  0  0  0  0  0  0  0  0  0  0  0
 20 21  1  0  0  0
 21 19  1  0  0  0
 19  7  1  0  0  0
  7 17  1  0  0  0
  7  8  2  0  0  0
  8  9  1  0  0  0
  9 10  1  0  0  0
 11  9  1  0  0  0
 11 12  1  0  0  0
 12 13  2  0  0  0
 14 12  1  0  0  0
 15 14  2  0  0  0
 16 17  1  0  0  0
 16 15  1  0  0  0
 16 18  1  0  0  0
 17 11  2  0  0  0
  1 15  1  0  0  0
  1  6  1  0  0  0
  2  1  2  0  0  0
  3  2  1  0  0  0
  3  4  2  0  0  0
  4  5  1  0  0  0
  5  6  2  0  0  0
  6 33  1  0  0  0
 33 34  1  0  0  0
 34 35  1  0  0  0
 22 24  2  0  0  0
 22 25  1  0  0  0
 22  3  1  0  0  0
 23 22  2  0  0  0
 25 26  1  0  0  0
 27 26  1  0  0  0
 28 29  1  0  0  0
 28 27  1  0  0  0
 28 32  1  0  0  0
 30 28  1  0  0  0
 30 31  1  0  0  0
 31 25  1  0  0  0
M  CHG 1  28   1
M  END
> <minimizedAffinity>
-8.51643

$$$$
/home/hjpark/lecture_drug1/0905_agent/pde5_harness/sample_run/structures/work/ligand_ref.pdb


 35 38  0  0  0  0  0  0  0  0999 V2000
    0.5635   65.3787   82.4938 C   0  0  0  0  0  0  0  0  0  0  0  0
    0.6857   66.4933   81.5764 C   0  0  0  0  0  0  0  0  0  0  0  0
    1.3418   67.7351   81.9798 C   0  0  0  0  0  0  0  0  0  0  0  0
    1.8856   67.8068   83.3734 C   0  0  0  0  0  0  0  0  0  0  0  0
    1.7722   66.6958   84.3125 C   0  0  0  0  0  0  0  0  0  0  0  0
    1.1001   65.4496   83.8972 C   0  0  0  0  0  0  0  0  0  0  0  0
   -0.6249   61.8450   79.1563 C   0  0  0  0  0  0  0  0  0  0  0  0
   -1.5486   60.7980   79.2726 N   0  0  0  0  0  0  0  0  0  0  0  0
   -2.1321   60.8543   80.5053 N   0  0  0  0  0  0  0  0  0  0  0  0
   -3.1503   59.8967   80.9456 C   0  0  0  0  0  0  0  0  0  0  0  0
   -1.5855   61.9246   81.1670 C   0  0  0  0  0  0  0  0  0  0  0  0
   -1.7829   62.4894   82.4722 C   0  0  0  0  0  0  0  0  0  0  0  0
   -2.5630   62.0367   83.2780 O   0  0  0  0  0  0  0  0  0  0  0  0
   -1.0430   63.6149   82.8287 N   0  0  0  0  0  0  0  0  0  0  0  0
   -0.1078   64.2328   81.9867 C   0  0  0  0  0  0  0  0  0  0  0  0
    0.1220   63.7157   80.7064 N   0  0  0  0  0  0  0  0  0  0  0  0
   -0.6281   62.5668   80.3261 C   0  0  0  0  0  0  0  0  0  0  0  0
    0.7741   64.1285   80.0952 H   0  0  0  0  0  0  0  0  0  0  0  0
    0.2206   62.1117   77.9530 C   0  0  0  0  0  0  0  0  0  0  0  0
   -1.6329   62.9312   76.4089 C   0  0  0  0  0  0  0  0  0  0  0  0
   -0.4900   63.3446   77.2964 C   0  0  0  0  0  0  0  0  0  0  0  0
    1.4574   68.9813   80.9812 S   0  0  0  0  0  0  0  0  0  0  0  0
    1.8663   68.7093   79.7558 O   0  0  0  0  0  0  0  0  0  0  0  0
    0.2741   69.5287   80.8325 O   0  0  0  0  0  0  0  0  0  0  0  0
    2.4657   69.9077   81.7898 N   0  0  0  0  0  0  0  0  0  0  0  0
    1.9205   71.3502   82.1294 C   0  0  0  0  0  0  0  0  0  0  0  0
    2.0447   72.4290   81.0363 C   0  0  0  0  0  0  0  0  0  0  0  0
    3.2938   72.3880   80.2031 N   0  0  0  0  0  0  0  0  0  0  0  0
    4.0902   73.6213   80.4907 C   0  0  0  0  0  0  0  0  0  0  0  0
    4.2101   71.1650   80.2891 C   0  0  0  0  0  0  0  0  0  0  0  0
    3.9216   70.0920   81.4065 C   0  0  0  0  0  0  0  0  0  0  0  0
    2.9382   72.3254   79.2492 H   0  0  0  0  0  0  0  0  0  0  0  0
    0.9175   64.3034   84.7620 O   0  0  0  0  0  0  0  0  0  0  0  0
    0.5508   64.3677   86.1547 C   0  0  0  0  0  0  0  0  0  0  0  0
   -0.4791   63.2658   86.3405 C   0  0  0  0  0  0  0  0  0  0  0  0
 20 21  1  0  0  0
 21 19  1  0  0  0
 19  7  1  0  0  0
  7 17  1  0  0  0
  7  8  2  0  0  0
  8  9  1  0  0  0
  9 10  1  0  0  0
 11  9  1  0  0  0
 11 12  1  0  0  0
 12 13  2  0  0  0
 14 12  1  0  0  0
 15 14  2  0  0  0
 16 17  1  0  0  0
 16 15  1  0  0  0
 16 18  1  0  0  0
 17 11  2  0  0  0
  1 15  1  0  0  0
  1  6  1  0  0  0
  2  1  2  0  0  0
  3  2  1  0  0  0
  3  4  2  0  0  0
  4  5  1  0  0  0
  5  6  2  0  0  0
  6 33  1  0  0  0
 33 34  1  0  0  0
 34 35  1  0  0  0
 22 24  2  0  0  0
 22 25  1  0  0  0
 22  3  1  0  0  0
 23 22  2  0  0  0
 25 26  1  0  0  0
 27 26  1  0  0  0
 28 29  1  0  0  0
 28 27  1  0  0  0
 28 32  1  0  0  0
 30 28  1  0  0  0
 30 31  1  0  0  0
 31 25  1  0  0  0
M  CHG 1  28   1
M  END
> <minimizedAffinity>
-8.47107

$$$$
/home/hjpark/lecture_drug1/0905_agent/pde5_harness/sample_run/structures/work/ligand_ref.pdb


 35 38  0  0  0  0  0  0  0  0999 V2000
    1.0199   66.2692   81.9576 C   0  0  0  0  0  0  0  0  0  0  0  0
    1.0775   67.5993   81.3864 C   0  0  0  0  0  0  0  0  0  0  0  0
    1.5517   68.7379   82.1699 C   0  0  0  0  0  0  0  0  0  0  0  0
    1.9794   68.4742   83.5807 C   0  0  0  0  0  0  0  0  0  0  0  0
    1.9285   67.1424   84.1747 C   0  0  0  0  0  0  0  0  0  0  0  0
    1.4397   66.0013   83.3769 C   0  0  0  0  0  0  0  0  0  0  0  0
   -0.6943   61.7371   80.7085 C   0  0  0  0  0  0  0  0  0  0  0  0
   -1.0695   61.2535   79.4482 N   0  0  0  0  0  0  0  0  0  0  0  0
   -0.9046   62.2444   78.5242 N   0  0  0  0  0  0  0  0  0  0  0  0
   -1.2074   62.0615   77.1020 C   0  0  0  0  0  0  0  0  0  0  0  0
   -0.4307   63.3472   79.1886 C   0  0  0  0  0  0  0  0  0  0  0  0
   -0.0705   64.6745   78.7761 C   0  0  0  0  0  0  0  0  0  0  0  0
   -0.1474   65.0551   77.6306 O   0  0  0  0  0  0  0  0  0  0  0  0
    0.3929   65.5677   79.7397 N   0  0  0  0  0  0  0  0  0  0  0  0
    0.5269   65.2495   81.0985 C   0  0  0  0  0  0  0  0  0  0  0  0
    0.1841   63.9692   81.5489 N   0  0  0  0  0  0  0  0  0  0  0  0
   -0.2890   63.0439   80.5757 C   0  0  0  0  0  0  0  0  0  0  0  0
    0.2666   63.7194   82.4975 H   0  0  0  0  0  0  0  0  0  0  0  0
   -0.7414   60.9487   81.9775 C   0  0  0  0  0  0  0  0  0  0  0  0
   -3.0044   59.8309   82.3249 C   0  0  0  0  0  0  0  0  0  0  0  0
   -2.2307   61.1171   82.4351 C   0  0  0  0  0  0  0  0  0  0  0  0
    1.5934   70.2156   81.5550 S   0  0  0  0  0  0  0  0  0  0  0  0
    1.3596   70.3139   80.2595 O   0  0  0  0  0  0  0  0  0  0  0  0
    0.6665   70.9487   82.1256 O   0  0  0  0  0  0  0  0  0  0  0  0
    3.0650   70.6582   81.9641 N   0  0  0  0  0  0  0  0  0  0  0  0
    3.2276   72.1883   82.3183 C   0  0  0  0  0  0  0  0  0  0  0  0
    3.4222   73.1692   81.1460 C   0  0  0  0  0  0  0  0  0  0  0  0
    4.2608   72.6763   80.0014 N   0  0  0  0  0  0  0  0  0  0  0  0
    5.5089   73.4992   79.9459 C   0  0  0  0  0  0  0  0  0  0  0  0
    4.6316   71.1930   79.9306 C   0  0  0  0  0  0  0  0  0  0  0  0
    4.3018   70.2800   81.1719 C   0  0  0  0  0  0  0  0  0  0  0  0
    3.6452   72.7842   79.1953 H   0  0  0  0  0  0  0  0  0  0  0  0
    1.3298   64.6498   83.8831 O   0  0  0  0  0  0  0  0  0  0  0  0
    0.8156   64.2917   85.1814 C   0  0  0  0  0  0  0  0  0  0  0  0
   -0.4235   63.4593   84.8966 C   0  0  0  0  0  0  0  0  0  0  0  0
 20 21  1  0  0  0
 21 19  1  0  0  0
 19  7  1  0  0  0
  7 17  1  0  0  0
  7  8  2  0  0  0
  8  9  1  0  0  0
  9 10  1  0  0  0
 11  9  1  0  0  0
 11 12  1  0  0  0
 12 13  2  0  0  0
 14 12  1  0  0  0
 15 14  2  0  0  0
 16 17  1  0  0  0
 16 15  1  0  0  0
 16 18  1  0  0  0
 17 11  2  0  0  0
  1 15  1  0  0  0
  1  6  1  0  0  0
  2  1  2  0  0  0
  3  2  1  0  0  0
  3  4  2  0  0  0
  4  5  1  0  0  0
  5  6  2  0  0  0
  6 33  1  0  0  0
 33 34  1  0  0  0
 34 35  1  0  0  0
 22 24  2  0  0  0
 22 25  1  0  0  0
 22  3  1  0  0  0
 23 22  2  0  0  0
 25 26  1  0  0  0
 27 26  1  0  0  0
 28 29  1  0  0  0
 28 27  1  0  0  0
 28 32  1  0  0  0
 30 28  1  0  0  0
 30 31  1  0  0  0
 31 25  1  0  0  0
M  CHG 1  28   1
M  END
> <minimizedAffinity>
-8.39026

$$$$
/home/hjpark/lecture_drug1/0905_agent/pde5_harness/sample_run/structures/work/ligand_ref.pdb


 35 38  0  0  0  0  0  0  0  0999 V2000
    0.5251   64.9268   81.7334 C   0  0  0  0  0  0  0  0  0  0  0  0
    0.2356   64.1280   80.5599 C   0  0  0  0  0  0  0  0  0  0  0  0
    0.5749   64.6031   79.2204 C   0  0  0  0  0  0  0  0  0  0  0  0
    1.2366   65.9421   79.1104 C   0  0  0  0  0  0  0  0  0  0  0  0
    1.5360   66.7621   80.2797 C   0  0  0  0  0  0  0  0  0  0  0  0
    1.1810   66.2761   81.6270 C   0  0  0  0  0  0  0  0  0  0  0  0
   -2.2047   62.1304   84.8586 C   0  0  0  0  0  0  0  0  0  0  0  0
   -2.0698   61.9702   86.2440 N   0  0  0  0  0  0  0  0  0  0  0  0
   -1.0176   62.7233   86.6787 N   0  0  0  0  0  0  0  0  0  0  0  0
   -0.6092   62.7790   88.0850 C   0  0  0  0  0  0  0  0  0  0  0  0
   -0.4877   63.3553   85.5823 C   0  0  0  0  0  0  0  0  0  0  0  0
    0.6100   64.2616   85.3946 C   0  0  0  0  0  0  0  0  0  0  0  0
    1.3155   64.6430   86.3000 O   0  0  0  0  0  0  0  0  0  0  0  0
    0.8753   64.7276   84.1087 N   0  0  0  0  0  0  0  0  0  0  0  0
    0.1333   64.3607   82.9772 C   0  0  0  0  0  0  0  0  0  0  0  0
   -0.9435   63.4762   83.1098 N   0  0  0  0  0  0  0  0  0  0  0  0
   -1.2290   62.9928   84.4182 C   0  0  0  0  0  0  0  0  0  0  0  0
   -1.4803   63.2004   82.3321 H   0  0  0  0  0  0  0  0  0  0  0  0
   -3.2406   61.4596   84.0155 C   0  0  0  0  0  0  0  0  0  0  0  0
   -3.1416   60.7651   81.5662 C   0  0  0  0  0  0  0  0  0  0  0  0
   -2.3895   60.8142   82.8688 C   0  0  0  0  0  0  0  0  0  0  0  0
    0.2344   63.7387   77.9164 S   0  0  0  0  0  0  0  0  0  0  0  0
   -0.1458   64.4183   76.8504 O   0  0  0  0  0  0  0  0  0  0  0  0
    1.3068   63.0834   77.5387 O   0  0  0  0  0  0  0  0  0  0  0  0
   -0.8994   62.7828   78.4905 N   0  0  0  0  0  0  0  0  0  0  0  0
   -0.5184   61.2513   78.5414 C   0  0  0  0  0  0  0  0  0  0  0  0
   -0.6973   60.4343   77.2473 C   0  0  0  0  0  0  0  0  0  0  0  0
   -1.8945   60.7767   76.4072 N   0  0  0  0  0  0  0  0  0  0  0  0
   -2.8234   59.6040   76.4143 C   0  0  0  0  0  0  0  0  0  0  0  0
   -2.6867   62.0490   76.7177 C   0  0  0  0  0  0  0  0  0  0  0  0
   -2.3462   62.8377   78.0388 C   0  0  0  0  0  0  0  0  0  0  0  0
   -1.4889   60.9912   75.4962 H   0  0  0  0  0  0  0  0  0  0  0  0
    1.4151   67.0248   82.8434 O   0  0  0  0  0  0  0  0  0  0  0  0
    2.2585   68.1892   82.9491 C   0  0  0  0  0  0  0  0  0  0  0  0
    3.0764   67.9680   84.2106 C   0  0  0  0  0  0  0  0  0  0  0  0
 20 21  1  0  0  0
 21 19  1  0  0  0
 19  7  1  0  0  0
  7 17  1  0  0  0
  7  8  2  0  0  0
  8  9  1  0  0  0
  9 10  1  0  0  0
 11  9  1  0  0  0
 11 12  1  0  0  0
 12 13  2  0  0  0
 14 12  1  0  0  0
 15 14  2  0  0  0
 16 17  1  0  0  0
 16 15  1  0  0  0
 16 18  1  0  0  0
 17 11  2  0  0  0
  1 15  1  0  0  0
  1  6  1  0  0  0
  2  1  2  0  0  0
  3  2  1  0  0  0
  3  4  2  0  0  0
  4  5  1  0  0  0
  5  6  2  0  0  0
  6 33  1  0  0  0
 33 34  1  0  0  0
 34 35  1  0  0  0
 22 24  2  0  0  0
 22 25  1  0  0  0
 22  3  1  0  0  0
 23 22  2  0  0  0
 25 26  1  0  0  0
 27 26  1  0  0  0
 28 29  1  0  0  0
 28 27  1  0  0  0
 28 32  1  0  0  0
 30 28  1  0  0  0
 30 31  1  0  0  0
 31 25  1  0  0  0
M  CHG 1  28   1
M  END
> <minimizedAffinity>
-8.30701

$$$$
/home/hjpark/lecture_drug1/0905_agent/pde5_harness/sample_run/structures/work/ligand_ref.pdb


 35 38  0  0  0  0  0  0  0  0999 V2000
    0.7132   65.3620   81.2659 C   0  0  0  0  0  0  0  0  0  0  0  0
    1.1760   65.9623   82.5006 C   0  0  0  0  0  0  0  0  0  0  0  0
    2.0226   67.1532   82.4905 C   0  0  0  0  0  0  0  0  0  0  0  0
    2.3869   67.7293   81.1570 C   0  0  0  0  0  0  0  0  0  0  0  0
    1.9317   67.1395   79.9024 C   0  0  0  0  0  0  0  0  0  0  0  0
    1.0842   65.9318   79.9242 C   0  0  0  0  0  0  0  0  0  0  0  0
   -1.5295   61.1176   79.8541 C   0  0  0  0  0  0  0  0  0  0  0  0
   -2.3639   60.2724   80.5974 N   0  0  0  0  0  0  0  0  0  0  0  0
   -2.5023   60.7793   81.8571 N   0  0  0  0  0  0  0  0  0  0  0  0
   -3.3174   60.1309   82.8881 C   0  0  0  0  0  0  0  0  0  0  0  0
   -1.7636   61.9339   81.9158 C   0  0  0  0  0  0  0  0  0  0  0  0
   -1.5127   62.8989   82.9489 C   0  0  0  0  0  0  0  0  0  0  0  0
   -1.9802   62.8143   84.0613 O   0  0  0  0  0  0  0  0  0  0  0  0
   -0.6936   63.9876   82.6574 N   0  0  0  0  0  0  0  0  0  0  0  0
   -0.0917   64.1990   81.4090 C   0  0  0  0  0  0  0  0  0  0  0  0
   -0.3036   63.2830   80.3719 N   0  0  0  0  0  0  0  0  0  0  0  0
   -1.1404   62.1660   80.6534 C   0  0  0  0  0  0  0  0  0  0  0  0
    0.1080   63.4059   79.4861 H   0  0  0  0  0  0  0  0  0  0  0  0
   -1.1335   60.8946   78.4302 C   0  0  0  0  0  0  0  0  0  0  0  0
   -3.2640   62.0104   77.5891 C   0  0  0  0  0  0  0  0  0  0  0  0
   -2.5139   60.7114   77.7112 C   0  0  0  0  0  0  0  0  0  0  0  0
    2.5603   67.8073   83.8494 S   0  0  0  0  0  0  0  0  0  0  0  0
    2.5340   69.1257   83.9111 O   0  0  0  0  0  0  0  0  0  0  0  0
    1.8131   67.4039   84.8499 O   0  0  0  0  0  0  0  0  0  0  0  0
    4.0310   67.2045   83.8988 N   0  0  0  0  0  0  0  0  0  0  0  0
    4.1209   65.7027   84.3782 C   0  0  0  0  0  0  0  0  0  0  0  0
    4.1277   65.4441   85.8972 C   0  0  0  0  0  0  0  0  0  0  0  0
    4.8794   66.4381   86.7357 N   0  0  0  0  0  0  0  0  0  0  0  0
    6.0550   65.7429   87.3462 C   0  0  0  0  0  0  0  0  0  0  0  0
    5.3441   67.7514   86.1016 C   0  0  0  0  0  0  0  0  0  0  0  0
    5.2054   67.9180   84.5408 C   0  0  0  0  0  0  0  0  0  0  0  0
    4.1799   66.7570   87.4060 H   0  0  0  0  0  0  0  0  0  0  0  0
    0.6031   65.2610   78.7354 O   0  0  0  0  0  0  0  0  0  0  0  0
   -0.6154   65.5868   78.0372 C   0  0  0  0  0  0  0  0  0  0  0  0
   -0.7202   64.5535   76.9279 C   0  0  0  0  0  0  0  0  0  0  0  0
 20 21  1  0  0  0
 21 19  1  0  0  0
 19  7  1  0  0  0
  7 17  1  0  0  0
  7  8  2  0  0  0
  8  9  1  0  0  0
  9 10  1  0  0  0
 11  9  1  0  0  0
 11 12  1  0  0  0
 12 13  2  0  0  0
 14 12  1  0  0  0
 15 14  2  0  0  0
 16 17  1  0  0  0
 16 15  1  0  0  0
 16 18  1  0  0  0
 17 11  2  0  0  0
  1 15  1  0  0  0
  1  6  1  0  0  0
  2  1  2  0  0  0
  3  2  1  0  0  0
  3  4  2  0  0  0
  4  5  1  0  0  0
  5  6  2  0  0  0
  6 33  1  0  0  0
 33 34  1  0  0  0
 34 35  1  0  0  0
 22 24  2  0  0  0
 22 25  1  0  0  0
 22  3  1  0  0  0
 23 22  2  0  0  0
 25 26  1  0  0  0
 27 26  1  0  0  0
 28 29  1  0  0  0
 28 27  1  0  0  0
 28 32  1  0  0  0
 30 28  1  0  0  0
 30 31  1  0  0  0
 31 25  1  0  0  0
M  CHG 1  28   1
M  END
> <minimizedAffinity>
-8.29383

$$$$
/home/hjpark/lecture_drug1/0905_agent/pde5_harness/sample_run/structures/work/ligand_ref.pdb


 35 38  0  0  0  0  0  0  0  0999 V2000
    0.9469   66.8742   81.2363 C   0  0  0  0  0  0  0  0  0  0  0  0
    0.6003   66.2185   79.9918 C   0  0  0  0  0  0  0  0  0  0  0  0
    0.2554   64.7989   79.9566 C   0  0  0  0  0  0  0  0  0  0  0  0
    0.2695   64.0532   81.2553 C   0  0  0  0  0  0  0  0  0  0  0  0
    0.6163   64.6950   82.5190 C   0  0  0  0  0  0  0  0  0  0  0  0
    0.9714   66.1270   82.5415 C   0  0  0  0  0  0  0  0  0  0  0  0
    0.1018   71.7995   80.9805 C   0  0  0  0  0  0  0  0  0  0  0  0
    1.0243   72.8465   80.8545 N   0  0  0  0  0  0  0  0  0  0  0  0
    2.2852   72.3257   80.8108 N   0  0  0  0  0  0  0  0  0  0  0  0
    3.4836   73.1589   80.6798 C   0  0  0  0  0  0  0  0  0  0  0  0
    2.1672   70.9624   80.9089 C   0  0  0  0  0  0  0  0  0  0  0  0
    3.1147   69.8837   80.9238 C   0  0  0  0  0  0  0  0  0  0  0  0
    4.3098   70.0515   80.8427 O   0  0  0  0  0  0  0  0  0  0  0  0
    2.6364   68.5798   81.0342 N   0  0  0  0  0  0  0  0  0  0  0  0
    1.2768   68.2534   81.1361 C   0  0  0  0  0  0  0  0  0  0  0  0
    0.3160   69.2713   81.1301 N   0  0  0  0  0  0  0  0  0  0  0  0
    0.7888   70.6094   81.0156 C   0  0  0  0  0  0  0  0  0  0  0  0
   -0.6451   69.0707   81.2021 H   0  0  0  0  0  0  0  0  0  0  0  0
   -1.3806   71.9697   81.0685 C   0  0  0  0  0  0  0  0  0  0  0  0
   -2.8144   72.4151   79.0100 C   0  0  0  0  0  0  0  0  0  0  0  0
   -1.6910   72.9295   79.8692 C   0  0  0  0  0  0  0  0  0  0  0  0
   -0.1030   64.0603   78.5820 S   0  0  0  0  0  0  0  0  0  0  0  0
   -0.8272   64.7514   77.7214 O   0  0  0  0  0  0  0  0  0  0  0  0
    1.0063   63.7738   77.9420 O   0  0  0  0  0  0  0  0  0  0  0  0
   -0.8457   62.7668   79.1334 N   0  0  0  0  0  0  0  0  0  0  0  0
   -0.2999   61.3946   78.5744 C   0  0  0  0  0  0  0  0  0  0  0  0
   -0.8287   60.9282   77.2044 C   0  0  0  0  0  0  0  0  0  0  0  0
   -2.2756   61.2142   76.9199 N   0  0  0  0  0  0  0  0  0  0  0  0
   -3.0029   59.9099   76.8308 C   0  0  0  0  0  0  0  0  0  0  0  0
   -3.0469   62.1591   77.8444 C   0  0  0  0  0  0  0  0  0  0  0  0
   -2.3552   62.6266   79.1810 C   0  0  0  0  0  0  0  0  0  0  0  0
   -2.2438   61.7427   76.0480 H   0  0  0  0  0  0  0  0  0  0  0  0
    1.3518   66.8463   83.7386 O   0  0  0  0  0  0  0  0  0  0  0  0
    2.6738   66.8555   84.3134 C   0  0  0  0  0  0  0  0  0  0  0  0
    2.9798   68.3218   84.5699 C   0  0  0  0  0  0  0  0  0  0  0  0
 20 21  1  0  0  0
 21 19  1  0  0  0
 19  7  1  0  0  0
  7 17  1  0  0  0
  7  8  2  0  0  0
  8  9  1  0  0  0
  9 10  1  0  0  0
 11  9  1  0  0  0
 11 12  1  0  0  0
 12 13  2  0  0  0
 14 12  1  0  0  0
 15 14  2  0  0  0
 16 17  1  0  0  0
 16 15  1  0  0  0
 16 18  1  0  0  0
 17 11  2  0  0  0
  1 15  1  0  0  0
  1  6  1  0  0  0
  2  1  2  0  0  0
  3  2  1  0  0  0
  3  4  2  0  0  0
  4  5  1  0  0  0
  5  6  2  0  0  0
  6 33  1  0  0  0
 33 34  1  0  0  0
 34 35  1  0  0  0
 22 24  2  0  0  0
 22 25  1  0  0  0
 22  3  1  0  0  0
 23 22  2  0  0  0
 25 26  1  0  0  0
 27 26  1  0  0  0
 28 29  1  0  0  0
 28 27  1  0  0  0
 28 32  1  0  0  0
 30 28  1  0  0  0
 30 31  1  0  0  0
 31 25  1  0  0  0
M  CHG 1  28   1
M  END
> <minimizedAffinity>
-8.19101

$$$$
