/home/hjpark/lecture_drug1/0905_agent/pde5_harness/sample_run/structures/work/ligand_ref.pdb


 34 37  0  0  0  0  0  0  0  0999 V2000
    0.4073   64.1291   83.8884 C   0  0  0  0  0  0  0  0  0  0  0  0
    0.1354   63.3919   82.6712 C   0  0  0  0  0  0  0  0  0  0  0  0
   -0.7069   62.1979   82.6835 C   0  0  0  0  0  0  0  0  0  0  0  0
   -1.2800   61.7716   83.9998 C   0  0  0  0  0  0  0  0  0  0  0  0
   -1.0177   62.4998   85.2368 C   0  0  0  0  0  0  0  0  0  0  0  0
   -0.1586   63.6993   85.2140 C   0  0  0  0  0  0  0  0  0  0  0  0
    4.3141   67.1039   84.8505 C   0  0  0  0  0  0  0  0  0  0  0  0
    4.6517   68.3318   84.2662 N   0  0  0  0  0  0  0  0  0  0  0  0
    3.7174   68.6473   83.3225 N   0  0  0  0  0  0  0  0  0  0  0  0
    3.7782   69.8756   82.5254 C   0  0  0  0  0  0  0  0  0  0  0  0
    2.7957   67.6312   83.3052 C   0  0  0  0  0  0  0  0  0  0  0  0
    1.6035   67.3870   82.5432 C   0  0  0  0  0  0  0  0  0  0  0  0
    1.1930   68.1457   81.6954 O   0  0  0  0  0  0  0  0  0  0  0  0
    0.8816   66.2217   82.7929 N   0  0  0  0  0  0  0  0  0  0  0  0
    1.2522   65.2637   83.7469 C   0  0  0  0  0  0  0  0  0  0  0  0
    2.4090   65.4560   84.5112 N   0  0  0  0  0  0  0  0  0  0  0  0
    3.1566   66.6434   84.2695 C   0  0  0  0  0  0  0  0  0  0  0  0
    2.6934   64.7987   85.1866 H   0  0  0  0  0  0  0  0  0  0  0  0
    5.1002   66.4203   85.9223 C   0  0  0  0  0  0  0  0  0  0  0  0
    7.4019   65.9017   84.9606 C   0  0  0  0  0  0  0  0  0  0  0  0
    5.9867   65.4128   85.1130 C   0  0  0  0  0  0  0  0  0  0  0  0
   -0.9908   61.3622   81.3477 S   0  0  0  0  0  0  0  0  0  0  0  0
    0.0702   60.8902   80.7198 O   0  0  0  0  0  0  0  0  0  0  0  0
   -1.7109   60.3054   81.6424 O   0  0  0  0  0  0  0  0  0  0  0  0
   -1.7973   62.4381   80.4988 N   0  0  0  0  0  0  0  0  0  0  0  0
   -3.2832   62.0344   80.1488 C   0  0  0  0  0  0  0  0  0  0  0  0
   -3.4997   61.1278   78.9218 C   0  0  0  0  0  0  0  0  0  0  0  0
   -2.6023   61.3805   77.7441 N   0  0  0  0  0  0  0  0  0  0  0  0
   -3.4429   61.8823   76.6129 C   0  0  0  0  0  0  0  0  0  0  0  0
   -1.3868   62.2952   77.9129 C   0  0  0  0  0  0  0  0  0  0  0  0
   -1.2434   63.1075   79.2557 C   0  0  0  0  0  0  0  0  0  0  0  0
    0.1787   64.4737   86.3893 O   0  0  0  0  0  0  0  0  0  0  0  0
   -0.2436   64.1654   87.7328 C   0  0  0  0  0  0  0  0  0  0  0  0
    0.8822   63.3272   88.3153 C   0  0  0  0  0  0  0  0  0  0  0  0
 20 21  1  0  0  0
 21 19  1  0  0  0
 19  7  1  0  0  0
  7 17  1  0  0  0
  7  8  2  0  0  0
  8  9  1  0  0  0
  9 10  1  0  0  0
 11  9  1  0  0  0
 11 12  1  0  0  0
 12 13  2  0  0  0
 14 12  1  0  0  0
 15 14  2  0  0  0
 16 17  1  0  0  0
 16 15  1  0  0  0
 16 18  1  0  0  0
 17 11  2  0  0  0
  1 15  1  0  0  0
  1  6  1  0  0  0
  2  1  2  0  0  0
  3  2  1  0  0  0
  3  4  2  0  0  0
  4  5  1  0  0  0
  5  6  2  0  0  0
  6 32  1  0  0  0
 32 33  1  0  0  0
 33 34  1  0  0  0
 22 24  2  0  0  0
 22 25  1  0  0  0
 22  3  1  0  0  0
 23 22  2  0  0  0
 25 26  1  0  0  0
 27 26  1  0  0  0
 28 29  1  0  0  0
 28 27  1  0  0  0
 30 28  1  0  0  0
 30 31  1  0  0  0
 31 25  1  0  0  0
M  END
> <minimizedAffinity>
-9.64338

$$$$
/home/hjpark/lecture_drug1/0905_agent/pde5_harness/sample_run/structures/work/ligand_ref.pdb


 34 37  0  0  0  0  0  0  0  0999 V2000
    0.1924   64.3169   84.1753 C   0  0  0  0  0  0  0  0  0  0  0  0
   -0.3990   63.7775   82.9677 C   0  0  0  0  0  0  0  0  0  0  0  0
   -1.3612   62.6792   83.0235 C   0  0  0  0  0  0  0  0  0  0  0  0
   -1.7141   62.1392   84.3751 C   0  0  0  0  0  0  0  0  0  0  0  0
   -1.1292   62.6680   85.6028 C   0  0  0  0  0  0  0  0  0  0  0  0
   -0.1520   63.7715   85.5341 C   0  0  0  0  0  0  0  0  0  0  0  0
    4.3198   67.0156   85.0237 C   0  0  0  0  0  0  0  0  0  0  0  0
    4.7550   68.1845   84.3855 N   0  0  0  0  0  0  0  0  0  0  0  0
    3.8511   68.5285   83.4223 N   0  0  0  0  0  0  0  0  0  0  0  0
    4.0110   69.7098   82.5699 C   0  0  0  0  0  0  0  0  0  0  0  0
    2.8519   67.5887   83.4461 C   0  0  0  0  0  0  0  0  0  0  0  0
    1.6461   67.4041   82.6888 C   0  0  0  0  0  0  0  0  0  0  0  0
    1.2992   68.1526   81.8042 O   0  0  0  0  0  0  0  0  0  0  0  0
    0.8337   66.3124   82.9874 N   0  0  0  0  0  0  0  0  0  0  0  0
    1.1248   65.3735   83.9870 C   0  0  0  0  0  0  0  0  0  0  0  0
    2.2912   65.5092   84.7488 N   0  0  0  0  0  0  0  0  0  0  0  0
    3.1310   66.6214   84.4573 C   0  0  0  0  0  0  0  0  0  0  0  0
    2.5210   64.8637   85.4556 H   0  0  0  0  0  0  0  0  0  0  0  0
    5.0465   66.3227   86.1309 C   0  0  0  0  0  0  0  0  0  0  0  0
    7.1253   65.6782   84.8062 C   0  0  0  0  0  0  0  0  0  0  0  0
    5.8228   65.1879   85.3790 C   0  0  0  0  0  0  0  0  0  0  0  0
   -1.9994   62.0594   81.6923 S   0  0  0  0  0  0  0  0  0  0  0  0
   -2.3593   60.7908   81.7553 O   0  0  0  0  0  0  0  0  0  0  0  0
   -3.0985   62.7115   81.3943 O   0  0  0  0  0  0  0  0  0  0  0  0
   -0.8245   62.3291   80.6552 N   0  0  0  0  0  0  0  0  0  0  0  0
   -1.1790   63.3370   79.4925 C   0  0  0  0  0  0  0  0  0  0  0  0
   -1.9246   62.7711   78.2685 C   0  0  0  0  0  0  0  0  0  0  0  0
   -1.5278   61.3902   77.8305 N   0  0  0  0  0  0  0  0  0  0  0  0
   -0.8872   61.4916   76.4824 C   0  0  0  0  0  0  0  0  0  0  0  0
   -0.6433   60.5407   78.7462 C   0  0  0  0  0  0  0  0  0  0  0  0
   -0.0056   61.2250   80.0145 C   0  0  0  0  0  0  0  0  0  0  0  0
    0.4994   64.3469   86.6914 O   0  0  0  0  0  0  0  0  0  0  0  0
    1.2662   63.6071   87.6625 C   0  0  0  0  0  0  0  0  0  0  0  0
    0.2690   63.2317   88.7461 C   0  0  0  0  0  0  0  0  0  0  0  0
 20 21  1  0  0  0
 21 19  1  0  0  0
 19  7  1  0  0  0
  7 17  1  0  0  0
  7  8  2  0  0  0
  8  9  1  0  0  0
  9 10  1  0  0  0
 11  9  1  0  0  0
 11 12  1  0  0  0
 12 13  2  0  0  0
 14 12  1  0  0  0
 15 14  2  0  0  0
 16 17  1  0  0  0
 16 15  1  0  0  0
 16 18  1  0  0  0
 17 11  2  0  0  0
  1 15  1  0  0  0
  1  6  1  0  0  0
  2  1  2  0  0  0
  3  2  1  0  0  0
  3  4  2  0  0  0
  4  5  1  0  0  0
  5  6  2  0  0  0
  6 32  1  0  0  0
 32 33  1  0  0  0
 33 34  1  0  0  0
 22 24  2  0  0  0
 22 25  1  0  0  0
 22  3  1  0  0  0
 23 22  2  0  0  0
 25 26  1  0  0  0
 27 26  1  0  0  0
 28 29  1  0  0  0
 28 27  1  0  0  0
 30 28  1  0  0  0
 30 31  1  0  0  0
 31 25  1  0  0  0
M  END
> <minimizedAffinity>
-9.55607

$$$$
/home/hjpark/lecture_drug1/0905_agent/pde5_harness/sample_run/structures/work/ligand_ref.pdb


 34 37  0  0  0  0  0  0  0  0999 V2000
    2.1313   67.1794   83.3151 C   0  0  0  0  0  0  0  0  0  0  0  0
    1.5821   68.1594   82.4002 C   0  0  0  0  0  0  0  0  0  0  0  0
    2.3312   69.3621   82.0429 C   0  0  0  0  0  0  0  0  0  0  0  0
    3.6870   69.5375   82.6544 C   0  0  0  0  0  0  0  0  0  0  0  0
    4.2575   68.5627   83.5782 C   0  0  0  0  0  0  0  0  0  0  0  0
    3.4886   67.3560   83.9387 C   0  0  0  0  0  0  0  0  0  0  0  0
   -0.1479   63.7300   86.1339 C   0  0  0  0  0  0  0  0  0  0  0  0
   -0.9979   62.6892   85.7372 N   0  0  0  0  0  0  0  0  0  0  0  0
   -1.1494   62.7307   84.3813 N   0  0  0  0  0  0  0  0  0  0  0  0
   -1.9795   61.7725   83.6461 C   0  0  0  0  0  0  0  0  0  0  0  0
   -0.4050   63.7866   83.9197 C   0  0  0  0  0  0  0  0  0  0  0  0
   -0.1649   64.3350   82.6146 C   0  0  0  0  0  0  0  0  0  0  0  0
   -0.6538   63.8807   81.6058 O   0  0  0  0  0  0  0  0  0  0  0  0
    0.6734   65.4421   82.5023 N   0  0  0  0  0  0  0  0  0  0  0  0
    1.2991   66.0609   83.5936 C   0  0  0  0  0  0  0  0  0  0  0  0
    1.0919   65.5646   84.8859 N   0  0  0  0  0  0  0  0  0  0  0  0
    0.2393   64.4318   85.0172 C   0  0  0  0  0  0  0  0  0  0  0  0
    1.5172   65.9807   85.6702 H   0  0  0  0  0  0  0  0  0  0  0  0
    0.2536   64.0178   87.5445 C   0  0  0  0  0  0  0  0  0  0  0  0
    0.2579   62.1276   89.2529 C   0  0  0  0  0  0  0  0  0  0  0  0
   -0.5983   62.9890   88.3641 C   0  0  0  0  0  0  0  0  0  0  0  0
    1.7208   70.4631   81.0536 S   0  0  0  0  0  0  0  0  0  0  0  0
    2.5816   71.0755   80.2620 O   0  0  0  0  0  0  0  0  0  0  0  0
    0.8612   69.8899   80.2446 O   0  0  0  0  0  0  0  0  0  0  0  0
    1.0244   71.4379   82.0994 N   0  0  0  0  0  0  0  0  0  0  0  0
   -0.4268   71.9166   81.7017 C   0  0  0  0  0  0  0  0  0  0  0  0
   -0.5376   73.1158   80.7405 C   0  0  0  0  0  0  0  0  0  0  0  0
    0.4777   74.2076   80.9228 N   0  0  0  0  0  0  0  0  0  0  0  0
   -0.2358   75.4397   81.3821 C   0  0  0  0  0  0  0  0  0  0  0  0
    1.6881   73.9599   81.8262 C   0  0  0  0  0  0  0  0  0  0  0  0
    1.7128   72.6486   82.6999 C   0  0  0  0  0  0  0  0  0  0  0  0
    3.9578   66.3452   84.8623 O   0  0  0  0  0  0  0  0  0  0  0  0
    5.3341   65.9485   85.0258 C   0  0  0  0  0  0  0  0  0  0  0  0
    5.3631   65.1584   86.3236 C   0  0  0  0  0  0  0  0  0  0  0  0
 20 21  1  0  0  0
 21 19  1  0  0  0
 19  7  1  0  0  0
  7 17  1  0  0  0
  7  8  2  0  0  0
  8  9  1  0  0  0
  9 10  1  0  0  0
 11  9  1  0  0  0
 11 12  1  0  0  0
 12 13  2  0  0  0
 14 12  1  0  0  0
 15 14  2  0  0  0
 16 17  1  0  0  0
 16 15  1  0  0  0
 16 18  1  0  0  0
 17 11  2  0  0  0
  1 15  1  0  0  0
  1  6  1  0  0  0
  2  1  2  0  0  0
  3  2  1  0  0  0
  3  4  2  0  0  0
  4  5  1  0  0  0
  5  6  2  0  0  0
  6 32  1  0  0  0
 32 33  1  0  0  0
 33 34  1  0  0  0
 22 24  2  0  0  0
 22 25  1  0  0  0
 22  3  1  0  0  0
 23 22  2  0  0  0
 25 26  1  0  0  0
 27 26  1  0  0  0
 28 29  1  0  0  0
 28 27  1  0  0  0
 30 28  1  0  0  0
 30 31  1  0  0  0
 31 25  1  0  0  0
M  END
> <minimizedAffinity>
-9.49322

$$$$
/home/hjpark/lecture_drug1/0905_agent/pde5_harness/sample_run/structures/work/ligand_ref.pdb


 34 37  0  0  0  0  0  0  0  0999 V2000
    2.0195   66.6893   83.5140 C   0  0  0  0  0  0  0  0  0  0  0  0
    1.5208   67.7878   82.7118 C   0  0  0  0  0  0  0  0  0  0  0  0
    2.2988   69.0130   82.5418 C   0  0  0  0  0  0  0  0  0  0  0  0
    3.6302   69.0849   83.2237 C   0  0  0  0  0  0  0  0  0  0  0  0
    4.1500   67.9900   84.0363 C   0  0  0  0  0  0  0  0  0  0  0  0
    3.3520   66.7608   84.2081 C   0  0  0  0  0  0  0  0  0  0  0  0
   -0.7795   63.2252   85.7951 C   0  0  0  0  0  0  0  0  0  0  0  0
   -1.5043   62.1668   85.2315 N   0  0  0  0  0  0  0  0  0  0  0  0
   -1.3503   62.1944   83.8756 N   0  0  0  0  0  0  0  0  0  0  0  0
   -1.9815   61.2163   82.9853 C   0  0  0  0  0  0  0  0  0  0  0  0
   -0.5375   63.2590   83.5788 C   0  0  0  0  0  0  0  0  0  0  0  0
   -0.0206   63.8006   82.3535 C   0  0  0  0  0  0  0  0  0  0  0  0
   -0.2656   63.3297   81.2667 O   0  0  0  0  0  0  0  0  0  0  0  0
    0.8052   64.9208   82.4176 N   0  0  0  0  0  0  0  0  0  0  0  0
    1.1628   65.5592   83.6135 C   0  0  0  0  0  0  0  0  0  0  0  0
    0.6801   65.0702   84.8330 N   0  0  0  0  0  0  0  0  0  0  0  0
   -0.1635   63.9242   84.7845 C   0  0  0  0  0  0  0  0  0  0  0  0
    0.9138   65.4999   85.6873 H   0  0  0  0  0  0  0  0  0  0  0  0
   -0.7068   63.5314   87.2563 C   0  0  0  0  0  0  0  0  0  0  0  0
    0.2161   62.2109   89.2301 C   0  0  0  0  0  0  0  0  0  0  0  0
   -0.4726   62.1196   87.8951 C   0  0  0  0  0  0  0  0  0  0  0  0
    1.7434   70.2421   81.6791 S   0  0  0  0  0  0  0  0  0  0  0  0
    1.7151   70.0692   80.3706 O   0  0  0  0  0  0  0  0  0  0  0  0
    0.4988   70.4826   82.0185 O   0  0  0  0  0  0  0  0  0  0  0  0
    2.7393   71.3930   82.1401 N   0  0  0  0  0  0  0  0  0  0  0  0
    2.1041   72.4858   83.0864 C   0  0  0  0  0  0  0  0  0  0  0  0
    1.3268   73.6357   82.4173 C   0  0  0  0  0  0  0  0  0  0  0  0
    1.8859   74.1474   81.1205 N   0  0  0  0  0  0  0  0  0  0  0  0
    2.3499   75.5539   81.3321 C   0  0  0  0  0  0  0  0  0  0  0  0
    2.9890   73.3534   80.4167 C   0  0  0  0  0  0  0  0  0  0  0  0
    3.6466   72.1450   81.1853 C   0  0  0  0  0  0  0  0  0  0  0  0
    3.7701   65.6321   85.0119 O   0  0  0  0  0  0  0  0  0  0  0  0
    5.1266   65.3635   85.4193 C   0  0  0  0  0  0  0  0  0  0  0  0
    5.0313   65.0156   86.8955 C   0  0  0  0  0  0  0  0  0  0  0  0
 20 21  1  0  0  0
 21 19  1  0  0  0
 19  7  1  0  0  0
  7 17  1  0  0  0
  7  8  2  0  0  0
  8  9  1  0  0  0
  9 10  1  0  0  0
 11  9  1  0  0  0
 11 12  1  0  0  0
 12 13  2  0  0  0
 14 12  1  0  0  0
 15 14  2  0  0  0
 16 17  1  0  0  0
 16 15  1  0  0  0
 16 18  1  0  0  0
 17 11  2  0  0  0
  1 15  1  0  0  0
  1  6  1  0  0  0
  2  1  2  0  0  0
  3  2  1  0  0  0
  3  4  2  0  0  0
  4  5  1  0  0  0
  5  6  2  0  0  0
  6 32  1  0  0  0
 32 33  1  0  0  0
 33 34  1  0  0  0
 22 24  2  0  0  0
 22 25  1  0  0  0
 22  3  1  0  0  0
 23 22  2  0  0  0
 25 26  1  0  0  0
 27 26  1  0  0  0
 28 29  1  0  0  0
 28 27  1  0  0  0
 30 28  1  0  0  0
 30 31  1  0  0  0
 31 25  1  0  0  0
M  END
> <minimizedAffinity>
-9.21617

$$$$
/home/hjpark/lecture_drug1/0905_agent/pde5_harness/sample_run/structures/work/ligand_ref.pdb


 34 37  0  0  0  0  0  0  0  0999 V2000
    2.1377   66.3126   84.0368 C   0  0  0  0  0  0  0  0  0  0  0  0
    1.6075   67.1877   83.0112 C   0  0  0  0  0  0  0  0  0  0  0  0
    2.4119   68.2733   82.4547 C   0  0  0  0  0  0  0  0  0  0  0  0
    3.8037   68.4407   82.9819 C   0  0  0  0  0  0  0  0  0  0  0  0
    4.3560   67.5706   84.0148 C   0  0  0  0  0  0  0  0  0  0  0  0
    3.5316   66.4829   84.5758 C   0  0  0  0  0  0  0  0  0  0  0  0
   -1.0275   62.4513   83.7048 C   0  0  0  0  0  0  0  0  0  0  0  0
   -1.7121   61.7826   84.7281 N   0  0  0  0  0  0  0  0  0  0  0  0
   -1.3856   62.3493   85.9262 N   0  0  0  0  0  0  0  0  0  0  0  0
   -1.9357   61.8815   87.2014 C   0  0  0  0  0  0  0  0  0  0  0  0
   -0.5022   63.3669   85.6689 C   0  0  0  0  0  0  0  0  0  0  0  0
    0.1897   64.3128   86.4985 C   0  0  0  0  0  0  0  0  0  0  0  0
    0.0745   64.3458   87.7021 O   0  0  0  0  0  0  0  0  0  0  0  0
    1.0328   65.2399   85.8896 N   0  0  0  0  0  0  0  0  0  0  0  0
    1.2520   65.3046   84.5064 C   0  0  0  0  0  0  0  0  0  0  0  0
    0.6029   64.4006   83.6574 N   0  0  0  0  0  0  0  0  0  0  0  0
   -0.2641   63.4482   84.2643 C   0  0  0  0  0  0  0  0  0  0  0  0
    0.7398   64.4224   82.6828 H   0  0  0  0  0  0  0  0  0  0  0  0
   -1.1195   62.1160   82.2512 C   0  0  0  0  0  0  0  0  0  0  0  0
    0.6907   61.5436   80.5520 C   0  0  0  0  0  0  0  0  0  0  0  0
    0.2380   61.3820   81.9781 C   0  0  0  0  0  0  0  0  0  0  0  0
    1.8246   69.2616   81.3403 S   0  0  0  0  0  0  0  0  0  0  0  0
    2.7006   69.7713   80.4944 O   0  0  0  0  0  0  0  0  0  0  0  0
    0.9667   68.6094   80.5915 O   0  0  0  0  0  0  0  0  0  0  0  0
    1.1290   70.3557   82.2611 N   0  0  0  0  0  0  0  0  0  0  0  0
   -0.3132   70.7998   81.7964 C   0  0  0  0  0  0  0  0  0  0  0  0
   -0.4024   71.8827   80.7038 C   0  0  0  0  0  0  0  0  0  0  0  0
    0.6228   72.9784   80.7712 N   0  0  0  0  0  0  0  0  0  0  0  0
   -0.0817   74.2616   81.0798 C   0  0  0  0  0  0  0  0  0  0  0  0
    1.8221   72.8237   81.7094 C   0  0  0  0  0  0  0  0  0  0  0  0
    1.8247   71.6204   82.7269 C   0  0  0  0  0  0  0  0  0  0  0  0
    3.9807   65.5840   85.6175 O   0  0  0  0  0  0  0  0  0  0  0  0
    5.3471   65.1733   85.8239 C   0  0  0  0  0  0  0  0  0  0  0  0
    5.6425   65.5090   87.2762 C   0  0  0  0  0  0  0  0  0  0  0  0
 20 21  1  0  0  0
 21 19  1  0  0  0
 19  7  1  0  0  0
  7 17  1  0  0  0
  7  8  2  0  0  0
  8  9  1  0  0  0
  9 10  1  0  0  0
 11  9  1  0  0  0
 11 12  1  0  0  0
 12 13  2  0  0  0
 14 12  1  0  0  0
 15 14  2  0  0  0
 16 17  1  0  0  0
 16 15  1  0  0  0
 16 18  1  0  0  0
 17 11  2  0  0  0
  1 15  1  0  0  0
  1  6  1  0  0  0
  2  1  2  0  0  0
  3  2  1  0  0  0
  3  4  2  0  0  0
  4  5  1  0  0  0
  5  6  2  0  0  0
  6 32  1  0  0  0
 32 33  1  0  0  0
 33 34  1  0  0  0
 22 24  2  0  0  0
 22 25  1  0  0  0
 22  3  1  0  0  0
 23 22  2  0  0  0
 25 26  1  0  0  0
 27 26  1  0  0  0
 28 29  1  0  0  0
 28 27  1  0  0  0
 30 28  1  0  0  0
 30 31  1  0  0  0
 31 25  1  0  0  0
M  END
> <minimizedAffinity>
-8.99562

$$$$
/home/hjpark/lecture_drug1/0905_agent/pde5_harness/sample_run/structures/work/ligand_ref.pdb


 34 37  0  0  0  0  0  0  0  0999 V2000
    0.9503   65.9789   82.0099 C   0  0  0  0  0  0  0  0  0  0  0  0
    1.4820   67.2134   82.5507 C   0  0  0  0  0  0  0  0  0  0  0  0
    2.0691   68.2287   81.6791 C   0  0  0  0  0  0  0  0  0  0  0  0
    2.0940   67.9449   80.2088 C   0  0  0  0  0  0  0  0  0  0  0  0
    1.5644   66.7079   79.6446 C   0  0  0  0  0  0  0  0  0  0  0  0
    0.9816   65.6857   80.5350 C   0  0  0  0  0  0  0  0  0  0  0  0
   -1.9171   62.2419   83.6983 C   0  0  0  0  0  0  0  0  0  0  0  0
   -2.0083   61.7175   84.9944 N   0  0  0  0  0  0  0  0  0  0  0  0
   -1.1502   62.3964   85.8104 N   0  0  0  0  0  0  0  0  0  0  0  0
   -1.0047   62.0931   87.2368 C   0  0  0  0  0  0  0  0  0  0  0  0
   -0.5189   63.3418   85.0425 C   0  0  0  0  0  0  0  0  0  0  0  0
    0.4739   64.3418   85.3185 C   0  0  0  0  0  0  0  0  0  0  0  0
    0.9570   64.5098   86.4146 O   0  0  0  0  0  0  0  0  0  0  0  0
    0.9007   65.1610   84.2755 N   0  0  0  0  0  0  0  0  0  0  0  0
    0.4198   65.0662   82.9620 C   0  0  0  0  0  0  0  0  0  0  0  0
   -0.5456   64.1039   82.6437 N   0  0  0  0  0  0  0  0  0  0  0  0
   -0.9939   63.2603   83.6995 C   0  0  0  0  0  0  0  0  0  0  0  0
   -0.8994   64.0141   81.7294 H   0  0  0  0  0  0  0  0  0  0  0  0
   -2.6980   61.7553   82.5204 C   0  0  0  0  0  0  0  0  0  0  0  0
   -1.0874   61.0801   80.6653 C   0  0  0  0  0  0  0  0  0  0  0  0
   -1.7731   60.6367   81.9295 C   0  0  0  0  0  0  0  0  0  0  0  0
    2.6830   69.5838   82.2709 S   0  0  0  0  0  0  0  0  0  0  0  0
    2.3192   69.8996   83.5000 O   0  0  0  0  0  0  0  0  0  0  0  0
    3.9906   69.4832   82.3172 O   0  0  0  0  0  0  0  0  0  0  0  0
    2.1854   70.6280   81.1796 N   0  0  0  0  0  0  0  0  0  0  0  0
    3.0874   71.9151   81.0275 C   0  0  0  0  0  0  0  0  0  0  0  0
    2.8471   73.0688   82.0203 C   0  0  0  0  0  0  0  0  0  0  0  0
    1.4188   73.3209   82.4107 N   0  0  0  0  0  0  0  0  0  0  0  0
    1.0168   74.6606   81.8799 C   0  0  0  0  0  0  0  0  0  0  0  0
    0.3494   72.2905   82.0403 C   0  0  0  0  0  0  0  0  0  0  0  0
    0.7510   71.1097   81.0770 C   0  0  0  0  0  0  0  0  0  0  0  0
    0.4532   64.4195   80.0742 O   0  0  0  0  0  0  0  0  0  0  0  0
   -0.0768   64.1744   78.7561 C   0  0  0  0  0  0  0  0  0  0  0  0
    0.9031   63.2074   78.1128 C   0  0  0  0  0  0  0  0  0  0  0  0
 20 21  1  0  0  0
 21 19  1  0  0  0
 19  7  1  0  0  0
  7 17  1  0  0  0
  7  8  2  0  0  0
  8  9  1  0  0  0
  9 10  1  0  0  0
 11  9  1  0  0  0
 11 12  1  0  0  0
 12 13  2  0  0  0
 14 12  1  0  0  0
 15 14  2  0  0  0
 16 17  1  0  0  0
 16 15  1  0  0  0
 16 18  1  0  0  0
 17 11  2  0  0  0
  1 15  1  0  0  0
  1  6  1  0  0  0
  2  1  2  0  0  0
  3  2  1  0  0  0
  3  4  2  0  0  0
  4  5  1  0  0  0
  5  6  2  0  0  0
  6 32  1  0  0  0
 32 33  1  0  0  0
 33 34  1  0  0  0
 22 24  2  0  0  0
 22 25  1  0  0  0
 22  3  1  0  0  0
 23 22  2  0  0  0
 25 26  1  0  0  0
 27 26  1  0  0  0
 28 29  1  0  0  0
 28 27  1  0  0  0
 30 28  1  0  0  0
 30 31  1  0  0  0
 31 25  1  0  0  0
M  END
> <minimizedAffinity>
-8.98270

$$$$
/home/hjpark/lecture_drug1/0905_agent/pde5_harness/sample_run/structures/work/ligand_ref.pdb


 34 37  0  0  0  0  0  0  0  0999 V2000
    0.5350   65.2587   81.4915 C   0  0  0  0  0  0  0  0  0  0  0  0
    0.8495   66.5311   80.8742 C   0  0  0  0  0  0  0  0  0  0  0  0
    1.4111   67.6311   81.6552 C   0  0  0  0  0  0  0  0  0  0  0  0
    1.6526   67.3890   83.1132 C   0  0  0  0  0  0  0  0  0  0  0  0
    1.3422   66.1153   83.7539 C   0  0  0  0  0  0  0  0  0  0  0  0
    0.7672   65.0142   82.9574 C   0  0  0  0  0  0  0  0  0  0  0  0
   -2.6908   61.7329   80.0078 C   0  0  0  0  0  0  0  0  0  0  0  0
   -2.6894   60.9777   78.8276 N   0  0  0  0  0  0  0  0  0  0  0  0
   -1.6210   61.3484   78.0634 N   0  0  0  0  0  0  0  0  0  0  0  0
   -1.3301   60.7446   76.7601 C   0  0  0  0  0  0  0  0  0  0  0  0
   -0.9500   62.3294   78.7486 C   0  0  0  0  0  0  0  0  0  0  0  0
    0.2270   63.1040   78.4722 C   0  0  0  0  0  0  0  0  0  0  0  0
    0.8761   62.9828   77.4588 O   0  0  0  0  0  0  0  0  0  0  0  0
    0.6450   64.0389   79.4169 N   0  0  0  0  0  0  0  0  0  0  0  0
   -0.0197   64.2746   80.6285 C   0  0  0  0  0  0  0  0  0  0  0  0
   -1.1741   63.5469   80.9402 N   0  0  0  0  0  0  0  0  0  0  0  0
   -1.6130   62.5857   79.9858 C   0  0  0  0  0  0  0  0  0  0  0  0
   -1.6616   63.6932   81.7829 H   0  0  0  0  0  0  0  0  0  0  0  0
   -3.7094   61.6202   81.0958 C   0  0  0  0  0  0  0  0  0  0  0  0
   -2.8959   59.4256   82.1024 C   0  0  0  0  0  0  0  0  0  0  0  0
   -2.9092   60.9234   82.2490 C   0  0  0  0  0  0  0  0  0  0  0  0
    1.7367   69.0490   80.9867 S   0  0  0  0  0  0  0  0  0  0  0  0
    3.0081   69.2924   80.7279 O   0  0  0  0  0  0  0  0  0  0  0  0
    1.1305   69.1302   79.8256 O   0  0  0  0  0  0  0  0  0  0  0  0
    1.1168   70.0307   82.0734 N   0  0  0  0  0  0  0  0  0  0  0  0
   -0.2819   70.6542   81.6888 C   0  0  0  0  0  0  0  0  0  0  0  0
   -0.2758   71.9029   80.7859 C   0  0  0  0  0  0  0  0  0  0  0  0
    0.8295   72.8907   81.0282 N   0  0  0  0  0  0  0  0  0  0  0  0
    0.2220   74.1579   81.5414 C   0  0  0  0  0  0  0  0  0  0  0  0
    2.0030   72.4943   81.9272 C   0  0  0  0  0  0  0  0  0  0  0  0
    1.9022   71.1459   82.7366 C   0  0  0  0  0  0  0  0  0  0  0  0
    0.4044   63.7247   83.5054 O   0  0  0  0  0  0  0  0  0  0  0  0
   -0.0190   63.4922   84.8637 C   0  0  0  0  0  0  0  0  0  0  0  0
   -0.5475   62.0675   84.8714 C   0  0  0  0  0  0  0  0  0  0  0  0
 20 21  1  0  0  0
 21 19  1  0  0  0
 19  7  1  0  0  0
  7 17  1  0  0  0
  7  8  2  0  0  0
  8  9  1  0  0  0
  9 10  1  0  0  0
 11  9  1  0  0  0
 11 12  1  0  0  0
 12 13  2  0  0  0
 14 12  1  0  0  0
 15 14  2  0  0  0
 16 17  1  0  0  0
 16 15  1  0  0  0
 16 18  1  0  0  0
 17 11  2  0  0  0
  1 15  1  0  0  0
  1  6  1  0  0  0
  2  1  2  0  0  0
  3  2  1  0  0  0
  3  4  2  0  0  0
  4  5  1  0  0  0
  5  6  2  0  0  0
  6 32  1  0  0  0
 32 33  1  0  0  0
 33 34  1  0  0  0
 22 24  2  0  0  0
 22 25  1  0  0  0
 22  3  1  0  0  0
 23 22  2  0  0  0
 25 26  1  0  0  0
 27 26  1  0  0  0
 28 29  1  0  0  0
 28 27  1  0  0  0
 30 28  1  0  0  0
 30 31  1  0  0  0
 31 25  1  0  0  0
M  END
> <minimizedAffinity>
-8.92433

$$$$
/home/hjpark/lecture_drug1/0905_agent/pde5_harness/sample_run/structures/work/ligand_ref.pdb


 34 37  0  0  0  0  0  0  0  0999 V2000
    0.3672   64.3993   84.5537 C   0  0  0  0  0  0  0  0  0  0  0  0
   -0.1810   64.1403   83.2379 C   0  0  0  0  0  0  0  0  0  0  0  0
   -1.3238   63.2476   83.0582 C   0  0  0  0  0  0  0  0  0  0  0  0
   -1.9069   62.6178   84.2854 C   0  0  0  0  0  0  0  0  0  0  0  0
   -1.3692   62.8652   85.6192 C   0  0  0  0  0  0  0  0  0  0  0  0
   -0.2093   63.7616   85.7880 C   0  0  0  0  0  0  0  0  0  0  0  0
    3.0305   68.5132   83.5433 C   0  0  0  0  0  0  0  0  0  0  0  0
    4.3320   68.8412   83.9454 N   0  0  0  0  0  0  0  0  0  0  0  0
    4.8296   67.8275   84.7122 N   0  0  0  0  0  0  0  0  0  0  0  0
    6.1753   67.8581   85.2917 C   0  0  0  0  0  0  0  0  0  0  0  0
    3.8556   66.8652   84.7984 C   0  0  0  0  0  0  0  0  0  0  0  0
    3.7772   65.5897   85.4531 C   0  0  0  0  0  0  0  0  0  0  0  0
    4.6813   65.1261   86.1093 O   0  0  0  0  0  0  0  0  0  0  0  0
    2.6050   64.8475   85.3254 N   0  0  0  0  0  0  0  0  0  0  0  0
    1.4873   65.2738   84.5944 C   0  0  0  0  0  0  0  0  0  0  0  0
    1.5151   66.5121   83.9422 N   0  0  0  0  0  0  0  0  0  0  0  0
    2.7070   67.2817   84.0613 C   0  0  0  0  0  0  0  0  0  0  0  0
    0.7439   66.8368   83.4237 H   0  0  0  0  0  0  0  0  0  0  0  0
    2.1521   69.3768   82.6969 C   0  0  0  0  0  0  0  0  0  0  0  0
    2.0344   68.1151   80.4865 C   0  0  0  0  0  0  0  0  0  0  0  0
    2.7546   69.1843   81.2631 C   0  0  0  0  0  0  0  0  0  0  0  0
   -1.9190   62.9350   81.6051 S   0  0  0  0  0  0  0  0  0  0  0  0
   -3.2231   63.0858   81.4654 O   0  0  0  0  0  0  0  0  0  0  0  0
   -1.3851   63.7565   80.7321 O   0  0  0  0  0  0  0  0  0  0  0  0
   -1.4351   61.4326   81.4110 N   0  0  0  0  0  0  0  0  0  0  0  0
   -0.2173   61.2461   80.4234 C   0  0  0  0  0  0  0  0  0  0  0  0
   -0.5323   61.1790   78.9165 C   0  0  0  0  0  0  0  0  0  0  0  0
   -1.7931   60.4576   78.5342 N   0  0  0  0  0  0  0  0  0  0  0  0
   -1.4166   59.2277   77.7703 C   0  0  0  0  0  0  0  0  0  0  0  0
   -2.8012   60.0850   79.6240 C   0  0  0  0  0  0  0  0  0  0  0  0
   -2.3801   60.2801   81.1300 C   0  0  0  0  0  0  0  0  0  0  0  0
    0.4092   64.0506   87.0642 O   0  0  0  0  0  0  0  0  0  0  0  0
   -0.2138   63.8536   88.3493 C   0  0  0  0  0  0  0  0  0  0  0  0
    0.4543   62.6153   88.9234 C   0  0  0  0  0  0  0  0  0  0  0  0
 20 21  1  0  0  0
 21 19  1  0  0  0
 19  7  1  0  0  0
  7 17  1  0  0  0
  7  8  2  0  0  0
  8  9  1  0  0  0
  9 10  1  0  0  0
 11  9  1  0  0  0
 11 12  1  0  0  0
 12 13  2  0  0  0
 14 12  1  0  0  0
 15 14  2  0  0  0
 16 17  1  0  0  0
 16 15  1  0  0  0
 16 18  1  0  0  0
 17 11  2  0  0  0
  1 15  1  0  0  0
  1  6  1  0  0  0
  2  1  2  0  0  0
  3  2  1  0  0  0
  3  4  2  0  0  0
  4  5  1  0  0  0
  5  6  2  0  0  0
  6 32  1  0  0  0
 32 33  1  0  0  0
 33 34  1  0  0  0
 22 24  2  0  0  0
 22 25  1  0  0  0
 22  3  1  0  0  0
 23 22  2  0  0  0
 25 26  1  0  0  0
 27 26  1  0  0  0
 28 29  1  0  0  0
 28 27  1  0  0  0
 30 28  1  0  0  0
 30 31  1  0  0  0
 31 25  1  0  0  0
M  END
> <minimizedAffinity>
-8.90887

$$$$
/home/hjpark/lecture_drug1/0905_agent/pde5_harness/sample_run/structures/work/ligand_ref.pdb


 34 37  0  0  0  0  0  0  0  0999 V2000
    0.0699   63.3394   84.0816 C   0  0  0  0  0  0  0  0  0  0  0  0
    0.9379   64.4069   83.6277 C   0  0  0  0  0  0  0  0  0  0  0  0
    1.5916   65.3044   84.5776 C   0  0  0  0  0  0  0  0  0  0  0  0
    1.3330   65.0737   86.0346 C   0  0  0  0  0  0  0  0  0  0  0  0
    0.4619   64.0049   86.5121 C   0  0  0  0  0  0  0  0  0  0  0  0
   -0.1999   63.1098   85.5435 C   0  0  0  0  0  0  0  0  0  0  0  0
   -0.5819   61.5364   79.4597 C   0  0  0  0  0  0  0  0  0  0  0  0
   -1.5189   60.6001   79.0031 N   0  0  0  0  0  0  0  0  0  0  0  0
   -2.2949   60.1993   80.0520 N   0  0  0  0  0  0  0  0  0  0  0  0
   -3.3772   59.2215   79.9101 C   0  0  0  0  0  0  0  0  0  0  0  0
   -1.8564   60.8720   81.1644 C   0  0  0  0  0  0  0  0  0  0  0  0
   -2.2600   60.8785   82.5423 C   0  0  0  0  0  0  0  0  0  0  0  0
   -3.1638   60.1981   82.9704 O   0  0  0  0  0  0  0  0  0  0  0  0
   -1.5809   61.7101   83.4303 N   0  0  0  0  0  0  0  0  0  0  0  0
   -0.5173   62.5447   83.0595 C   0  0  0  0  0  0  0  0  0  0  0  0
   -0.0854   62.5694   81.7283 N   0  0  0  0  0  0  0  0  0  0  0  0
   -0.7709   61.7267   80.8079 C   0  0  0  0  0  0  0  0  0  0  0  0
    0.6600   63.1445   81.4408 H   0  0  0  0  0  0  0  0  0  0  0  0
    0.4498   62.2017   78.6071 C   0  0  0  0  0  0  0  0  0  0  0  0
   -0.9182   63.4542   76.8603 C   0  0  0  0  0  0  0  0  0  0  0  0
   -0.2476   63.5461   78.2045 C   0  0  0  0  0  0  0  0  0  0  0  0
    2.5310   66.5030   84.0835 S   0  0  0  0  0  0  0  0  0  0  0  0
    3.1114   66.3415   82.9088 O   0  0  0  0  0  0  0  0  0  0  0  0
    1.8129   67.5947   83.9621 O   0  0  0  0  0  0  0  0  0  0  0  0
    3.5638   66.5780   85.2904 N   0  0  0  0  0  0  0  0  0  0  0  0
    4.4421   67.8894   85.3366 C   0  0  0  0  0  0  0  0  0  0  0  0
    5.7044   67.9269   84.4537 C   0  0  0  0  0  0  0  0  0  0  0  0
    6.4683   66.6391   84.3341 N   0  0  0  0  0  0  0  0  0  0  0  0
    7.8023   66.8226   84.9860 C   0  0  0  0  0  0  0  0  0  0  0  0
    5.8330   65.3428   84.8425 C   0  0  0  0  0  0  0  0  0  0  0  0
    4.4933   65.4402   85.6667 C   0  0  0  0  0  0  0  0  0  0  0  0
   -1.0983   62.0382   85.9169 O   0  0  0  0  0  0  0  0  0  0  0  0
   -1.7434   61.9084   87.1996 C   0  0  0  0  0  0  0  0  0  0  0  0
   -2.8816   62.9147   87.1699 C   0  0  0  0  0  0  0  0  0  0  0  0
 20 21  1  0  0  0
 21 19  1  0  0  0
 19  7  1  0  0  0
  7 17  1  0  0  0
  7  8  2  0  0  0
  8  9  1  0  0  0
  9 10  1  0  0  0
 11  9  1  0  0  0
 11 12  1  0  0  0
 12 13  2  0  0  0
 14 12  1  0  0  0
 15 14  2  0  0  0
 16 17  1  0  0  0
 16 15  1  0  0  0
 16 18  1  0  0  0
 17 11  2  0  0  0
  1 15  1  0  0  0
  1  6  1  0  0  0
  2  1  2  0  0  0
  3  2  1  0  0  0
  3  4  2  0  0  0
  4  5  1  0  0  0
  5  6  2  0  0  0
  6 32  1  0  0  0
 32 33  1  0  0  0
 33 34  1  0  0  0
 22 24  2  0  0  0
 22 25  1  0  0  0
 22  3  1  0  0  0
 23 22  2  0  0  0
 25 26  1  0  0  0
 27 26  1  0  0  0
 28 29  1  0  0  0
 28 27  1  0  0  0
 30 28  1  0  0  0
 30 31  1  0  0  0
 31 25  1  0  0  0
M  END
> <minimizedAffinity>
-8.67421

$$$$
/home/hjpark/lecture_drug1/0905_agent/pde5_harness/sample_run/structures/work/ligand_ref.pdb


 34 37  0  0  0  0  0  0  0  0999 V2000
    0.5036   65.1006   82.7144 C   0  0  0  0  0  0  0  0  0  0  0  0
    0.6456   66.1772   81.7553 C   0  0  0  0  0  0  0  0  0  0  0  0
    1.3047   67.4299   82.1180 C   0  0  0  0  0  0  0  0  0  0  0  0
    1.8304   67.5534   83.5149 C   0  0  0  0  0  0  0  0  0  0  0  0
    1.6969   66.4814   84.4957 C   0  0  0  0  0  0  0  0  0  0  0  0
    1.0219   65.2239   84.1210 C   0  0  0  0  0  0  0  0  0  0  0  0
   -0.9530   61.6594   79.3866 C   0  0  0  0  0  0  0  0  0  0  0  0
   -1.7907   60.5519   79.5735 N   0  0  0  0  0  0  0  0  0  0  0  0
   -2.1934   60.5136   80.8771 N   0  0  0  0  0  0  0  0  0  0  0  0
   -3.0829   59.4741   81.4024 C   0  0  0  0  0  0  0  0  0  0  0  0
   -1.6179   61.5840   81.5136 C   0  0  0  0  0  0  0  0  0  0  0  0
   -1.6570   62.0735   82.8628 C   0  0  0  0  0  0  0  0  0  0  0  0
   -2.2869   61.5352   83.7440 O   0  0  0  0  0  0  0  0  0  0  0  0
   -0.9375   63.2254   83.1736 N   0  0  0  0  0  0  0  0  0  0  0  0
   -0.1687   63.9397   82.2440 C   0  0  0  0  0  0  0  0  0  0  0  0
   -0.0967   63.4987   80.9175 N   0  0  0  0  0  0  0  0  0  0  0  0
   -0.8284   62.3239   80.5834 C   0  0  0  0  0  0  0  0  0  0  0  0
    0.4369   63.9800   80.2446 H   0  0  0  0  0  0  0  0  0  0  0  0
   -0.3052   62.0349   78.0930 C   0  0  0  0  0  0  0  0  0  0  0  0
   -0.5703   64.3846   77.1443 C   0  0  0  0  0  0  0  0  0  0  0  0
   -1.2847   63.1130   77.5150 C   0  0  0  0  0  0  0  0  0  0  0  0
    1.4421   68.6346   81.0725 S   0  0  0  0  0  0  0  0  0  0  0  0
    1.9558   68.3283   79.8956 O   0  0  0  0  0  0  0  0  0  0  0  0
    0.2508   69.1181   80.8094 O   0  0  0  0  0  0  0  0  0  0  0  0
    2.3434   69.6428   81.9092 N   0  0  0  0  0  0  0  0  0  0  0  0
    1.6774   71.0431   82.2076 C   0  0  0  0  0  0  0  0  0  0  0  0
    1.7651   72.1174   81.1065 C   0  0  0  0  0  0  0  0  0  0  0  0
    3.0473   72.1629   80.3253 N   0  0  0  0  0  0  0  0  0  0  0  0
    3.7359   73.4558   80.6289 C   0  0  0  0  0  0  0  0  0  0  0  0
    4.0487   71.0138   80.4642 C   0  0  0  0  0  0  0  0  0  0  0  0
    3.7958   69.9331   81.5829 C   0  0  0  0  0  0  0  0  0  0  0  0
    0.8200   64.1141   85.0280 O   0  0  0  0  0  0  0  0  0  0  0  0
    0.6738   64.2297   86.4575 C   0  0  0  0  0  0  0  0  0  0  0  0
   -0.5792   63.4364   86.7891 C   0  0  0  0  0  0  0  0  0  0  0  0
 20 21  1  0  0  0
 21 19  1  0  0  0
 19  7  1  0  0  0
  7 17  1  0  0  0
  7  8  2  0  0  0
  8  9  1  0  0  0
  9 10  1  0  0  0
 11  9  1  0  0  0
 11 12  1  0  0  0
 12 13  2  0  0  0
 14 12  1  0  0  0
 15 14  2  0  0  0
 16 17  1  0  0  0
 16 15  1  0  0  0
 16 18  1  0  0  0
 17 11  2  0  0  0
  1 15  1  0  0  0
  1  6  1  0  0  0
  2  1  2  0  0  0
  3  2  1  0  0  0
  3  4  2  0  0  0
  4  5  1  0  0  0
  5  6  2  0  0  0
  6 32  1  0  0  0
 32 33  1  0  0  0
 33 34  1  0  0  0
 22 24  2  0  0  0
 22 25  1  0  0  0
 22  3  1  0  0  0
 23 22  2  0  0  0
 25 26  1  0  0  0
 27 26  1  0  0  0
 28 29  1  0  0  0
 28 27  1  0  0  0
 30 28  1  0  0  0
 30 31  1  0  0  0
 31 25  1  0  0  0
M  END
> <minimizedAffinity>
-8.62050

$$$$
/home/hjpark/lecture_drug1/0905_agent/pde5_harness/sample_run/structures/work/ligand_ref.pdb


 34 37  0  0  0  0  0  0  0  0999 V2000
    0.8945   65.5014   83.0408 C   0  0  0  0  0  0  0  0  0  0  0  0
    0.5074   64.9457   81.7600 C   0  0  0  0  0  0  0  0  0  0  0  0
    0.7956   65.6505   80.5128 C   0  0  0  0  0  0  0  0  0  0  0  0
    1.5094   66.9634   80.6114 C   0  0  0  0  0  0  0  0  0  0  0  0
    1.9070   67.5403   81.8913 C   0  0  0  0  0  0  0  0  0  0  0  0
    1.6033   66.8239   83.1451 C   0  0  0  0  0  0  0  0  0  0  0  0
   -1.8261   62.3201   85.7823 C   0  0  0  0  0  0  0  0  0  0  0  0
   -1.6110   61.8819   87.0956 N   0  0  0  0  0  0  0  0  0  0  0  0
   -0.4770   62.4673   87.5799 N   0  0  0  0  0  0  0  0  0  0  0  0
    0.0282   62.2191   88.9330 C   0  0  0  0  0  0  0  0  0  0  0  0
    0.0250   63.2686   86.5859 C   0  0  0  0  0  0  0  0  0  0  0  0
    1.1741   64.1237   86.4872 C   0  0  0  0  0  0  0  0  0  0  0  0
    1.9663   64.2743   87.3887 O   0  0  0  0  0  0  0  0  0  0  0  0
    1.3874   64.8165   85.2973 N   0  0  0  0  0  0  0  0  0  0  0  0
    0.5448   64.7268   84.1804 C   0  0  0  0  0  0  0  0  0  0  0  0
   -0.5856   63.9027   84.2278 N   0  0  0  0  0  0  0  0  0  0  0  0
   -0.8188   63.1897   85.4379 C   0  0  0  0  0  0  0  0  0  0  0  0
   -1.1932   63.8196   83.4577 H   0  0  0  0  0  0  0  0  0  0  0  0
   -2.9651   61.8947   84.9130 C   0  0  0  0  0  0  0  0  0  0  0  0
   -3.0609   60.4613   82.8087 C   0  0  0  0  0  0  0  0  0  0  0  0
   -2.2471   61.4570   83.5905 C   0  0  0  0  0  0  0  0  0  0  0  0
    0.3478   65.0565   79.0950 S   0  0  0  0  0  0  0  0  0  0  0  0
   -0.6935   65.6337   78.5247 O   0  0  0  0  0  0  0  0  0  0  0  0
    1.3296   65.1985   78.2360 O   0  0  0  0  0  0  0  0  0  0  0  0
    0.0887   63.5371   79.4864 N   0  0  0  0  0  0  0  0  0  0  0  0
    0.8084   62.4779   78.5625 C   0  0  0  0  0  0  0  0  0  0  0  0
    0.1089   62.0988   77.2430 C   0  0  0  0  0  0  0  0  0  0  0  0
   -1.3896   62.0058   77.2899 N   0  0  0  0  0  0  0  0  0  0  0  0
   -1.7785   60.5795   77.0608 C   0  0  0  0  0  0  0  0  0  0  0  0
   -2.1339   62.5404   78.5158 C   0  0  0  0  0  0  0  0  0  0  0  0
   -1.2888   62.9715   79.7741 C   0  0  0  0  0  0  0  0  0  0  0  0
    1.9351   67.3242   84.4621 O   0  0  0  0  0  0  0  0  0  0  0  0
    3.1280   68.0644   84.7897 C   0  0  0  0  0  0  0  0  0  0  0  0
    4.2489   67.0389   84.7517 C   0  0  0  0  0  0  0  0  0  0  0  0
 20 21  1  0  0  0
 21 19  1  0  0  0
 19  7  1  0  0  0
  7 17  1  0  0  0
  7  8  2  0  0  0
  8  9  1  0  0  0
  9 10  1  0  0  0
 11  9  1  0  0  0
 11 12  1  0  0  0
 12 13  2  0  0  0
 14 12  1  0  0  0
 15 14  2  0  0  0
 16 17  1  0  0  0
 16 15  1  0  0  0
 16 18  1  0  0  0
 17 11  2  0  0  0
  1 15  1  0  0  0
  1  6  1  0  0  0
  2  1  2  0  0  0
  3  2  1  0  0  0
  3  4  2  0  0  0
  4  5  1  0  0  0
  5  6  2  0  0  0
  6 32  1  0  0  0
 32 33  1  0  0  0
 33 34  1  0  0  0
 22 24  2  0  0  0
 22 25  1  0  0  0
 22  3  1  0  0  0
 23 22  2  0  0  0
 25 26  1  0  0  0
 27 26  1  0  0  0
 28 29  1  0  0  0
 28 27  1  0  0  0
 30 28  1  0  0  0
 30 31  1  0  0  0
 31 25  1  0  0  0
M  END
> <minimizedAffinity>
-8.60630

$$$$
/home/hjpark/lecture_drug1/0905_agent/pde5_harness/sample_run/structures/work/ligand_ref.pdb


 34 37  0  0  0  0  0  0  0  0999 V2000
    0.4128   64.8790   82.4741 C   0  0  0  0  0  0  0  0  0  0  0  0
    1.1699   66.0956   82.2605 C   0  0  0  0  0  0  0  0  0  0  0  0
    1.7370   66.8392   83.3833 C   0  0  0  0  0  0  0  0  0  0  0  0
    1.5092   66.2918   84.7586 C   0  0  0  0  0  0  0  0  0  0  0  0
    0.7492   65.0688   84.9948 C   0  0  0  0  0  0  0  0  0  0  0  0
    0.1737   64.3306   83.8541 C   0  0  0  0  0  0  0  0  0  0  0  0
   -2.7421   62.1331   79.7272 C   0  0  0  0  0  0  0  0  0  0  0  0
   -2.6803   61.8213   78.3626 N   0  0  0  0  0  0  0  0  0  0  0  0
   -1.5710   62.4052   77.8226 N   0  0  0  0  0  0  0  0  0  0  0  0
   -1.2130   62.2713   76.4078 C   0  0  0  0  0  0  0  0  0  0  0  0
   -0.9340   63.0821   78.8317 C   0  0  0  0  0  0  0  0  0  0  0  0
    0.2591   63.8787   78.8922 C   0  0  0  0  0  0  0  0  0  0  0  0
    0.9610   64.0931   77.9308 O   0  0  0  0  0  0  0  0  0  0  0  0
    0.6293   64.4300   80.1170 N   0  0  0  0  0  0  0  0  0  0  0  0
   -0.0986   64.2567   81.3026 C   0  0  0  0  0  0  0  0  0  0  0  0
   -1.2708   63.4917   81.2922 N   0  0  0  0  0  0  0  0  0  0  0  0
   -1.6614   62.9195   80.0484 C   0  0  0  0  0  0  0  0  0  0  0  0
   -1.8022   63.3553   82.1096 H   0  0  0  0  0  0  0  0  0  0  0  0
   -3.8181   61.6815   80.6612 C   0  0  0  0  0  0  0  0  0  0  0  0
   -2.3557   60.1711   82.1005 C   0  0  0  0  0  0  0  0  0  0  0  0
   -3.3861   60.2147   81.0044 C   0  0  0  0  0  0  0  0  0  0  0  0
    2.5521   68.1987   83.1582 S   0  0  0  0  0  0  0  0  0  0  0  0
    2.5840   69.0343   84.1798 O   0  0  0  0  0  0  0  0  0  0  0  0
    3.8091   67.9144   82.9106 O   0  0  0  0  0  0  0  0  0  0  0  0
    1.7933   68.7848   81.8896 N   0  0  0  0  0  0  0  0  0  0  0  0
    2.7319   69.3551   80.7551 C   0  0  0  0  0  0  0  0  0  0  0  0
    3.2482   70.7972   80.9226 C   0  0  0  0  0  0  0  0  0  0  0  0
    2.2844   71.7811   81.5218 N   0  0  0  0  0  0  0  0  0  0  0  0
    1.9428   72.7978   80.4789 C   0  0  0  0  0  0  0  0  0  0  0  0
    0.9946   71.2670   82.1658 C   0  0  0  0  0  0  0  0  0  0  0  0
    0.6240   69.7459   81.9856 C   0  0  0  0  0  0  0  0  0  0  0  0
   -0.6136   63.1235   83.9876 O   0  0  0  0  0  0  0  0  0  0  0  0
   -1.0131   62.5302   85.2393 C   0  0  0  0  0  0  0  0  0  0  0  0
   -2.5252   62.4078   85.1504 C   0  0  0  0  0  0  0  0  0  0  0  0
 20 21  1  0  0  0
 21 19  1  0  0  0
 19  7  1  0  0  0
  7 17  1  0  0  0
  7  8  2  0  0  0
  8  9  1  0  0  0
  9 10  1  0  0  0
 11  9  1  0  0  0
 11 12  1  0  0  0
 12 13  2  0  0  0
 14 12  1  0  0  0
 15 14  2  0  0  0
 16 17  1  0  0  0
 16 15  1  0  0  0
 16 18  1  0  0  0
 17 11  2  0  0  0
  1 15  1  0  0  0
  1  6  1  0  0  0
  2  1  2  0  0  0
  3  2  1  0  0  0
  3  4  2  0  0  0
  4  5  1  0  0  0
  5  6  2  0  0  0
  6 32  1  0  0  0
 32 33  1  0  0  0
 33 34  1  0  0  0
 22 24  2  0  0  0
 22 25  1  0  0  0
 22  3  1  0  0  0
 23 22  2  0  0  0
 25 26  1  0  0  0
 27 26  1  0  0  0
 28 29  1  0  0  0
 28 27  1  0  0  0
 30 28  1  0  0  0
 30 31  1  0  0  0
 31 25  1  0  0  0
M  END
> <minimizedAffinity>
-8.59965

$$$$
/home/hjpark/lecture_drug1/0905_agent/pde5_harness/sample_run/structures/work/ligand_ref.pdb


 34 37  0  0  0  0  0  0  0  0999 V2000
    1.2797   66.2068   81.9597 C   0  0  0  0  0  0  0  0  0  0  0  0
    1.7229   67.4269   81.3165 C   0  0  0  0  0  0  0  0  0  0  0  0
    2.3628   68.4947   82.0818 C   0  0  0  0  0  0  0  0  0  0  0  0
    2.5460   68.2753   83.5519 C   0  0  0  0  0  0  0  0  0  0  0  0
    2.1061   67.0542   84.2186 C   0  0  0  0  0  0  0  0  0  0  0  0
    1.4533   65.9860   83.4374 C   0  0  0  0  0  0  0  0  0  0  0  0
   -0.7678   61.8207   80.6916 C   0  0  0  0  0  0  0  0  0  0  0  0
   -1.2808   61.4129   79.4532 N   0  0  0  0  0  0  0  0  0  0  0  0
   -1.1517   62.4363   78.5593 N   0  0  0  0  0  0  0  0  0  0  0  0
   -1.5923   62.3327   77.1655 C   0  0  0  0  0  0  0  0  0  0  0  0
   -0.5639   63.4845   79.2212 C   0  0  0  0  0  0  0  0  0  0  0  0
   -0.1767   64.8111   78.8316 C   0  0  0  0  0  0  0  0  0  0  0  0
   -0.3391   65.2468   77.7150 O   0  0  0  0  0  0  0  0  0  0  0  0
    0.4174   65.6371   79.7834 N   0  0  0  0  0  0  0  0  0  0  0  0
    0.6592   65.2513   81.1094 C   0  0  0  0  0  0  0  0  0  0  0  0
    0.2952   63.9691   81.5369 N   0  0  0  0  0  0  0  0  0  0  0  0
   -0.3111   63.1120   80.5752 C   0  0  0  0  0  0  0  0  0  0  0  0
    0.4517   63.6727   82.4626 H   0  0  0  0  0  0  0  0  0  0  0  0
   -0.7379   60.9782   81.9259 C   0  0  0  0  0  0  0  0  0  0  0  0
   -2.9738   59.8520   82.3989 C   0  0  0  0  0  0  0  0  0  0  0  0
   -2.1924   61.1351   82.4879 C   0  0  0  0  0  0  0  0  0  0  0  0
    2.8314   69.8573   81.3837 S   0  0  0  0  0  0  0  0  0  0  0  0
    4.1332   70.0162   81.2328 O   0  0  0  0  0  0  0  0  0  0  0  0
    2.3376   69.9141   80.1692 O   0  0  0  0  0  0  0  0  0  0  0  0
    2.1768   70.9249   82.3638 N   0  0  0  0  0  0  0  0  0  0  0  0
    0.6700   71.2800   82.0532 C   0  0  0  0  0  0  0  0  0  0  0  0
    0.4022   72.3391   80.9664 C   0  0  0  0  0  0  0  0  0  0  0  0
    1.3640   73.4915   80.9125 N   0  0  0  0  0  0  0  0  0  0  0  0
    0.6241   74.7378   81.2832 C   0  0  0  0  0  0  0  0  0  0  0  0
    2.6638   73.4190   81.7173 C   0  0  0  0  0  0  0  0  0  0  0  0
    2.8446   72.2337   82.7399 C   0  0  0  0  0  0  0  0  0  0  0  0
    0.9621   64.7511   84.0105 O   0  0  0  0  0  0  0  0  0  0  0  0
    0.4907   64.5970   85.3642 C   0  0  0  0  0  0  0  0  0  0  0  0
   -0.3955   63.3629   85.3328 C   0  0  0  0  0  0  0  0  0  0  0  0
 20 21  1  0  0  0
 21 19  1  0  0  0
 19  7  1  0  0  0
  7 17  1  0  0  0
  7  8  2  0  0  0
  8  9  1  0  0  0
  9 10  1  0  0  0
 11  9  1  0  0  0
 11 12  1  0  0  0
 12 13  2  0  0  0
 14 12  1  0  0  0
 15 14  2  0  0  0
 16 17  1  0  0  0
 16 15  1  0  0  0
 16 18  1  0  0  0
 17 11  2  0  0  0
  1 15  1  0  0  0
  1  6  1  0  0  0
  2  1  2  0  0  0
  3  2  1  0  0  0
  3  4  2  0  0  0
  4  5  1  0  0  0
  5  6  2  0  0  0
  6 32  1  0  0  0
 32 33  1  0  0  0
 33 34  1  0  0  0
 22 24  2  0  0  0
 22 25  1  0  0  0
 22  3  1  0  0  0
 23 22  2  0  0  0
 25 26  1  0  0  0
 27 26  1  0  0  0
 28 29  1  0  0  0
 28 27  1  0  0  0
 30 28  1  0  0  0
 30 31  1  0  0  0
 31 25  1  0  0  0
M  END
> <minimizedAffinity>
-8.55337

$$$$
/home/hjpark/lecture_drug1/0905_agent/pde5_harness/sample_run/structures/work/ligand_ref.pdb


 34 37  0  0  0  0  0  0  0  0999 V2000
    0.4989   65.4228   81.7834 C   0  0  0  0  0  0  0  0  0  0  0  0
    1.1531   66.0125   82.9338 C   0  0  0  0  0  0  0  0  0  0  0  0
    1.9724   67.2153   82.8025 C   0  0  0  0  0  0  0  0  0  0  0  0
    2.1037   67.8148   81.4364 C   0  0  0  0  0  0  0  0  0  0  0  0
    1.4536   67.2360   80.2653 C   0  0  0  0  0  0  0  0  0  0  0  0
    0.6356   66.0162   80.4081 C   0  0  0  0  0  0  0  0  0  0  0  0
   -2.3327   62.2600   84.4324 C   0  0  0  0  0  0  0  0  0  0  0  0
   -2.8509   61.0141   84.0554 N   0  0  0  0  0  0  0  0  0  0  0  0
   -2.4668   60.7416   82.7742 N   0  0  0  0  0  0  0  0  0  0  0  0
   -2.8437   59.5082   82.0782 C   0  0  0  0  0  0  0  0  0  0  0  0
   -1.7133   61.8025   82.3398 C   0  0  0  0  0  0  0  0  0  0  0  0
   -1.0419   62.1029   81.1066 C   0  0  0  0  0  0  0  0  0  0  0  0
   -1.0512   61.3619   80.1507 O   0  0  0  0  0  0  0  0  0  0  0  0
   -0.3433   63.3041   81.0051 N   0  0  0  0  0  0  0  0  0  0  0  0
   -0.2575   64.2466   82.0393 C   0  0  0  0  0  0  0  0  0  0  0  0
   -0.8990   63.9999   83.2587 N   0  0  0  0  0  0  0  0  0  0  0  0
   -1.6155   62.7754   83.3791 C   0  0  0  0  0  0  0  0  0  0  0  0
   -0.8568   64.6451   84.0010 H   0  0  0  0  0  0  0  0  0  0  0  0
   -2.5426   62.9081   85.7628 C   0  0  0  0  0  0  0  0  0  0  0  0
   -1.2291   63.0788   87.9392 C   0  0  0  0  0  0  0  0  0  0  0  0
   -1.2904   62.4375   86.5791 C   0  0  0  0  0  0  0  0  0  0  0  0
    2.7205   67.8581   84.0637 S   0  0  0  0  0  0  0  0  0  0  0  0
    2.8499   69.1718   84.0564 O   0  0  0  0  0  0  0  0  0  0  0  0
    2.0418   67.5881   85.1540 O   0  0  0  0  0  0  0  0  0  0  0  0
    4.1107   67.0887   83.9990 N   0  0  0  0  0  0  0  0  0  0  0  0
    4.0856   65.6162   84.5684 C   0  0  0  0  0  0  0  0  0  0  0  0
    4.2347   65.4443   86.0924 C   0  0  0  0  0  0  0  0  0  0  0  0
    5.1827   66.3876   86.7764 N   0  0  0  0  0  0  0  0  0  0  0  0
    6.3345   65.5931   87.3058 C   0  0  0  0  0  0  0  0  0  0  0  0
    5.7168   67.5987   86.0079 C   0  0  0  0  0  0  0  0  0  0  0  0
    5.4223   67.6927   84.4627 C   0  0  0  0  0  0  0  0  0  0  0  0
   -0.0283   65.3551   79.3049 O   0  0  0  0  0  0  0  0  0  0  0  0
    0.6041   64.9750   78.0664 C   0  0  0  0  0  0  0  0  0  0  0  0
   -0.5368   64.5470   77.1585 C   0  0  0  0  0  0  0  0  0  0  0  0
 20 21  1  0  0  0
 21 19  1  0  0  0
 19  7  1  0  0  0
  7 17  1  0  0  0
  7  8  2  0  0  0
  8  9  1  0  0  0
  9 10  1  0  0  0
 11  9  1  0  0  0
 11 12  1  0  0  0
 12 13  2  0  0  0
 14 12  1  0  0  0
 15 14  2  0  0  0
 16 17  1  0  0  0
 16 15  1  0  0  0
 16 18  1  0  0  0
 17 11  2  0  0  0
  1 15  1  0  0  0
  1  6  1  0  0  0
  2  1  2  0  0  0
  3  2  1  0  0  0
  3  4  2  0  0  0
  4  5  1  0  0  0
  5  6  2  0  0  0
  6 32  1  0  0  0
 32 33  1  0  0  0
 33 34  1  0  0  0
 22 24  2  0  0  0
 22 25  1  0  0  0
 22  3  1  0  0  0
 23 22  2  0  0  0
 25 26  1  0  0  0
 27 26  1  0  0  0
 28 29  1  0  0  0
 28 27  1  0  0  0
 30 28  1  0  0  0
 30 31  1  0  0  0
 31 25  1  0  0  0
M  END
> <minimizedAffinity>
-8.53052

$$$$
/home/hjpark/lecture_drug1/0905_agent/pde5_harness/sample_run/structures/work/ligand_ref.pdb


 34 37  0  0  0  0  0  0  0  0999 V2000
    0.8043   66.2604   81.9200 C   0  0  0  0  0  0  0  0  0  0  0  0
    0.8849   67.6048   81.3861 C   0  0  0  0  0  0  0  0  0  0  0  0
    1.4685   68.6936   82.1665 C   0  0  0  0  0  0  0  0  0  0  0  0
    1.9829   68.3637   83.5338 C   0  0  0  0  0  0  0  0  0  0  0  0
    1.9105   67.0166   84.0898 C   0  0  0  0  0  0  0  0  0  0  0  0
    1.3112   65.9265   83.2962 C   0  0  0  0  0  0  0  0  0  0  0  0
   -2.0983   62.3681   80.7102 C   0  0  0  0  0  0  0  0  0  0  0  0
   -2.2933   61.7698   79.4584 N   0  0  0  0  0  0  0  0  0  0  0  0
   -1.5418   62.4283   78.5285 N   0  0  0  0  0  0  0  0  0  0  0  0
   -1.5188   62.0484   77.1133 C   0  0  0  0  0  0  0  0  0  0  0  0
   -0.8764   63.4355   79.1806 C   0  0  0  0  0  0  0  0  0  0  0  0
    0.0449   64.4519   78.7567 C   0  0  0  0  0  0  0  0  0  0  0  0
    0.4093   64.5783   77.6103 O   0  0  0  0  0  0  0  0  0  0  0  0
    0.5467   65.3345   79.7108 N   0  0  0  0  0  0  0  0  0  0  0  0
    0.2023   65.2936   81.0692 C   0  0  0  0  0  0  0  0  0  0  0  0
   -0.6955   64.3231   81.5290 N   0  0  0  0  0  0  0  0  0  0  0  0
   -1.2155   63.4120   80.5664 C   0  0  0  0  0  0  0  0  0  0  0  0
   -0.9561   64.2726   82.4770 H   0  0  0  0  0  0  0  0  0  0  0  0
   -2.7568   61.9331   81.9795 C   0  0  0  0  0  0  0  0  0  0  0  0
   -2.8465   59.3964   82.1995 C   0  0  0  0  0  0  0  0  0  0  0  0
   -3.4751   60.6050   81.5599 C   0  0  0  0  0  0  0  0  0  0  0  0
    1.5373   70.1875   81.5946 S   0  0  0  0  0  0  0  0  0  0  0  0
    1.2932   70.3290   80.3050 O   0  0  0  0  0  0  0  0  0  0  0  0
    0.6327   70.9239   82.1960 O   0  0  0  0  0  0  0  0  0  0  0  0
    3.0224   70.5851   82.0011 N   0  0  0  0  0  0  0  0  0  0  0  0
    3.2229   72.1004   82.3972 C   0  0  0  0  0  0  0  0  0  0  0  0
    3.4284   73.1100   81.2513 C   0  0  0  0  0  0  0  0  0  0  0  0
    4.2447   72.6316   80.0847 N   0  0  0  0  0  0  0  0  0  0  0  0
    5.5105   73.4277   80.0399 C   0  0  0  0  0  0  0  0  0  0  0  0
    4.5812   71.1431   79.9677 C   0  0  0  0  0  0  0  0  0  0  0  0
    4.2427   70.2024   81.1858 C   0  0  0  0  0  0  0  0  0  0  0  0
    1.1728   64.5653   83.7685 O   0  0  0  0  0  0  0  0  0  0  0  0
    0.4289   64.1665   84.9372 C   0  0  0  0  0  0  0  0  0  0  0  0
   -0.1426   62.8015   84.5915 C   0  0  0  0  0  0  0  0  0  0  0  0
 20 21  1  0  0  0
 21 19  1  0  0  0
 19  7  1  0  0  0
  7 17  1  0  0  0
  7  8  2  0  0  0
  8  9  1  0  0  0
  9 10  1  0  0  0
 11  9  1  0  0  0
 11 12  1  0  0  0
 12 13  2  0  0  0
 14 12  1  0  0  0
 15 14  2  0  0  0
 16 17  1  0  0  0
 16 15  1  0  0  0
 16 18  1  0  0  0
 17 11  2  0  0  0
  1 15  1  0  0  0
  1  6  1  0  0  0
  2  1  2  0  0  0
  3  2  1  0  0  0
  3  4  2  0  0  0
  4  5  1  0  0  0
  5  6  2  0  0  0
  6 32  1  0  0  0
 32 33  1  0  0  0
 33 34  1  0  0  0
 22 24  2  0  0  0
 22 25  1  0  0  0
 22  3  1  0  0  0
 23 22  2  0  0  0
 25 26  1  0  0  0
 27 26  1  0  0  0
 28 29  1  0  0  0
 28 27  1  0  0  0
 30 28  1  0  0  0
 30 31  1  0  0  0
 31 25  1  0  0  0
M  END
> <minimizedAffinity>
-8.48624

$$$$
/home/hjpark/lecture_drug1/0905_agent/pde5_harness/sample_run/structures/work/ligand_ref.pdb


 34 37  0  0  0  0  0  0  0  0999 V2000
    0.8965   65.5126   82.8398 C   0  0  0  0  0  0  0  0  0  0  0  0
    1.7056   66.4170   83.6312 C   0  0  0  0  0  0  0  0  0  0  0  0
    2.5921   67.3896   82.9961 C   0  0  0  0  0  0  0  0  0  0  0  0
    2.6265   67.4172   81.4992 C   0  0  0  0  0  0  0  0  0  0  0  0
    1.8201   66.5146   80.6842 C   0  0  0  0  0  0  0  0  0  0  0  0
    0.9348   65.5305   81.3362 C   0  0  0  0  0  0  0  0  0  0  0  0
   -2.5016   61.9068   83.5393 C   0  0  0  0  0  0  0  0  0  0  0  0
   -2.9595   61.3485   84.7399 N   0  0  0  0  0  0  0  0  0  0  0  0
   -2.3151   61.9475   85.7835 N   0  0  0  0  0  0  0  0  0  0  0  0
   -2.5685   61.5911   87.1823 C   0  0  0  0  0  0  0  0  0  0  0  0
   -1.4557   62.8762   85.2534 C   0  0  0  0  0  0  0  0  0  0  0  0
   -0.5222   63.8043   85.8269 C   0  0  0  0  0  0  0  0  0  0  0  0
   -0.3391   63.9079   87.0180 O   0  0  0  0  0  0  0  0  0  0  0  0
    0.2068   64.6283   84.9720 N   0  0  0  0  0  0  0  0  0  0  0  0
    0.0870   64.6045   83.5754 C   0  0  0  0  0  0  0  0  0  0  0  0
   -0.8070   63.7136   82.9701 N   0  0  0  0  0  0  0  0  0  0  0  0
   -1.5613   62.8663   83.8305 C   0  0  0  0  0  0  0  0  0  0  0  0
   -0.9098   63.6746   81.9918 H   0  0  0  0  0  0  0  0  0  0  0  0
   -2.9660   61.5063   82.1762 C   0  0  0  0  0  0  0  0  0  0  0  0
   -1.0937   61.0591   80.5070 C   0  0  0  0  0  0  0  0  0  0  0  0
   -1.8396   60.5260   81.7005 C   0  0  0  0  0  0  0  0  0  0  0  0
    3.5095   68.3746   83.8633 S   0  0  0  0  0  0  0  0  0  0  0  0
    3.7405   69.5650   83.3415 O   0  0  0  0  0  0  0  0  0  0  0  0
    2.9228   68.6137   85.0125 O   0  0  0  0  0  0  0  0  0  0  0  0
    4.8216   67.4891   84.0157 N   0  0  0  0  0  0  0  0  0  0  0  0
    4.5664   65.9776   84.3945 C   0  0  0  0  0  0  0  0  0  0  0  0
    4.3543   65.6478   85.8846 C   0  0  0  0  0  0  0  0  0  0  0  0
    5.1857   66.4292   86.8615 N   0  0  0  0  0  0  0  0  0  0  0  0
    6.1299   65.4843   87.5351 C   0  0  0  0  0  0  0  0  0  0  0  0
    5.9623   67.6534   86.3709 C   0  0  0  0  0  0  0  0  0  0  0  0
    6.0327   67.9216   84.8197 C   0  0  0  0  0  0  0  0  0  0  0  0
    0.1158   64.5790   80.6161 O   0  0  0  0  0  0  0  0  0  0  0  0
   -0.2128   64.6634   79.2150 C   0  0  0  0  0  0  0  0  0  0  0  0
    0.6938   63.6491   78.5377 C   0  0  0  0  0  0  0  0  0  0  0  0
 20 21  1  0  0  0
 21 19  1  0  0  0
 19  7  1  0  0  0
  7 17  1  0  0  0
  7  8  2  0  0  0
  8  9  1  0  0  0
  9 10  1  0  0  0
 11  9  1  0  0  0
 11 12  1  0  0  0
 12 13  2  0  0  0
 14 12  1  0  0  0
 15 14  2  0  0  0
 16 17  1  0  0  0
 16 15  1  0  0  0
 16 18  1  0  0  0
 17 11  2  0  0  0
  1 15  1  0  0  0
  1  6  1  0  0  0
  2  1  2  0  0  0
  3  2  1  0  0  0
  3  4  2  0  0  0
  4  5  1  0  0  0
  5  6  2  0  0  0
  6 32  1  0  0  0
 32 33  1  0  0  0
 33 34  1  0  0  0
 22 24  2  0  0  0
 22 25  1  0  0  0
 22  3  1  0  0  0
 23 22  2  0  0  0
 25 26  1  0  0  0
 27 26  1  0  0  0
 28 29  1  0  0  0
 28 27  1  0  0  0
 30 28  1  0  0  0
 30 31  1  0  0  0
 31 25  1  0  0  0
M  END
> <minimizedAffinity>
-8.45711

$$$$
/home/hjpark/lecture_drug1/0905_agent/pde5_harness/sample_run/structures/work/ligand_ref.pdb


 34 37  0  0  0  0  0  0  0  0999 V2000
    0.4803   64.4251   83.1341 C   0  0  0  0  0  0  0  0  0  0  0  0
    1.5000   65.4539   83.1572 C   0  0  0  0  0  0  0  0  0  0  0  0
    2.0653   65.9290   84.4182 C   0  0  0  0  0  0  0  0  0  0  0  0
    1.5535   65.3076   85.6810 C   0  0  0  0  0  0  0  0  0  0  0  0
    0.5267   64.2709   85.6793 C   0  0  0  0  0  0  0  0  0  0  0  0
   -0.0433   63.8049   84.4005 C   0  0  0  0  0  0  0  0  0  0  0  0
   -1.6845   61.5164   79.6858 C   0  0  0  0  0  0  0  0  0  0  0  0
   -1.8837   61.7661   78.3216 N   0  0  0  0  0  0  0  0  0  0  0  0
   -1.3823   62.9985   78.0169 N   0  0  0  0  0  0  0  0  0  0  0  0
   -1.4306   63.5627   76.6652 C   0  0  0  0  0  0  0  0  0  0  0  0
   -0.8702   63.5281   79.1742 C   0  0  0  0  0  0  0  0  0  0  0  0
   -0.2231   64.7690   79.4953 C   0  0  0  0  0  0  0  0  0  0  0  0
   -0.0134   65.6366   78.6790 O   0  0  0  0  0  0  0  0  0  0  0  0
    0.1864   64.9850   80.8094 N   0  0  0  0  0  0  0  0  0  0  0  0
    0.0010   64.0600   81.8465 C   0  0  0  0  0  0  0  0  0  0  0  0
   -0.6288   62.8381   81.5828 N   0  0  0  0  0  0  0  0  0  0  0  0
   -1.0511   62.6012   80.2439 C   0  0  0  0  0  0  0  0  0  0  0  0
   -0.7734   62.1712   82.2924 H   0  0  0  0  0  0  0  0  0  0  0  0
   -2.1052   60.2723   80.3993 C   0  0  0  0  0  0  0  0  0  0  0  0
   -3.2825   60.2613   82.6589 C   0  0  0  0  0  0  0  0  0  0  0  0
   -3.3384   60.7539   81.2379 C   0  0  0  0  0  0  0  0  0  0  0  0
    3.1732   67.0843   84.4542 S   0  0  0  0  0  0  0  0  0  0  0  0
    3.7077   67.4146   83.2932 O   0  0  0  0  0  0  0  0  0  0  0  0
    2.6315   68.1902   84.9075 O   0  0  0  0  0  0  0  0  0  0  0  0
    4.2192   66.4509   85.4709 N   0  0  0  0  0  0  0  0  0  0  0  0
    5.1442   67.4936   86.2127 C   0  0  0  0  0  0  0  0  0  0  0  0
    6.3987   67.9843   85.4646 C   0  0  0  0  0  0  0  0  0  0  0  0
    7.1150   66.9617   84.6295 N   0  0  0  0  0  0  0  0  0  0  0  0
    8.4607   66.7193   85.2366 C   0  0  0  0  0  0  0  0  0  0  0  0
    6.4385   65.6173   84.3506 C   0  0  0  0  0  0  0  0  0  0  0  0
    5.1109   65.2734   85.1268 C   0  0  0  0  0  0  0  0  0  0  0  0
   -1.0801   62.8004   84.2966 O   0  0  0  0  0  0  0  0  0  0  0  0
   -2.4230   62.9418   84.8017 C   0  0  0  0  0  0  0  0  0  0  0  0
   -2.3896   62.3148   86.1856 C   0  0  0  0  0  0  0  0  0  0  0  0
 20 21  1  0  0  0
 21 19  1  0  0  0
 19  7  1  0  0  0
  7 17  1  0  0  0
  7  8  2  0  0  0
  8  9  1  0  0  0
  9 10  1  0  0  0
 11  9  1  0  0  0
 11 12  1  0  0  0
 12 13  2  0  0  0
 14 12  1  0  0  0
 15 14  2  0  0  0
 16 17  1  0  0  0
 16 15  1  0  0  0
 16 18  1  0  0  0
 17 11  2  0  0  0
  1 15  1  0  0  0
  1  6  1  0  0  0
  2  1  2  0  0  0
  3  2  1  0  0  0
  3  4  2  0  0  0
  4  5  1  0  0  0
  5  6  2  0  0  0
  6 32  1  0  0  0
 32 33  1  0  0  0
 33 34  1  0  0  0
 22 24  2  0  0  0
 22 25  1  0  0  0
 22  3  1  0  0  0
 23 22  2  0  0  0
 25 26  1  0  0  0
 27 26  1  0  0  0
 28 29  1  0  0  0
 28 27  1  0  0  0
 30 28  1  0  0  0
 30 31  1  0  0  0
 31 25  1  0  0  0
M  END
> <minimizedAffinity>
-8.41559

$$$$
/home/hjpark/lecture_drug1/0905_agent/pde5_harness/sample_run/structures/work/ligand_ref.pdb


 34 37  0  0  0  0  0  0  0  0999 V2000
    2.1458   67.2560   83.1446 C   0  0  0  0  0  0  0  0  0  0  0  0
    1.5926   68.2871   82.2904 C   0  0  0  0  0  0  0  0  0  0  0  0
    2.3381   69.5107   82.0036 C   0  0  0  0  0  0  0  0  0  0  0  0
    3.6947   69.6529   82.6219 C   0  0  0  0  0  0  0  0  0  0  0  0
    4.2692   68.6265   83.4854 C   0  0  0  0  0  0  0  0  0  0  0  0
    3.5039   67.3987   83.7752 C   0  0  0  0  0  0  0  0  0  0  0  0
   -0.8042   63.4134   81.8914 C   0  0  0  0  0  0  0  0  0  0  0  0
   -1.4503   62.4903   82.7242 N   0  0  0  0  0  0  0  0  0  0  0  0
   -1.1541   62.7808   84.0246 N   0  0  0  0  0  0  0  0  0  0  0  0
   -1.6766   62.0017   85.1505 C   0  0  0  0  0  0  0  0  0  0  0  0
   -0.3278   63.8759   84.0200 C   0  0  0  0  0  0  0  0  0  0  0  0
    0.3122   64.6395   85.0540 C   0  0  0  0  0  0  0  0  0  0  0  0
    0.1965   64.3866   86.2311 O   0  0  0  0  0  0  0  0  0  0  0  0
    1.1029   65.7260   84.6859 N   0  0  0  0  0  0  0  0  0  0  0  0
    1.3168   66.1209   83.3579 C   0  0  0  0  0  0  0  0  0  0  0  0
    0.7172   65.4048   82.3152 N   0  0  0  0  0  0  0  0  0  0  0  0
   -0.0959   64.2928   82.6752 C   0  0  0  0  0  0  0  0  0  0  0  0
    0.8519   65.6590   81.3738 H   0  0  0  0  0  0  0  0  0  0  0  0
   -0.8792   63.4194   80.3986 C   0  0  0  0  0  0  0  0  0  0  0  0
    0.6590   62.6352   78.5250 C   0  0  0  0  0  0  0  0  0  0  0  0
    0.3271   62.5074   79.9873 C   0  0  0  0  0  0  0  0  0  0  0  0
    1.7233   70.6669   81.0823 S   0  0  0  0  0  0  0  0  0  0  0  0
    2.5736   71.2955   80.2920 O   0  0  0  0  0  0  0  0  0  0  0  0
    0.8274   70.1481   80.2758 O   0  0  0  0  0  0  0  0  0  0  0  0
    1.0802   71.6089   82.1904 N   0  0  0  0  0  0  0  0  0  0  0  0
   -0.3768   72.1234   81.8652 C   0  0  0  0  0  0  0  0  0  0  0  0
   -0.5035   73.3614   80.9566 C   0  0  0  0  0  0  0  0  0  0  0  0
    0.5345   74.4307   81.1444 N   0  0  0  0  0  0  0  0  0  0  0  0
   -0.1428   75.6535   81.6776 C   0  0  0  0  0  0  0  0  0  0  0  0
    1.7726   74.1302   81.9924 C   0  0  0  0  0  0  0  0  0  0  0  0
    1.8084   72.7849   82.8124 C   0  0  0  0  0  0  0  0  0  0  0  0
    3.9772   66.3361   84.6364 O   0  0  0  0  0  0  0  0  0  0  0  0
    5.0107   66.4760   85.6317 C   0  0  0  0  0  0  0  0  0  0  0  0
    6.2188   65.7647   85.0453 C   0  0  0  0  0  0  0  0  0  0  0  0
 20 21  1  0  0  0
 21 19  1  0  0  0
 19  7  1  0  0  0
  7 17  1  0  0  0
  7  8  2  0  0  0
  8  9  1  0  0  0
  9 10  1  0  0  0
 11  9  1  0  0  0
 11 12  1  0  0  0
 12 13  2  0  0  0
 14 12  1  0  0  0
 15 14  2  0  0  0
 16 17  1  0  0  0
 16 15  1  0  0  0
 16 18  1  0  0  0
 17 11  2  0  0  0
  1 15  1  0  0  0
  1  6  1  0  0  0
  2  1  2  0  0  0
  3  2  1  0  0  0
  3  4  2  0  0  0
  4  5  1  0  0  0
  5  6  2  0  0  0
  6 32  1  0  0  0
 32 33  1  0  0  0
 33 34  1  0  0  0
 22 24  2  0  0  0
 22 25  1  0  0  0
 22  3  1  0  0  0
 23 22  2  0  0  0
 25 26  1  0  0  0
 27 26  1  0  0  0
 28 29  1  0  0  0
 28 27  1  0  0  0
 30 28  1  0  0  0
 30 31  1  0  0  0
 31 25  1  0  0  0
M  END
> <minimizedAffinity>
-8.20809

$$$$
/home/hjpark/lecture_drug1/0905_agent/pde5_harness/sample_run/structures/work/ligand_ref.pdb


 34 37  0  0  0  0  0  0  0  0999 V2000
    0.9599   66.9094   81.2345 C   0  0  0  0  0  0  0  0  0  0  0  0
    0.6149   66.2550   79.9888 C   0  0  0  0  0  0  0  0  0  0  0  0
    0.2660   64.8365   79.9522 C   0  0  0  0  0  0  0  0  0  0  0  0
    0.2742   64.0904   81.2506 C   0  0  0  0  0  0  0  0  0  0  0  0
    0.6192   64.7307   82.5155 C   0  0  0  0  0  0  0  0  0  0  0  0
    0.9784   66.1617   82.5395 C   0  0  0  0  0  0  0  0  0  0  0  0
    0.1291   71.8362   80.9612 C   0  0  0  0  0  0  0  0  0  0  0  0
    1.0554   72.8808   80.8437 N   0  0  0  0  0  0  0  0  0  0  0  0
    2.3155   72.3570   80.8149 N   0  0  0  0  0  0  0  0  0  0  0  0
    3.5173   73.1872   80.6959 C   0  0  0  0  0  0  0  0  0  0  0  0
    2.1932   70.9942   80.9139 C   0  0  0  0  0  0  0  0  0  0  0  0
    3.1380   69.9133   80.9412 C   0  0  0  0  0  0  0  0  0  0  0  0
    4.3343   70.0782   80.8731 O   0  0  0  0  0  0  0  0  0  0  0  0
    2.6555   68.6107   81.0484 N   0  0  0  0  0  0  0  0  0  0  0  0
    1.2941   68.2876   81.1357 C   0  0  0  0  0  0  0  0  0  0  0  0
    0.3357   69.3077   81.1174 N   0  0  0  0  0  0  0  0  0  0  0  0
    0.8129   70.6446   81.0058 C   0  0  0  0  0  0  0  0  0  0  0  0
   -0.6266   69.1095   81.1789 H   0  0  0  0  0  0  0  0  0  0  0  0
   -1.3537   72.0100   81.0324 C   0  0  0  0  0  0  0  0  0  0  0  0
   -2.8513   72.4844   79.0265 C   0  0  0  0  0  0  0  0  0  0  0  0
   -1.6521   72.9449   79.8106 C   0  0  0  0  0  0  0  0  0  0  0  0
   -0.0905   64.0993   78.5763 S   0  0  0  0  0  0  0  0  0  0  0  0
   -0.8220   64.7877   77.7196 O   0  0  0  0  0  0  0  0  0  0  0  0
    1.0192   63.8229   77.9326 O   0  0  0  0  0  0  0  0  0  0  0  0
   -0.8224   62.7988   79.1257 N   0  0  0  0  0  0  0  0  0  0  0  0
   -0.2591   61.4317   78.5716 C   0  0  0  0  0  0  0  0  0  0  0  0
   -0.7759   60.9577   77.1995 C   0  0  0  0  0  0  0  0  0  0  0  0
   -2.2242   61.2280   76.9071 N   0  0  0  0  0  0  0  0  0  0  0  0
   -2.9372   59.9160   76.8162 C   0  0  0  0  0  0  0  0  0  0  0  0
   -3.0102   62.1660   77.8263 C   0  0  0  0  0  0  0  0  0  0  0  0
   -2.3305   62.6427   79.1657 C   0  0  0  0  0  0  0  0  0  0  0  0
    1.3574   66.8794   83.7379 O   0  0  0  0  0  0  0  0  0  0  0  0
    2.6731   66.8697   84.3271 C   0  0  0  0  0  0  0  0  0  0  0  0
    3.0063   68.3328   84.5672 C   0  0  0  0  0  0  0  0  0  0  0  0
 20 21  1  0  0  0
 21 19  1  0  0  0
 19  7  1  0  0  0
  7 17  1  0  0  0
  7  8  2  0  0  0
  8  9  1  0  0  0
  9 10  1  0  0  0
 11  9  1  0  0  0
 11 12  1  0  0  0
 12 13  2  0  0  0
 14 12  1  0  0  0
 15 14  2  0  0  0
 16 17  1  0  0  0
 16 15  1  0  0  0
 16 18  1  0  0  0
 17 11  2  0  0  0
  1 15  1  0  0  0
  1  6  1  0  0  0
  2  1  2  0  0  0
  3  2  1  0  0  0
  3  4  2  0  0  0
  4  5  1  0  0  0
  5  6  2  0  0  0
  6 32  1  0  0  0
 32 33  1  0  0  0
 33 34  1  0  0  0
 22 24  2  0  0  0
 22 25  1  0  0  0
 22  3  1  0  0  0
 23 22  2  0  0  0
 25 26  1  0  0  0
 27 26  1  0  0  0
 28 29  1  0  0  0
 28 27  1  0  0  0
 30 28  1  0  0  0
 30 31  1  0  0  0
 31 25  1  0  0  0
M  END
> <minimizedAffinity>
-8.17954

$$$$
