/home/hjpark/lecture_drug1/0905_agent/pde5_harness/sample_run/structures/work/ligand_ref.pdb


 35 38  0  0  0  0  0  0  0  0999 V2000
    0.4845   64.1980   83.8081 C   0  0  0  0  0  0  0  0  0  0  0  0
    0.2285   63.4584   82.5889 C   0  0  0  0  0  0  0  0  0  0  0  0
   -0.5873   62.2461   82.5981 C   0  0  0  0  0  0  0  0  0  0  0  0
   -1.1506   61.8037   83.9133 C   0  0  0  0  0  0  0  0  0  0  0  0
   -0.9041   62.5340   85.1522 C   0  0  0  0  0  0  0  0  0  0  0  0
   -0.0716   63.7521   85.1326 C   0  0  0  0  0  0  0  0  0  0  0  0
    4.3277   67.2531   84.7747 C   0  0  0  0  0  0  0  0  0  0  0  0
    4.6372   68.4904   84.1948 N   0  0  0  0  0  0  0  0  0  0  0  0
    3.6943   68.7894   83.2542 N   0  0  0  0  0  0  0  0  0  0  0  0
    3.7266   70.0220   82.4622 C   0  0  0  0  0  0  0  0  0  0  0  0
    2.7949   67.7536   83.2346 C   0  0  0  0  0  0  0  0  0  0  0  0
    1.6066   67.4866   82.4740 C   0  0  0  0  0  0  0  0  0  0  0  0
    1.1779   68.2397   81.6302 O   0  0  0  0  0  0  0  0  0  0  0  0
    0.9108   66.3049   82.7203 N   0  0  0  0  0  0  0  0  0  0  0  0
    1.3041   65.3512   83.6696 C   0  0  0  0  0  0  0  0  0  0  0  0
    2.4581   65.5655   84.4323 N   0  0  0  0  0  0  0  0  0  0  0  0
    3.1792   66.7699   84.1941 C   0  0  0  0  0  0  0  0  0  0  0  0
    2.7582   64.9118   85.1044 H   0  0  0  0  0  0  0  0  0  0  0  0
    5.1307   66.5823   85.8420 C   0  0  0  0  0  0  0  0  0  0  0  0
    7.4223   66.0048   84.8897 C   0  0  0  0  0  0  0  0  0  0  0  0
    5.9933   65.5545   85.0325 C   0  0  0  0  0  0  0  0  0  0  0  0
   -0.8530   61.4080   81.2600 S   0  0  0  0  0  0  0  0  0  0  0  0
    0.2188   60.9986   80.6070 O   0  0  0  0  0  0  0  0  0  0  0  0
   -1.5102   60.3120   81.5584 O   0  0  0  0  0  0  0  0  0  0  0  0
   -1.7322   62.4468   80.4373 N   0  0  0  0  0  0  0  0  0  0  0  0
   -3.2136   61.9841   80.1462 C   0  0  0  0  0  0  0  0  0  0  0  0
   -3.4413   61.0622   78.9327 C   0  0  0  0  0  0  0  0  0  0  0  0
   -2.5997   61.3419   77.7204 N   0  0  0  0  0  0  0  0  0  0  0  0
   -3.5014   61.8040   76.6198 C   0  0  0  0  0  0  0  0  0  0  0  0
   -1.4149   62.3037   77.8384 C   0  0  0  0  0  0  0  0  0  0  0  0
   -1.2522   63.1292   79.1708 C   0  0  0  0  0  0  0  0  0  0  0  0
   -2.1376   60.4499   77.5441 H   0  0  0  0  0  0  0  0  0  0  0  0
    0.2489   64.5305   86.3100 O   0  0  0  0  0  0  0  0  0  0  0  0
   -0.1340   64.1890   87.6573 C   0  0  0  0  0  0  0  0  0  0  0  0
    0.9973   63.3181   88.1778 C   0  0  0  0  0  0  0  0  0  0  0  0
 20 21  1  0  0  0
 21 19  1  0  0  0
 19  7  1  0  0  0
  7 17  1  0  0  0
  7  8  2  0  0  0
  8  9  1  0  0  0
  9 10  1  0  0  0
 11  9  1  0  0  0
 11 12  1  0  0  0
 12 13  2  0  0  0
 14 12  1  0  0  0
 15 14  2  0  0  0
 16 17  1  0  0  0
 16 15  1  0  0  0
 16 18  1  0  0  0
 17 11  2  0  0  0
  1 15  1  0  0  0
  1  6  1  0  0  0
  2  1  2  0  0  0
  3  2  1  0  0  0
  3  4  2  0  0  0
  4  5  1  0  0  0
  5  6  2  0  0  0
  6 33  1  0  0  0
 33 34  1  0  0  0
 34 35  1  0  0  0
 22 24  2  0  0  0
 22 25  1  0  0  0
 22  3  1  0  0  0
 23 22  2  0  0  0
 25 26  1  0  0  0
 27 26  1  0  0  0
 28 29  1  0  0  0
 28 27  1  0  0  0
 28 32  1  0  0  0
 30 28  1  0  0  0
 30 31  1  0  0  0
 31 25  1  0  0  0
M  CHG 1  28   1
M  END
> <minimizedAffinity>
-9.57342

$$$$
/home/hjpark/lecture_drug1/0905_agent/pde5_harness/sample_run/structures/work/ligand_ref.pdb


 35 38  0  0  0  0  0  0  0  0999 V2000
    0.1919   64.3375   84.1558 C   0  0  0  0  0  0  0  0  0  0  0  0
   -0.4198   63.8140   82.9513 C   0  0  0  0  0  0  0  0  0  0  0  0
   -1.3768   62.7112   83.0082 C   0  0  0  0  0  0  0  0  0  0  0  0
   -1.7025   62.1494   84.3577 C   0  0  0  0  0  0  0  0  0  0  0  0
   -1.0969   62.6619   85.5823 C   0  0  0  0  0  0  0  0  0  0  0  0
   -0.1252   63.7702   85.5123 C   0  0  0  0  0  0  0  0  0  0  0  0
    4.3233   67.0406   84.9701 C   0  0  0  0  0  0  0  0  0  0  0  0
    4.7426   68.2204   84.3413 N   0  0  0  0  0  0  0  0  0  0  0  0
    3.8204   68.5745   83.3994 N   0  0  0  0  0  0  0  0  0  0  0  0
    3.9605   69.7687   82.5615 C   0  0  0  0  0  0  0  0  0  0  0  0
    2.8254   67.6304   83.4272 C   0  0  0  0  0  0  0  0  0  0  0  0
    1.6071   67.4518   82.6888 C   0  0  0  0  0  0  0  0  0  0  0  0
    1.2416   68.2116   81.8215 O   0  0  0  0  0  0  0  0  0  0  0  0
    0.8043   66.3525   82.9858 N   0  0  0  0  0  0  0  0  0  0  0  0
    1.1167   65.4005   83.9664 C   0  0  0  0  0  0  0  0  0  0  0  0
    2.2960   65.5300   84.7093 N   0  0  0  0  0  0  0  0  0  0  0  0
    3.1262   66.6497   84.4191 C   0  0  0  0  0  0  0  0  0  0  0  0
    2.5408   64.8752   85.4024 H   0  0  0  0  0  0  0  0  0  0  0  0
    5.0723   66.3347   86.0539 C   0  0  0  0  0  0  0  0  0  0  0  0
    7.3208   65.7786   84.9926 C   0  0  0  0  0  0  0  0  0  0  0  0
    5.9242   65.2858   85.2602 C   0  0  0  0  0  0  0  0  0  0  0  0
   -2.0372   62.1090   81.6797 S   0  0  0  0  0  0  0  0  0  0  0  0
   -2.4575   60.8598   81.7533 O   0  0  0  0  0  0  0  0  0  0  0  0
   -3.1024   62.8098   81.3694 O   0  0  0  0  0  0  0  0  0  0  0  0
   -0.8456   62.3120   80.6463 N   0  0  0  0  0  0  0  0  0  0  0  0
   -1.1388   63.3385   79.4829 C   0  0  0  0  0  0  0  0  0  0  0  0
   -1.9115   62.8161   78.2564 C   0  0  0  0  0  0  0  0  0  0  0  0
   -1.5922   61.4150   77.8192 N   0  0  0  0  0  0  0  0  0  0  0  0
   -0.9427   61.4801   76.4731 C   0  0  0  0  0  0  0  0  0  0  0  0
   -0.7601   60.5165   78.7373 C   0  0  0  0  0  0  0  0  0  0  0  0
   -0.0887   61.1633   80.0078 C   0  0  0  0  0  0  0  0  0  0  0  0
   -2.5013   60.9525   77.8297 H   0  0  0  0  0  0  0  0  0  0  0  0
    0.5455   64.3306   86.6659 O   0  0  0  0  0  0  0  0  0  0  0  0
    1.1160   63.5636   87.7450 C   0  0  0  0  0  0  0  0  0  0  0  0
   -0.0056   63.4203   88.7603 C   0  0  0  0  0  0  0  0  0  0  0  0
 20 21  1  0  0  0
 21 19  1  0  0  0
 19  7  1  0  0  0
  7 17  1  0  0  0
  7  8  2  0  0  0
  8  9  1  0  0  0
  9 10  1  0  0  0
 11  9  1  0  0  0
 11 12  1  0  0  0
 12 13  2  0  0  0
 14 12  1  0  0  0
 15 14  2  0  0  0
 16 17  1  0  0  0
 16 15  1  0  0  0
 16 18  1  0  0  0
 17 11  2  0  0  0
  1 15  1  0  0  0
  1  6  1  0  0  0
  2  1  2  0  0  0
  3  2  1  0  0  0
  3  4  2  0  0  0
  4  5  1  0  0  0
  5  6  2  0  0  0
  6 33  1  0  0  0
 33 34  1  0  0  0
 34 35  1  0  0  0
 22 24  2  0  0  0
 22 25  1  0  0  0
 22  3  1  0  0  0
 23 22  2  0  0  0
 25 26  1  0  0  0
 27 26  1  0  0  0
 28 29  1  0  0  0
 28 27  1  0  0  0
 28 32  1  0  0  0
 30 28  1  0  0  0
 30 31  1  0  0  0
 31 25  1  0  0  0
M  CHG 1  28   1
M  END
> <minimizedAffinity>
-9.54846

$$$$
/home/hjpark/lecture_drug1/0905_agent/pde5_harness/sample_run/structures/work/ligand_ref.pdb


 35 38  0  0  0  0  0  0  0  0999 V2000
    2.1292   67.1649   83.3353 C   0  0  0  0  0  0  0  0  0  0  0  0
    1.5801   68.1456   82.4212 C   0  0  0  0  0  0  0  0  0  0  0  0
    2.3307   69.3468   82.0619 C   0  0  0  0  0  0  0  0  0  0  0  0
    3.6880   69.5199   82.6707 C   0  0  0  0  0  0  0  0  0  0  0  0
    4.2585   68.5444   83.5938 C   0  0  0  0  0  0  0  0  0  0  0  0
    3.4881   67.3393   83.9563 C   0  0  0  0  0  0  0  0  0  0  0  0
   -0.1971   63.7569   86.1658 C   0  0  0  0  0  0  0  0  0  0  0  0
   -1.0343   62.7056   85.7696 N   0  0  0  0  0  0  0  0  0  0  0  0
   -1.1565   62.7221   84.4103 N   0  0  0  0  0  0  0  0  0  0  0  0
   -1.9668   61.7474   83.6746 C   0  0  0  0  0  0  0  0  0  0  0  0
   -0.4064   63.7727   83.9459 C   0  0  0  0  0  0  0  0  0  0  0  0
   -0.1402   64.2987   82.6366 C   0  0  0  0  0  0  0  0  0  0  0  0
   -0.6053   63.8244   81.6258 O   0  0  0  0  0  0  0  0  0  0  0  0
    0.6961   65.4072   82.5226 N   0  0  0  0  0  0  0  0  0  0  0  0
    1.2956   66.0481   83.6159 C   0  0  0  0  0  0  0  0  0  0  0  0
    1.0623   65.5741   84.9121 N   0  0  0  0  0  0  0  0  0  0  0  0
    0.2115   64.4403   85.0452 C   0  0  0  0  0  0  0  0  0  0  0  0
    1.4689   66.0060   85.6978 H   0  0  0  0  0  0  0  0  0  0  0  0
    0.1726   64.0716   87.5794 C   0  0  0  0  0  0  0  0  0  0  0  0
    0.2771   62.1564   89.2565 C   0  0  0  0  0  0  0  0  0  0  0  0
   -0.6256   62.9967   88.3939 C   0  0  0  0  0  0  0  0  0  0  0  0
    1.7204   70.4486   81.0735 S   0  0  0  0  0  0  0  0  0  0  0  0
    2.5815   71.0629   80.2836 O   0  0  0  0  0  0  0  0  0  0  0  0
    0.8623   69.8757   80.2626 O   0  0  0  0  0  0  0  0  0  0  0  0
    1.0219   71.4213   82.1198 N   0  0  0  0  0  0  0  0  0  0  0  0
   -0.4344   71.8886   81.7274 C   0  0  0  0  0  0  0  0  0  0  0  0
   -0.5581   73.0844   80.7634 C   0  0  0  0  0  0  0  0  0  0  0  0
    0.4503   74.1838   80.9381 N   0  0  0  0  0  0  0  0  0  0  0  0
   -0.2698   75.4122   81.3973 C   0  0  0  0  0  0  0  0  0  0  0  0
    1.6665   73.9472   81.8365 C   0  0  0  0  0  0  0  0  0  0  0  0
    1.7045   72.6386   82.7137 C   0  0  0  0  0  0  0  0  0  0  0  0
    0.8756   74.2617   80.0142 H   0  0  0  0  0  0  0  0  0  0  0  0
    3.9572   66.3279   84.8793 O   0  0  0  0  0  0  0  0  0  0  0  0
    5.3258   65.8924   85.0041 C   0  0  0  0  0  0  0  0  0  0  0  0
    5.3801   65.1433   86.3252 C   0  0  0  0  0  0  0  0  0  0  0  0
 20 21  1  0  0  0
 21 19  1  0  0  0
 19  7  1  0  0  0
  7 17  1  0  0  0
  7  8  2  0  0  0
  8  9  1  0  0  0
  9 10  1  0  0  0
 11  9  1  0  0  0
 11 12  1  0  0  0
 12 13  2  0  0  0
 14 12  1  0  0  0
 15 14  2  0  0  0
 16 17  1  0  0  0
 16 15  1  0  0  0
 16 18  1  0  0  0
 17 11  2  0  0  0
  1 15  1  0  0  0
  1  6  1  0  0  0
  2  1  2  0  0  0
  3  2  1  0  0  0
  3  4  2  0  0  0
  4  5  1  0  0  0
  5  6  2  0  0  0
  6 33  1  0  0  0
 33 34  1  0  0  0
 34 35  1  0  0  0
 22 24  2  0  0  0
 22 25  1  0  0  0
 22  3  1  0  0  0
 23 22  2  0  0  0
 25 26  1  0  0  0
 27 26  1  0  0  0
 28 29  1  0  0  0
 28 27  1  0  0  0
 28 32  1  0  0  0
 30 28  1  0  0  0
 30 31  1  0  0  0
 31 25  1  0  0  0
M  CHG 1  28   1
M  END
> <minimizedAffinity>
-9.50303

$$$$
/home/hjpark/lecture_drug1/0905_agent/pde5_harness/sample_run/structures/work/ligand_ref.pdb


 35 38  0  0  0  0  0  0  0  0999 V2000
    2.0594   66.6924   83.5306 C   0  0  0  0  0  0  0  0  0  0  0  0
    1.5750   67.7799   82.7050 C   0  0  0  0  0  0  0  0  0  0  0  0
    2.3513   69.0069   82.5405 C   0  0  0  0  0  0  0  0  0  0  0  0
    3.6657   69.0924   83.2531 C   0  0  0  0  0  0  0  0  0  0  0  0
    4.1708   68.0087   84.0896 C   0  0  0  0  0  0  0  0  0  0  0  0
    3.3745   66.7776   84.2556 C   0  0  0  0  0  0  0  0  0  0  0  0
   -0.7510   63.2194   85.7842 C   0  0  0  0  0  0  0  0  0  0  0  0
   -1.4662   62.1583   85.2136 N   0  0  0  0  0  0  0  0  0  0  0  0
   -1.2982   62.1858   83.8593 N   0  0  0  0  0  0  0  0  0  0  0  0
   -1.9165   61.2049   82.9630 C   0  0  0  0  0  0  0  0  0  0  0  0
   -0.4860   63.2531   83.5704 C   0  0  0  0  0  0  0  0  0  0  0  0
    0.0417   63.7959   82.3504 C   0  0  0  0  0  0  0  0  0  0  0  0
   -0.1902   63.3236   81.2613 O   0  0  0  0  0  0  0  0  0  0  0  0
    0.8629   64.9190   82.4225 N   0  0  0  0  0  0  0  0  0  0  0  0
    1.2057   65.5593   83.6217 C   0  0  0  0  0  0  0  0  0  0  0  0
    0.7120   65.0691   84.8363 N   0  0  0  0  0  0  0  0  0  0  0  0
   -0.1270   63.9201   84.7796 C   0  0  0  0  0  0  0  0  0  0  0  0
    0.9352   65.5001   85.6928 H   0  0  0  0  0  0  0  0  0  0  0  0
   -0.6947   63.5266   87.2458 C   0  0  0  0  0  0  0  0  0  0  0  0
    0.2514   62.1899   89.1977 C   0  0  0  0  0  0  0  0  0  0  0  0
   -0.4886   62.1127   87.8895 C   0  0  0  0  0  0  0  0  0  0  0  0
    1.8112   70.2241   81.6515 S   0  0  0  0  0  0  0  0  0  0  0  0
    1.8429   70.0486   80.3435 O   0  0  0  0  0  0  0  0  0  0  0  0
    0.5488   70.4419   81.9361 O   0  0  0  0  0  0  0  0  0  0  0  0
    2.7647   71.3940   82.1526 N   0  0  0  0  0  0  0  0  0  0  0  0
    2.0684   72.4772   83.0664 C   0  0  0  0  0  0  0  0  0  0  0  0
    1.3008   73.6112   82.3599 C   0  0  0  0  0  0  0  0  0  0  0  0
    1.9074   74.1300   81.0875 N   0  0  0  0  0  0  0  0  0  0  0  0
    2.3359   75.5452   81.3151 C   0  0  0  0  0  0  0  0  0  0  0  0
    3.0549   73.3547   80.4358 C   0  0  0  0  0  0  0  0  0  0  0  0
    3.6995   72.1602   81.2365 C   0  0  0  0  0  0  0  0  0  0  0  0
    1.1564   74.0184   80.4064 H   0  0  0  0  0  0  0  0  0  0  0  0
    3.7783   65.6595   85.0811 O   0  0  0  0  0  0  0  0  0  0  0  0
    5.1258   65.4024   85.5246 C   0  0  0  0  0  0  0  0  0  0  0  0
    4.9814   64.9187   86.9580 C   0  0  0  0  0  0  0  0  0  0  0  0
 20 21  1  0  0  0
 21 19  1  0  0  0
 19  7  1  0  0  0
  7 17  1  0  0  0
  7  8  2  0  0  0
  8  9  1  0  0  0
  9 10  1  0  0  0
 11  9  1  0  0  0
 11 12  1  0  0  0
 12 13  2  0  0  0
 14 12  1  0  0  0
 15 14  2  0  0  0
 16 17  1  0  0  0
 16 15  1  0  0  0
 16 18  1  0  0  0
 17 11  2  0  0  0
  1 15  1  0  0  0
  1  6  1  0  0  0
  2  1  2  0  0  0
  3  2  1  0  0  0
  3  4  2  0  0  0
  4  5  1  0  0  0
  5  6  2  0  0  0
  6 33  1  0  0  0
 33 34  1  0  0  0
 34 35  1  0  0  0
 22 24  2  0  0  0
 22 25  1  0  0  0
 22  3  1  0  0  0
 23 22  2  0  0  0
 25 26  1  0  0  0
 27 26  1  0  0  0
 28 29  1  0  0  0
 28 27  1  0  0  0
 28 32  1  0  0  0
 30 28  1  0  0  0
 30 31  1  0  0  0
 31 25  1  0  0  0
M  CHG 1  28   1
M  END
> <minimizedAffinity>
-9.21248

$$$$
/home/hjpark/lecture_drug1/0905_agent/pde5_harness/sample_run/structures/work/ligand_ref.pdb


 35 38  0  0  0  0  0  0  0  0999 V2000
    0.2499   64.6381   82.5925 C   0  0  0  0  0  0  0  0  0  0  0  0
    1.0846   65.8106   82.4270 C   0  0  0  0  0  0  0  0  0  0  0  0
    1.6479   66.5058   83.5823 C   0  0  0  0  0  0  0  0  0  0  0  0
    1.3329   65.9560   84.9392 C   0  0  0  0  0  0  0  0  0  0  0  0
    0.4941   64.7770   85.1272 C   0  0  0  0  0  0  0  0  0  0  0  0
   -0.0766   64.0879   83.9538 C   0  0  0  0  0  0  0  0  0  0  0  0
   -2.8454   61.9559   79.7178 C   0  0  0  0  0  0  0  0  0  0  0  0
   -2.7784   61.7116   78.3398 N   0  0  0  0  0  0  0  0  0  0  0  0
   -1.6835   62.3460   77.8281 N   0  0  0  0  0  0  0  0  0  0  0  0
   -1.3245   62.2885   76.4084 C   0  0  0  0  0  0  0  0  0  0  0  0
   -1.0607   62.9880   78.8684 C   0  0  0  0  0  0  0  0  0  0  0  0
    0.1140   63.8079   78.9667 C   0  0  0  0  0  0  0  0  0  0  0  0
    0.8095   64.0842   78.0165 O   0  0  0  0  0  0  0  0  0  0  0  0
    0.4733   64.3080   80.2165 N   0  0  0  0  0  0  0  0  0  0  0  0
   -0.2488   64.0613   81.3926 C   0  0  0  0  0  0  0  0  0  0  0  0
   -1.4032   63.2711   81.3459 N   0  0  0  0  0  0  0  0  0  0  0  0
   -1.7825   62.7505   80.0761 C   0  0  0  0  0  0  0  0  0  0  0  0
   -1.9302   63.0834   82.1560 H   0  0  0  0  0  0  0  0  0  0  0  0
   -3.9094   61.4355   80.6294 C   0  0  0  0  0  0  0  0  0  0  0  0
   -2.9563   60.1704   82.6250 C   0  0  0  0  0  0  0  0  0  0  0  0
   -3.2883   60.0977   81.1589 C   0  0  0  0  0  0  0  0  0  0  0  0
    2.5493   67.8178   83.4097 S   0  0  0  0  0  0  0  0  0  0  0  0
    2.5782   68.6437   84.4391 O   0  0  0  0  0  0  0  0  0  0  0  0
    3.7987   67.4634   83.2213 O   0  0  0  0  0  0  0  0  0  0  0  0
    1.8887   68.4543   82.1108 N   0  0  0  0  0  0  0  0  0  0  0  0
    2.9121   68.9326   81.0076 C   0  0  0  0  0  0  0  0  0  0  0  0
    3.5429   70.3273   81.1848 C   0  0  0  0  0  0  0  0  0  0  0  0
    2.6455   71.3948   81.7426 N   0  0  0  0  0  0  0  0  0  0  0  0
    2.4289   72.4271   80.6817 C   0  0  0  0  0  0  0  0  0  0  0  0
    1.2946   70.9977   82.3426 C   0  0  0  0  0  0  0  0  0  0  0  0
    0.8027   69.5120   82.1585 C   0  0  0  0  0  0  0  0  0  0  0  0
    3.1562   71.7275   82.5605 H   0  0  0  0  0  0  0  0  0  0  0  0
   -0.9376   62.9276   84.0381 O   0  0  0  0  0  0  0  0  0  0  0  0
   -1.1903   62.1701   85.2384 C   0  0  0  0  0  0  0  0  0  0  0  0
   -2.6192   62.5132   85.6253 C   0  0  0  0  0  0  0  0  0  0  0  0
 20 21  1  0  0  0
 21 19  1  0  0  0
 19  7  1  0  0  0
  7 17  1  0  0  0
  7  8  2  0  0  0
  8  9  1  0  0  0
  9 10  1  0  0  0
 11  9  1  0  0  0
 11 12  1  0  0  0
 12 13  2  0  0  0
 14 12  1  0  0  0
 15 14  2  0  0  0
 16 17  1  0  0  0
 16 15  1  0  0  0
 16 18  1  0  0  0
 17 11  2  0  0  0
  1 15  1  0  0  0
  1  6  1  0  0  0
  2  1  2  0  0  0
  3  2  1  0  0  0
  3  4  2  0  0  0
  4  5  1  0  0  0
  5  6  2  0  0  0
  6 33  1  0  0  0
 33 34  1  0  0  0
 34 35  1  0  0  0
 22 24  2  0  0  0
 22 25  1  0  0  0
 22  3  1  0  0  0
 23 22  2  0  0  0
 25 26  1  0  0  0
 27 26  1  0  0  0
 28 29  1  0  0  0
 28 27  1  0  0  0
 28 32  1  0  0  0
 30 28  1  0  0  0
 30 31  1  0  0  0
 31 25  1  0  0  0
M  CHG 1  28   1
M  END
> <minimizedAffinity>
-9.01459

$$$$
/home/hjpark/lecture_drug1/0905_agent/pde5_harness/sample_run/structures/work/ligand_ref.pdb


 35 38  0  0  0  0  0  0  0  0999 V2000
    2.1704   66.2698   84.1124 C   0  0  0  0  0  0  0  0  0  0  0  0
    1.6746   67.1513   83.0750 C   0  0  0  0  0  0  0  0  0  0  0  0
    2.5072   68.2228   82.5329 C   0  0  0  0  0  0  0  0  0  0  0  0
    3.8907   68.3691   83.0873 C   0  0  0  0  0  0  0  0  0  0  0  0
    4.4084   67.4922   84.1324 C   0  0  0  0  0  0  0  0  0  0  0  0
    3.5559   66.4189   84.6787 C   0  0  0  0  0  0  0  0  0  0  0  0
   -1.0721   62.4788   83.7209 C   0  0  0  0  0  0  0  0  0  0  0  0
   -1.7797   61.8165   84.7327 N   0  0  0  0  0  0  0  0  0  0  0  0
   -1.4521   62.3666   85.9382 N   0  0  0  0  0  0  0  0  0  0  0  0
   -2.0234   61.9003   87.2046 C   0  0  0  0  0  0  0  0  0  0  0  0
   -0.5453   63.3674   85.6970 C   0  0  0  0  0  0  0  0  0  0  0  0
    0.1589   64.2918   86.5404 C   0  0  0  0  0  0  0  0  0  0  0  0
    0.0336   64.3176   87.7432 O   0  0  0  0  0  0  0  0  0  0  0  0
    1.0267   65.2058   85.9465 N   0  0  0  0  0  0  0  0  0  0  0  0
    1.2595   65.2770   84.5659 C   0  0  0  0  0  0  0  0  0  0  0  0
    0.5992   64.3937   83.7038 N   0  0  0  0  0  0  0  0  0  0  0  0
   -0.2930   63.4549   84.2953 C   0  0  0  0  0  0  0  0  0  0  0  0
    0.7453   64.4204   82.7307 H   0  0  0  0  0  0  0  0  0  0  0  0
   -1.1581   62.1572   82.2638 C   0  0  0  0  0  0  0  0  0  0  0  0
    0.6895   61.4979   80.6380 C   0  0  0  0  0  0  0  0  0  0  0  0
    0.1311   61.2998   82.0215 C   0  0  0  0  0  0  0  0  0  0  0  0
    1.9580   69.2182   81.4055 S   0  0  0  0  0  0  0  0  0  0  0  0
    2.8643   69.7479   80.6050 O   0  0  0  0  0  0  0  0  0  0  0  0
    1.1413   68.5658   80.6120 O   0  0  0  0  0  0  0  0  0  0  0  0
    1.2101   70.2932   82.3075 N   0  0  0  0  0  0  0  0  0  0  0  0
   -0.2242   70.7114   81.7965 C   0  0  0  0  0  0  0  0  0  0  0  0
   -0.2980   71.7984   80.7069 C   0  0  0  0  0  0  0  0  0  0  0  0
    0.7023   72.9138   80.8143 N   0  0  0  0  0  0  0  0  0  0  0  0
   -0.0375   74.1810   81.1053 C   0  0  0  0  0  0  0  0  0  0  0  0
    1.8721   72.7774   81.7919 C   0  0  0  0  0  0  0  0  0  0  0  0
    1.8644   71.5687   82.8029 C   0  0  0  0  0  0  0  0  0  0  0  0
    1.1731   72.8954   79.9096 H   0  0  0  0  0  0  0  0  0  0  0  0
    3.9697   65.5150   85.7306 O   0  0  0  0  0  0  0  0  0  0  0  0
    5.3357   65.1670   86.0328 C   0  0  0  0  0  0  0  0  0  0  0  0
    5.4950   65.4555   87.5163 C   0  0  0  0  0  0  0  0  0  0  0  0
 20 21  1  0  0  0
 21 19  1  0  0  0
 19  7  1  0  0  0
  7 17  1  0  0  0
  7  8  2  0  0  0
  8  9  1  0  0  0
  9 10  1  0  0  0
 11  9  1  0  0  0
 11 12  1  0  0  0
 12 13  2  0  0  0
 14 12  1  0  0  0
 15 14  2  0  0  0
 16 17  1  0  0  0
 16 15  1  0  0  0
 16 18  1  0  0  0
 17 11  2  0  0  0
  1 15  1  0  0  0
  1  6  1  0  0  0
  2  1  2  0  0  0
  3  2  1  0  0  0
  3  4  2  0  0  0
  4  5  1  0  0  0
  5  6  2  0  0  0
  6 33  1  0  0  0
 33 34  1  0  0  0
 34 35  1  0  0  0
 22 24  2  0  0  0
 22 25  1  0  0  0
 22  3  1  0  0  0
 23 22  2  0  0  0
 25 26  1  0  0  0
 27 26  1  0  0  0
 28 29  1  0  0  0
 28 27  1  0  0  0
 28 32  1  0  0  0
 30 28  1  0  0  0
 30 31  1  0  0  0
 31 25  1  0  0  0
M  CHG 1  28   1
M  END
> <minimizedAffinity>
-9.00362

$$$$
/home/hjpark/lecture_drug1/0905_agent/pde5_harness/sample_run/structures/work/ligand_ref.pdb


 35 38  0  0  0  0  0  0  0  0999 V2000
    1.7812   66.5886   82.8588 C   0  0  0  0  0  0  0  0  0  0  0  0
    1.3760   67.6645   81.9772 C   0  0  0  0  0  0  0  0  0  0  0  0
    2.0496   68.9609   82.0086 C   0  0  0  0  0  0  0  0  0  0  0  0
    3.1752   69.1300   82.9819 C   0  0  0  0  0  0  0  0  0  0  0  0
    3.5980   68.0593   83.8785 C   0  0  0  0  0  0  0  0  0  0  0  0
    2.9050   66.7570   83.8442 C   0  0  0  0  0  0  0  0  0  0  0  0
   -0.6988   62.5414   84.4425 C   0  0  0  0  0  0  0  0  0  0  0  0
   -1.3071   61.5295   83.6881 N   0  0  0  0  0  0  0  0  0  0  0  0
   -1.1354   61.7994   82.3612 N   0  0  0  0  0  0  0  0  0  0  0  0
   -1.6532   60.9299   81.3012 C   0  0  0  0  0  0  0  0  0  0  0  0
   -0.4266   62.9706   82.2714 C   0  0  0  0  0  0  0  0  0  0  0  0
    0.0535   63.7570   81.1702 C   0  0  0  0  0  0  0  0  0  0  0  0
   -0.1268   63.4549   80.0130 O   0  0  0  0  0  0  0  0  0  0  0  0
    0.7641   64.9234   81.4458 N   0  0  0  0  0  0  0  0  0  0  0  0
    1.0384   65.3821   82.7418 C   0  0  0  0  0  0  0  0  0  0  0  0
    0.5870   64.6514   83.8471 N   0  0  0  0  0  0  0  0  0  0  0  0
   -0.1389   63.4556   83.5821 C   0  0  0  0  0  0  0  0  0  0  0  0
    0.7639   64.9513   84.7680 H   0  0  0  0  0  0  0  0  0  0  0  0
   -0.6795   62.6027   85.9357 C   0  0  0  0  0  0  0  0  0  0  0  0
   -2.4139   62.9924   87.7610 C   0  0  0  0  0  0  0  0  0  0  0  0
   -2.2003   62.7124   86.2978 C   0  0  0  0  0  0  0  0  0  0  0  0
    1.5909   70.1638   81.0567 S   0  0  0  0  0  0  0  0  0  0  0  0
    2.5416   70.7337   80.3397 O   0  0  0  0  0  0  0  0  0  0  0  0
    0.7240   69.7157   80.1793 O   0  0  0  0  0  0  0  0  0  0  0  0
    0.9348   71.1435   82.1237 N   0  0  0  0  0  0  0  0  0  0  0  0
   -0.5191   71.6440   81.7646 C   0  0  0  0  0  0  0  0  0  0  0  0
   -0.6374   72.8488   80.8114 C   0  0  0  0  0  0  0  0  0  0  0  0
    0.3973   73.9256   80.9724 N   0  0  0  0  0  0  0  0  0  0  0  0
   -0.2870   75.1655   81.4545 C   0  0  0  0  0  0  0  0  0  0  0  0
    1.6265   73.6572   81.8439 C   0  0  0  0  0  0  0  0  0  0  0  0
    1.6549   72.3419   82.7114 C   0  0  0  0  0  0  0  0  0  0  0  0
    0.8051   74.0011   80.0405 H   0  0  0  0  0  0  0  0  0  0  0  0
    3.2346   65.6436   84.7082 O   0  0  0  0  0  0  0  0  0  0  0  0
    4.1788   65.6919   85.7966 C   0  0  0  0  0  0  0  0  0  0  0  0
    5.4886   65.2021   85.2017 C   0  0  0  0  0  0  0  0  0  0  0  0
 20 21  1  0  0  0
 21 19  1  0  0  0
 19  7  1  0  0  0
  7 17  1  0  0  0
  7  8  2  0  0  0
  8  9  1  0  0  0
  9 10  1  0  0  0
 11  9  1  0  0  0
 11 12  1  0  0  0
 12 13  2  0  0  0
 14 12  1  0  0  0
 15 14  2  0  0  0
 16 17  1  0  0  0
 16 15  1  0  0  0
 16 18  1  0  0  0
 17 11  2  0  0  0
  1 15  1  0  0  0
  1  6  1  0  0  0
  2  1  2  0  0  0
  3  2  1  0  0  0
  3  4  2  0  0  0
  4  5  1  0  0  0
  5  6  2  0  0  0
  6 33  1  0  0  0
 33 34  1  0  0  0
 34 35  1  0  0  0
 22 24  2  0  0  0
 22 25  1  0  0  0
 22  3  1  0  0  0
 23 22  2  0  0  0
 25 26  1  0  0  0
 27 26  1  0  0  0
 28 29  1  0  0  0
 28 27  1  0  0  0
 28 32  1  0  0  0
 30 28  1  0  0  0
 30 31  1  0  0  0
 31 25  1  0  0  0
M  CHG 1  28   1
M  END
> <minimizedAffinity>
-8.95261

$$$$
/home/hjpark/lecture_drug1/0905_agent/pde5_harness/sample_run/structures/work/ligand_ref.pdb


 35 38  0  0  0  0  0  0  0  0999 V2000
    0.9931   65.9921   81.9998 C   0  0  0  0  0  0  0  0  0  0  0  0
    1.5086   67.2434   82.5170 C   0  0  0  0  0  0  0  0  0  0  0  0
    2.0887   68.2467   81.6271 C   0  0  0  0  0  0  0  0  0  0  0  0
    2.1239   67.9326   80.1632 C   0  0  0  0  0  0  0  0  0  0  0  0
    1.6106   66.6783   79.6225 C   0  0  0  0  0  0  0  0  0  0  0  0
    1.0348   65.6685   80.5315 C   0  0  0  0  0  0  0  0  0  0  0  0
   -1.9094   62.3227   83.7744 C   0  0  0  0  0  0  0  0  0  0  0  0
   -1.9780   61.8039   85.0741 N   0  0  0  0  0  0  0  0  0  0  0  0
   -1.0843   62.4660   85.8653 N   0  0  0  0  0  0  0  0  0  0  0  0
   -0.9081   62.1634   87.2883 C   0  0  0  0  0  0  0  0  0  0  0  0
   -0.4529   63.3955   85.0781 C   0  0  0  0  0  0  0  0  0  0  0  0
    0.5682   64.3744   85.3249 C   0  0  0  0  0  0  0  0  0  0  0  0
    1.0833   64.5347   86.4074 O   0  0  0  0  0  0  0  0  0  0  0  0
    0.9852   65.1813   84.2684 N   0  0  0  0  0  0  0  0  0  0  0  0
    0.4681   65.0936   82.9683 C   0  0  0  0  0  0  0  0  0  0  0  0
   -0.5259   64.1517   82.6784 N   0  0  0  0  0  0  0  0  0  0  0  0
   -0.9646   63.3208   83.7482 C   0  0  0  0  0  0  0  0  0  0  0  0
   -0.9054   64.0673   81.7740 H   0  0  0  0  0  0  0  0  0  0  0  0
   -2.7312   61.8502   82.6189 C   0  0  0  0  0  0  0  0  0  0  0  0
   -1.1492   61.0793   80.7764 C   0  0  0  0  0  0  0  0  0  0  0  0
   -1.8686   60.6787   82.0362 C   0  0  0  0  0  0  0  0  0  0  0  0
    2.6849   69.6206   82.1932 S   0  0  0  0  0  0  0  0  0  0  0  0
    2.3547   69.9314   83.4331 O   0  0  0  0  0  0  0  0  0  0  0  0
    3.9956   69.5562   82.1951 O   0  0  0  0  0  0  0  0  0  0  0  0
    2.1217   70.6463   81.1163 N   0  0  0  0  0  0  0  0  0  0  0  0
    2.9798   71.9589   80.9323 C   0  0  0  0  0  0  0  0  0  0  0  0
    2.7377   73.1081   81.9298 C   0  0  0  0  0  0  0  0  0  0  0  0
    1.3158   73.3192   82.3656 N   0  0  0  0  0  0  0  0  0  0  0  0
    0.8574   74.6447   81.8452 C   0  0  0  0  0  0  0  0  0  0  0  0
    0.2660   72.2565   82.0322 C   0  0  0  0  0  0  0  0  0  0  0  0
    0.6711   71.0851   81.0591 C   0  0  0  0  0  0  0  0  0  0  0  0
    1.3700   73.2583   83.3824 H   0  0  0  0  0  0  0  0  0  0  0  0
    0.5226   64.3872   80.0949 O   0  0  0  0  0  0  0  0  0  0  0  0
    0.0784   64.0859   78.7569 C   0  0  0  0  0  0  0  0  0  0  0  0
    0.9929   62.9690   78.2821 C   0  0  0  0  0  0  0  0  0  0  0  0
 20 21  1  0  0  0
 21 19  1  0  0  0
 19  7  1  0  0  0
  7 17  1  0  0  0
  7  8  2  0  0  0
  8  9  1  0  0  0
  9 10  1  0  0  0
 11  9  1  0  0  0
 11 12  1  0  0  0
 12 13  2  0  0  0
 14 12  1  0  0  0
 15 14  2  0  0  0
 16 17  1  0  0  0
 16 15  1  0  0  0
 16 18  1  0  0  0
 17 11  2  0  0  0
  1 15  1  0  0  0
  1  6  1  0  0  0
  2  1  2  0  0  0
  3  2  1  0  0  0
  3  4  2  0  0  0
  4  5  1  0  0  0
  5  6  2  0  0  0
  6 33  1  0  0  0
 33 34  1  0  0  0
 34 35  1  0  0  0
 22 24  2  0  0  0
 22 25  1  0  0  0
 22  3  1  0  0  0
 23 22  2  0  0  0
 25 26  1  0  0  0
 27 26  1  0  0  0
 28 29  1  0  0  0
 28 27  1  0  0  0
 28 32  1  0  0  0
 30 28  1  0  0  0
 30 31  1  0  0  0
 31 25  1  0  0  0
M  CHG 1  28   1
M  END
> <minimizedAffinity>
-8.91761

$$$$
/home/hjpark/lecture_drug1/0905_agent/pde5_harness/sample_run/structures/work/ligand_ref.pdb


 35 38  0  0  0  0  0  0  0  0999 V2000
    0.4339   64.4072   84.6210 C   0  0  0  0  0  0  0  0  0  0  0  0
   -0.1138   64.1637   83.3020 C   0  0  0  0  0  0  0  0  0  0  0  0
   -1.2602   63.2778   83.1119 C   0  0  0  0  0  0  0  0  0  0  0  0
   -1.8474   62.6382   84.3321 C   0  0  0  0  0  0  0  0  0  0  0  0
   -1.3103   62.8699   85.6689 C   0  0  0  0  0  0  0  0  0  0  0  0
   -0.1469   63.7597   85.8481 C   0  0  0  0  0  0  0  0  0  0  0  0
    3.1212   68.5134   83.6432 C   0  0  0  0  0  0  0  0  0  0  0  0
    4.4218   68.8338   84.0541 N   0  0  0  0  0  0  0  0  0  0  0  0
    4.9105   67.8147   84.8194 N   0  0  0  0  0  0  0  0  0  0  0  0
    6.2530   67.8369   85.4067 C   0  0  0  0  0  0  0  0  0  0  0  0
    3.9318   66.8564   84.8959 C   0  0  0  0  0  0  0  0  0  0  0  0
    3.8439   65.5785   85.5448 C   0  0  0  0  0  0  0  0  0  0  0  0
    4.7422   65.1081   86.2041 O   0  0  0  0  0  0  0  0  0  0  0  0
    2.6692   64.8421   85.4072 N   0  0  0  0  0  0  0  0  0  0  0  0
    1.5576   65.2765   84.6717 C   0  0  0  0  0  0  0  0  0  0  0  0
    1.5946   66.5174   84.0250 N   0  0  0  0  0  0  0  0  0  0  0  0
    2.7893   67.2812   84.1541 C   0  0  0  0  0  0  0  0  0  0  0  0
    0.8279   66.8478   83.5034 H   0  0  0  0  0  0  0  0  0  0  0  0
    2.2515   69.3846   82.7955 C   0  0  0  0  0  0  0  0  0  0  0  0
    1.9812   68.1336   80.5924 C   0  0  0  0  0  0  0  0  0  0  0  0
    2.8101   69.1333   81.3530 C   0  0  0  0  0  0  0  0  0  0  0  0
   -1.8549   62.9823   81.6551 S   0  0  0  0  0  0  0  0  0  0  0  0
   -3.1557   63.1555   81.5112 O   0  0  0  0  0  0  0  0  0  0  0  0
   -1.3040   63.7990   80.7882 O   0  0  0  0  0  0  0  0  0  0  0  0
   -1.3953   61.4731   81.4553 N   0  0  0  0  0  0  0  0  0  0  0  0
   -0.1976   61.2681   80.4470 C   0  0  0  0  0  0  0  0  0  0  0  0
   -0.5397   61.2030   78.9460 C   0  0  0  0  0  0  0  0  0  0  0  0
   -1.8168   60.4986   78.5870 N   0  0  0  0  0  0  0  0  0  0  0  0
   -1.4708   59.2623   77.8188 C   0  0  0  0  0  0  0  0  0  0  0  0
   -2.8108   60.1418   79.6947 C   0  0  0  0  0  0  0  0  0  0  0  0
   -2.3609   60.3333   81.1928 C   0  0  0  0  0  0  0  0  0  0  0  0
   -2.3302   61.2000   78.0532 H   0  0  0  0  0  0  0  0  0  0  0  0
    0.4713   64.0332   87.1279 O   0  0  0  0  0  0  0  0  0  0  0  0
   -0.1527   63.8225   88.4102 C   0  0  0  0  0  0  0  0  0  0  0  0
    0.4408   62.5222   88.9264 C   0  0  0  0  0  0  0  0  0  0  0  0
 20 21  1  0  0  0
 21 19  1  0  0  0
 19  7  1  0  0  0
  7 17  1  0  0  0
  7  8  2  0  0  0
  8  9  1  0  0  0
  9 10  1  0  0  0
 11  9  1  0  0  0
 11 12  1  0  0  0
 12 13  2  0  0  0
 14 12  1  0  0  0
 15 14  2  0  0  0
 16 17  1  0  0  0
 16 15  1  0  0  0
 16 18  1  0  0  0
 17 11  2  0  0  0
  1 15  1  0  0  0
  1  6  1  0  0  0
  2  1  2  0  0  0
  3  2  1  0  0  0
  3  4  2  0  0  0
  4  5  1  0  0  0
  5  6  2  0  0  0
  6 33  1  0  0  0
 33 34  1  0  0  0
 34 35  1  0  0  0
 22 24  2  0  0  0
 22 25  1  0  0  0
 22  3  1  0  0  0
 23 22  2  0  0  0
 25 26  1  0  0  0
 27 26  1  0  0  0
 28 29  1  0  0  0
 28 27  1  0  0  0
 28 32  1  0  0  0
 30 28  1  0  0  0
 30 31  1  0  0  0
 31 25  1  0  0  0
M  CHG 1  28   1
M  END
> <minimizedAffinity>
-8.90216

$$$$
/home/hjpark/lecture_drug1/0905_agent/pde5_harness/sample_run/structures/work/ligand_ref.pdb


 35 38  0  0  0  0  0  0  0  0999 V2000
    0.3139   65.0318   81.2841 C   0  0  0  0  0  0  0  0  0  0  0  0
    0.6684   66.3059   80.6925 C   0  0  0  0  0  0  0  0  0  0  0  0
    1.2219   67.3876   81.5042 C   0  0  0  0  0  0  0  0  0  0  0  0
    1.4123   67.1249   82.9663 C   0  0  0  0  0  0  0  0  0  0  0  0
    1.0611   65.8492   83.5813 C   0  0  0  0  0  0  0  0  0  0  0  0
    0.4948   64.7668   82.7536 C   0  0  0  0  0  0  0  0  0  0  0  0
   -2.8346   61.4725   79.7169 C   0  0  0  0  0  0  0  0  0  0  0  0
   -2.8338   60.7656   78.5072 N   0  0  0  0  0  0  0  0  0  0  0  0
   -1.7918   61.1988   77.7394 N   0  0  0  0  0  0  0  0  0  0  0  0
   -1.5085   60.6568   76.4076 C   0  0  0  0  0  0  0  0  0  0  0  0
   -1.1368   62.1713   78.4517 C   0  0  0  0  0  0  0  0  0  0  0  0
    0.0113   62.9916   78.1857 C   0  0  0  0  0  0  0  0  0  0  0  0
    0.6439   62.9308   77.1566 O   0  0  0  0  0  0  0  0  0  0  0  0
    0.4198   63.9000   79.1599 N   0  0  0  0  0  0  0  0  0  0  0  0
   -0.2281   64.0667   80.3920 C   0  0  0  0  0  0  0  0  0  0  0  0
   -1.3543   63.2926   80.6947 N   0  0  0  0  0  0  0  0  0  0  0  0
   -1.7830   62.3577   79.7101 C   0  0  0  0  0  0  0  0  0  0  0  0
   -1.8295   63.3902   81.5513 H   0  0  0  0  0  0  0  0  0  0  0  0
   -3.8283   61.2856   80.8177 C   0  0  0  0  0  0  0  0  0  0  0  0
   -3.1410   60.6612   83.1904 C   0  0  0  0  0  0  0  0  0  0  0  0
   -3.1239   60.2379   81.7463 C   0  0  0  0  0  0  0  0  0  0  0  0
    1.5913   68.8077   80.8636 S   0  0  0  0  0  0  0  0  0  0  0  0
    2.8499   68.9731   80.5011 O   0  0  0  0  0  0  0  0  0  0  0  0
    0.8942   68.9823   79.7655 O   0  0  0  0  0  0  0  0  0  0  0  0
    1.1418   69.7810   82.0380 N   0  0  0  0  0  0  0  0  0  0  0  0
   -0.0037   70.7996   81.6590 C   0  0  0  0  0  0  0  0  0  0  0  0
    0.4134   72.1002   80.9459 C   0  0  0  0  0  0  0  0  0  0  0  0
    1.7067   72.7175   81.3957 N   0  0  0  0  0  0  0  0  0  0  0  0
    1.3993   74.0296   82.0453 C   0  0  0  0  0  0  0  0  0  0  0  0
    2.6436   71.9143   82.3011 C   0  0  0  0  0  0  0  0  0  0  0  0
    2.1190   70.5552   82.9018 C   0  0  0  0  0  0  0  0  0  0  0  0
    2.2466   72.7872   80.5331 H   0  0  0  0  0  0  0  0  0  0  0  0
    0.0941   63.4771   83.2742 O   0  0  0  0  0  0  0  0  0  0  0  0
   -0.8894   63.2712   84.3079 C   0  0  0  0  0  0  0  0  0  0  0  0
   -0.3581   62.1079   85.1288 C   0  0  0  0  0  0  0  0  0  0  0  0
 20 21  1  0  0  0
 21 19  1  0  0  0
 19  7  1  0  0  0
  7 17  1  0  0  0
  7  8  2  0  0  0
  8  9  1  0  0  0
  9 10  1  0  0  0
 11  9  1  0  0  0
 11 12  1  0  0  0
 12 13  2  0  0  0
 14 12  1  0  0  0
 15 14  2  0  0  0
 16 17  1  0  0  0
 16 15  1  0  0  0
 16 18  1  0  0  0
 17 11  2  0  0  0
  1 15  1  0  0  0
  1  6  1  0  0  0
  2  1  2  0  0  0
  3  2  1  0  0  0
  3  4  2  0  0  0
  4  5  1  0  0  0
  5  6  2  0  0  0
  6 33  1  0  0  0
 33 34  1  0  0  0
 34 35  1  0  0  0
 22 24  2  0  0  0
 22 25  1  0  0  0
 22  3  1  0  0  0
 23 22  2  0  0  0
 25 26  1  0  0  0
 27 26  1  0  0  0
 28 29  1  0  0  0
 28 27  1  0  0  0
 28 32  1  0  0  0
 30 28  1  0  0  0
 30 31  1  0  0  0
 31 25  1  0  0  0
M  CHG 1  28   1
M  END
> <minimizedAffinity>
-8.87199

$$$$
/home/hjpark/lecture_drug1/0905_agent/pde5_harness/sample_run/structures/work/ligand_ref.pdb


 35 38  0  0  0  0  0  0  0  0999 V2000
    0.5528   65.4528   81.7392 C   0  0  0  0  0  0  0  0  0  0  0  0
    1.1926   66.0619   82.8874 C   0  0  0  0  0  0  0  0  0  0  0  0
    2.0185   67.2590   82.7451 C   0  0  0  0  0  0  0  0  0  0  0  0
    2.1719   67.8317   81.3699 C   0  0  0  0  0  0  0  0  0  0  0  0
    1.5365   67.2330   80.2008 C   0  0  0  0  0  0  0  0  0  0  0  0
    0.7117   66.0192   80.3549 C   0  0  0  0  0  0  0  0  0  0  0  0
   -2.2187   62.2893   84.4502 C   0  0  0  0  0  0  0  0  0  0  0  0
   -2.7730   61.0587   84.0741 N   0  0  0  0  0  0  0  0  0  0  0  0
   -2.4471   60.8029   82.7735 N   0  0  0  0  0  0  0  0  0  0  0  0
   -2.8732   59.5882   82.0731 C   0  0  0  0  0  0  0  0  0  0  0  0
   -1.6946   61.8591   82.3261 C   0  0  0  0  0  0  0  0  0  0  0  0
   -1.0702   62.1705   81.0711 C   0  0  0  0  0  0  0  0  0  0  0  0
   -1.1316   61.4468   80.1039 O   0  0  0  0  0  0  0  0  0  0  0  0
   -0.3564   63.3619   80.9609 N   0  0  0  0  0  0  0  0  0  0  0  0
   -0.2119   64.2845   82.0065 C   0  0  0  0  0  0  0  0  0  0  0  0
   -0.8062   64.0266   83.2473 N   0  0  0  0  0  0  0  0  0  0  0  0
   -1.5374   62.8117   83.3767 C   0  0  0  0  0  0  0  0  0  0  0  0
   -0.7223   64.6578   83.9981 H   0  0  0  0  0  0  0  0  0  0  0  0
   -2.3623   62.9171   85.7990 C   0  0  0  0  0  0  0  0  0  0  0  0
   -0.1281   63.6432   86.7852 C   0  0  0  0  0  0  0  0  0  0  0  0
   -1.0459   62.4786   86.5274 C   0  0  0  0  0  0  0  0  0  0  0  0
    2.7508   67.9231   84.0046 S   0  0  0  0  0  0  0  0  0  0  0  0
    2.9181   69.2317   83.9573 O   0  0  0  0  0  0  0  0  0  0  0  0
    2.0358   67.7093   85.0840 O   0  0  0  0  0  0  0  0  0  0  0  0
    4.1195   67.1135   84.0038 N   0  0  0  0  0  0  0  0  0  0  0  0
    4.0259   65.6439   84.5738 C   0  0  0  0  0  0  0  0  0  0  0  0
    4.1011   65.4721   86.1033 C   0  0  0  0  0  0  0  0  0  0  0  0
    5.0443   66.3894   86.8279 N   0  0  0  0  0  0  0  0  0  0  0  0
    6.1474   65.5634   87.4100 C   0  0  0  0  0  0  0  0  0  0  0  0
    5.6475   67.5824   86.0825 C   0  0  0  0  0  0  0  0  0  0  0  0
    5.4259   67.6805   84.5254 C   0  0  0  0  0  0  0  0  0  0  0  0
    4.4462   66.8449   87.5172 H   0  0  0  0  0  0  0  0  0  0  0  0
    0.0612   65.3395   79.2550 O   0  0  0  0  0  0  0  0  0  0  0  0
    0.7317   64.8272   78.0861 C   0  0  0  0  0  0  0  0  0  0  0  0
   -0.3535   64.1235   77.2882 C   0  0  0  0  0  0  0  0  0  0  0  0
 20 21  1  0  0  0
 21 19  1  0  0  0
 19  7  1  0  0  0
  7 17  1  0  0  0
  7  8  2  0  0  0
  8  9  1  0  0  0
  9 10  1  0  0  0
 11  9  1  0  0  0
 11 12  1  0  0  0
 12 13  2  0  0  0
 14 12  1  0  0  0
 15 14  2  0  0  0
 16 17  1  0  0  0
 16 15  1  0  0  0
 16 18  1  0  0  0
 17 11  2  0  0  0
  1 15  1  0  0  0
  1  6  1  0  0  0
  2  1  2  0  0  0
  3  2  1  0  0  0
  3  4  2  0  0  0
  4  5  1  0  0  0
  5  6  2  0  0  0
  6 33  1  0  0  0
 33 34  1  0  0  0
 34 35  1  0  0  0
 22 24  2  0  0  0
 22 25  1  0  0  0
 22  3  1  0  0  0
 23 22  2  0  0  0
 25 26  1  0  0  0
 27 26  1  0  0  0
 28 29  1  0  0  0
 28 27  1  0  0  0
 28 32  1  0  0  0
 30 28  1  0  0  0
 30 31  1  0  0  0
 31 25  1  0  0  0
M  CHG 1  28   1
M  END
> <minimizedAffinity>
-8.73015

$$$$
/home/hjpark/lecture_drug1/0905_agent/pde5_harness/sample_run/structures/work/ligand_ref.pdb


 35 38  0  0  0  0  0  0  0  0999 V2000
    0.0658   63.3319   84.0955 C   0  0  0  0  0  0  0  0  0  0  0  0
    0.9361   64.4014   83.6507 C   0  0  0  0  0  0  0  0  0  0  0  0
    1.5841   65.2953   84.6079 C   0  0  0  0  0  0  0  0  0  0  0  0
    1.3174   65.0588   86.0624 C   0  0  0  0  0  0  0  0  0  0  0  0
    0.4438   63.9879   86.5307 C   0  0  0  0  0  0  0  0  0  0  0  0
   -0.2122   63.0965   85.5548 C   0  0  0  0  0  0  0  0  0  0  0  0
   -0.5695   61.5584   79.4598 C   0  0  0  0  0  0  0  0  0  0  0  0
   -1.5003   60.6198   78.9953 N   0  0  0  0  0  0  0  0  0  0  0  0
   -2.2752   60.2069   80.0403 N   0  0  0  0  0  0  0  0  0  0  0  0
   -3.3516   59.2237   79.8900 C   0  0  0  0  0  0  0  0  0  0  0  0
   -1.8422   60.8741   81.1581 C   0  0  0  0  0  0  0  0  0  0  0  0
   -2.2475   60.8684   82.5355 C   0  0  0  0  0  0  0  0  0  0  0  0
   -3.1478   60.1796   82.9575 O   0  0  0  0  0  0  0  0  0  0  0  0
   -1.5745   61.6976   83.4303 N   0  0  0  0  0  0  0  0  0  0  0  0
   -0.5153   62.5411   83.0669 C   0  0  0  0  0  0  0  0  0  0  0  0
   -0.0820   62.5779   81.7365 N   0  0  0  0  0  0  0  0  0  0  0  0
   -0.7613   61.7378   80.8091 C   0  0  0  0  0  0  0  0  0  0  0  0
    0.6604   63.1595   81.4541 H   0  0  0  0  0  0  0  0  0  0  0  0
    0.4593   62.2359   78.6134 C   0  0  0  0  0  0  0  0  0  0  0  0
   -0.8522   63.5723   76.8856 C   0  0  0  0  0  0  0  0  0  0  0  0
   -0.2286   63.5975   78.2551 C   0  0  0  0  0  0  0  0  0  0  0  0
    2.5260   66.4961   84.1238 S   0  0  0  0  0  0  0  0  0  0  0  0
    3.0974   66.3481   82.9430 O   0  0  0  0  0  0  0  0  0  0  0  0
    1.8125   67.5929   84.0226 O   0  0  0  0  0  0  0  0  0  0  0  0
    3.5675   66.5493   85.3243 N   0  0  0  0  0  0  0  0  0  0  0  0
    4.4603   67.8507   85.3761 C   0  0  0  0  0  0  0  0  0  0  0  0
    5.7171   67.8824   84.4851 C   0  0  0  0  0  0  0  0  0  0  0  0
    6.4661   66.5876   84.3490 N   0  0  0  0  0  0  0  0  0  0  0  0
    7.8063   66.7510   84.9936 C   0  0  0  0  0  0  0  0  0  0  0  0
    5.8202   65.2938   84.8504 C   0  0  0  0  0  0  0  0  0  0  0  0
    4.4872   65.3983   85.6843 C   0  0  0  0  0  0  0  0  0  0  0  0
    6.4957   66.4380   83.3405 H   0  0  0  0  0  0  0  0  0  0  0  0
   -1.1124   62.0232   85.9189 O   0  0  0  0  0  0  0  0  0  0  0  0
   -1.8486   61.9444   87.1559 C   0  0  0  0  0  0  0  0  0  0  0  0
   -2.9398   62.9945   87.0306 C   0  0  0  0  0  0  0  0  0  0  0  0
 20 21  1  0  0  0
 21 19  1  0  0  0
 19  7  1  0  0  0
  7 17  1  0  0  0
  7  8  2  0  0  0
  8  9  1  0  0  0
  9 10  1  0  0  0
 11  9  1  0  0  0
 11 12  1  0  0  0
 12 13  2  0  0  0
 14 12  1  0  0  0
 15 14  2  0  0  0
 16 17  1  0  0  0
 16 15  1  0  0  0
 16 18  1  0  0  0
 17 11  2  0  0  0
  1 15  1  0  0  0
  1  6  1  0  0  0
  2  1  2  0  0  0
  3  2  1  0  0  0
  3  4  2  0  0  0
  4  5  1  0  0  0
  5  6  2  0  0  0
  6 33  1  0  0  0
 33 34  1  0  0  0
 34 35  1  0  0  0
 22 24  2  0  0  0
 22 25  1  0  0  0
 22  3  1  0  0  0
 23 22  2  0  0  0
 25 26  1  0  0  0
 27 26  1  0  0  0
 28 29  1  0  0  0
 28 27  1  0  0  0
 28 32  1  0  0  0
 30 28  1  0  0  0
 30 31  1  0  0  0
 31 25  1  0  0  0
M  CHG 1  28   1
M  END
> <minimizedAffinity>
-8.72514

$$$$
/home/hjpark/lecture_drug1/0905_agent/pde5_harness/sample_run/structures/work/ligand_ref.pdb


 35 38  0  0  0  0  0  0  0  0999 V2000
    0.2633   64.7805   82.2040 C   0  0  0  0  0  0  0  0  0  0  0  0
    0.4325   65.9277   81.3355 C   0  0  0  0  0  0  0  0  0  0  0  0
    1.0667   67.1528   81.8174 C   0  0  0  0  0  0  0  0  0  0  0  0
    1.5378   67.1727   83.2388 C   0  0  0  0  0  0  0  0  0  0  0  0
    1.3762   66.0283   84.1296 C   0  0  0  0  0  0  0  0  0  0  0  0
    0.7266   64.7993   83.6349 C   0  0  0  0  0  0  0  0  0  0  0  0
   -0.8399   61.4468   78.6393 C   0  0  0  0  0  0  0  0  0  0  0  0
   -1.7390   60.3732   78.6847 N   0  0  0  0  0  0  0  0  0  0  0  0
   -2.3245   60.3349   79.9171 N   0  0  0  0  0  0  0  0  0  0  0  0
   -3.3203   59.3270   80.2914 C   0  0  0  0  0  0  0  0  0  0  0  0
   -1.8035   61.3719   80.6488 C   0  0  0  0  0  0  0  0  0  0  0  0
   -2.0149   61.8451   81.9878 C   0  0  0  0  0  0  0  0  0  0  0  0
   -2.7848   61.3224   82.7605 O   0  0  0  0  0  0  0  0  0  0  0  0
   -1.3018   62.9617   82.4190 N   0  0  0  0  0  0  0  0  0  0  0  0
   -0.3807   63.6551   81.6213 C   0  0  0  0  0  0  0  0  0  0  0  0
   -0.1380   63.2286   80.3104 N   0  0  0  0  0  0  0  0  0  0  0  0
   -0.8608   62.0900   79.8539 C   0  0  0  0  0  0  0  0  0  0  0  0
    0.5046   63.6957   79.7291 H   0  0  0  0  0  0  0  0  0  0  0  0
   -0.0001   61.8115   77.4579 C   0  0  0  0  0  0  0  0  0  0  0  0
   -0.6739   64.1895   76.8392 C   0  0  0  0  0  0  0  0  0  0  0  0
   -0.9577   62.7276   76.6215 C   0  0  0  0  0  0  0  0  0  0  0  0
    1.2335   68.4344   80.8723 S   0  0  0  0  0  0  0  0  0  0  0  0
    1.8211   68.2269   79.7085 O   0  0  0  0  0  0  0  0  0  0  0  0
    0.0476   68.9115   80.5756 O   0  0  0  0  0  0  0  0  0  0  0  0
    2.0602   69.3961   81.8317 N   0  0  0  0  0  0  0  0  0  0  0  0
    1.3852   70.7947   82.1176 C   0  0  0  0  0  0  0  0  0  0  0  0
    1.5941   71.9078   81.0728 C   0  0  0  0  0  0  0  0  0  0  0  0
    2.9474   71.9621   80.4234 N   0  0  0  0  0  0  0  0  0  0  0  0
    3.6185   73.2316   80.8429 C   0  0  0  0  0  0  0  0  0  0  0  0
    3.9162   70.7928   80.6152 C   0  0  0  0  0  0  0  0  0  0  0  0
    3.5412   69.6752   81.6609 C   0  0  0  0  0  0  0  0  0  0  0  0
    2.7330   71.9044   79.4279 H   0  0  0  0  0  0  0  0  0  0  0  0
    0.4998   63.6226   84.4466 O   0  0  0  0  0  0  0  0  0  0  0  0
   -0.0441   63.6305   85.7817 C   0  0  0  0  0  0  0  0  0  0  0  0
   -0.7653   62.3000   85.9193 C   0  0  0  0  0  0  0  0  0  0  0  0
 20 21  1  0  0  0
 21 19  1  0  0  0
 19  7  1  0  0  0
  7 17  1  0  0  0
  7  8  2  0  0  0
  8  9  1  0  0  0
  9 10  1  0  0  0
 11  9  1  0  0  0
 11 12  1  0  0  0
 12 13  2  0  0  0
 14 12  1  0  0  0
 15 14  2  0  0  0
 16 17  1  0  0  0
 16 15  1  0  0  0
 16 18  1  0  0  0
 17 11  2  0  0  0
  1 15  1  0  0  0
  1  6  1  0  0  0
  2  1  2  0  0  0
  3  2  1  0  0  0
  3  4  2  0  0  0
  4  5  1  0  0  0
  5  6  2  0  0  0
  6 33  1  0  0  0
 33 34  1  0  0  0
 34 35  1  0  0  0
 22 24  2  0  0  0
 22 25  1  0  0  0
 22  3  1  0  0  0
 23 22  2  0  0  0
 25 26  1  0  0  0
 27 26  1  0  0  0
 28 29  1  0  0  0
 28 27  1  0  0  0
 28 32  1  0  0  0
 30 28  1  0  0  0
 30 31  1  0  0  0
 31 25  1  0  0  0
M  CHG 1  28   1
M  END
> <minimizedAffinity>
-8.71847

$$$$
/home/hjpark/lecture_drug1/0905_agent/pde5_harness/sample_run/structures/work/ligand_ref.pdb


 35 38  0  0  0  0  0  0  0  0999 V2000
    0.8653   65.5401   82.7930 C   0  0  0  0  0  0  0  0  0  0  0  0
    1.6897   66.4313   83.5835 C   0  0  0  0  0  0  0  0  0  0  0  0
    2.5665   67.4122   82.9475 C   0  0  0  0  0  0  0  0  0  0  0  0
    2.5742   67.4625   81.4508 C   0  0  0  0  0  0  0  0  0  0  0  0
    1.7520   66.5734   80.6367 C   0  0  0  0  0  0  0  0  0  0  0  0
    0.8768   65.5808   81.2894 C   0  0  0  0  0  0  0  0  0  0  0  0
   -2.5003   61.9045   83.4956 C   0  0  0  0  0  0  0  0  0  0  0  0
   -2.9463   61.3366   84.6962 N   0  0  0  0  0  0  0  0  0  0  0  0
   -2.3000   61.9354   85.7388 N   0  0  0  0  0  0  0  0  0  0  0  0
   -2.5418   61.5701   87.1373 C   0  0  0  0  0  0  0  0  0  0  0  0
   -1.4511   62.8734   85.2080 C   0  0  0  0  0  0  0  0  0  0  0  0
   -0.5213   63.8059   85.7802 C   0  0  0  0  0  0  0  0  0  0  0  0
   -0.3315   63.9049   86.9707 O   0  0  0  0  0  0  0  0  0  0  0  0
    0.1959   64.6398   84.9250 N   0  0  0  0  0  0  0  0  0  0  0  0
    0.0675   64.6221   83.5290 C   0  0  0  0  0  0  0  0  0  0  0  0
   -0.8234   63.7273   82.9249 N   0  0  0  0  0  0  0  0  0  0  0  0
   -1.5656   62.8698   83.7857 C   0  0  0  0  0  0  0  0  0  0  0  0
   -0.9321   63.6923   81.9471 H   0  0  0  0  0  0  0  0  0  0  0  0
   -2.9701   61.5072   82.1334 C   0  0  0  0  0  0  0  0  0  0  0  0
   -1.0650   61.0600   80.5019 C   0  0  0  0  0  0  0  0  0  0  0  0
   -1.8561   60.5123   81.6591 C   0  0  0  0  0  0  0  0  0  0  0  0
    3.5007   68.3826   83.8130 S   0  0  0  0  0  0  0  0  0  0  0  0
    3.7757   69.5570   83.2763 O   0  0  0  0  0  0  0  0  0  0  0  0
    2.9049   68.6579   84.9493 O   0  0  0  0  0  0  0  0  0  0  0  0
    4.7827   67.4603   83.9990 N   0  0  0  0  0  0  0  0  0  0  0  0
    4.4765   65.9674   84.4123 C   0  0  0  0  0  0  0  0  0  0  0  0
    4.2415   65.6813   85.9080 C   0  0  0  0  0  0  0  0  0  0  0  0
    5.0890   66.4600   86.8731 N   0  0  0  0  0  0  0  0  0  0  0  0
    5.9970   65.5027   87.5782 C   0  0  0  0  0  0  0  0  0  0  0  0
    5.9082   67.6466   86.3600 C   0  0  0  0  0  0  0  0  0  0  0  0
    6.0001   67.8741   84.8033 C   0  0  0  0  0  0  0  0  0  0  0  0
    4.4024   66.9151   87.4748 H   0  0  0  0  0  0  0  0  0  0  0  0
    0.0435   64.6414   80.5697 O   0  0  0  0  0  0  0  0  0  0  0  0
   -0.2031   64.6731   79.1497 C   0  0  0  0  0  0  0  0  0  0  0  0
    0.7701   63.6660   78.5599 C   0  0  0  0  0  0  0  0  0  0  0  0
 20 21  1  0  0  0
 21 19  1  0  0  0
 19  7  1  0  0  0
  7 17  1  0  0  0
  7  8  2  0  0  0
  8  9  1  0  0  0
  9 10  1  0  0  0
 11  9  1  0  0  0
 11 12  1  0  0  0
 12 13  2  0  0  0
 14 12  1  0  0  0
 15 14  2  0  0  0
 16 17  1  0  0  0
 16 15  1  0  0  0
 16 18  1  0  0  0
 17 11  2  0  0  0
  1 15  1  0  0  0
  1  6  1  0  0  0
  2  1  2  0  0  0
  3  2  1  0  0  0
  3  4  2  0  0  0
  4  5  1  0  0  0
  5  6  2  0  0  0
  6 33  1  0  0  0
 33 34  1  0  0  0
 34 35  1  0  0  0
 22 24  2  0  0  0
 22 25  1  0  0  0
 22  3  1  0  0  0
 23 22  2  0  0  0
 25 26  1  0  0  0
 27 26  1  0  0  0
 28 29  1  0  0  0
 28 27  1  0  0  0
 28 32  1  0  0  0
 30 28  1  0  0  0
 30 31  1  0  0  0
 31 25  1  0  0  0
M  CHG 1  28   1
M  END
> <minimizedAffinity>
-8.64269

$$$$
/home/hjpark/lecture_drug1/0905_agent/pde5_harness/sample_run/structures/work/ligand_ref.pdb


 35 38  0  0  0  0  0  0  0  0999 V2000
    0.5247   64.6463   83.0926 C   0  0  0  0  0  0  0  0  0  0  0  0
    1.5806   65.6379   83.1218 C   0  0  0  0  0  0  0  0  0  0  0  0
    2.1210   66.1286   84.3876 C   0  0  0  0  0  0  0  0  0  0  0  0
    1.5450   65.5631   85.6491 C   0  0  0  0  0  0  0  0  0  0  0  0
    0.4811   64.5645   85.6411 C   0  0  0  0  0  0  0  0  0  0  0  0
   -0.0631   64.0825   84.3571 C   0  0  0  0  0  0  0  0  0  0  0  0
   -1.5842   61.6958   79.6451 C   0  0  0  0  0  0  0  0  0  0  0  0
   -1.7443   61.9207   78.2715 N   0  0  0  0  0  0  0  0  0  0  0  0
   -1.2196   63.1408   77.9563 N   0  0  0  0  0  0  0  0  0  0  0  0
   -1.2251   63.6786   76.5931 C   0  0  0  0  0  0  0  0  0  0  0  0
   -0.7317   63.6871   79.1163 C   0  0  0  0  0  0  0  0  0  0  0  0
   -0.0779   64.9263   79.4303 C   0  0  0  0  0  0  0  0  0  0  0  0
    0.1641   65.7750   78.6031 O   0  0  0  0  0  0  0  0  0  0  0  0
    0.2994   65.1634   80.7504 N   0  0  0  0  0  0  0  0  0  0  0  0
    0.0752   64.2615   81.8000 C   0  0  0  0  0  0  0  0  0  0  0  0
   -0.5626   63.0422   81.5435 N   0  0  0  0  0  0  0  0  0  0  0  0
   -0.9524   62.7839   80.1986 C   0  0  0  0  0  0  0  0  0  0  0  0
   -0.7343   62.3913   82.2618 H   0  0  0  0  0  0  0  0  0  0  0  0
   -2.0392   60.4712   80.3714 C   0  0  0  0  0  0  0  0  0  0  0  0
   -3.3025   60.4032   82.5829 C   0  0  0  0  0  0  0  0  0  0  0  0
   -3.2629   60.9937   81.1992 C   0  0  0  0  0  0  0  0  0  0  0  0
    3.2692   67.2437   84.4293 S   0  0  0  0  0  0  0  0  0  0  0  0
    3.8362   67.5389   83.2743 O   0  0  0  0  0  0  0  0  0  0  0  0
    2.7598   68.3745   84.8583 O   0  0  0  0  0  0  0  0  0  0  0  0
    4.2731   66.5869   85.4732 N   0  0  0  0  0  0  0  0  0  0  0  0
    5.2483   67.6010   86.1900 C   0  0  0  0  0  0  0  0  0  0  0  0
    6.5322   68.0001   85.4372 C   0  0  0  0  0  0  0  0  0  0  0  0
    7.1975   66.9150   84.6396 N   0  0  0  0  0  0  0  0  0  0  0  0
    8.5243   66.6197   85.2645 C   0  0  0  0  0  0  0  0  0  0  0  0
    6.4513   65.6010   84.3967 C   0  0  0  0  0  0  0  0  0  0  0  0
    5.1022   65.3531   85.1725 C   0  0  0  0  0  0  0  0  0  0  0  0
    7.2493   67.3112   83.7011 H   0  0  0  0  0  0  0  0  0  0  0  0
   -1.1324   63.1134   84.2458 O   0  0  0  0  0  0  0  0  0  0  0  0
   -1.4194   62.0831   85.2125 C   0  0  0  0  0  0  0  0  0  0  0  0
   -2.7063   62.5264   85.8881 C   0  0  0  0  0  0  0  0  0  0  0  0
 20 21  1  0  0  0
 21 19  1  0  0  0
 19  7  1  0  0  0
  7 17  1  0  0  0
  7  8  2  0  0  0
  8  9  1  0  0  0
  9 10  1  0  0  0
 11  9  1  0  0  0
 11 12  1  0  0  0
 12 13  2  0  0  0
 14 12  1  0  0  0
 15 14  2  0  0  0
 16 17  1  0  0  0
 16 15  1  0  0  0
 16 18  1  0  0  0
 17 11  2  0  0  0
  1 15  1  0  0  0
  1  6  1  0  0  0
  2  1  2  0  0  0
  3  2  1  0  0  0
  3  4  2  0  0  0
  4  5  1  0  0  0
  5  6  2  0  0  0
  6 33  1  0  0  0
 33 34  1  0  0  0
 34 35  1  0  0  0
 22 24  2  0  0  0
 22 25  1  0  0  0
 22  3  1  0  0  0
 23 22  2  0  0  0
 25 26  1  0  0  0
 27 26  1  0  0  0
 28 29  1  0  0  0
 28 27  1  0  0  0
 28 32  1  0  0  0
 30 28  1  0  0  0
 30 31  1  0  0  0
 31 25  1  0  0  0
M  CHG 1  28   1
M  END
> <minimizedAffinity>
-8.63487

$$$$
/home/hjpark/lecture_drug1/0905_agent/pde5_harness/sample_run/structures/work/ligand_ref.pdb


 35 38  0  0  0  0  0  0  0  0999 V2000
    0.9469   65.9328   81.9292 C   0  0  0  0  0  0  0  0  0  0  0  0
    1.6273   67.1023   82.4473 C   0  0  0  0  0  0  0  0  0  0  0  0
    2.2337   68.0829   81.5495 C   0  0  0  0  0  0  0  0  0  0  0  0
    2.1192   67.8337   80.0772 C   0  0  0  0  0  0  0  0  0  0  0  0
    1.4388   66.6620   79.5355 C   0  0  0  0  0  0  0  0  0  0  0  0
    0.8376   65.6738   80.4516 C   0  0  0  0  0  0  0  0  0  0  0  0
   -1.9185   62.2362   83.7076 C   0  0  0  0  0  0  0  0  0  0  0  0
   -2.0188   61.7518   85.0185 N   0  0  0  0  0  0  0  0  0  0  0  0
   -1.1710   62.4597   85.8205 N   0  0  0  0  0  0  0  0  0  0  0  0
   -1.0367   62.2015   87.2568 C   0  0  0  0  0  0  0  0  0  0  0  0
   -0.5371   63.3839   85.0292 C   0  0  0  0  0  0  0  0  0  0  0  0
    0.4487   64.3967   85.2827 C   0  0  0  0  0  0  0  0  0  0  0  0
    0.9213   64.6009   86.3772 O   0  0  0  0  0  0  0  0  0  0  0  0
    0.8810   65.1852   84.2185 N   0  0  0  0  0  0  0  0  0  0  0  0
    0.4121   65.0475   82.9045 C   0  0  0  0  0  0  0  0  0  0  0  0
   -0.5461   64.0712   82.6078 N   0  0  0  0  0  0  0  0  0  0  0  0
   -0.9999   63.2586   83.6853 C   0  0  0  0  0  0  0  0  0  0  0  0
   -0.8913   63.9515   81.6937 H   0  0  0  0  0  0  0  0  0  0  0  0
   -2.6867   61.7097   82.5386 C   0  0  0  0  0  0  0  0  0  0  0  0
   -1.1267   61.0918   80.6213 C   0  0  0  0  0  0  0  0  0  0  0  0
   -1.7103   60.6434   81.9341 C   0  0  0  0  0  0  0  0  0  0  0  0
    3.0105   69.3640   82.1140 S   0  0  0  0  0  0  0  0  0  0  0  0
    3.9447   69.1275   83.0162 O   0  0  0  0  0  0  0  0  0  0  0  0
    3.6336   69.9630   81.1265 O   0  0  0  0  0  0  0  0  0  0  0  0
    1.7921   70.2160   82.6785 N   0  0  0  0  0  0  0  0  0  0  0  0
    0.4729   70.1482   81.8134 C   0  0  0  0  0  0  0  0  0  0  0  0
    0.3734   71.0926   80.5999 C   0  0  0  0  0  0  0  0  0  0  0  0
    0.9633   72.4627   80.7760 N   0  0  0  0  0  0  0  0  0  0  0  0
   -0.1487   73.4622   80.7261 C   0  0  0  0  0  0  0  0  0  0  0  0
    1.8422   72.7473   81.9962 C   0  0  0  0  0  0  0  0  0  0  0  0
    1.9197   71.6576   83.1320 C   0  0  0  0  0  0  0  0  0  0  0  0
    1.6307   72.5318   80.0077 H   0  0  0  0  0  0  0  0  0  0  0  0
    0.1638   64.4704   80.0124 O   0  0  0  0  0  0  0  0  0  0  0  0
   -0.1822   64.1675   78.6461 C   0  0  0  0  0  0  0  0  0  0  0  0
    0.8750   63.1785   78.1838 C   0  0  0  0  0  0  0  0  0  0  0  0
 20 21  1  0  0  0
 21 19  1  0  0  0
 19  7  1  0  0  0
  7 17  1  0  0  0
  7  8  2  0  0  0
  8  9  1  0  0  0
  9 10  1  0  0  0
 11  9  1  0  0  0
 11 12  1  0  0  0
 12 13  2  0  0  0
 14 12  1  0  0  0
 15 14  2  0  0  0
 16 17  1  0  0  0
 16 15  1  0  0  0
 16 18  1  0  0  0
 17 11  2  0  0  0
  1 15  1  0  0  0
  1  6  1  0  0  0
  2  1  2  0  0  0
  3  2  1  0  0  0
  3  4  2  0  0  0
  4  5  1  0  0  0
  5  6  2  0  0  0
  6 33  1  0  0  0
 33 34  1  0  0  0
 34 35  1  0  0  0
 22 24  2  0  0  0
 22 25  1  0  0  0
 22  3  1  0  0  0
 23 22  2  0  0  0
 25 26  1  0  0  0
 27 26  1  0  0  0
 28 29  1  0  0  0
 28 27  1  0  0  0
 28 32  1  0  0  0
 30 28  1  0  0  0
 30 31  1  0  0  0
 31 25  1  0  0  0
M  CHG 1  28   1
M  END
> <minimizedAffinity>
-8.59835

$$$$
/home/hjpark/lecture_drug1/0905_agent/pde5_harness/sample_run/structures/work/ligand_ref.pdb


 35 38  0  0  0  0  0  0  0  0999 V2000
    1.2478   66.2477   81.9676 C   0  0  0  0  0  0  0  0  0  0  0  0
    1.7120   67.4481   81.3023 C   0  0  0  0  0  0  0  0  0  0  0  0
    2.3494   68.5285   82.0518 C   0  0  0  0  0  0  0  0  0  0  0  0
    2.5077   68.3432   83.5294 C   0  0  0  0  0  0  0  0  0  0  0  0
    2.0465   67.1424   84.2182 C   0  0  0  0  0  0  0  0  0  0  0  0
    1.3963   66.0613   83.4528 C   0  0  0  0  0  0  0  0  0  0  0  0
   -0.7490   61.8234   80.7526 C   0  0  0  0  0  0  0  0  0  0  0  0
   -1.2696   61.3994   79.5228 N   0  0  0  0  0  0  0  0  0  0  0  0
   -1.1652   62.4182   78.6205 N   0  0  0  0  0  0  0  0  0  0  0  0
   -1.6195   62.2983   77.2324 C   0  0  0  0  0  0  0  0  0  0  0  0
   -0.5856   63.4795   79.2686 C   0  0  0  0  0  0  0  0  0  0  0  0
   -0.2221   64.8088   78.8656 C   0  0  0  0  0  0  0  0  0  0  0  0
   -0.4030   65.2342   77.7478 O   0  0  0  0  0  0  0  0  0  0  0  0
    0.3703   65.6501   79.8050 N   0  0  0  0  0  0  0  0  0  0  0  0
    0.6321   65.2772   81.1309 C   0  0  0  0  0  0  0  0  0  0  0  0
    0.2916   63.9929   81.5713 N   0  0  0  0  0  0  0  0  0  0  0  0
   -0.3126   63.1203   80.6222 C   0  0  0  0  0  0  0  0  0  0  0  0
    0.4625   63.7054   82.4972 H   0  0  0  0  0  0  0  0  0  0  0  0
   -0.6934   60.9902   81.9923 C   0  0  0  0  0  0  0  0  0  0  0  0
   -3.0888   60.3501   82.5785 C   0  0  0  0  0  0  0  0  0  0  0  0
   -2.0125   61.3899   82.7380 C   0  0  0  0  0  0  0  0  0  0  0  0
    2.8411   69.8697   81.3286 S   0  0  0  0  0  0  0  0  0  0  0  0
    4.1431   69.9887   81.1457 O   0  0  0  0  0  0  0  0  0  0  0  0
    2.3207   69.9290   80.1253 O   0  0  0  0  0  0  0  0  0  0  0  0
    2.2412   70.9658   82.3122 N   0  0  0  0  0  0  0  0  0  0  0  0
    0.7488   71.3857   82.0130 C   0  0  0  0  0  0  0  0  0  0  0  0
    0.5186   72.4542   80.9269 C   0  0  0  0  0  0  0  0  0  0  0  0
    1.5291   73.5637   80.8637 N   0  0  0  0  0  0  0  0  0  0  0  0
    0.8469   74.8413   81.2384 C   0  0  0  0  0  0  0  0  0  0  0  0
    2.8309   73.4357   81.6583 C   0  0  0  0  0  0  0  0  0  0  0  0
    2.9681   72.2447   82.6812 C   0  0  0  0  0  0  0  0  0  0  0  0
    1.8595   73.5261   79.8994 H   0  0  0  0  0  0  0  0  0  0  0  0
    0.8852   64.8449   84.0476 O   0  0  0  0  0  0  0  0  0  0  0  0
    0.6060   64.6635   85.4503 C   0  0  0  0  0  0  0  0  0  0  0  0
   -0.3033   63.4477   85.5153 C   0  0  0  0  0  0  0  0  0  0  0  0
 20 21  1  0  0  0
 21 19  1  0  0  0
 19  7  1  0  0  0
  7 17  1  0  0  0
  7  8  2  0  0  0
  8  9  1  0  0  0
  9 10  1  0  0  0
 11  9  1  0  0  0
 11 12  1  0  0  0
 12 13  2  0  0  0
 14 12  1  0  0  0
 15 14  2  0  0  0
 16 17  1  0  0  0
 16 15  1  0  0  0
 16 18  1  0  0  0
 17 11  2  0  0  0
  1 15  1  0  0  0
  1  6  1  0  0  0
  2  1  2  0  0  0
  3  2  1  0  0  0
  3  4  2  0  0  0
  4  5  1  0  0  0
  5  6  2  0  0  0
  6 33  1  0  0  0
 33 34  1  0  0  0
 34 35  1  0  0  0
 22 24  2  0  0  0
 22 25  1  0  0  0
 22  3  1  0  0  0
 23 22  2  0  0  0
 25 26  1  0  0  0
 27 26  1  0  0  0
 28 29  1  0  0  0
 28 27  1  0  0  0
 28 32  1  0  0  0
 30 28  1  0  0  0
 30 31  1  0  0  0
 31 25  1  0  0  0
M  CHG 1  28   1
M  END
> <minimizedAffinity>
-8.55981

$$$$
/home/hjpark/lecture_drug1/0905_agent/pde5_harness/sample_run/structures/work/ligand_ref.pdb


 35 38  0  0  0  0  0  0  0  0999 V2000
    1.0163   65.5414   83.1076 C   0  0  0  0  0  0  0  0  0  0  0  0
    0.6018   64.9753   81.8401 C   0  0  0  0  0  0  0  0  0  0  0  0
    0.8786   65.6613   80.5799 C   0  0  0  0  0  0  0  0  0  0  0  0
    1.6102   66.9662   80.6511 C   0  0  0  0  0  0  0  0  0  0  0  0
    2.0355   67.5533   81.9174 C   0  0  0  0  0  0  0  0  0  0  0  0
    1.7431   66.8560   83.1845 C   0  0  0  0  0  0  0  0  0  0  0  0
   -1.7254   62.4679   85.9494 C   0  0  0  0  0  0  0  0  0  0  0  0
   -1.4856   62.0297   87.2584 N   0  0  0  0  0  0  0  0  0  0  0  0
   -0.3186   62.5792   87.7049 N   0  0  0  0  0  0  0  0  0  0  0  0
    0.2186   62.3214   89.0438 C   0  0  0  0  0  0  0  0  0  0  0  0
    0.1798   63.3579   86.6913 C   0  0  0  0  0  0  0  0  0  0  0  0
    1.3534   64.1734   86.5528 C   0  0  0  0  0  0  0  0  0  0  0  0
    2.1769   64.3021   87.4293 O   0  0  0  0  0  0  0  0  0  0  0  0
    1.5538   64.8523   85.3527 N   0  0  0  0  0  0  0  0  0  0  0  0
    0.6754   64.7851   84.2621 C   0  0  0  0  0  0  0  0  0  0  0  0
   -0.4800   63.9997   84.3485 N   0  0  0  0  0  0  0  0  0  0  0  0
   -0.7003   63.3013   85.5695 C   0  0  0  0  0  0  0  0  0  0  0  0
   -1.1129   63.9330   83.5974 H   0  0  0  0  0  0  0  0  0  0  0  0
   -2.9036   62.0764   85.1172 C   0  0  0  0  0  0  0  0  0  0  0  0
   -2.9887   60.6671   82.9964 C   0  0  0  0  0  0  0  0  0  0  0  0
   -2.2556   61.7605   83.7258 C   0  0  0  0  0  0  0  0  0  0  0  0
    0.4006   65.0560   79.1769 S   0  0  0  0  0  0  0  0  0  0  0  0
   -0.6474   65.6342   78.6201 O   0  0  0  0  0  0  0  0  0  0  0  0
    1.3672   65.1829   78.2983 O   0  0  0  0  0  0  0  0  0  0  0  0
    0.1393   63.5424   79.5884 N   0  0  0  0  0  0  0  0  0  0  0  0
    0.8415   62.4695   78.6670 C   0  0  0  0  0  0  0  0  0  0  0  0
    0.1226   62.0793   77.3610 C   0  0  0  0  0  0  0  0  0  0  0  0
   -1.3755   61.9945   77.4287 N   0  0  0  0  0  0  0  0  0  0  0  0
   -1.7744   60.5677   77.2206 C   0  0  0  0  0  0  0  0  0  0  0  0
   -2.1009   62.5463   78.6583 C   0  0  0  0  0  0  0  0  0  0  0  0
   -1.2371   62.9870   79.9005 C   0  0  0  0  0  0  0  0  0  0  0  0
   -1.6806   62.6320   76.6932 H   0  0  0  0  0  0  0  0  0  0  0  0
    2.1023   67.3679   84.4898 O   0  0  0  0  0  0  0  0  0  0  0  0
    3.2962   68.1205   84.7836 C   0  0  0  0  0  0  0  0  0  0  0  0
    4.4229   67.1017   84.7402 C   0  0  0  0  0  0  0  0  0  0  0  0
 20 21  1  0  0  0
 21 19  1  0  0  0
 19  7  1  0  0  0
  7 17  1  0  0  0
  7  8  2  0  0  0
  8  9  1  0  0  0
  9 10  1  0  0  0
 11  9  1  0  0  0
 11 12  1  0  0  0
 12 13  2  0  0  0
 14 12  1  0  0  0
 15 14  2  0  0  0
 16 17  1  0  0  0
 16 15  1  0  0  0
 16 18  1  0  0  0
 17 11  2  0  0  0
  1 15  1  0  0  0
  1  6  1  0  0  0
  2  1  2  0  0  0
  3  2  1  0  0  0
  3  4  2  0  0  0
  4  5  1  0  0  0
  5  6  2  0  0  0
  6 33  1  0  0  0
 33 34  1  0  0  0
 34 35  1  0  0  0
 22 24  2  0  0  0
 22 25  1  0  0  0
 22  3  1  0  0  0
 23 22  2  0  0  0
 25 26  1  0  0  0
 27 26  1  0  0  0
 28 29  1  0  0  0
 28 27  1  0  0  0
 28 32  1  0  0  0
 30 28  1  0  0  0
 30 31  1  0  0  0
 31 25  1  0  0  0
M  CHG 1  28   1
M  END
> <minimizedAffinity>
-8.55657

$$$$
/home/hjpark/lecture_drug1/0905_agent/pde5_harness/sample_run/structures/work/ligand_ref.pdb


 35 38  0  0  0  0  0  0  0  0999 V2000
    0.5216   65.6513   81.4830 C   0  0  0  0  0  0  0  0  0  0  0  0
    1.1445   66.1280   82.7010 C   0  0  0  0  0  0  0  0  0  0  0  0
    1.9456   67.3500   82.7114 C   0  0  0  0  0  0  0  0  0  0  0  0
    2.0918   68.0900   81.4176 C   0  0  0  0  0  0  0  0  0  0  0  0
    1.4731   67.6263   80.1801 C   0  0  0  0  0  0  0  0  0  0  0  0
    0.6734   66.3862   80.1794 C   0  0  0  0  0  0  0  0  0  0  0  0
   -1.4872   61.3218   79.9801 C   0  0  0  0  0  0  0  0  0  0  0  0
   -2.2753   60.4176   80.7043 N   0  0  0  0  0  0  0  0  0  0  0  0
   -2.4422   60.8904   81.9738 N   0  0  0  0  0  0  0  0  0  0  0  0
   -3.2219   60.1779   82.9897 C   0  0  0  0  0  0  0  0  0  0  0  0
   -1.7670   62.0817   82.0576 C   0  0  0  0  0  0  0  0  0  0  0  0
   -1.5695   63.0375   83.1107 C   0  0  0  0  0  0  0  0  0  0  0  0
   -2.0328   62.9049   84.2202 O   0  0  0  0  0  0  0  0  0  0  0  0
   -0.8102   64.1746   82.8432 N   0  0  0  0  0  0  0  0  0  0  0  0
   -0.2194   64.4437   81.6006 C   0  0  0  0  0  0  0  0  0  0  0  0
   -0.3806   63.5392   80.5446 N   0  0  0  0  0  0  0  0  0  0  0  0
   -1.1560   62.3730   80.8015 C   0  0  0  0  0  0  0  0  0  0  0  0
    0.0247   63.7023   79.6623 H   0  0  0  0  0  0  0  0  0  0  0  0
   -1.0784   61.1498   78.5527 C   0  0  0  0  0  0  0  0  0  0  0  0
   -3.2356   62.1092   77.5949 C   0  0  0  0  0  0  0  0  0  0  0  0
   -2.4401   60.8545   77.8354 C   0  0  0  0  0  0  0  0  0  0  0  0
    2.6594   67.8695   84.0471 S   0  0  0  0  0  0  0  0  0  0  0  0
    2.8464   69.1732   84.1380 O   0  0  0  0  0  0  0  0  0  0  0  0
    1.9179   67.5580   85.0840 O   0  0  0  0  0  0  0  0  0  0  0  0
    4.0161   67.0418   83.9911 N   0  0  0  0  0  0  0  0  0  0  0  0
    3.9374   65.5891   84.6049 C   0  0  0  0  0  0  0  0  0  0  0  0
    4.0971   65.4565   86.1317 C   0  0  0  0  0  0  0  0  0  0  0  0
    5.0908   66.3798   86.7771 N   0  0  0  0  0  0  0  0  0  0  0  0
    6.2152   65.5545   87.3182 C   0  0  0  0  0  0  0  0  0  0  0  0
    5.6650   67.5445   85.9670 C   0  0  0  0  0  0  0  0  0  0  0  0
    5.3567   67.6047   84.4228 C   0  0  0  0  0  0  0  0  0  0  0  0
    4.5381   66.8612   87.4865 H   0  0  0  0  0  0  0  0  0  0  0  0
    0.0411   65.8334   79.0007 O   0  0  0  0  0  0  0  0  0  0  0  0
    0.7002   65.0116   78.0165 C   0  0  0  0  0  0  0  0  0  0  0  0
   -0.4065   64.5591   77.0785 C   0  0  0  0  0  0  0  0  0  0  0  0
 20 21  1  0  0  0
 21 19  1  0  0  0
 19  7  1  0  0  0
  7 17  1  0  0  0
  7  8  2  0  0  0
  8  9  1  0  0  0
  9 10  1  0  0  0
 11  9  1  0  0  0
 11 12  1  0  0  0
 12 13  2  0  0  0
 14 12  1  0  0  0
 15 14  2  0  0  0
 16 17  1  0  0  0
 16 15  1  0  0  0
 16 18  1  0  0  0
 17 11  2  0  0  0
  1 15  1  0  0  0
  1  6  1  0  0  0
  2  1  2  0  0  0
  3  2  1  0  0  0
  3  4  2  0  0  0
  4  5  1  0  0  0
  5  6  2  0  0  0
  6 33  1  0  0  0
 33 34  1  0  0  0
 34 35  1  0  0  0
 22 24  2  0  0  0
 22 25  1  0  0  0
 22  3  1  0  0  0
 23 22  2  0  0  0
 25 26  1  0  0  0
 27 26  1  0  0  0
 28 29  1  0  0  0
 28 27  1  0  0  0
 28 32  1  0  0  0
 30 28  1  0  0  0
 30 31  1  0  0  0
 31 25  1  0  0  0
M  CHG 1  28   1
M  END
> <minimizedAffinity>
-8.26106

$$$$
/home/hjpark/lecture_drug1/0905_agent/pde5_harness/sample_run/structures/work/ligand_ref.pdb


 35 38  0  0  0  0  0  0  0  0999 V2000
    0.9595   66.9049   81.2172 C   0  0  0  0  0  0  0  0  0  0  0  0
    0.6173   66.2481   79.9720 C   0  0  0  0  0  0  0  0  0  0  0  0
    0.2721   64.8287   79.9367 C   0  0  0  0  0  0  0  0  0  0  0  0
    0.2811   64.0841   81.2361 C   0  0  0  0  0  0  0  0  0  0  0  0
    0.6234   64.7269   82.5005 C   0  0  0  0  0  0  0  0  0  0  0  0
    0.9788   66.1588   82.5231 C   0  0  0  0  0  0  0  0  0  0  0  0
    0.1166   71.8297   80.9452 C   0  0  0  0  0  0  0  0  0  0  0  0
    1.0401   72.8764   80.8246 N   0  0  0  0  0  0  0  0  0  0  0  0
    2.3013   72.3555   80.7920 N   0  0  0  0  0  0  0  0  0  0  0  0
    3.5008   73.1884   80.6691 C   0  0  0  0  0  0  0  0  0  0  0  0
    2.1825   70.9924   80.8918 C   0  0  0  0  0  0  0  0  0  0  0  0
    3.1298   69.9137   80.9164 C   0  0  0  0  0  0  0  0  0  0  0  0
    4.3255   70.0814   80.8446 O   0  0  0  0  0  0  0  0  0  0  0  0
    2.6506   68.6100   81.0254 N   0  0  0  0  0  0  0  0  0  0  0  0
    1.2902   68.2838   81.1170 C   0  0  0  0  0  0  0  0  0  0  0  0
    0.3295   69.3017   81.1013 N   0  0  0  0  0  0  0  0  0  0  0  0
    0.8032   70.6396   80.9880 C   0  0  0  0  0  0  0  0  0  0  0  0
   -0.6321   69.1013   81.1659 H   0  0  0  0  0  0  0  0  0  0  0  0
   -1.3664   72.0001   81.0208 C   0  0  0  0  0  0  0  0  0  0  0  0
   -2.8454   72.4882   79.0045 C   0  0  0  0  0  0  0  0  0  0  0  0
   -1.6674   72.9559   79.8159 C   0  0  0  0  0  0  0  0  0  0  0  0
   -0.0813   64.0890   78.5614 S   0  0  0  0  0  0  0  0  0  0  0  0
   -0.8015   64.7798   77.6972 O   0  0  0  0  0  0  0  0  0  0  0  0
    1.0303   63.8010   77.9262 O   0  0  0  0  0  0  0  0  0  0  0  0
   -0.8274   62.7966   79.1111 N   0  0  0  0  0  0  0  0  0  0  0  0
   -0.2558   61.4218   78.5852 C   0  0  0  0  0  0  0  0  0  0  0  0
   -0.7452   60.9324   77.2085 C   0  0  0  0  0  0  0  0  0  0  0  0
   -2.1865   61.2021   76.8829 N   0  0  0  0  0  0  0  0  0  0  0  0
   -2.9005   59.8905   76.7929 C   0  0  0  0  0  0  0  0  0  0  0  0
   -2.9893   62.1527   77.7743 C   0  0  0  0  0  0  0  0  0  0  0  0
   -2.3363   62.6440   79.1217 C   0  0  0  0  0  0  0  0  0  0  0  0
   -2.1365   61.7190   76.0050 H   0  0  0  0  0  0  0  0  0  0  0  0
    1.3550   66.8790   83.7209 O   0  0  0  0  0  0  0  0  0  0  0  0
    2.6768   66.8951   84.2961 C   0  0  0  0  0  0  0  0  0  0  0  0
    2.9830   68.3643   84.5347 C   0  0  0  0  0  0  0  0  0  0  0  0
 20 21  1  0  0  0
 21 19  1  0  0  0
 19  7  1  0  0  0
  7 17  1  0  0  0
  7  8  2  0  0  0
  8  9  1  0  0  0
  9 10  1  0  0  0
 11  9  1  0  0  0
 11 12  1  0  0  0
 12 13  2  0  0  0
 14 12  1  0  0  0
 15 14  2  0  0  0
 16 17  1  0  0  0
 16 15  1  0  0  0
 16 18  1  0  0  0
 17 11  2  0  0  0
  1 15  1  0  0  0
  1  6  1  0  0  0
  2  1  2  0  0  0
  3  2  1  0  0  0
  3  4  2  0  0  0
  4  5  1  0  0  0
  5  6  2  0  0  0
  6 33  1  0  0  0
 33 34  1  0  0  0
 34 35  1  0  0  0
 22 24  2  0  0  0
 22 25  1  0  0  0
 22  3  1  0  0  0
 23 22  2  0  0  0
 25 26  1  0  0  0
 27 26  1  0  0  0
 28 29  1  0  0  0
 28 27  1  0  0  0
 28 32  1  0  0  0
 30 28  1  0  0  0
 30 31  1  0  0  0
 31 25  1  0  0  0
M  CHG 1  28   1
M  END
> <minimizedAffinity>
-8.17713

$$$$
