
     RDKit          3D

 59 63  0  0  0  0  0  0  0  0999 V2000
    0.4500    0.3565   -6.8985 C   0  0  0  0  0  0  0  0  0  0  0  0
   -0.1580   -0.1682   -5.6105 C   0  0  0  0  0  0  0  0  0  0  0  0
    0.3929    0.5548   -4.3848 C   0  0  0  0  0  0  0  0  0  0  0  0
   -0.2345   -0.0132   -3.2312 O   0  0  0  0  0  0  0  0  0  0  0  0
    0.1420    0.4431   -1.9934 C   0  0  0  0  0  0  0  0  0  0  0  0
    1.0513    1.4903   -1.8066 C   0  0  0  0  0  0  0  0  0  0  0  0
    1.3985    1.9168   -0.5200 C   0  0  0  0  0  0  0  0  0  0  0  0
    0.8490    1.3151    0.6163 C   0  0  0  0  0  0  0  0  0  0  0  0
    1.2415    1.7939    1.9423 C   0  0  0  0  0  0  0  0  0  0  0  0
    0.6572    1.4112    3.1325 C   0  0  0  0  0  0  0  0  0  0  0  0
    1.4130    2.2069    4.4464 S   0  0  0  0  0  0  0  0  0  0  0  0
    2.4693    3.0228    3.3546 C   0  0  0  0  0  0  0  0  0  0  0  0
    3.5019    3.9757    3.8163 C   0  0  0  0  0  0  0  0  0  0  0  0
    3.6895    4.3290    5.1633 C   0  0  0  0  0  0  0  0  0  0  0  0
    4.6847    5.2390    5.5391 C   0  0  0  0  0  0  0  0  0  0  0  0
    5.5107    5.8119    4.5761 C   0  0  0  0  0  0  0  0  0  0  0  0
    5.3428    5.4784    3.2360 C   0  0  0  0  0  0  0  0  0  0  0  0
    4.3483    4.5698    2.8622 C   0  0  0  0  0  0  0  0  0  0  0  0
    2.2694    2.7162    2.0853 N   0  0  0  0  0  0  0  0  0  0  0  0
   -0.0597    0.2659    0.4289 C   0  0  0  0  0  0  0  0  0  0  0  0
   -0.4256   -0.1788   -0.8607 C   0  0  0  0  0  0  0  0  0  0  0  0
   -1.4155   -1.3131   -0.9245 C   0  0  0  0  0  0  0  0  0  0  0  0
   -1.8781   -1.8479    0.1768 N   0  0  0  0  0  0  0  0  0  0  0  0
   -2.7590   -2.8585   -0.0293 C   0  0  0  0  0  0  0  0  0  0  0  0
   -3.1983   -3.3598   -1.2287 C   0  0  0  0  0  0  0  0  0  0  0  0
   -4.0946   -4.3965   -0.9127 C   0  0  0  0  0  0  0  0  0  0  0  0
   -4.8493   -5.2651   -1.8466 C   0  0  0  0  0  0  0  0  0  0  0  0
   -4.2142   -4.5467    0.4174 N   0  0  0  0  0  0  0  0  0  0  0  0
   -3.3921   -3.5977    0.9301 N   0  0  0  0  0  0  0  0  0  0  0  0
   -3.2596   -3.4575    2.3654 C   0  0  0  0  0  0  0  0  0  0  0  0
   -2.1379   -4.3150    2.9229 C   0  0  0  0  0  0  0  0  0  0  0  0
   -2.6962   -2.7783   -2.4368 C   0  0  0  0  0  0  0  0  0  0  0  0
   -3.0077   -3.1372   -3.5662 O   0  0  0  0  0  0  0  0  0  0  0  0
   -1.8046   -1.7520   -2.1896 N   0  0  0  0  0  0  0  0  0  0  0  0
    0.0410   -0.1836   -7.7581 H   0  0  0  0  0  0  0  0  0  0  0  0
    0.2310    1.4209   -7.0303 H   0  0  0  0  0  0  0  0  0  0  0  0
    1.5370    0.2262   -6.9014 H   0  0  0  0  0  0  0  0  0  0  0  0
   -1.2487   -0.0583   -5.6417 H   0  0  0  0  0  0  0  0  0  0  0  0
    0.0338   -1.2441   -5.5191 H   0  0  0  0  0  0  0  0  0  0  0  0
    0.1541    1.6227   -4.4526 H   0  0  0  0  0  0  0  0  0  0  0  0
    1.4787    0.4104   -4.3329 H   0  0  0  0  0  0  0  0  0  0  0  0
    1.5149    2.0093   -2.6399 H   0  0  0  0  0  0  0  0  0  0  0  0
    2.1097    2.7356   -0.4133 H   0  0  0  0  0  0  0  0  0  0  0  0
   -0.1579    0.7265    3.3130 H   0  0  0  0  0  0  0  0  0  0  0  0
    3.0689    3.9085    5.9503 H   0  0  0  0  0  0  0  0  0  0  0  0
    4.8120    5.4995    6.5869 H   0  0  0  0  0  0  0  0  0  0  0  0
    6.2828    6.5182    4.8697 H   0  0  0  0  0  0  0  0  0  0  0  0
    5.9833    5.9227    2.4785 H   0  0  0  0  0  0  0  0  0  0  0  0
    4.2348    4.3230    1.8074 H   0  0  0  0  0  0  0  0  0  0  0  0
   -0.4962   -0.2297    1.2922 H   0  0  0  0  0  0  0  0  0  0  0  0
   -5.4597   -4.6592   -2.5238 H   0  0  0  0  0  0  0  0  0  0  0  0
   -5.5175   -5.9473   -1.3108 H   0  0  0  0  0  0  0  0  0  0  0  0
   -4.1606   -5.8676   -2.4473 H   0  0  0  0  0  0  0  0  0  0  0  0
   -4.2183   -3.7351    2.8178 H   0  0  0  0  0  0  0  0  0  0  0  0
   -3.0837   -2.3995    2.5874 H   0  0  0  0  0  0  0  0  0  0  0  0
   -2.3092   -5.3758    2.7109 H   0  0  0  0  0  0  0  0  0  0  0  0
   -1.1734   -4.0384    2.4839 H   0  0  0  0  0  0  0  0  0  0  0  0
   -2.0674   -4.1904    4.0079 H   0  0  0  0  0  0  0  0  0  0  0  0
   -1.4164   -1.3060   -3.0103 H   0  0  0  0  0  0  0  0  0  0  0  0
  1  2  1  0
  2  3  1  0
  3  4  1  0
  4  5  1  0
  5  6  1  0
  6  7  2  0
  7  8  1  0
  8  9  1  0
  9 10  2  0
 10 11  1  0
 11 12  1  0
 12 13  1  0
 13 14  2  0
 14 15  1  0
 15 16  2  0
 16 17  1  0
 17 18  2  0
 12 19  2  0
  8 20  2  0
 20 21  1  0
 21 22  1  0
 22 23  2  0
 23 24  1  0
 24 25  2  0
 25 26  1  0
 26 27  1  0
 26 28  2  0
 28 29  1  0
 29 30  1  0
 30 31  1  0
 25 32  1  0
 32 33  2  0
 32 34  1  0
 21  5  2  0
 34 22  1  0
 19  9  1  0
 29 24  1  0
 18 13  1  0
  1 35  1  0
  1 36  1  0
  1 37  1  0
  2 38  1  0
  2 39  1  0
  3 40  1  0
  3 41  1  0
  6 42  1  0
  7 43  1  0
 10 44  1  0
 14 45  1  0
 15 46  1  0
 16 47  1  0
 17 48  1  0
 18 49  1  0
 20 50  1  0
 27 51  1  0
 27 52  1  0
 27 53  1  0
 30 54  1  0
 30 55  1  0
 31 56  1  0
 31 57  1  0
 31 58  1  0
 34 59  1  0
M  END
$$$$
