


 40 43  0  0  0  0  0  0  0  0999 V2000
    2.2974   67.1434   83.3449 C   0  0  0  0  0  0  0  0  0  0  0  0
    1.8461   67.9299   82.2759 C   0  0  0  0  0  0  0  0  0  0  0  0
    2.5547   69.0712   81.9116 C   0  0  0  0  0  0  0  0  0  0  0  0
    3.7332   69.3616   82.5685 C   0  0  0  0  0  0  0  0  0  0  0  0
    4.2113   68.6118   83.5913 N   0  0  0  0  0  0  0  0  0  0  0  0
    3.4912   67.5232   83.9630 C   0  0  0  0  0  0  0  0  0  0  0  0
   -1.0070   63.6027   82.7117 C   0  0  0  0  0  0  0  0  0  0  0  0
   -0.0966   64.3749   83.3845 C   0  0  0  0  0  0  0  0  0  0  0  0
    0.6788   65.4203   82.8850 N   0  0  0  0  0  0  0  0  0  0  0  0
    1.4418   65.9945   83.7738 C   0  0  0  0  0  0  0  0  0  0  0  0
    1.5121   65.6099   85.1078 N   0  0  0  0  0  0  0  0  0  0  0  0
    0.7737   64.5901   85.6799 C   0  0  0  0  0  0  0  0  0  0  0  0
    0.8676   64.3142   86.8723 O   0  0  0  0  0  0  0  0  0  0  0  0
   -0.0847   63.9438   84.7126 C   0  0  0  0  0  0  0  0  0  0  0  0
   -0.9377   62.9292   84.9033 N   0  0  0  0  0  0  0  0  0  0  0  0
   -1.4856   62.7367   83.6739 N   0  0  0  0  0  0  0  0  0  0  0  0
    2.1022   66.1121   85.7590 H   0  0  0  0  0  0  0  0  0  0  0  0
   -0.3415   63.1304   80.3530 C   0  0  0  0  0  0  0  0  0  0  0  0
   -1.4338   63.6369   81.2846 C   0  0  0  0  0  0  0  0  0  0  0  0
   -2.4409   61.6488   83.5235 C   0  0  0  0  0  0  0  0  0  0  0  0
   -1.9730   60.6074   82.5118 C   0  0  0  0  0  0  0  0  0  0  0  0
   -3.0657   60.0347   81.7846 O   0  0  0  0  0  0  0  0  0  0  0  0
   -2.9777   60.2514   80.3820 C   0  0  0  0  0  0  0  0  0  0  0  0
    1.9999   70.1153   80.6026 S   0  0  0  0  0  0  0  0  0  0  0  0
    0.9828   69.3837   79.8800 O   0  0  0  0  0  0  0  0  0  0  0  0
    3.1811   70.6183   79.9347 O   0  0  0  0  0  0  0  0  0  0  0  0
    1.2671   71.4083   81.4016 N   0  0  0  0  0  0  0  0  0  0  0  0
    1.7682   72.7812   81.1168 C   0  0  0  0  0  0  0  0  0  0  0  0
    0.8466   73.8537   81.7270 C   0  0  0  0  0  0  0  0  0  0  0  0
   -0.5545   73.8001   81.2571 N   0  0  0  0  0  0  0  0  0  0  0  0
   -0.9651   72.4152   80.9343 C   0  0  0  0  0  0  0  0  0  0  0  0
   -0.1882   71.3318   81.7061 C   0  0  0  0  0  0  0  0  0  0  0  0
   -0.8284   74.6923   80.1213 C   0  0  0  0  0  0  0  0  0  0  0  0
   -1.6593   74.0220   79.0324 C   0  0  0  0  0  0  0  0  0  0  0  0
    3.9513   66.7732   85.0262 O   0  0  0  0  0  0  0  0  0  0  0  0
    5.3310   66.9775   85.3809 C   0  0  0  0  0  0  0  0  0  0  0  0
    6.1122   65.8188   84.7586 C   0  0  0  0  0  0  0  0  0  0  0  0
    5.5019   66.9815   86.9111 C   0  0  0  0  0  0  0  0  0  0  0  0
    6.0706   65.7710   87.4125 O   0  0  0  0  0  0  0  0  0  0  0  0
    5.6223   65.4532   88.7243 C   0  0  0  0  0  0  0  0  0  0  0  0
 18 19  1  0  0  0
 19  7  1  0  0  0
  7  8  2  0  0  0
  8  9  1  0  0  0
  9 10  2  0  0  0
 10  1  1  0  0  0
  1  2  1  0  0  0
  2  3  2  0  0  0
  3 24  1  0  0  0
 24 25  2  0  0  0
 24 26  2  0  0  0
 24 27  1  0  0  0
 27 28  1  0  0  0
 28 29  1  0  0  0
 29 30  1  0  0  0
 30 33  1  0  0  0
 33 34  1  0  0  0
 30 31  1  0  0  0
 31 32  1  0  0  0
  3  4  1  0  0  0
  4  5  2  0  0  0
  5  6  1  0  0  0
  6 35  1  0  0  0
 35 36  1  0  0  0
 36 37  1  0  0  0
 36 38  1  0  0  0
 38 39  1  0  0  0
 39 40  1  0  0  0
 10 11  1  0  0  0
 11 12  1  0  0  0
 12 13  2  0  0  0
 12 14  1  0  0  0
 14 15  2  0  0  0
 15 16  1  0  0  0
 16 20  1  0  0  0
 20 21  1  0  0  0
 21 22  1  0  0  0
 22 23  1  0  0  0
 16  7  1  0  0  0
 14  8  1  0  0  0
  6  1  2  0  0  0
 32 27  1  0  0  0
 11 17  1  0  0  0
M  END
> <minimizedAffinity>
-8.79838

$$$$



 40 43  0  0  0  0  0  0  0  0999 V2000
    2.3022   67.0251   83.7212 C   0  0  0  0  0  0  0  0  0  0  0  0
    1.7584   68.0056   82.8798 C   0  0  0  0  0  0  0  0  0  0  0  0
    2.4925   69.1527   82.5925 C   0  0  0  0  0  0  0  0  0  0  0  0
    3.7764   69.2632   83.0867 C   0  0  0  0  0  0  0  0  0  0  0  0
    4.3424   68.3253   83.8847 N   0  0  0  0  0  0  0  0  0  0  0  0
    3.6023   67.2293   84.1895 C   0  0  0  0  0  0  0  0  0  0  0  0
   -1.0869   63.5969   82.9349 C   0  0  0  0  0  0  0  0  0  0  0  0
   -0.1469   64.3062   83.6356 C   0  0  0  0  0  0  0  0  0  0  0  0
    0.6391   65.3669   83.1874 N   0  0  0  0  0  0  0  0  0  0  0  0
    1.4324   65.8674   84.0940 C   0  0  0  0  0  0  0  0  0  0  0  0
    1.5229   65.3956   85.3985 N   0  0  0  0  0  0  0  0  0  0  0  0
    0.7760   64.3550   85.9200 C   0  0  0  0  0  0  0  0  0  0  0  0
    0.8893   64.0005   87.0897 O   0  0  0  0  0  0  0  0  0  0  0  0
   -0.1158   63.7895   84.9325 C   0  0  0  0  0  0  0  0  0  0  0  0
   -0.9852   62.7812   85.0763 N   0  0  0  0  0  0  0  0  0  0  0  0
   -1.5628   62.6795   83.8496 N   0  0  0  0  0  0  0  0  0  0  0  0
    2.1369   65.8431   86.0675 H   0  0  0  0  0  0  0  0  0  0  0  0
   -0.4836   63.2601   80.5365 C   0  0  0  0  0  0  0  0  0  0  0  0
   -1.5429   63.7319   81.5229 C   0  0  0  0  0  0  0  0  0  0  0  0
   -2.5432   61.6222   83.6508 C   0  0  0  0  0  0  0  0  0  0  0  0
   -2.1103   60.6304   82.5756 C   0  0  0  0  0  0  0  0  0  0  0  0
   -3.2266   60.0980   81.8537 O   0  0  0  0  0  0  0  0  0  0  0  0
   -3.1150   60.2702   80.4466 C   0  0  0  0  0  0  0  0  0  0  0  0
    1.8310   70.4332   81.5755 S   0  0  0  0  0  0  0  0  0  0  0  0
    0.4637   70.6446   81.9971 O   0  0  0  0  0  0  0  0  0  0  0  0
    2.1506   70.0916   80.2059 O   0  0  0  0  0  0  0  0  0  0  0  0
    2.7396   71.7914   81.9957 N   0  0  0  0  0  0  0  0  0  0  0  0
    3.5197   72.4700   80.9242 C   0  0  0  0  0  0  0  0  0  0  0  0
    4.0886   73.8163   81.4100 C   0  0  0  0  0  0  0  0  0  0  0  0
    3.0704   74.7809   81.8787 N   0  0  0  0  0  0  0  0  0  0  0  0
    1.9036   74.0910   82.4729 C   0  0  0  0  0  0  0  0  0  0  0  0
    2.2228   72.7009   83.0550 C   0  0  0  0  0  0  0  0  0  0  0  0
    2.6321   75.7244   80.8401 C   0  0  0  0  0  0  0  0  0  0  0  0
    1.1239   75.9494   80.8470 C   0  0  0  0  0  0  0  0  0  0  0  0
    4.1567   66.2854   85.0298 O   0  0  0  0  0  0  0  0  0  0  0  0
    5.4856   66.5750   85.5003 C   0  0  0  0  0  0  0  0  0  0  0  0
    6.3720   65.4223   85.0252 C   0  0  0  0  0  0  0  0  0  0  0  0
    5.5068   66.6724   87.0367 C   0  0  0  0  0  0  0  0  0  0  0  0
    5.3955   65.4011   87.6783 O   0  0  0  0  0  0  0  0  0  0  0  0
    5.7194   65.4517   89.0622 C   0  0  0  0  0  0  0  0  0  0  0  0
 18 19  1  0  0  0
 19  7  1  0  0  0
  7  8  2  0  0  0
  8  9  1  0  0  0
  9 10  2  0  0  0
 10  1  1  0  0  0
  1  2  1  0  0  0
  2  3  2  0  0  0
  3 24  1  0  0  0
 24 25  2  0  0  0
 24 26  2  0  0  0
 24 27  1  0  0  0
 27 28  1  0  0  0
 28 29  1  0  0  0
 29 30  1  0  0  0
 30 33  1  0  0  0
 33 34  1  0  0  0
 30 31  1  0  0  0
 31 32  1  0  0  0
  3  4  1  0  0  0
  4  5  2  0  0  0
  5  6  1  0  0  0
  6 35  1  0  0  0
 35 36  1  0  0  0
 36 37  1  0  0  0
 36 38  1  0  0  0
 38 39  1  0  0  0
 39 40  1  0  0  0
 10 11  1  0  0  0
 11 12  1  0  0  0
 12 13  2  0  0  0
 12 14  1  0  0  0
 14 15  2  0  0  0
 15 16  1  0  0  0
 16 20  1  0  0  0
 20 21  1  0  0  0
 21 22  1  0  0  0
 22 23  1  0  0  0
 16  7  1  0  0  0
 14  8  1  0  0  0
  6  1  2  0  0  0
 32 27  1  0  0  0
 11 17  1  0  0  0
M  END
> <minimizedAffinity>
-8.68855

$$$$



 40 43  0  0  0  0  0  0  0  0999 V2000
    0.0549   65.2229   80.6947 C   0  0  0  0  0  0  0  0  0  0  0  0
    0.0768   63.9940   80.0207 C   0  0  0  0  0  0  0  0  0  0  0  0
   -0.3323   63.9284   78.6919 C   0  0  0  0  0  0  0  0  0  0  0  0
   -0.6814   65.0959   78.0439 C   0  0  0  0  0  0  0  0  0  0  0  0
   -0.6930   66.3044   78.6574 N   0  0  0  0  0  0  0  0  0  0  0  0
   -0.3293   66.3498   79.9641 C   0  0  0  0  0  0  0  0  0  0  0  0
   -0.0055   63.4779   85.2563 C   0  0  0  0  0  0  0  0  0  0  0  0
    0.3128   64.3362   84.2366 C   0  0  0  0  0  0  0  0  0  0  0  0
   -0.0322   64.2352   82.8895 N   0  0  0  0  0  0  0  0  0  0  0  0
    0.3916   65.2240   82.1516 C   0  0  0  0  0  0  0  0  0  0  0  0
    1.1398   66.2923   82.6326 N   0  0  0  0  0  0  0  0  0  0  0  0
    1.5167   66.4674   83.9517 C   0  0  0  0  0  0  0  0  0  0  0  0
    2.1609   67.4468   84.3155 O   0  0  0  0  0  0  0  0  0  0  0  0
    1.0510   65.3848   84.7891 C   0  0  0  0  0  0  0  0  0  0  0  0
    1.2205   65.2199   86.1072 N   0  0  0  0  0  0  0  0  0  0  0  0
    0.5726   64.0536   86.3695 N   0  0  0  0  0  0  0  0  0  0  0  0
    1.4168   67.0466   82.0171 H   0  0  0  0  0  0  0  0  0  0  0  0
   -2.2686   62.4554   85.5067 C   0  0  0  0  0  0  0  0  0  0  0  0
   -0.7895   62.2110   85.2420 C   0  0  0  0  0  0  0  0  0  0  0  0
    0.6088   63.5539   87.7361 C   0  0  0  0  0  0  0  0  0  0  0  0
   -0.6888   63.8358   88.4869 C   0  0  0  0  0  0  0  0  0  0  0  0
   -0.9515   62.8536   89.4953 O   0  0  0  0  0  0  0  0  0  0  0  0
    0.1122   61.9244   89.6602 C   0  0  0  0  0  0  0  0  0  0  0  0
   -0.3643   62.3968   77.8175 S   0  0  0  0  0  0  0  0  0  0  0  0
    0.7045   61.5820   78.3521 O   0  0  0  0  0  0  0  0  0  0  0  0
   -0.4316   62.7172   76.4078 O   0  0  0  0  0  0  0  0  0  0  0  0
   -1.8393   61.7092   78.2630 N   0  0  0  0  0  0  0  0  0  0  0  0
   -1.8658   60.2545   78.5797 C   0  0  0  0  0  0  0  0  0  0  0  0
   -3.2134   59.8384   79.1982 C   0  0  0  0  0  0  0  0  0  0  0  0
   -3.5675   60.5568   80.4413 N   0  0  0  0  0  0  0  0  0  0  0  0
   -3.0230   61.9330   80.4456 C   0  0  0  0  0  0  0  0  0  0  0  0
   -2.8074   62.5295   79.0416 C   0  0  0  0  0  0  0  0  0  0  0  0
   -3.1694   59.8459   81.6650 C   0  0  0  0  0  0  0  0  0  0  0  0
   -1.9724   60.4889   82.3572 C   0  0  0  0  0  0  0  0  0  0  0  0
   -0.3715   67.5702   80.6072 O   0  0  0  0  0  0  0  0  0  0  0  0
    0.2783   68.6569   79.9230 C   0  0  0  0  0  0  0  0  0  0  0  0
    1.7625   68.2939   79.8493 C   0  0  0  0  0  0  0  0  0  0  0  0
    0.0842   69.9754   80.6939 C   0  0  0  0  0  0  0  0  0  0  0  0
    0.5815   69.9183   82.0317 O   0  0  0  0  0  0  0  0  0  0  0  0
    1.2678   71.1032   82.4159 C   0  0  0  0  0  0  0  0  0  0  0  0
 18 19  1  0  0  0
 19  7  1  0  0  0
  7  8  2  0  0  0
  8  9  1  0  0  0
  9 10  2  0  0  0
 10  1  1  0  0  0
  1  2  1  0  0  0
  2  3  2  0  0  0
  3 24  1  0  0  0
 24 25  2  0  0  0
 24 26  2  0  0  0
 24 27  1  0  0  0
 27 28  1  0  0  0
 28 29  1  0  0  0
 29 30  1  0  0  0
 30 33  1  0  0  0
 33 34  1  0  0  0
 30 31  1  0  0  0
 31 32  1  0  0  0
  3  4  1  0  0  0
  4  5  2  0  0  0
  5  6  1  0  0  0
  6 35  1  0  0  0
 35 36  1  0  0  0
 36 37  1  0  0  0
 36 38  1  0  0  0
 38 39  1  0  0  0
 39 40  1  0  0  0
 10 11  1  0  0  0
 11 12  1  0  0  0
 12 13  2  0  0  0
 12 14  1  0  0  0
 14 15  2  0  0  0
 15 16  1  0  0  0
 16 20  1  0  0  0
 20 21  1  0  0  0
 21 22  1  0  0  0
 22 23  1  0  0  0
 16  7  1  0  0  0
 14  8  1  0  0  0
  6  1  2  0  0  0
 32 27  1  0  0  0
 11 17  1  0  0  0
M  END
> <minimizedAffinity>
-8.66196

$$$$



 40 43  0  0  0  0  0  0  0  0999 V2000
    0.6647   64.6958   81.5675 C   0  0  0  0  0  0  0  0  0  0  0  0
    0.3147   64.6235   80.2120 C   0  0  0  0  0  0  0  0  0  0  0  0
   -0.0884   63.4077   79.6673 C   0  0  0  0  0  0  0  0  0  0  0  0
   -0.2057   62.3118   80.4979 C   0  0  0  0  0  0  0  0  0  0  0  0
    0.1026   62.3503   81.8172 N   0  0  0  0  0  0  0  0  0  0  0  0
    0.5317   63.5320   82.3284 C   0  0  0  0  0  0  0  0  0  0  0  0
    1.0760   69.5597   81.7406 C   0  0  0  0  0  0  0  0  0  0  0  0
    1.3229   68.2582   82.0910 C   0  0  0  0  0  0  0  0  0  0  0  0
    0.7465   67.1029   81.5650 N   0  0  0  0  0  0  0  0  0  0  0  0
    1.2019   65.9940   82.0795 C   0  0  0  0  0  0  0  0  0  0  0  0
    2.1658   65.9354   83.0794 N   0  0  0  0  0  0  0  0  0  0  0  0
    2.7880   67.0321   83.6476 C   0  0  0  0  0  0  0  0  0  0  0  0
    3.6488   66.9103   84.5140 O   0  0  0  0  0  0  0  0  0  0  0  0
    2.3021   68.2728   83.0864 C   0  0  0  0  0  0  0  0  0  0  0  0
    2.6744   69.5239   83.3854 N   0  0  0  0  0  0  0  0  0  0  0  0
    1.9150   70.2900   82.5576 N   0  0  0  0  0  0  0  0  0  0  0  0
    2.5020   65.0435   83.4203 H   0  0  0  0  0  0  0  0  0  0  0  0
   -0.8172   71.1355   81.3378 C   0  0  0  0  0  0  0  0  0  0  0  0
    0.1435   70.1256   80.7256 C   0  0  0  0  0  0  0  0  0  0  0  0
    2.0458   71.7356   82.6669 C   0  0  0  0  0  0  0  0  0  0  0  0
    3.2753   72.2597   81.9315 C   0  0  0  0  0  0  0  0  0  0  0  0
    3.2462   71.9370   80.5366 O   0  0  0  0  0  0  0  0  0  0  0  0
    4.3172   71.0913   80.1367 C   0  0  0  0  0  0  0  0  0  0  0  0
   -0.4948   63.2596   77.9572 S   0  0  0  0  0  0  0  0  0  0  0  0
    0.7036   62.8254   77.2736 O   0  0  0  0  0  0  0  0  0  0  0  0
   -1.1759   64.4790   77.5783 O   0  0  0  0  0  0  0  0  0  0  0  0
   -1.6213   62.0040   77.9181 N   0  0  0  0  0  0  0  0  0  0  0  0
   -1.1732   60.6487   78.3415 C   0  0  0  0  0  0  0  0  0  0  0  0
   -2.3636   59.6817   78.4826 C   0  0  0  0  0  0  0  0  0  0  0  0
   -3.3969   60.1152   79.4476 N   0  0  0  0  0  0  0  0  0  0  0  0
   -3.4924   61.5907   79.5128 C   0  0  0  0  0  0  0  0  0  0  0  0
   -3.0460   62.3084   78.2248 C   0  0  0  0  0  0  0  0  0  0  0  0
   -3.2157   59.5548   80.7945 C   0  0  0  0  0  0  0  0  0  0  0  0
   -3.2769   60.6163   81.8876 C   0  0  0  0  0  0  0  0  0  0  0  0
    0.8815   63.5726   83.6628 O   0  0  0  0  0  0  0  0  0  0  0  0
   -0.2159   63.6199   84.5926 C   0  0  0  0  0  0  0  0  0  0  0  0
    0.2377   64.5114   85.7501 C   0  0  0  0  0  0  0  0  0  0  0  0
   -0.5551   62.2072   85.1023 C   0  0  0  0  0  0  0  0  0  0  0  0
   -1.9273   61.8595   84.9116 O   0  0  0  0  0  0  0  0  0  0  0  0
   -2.7658   62.3289   85.9601 C   0  0  0  0  0  0  0  0  0  0  0  0
 18 19  1  0  0  0
 19  7  1  0  0  0
  7  8  2  0  0  0
  8  9  1  0  0  0
  9 10  2  0  0  0
 10  1  1  0  0  0
  1  2  1  0  0  0
  2  3  2  0  0  0
  3 24  1  0  0  0
 24 25  2  0  0  0
 24 26  2  0  0  0
 24 27  1  0  0  0
 27 28  1  0  0  0
 28 29  1  0  0  0
 29 30  1  0  0  0
 30 33  1  0  0  0
 33 34  1  0  0  0
 30 31  1  0  0  0
 31 32  1  0  0  0
  3  4  1  0  0  0
  4  5  2  0  0  0
  5  6  1  0  0  0
  6 35  1  0  0  0
 35 36  1  0  0  0
 36 37  1  0  0  0
 36 38  1  0  0  0
 38 39  1  0  0  0
 39 40  1  0  0  0
 10 11  1  0  0  0
 11 12  1  0  0  0
 12 13  2  0  0  0
 12 14  1  0  0  0
 14 15  2  0  0  0
 15 16  1  0  0  0
 16 20  1  0  0  0
 20 21  1  0  0  0
 21 22  1  0  0  0
 22 23  1  0  0  0
 16  7  1  0  0  0
 14  8  1  0  0  0
  6  1  2  0  0  0
 32 27  1  0  0  0
 11 17  1  0  0  0
M  END
> <minimizedAffinity>
-8.63419

$$$$



 40 43  0  0  0  0  0  0  0  0999 V2000
   -1.3321   62.9755   82.9802 C   0  0  0  0  0  0  0  0  0  0  0  0
   -1.8265   62.5722   81.7320 C   0  0  0  0  0  0  0  0  0  0  0  0
   -2.6291   61.4386   81.6413 C   0  0  0  0  0  0  0  0  0  0  0  0
   -2.9818   60.7776   82.8003 C   0  0  0  0  0  0  0  0  0  0  0  0
   -2.5408   61.1520   84.0259 N   0  0  0  0  0  0  0  0  0  0  0  0
   -1.7273   62.2360   84.0974 C   0  0  0  0  0  0  0  0  0  0  0  0
    0.8839   66.9413   81.1862 C   0  0  0  0  0  0  0  0  0  0  0  0
    0.5906   65.9632   82.1000 C   0  0  0  0  0  0  0  0  0  0  0  0
   -0.3412   64.9325   81.9857 N   0  0  0  0  0  0  0  0  0  0  0  0
   -0.3811   64.1290   83.0126 C   0  0  0  0  0  0  0  0  0  0  0  0
    0.4112   64.2707   84.1460 N   0  0  0  0  0  0  0  0  0  0  0  0
    1.3598   65.2596   84.3329 C   0  0  0  0  0  0  0  0  0  0  0  0
    2.0429   65.3162   85.3512 O   0  0  0  0  0  0  0  0  0  0  0  0
    1.4252   66.1584   83.2023 C   0  0  0  0  0  0  0  0  0  0  0  0
    2.2220   67.2204   83.0283 N   0  0  0  0  0  0  0  0  0  0  0  0
    1.8746   67.6827   81.7976 N   0  0  0  0  0  0  0  0  0  0  0  0
    0.3567   63.5986   84.9009 H   0  0  0  0  0  0  0  0  0  0  0  0
   -1.0687   67.8318   79.9119 C   0  0  0  0  0  0  0  0  0  0  0  0
    0.3146   67.2008   79.8340 C   0  0  0  0  0  0  0  0  0  0  0  0
    2.5368   68.8865   81.3171 C   0  0  0  0  0  0  0  0  0  0  0  0
    2.1802   70.1122   82.1522 C   0  0  0  0  0  0  0  0  0  0  0  0
    0.7691   70.3552   82.1759 O   0  0  0  0  0  0  0  0  0  0  0  0
    0.3104   71.0921   81.0496 C   0  0  0  0  0  0  0  0  0  0  0  0
   -3.2365   60.8681   80.0866 S   0  0  0  0  0  0  0  0  0  0  0  0
   -4.2390   61.8150   79.6507 O   0  0  0  0  0  0  0  0  0  0  0  0
   -3.5481   59.4637   80.2451 O   0  0  0  0  0  0  0  0  0  0  0  0
   -1.9007   60.9895   79.0630 N   0  0  0  0  0  0  0  0  0  0  0  0
   -1.9799   61.9395   77.9191 C   0  0  0  0  0  0  0  0  0  0  0  0
   -0.6104   62.1123   77.2361 C   0  0  0  0  0  0  0  0  0  0  0  0
    0.4641   62.5996   78.1276 N   0  0  0  0  0  0  0  0  0  0  0  0
    0.2645   62.1377   79.5195 C   0  0  0  0  0  0  0  0  0  0  0  0
   -0.5377   60.8280   79.6396 C   0  0  0  0  0  0  0  0  0  0  0  0
    0.6399   64.0587   78.0936 C   0  0  0  0  0  0  0  0  0  0  0  0
   -0.3826   64.7549   77.2020 C   0  0  0  0  0  0  0  0  0  0  0  0
   -1.2448   62.6042   85.3368 O   0  0  0  0  0  0  0  0  0  0  0  0
   -1.9554   62.0656   86.4664 C   0  0  0  0  0  0  0  0  0  0  0  0
   -2.9080   63.1647   86.9405 C   0  0  0  0  0  0  0  0  0  0  0  0
   -0.9752   61.6814   87.5898 C   0  0  0  0  0  0  0  0  0  0  0  0
   -0.9002   62.6626   88.6251 O   0  0  0  0  0  0  0  0  0  0  0  0
    0.4328   62.9101   89.0546 C   0  0  0  0  0  0  0  0  0  0  0  0
 18 19  1  0  0  0
 19  7  1  0  0  0
  7  8  2  0  0  0
  8  9  1  0  0  0
  9 10  2  0  0  0
 10  1  1  0  0  0
  1  2  1  0  0  0
  2  3  2  0  0  0
  3 24  1  0  0  0
 24 25  2  0  0  0
 24 26  2  0  0  0
 24 27  1  0  0  0
 27 28  1  0  0  0
 28 29  1  0  0  0
 29 30  1  0  0  0
 30 33  1  0  0  0
 33 34  1  0  0  0
 30 31  1  0  0  0
 31 32  1  0  0  0
  3  4  1  0  0  0
  4  5  2  0  0  0
  5  6  1  0  0  0
  6 35  1  0  0  0
 35 36  1  0  0  0
 36 37  1  0  0  0
 36 38  1  0  0  0
 38 39  1  0  0  0
 39 40  1  0  0  0
 10 11  1  0  0  0
 11 12  1  0  0  0
 12 13  2  0  0  0
 12 14  1  0  0  0
 14 15  2  0  0  0
 15 16  1  0  0  0
 16 20  1  0  0  0
 20 21  1  0  0  0
 21 22  1  0  0  0
 22 23  1  0  0  0
 16  7  1  0  0  0
 14  8  1  0  0  0
  6  1  2  0  0  0
 32 27  1  0  0  0
 11 17  1  0  0  0
M  END
> <minimizedAffinity>
-8.60000

$$$$



 40 43  0  0  0  0  0  0  0  0999 V2000
   -0.9918   63.4303   82.3077 C   0  0  0  0  0  0  0  0  0  0  0  0
   -1.8565   62.9223   81.3282 C   0  0  0  0  0  0  0  0  0  0  0  0
   -2.3573   61.6297   81.4532 C   0  0  0  0  0  0  0  0  0  0  0  0
   -2.0474   60.9016   82.5839 C   0  0  0  0  0  0  0  0  0  0  0  0
   -1.2330   61.3687   83.5613 N   0  0  0  0  0  0  0  0  0  0  0  0
   -0.7197   62.6158   83.4094 C   0  0  0  0  0  0  0  0  0  0  0  0
    1.9295   67.2127   83.3154 C   0  0  0  0  0  0  0  0  0  0  0  0
    1.0030   66.4836   82.6171 C   0  0  0  0  0  0  0  0  0  0  0  0
    0.5162   65.2098   82.9074 N   0  0  0  0  0  0  0  0  0  0  0  0
   -0.3881   64.7778   82.0722 C   0  0  0  0  0  0  0  0  0  0  0  0
   -0.8366   65.4936   80.9682 N   0  0  0  0  0  0  0  0  0  0  0  0
   -0.4088   66.7609   80.6164 C   0  0  0  0  0  0  0  0  0  0  0  0
   -0.8619   67.3480   79.6384 O   0  0  0  0  0  0  0  0  0  0  0  0
    0.5900   67.2619   81.5339 C   0  0  0  0  0  0  0  0  0  0  0  0
    1.2220   68.4424   81.5129 N   0  0  0  0  0  0  0  0  0  0  0  0
    2.0331   68.3903   82.6030 N   0  0  0  0  0  0  0  0  0  0  0  0
   -1.5624   65.1187   80.3705 H   0  0  0  0  0  0  0  0  0  0  0  0
    4.0575   66.3043   84.2516 C   0  0  0  0  0  0  0  0  0  0  0  0
    2.6820   66.8805   84.5577 C   0  0  0  0  0  0  0  0  0  0  0  0
    2.9110   69.5256   82.8459 C   0  0  0  0  0  0  0  0  0  0  0  0
    2.4431   70.7815   82.1173 C   0  0  0  0  0  0  0  0  0  0  0  0
    1.4817   71.5195   82.8799 O   0  0  0  0  0  0  0  0  0  0  0  0
    0.5152   72.1790   82.0718 C   0  0  0  0  0  0  0  0  0  0  0  0
   -3.4120   60.9328   80.2230 S   0  0  0  0  0  0  0  0  0  0  0  0
   -4.5789   61.7829   80.1351 O   0  0  0  0  0  0  0  0  0  0  0  0
   -3.5314   59.5214   80.5199 O   0  0  0  0  0  0  0  0  0  0  0  0
   -2.5247   61.0883   78.7963 N   0  0  0  0  0  0  0  0  0  0  0  0
   -2.8325   62.2390   77.9029 C   0  0  0  0  0  0  0  0  0  0  0  0
   -1.7847   62.3767   76.7825 C   0  0  0  0  0  0  0  0  0  0  0  0
   -0.3964   62.5594   77.2580 N   0  0  0  0  0  0  0  0  0  0  0  0
   -0.1706   61.8705   78.5484 C   0  0  0  0  0  0  0  0  0  0  0  0
   -1.0977   60.6639   78.7890 C   0  0  0  0  0  0  0  0  0  0  0  0
    0.0122   63.9684   77.3526 C   0  0  0  0  0  0  0  0  0  0  0  0
    1.0743   64.2036   78.4212 C   0  0  0  0  0  0  0  0  0  0  0  0
    0.1385   63.0869   84.3822 O   0  0  0  0  0  0  0  0  0  0  0  0
   -0.4683   63.3988   85.6493 C   0  0  0  0  0  0  0  0  0  0  0  0
    0.4414   64.4292   86.3210 C   0  0  0  0  0  0  0  0  0  0  0  0
   -0.5842   62.1344   86.5201 C   0  0  0  0  0  0  0  0  0  0  0  0
   -1.9366   61.7342   86.7459 O   0  0  0  0  0  0  0  0  0  0  0  0
   -2.8165   62.8379   86.9200 C   0  0  0  0  0  0  0  0  0  0  0  0
 18 19  1  0  0  0
 19  7  1  0  0  0
  7  8  2  0  0  0
  8  9  1  0  0  0
  9 10  2  0  0  0
 10  1  1  0  0  0
  1  2  1  0  0  0
  2  3  2  0  0  0
  3 24  1  0  0  0
 24 25  2  0  0  0
 24 26  2  0  0  0
 24 27  1  0  0  0
 27 28  1  0  0  0
 28 29  1  0  0  0
 29 30  1  0  0  0
 30 33  1  0  0  0
 33 34  1  0  0  0
 30 31  1  0  0  0
 31 32  1  0  0  0
  3  4  1  0  0  0
  4  5  2  0  0  0
  5  6  1  0  0  0
  6 35  1  0  0  0
 35 36  1  0  0  0
 36 37  1  0  0  0
 36 38  1  0  0  0
 38 39  1  0  0  0
 39 40  1  0  0  0
 10 11  1  0  0  0
 11 12  1  0  0  0
 12 13  2  0  0  0
 12 14  1  0  0  0
 14 15  2  0  0  0
 15 16  1  0  0  0
 16 20  1  0  0  0
 20 21  1  0  0  0
 21 22  1  0  0  0
 22 23  1  0  0  0
 16  7  1  0  0  0
 14  8  1  0  0  0
  6  1  2  0  0  0
 32 27  1  0  0  0
 11 17  1  0  0  0
M  END
> <minimizedAffinity>
-8.57125

$$$$



 40 43  0  0  0  0  0  0  0  0999 V2000
    0.7150   65.8544   81.4040 C   0  0  0  0  0  0  0  0  0  0  0  0
    1.3832   66.9380   81.9910 C   0  0  0  0  0  0  0  0  0  0  0  0
    2.0120   67.8807   81.1827 C   0  0  0  0  0  0  0  0  0  0  0  0
    1.8983   67.7652   79.8122 C   0  0  0  0  0  0  0  0  0  0  0  0
    1.2416   66.7436   79.2104 N   0  0  0  0  0  0  0  0  0  0  0  0
    0.6656   65.8094   80.0087 C   0  0  0  0  0  0  0  0  0  0  0  0
   -0.1307   63.7233   85.7167 C   0  0  0  0  0  0  0  0  0  0  0  0
   -0.1906   63.8923   84.3582 C   0  0  0  0  0  0  0  0  0  0  0  0
    0.3491   64.9279   83.5967 N   0  0  0  0  0  0  0  0  0  0  0  0
    0.1554   64.8068   82.3124 C   0  0  0  0  0  0  0  0  0  0  0  0
   -0.5401   63.7572   81.7233 N   0  0  0  0  0  0  0  0  0  0  0  0
   -1.0988   62.6925   82.4067 C   0  0  0  0  0  0  0  0  0  0  0  0
   -1.6834   61.7846   81.8230 O   0  0  0  0  0  0  0  0  0  0  0  0
   -0.8896   62.8036   83.8330 C   0  0  0  0  0  0  0  0  0  0  0  0
   -1.2812   61.9636   84.7996 N   0  0  0  0  0  0  0  0  0  0  0  0
   -0.8116   62.5431   85.9365 N   0  0  0  0  0  0  0  0  0  0  0  0
   -0.6342   63.7010   80.7171 H   0  0  0  0  0  0  0  0  0  0  0  0
    1.9219   64.1089   87.0835 C   0  0  0  0  0  0  0  0  0  0  0  0
    0.5051   64.5675   86.7671 C   0  0  0  0  0  0  0  0  0  0  0  0
   -1.1158   61.8911   87.2017 C   0  0  0  0  0  0  0  0  0  0  0  0
   -1.8201   62.8283   88.1777 C   0  0  0  0  0  0  0  0  0  0  0  0
   -1.0557   63.0365   89.3706 O   0  0  0  0  0  0  0  0  0  0  0  0
    0.0742   62.1785   89.4666 C   0  0  0  0  0  0  0  0  0  0  0  0
    2.9026   69.2354   81.8778 S   0  0  0  0  0  0  0  0  0  0  0  0
    3.7290   69.7833   80.8249 O   0  0  0  0  0  0  0  0  0  0  0  0
    3.4800   68.7679   83.1198 O   0  0  0  0  0  0  0  0  0  0  0  0
    1.6998   70.3566   82.2561 N   0  0  0  0  0  0  0  0  0  0  0  0
    2.0905   71.7886   82.3748 C   0  0  0  0  0  0  0  0  0  0  0  0
    0.8547   72.7017   82.4783 C   0  0  0  0  0  0  0  0  0  0  0  0
   -0.0801   72.6032   81.3367 N   0  0  0  0  0  0  0  0  0  0  0  0
   -0.0784   71.2440   80.7508 C   0  0  0  0  0  0  0  0  0  0  0  0
    0.3216   70.1324   81.7396 C   0  0  0  0  0  0  0  0  0  0  0  0
    0.1587   73.6100   80.2925 C   0  0  0  0  0  0  0  0  0  0  0  0
   -1.1162   74.0122   79.5590 C   0  0  0  0  0  0  0  0  0  0  0  0
    0.0247   64.7466   79.4052 O   0  0  0  0  0  0  0  0  0  0  0  0
    0.4439   64.4491   78.0610 C   0  0  0  0  0  0  0  0  0  0  0  0
   -0.7525   64.7557   77.1583 C   0  0  0  0  0  0  0  0  0  0  0  0
    0.8480   62.9687   77.9349 C   0  0  0  0  0  0  0  0  0  0  0  0
    0.2770   62.3296   76.7922 O   0  0  0  0  0  0  0  0  0  0  0  0
   -0.3679   61.1028   77.1114 C   0  0  0  0  0  0  0  0  0  0  0  0
 18 19  1  0  0  0
 19  7  1  0  0  0
  7  8  2  0  0  0
  8  9  1  0  0  0
  9 10  2  0  0  0
 10  1  1  0  0  0
  1  2  1  0  0  0
  2  3  2  0  0  0
  3 24  1  0  0  0
 24 25  2  0  0  0
 24 26  2  0  0  0
 24 27  1  0  0  0
 27 28  1  0  0  0
 28 29  1  0  0  0
 29 30  1  0  0  0
 30 33  1  0  0  0
 33 34  1  0  0  0
 30 31  1  0  0  0
 31 32  1  0  0  0
  3  4  1  0  0  0
  4  5  2  0  0  0
  5  6  1  0  0  0
  6 35  1  0  0  0
 35 36  1  0  0  0
 36 37  1  0  0  0
 36 38  1  0  0  0
 38 39  1  0  0  0
 39 40  1  0  0  0
 10 11  1  0  0  0
 11 12  1  0  0  0
 12 13  2  0  0  0
 12 14  1  0  0  0
 14 15  2  0  0  0
 15 16  1  0  0  0
 16 20  1  0  0  0
 20 21  1  0  0  0
 21 22  1  0  0  0
 22 23  1  0  0  0
 16  7  1  0  0  0
 14  8  1  0  0  0
  6  1  2  0  0  0
 32 27  1  0  0  0
 11 17  1  0  0  0
M  END
> <minimizedAffinity>
-8.50826

$$$$



 40 43  0  0  0  0  0  0  0  0999 V2000
    0.6191   64.2755   83.6751 C   0  0  0  0  0  0  0  0  0  0  0  0
    0.4762   63.5675   82.4736 C   0  0  0  0  0  0  0  0  0  0  0  0
   -0.1714   62.3355   82.4717 C   0  0  0  0  0  0  0  0  0  0  0  0
   -0.7260   61.8725   83.6475 C   0  0  0  0  0  0  0  0  0  0  0  0
   -0.6266   62.5404   84.8227 N   0  0  0  0  0  0  0  0  0  0  0  0
    0.0408   63.7221   84.8198 C   0  0  0  0  0  0  0  0  0  0  0  0
    1.6175   68.8640   82.3311 C   0  0  0  0  0  0  0  0  0  0  0  0
    1.8006   67.6685   82.9754 C   0  0  0  0  0  0  0  0  0  0  0  0
    0.9726   66.5470   82.9567 N   0  0  0  0  0  0  0  0  0  0  0  0
    1.4222   65.5366   83.6486 C   0  0  0  0  0  0  0  0  0  0  0  0
    2.6116   65.5505   84.3680 N   0  0  0  0  0  0  0  0  0  0  0  0
    3.4882   66.6184   84.4321 C   0  0  0  0  0  0  0  0  0  0  0  0
    4.5350   66.5581   85.0700 O   0  0  0  0  0  0  0  0  0  0  0  0
    3.0117   67.7480   83.6658 C   0  0  0  0  0  0  0  0  0  0  0  0
    3.5932   68.9420   83.4940 N   0  0  0  0  0  0  0  0  0  0  0  0
    2.7277   69.6052   82.6816 N   0  0  0  0  0  0  0  0  0  0  0  0
    2.9243   64.7253   84.8639 H   0  0  0  0  0  0  0  0  0  0  0  0
    0.4657   68.5353   80.1414 C   0  0  0  0  0  0  0  0  0  0  0  0
    0.5121   69.3225   81.4436 C   0  0  0  0  0  0  0  0  0  0  0  0
    3.0486   70.9817   82.3338 C   0  0  0  0  0  0  0  0  0  0  0  0
    3.6751   71.0943   80.9476 C   0  0  0  0  0  0  0  0  0  0  0  0
    3.2161   72.2528   80.2420 O   0  0  0  0  0  0  0  0  0  0  0  0
    1.9646   72.7350   80.7145 C   0  0  0  0  0  0  0  0  0  0  0  0
   -0.3349   61.3887   80.9924 S   0  0  0  0  0  0  0  0  0  0  0  0
   -1.1143   60.2164   81.3243 O   0  0  0  0  0  0  0  0  0  0  0  0
    0.9880   61.2732   80.4170 O   0  0  0  0  0  0  0  0  0  0  0  0
   -1.2547   62.3774   79.9808 N   0  0  0  0  0  0  0  0  0  0  0  0
   -0.7732   62.5950   78.5887 C   0  0  0  0  0  0  0  0  0  0  0  0
   -1.8353   63.3085   77.7315 C   0  0  0  0  0  0  0  0  0  0  0  0
   -3.1273   62.5958   77.6344 N   0  0  0  0  0  0  0  0  0  0  0  0
   -3.4118   61.8200   78.8623 C   0  0  0  0  0  0  0  0  0  0  0  0
   -2.7360   62.3766   80.1298 C   0  0  0  0  0  0  0  0  0  0  0  0
   -3.2356   61.7337   76.4486 C   0  0  0  0  0  0  0  0  0  0  0  0
   -3.1293   60.2505   76.7865 C   0  0  0  0  0  0  0  0  0  0  0  0
    0.1777   64.3926   86.0182 O   0  0  0  0  0  0  0  0  0  0  0  0
    0.2818   63.5611   87.1882 C   0  0  0  0  0  0  0  0  0  0  0  0
   -0.8563   63.9827   88.1195 C   0  0  0  0  0  0  0  0  0  0  0  0
    1.6439   63.7633   87.8769 C   0  0  0  0  0  0  0  0  0  0  0  0
    2.6229   64.3483   87.0169 O   0  0  0  0  0  0  0  0  0  0  0  0
    3.8955   64.4781   87.6383 C   0  0  0  0  0  0  0  0  0  0  0  0
 18 19  1  0  0  0
 19  7  1  0  0  0
  7  8  2  0  0  0
  8  9  1  0  0  0
  9 10  2  0  0  0
 10  1  1  0  0  0
  1  2  1  0  0  0
  2  3  2  0  0  0
  3 24  1  0  0  0
 24 25  2  0  0  0
 24 26  2  0  0  0
 24 27  1  0  0  0
 27 28  1  0  0  0
 28 29  1  0  0  0
 29 30  1  0  0  0
 30 33  1  0  0  0
 33 34  1  0  0  0
 30 31  1  0  0  0
 31 32  1  0  0  0
  3  4  1  0  0  0
  4  5  2  0  0  0
  5  6  1  0  0  0
  6 35  1  0  0  0
 35 36  1  0  0  0
 36 37  1  0  0  0
 36 38  1  0  0  0
 38 39  1  0  0  0
 39 40  1  0  0  0
 10 11  1  0  0  0
 11 12  1  0  0  0
 12 13  2  0  0  0
 12 14  1  0  0  0
 14 15  2  0  0  0
 15 16  1  0  0  0
 16 20  1  0  0  0
 20 21  1  0  0  0
 21 22  1  0  0  0
 22 23  1  0  0  0
 16  7  1  0  0  0
 14  8  1  0  0  0
  6  1  2  0  0  0
 32 27  1  0  0  0
 11 17  1  0  0  0
M  END
> <minimizedAffinity>
-8.49788

$$$$



 40 43  0  0  0  0  0  0  0  0999 V2000
   -0.4558   64.5763   80.7268 C   0  0  0  0  0  0  0  0  0  0  0  0
   -0.1277   65.9216   80.9453 C   0  0  0  0  0  0  0  0  0  0  0  0
    0.4291   66.6723   79.9140 C   0  0  0  0  0  0  0  0  0  0  0  0
    0.5767   66.0906   78.6711 C   0  0  0  0  0  0  0  0  0  0  0  0
    0.2498   64.7999   78.4177 N   0  0  0  0  0  0  0  0  0  0  0  0
   -0.2560   64.0668   79.4416 C   0  0  0  0  0  0  0  0  0  0  0  0
   -0.5787   63.2126   85.4153 C   0  0  0  0  0  0  0  0  0  0  0  0
   -0.9322   63.2160   84.0914 C   0  0  0  0  0  0  0  0  0  0  0  0
   -0.4320   64.0235   83.0708 N   0  0  0  0  0  0  0  0  0  0  0  0
   -0.9420   63.7797   81.8951 C   0  0  0  0  0  0  0  0  0  0  0  0
   -1.9146   62.8170   81.6503 N   0  0  0  0  0  0  0  0  0  0  0  0
   -2.4560   61.9750   82.6045 C   0  0  0  0  0  0  0  0  0  0  0  0
   -3.2985   61.1298   82.3177 O   0  0  0  0  0  0  0  0  0  0  0  0
   -1.8991   62.2241   83.9153 C   0  0  0  0  0  0  0  0  0  0  0  0
   -2.1776   61.6046   85.0694 N   0  0  0  0  0  0  0  0  0  0  0  0
   -1.3657   62.2228   85.9682 N   0  0  0  0  0  0  0  0  0  0  0  0
   -2.2527   62.6527   80.7105 H   0  0  0  0  0  0  0  0  0  0  0  0
    0.9507   65.1812   85.2915 C   0  0  0  0  0  0  0  0  0  0  0  0
    0.4137   64.0454   86.1513 C   0  0  0  0  0  0  0  0  0  0  0  0
   -1.4598   61.8074   87.3600 C   0  0  0  0  0  0  0  0  0  0  0  0
   -1.8963   62.9487   88.2732 C   0  0  0  0  0  0  0  0  0  0  0  0
   -0.9981   63.1311   89.3735 O   0  0  0  0  0  0  0  0  0  0  0  0
    0.1609   62.3114   89.2900 C   0  0  0  0  0  0  0  0  0  0  0  0
    0.8992   68.3551   80.1561 S   0  0  0  0  0  0  0  0  0  0  0  0
   -0.2787   69.1613   79.9224 O   0  0  0  0  0  0  0  0  0  0  0  0
    2.1159   68.5661   79.4014 O   0  0  0  0  0  0  0  0  0  0  0  0
    1.2874   68.4330   81.7963 N   0  0  0  0  0  0  0  0  0  0  0  0
    2.0487   67.2992   82.3896 C   0  0  0  0  0  0  0  0  0  0  0  0
    2.5317   67.6307   83.8139 C   0  0  0  0  0  0  0  0  0  0  0  0
    3.3967   68.8264   83.9072 N   0  0  0  0  0  0  0  0  0  0  0  0
    3.0471   69.8298   82.8768 C   0  0  0  0  0  0  0  0  0  0  0  0
    1.5834   69.7607   82.4014 C   0  0  0  0  0  0  0  0  0  0  0  0
    4.8332   68.5186   83.8542 C   0  0  0  0  0  0  0  0  0  0  0  0
    5.1919   67.2466   84.6148 C   0  0  0  0  0  0  0  0  0  0  0  0
   -0.5591   62.7417   79.2028 O   0  0  0  0  0  0  0  0  0  0  0  0
   -1.1028   62.4524   77.9021 C   0  0  0  0  0  0  0  0  0  0  0  0
   -2.6095   62.2711   78.0952 C   0  0  0  0  0  0  0  0  0  0  0  0
   -0.4758   61.1696   77.3261 C   0  0  0  0  0  0  0  0  0  0  0  0
   -0.8398   59.9952   78.0531 O   0  0  0  0  0  0  0  0  0  0  0  0
   -1.2189   58.9177   77.2058 C   0  0  0  0  0  0  0  0  0  0  0  0
 18 19  1  0  0  0
 19  7  1  0  0  0
  7  8  2  0  0  0
  8  9  1  0  0  0
  9 10  2  0  0  0
 10  1  1  0  0  0
  1  2  1  0  0  0
  2  3  2  0  0  0
  3 24  1  0  0  0
 24 25  2  0  0  0
 24 26  2  0  0  0
 24 27  1  0  0  0
 27 28  1  0  0  0
 28 29  1  0  0  0
 29 30  1  0  0  0
 30 33  1  0  0  0
 33 34  1  0  0  0
 30 31  1  0  0  0
 31 32  1  0  0  0
  3  4  1  0  0  0
  4  5  2  0  0  0
  5  6  1  0  0  0
  6 35  1  0  0  0
 35 36  1  0  0  0
 36 37  1  0  0  0
 36 38  1  0  0  0
 38 39  1  0  0  0
 39 40  1  0  0  0
 10 11  1  0  0  0
 11 12  1  0  0  0
 12 13  2  0  0  0
 12 14  1  0  0  0
 14 15  2  0  0  0
 15 16  1  0  0  0
 16 20  1  0  0  0
 20 21  1  0  0  0
 21 22  1  0  0  0
 22 23  1  0  0  0
 16  7  1  0  0  0
 14  8  1  0  0  0
  6  1  2  0  0  0
 32 27  1  0  0  0
 11 17  1  0  0  0
M  END
> <minimizedAffinity>
-8.47044

$$$$
