
     RDKit          3D

 46 49  0  0  0  0  0  0  0  0999 V2000
   -6.5064   -0.2124    0.1095 C   0  0  0  0  0  0  0  0  0  0  0  0
   -5.1359   -0.6568    0.2765 N   0  0  0  0  0  0  0  0  0  0  0  0
   -4.7484   -1.9291   -0.1274 C   0  0  0  0  0  0  0  0  0  0  0  0
   -5.5043   -2.7495   -0.6471 O   0  0  0  0  0  0  0  0  0  0  0  0
   -3.4258   -2.2777    0.0761 N   0  0  0  0  0  0  0  0  0  0  0  0
   -2.4328   -1.5019    0.6285 C   0  0  0  0  0  0  0  0  0  0  0  0
   -1.2800   -1.9012    0.7468 O   0  0  0  0  0  0  0  0  0  0  0  0
   -2.8953   -0.2144    1.0194 C   0  0  0  0  0  0  0  0  0  0  0  0
   -4.1947    0.1733    0.8479 C   0  0  0  0  0  0  0  0  0  0  0  0
   -4.4173    1.4289    1.3118 N   0  0  0  0  0  0  0  0  0  0  0  0
   -3.2499    1.8156    1.7815 C   0  0  0  0  0  0  0  0  0  0  0  0
   -3.0066    3.3326    2.5698 S   0  0  0  0  0  0  0  0  0  0  0  0
   -2.2698    0.8649    1.5997 N   0  0  0  0  0  0  0  0  0  0  0  0
   -0.8774    0.9219    2.0097 C   0  0  0  0  0  0  0  0  0  0  0  0
    0.0917    1.5453    0.9943 C   0  0  0  0  0  0  0  0  0  0  0  0
   -0.0800    2.9684    0.9650 O   0  0  0  0  0  0  0  0  0  0  0  0
   -0.0262    0.9970   -0.4339 C   0  0  0  0  0  0  0  0  0  0  0  0
    0.9901    1.5813   -1.2613 O   0  0  0  0  0  0  0  0  0  0  0  0
    2.2198    0.9860   -1.3166 C   0  0  0  0  0  0  0  0  0  0  0  0
    3.1345    1.6381   -2.1440 C   0  0  0  0  0  0  0  0  0  0  0  0
    4.4348    1.1519   -2.2939 C   0  0  0  0  0  0  0  0  0  0  0  0
    4.8452   -0.0029   -1.6151 C   0  0  0  0  0  0  0  0  0  0  0  0
    6.1482   -0.5082   -1.7520 C   0  0  0  0  0  0  0  0  0  0  0  0
    6.5410   -1.6606   -1.0701 C   0  0  0  0  0  0  0  0  0  0  0  0
    5.6367   -2.3216   -0.2445 C   0  0  0  0  0  0  0  0  0  0  0  0
    4.3379   -1.8312   -0.0984 C   0  0  0  0  0  0  0  0  0  0  0  0
    3.9253   -0.6718   -0.7763 C   0  0  0  0  0  0  0  0  0  0  0  0
    2.6182   -0.1662   -0.6365 C   0  0  0  0  0  0  0  0  0  0  0  0
   -7.1234   -0.9779   -0.3685 H   0  0  0  0  0  0  0  0  0  0  0  0
   -6.9298    0.0163    1.0926 H   0  0  0  0  0  0  0  0  0  0  0  0
   -6.5177    0.6872   -0.5138 H   0  0  0  0  0  0  0  0  0  0  0  0
   -3.1660   -3.2033   -0.2271 H   0  0  0  0  0  0  0  0  0  0  0  0
   -4.2539    3.7926    2.4003 H   0  0  0  0  0  0  0  0  0  0  0  0
   -0.8384    1.4738    2.9556 H   0  0  0  0  0  0  0  0  0  0  0  0
   -0.5610   -0.0994    2.2439 H   0  0  0  0  0  0  0  0  0  0  0  0
    1.1097    1.3877    1.3678 H   0  0  0  0  0  0  0  0  0  0  0  0
    0.4963    3.3013    0.2493 H   0  0  0  0  0  0  0  0  0  0  0  0
   -0.9748    1.3266   -0.8731 H   0  0  0  0  0  0  0  0  0  0  0  0
   -0.0149   -0.0933   -0.4904 H   0  0  0  0  0  0  0  0  0  0  0  0
    2.8341    2.5348   -2.6810 H   0  0  0  0  0  0  0  0  0  0  0  0
    5.1233    1.6833   -2.9469 H   0  0  0  0  0  0  0  0  0  0  0  0
    6.8686   -0.0058   -2.3938 H   0  0  0  0  0  0  0  0  0  0  0  0
    7.5524   -2.0416   -1.1853 H   0  0  0  0  0  0  0  0  0  0  0  0
    5.9408   -3.2203    0.2859 H   0  0  0  0  0  0  0  0  0  0  0  0
    3.6470   -2.3653    0.5504 H   0  0  0  0  0  0  0  0  0  0  0  0
    1.9352   -0.7017    0.0146 H   0  0  0  0  0  0  0  0  0  0  0  0
  1  2  1  0
  2  3  1  0
  3  4  2  0
  3  5  1  0
  5  6  1  0
  6  7  2  0
  6  8  1  0
  8  9  2  0
  9 10  1  0
 10 11  2  0
 11 12  1  0
 11 13  1  0
 13 14  1  0
 14 15  1  0
 15 16  1  0
 15 17  1  0
 17 18  1  0
 18 19  1  0
 19 20  1  0
 20 21  2  0
 21 22  1  0
 22 23  2  0
 23 24  1  0
 24 25  2  0
 25 26  1  0
 26 27  2  0
 27 28  1  0
  9  2  1  0
 28 19  2  0
 13  8  1  0
 27 22  1  0
  1 29  1  0
  1 30  1  0
  1 31  1  0
  5 32  1  0
 12 33  1  0
 14 34  1  0
 14 35  1  0
 15 36  1  0
 16 37  1  0
 17 38  1  0
 17 39  1  0
 20 40  1  0
 21 41  1  0
 23 42  1  0
 24 43  1  0
 25 44  1  0
 26 45  1  0
 28 46  1  0
M  END
$$$$
