
     RDKit          3D

 37 40  0  0  0  0  0  0  0  0999 V2000
    1.2212   -1.8216   -3.4023 C   0  0  0  0  0  0  0  0  0  0  0  0
    1.2623   -1.2165   -2.0887 N   0  0  0  0  0  0  0  0  0  0  0  0
    2.4636   -1.2089   -1.4245 N   0  0  0  0  0  0  0  0  0  0  0  0
    2.3392   -0.5036   -0.3369 C   0  0  0  0  0  0  0  0  0  0  0  0
    3.4544   -0.3026    0.6244 C   0  0  0  0  0  0  0  0  0  0  0  0
    4.6945   -0.8962    0.3354 C   0  0  0  0  0  0  0  0  0  0  0  0
    5.7804   -0.7413    1.2031 C   0  0  0  0  0  0  0  0  0  0  0  0
    5.6337    0.0083    2.3668 C   0  0  0  0  0  0  0  0  0  0  0  0
    6.9670    0.2008    3.4354 Cl  0  0  0  0  0  0  0  0  0  0  0  0
    4.4110    0.6032    2.6694 C   0  0  0  0  0  0  0  0  0  0  0  0
    3.3230    0.4491    1.8017 C   0  0  0  0  0  0  0  0  0  0  0  0
    0.7624    0.2248   -0.0548 S   0  0  0  0  0  0  0  0  0  0  0  0
    0.2203   -0.4729   -1.5794 C   0  0  0  0  0  0  0  0  0  0  0  0
   -0.9444   -0.3097   -2.1264 N   0  0  0  0  0  0  0  0  0  0  0  0
   -1.9205    0.4746   -1.5007 C   0  0  0  0  0  0  0  0  0  0  0  0
   -2.0464    1.8273   -1.8246 C   0  0  0  0  0  0  0  0  0  0  0  0
   -3.0336    2.6075   -1.2245 C   0  0  0  0  0  0  0  0  0  0  0  0
   -3.9106    2.0313   -0.3036 C   0  0  0  0  0  0  0  0  0  0  0  0
   -3.8135    0.6693    0.0201 C   0  0  0  0  0  0  0  0  0  0  0  0
   -4.7309    0.0615    0.9742 C   0  0  0  0  0  0  0  0  0  0  0  0
   -4.6654   -1.2660    1.3377 N   0  0  0  0  0  0  0  0  0  0  0  0
   -5.6374   -1.4748    2.2136 N   0  0  0  0  0  0  0  0  0  0  0  0
   -6.2366   -0.2870    2.3378 N   0  0  0  0  0  0  0  0  0  0  0  0
   -5.7275    0.7123    1.6034 N   0  0  0  0  0  0  0  0  0  0  0  0
   -2.8158   -0.1019   -0.5938 C   0  0  0  0  0  0  0  0  0  0  0  0
    0.2731   -2.3451   -3.5628 H   0  0  0  0  0  0  0  0  0  0  0  0
    1.3344   -1.0560   -4.1764 H   0  0  0  0  0  0  0  0  0  0  0  0
    2.0264   -2.5541   -3.5240 H   0  0  0  0  0  0  0  0  0  0  0  0
    4.8276   -1.4868   -0.5698 H   0  0  0  0  0  0  0  0  0  0  0  0
    6.7324   -1.2080    0.9634 H   0  0  0  0  0  0  0  0  0  0  0  0
    4.2950    1.1882    3.5787 H   0  0  0  0  0  0  0  0  0  0  0  0
    2.3854    0.9271    2.0731 H   0  0  0  0  0  0  0  0  0  0  0  0
   -1.3698    2.2717   -2.5494 H   0  0  0  0  0  0  0  0  0  0  0  0
   -3.1230    3.6608   -1.4766 H   0  0  0  0  0  0  0  0  0  0  0  0
   -4.6771    2.6523    0.1567 H   0  0  0  0  0  0  0  0  0  0  0  0
   -7.0320   -0.1540    2.9557 H   0  0  0  0  0  0  0  0  0  0  0  0
   -2.7230   -1.1628   -0.3720 H   0  0  0  0  0  0  0  0  0  0  0  0
  1  2  1  0
  2  3  1  0
  3  4  2  0
  4  5  1  0
  5  6  1  0
  6  7  2  0
  7  8  1  0
  8  9  1  0
  8 10  2  0
 10 11  1  0
  4 12  1  0
 12 13  1  0
 13 14  2  0
 14 15  1  0
 15 16  1  0
 16 17  2  0
 17 18  1  0
 18 19  2  0
 19 20  1  0
 20 21  1  0
 21 22  2  0
 22 23  1  0
 23 24  1  0
 19 25  1  0
 13  2  1  0
 25 15  2  0
 11  5  2  0
 24 20  2  0
  1 26  1  0
  1 27  1  0
  1 28  1  0
  6 29  1  0
  7 30  1  0
 10 31  1  0
 11 32  1  0
 16 33  1  0
 17 34  1  0
 18 35  1  0
 23 36  1  0
 25 37  1  0
M  END
$$$$
