
     RDKit          3D

 77 80  0  0  0  0  0  0  0  0999 V2000
   -1.8311   -2.1375    5.6399 C   0  0  0  0  0  0  0  0  0  0  0  0
   -0.6576   -2.7306    4.8727 C   0  0  0  0  0  0  0  0  0  0  0  0
   -0.6630   -2.3329    3.3989 C   0  0  0  0  0  0  0  0  0  0  0  0
   -0.5595   -0.9061    3.2826 O   0  0  0  0  0  0  0  0  0  0  0  0
    0.5051   -0.4779    2.5256 C   0  0  0  0  0  0  0  0  0  0  0  0
    1.8098   -0.8835    2.8424 C   0  0  0  0  0  0  0  0  0  0  0  0
    2.8907   -0.4307    2.0864 C   0  0  0  0  0  0  0  0  0  0  0  0
    2.6627    0.4479    1.0279 C   0  0  0  0  0  0  0  0  0  0  0  0
    4.0222    1.0375    0.0521 S   0  0  0  0  0  0  0  0  0  0  0  0
    4.0354    2.4789    0.1725 O   0  0  0  0  0  0  0  0  0  0  0  0
    5.1924    0.2498    0.3801 O   0  0  0  0  0  0  0  0  0  0  0  0
    3.5658    0.6307   -1.5375 N   0  0  0  0  0  0  0  0  0  0  0  0
    3.3458   -0.8298   -1.7932 C   0  0  0  0  0  0  0  0  0  0  0  0
    3.4229   -1.1467   -3.2976 C   0  0  0  0  0  0  0  0  0  0  0  0
    4.7640   -0.8926   -3.8660 N   0  0  0  0  0  0  0  0  0  0  0  0
    4.6923   -0.8093   -5.3339 C   0  0  0  0  0  0  0  0  0  0  0  0
    6.0544   -1.0162   -6.0219 C   0  0  0  0  0  0  0  0  0  0  0  0
    5.9242   -1.0593   -7.4468 O   0  0  0  0  0  0  0  0  0  0  0  0
    5.8347    0.2298   -8.0380 C   0  0  0  0  0  0  0  0  0  0  0  0
    5.3899    0.2959   -3.2444 C   0  0  0  0  0  0  0  0  0  0  0  0
    4.4019    1.2841   -2.5957 C   0  0  0  0  0  0  0  0  0  0  0  0
    1.3697    0.8859    0.7253 C   0  0  0  0  0  0  0  0  0  0  0  0
    0.2729    0.4357    1.4767 C   0  0  0  0  0  0  0  0  0  0  0  0
   -1.0622    0.9334    1.1239 C   0  0  0  0  0  0  0  0  0  0  0  0
   -1.3991    1.5413   -0.0044 N   0  0  0  0  0  0  0  0  0  0  0  0
   -2.7375    1.8341    0.1129 C   0  0  0  0  0  0  0  0  0  0  0  0
   -3.6155    2.4871   -0.8315 C   0  0  0  0  0  0  0  0  0  0  0  0
   -3.2328    2.8937   -1.9257 O   0  0  0  0  0  0  0  0  0  0  0  0
   -4.9374    2.6006   -0.3650 N   0  0  0  0  0  0  0  0  0  0  0  0
   -5.9003    3.2447   -1.2363 C   0  0  0  0  0  0  0  0  0  0  0  0
   -5.4270    2.1725    0.8871 C   0  0  0  0  0  0  0  0  0  0  0  0
   -6.6074    2.3406    1.2075 O   0  0  0  0  0  0  0  0  0  0  0  0
   -4.5175    1.5441    1.7586 N   0  0  0  0  0  0  0  0  0  0  0  0
   -4.9989    1.0725    3.0565 C   0  0  0  0  0  0  0  0  0  0  0  0
   -5.7529   -0.2692    2.9788 C   0  0  0  0  0  0  0  0  0  0  0  0
   -4.8466   -1.4176    2.5326 C   0  0  0  0  0  0  0  0  0  0  0  0
   -6.3675   -0.5960    4.3414 C   0  0  0  0  0  0  0  0  0  0  0  0
   -3.2190    1.4103    1.3181 C   0  0  0  0  0  0  0  0  0  0  0  0
   -2.1596    0.8451    1.9578 N   0  0  0  0  0  0  0  0  0  0  0  0
   -1.8102   -1.0433    5.6202 H   0  0  0  0  0  0  0  0  0  0  0  0
   -2.7836   -2.4717    5.2169 H   0  0  0  0  0  0  0  0  0  0  0  0
   -1.7964   -2.4557    6.6867 H   0  0  0  0  0  0  0  0  0  0  0  0
   -0.6901   -3.8227    4.9534 H   0  0  0  0  0  0  0  0  0  0  0  0
    0.2712   -2.3896    5.3438 H   0  0  0  0  0  0  0  0  0  0  0  0
   -1.6137   -2.6257    2.9384 H   0  0  0  0  0  0  0  0  0  0  0  0
    0.1253   -2.8708    2.8577 H   0  0  0  0  0  0  0  0  0  0  0  0
    1.9974   -1.5425    3.6859 H   0  0  0  0  0  0  0  0  0  0  0  0
    3.8995   -0.7534    2.3361 H   0  0  0  0  0  0  0  0  0  0  0  0
    4.0832   -1.4366   -1.2557 H   0  0  0  0  0  0  0  0  0  0  0  0
    2.3491   -1.1001   -1.4289 H   0  0  0  0  0  0  0  0  0  0  0  0
    2.6624   -0.5484   -3.8181 H   0  0  0  0  0  0  0  0  0  0  0  0
    3.1697   -2.2020   -3.4523 H   0  0  0  0  0  0  0  0  0  0  0  0
    4.2389    0.1395   -5.6454 H   0  0  0  0  0  0  0  0  0  0  0  0
    4.0256   -1.5941   -5.7170 H   0  0  0  0  0  0  0  0  0  0  0  0
    6.4630   -1.9866   -5.7176 H   0  0  0  0  0  0  0  0  0  0  0  0
    6.7888   -0.2547   -5.7381 H   0  0  0  0  0  0  0  0  0  0  0  0
    5.7983    0.1053   -9.1238 H   0  0  0  0  0  0  0  0  0  0  0  0
    4.9235    0.7439   -7.7213 H   0  0  0  0  0  0  0  0  0  0  0  0
    6.7142    0.8309   -7.7880 H   0  0  0  0  0  0  0  0  0  0  0  0
    6.0188    0.8421   -3.9558 H   0  0  0  0  0  0  0  0  0  0  0  0
    6.0715   -0.0714   -2.4667 H   0  0  0  0  0  0  0  0  0  0  0  0
    4.9594    2.1355   -2.1913 H   0  0  0  0  0  0  0  0  0  0  0  0
    3.7231    1.6964   -3.3525 H   0  0  0  0  0  0  0  0  0  0  0  0
    1.2150    1.5875   -0.0954 H   0  0  0  0  0  0  0  0  0  0  0  0
   -5.4937    3.4648   -2.2265 H   0  0  0  0  0  0  0  0  0  0  0  0
   -6.7748    2.5959   -1.3520 H   0  0  0  0  0  0  0  0  0  0  0  0
   -6.2240    4.1805   -0.7688 H   0  0  0  0  0  0  0  0  0  0  0  0
   -4.1574    1.0040    3.7562 H   0  0  0  0  0  0  0  0  0  0  0  0
   -5.6703    1.8412    3.4603 H   0  0  0  0  0  0  0  0  0  0  0  0
   -6.5703   -0.1842    2.2522 H   0  0  0  0  0  0  0  0  0  0  0  0
   -5.3900   -2.3686    2.5450 H   0  0  0  0  0  0  0  0  0  0  0  0
   -4.4849   -1.2644    1.5113 H   0  0  0  0  0  0  0  0  0  0  0  0
   -3.9791   -1.5169    3.1924 H   0  0  0  0  0  0  0  0  0  0  0  0
   -7.0533    0.1963    4.6594 H   0  0  0  0  0  0  0  0  0  0  0  0
   -6.9367   -1.5307    4.2977 H   0  0  0  0  0  0  0  0  0  0  0  0
   -5.5947   -0.7055    5.1101 H   0  0  0  0  0  0  0  0  0  0  0  0
   -2.1392    0.4151    2.8722 H   0  0  0  0  0  0  0  0  0  0  0  0
  1  2  1  0
  2  3  1  0
  3  4  1  0
  4  5  1  0
  5  6  1  0
  6  7  2  0
  7  8  1  0
  8  9  1  0
  9 10  2  0
  9 11  2  0
  9 12  1  0
 12 13  1  0
 13 14  1  0
 14 15  1  0
 15 16  1  0
 16 17  1  0
 17 18  1  0
 18 19  1  0
 15 20  1  0
 20 21  1  0
  8 22  2  0
 22 23  1  0
 23 24  1  0
 24 25  2  0
 25 26  1  0
 26 27  1  0
 27 28  2  0
 27 29  1  0
 29 30  1  0
 29 31  1  0
 31 32  2  0
 31 33  1  0
 33 34  1  0
 34 35  1  0
 35 36  1  0
 35 37  1  0
 33 38  1  0
 38 39  1  0
 23  5  2  0
 39 24  1  0
 21 12  1  0
 38 26  2  0
  1 40  1  0
  1 41  1  0
  1 42  1  0
  2 43  1  0
  2 44  1  0
  3 45  1  0
  3 46  1  0
  6 47  1  0
  7 48  1  0
 13 49  1  0
 13 50  1  0
 14 51  1  0
 14 52  1  0
 16 53  1  0
 16 54  1  0
 17 55  1  0
 17 56  1  0
 19 57  1  0
 19 58  1  0
 19 59  1  0
 20 60  1  0
 20 61  1  0
 21 62  1  0
 21 63  1  0
 22 64  1  0
 30 65  1  0
 30 66  1  0
 30 67  1  0
 34 68  1  0
 34 69  1  0
 35 70  1  0
 36 71  1  0
 36 72  1  0
 36 73  1  0
 37 74  1  0
 37 75  1  0
 37 76  1  0
 39 77  1  0
M  END
$$$$
