
     RDKit          3D

 50 52  0  0  0  0  0  0  0  0999 V2000
    4.3217   -0.1629   -2.7777 C   0  0  0  0  0  0  0  0  0  0  0  0
    3.1685   -0.1311   -1.7913 C   0  0  0  0  0  0  0  0  0  0  0  0
    3.6415    0.1742   -0.3729 C   0  0  0  0  0  0  0  0  0  0  0  0
    2.4911    0.1691    0.4760 O   0  0  0  0  0  0  0  0  0  0  0  0
    2.6932    0.3206    1.8291 C   0  0  0  0  0  0  0  0  0  0  0  0
    3.9371    0.6403    2.3939 C   0  0  0  0  0  0  0  0  0  0  0  0
    4.0787    0.7818    3.7765 C   0  0  0  0  0  0  0  0  0  0  0  0
    2.9815    0.6085    4.6107 C   0  0  0  0  0  0  0  0  0  0  0  0
    1.7389    0.2960    4.0614 C   0  0  0  0  0  0  0  0  0  0  0  0
    1.5699    0.1500    2.6722 C   0  0  0  0  0  0  0  0  0  0  0  0
    0.2213   -0.1780    2.1790 C   0  0  0  0  0  0  0  0  0  0  0  0
   -0.8564   -0.3978    2.9206 N   0  0  0  0  0  0  0  0  0  0  0  0
   -1.8752   -0.6621    2.0362 C   0  0  0  0  0  0  0  0  0  0  0  0
   -3.2576   -0.9812    2.3071 C   0  0  0  0  0  0  0  0  0  0  0  0
   -3.7113   -1.0769    3.4449 O   0  0  0  0  0  0  0  0  0  0  0  0
   -4.0136   -1.1816    1.1385 N   0  0  0  0  0  0  0  0  0  0  0  0
   -5.4109   -1.5280    1.3077 C   0  0  0  0  0  0  0  0  0  0  0  0
   -3.5310   -1.1682   -0.1872 C   0  0  0  0  0  0  0  0  0  0  0  0
   -4.2634   -1.4619   -1.1367 O   0  0  0  0  0  0  0  0  0  0  0  0
   -2.1820   -0.8123   -0.3842 N   0  0  0  0  0  0  0  0  0  0  0  0
   -1.6508   -0.7477   -1.7475 C   0  0  0  0  0  0  0  0  0  0  0  0
   -1.7631    0.6288   -2.4397 C   0  0  0  0  0  0  0  0  0  0  0  0
   -0.9633    1.7227   -1.7332 C   0  0  0  0  0  0  0  0  0  0  0  0
   -3.2085    1.0828   -2.6413 C   0  0  0  0  0  0  0  0  0  0  0  0
   -1.4255   -0.5973    0.7489 C   0  0  0  0  0  0  0  0  0  0  0  0
   -0.1014   -0.3001    0.8422 N   0  0  0  0  0  0  0  0  0  0  0  0
    3.9535   -0.3820   -3.7848 H   0  0  0  0  0  0  0  0  0  0  0  0
    4.8390    0.8014   -2.8075 H   0  0  0  0  0  0  0  0  0  0  0  0
    5.0488   -0.9349   -2.5064 H   0  0  0  0  0  0  0  0  0  0  0  0
    2.6399   -1.0919   -1.8040 H   0  0  0  0  0  0  0  0  0  0  0  0
    2.4340    0.6207   -2.1032 H   0  0  0  0  0  0  0  0  0  0  0  0
    4.3527   -0.5965   -0.0524 H   0  0  0  0  0  0  0  0  0  0  0  0
    4.1168    1.1619   -0.3522 H   0  0  0  0  0  0  0  0  0  0  0  0
    4.8230    0.7921    1.7862 H   0  0  0  0  0  0  0  0  0  0  0  0
    5.0485    1.0291    4.2016 H   0  0  0  0  0  0  0  0  0  0  0  0
    3.0864    0.7169    5.6872 H   0  0  0  0  0  0  0  0  0  0  0  0
    0.8857    0.1645    4.7270 H   0  0  0  0  0  0  0  0  0  0  0  0
   -5.5247   -2.6020    1.1286 H   0  0  0  0  0  0  0  0  0  0  0  0
   -6.0212   -0.9865    0.5776 H   0  0  0  0  0  0  0  0  0  0  0  0
   -5.7786   -1.2933    2.3100 H   0  0  0  0  0  0  0  0  0  0  0  0
   -0.6005   -1.0640   -1.7269 H   0  0  0  0  0  0  0  0  0  0  0  0
   -2.1723   -1.4931   -2.3609 H   0  0  0  0  0  0  0  0  0  0  0  0
   -1.3242    0.5078   -3.4394 H   0  0  0  0  0  0  0  0  0  0  0  0
   -1.3801    1.9602   -0.7495 H   0  0  0  0  0  0  0  0  0  0  0  0
   -0.9705    2.6451   -2.3243 H   0  0  0  0  0  0  0  0  0  0  0  0
    0.0814    1.4237   -1.6066 H   0  0  0  0  0  0  0  0  0  0  0  0
   -3.7868    0.3208   -3.1734 H   0  0  0  0  0  0  0  0  0  0  0  0
   -3.7041    1.2944   -1.6885 H   0  0  0  0  0  0  0  0  0  0  0  0
   -3.2428    1.9992   -3.2408 H   0  0  0  0  0  0  0  0  0  0  0  0
    0.5666   -0.1812    0.0940 H   0  0  0  0  0  0  0  0  0  0  0  0
  1  2  1  0
  2  3  1  0
  3  4  1  0
  4  5  1  0
  5  6  2  0
  6  7  1  0
  7  8  2  0
  8  9  1  0
  9 10  2  0
 10 11  1  0
 11 12  2  0
 12 13  1  0
 13 14  1  0
 14 15  2  0
 14 16  1  0
 16 17  1  0
 16 18  1  0
 18 19  2  0
 18 20  1  0
 20 21  1  0
 21 22  1  0
 22 23  1  0
 22 24  1  0
 20 25  1  0
 25 26  1  0
 10  5  1  0
 26 11  1  0
 25 13  2  0
  1 27  1  0
  1 28  1  0
  1 29  1  0
  2 30  1  0
  2 31  1  0
  3 32  1  0
  3 33  1  0
  6 34  1  0
  7 35  1  0
  8 36  1  0
  9 37  1  0
 17 38  1  0
 17 39  1  0
 17 40  1  0
 21 41  1  0
 21 42  1  0
 22 43  1  0
 23 44  1  0
 23 45  1  0
 23 46  1  0
 24 47  1  0
 24 48  1  0
 24 49  1  0
 26 50  1  0
M  END
$$$$
