


 26 29  0  0  0  0  0  0  0  0999 V2000
    2.1405   66.2651   84.3245 C   0  0  0  0  0  0  0  0  0  0  0  0
    1.4986   65.5310   85.2485 N   0  0  0  0  0  0  0  0  0  0  0  0
    0.4887   64.7481   84.8416 C   0  0  0  0  0  0  0  0  0  0  0  0
    0.0805   64.6412   83.5662 N   0  0  0  0  0  0  0  0  0  0  0  0
    0.7119   65.3803   82.6517 C   0  0  0  0  0  0  0  0  0  0  0  0
    0.2966   65.2931   81.3282 C   0  0  0  0  0  0  0  0  0  0  0  0
    0.8977   66.0408   80.3121 C   0  0  0  0  0  0  0  0  0  0  0  0
    1.9391   66.9048   80.6183 C   0  0  0  0  0  0  0  0  0  0  0  0
    2.3748   67.0078   81.9374 C   0  0  0  0  0  0  0  0  0  0  0  0
    1.7710   66.2391   82.9673 C   0  0  0  0  0  0  0  0  0  0  0  0
   -0.2156   63.9481   85.8653 C   0  0  0  0  0  0  0  0  0  0  0  0
   -1.1746   62.9783   85.5124 C   0  0  0  0  0  0  0  0  0  0  0  0
   -1.8425   62.2215   86.4812 C   0  0  0  0  0  0  0  0  0  0  0  0
   -1.5668   62.4177   87.8308 C   0  0  0  0  0  0  0  0  0  0  0  0
   -0.6251   63.3685   88.2117 C   0  0  0  0  0  0  0  0  0  0  0  0
    0.0410   64.1227   87.2400 C   0  0  0  0  0  0  0  0  0  0  0  0
    3.2384   67.0777   84.7227 N   0  0  0  0  0  0  0  0  0  0  0  0
    3.2208   67.9322   84.1764 H   0  0  0  0  0  0  0  0  0  0  0  0
    6.2611   65.7340   86.4963 C   0  0  0  0  0  0  0  0  0  0  0  0
    7.2521   66.0311   85.5629 C   0  0  0  0  0  0  0  0  0  0  0  0
    6.9135   66.6687   84.3691 C   0  0  0  0  0  0  0  0  0  0  0  0
    5.5829   66.9975   84.1006 C   0  0  0  0  0  0  0  0  0  0  0  0
    4.5635   66.6735   85.0065 C   0  0  0  0  0  0  0  0  0  0  0  0
    4.9305   66.0697   86.2163 C   0  0  0  0  0  0  0  0  0  0  0  0
    5.5607   65.4840   88.7557 C   0  0  0  0  0  0  0  0  0  0  0  0
    6.4561   65.1315   87.7097 O   0  0  0  0  0  0  0  0  0  0  0  0
 25 26  1  0  0  0
 26 19  1  0  0  0
 19 20  1  0  0  0
 20 21  2  0  0  0
 21 22  1  0  0  0
 22 23  2  0  0  0
 23 17  1  0  0  0
 17  1  1  0  0  0
  1  2  1  0  0  0
  2  3  2  0  0  0
  3 11  1  0  0  0
 11 12  2  0  0  0
 12 13  1  0  0  0
 13 14  2  0  0  0
 14 15  1  0  0  0
 15 16  2  0  0  0
  3  4  1  0  0  0
  4  5  2  0  0  0
  5  6  1  0  0  0
  6  7  2  0  0  0
  7  8  1  0  0  0
  8  9  2  0  0  0
  9 10  1  0  0  0
 23 24  1  0  0  0
 24 19  2  0  0  0
 10  1  2  0  0  0
 16 11  1  0  0  0
 10  5  1  0  0  0
 17 18  1  0  0  0
M  END
> <minimizedAffinity>
-10.31623

$$$$



 26 29  0  0  0  0  0  0  0  0999 V2000
    1.7615   66.3465   83.5503 C   0  0  0  0  0  0  0  0  0  0  0  0
    1.2633   65.6930   84.6130 N   0  0  0  0  0  0  0  0  0  0  0  0
    0.3925   64.6979   84.3897 C   0  0  0  0  0  0  0  0  0  0  0  0
   -0.0095   64.3033   83.1701 N   0  0  0  0  0  0  0  0  0  0  0  0
    0.4778   64.9617   82.1163 C   0  0  0  0  0  0  0  0  0  0  0  0
    0.0650   64.5767   80.8463 C   0  0  0  0  0  0  0  0  0  0  0  0
    0.5195   65.2206   79.6923 C   0  0  0  0  0  0  0  0  0  0  0  0
    1.4066   66.2819   79.8012 C   0  0  0  0  0  0  0  0  0  0  0  0
    1.8368   66.6848   81.0634 C   0  0  0  0  0  0  0  0  0  0  0  0
    1.3833   66.0224   82.2347 C   0  0  0  0  0  0  0  0  0  0  0  0
   -0.1550   63.9878   85.5645 C   0  0  0  0  0  0  0  0  0  0  0  0
   -1.1187   62.9693   85.4276 C   0  0  0  0  0  0  0  0  0  0  0  0
   -1.6381   62.2975   86.5395 C   0  0  0  0  0  0  0  0  0  0  0  0
   -1.2052   62.6300   87.8193 C   0  0  0  0  0  0  0  0  0  0  0  0
   -0.2547   63.6320   87.9878 C   0  0  0  0  0  0  0  0  0  0  0  0
    0.2627   64.3008   86.8736 C   0  0  0  0  0  0  0  0  0  0  0  0
    2.7141   67.3831   83.7562 N   0  0  0  0  0  0  0  0  0  0  0  0
    2.8748   67.8525   82.8715 H   0  0  0  0  0  0  0  0  0  0  0  0
    6.0066   66.3105   85.2043 C   0  0  0  0  0  0  0  0  0  0  0  0
    6.1376   67.2335   86.2398 C   0  0  0  0  0  0  0  0  0  0  0  0
    5.1439   68.1905   86.4474 C   0  0  0  0  0  0  0  0  0  0  0  0
    4.0252   68.2349   85.6124 C   0  0  0  0  0  0  0  0  0  0  0  0
    3.8903   67.3422   84.5402 C   0  0  0  0  0  0  0  0  0  0  0  0
    4.8797   66.3643   84.3742 C   0  0  0  0  0  0  0  0  0  0  0  0
    8.2418   65.6943   84.6728 C   0  0  0  0  0  0  0  0  0  0  0  0
    6.8924   65.3115   84.9027 O   0  0  0  0  0  0  0  0  0  0  0  0
 25 26  1  0  0  0
 26 19  1  0  0  0
 19 20  1  0  0  0
 20 21  2  0  0  0
 21 22  1  0  0  0
 22 23  2  0  0  0
 23 17  1  0  0  0
 17  1  1  0  0  0
  1  2  1  0  0  0
  2  3  2  0  0  0
  3 11  1  0  0  0
 11 12  2  0  0  0
 12 13  1  0  0  0
 13 14  2  0  0  0
 14 15  1  0  0  0
 15 16  2  0  0  0
  3  4  1  0  0  0
  4  5  2  0  0  0
  5  6  1  0  0  0
  6  7  2  0  0  0
  7  8  1  0  0  0
  8  9  2  0  0  0
  9 10  1  0  0  0
 23 24  1  0  0  0
 24 19  2  0  0  0
 10  1  2  0  0  0
 16 11  1  0  0  0
 10  5  1  0  0  0
 17 18  1  0  0  0
M  END
> <minimizedAffinity>
-10.05650

$$$$



 26 29  0  0  0  0  0  0  0  0999 V2000
   -0.3057   62.9287   83.6922 C   0  0  0  0  0  0  0  0  0  0  0  0
    0.1788   63.9110   82.9145 N   0  0  0  0  0  0  0  0  0  0  0  0
    0.6665   65.0070   83.5137 C   0  0  0  0  0  0  0  0  0  0  0  0
    0.7117   65.1854   84.8445 N   0  0  0  0  0  0  0  0  0  0  0  0
    0.2190   64.2133   85.6149 C   0  0  0  0  0  0  0  0  0  0  0  0
    0.2454   64.3838   86.9940 C   0  0  0  0  0  0  0  0  0  0  0  0
   -0.2594   63.4189   87.8698 C   0  0  0  0  0  0  0  0  0  0  0  0
   -0.8118   62.2516   87.3626 C   0  0  0  0  0  0  0  0  0  0  0  0
   -0.8475   62.0567   85.9837 C   0  0  0  0  0  0  0  0  0  0  0  0
   -0.3237   63.0325   85.0951 C   0  0  0  0  0  0  0  0  0  0  0  0
    1.1925   66.0853   82.6506 C   0  0  0  0  0  0  0  0  0  0  0  0
    1.7353   67.2663   83.1938 C   0  0  0  0  0  0  0  0  0  0  0  0
    2.2323   68.2877   82.3772 C   0  0  0  0  0  0  0  0  0  0  0  0
    2.1976   68.1522   80.9928 C   0  0  0  0  0  0  0  0  0  0  0  0
    1.6672   66.9978   80.4256 C   0  0  0  0  0  0  0  0  0  0  0  0
    1.1718   65.9785   81.2455 C   0  0  0  0  0  0  0  0  0  0  0  0
   -0.7970   61.7397   83.0846 N   0  0  0  0  0  0  0  0  0  0  0  0
   -0.1138   61.0026   83.2214 H   0  0  0  0  0  0  0  0  0  0  0  0
   -1.4830   61.0654   79.4564 C   0  0  0  0  0  0  0  0  0  0  0  0
   -2.8010   61.5078   79.3641 C   0  0  0  0  0  0  0  0  0  0  0  0
   -3.4420   62.0217   80.4916 C   0  0  0  0  0  0  0  0  0  0  0  0
   -2.7716   62.0812   81.7155 C   0  0  0  0  0  0  0  0  0  0  0  0
   -1.4591   61.6059   81.8421 C   0  0  0  0  0  0  0  0  0  0  0  0
   -0.8207   61.1312   80.6889 C   0  0  0  0  0  0  0  0  0  0  0  0
   -1.2628   59.4391   77.7346 C   0  0  0  0  0  0  0  0  0  0  0  0
   -0.7323   60.5596   78.4298 O   0  0  0  0  0  0  0  0  0  0  0  0
 25 26  1  0  0  0
 26 19  1  0  0  0
 19 20  1  0  0  0
 20 21  2  0  0  0
 21 22  1  0  0  0
 22 23  2  0  0  0
 23 17  1  0  0  0
 17  1  1  0  0  0
  1  2  1  0  0  0
  2  3  2  0  0  0
  3 11  1  0  0  0
 11 12  2  0  0  0
 12 13  1  0  0  0
 13 14  2  0  0  0
 14 15  1  0  0  0
 15 16  2  0  0  0
  3  4  1  0  0  0
  4  5  2  0  0  0
  5  6  1  0  0  0
  6  7  2  0  0  0
  7  8  1  0  0  0
  8  9  2  0  0  0
  9 10  1  0  0  0
 23 24  1  0  0  0
 24 19  2  0  0  0
 10  1  2  0  0  0
 16 11  1  0  0  0
 10  5  1  0  0  0
 17 18  1  0  0  0
M  END
> <minimizedAffinity>
-9.83120

$$$$



 26 29  0  0  0  0  0  0  0  0999 V2000
    0.9346   65.0403   84.4032 C   0  0  0  0  0  0  0  0  0  0  0  0
    0.8956   64.7646   83.0890 N   0  0  0  0  0  0  0  0  0  0  0  0
    0.2719   63.6436   82.6983 C   0  0  0  0  0  0  0  0  0  0  0  0
   -0.3266   62.7795   83.5350 N   0  0  0  0  0  0  0  0  0  0  0  0
   -0.2764   63.0494   84.8411 C   0  0  0  0  0  0  0  0  0  0  0  0
   -0.8792   62.1615   85.7243 C   0  0  0  0  0  0  0  0  0  0  0  0
   -0.8626   62.3653   87.1067 C   0  0  0  0  0  0  0  0  0  0  0  0
   -0.2247   63.4809   87.6297 C   0  0  0  0  0  0  0  0  0  0  0  0
    0.3847   64.3867   86.7643 C   0  0  0  0  0  0  0  0  0  0  0  0
    0.3573   64.1847   85.3591 C   0  0  0  0  0  0  0  0  0  0  0  0
    0.2383   63.3449   81.2512 C   0  0  0  0  0  0  0  0  0  0  0  0
    0.2914   62.0221   80.7697 C   0  0  0  0  0  0  0  0  0  0  0  0
    0.2608   61.7389   79.4000 C   0  0  0  0  0  0  0  0  0  0  0  0
    0.1768   62.7757   78.4759 C   0  0  0  0  0  0  0  0  0  0  0  0
    0.1233   64.0932   78.9198 C   0  0  0  0  0  0  0  0  0  0  0  0
    0.1535   64.3722   80.2901 C   0  0  0  0  0  0  0  0  0  0  0  0
    1.5590   66.2407   84.8429 N   0  0  0  0  0  0  0  0  0  0  0  0
    0.9057   67.0068   84.7199 H   0  0  0  0  0  0  0  0  0  0  0  0
    5.3110   66.3343   84.7941 C   0  0  0  0  0  0  0  0  0  0  0  0
    5.5233   67.6207   84.3028 C   0  0  0  0  0  0  0  0  0  0  0  0
    4.4335   68.4367   83.9979 C   0  0  0  0  0  0  0  0  0  0  0  0
    3.1308   67.9633   84.1704 C   0  0  0  0  0  0  0  0  0  0  0  0
    2.8923   66.6592   84.6258 C   0  0  0  0  0  0  0  0  0  0  0  0
    4.0001   65.8711   84.9639 C   0  0  0  0  0  0  0  0  0  0  0  0
    7.6313   65.8226   84.9056 C   0  0  0  0  0  0  0  0  0  0  0  0
    6.2844   65.4402   85.1500 O   0  0  0  0  0  0  0  0  0  0  0  0
 25 26  1  0  0  0
 26 19  1  0  0  0
 19 20  1  0  0  0
 20 21  2  0  0  0
 21 22  1  0  0  0
 22 23  2  0  0  0
 23 17  1  0  0  0
 17  1  1  0  0  0
  1  2  1  0  0  0
  2  3  2  0  0  0
  3 11  1  0  0  0
 11 12  2  0  0  0
 12 13  1  0  0  0
 13 14  2  0  0  0
 14 15  1  0  0  0
 15 16  2  0  0  0
  3  4  1  0  0  0
  4  5  2  0  0  0
  5  6  1  0  0  0
  6  7  2  0  0  0
  7  8  1  0  0  0
  8  9  2  0  0  0
  9 10  1  0  0  0
 23 24  1  0  0  0
 24 19  2  0  0  0
 10  1  2  0  0  0
 16 11  1  0  0  0
 10  5  1  0  0  0
 17 18  1  0  0  0
M  END
> <minimizedAffinity>
-9.80081

$$$$



 26 29  0  0  0  0  0  0  0  0999 V2000
    2.3027   66.2440   83.8860 C   0  0  0  0  0  0  0  0  0  0  0  0
    1.6763   67.2653   83.2785 N   0  0  0  0  0  0  0  0  0  0  0  0
    2.2735   68.4660   83.2872 C   0  0  0  0  0  0  0  0  0  0  0  0
    3.4646   68.7148   83.8566 N   0  0  0  0  0  0  0  0  0  0  0  0
    4.0796   67.7014   84.4699 C   0  0  0  0  0  0  0  0  0  0  0  0
    5.3073   67.9411   85.0757 C   0  0  0  0  0  0  0  0  0  0  0  0
    6.0109   66.9375   85.7469 C   0  0  0  0  0  0  0  0  0  0  0  0
    5.4789   65.6584   85.8239 C   0  0  0  0  0  0  0  0  0  0  0  0
    4.2508   65.3930   85.2224 C   0  0  0  0  0  0  0  0  0  0  0  0
    3.5420   66.4105   84.5307 C   0  0  0  0  0  0  0  0  0  0  0  0
    1.5750   69.5853   82.6213 C   0  0  0  0  0  0  0  0  0  0  0  0
    0.5344   69.3609   81.6987 C   0  0  0  0  0  0  0  0  0  0  0  0
   -0.1263   70.4202   81.0672 C   0  0  0  0  0  0  0  0  0  0  0  0
    0.2397   71.7338   81.3439 C   0  0  0  0  0  0  0  0  0  0  0  0
    1.2642   71.9884   82.2503 C   0  0  0  0  0  0  0  0  0  0  0  0
    1.9220   70.9266   82.8800 C   0  0  0  0  0  0  0  0  0  0  0  0
    1.7088   64.9514   83.8617 N   0  0  0  0  0  0  0  0  0  0  0  0
    1.4992   64.7119   82.8985 H   0  0  0  0  0  0  0  0  0  0  0  0
   -0.0725   63.9084   86.9966 C   0  0  0  0  0  0  0  0  0  0  0  0
   -1.1448   63.2040   86.4531 C   0  0  0  0  0  0  0  0  0  0  0  0
   -1.2649   63.0807   85.0686 C   0  0  0  0  0  0  0  0  0  0  0  0
   -0.3216   63.6727   84.2256 C   0  0  0  0  0  0  0  0  0  0  0  0
    0.7436   64.4193   84.7478 C   0  0  0  0  0  0  0  0  0  0  0  0
    0.8676   64.4967   86.1411 C   0  0  0  0  0  0  0  0  0  0  0  0
    0.3770   62.9196   89.1128 C   0  0  0  0  0  0  0  0  0  0  0  0
    0.1757   64.0890   88.3305 O   0  0  0  0  0  0  0  0  0  0  0  0
 25 26  1  0  0  0
 26 19  1  0  0  0
 19 20  1  0  0  0
 20 21  2  0  0  0
 21 22  1  0  0  0
 22 23  2  0  0  0
 23 17  1  0  0  0
 17  1  1  0  0  0
  1  2  1  0  0  0
  2  3  2  0  0  0
  3 11  1  0  0  0
 11 12  2  0  0  0
 12 13  1  0  0  0
 13 14  2  0  0  0
 14 15  1  0  0  0
 15 16  2  0  0  0
  3  4  1  0  0  0
  4  5  2  0  0  0
  5  6  1  0  0  0
  6  7  2  0  0  0
  7  8  1  0  0  0
  8  9  2  0  0  0
  9 10  1  0  0  0
 23 24  1  0  0  0
 24 19  2  0  0  0
 10  1  2  0  0  0
 16 11  1  0  0  0
 10  5  1  0  0  0
 17 18  1  0  0  0
M  END
> <minimizedAffinity>
-9.79662

$$$$



 26 29  0  0  0  0  0  0  0  0999 V2000
   -0.1802   63.3134   84.0358 C   0  0  0  0  0  0  0  0  0  0  0  0
   -0.7727   62.7520   82.9688 N   0  0  0  0  0  0  0  0  0  0  0  0
   -1.9353   62.1111   83.1579 C   0  0  0  0  0  0  0  0  0  0  0  0
   -2.5542   62.0004   84.3452 N   0  0  0  0  0  0  0  0  0  0  0  0
   -1.9579   62.5487   85.4059 C   0  0  0  0  0  0  0  0  0  0  0  0
   -2.5760   62.4347   86.6455 C   0  0  0  0  0  0  0  0  0  0  0  0
   -2.0130   62.9714   87.8065 C   0  0  0  0  0  0  0  0  0  0  0  0
   -0.7977   63.6372   87.7371 C   0  0  0  0  0  0  0  0  0  0  0  0
   -0.1599   63.7665   86.5054 C   0  0  0  0  0  0  0  0  0  0  0  0
   -0.7384   63.2309   85.3244 C   0  0  0  0  0  0  0  0  0  0  0  0
   -2.5777   61.4915   81.9799 C   0  0  0  0  0  0  0  0  0  0  0  0
   -2.6450   60.0927   81.8270 C   0  0  0  0  0  0  0  0  0  0  0  0
   -3.2520   59.5057   80.7115 C   0  0  0  0  0  0  0  0  0  0  0  0
   -3.8073   60.3066   79.7184 C   0  0  0  0  0  0  0  0  0  0  0  0
   -3.7564   61.6916   79.8400 C   0  0  0  0  0  0  0  0  0  0  0  0
   -3.1493   62.2747   80.9571 C   0  0  0  0  0  0  0  0  0  0  0  0
    1.0361   64.0298   83.8581 N   0  0  0  0  0  0  0  0  0  0  0  0
    1.6630   63.7930   84.6196 H   0  0  0  0  0  0  0  0  0  0  0  0
    1.0936   67.1486   81.7704 C   0  0  0  0  0  0  0  0  0  0  0  0
    1.7071   68.0319   82.6562 C   0  0  0  0  0  0  0  0  0  0  0  0
    2.0937   67.5902   83.9218 C   0  0  0  0  0  0  0  0  0  0  0  0
    1.8552   66.2695   84.3087 C   0  0  0  0  0  0  0  0  0  0  0  0
    1.2042   65.3733   83.4497 C   0  0  0  0  0  0  0  0  0  0  0  0
    0.8607   65.8263   82.1693 C   0  0  0  0  0  0  0  0  0  0  0  0
   -0.7104   67.3570   80.2340 C   0  0  0  0  0  0  0  0  0  0  0  0
    0.6835   67.4431   80.4981 O   0  0  0  0  0  0  0  0  0  0  0  0
 25 26  1  0  0  0
 26 19  1  0  0  0
 19 20  1  0  0  0
 20 21  2  0  0  0
 21 22  1  0  0  0
 22 23  2  0  0  0
 23 17  1  0  0  0
 17  1  1  0  0  0
  1  2  1  0  0  0
  2  3  2  0  0  0
  3 11  1  0  0  0
 11 12  2  0  0  0
 12 13  1  0  0  0
 13 14  2  0  0  0
 14 15  1  0  0  0
 15 16  2  0  0  0
  3  4  1  0  0  0
  4  5  2  0  0  0
  5  6  1  0  0  0
  6  7  2  0  0  0
  7  8  1  0  0  0
  8  9  2  0  0  0
  9 10  1  0  0  0
 23 24  1  0  0  0
 24 19  2  0  0  0
 10  1  2  0  0  0
 16 11  1  0  0  0
 10  5  1  0  0  0
 17 18  1  0  0  0
M  END
> <minimizedAffinity>
-9.79470

$$$$



 26 29  0  0  0  0  0  0  0  0999 V2000
    0.0242   63.5504   83.1523 C   0  0  0  0  0  0  0  0  0  0  0  0
   -0.5629   63.0160   82.0686 N   0  0  0  0  0  0  0  0  0  0  0  0
   -0.5796   63.7393   80.9395 C   0  0  0  0  0  0  0  0  0  0  0  0
   -0.0385   64.9628   80.8163 N   0  0  0  0  0  0  0  0  0  0  0  0
    0.5339   65.4965   81.8974 C   0  0  0  0  0  0  0  0  0  0  0  0
    1.0889   66.7665   81.7939 C   0  0  0  0  0  0  0  0  0  0  0  0
    1.6973   67.4002   82.8807 C   0  0  0  0  0  0  0  0  0  0  0  0
    1.7529   66.7571   84.1088 C   0  0  0  0  0  0  0  0  0  0  0  0
    1.2055   65.4824   84.2369 C   0  0  0  0  0  0  0  0  0  0  0  0
    0.5978   64.8347   83.1290 C   0  0  0  0  0  0  0  0  0  0  0  0
   -1.2323   63.1463   79.7535 C   0  0  0  0  0  0  0  0  0  0  0  0
   -0.8212   63.4710   78.4458 C   0  0  0  0  0  0  0  0  0  0  0  0
   -1.4395   62.9109   77.3228 C   0  0  0  0  0  0  0  0  0  0  0  0
   -2.4880   62.0101   77.4814 C   0  0  0  0  0  0  0  0  0  0  0  0
   -2.9177   61.6694   78.7601 C   0  0  0  0  0  0  0  0  0  0  0  0
   -2.2965   62.2311   79.8804 C   0  0  0  0  0  0  0  0  0  0  0  0
    0.0874   62.7909   84.3537 N   0  0  0  0  0  0  0  0  0  0  0  0
    0.3724   61.8454   84.1219 H   0  0  0  0  0  0  0  0  0  0  0  0
   -1.3134   62.9829   87.8307 C   0  0  0  0  0  0  0  0  0  0  0  0
   -2.6484   62.6718   87.5807 C   0  0  0  0  0  0  0  0  0  0  0  0
   -3.0666   62.4022   86.2773 C   0  0  0  0  0  0  0  0  0  0  0  0
   -2.1546   62.4567   85.2209 C   0  0  0  0  0  0  0  0  0  0  0  0
   -0.8153   62.8059   85.4423 C   0  0  0  0  0  0  0  0  0  0  0  0
   -0.4080   63.0334   86.7633 C   0  0  0  0  0  0  0  0  0  0  0  0
    0.6103   62.9436   89.2292 C   0  0  0  0  0  0  0  0  0  0  0  0
   -0.7673   63.2483   89.0574 O   0  0  0  0  0  0  0  0  0  0  0  0
 25 26  1  0  0  0
 26 19  1  0  0  0
 19 20  1  0  0  0
 20 21  2  0  0  0
 21 22  1  0  0  0
 22 23  2  0  0  0
 23 17  1  0  0  0
 17  1  1  0  0  0
  1  2  1  0  0  0
  2  3  2  0  0  0
  3 11  1  0  0  0
 11 12  2  0  0  0
 12 13  1  0  0  0
 13 14  2  0  0  0
 14 15  1  0  0  0
 15 16  2  0  0  0
  3  4  1  0  0  0
  4  5  2  0  0  0
  5  6  1  0  0  0
  6  7  2  0  0  0
  7  8  1  0  0  0
  8  9  2  0  0  0
  9 10  1  0  0  0
 23 24  1  0  0  0
 24 19  2  0  0  0
 10  1  2  0  0  0
 16 11  1  0  0  0
 10  5  1  0  0  0
 17 18  1  0  0  0
M  END
> <minimizedAffinity>
-9.79331

$$$$



 26 29  0  0  0  0  0  0  0  0999 V2000
    0.0855   63.2383   82.0159 C   0  0  0  0  0  0  0  0  0  0  0  0
   -0.0899   62.8584   83.2924 N   0  0  0  0  0  0  0  0  0  0  0  0
    0.0897   63.7760   84.2537 C   0  0  0  0  0  0  0  0  0  0  0  0
    0.4253   65.0565   84.0245 N   0  0  0  0  0  0  0  0  0  0  0  0
    0.6105   65.4288   82.7563 C   0  0  0  0  0  0  0  0  0  0  0  0
    0.9701   66.7464   82.4988 C   0  0  0  0  0  0  0  0  0  0  0  0
    1.1927   67.2137   81.2008 C   0  0  0  0  0  0  0  0  0  0  0  0
    1.0597   66.3470   80.1256 C   0  0  0  0  0  0  0  0  0  0  0  0
    0.6978   65.0220   80.3581 C   0  0  0  0  0  0  0  0  0  0  0  0
    0.4605   64.5510   81.6765 C   0  0  0  0  0  0  0  0  0  0  0  0
   -0.0999   63.3483   85.6556 C   0  0  0  0  0  0  0  0  0  0  0  0
    0.4557   64.0720   86.7290 C   0  0  0  0  0  0  0  0  0  0  0  0
    0.2775   63.6669   88.0562 C   0  0  0  0  0  0  0  0  0  0  0  0
   -0.4626   62.5240   88.3425 C   0  0  0  0  0  0  0  0  0  0  0  0
   -1.0238   61.7872   87.3043 C   0  0  0  0  0  0  0  0  0  0  0  0
   -0.8439   62.1958   85.9787 C   0  0  0  0  0  0  0  0  0  0  0  0
   -0.1328   62.2945   80.9739 N   0  0  0  0  0  0  0  0  0  0  0  0
    0.4914   62.5141   80.2051 H   0  0  0  0  0  0  0  0  0  0  0  0
   -2.6867   60.3661   79.0124 C   0  0  0  0  0  0  0  0  0  0  0  0
   -3.8614   60.9137   79.5238 C   0  0  0  0  0  0  0  0  0  0  0  0
   -3.7969   61.9072   80.5011 C   0  0  0  0  0  0  0  0  0  0  0  0
   -2.5592   62.3446   80.9783 C   0  0  0  0  0  0  0  0  0  0  0  0
   -1.3653   61.7810   80.5077 C   0  0  0  0  0  0  0  0  0  0  0  0
   -1.4515   60.8136   79.4980 C   0  0  0  0  0  0  0  0  0  0  0  0
   -1.3035   59.0346   77.6080 C   0  0  0  0  0  0  0  0  0  0  0  0
   -2.6055   59.4040   78.0422 O   0  0  0  0  0  0  0  0  0  0  0  0
 25 26  1  0  0  0
 26 19  1  0  0  0
 19 20  1  0  0  0
 20 21  2  0  0  0
 21 22  1  0  0  0
 22 23  2  0  0  0
 23 17  1  0  0  0
 17  1  1  0  0  0
  1  2  1  0  0  0
  2  3  2  0  0  0
  3 11  1  0  0  0
 11 12  2  0  0  0
 12 13  1  0  0  0
 13 14  2  0  0  0
 14 15  1  0  0  0
 15 16  2  0  0  0
  3  4  1  0  0  0
  4  5  2  0  0  0
  5  6  1  0  0  0
  6  7  2  0  0  0
  7  8  1  0  0  0
  8  9  2  0  0  0
  9 10  1  0  0  0
 23 24  1  0  0  0
 24 19  2  0  0  0
 10  1  2  0  0  0
 16 11  1  0  0  0
 10  5  1  0  0  0
 17 18  1  0  0  0
M  END
> <minimizedAffinity>
-9.76170

$$$$



 26 29  0  0  0  0  0  0  0  0999 V2000
   -0.1527   64.8426   82.6380 C   0  0  0  0  0  0  0  0  0  0  0  0
   -0.3676   64.1220   83.7512 N   0  0  0  0  0  0  0  0  0  0  0  0
    0.3207   64.4470   84.8552 C   0  0  0  0  0  0  0  0  0  0  0  0
    1.2069   65.4542   84.9256 N   0  0  0  0  0  0  0  0  0  0  0  0
    1.4275   66.1613   83.8153 C   0  0  0  0  0  0  0  0  0  0  0  0
    2.3497   67.2000   83.8641 C   0  0  0  0  0  0  0  0  0  0  0  0
    2.6457   67.9814   82.7440 C   0  0  0  0  0  0  0  0  0  0  0  0
    2.0117   67.7219   81.5375 C   0  0  0  0  0  0  0  0  0  0  0  0
    1.0815   66.6875   81.4642 C   0  0  0  0  0  0  0  0  0  0  0  0
    0.7729   65.9015   82.6058 C   0  0  0  0  0  0  0  0  0  0  0  0
    0.0824   63.6456   86.0740 C   0  0  0  0  0  0  0  0  0  0  0  0
   -0.7644   62.5198   86.0626 C   0  0  0  0  0  0  0  0  0  0  0  0
   -0.9912   61.7616   87.2163 C   0  0  0  0  0  0  0  0  0  0  0  0
   -0.3749   62.1129   88.4132 C   0  0  0  0  0  0  0  0  0  0  0  0
    0.4668   63.2200   88.4572 C   0  0  0  0  0  0  0  0  0  0  0  0
    0.6914   63.9751   87.3014 C   0  0  0  0  0  0  0  0  0  0  0  0
   -0.8950   64.5423   81.4619 N   0  0  0  0  0  0  0  0  0  0  0  0
   -1.8332   64.9123   81.5705 H   0  0  0  0  0  0  0  0  0  0  0  0
   -1.7431   61.0945   80.2447 C   0  0  0  0  0  0  0  0  0  0  0  0
   -0.7450   60.9134   79.2895 C   0  0  0  0  0  0  0  0  0  0  0  0
    0.1903   61.9231   79.0618 C   0  0  0  0  0  0  0  0  0  0  0  0
    0.1212   63.1200   79.7783 C   0  0  0  0  0  0  0  0  0  0  0  0
   -0.8970   63.3408   80.7161 C   0  0  0  0  0  0  0  0  0  0  0  0
   -1.8015   62.2986   80.9577 C   0  0  0  0  0  0  0  0  0  0  0  0
   -2.8501   59.8746   81.9607 C   0  0  0  0  0  0  0  0  0  0  0  0
   -2.7075   60.1832   80.5806 O   0  0  0  0  0  0  0  0  0  0  0  0
 25 26  1  0  0  0
 26 19  1  0  0  0
 19 20  1  0  0  0
 20 21  2  0  0  0
 21 22  1  0  0  0
 22 23  2  0  0  0
 23 17  1  0  0  0
 17  1  1  0  0  0
  1  2  1  0  0  0
  2  3  2  0  0  0
  3 11  1  0  0  0
 11 12  2  0  0  0
 12 13  1  0  0  0
 13 14  2  0  0  0
 14 15  1  0  0  0
 15 16  2  0  0  0
  3  4  1  0  0  0
  4  5  2  0  0  0
  5  6  1  0  0  0
  6  7  2  0  0  0
  7  8  1  0  0  0
  8  9  2  0  0  0
  9 10  1  0  0  0
 23 24  1  0  0  0
 24 19  2  0  0  0
 10  1  2  0  0  0
 16 11  1  0  0  0
 10  5  1  0  0  0
 17 18  1  0  0  0
M  END
> <minimizedAffinity>
-9.74562

$$$$
