


 35 38  0  0  0  0  0  0  0  0999 V2000
    2.3378   67.2119   83.5623 C   0  0  0  0  0  0  0  0  0  0  0  0
    1.8151   67.9786   82.5048 C   0  0  0  0  0  0  0  0  0  0  0  0
    2.5287   69.0645   81.9968 C   0  0  0  0  0  0  0  0  0  0  0  0
    3.7820   69.3904   82.5107 C   0  0  0  0  0  0  0  0  0  0  0  0
    4.3184   68.6333   83.5543 C   0  0  0  0  0  0  0  0  0  0  0  0
    3.6094   67.5465   84.0889 C   0  0  0  0  0  0  0  0  0  0  0  0
   -0.6063   63.3431   83.8949 N   0  0  0  0  0  0  0  0  0  0  0  0
   -1.0921   62.5384   84.9303 C   0  0  0  0  0  0  0  0  0  0  0  0
   -1.7939   61.5472   84.7069 O   0  0  0  0  0  0  0  0  0  0  0  0
   -0.7456   62.9033   86.2490 N   0  0  0  0  0  0  0  0  0  0  0  0
   -1.2707   62.0640   87.3075 C   0  0  0  0  0  0  0  0  0  0  0  0
    0.0894   63.9654   86.6054 C   0  0  0  0  0  0  0  0  0  0  0  0
    0.4096   64.2551   87.7535 O   0  0  0  0  0  0  0  0  0  0  0  0
    0.5499   64.6939   85.4818 C   0  0  0  0  0  0  0  0  0  0  0  0
    1.3721   65.7747   85.3996 N   0  0  0  0  0  0  0  0  0  0  0  0
    1.5157   66.0974   84.0637 C   0  0  0  0  0  0  0  0  0  0  0  0
    0.8065   65.2552   83.3205 N   0  0  0  0  0  0  0  0  0  0  0  0
    0.2197   64.3982   84.1999 C   0  0  0  0  0  0  0  0  0  0  0  0
    1.8106   66.2696   86.1665 H   0  0  0  0  0  0  0  0  0  0  0  0
   -0.9108   63.0071   82.5082 C   0  0  0  0  0  0  0  0  0  0  0  0
   -3.0527   62.5730   81.2548 C   0  0  0  0  0  0  0  0  0  0  0  0
   -2.2586   63.5806   82.0693 C   0  0  0  0  0  0  0  0  0  0  0  0
    1.8659   70.0181   80.6541 S   0  0  0  0  0  0  0  0  0  0  0  0
    0.8406   69.2421   79.9912 O   0  0  0  0  0  0  0  0  0  0  0  0
    2.9897   70.5516   79.9126 O   0  0  0  0  0  0  0  0  0  0  0  0
    1.1044   71.3165   81.4581 N   0  0  0  0  0  0  0  0  0  0  0  0
   -0.3650   71.4646   81.1814 C   0  0  0  0  0  0  0  0  0  0  0  0
   -0.8591   72.8745   81.5536 C   0  0  0  0  0  0  0  0  0  0  0  0
   -0.2389   73.9343   80.7333 N   0  0  0  0  0  0  0  0  0  0  0  0
   -0.3193   75.2255   81.4105 C   0  0  0  0  0  0  0  0  0  0  0  0
    1.1483   73.5887   80.3602 C   0  0  0  0  0  0  0  0  0  0  0  0
    1.8465   72.6173   81.3289 C   0  0  0  0  0  0  0  0  0  0  0  0
    4.0808   66.7666   85.1181 O   0  0  0  0  0  0  0  0  0  0  0  0
    5.2478   65.9768   84.8845 C   0  0  0  0  0  0  0  0  0  0  0  0
    5.5283   65.1816   86.1471 C   0  0  0  0  0  0  0  0  0  0  0  0
 21 22  1  0  0  0
 22 20  1  0  0  0
 20  7  1  0  0  0
  7  8  1  0  0  0
  8  9  2  0  0  0
  8 10  1  0  0  0
 10 11  1  0  0  0
 10 12  1  0  0  0
 12 13  2  0  0  0
 12 14  1  0  0  0
 14 15  1  0  0  0
 15 16  1  0  0  0
 16  1  1  0  0  0
  1  2  1  0  0  0
  2  3  2  0  0  0
  3 23  1  0  0  0
 23 24  2  0  0  0
 23 25  2  0  0  0
 23 26  1  0  0  0
 26 27  1  0  0  0
 27 28  1  0  0  0
 28 29  1  0  0  0
 29 30  1  0  0  0
 29 31  1  0  0  0
 31 32  1  0  0  0
  3  4  1  0  0  0
  4  5  2  0  0  0
  5  6  1  0  0  0
  6 33  1  0  0  0
 33 34  1  0  0  0
 34 35  1  0  0  0
 16 17  2  0  0  0
 17 18  1  0  0  0
 18  7  1  0  0  0
 18 14  2  0  0  0
  6  1  2  0  0  0
 32 26  1  0  0  0
 15 19  1  0  0  0
M  END
> <minimizedAffinity>
-9.86178

$$$$



 35 38  0  0  0  0  0  0  0  0999 V2000
    2.4388   66.8335   84.0436 C   0  0  0  0  0  0  0  0  0  0  0  0
    1.9598   67.8351   83.1794 C   0  0  0  0  0  0  0  0  0  0  0  0
    2.7908   68.8814   82.7780 C   0  0  0  0  0  0  0  0  0  0  0  0
    4.1158   68.9364   83.2051 C   0  0  0  0  0  0  0  0  0  0  0  0
    4.6088   67.9447   84.0556 C   0  0  0  0  0  0  0  0  0  0  0  0
    3.7843   66.8923   84.4826 C   0  0  0  0  0  0  0  0  0  0  0  0
   -0.7811   63.1760   84.0280 N   0  0  0  0  0  0  0  0  0  0  0  0
   -1.4229   62.4005   84.9988 C   0  0  0  0  0  0  0  0  0  0  0  0
   -2.1646   61.4617   84.6931 O   0  0  0  0  0  0  0  0  0  0  0  0
   -1.1872   62.7322   86.3503 N   0  0  0  0  0  0  0  0  0  0  0  0
   -1.8726   61.9247   87.3396 C   0  0  0  0  0  0  0  0  0  0  0  0
   -0.3219   63.7316   86.8026 C   0  0  0  0  0  0  0  0  0  0  0  0
   -0.1002   63.9913   87.9808 O   0  0  0  0  0  0  0  0  0  0  0  0
    0.2985   64.4335   85.7406 C   0  0  0  0  0  0  0  0  0  0  0  0
    1.1966   65.4552   85.7556 N   0  0  0  0  0  0  0  0  0  0  0  0
    1.4961   65.7756   84.4453 C   0  0  0  0  0  0  0  0  0  0  0  0
    0.8098   64.9892   83.6235 N   0  0  0  0  0  0  0  0  0  0  0  0
    0.0800   64.1694   84.4282 C   0  0  0  0  0  0  0  0  0  0  0  0
    1.5882   65.9137   86.5691 H   0  0  0  0  0  0  0  0  0  0  0  0
   -0.9663   62.8706   82.6134 C   0  0  0  0  0  0  0  0  0  0  0  0
   -3.0477   62.5453   81.2318 C   0  0  0  0  0  0  0  0  0  0  0  0
   -2.2284   63.5271   82.0528 C   0  0  0  0  0  0  0  0  0  0  0  0
    2.1803   70.1336   81.6776 S   0  0  0  0  0  0  0  0  0  0  0  0
    0.8049   70.4253   82.0187 O   0  0  0  0  0  0  0  0  0  0  0  0
    2.5441   69.7362   80.3334 O   0  0  0  0  0  0  0  0  0  0  0  0
    3.1247   71.4918   82.0964 N   0  0  0  0  0  0  0  0  0  0  0  0
    2.4965   72.4222   83.0952 C   0  0  0  0  0  0  0  0  0  0  0  0
    3.1752   73.8040   83.0676 C   0  0  0  0  0  0  0  0  0  0  0  0
    3.0004   74.5028   81.7785 N   0  0  0  0  0  0  0  0  0  0  0  0
    4.0307   75.5219   81.5994 C   0  0  0  0  0  0  0  0  0  0  0  0
    2.9574   73.5522   80.6483 C   0  0  0  0  0  0  0  0  0  0  0  0
    3.6845   72.2204   80.9068 C   0  0  0  0  0  0  0  0  0  0  0  0
    4.2086   65.8898   85.3220 O   0  0  0  0  0  0  0  0  0  0  0  0
    5.6014   65.5739   85.3436 C   0  0  0  0  0  0  0  0  0  0  0  0
    6.0470   65.5467   86.7947 C   0  0  0  0  0  0  0  0  0  0  0  0
 21 22  1  0  0  0
 22 20  1  0  0  0
 20  7  1  0  0  0
  7  8  1  0  0  0
  8  9  2  0  0  0
  8 10  1  0  0  0
 10 11  1  0  0  0
 10 12  1  0  0  0
 12 13  2  0  0  0
 12 14  1  0  0  0
 14 15  1  0  0  0
 15 16  1  0  0  0
 16  1  1  0  0  0
  1  2  1  0  0  0
  2  3  2  0  0  0
  3 23  1  0  0  0
 23 24  2  0  0  0
 23 25  2  0  0  0
 23 26  1  0  0  0
 26 27  1  0  0  0
 27 28  1  0  0  0
 28 29  1  0  0  0
 29 30  1  0  0  0
 29 31  1  0  0  0
 31 32  1  0  0  0
  3  4  1  0  0  0
  4  5  2  0  0  0
  5  6  1  0  0  0
  6 33  1  0  0  0
 33 34  1  0  0  0
 34 35  1  0  0  0
 16 17  2  0  0  0
 17 18  1  0  0  0
 18  7  1  0  0  0
 18 14  2  0  0  0
  6  1  2  0  0  0
 32 26  1  0  0  0
 15 19  1  0  0  0
M  END
> <minimizedAffinity>
-9.64674

$$$$



 35 38  0  0  0  0  0  0  0  0999 V2000
    0.5255   64.8668   82.6359 C   0  0  0  0  0  0  0  0  0  0  0  0
    1.0139   65.9863   81.9376 C   0  0  0  0  0  0  0  0  0  0  0  0
    1.6150   67.0422   82.6234 C   0  0  0  0  0  0  0  0  0  0  0  0
    1.7652   66.9926   84.0076 C   0  0  0  0  0  0  0  0  0  0  0  0
    1.2939   65.8840   84.7139 C   0  0  0  0  0  0  0  0  0  0  0  0
    0.6729   64.8187   84.0439 C   0  0  0  0  0  0  0  0  0  0  0  0
   -0.7819   61.8224   79.0627 N   0  0  0  0  0  0  0  0  0  0  0  0
   -1.6524   60.7348   78.9400 C   0  0  0  0  0  0  0  0  0  0  0  0
   -1.7341   60.0841   77.8936 O   0  0  0  0  0  0  0  0  0  0  0  0
   -2.4376   60.4054   80.0657 N   0  0  0  0  0  0  0  0  0  0  0  0
   -3.3426   59.2838   79.9126 C   0  0  0  0  0  0  0  0  0  0  0  0
   -2.3772   61.0361   81.3110 C   0  0  0  0  0  0  0  0  0  0  0  0
   -3.0420   60.7217   82.2928 O   0  0  0  0  0  0  0  0  0  0  0  0
   -1.4437   62.1007   81.3352 C   0  0  0  0  0  0  0  0  0  0  0  0
   -1.0863   62.9464   82.3391 N   0  0  0  0  0  0  0  0  0  0  0  0
   -0.1205   63.8037   81.8474 C   0  0  0  0  0  0  0  0  0  0  0  0
    0.1259   63.5179   80.5737 N   0  0  0  0  0  0  0  0  0  0  0  0
   -0.6897   62.4715   80.2705 C   0  0  0  0  0  0  0  0  0  0  0  0
   -1.4499   62.9627   83.2840 H   0  0  0  0  0  0  0  0  0  0  0  0
    0.0727   62.2004   77.9423 C   0  0  0  0  0  0  0  0  0  0  0  0
   -0.3406   64.5718   77.1989 C   0  0  0  0  0  0  0  0  0  0  0  0
   -0.6595   63.1067   76.9521 C   0  0  0  0  0  0  0  0  0  0  0  0
    2.2390   68.4447   81.7317 S   0  0  0  0  0  0  0  0  0  0  0  0
    2.2010   68.1527   80.3153 O   0  0  0  0  0  0  0  0  0  0  0  0
    3.4730   68.8460   82.3747 O   0  0  0  0  0  0  0  0  0  0  0  0
    1.0670   69.6430   82.0525 N   0  0  0  0  0  0  0  0  0  0  0  0
    0.1034   69.9094   80.9308 C   0  0  0  0  0  0  0  0  0  0  0  0
   -0.5946   71.2698   81.1120 C   0  0  0  0  0  0  0  0  0  0  0  0
    0.3434   72.4084   81.0469 N   0  0  0  0  0  0  0  0  0  0  0  0
   -0.2233   73.5829   81.7039 C   0  0  0  0  0  0  0  0  0  0  0  0
    1.6682   72.0511   81.5947 C   0  0  0  0  0  0  0  0  0  0  0  0
    1.6455   70.9071   82.6243 C   0  0  0  0  0  0  0  0  0  0  0  0
    0.1846   63.7035   84.6822 O   0  0  0  0  0  0  0  0  0  0  0  0
    0.2217   63.6743   86.1098 C   0  0  0  0  0  0  0  0  0  0  0  0
   -0.7670   62.6209   86.5766 C   0  0  0  0  0  0  0  0  0  0  0  0
 21 22  1  0  0  0
 22 20  1  0  0  0
 20  7  1  0  0  0
  7  8  1  0  0  0
  8  9  2  0  0  0
  8 10  1  0  0  0
 10 11  1  0  0  0
 10 12  1  0  0  0
 12 13  2  0  0  0
 12 14  1  0  0  0
 14 15  1  0  0  0
 15 16  1  0  0  0
 16  1  1  0  0  0
  1  2  1  0  0  0
  2  3  2  0  0  0
  3 23  1  0  0  0
 23 24  2  0  0  0
 23 25  2  0  0  0
 23 26  1  0  0  0
 26 27  1  0  0  0
 27 28  1  0  0  0
 28 29  1  0  0  0
 29 30  1  0  0  0
 29 31  1  0  0  0
 31 32  1  0  0  0
  3  4  1  0  0  0
  4  5  2  0  0  0
  5  6  1  0  0  0
  6 33  1  0  0  0
 33 34  1  0  0  0
 34 35  1  0  0  0
 16 17  2  0  0  0
 17 18  1  0  0  0
 18  7  1  0  0  0
 18 14  2  0  0  0
  6  1  2  0  0  0
 32 26  1  0  0  0
 15 19  1  0  0  0
M  END
> <minimizedAffinity>
-9.45324

$$$$



 35 38  0  0  0  0  0  0  0  0999 V2000
    2.3915   66.9004   83.9735 C   0  0  0  0  0  0  0  0  0  0  0  0
    1.8626   67.8816   83.1150 C   0  0  0  0  0  0  0  0  0  0  0  0
    2.6557   68.9431   82.6785 C   0  0  0  0  0  0  0  0  0  0  0  0
    3.9914   69.0338   83.0643 C   0  0  0  0  0  0  0  0  0  0  0  0
    4.5336   68.0627   83.9086 C   0  0  0  0  0  0  0  0  0  0  0  0
    3.7479   66.9955   84.3705 C   0  0  0  0  0  0  0  0  0  0  0  0
   -0.7653   63.1902   84.0913 N   0  0  0  0  0  0  0  0  0  0  0  0
   -1.3458   62.3984   85.0872 C   0  0  0  0  0  0  0  0  0  0  0  0
   -2.0863   61.4492   84.8118 O   0  0  0  0  0  0  0  0  0  0  0  0
   -1.0495   62.7260   86.4277 N   0  0  0  0  0  0  0  0  0  0  0  0
   -1.6722   61.9014   87.4439 C   0  0  0  0  0  0  0  0  0  0  0  0
   -0.1794   63.7369   86.8437 C   0  0  0  0  0  0  0  0  0  0  0  0
    0.0956   63.9933   88.0113 O   0  0  0  0  0  0  0  0  0  0  0  0
    0.3765   64.4553   85.7573 C   0  0  0  0  0  0  0  0  0  0  0  0
    1.2576   65.4917   85.7351 N   0  0  0  0  0  0  0  0  0  0  0  0
    1.4870   65.8246   84.4138 C   0  0  0  0  0  0  0  0  0  0  0  0
    0.7740   65.0318   83.6215 N   0  0  0  0  0  0  0  0  0  0  0  0
    0.0981   64.1954   84.4555 C   0  0  0  0  0  0  0  0  0  0  0  0
    1.6811   65.9518   86.5315 H   0  0  0  0  0  0  0  0  0  0  0  0
   -1.0148   62.8900   82.6855 C   0  0  0  0  0  0  0  0  0  0  0  0
    0.2094   62.1465   80.6129 C   0  0  0  0  0  0  0  0  0  0  0  0
    0.0444   61.9490   82.1106 C   0  0  0  0  0  0  0  0  0  0  0  0
    1.9822   70.1693   81.5856 S   0  0  0  0  0  0  0  0  0  0  0  0
    3.0717   70.8720   80.9434 O   0  0  0  0  0  0  0  0  0  0  0  0
    0.9666   70.8898   82.3249 O   0  0  0  0  0  0  0  0  0  0  0  0
    1.1970   69.2236   80.4017 N   0  0  0  0  0  0  0  0  0  0  0  0
   -0.0633   68.5456   80.8596 C   0  0  0  0  0  0  0  0  0  0  0  0
   -0.4415   67.3867   79.9192 C   0  0  0  0  0  0  0  0  0  0  0  0
    0.5597   66.3013   79.9158 N   0  0  0  0  0  0  0  0  0  0  0  0
    0.4508   65.5017   78.6988 C   0  0  0  0  0  0  0  0  0  0  0  0
    1.9268   66.8245   80.1158 C   0  0  0  0  0  0  0  0  0  0  0  0
    2.1212   68.2866   79.6755 C   0  0  0  0  0  0  0  0  0  0  0  0
    4.2214   66.0119   85.2060 O   0  0  0  0  0  0  0  0  0  0  0  0
    5.2057   66.3696   86.1773 C   0  0  0  0  0  0  0  0  0  0  0  0
    5.1798   65.3170   87.2712 C   0  0  0  0  0  0  0  0  0  0  0  0
 21 22  1  0  0  0
 22 20  1  0  0  0
 20  7  1  0  0  0
  7  8  1  0  0  0
  8  9  2  0  0  0
  8 10  1  0  0  0
 10 11  1  0  0  0
 10 12  1  0  0  0
 12 13  2  0  0  0
 12 14  1  0  0  0
 14 15  1  0  0  0
 15 16  1  0  0  0
 16  1  1  0  0  0
  1  2  1  0  0  0
  2  3  2  0  0  0
  3 23  1  0  0  0
 23 24  2  0  0  0
 23 25  2  0  0  0
 23 26  1  0  0  0
 26 27  1  0  0  0
 27 28  1  0  0  0
 28 29  1  0  0  0
 29 30  1  0  0  0
 29 31  1  0  0  0
 31 32  1  0  0  0
  3  4  1  0  0  0
  4  5  2  0  0  0
  5  6  1  0  0  0
  6 33  1  0  0  0
 33 34  1  0  0  0
 34 35  1  0  0  0
 16 17  2  0  0  0
 17 18  1  0  0  0
 18  7  1  0  0  0
 18 14  2  0  0  0
  6  1  2  0  0  0
 32 26  1  0  0  0
 15 19  1  0  0  0
M  END
> <minimizedAffinity>
-9.36923

$$$$



 35 38  0  0  0  0  0  0  0  0999 V2000
    0.5437   65.1682   82.1695 C   0  0  0  0  0  0  0  0  0  0  0  0
    1.1347   66.3564   81.7022 C   0  0  0  0  0  0  0  0  0  0  0  0
    1.7099   67.2606   82.5955 C   0  0  0  0  0  0  0  0  0  0  0  0
    1.7317   66.9887   83.9618 C   0  0  0  0  0  0  0  0  0  0  0  0
    1.1572   65.8092   84.4402 C   0  0  0  0  0  0  0  0  0  0  0  0
    0.5605   64.8942   83.5592 C   0  0  0  0  0  0  0  0  0  0  0  0
   -2.4329   62.1072   79.8210 N   0  0  0  0  0  0  0  0  0  0  0  0
   -2.4618   61.5077   78.5579 C   0  0  0  0  0  0  0  0  0  0  0  0
   -3.4097   60.8040   78.1954 O   0  0  0  0  0  0  0  0  0  0  0  0
   -1.3605   61.7409   77.7066 N   0  0  0  0  0  0  0  0  0  0  0  0
   -1.4045   61.0994   76.4078 C   0  0  0  0  0  0  0  0  0  0  0  0
   -0.2711   62.5669   77.9953 C   0  0  0  0  0  0  0  0  0  0  0  0
    0.6663   62.7877   77.2355 O   0  0  0  0  0  0  0  0  0  0  0  0
   -0.3569   63.1473   79.2841 C   0  0  0  0  0  0  0  0  0  0  0  0
    0.4811   64.0012   79.9317 N   0  0  0  0  0  0  0  0  0  0  0  0
   -0.0670   64.2751   81.1702 C   0  0  0  0  0  0  0  0  0  0  0  0
   -1.2118   63.6156   81.3094 N   0  0  0  0  0  0  0  0  0  0  0  0
   -1.3805   62.9286   80.1468 C   0  0  0  0  0  0  0  0  0  0  0  0
    1.3546   64.3800   79.5871 H   0  0  0  0  0  0  0  0  0  0  0  0
   -3.5511   61.9226   80.7398 C   0  0  0  0  0  0  0  0  0  0  0  0
   -2.8911   60.7574   82.8738 C   0  0  0  0  0  0  0  0  0  0  0  0
   -3.4639   60.5857   81.4768 C   0  0  0  0  0  0  0  0  0  0  0  0
    2.4640   68.7511   81.9945 S   0  0  0  0  0  0  0  0  0  0  0  0
    2.6039   68.6575   80.5576 O   0  0  0  0  0  0  0  0  0  0  0  0
    3.6109   69.0200   82.8368 O   0  0  0  0  0  0  0  0  0  0  0  0
    1.2784   69.9316   82.3310 N   0  0  0  0  0  0  0  0  0  0  0  0
    0.1760   70.0361   81.3154 C   0  0  0  0  0  0  0  0  0  0  0  0
   -0.5645   71.3804   81.4385 C   0  0  0  0  0  0  0  0  0  0  0  0
    0.2994   72.5401   81.1394 N   0  0  0  0  0  0  0  0  0  0  0  0
   -0.2448   73.7571   81.7353 C   0  0  0  0  0  0  0  0  0  0  0  0
    1.6965   72.2961   81.5535 C   0  0  0  0  0  0  0  0  0  0  0  0
    1.8551   71.2720   82.6917 C   0  0  0  0  0  0  0  0  0  0  0  0
   -0.0249   63.7197   83.9683 O   0  0  0  0  0  0  0  0  0  0  0  0
   -0.0817   63.4478   85.3693 C   0  0  0  0  0  0  0  0  0  0  0  0
   -0.8267   62.1382   85.5564 C   0  0  0  0  0  0  0  0  0  0  0  0
 21 22  1  0  0  0
 22 20  1  0  0  0
 20  7  1  0  0  0
  7  8  1  0  0  0
  8  9  2  0  0  0
  8 10  1  0  0  0
 10 11  1  0  0  0
 10 12  1  0  0  0
 12 13  2  0  0  0
 12 14  1  0  0  0
 14 15  1  0  0  0
 15 16  1  0  0  0
 16  1  1  0  0  0
  1  2  1  0  0  0
  2  3  2  0  0  0
  3 23  1  0  0  0
 23 24  2  0  0  0
 23 25  2  0  0  0
 23 26  1  0  0  0
 26 27  1  0  0  0
 27 28  1  0  0  0
 28 29  1  0  0  0
 29 30  1  0  0  0
 29 31  1  0  0  0
 31 32  1  0  0  0
  3  4  1  0  0  0
  4  5  2  0  0  0
  5  6  1  0  0  0
  6 33  1  0  0  0
 33 34  1  0  0  0
 34 35  1  0  0  0
 16 17  2  0  0  0
 17 18  1  0  0  0
 18  7  1  0  0  0
 18 14  2  0  0  0
  6  1  2  0  0  0
 32 26  1  0  0  0
 15 19  1  0  0  0
M  END
> <minimizedAffinity>
-9.29995

$$$$



 35 38  0  0  0  0  0  0  0  0999 V2000
    2.1897   66.7385   83.8139 C   0  0  0  0  0  0  0  0  0  0  0  0
    1.7556   67.8078   83.0091 C   0  0  0  0  0  0  0  0  0  0  0  0
    2.5891   68.9018   82.7746 C   0  0  0  0  0  0  0  0  0  0  0  0
    3.8740   68.9404   83.3118 C   0  0  0  0  0  0  0  0  0  0  0  0
    4.3227   67.8825   84.1051 C   0  0  0  0  0  0  0  0  0  0  0  0
    3.4940   66.7801   84.3649 C   0  0  0  0  0  0  0  0  0  0  0  0
   -0.7644   63.4423   85.8520 N   0  0  0  0  0  0  0  0  0  0  0  0
   -1.6182   62.4371   85.3869 C   0  0  0  0  0  0  0  0  0  0  0  0
   -2.3226   61.7768   86.1567 O   0  0  0  0  0  0  0  0  0  0  0  0
   -1.6462   62.2060   83.9948 N   0  0  0  0  0  0  0  0  0  0  0  0
   -2.5274   61.1510   83.5356 C   0  0  0  0  0  0  0  0  0  0  0  0
   -0.9378   62.9347   83.0359 C   0  0  0  0  0  0  0  0  0  0  0  0
   -0.9933   62.7460   81.8251 O   0  0  0  0  0  0  0  0  0  0  0  0
   -0.1304   63.9462   83.6106 C   0  0  0  0  0  0  0  0  0  0  0  0
    0.6927   64.8620   83.0320 N   0  0  0  0  0  0  0  0  0  0  0  0
    1.2452   65.6309   84.0384 C   0  0  0  0  0  0  0  0  0  0  0  0
    0.7942   65.2171   85.2175 N   0  0  0  0  0  0  0  0  0  0  0  0
   -0.0493   64.1850   84.9434 C   0  0  0  0  0  0  0  0  0  0  0  0
    0.8814   64.9769   82.0438 H   0  0  0  0  0  0  0  0  0  0  0  0
   -0.7056   63.7448   87.2780 C   0  0  0  0  0  0  0  0  0  0  0  0
    0.2205   62.2829   89.1090 C   0  0  0  0  0  0  0  0  0  0  0  0
    0.5569   63.1758   87.9262 C   0  0  0  0  0  0  0  0  0  0  0  0
    2.0365   70.2402   81.7476 S   0  0  0  0  0  0  0  0  0  0  0  0
    0.6989   70.6168   82.1502 O   0  0  0  0  0  0  0  0  0  0  0  0
    2.3242   69.8743   80.3763 O   0  0  0  0  0  0  0  0  0  0  0  0
    3.0928   71.5073   82.1847 N   0  0  0  0  0  0  0  0  0  0  0  0
    2.5037   72.5411   83.1023 C   0  0  0  0  0  0  0  0  0  0  0  0
    3.3291   73.8406   83.0746 C   0  0  0  0  0  0  0  0  0  0  0  0
    3.3186   74.4980   81.7524 N   0  0  0  0  0  0  0  0  0  0  0  0
    4.4635   75.3935   81.6116 C   0  0  0  0  0  0  0  0  0  0  0  0
    3.2487   73.5098   80.6564 C   0  0  0  0  0  0  0  0  0  0  0  0
    3.8075   72.1206   81.0132 C   0  0  0  0  0  0  0  0  0  0  0  0
    3.8754   65.7114   85.1407 O   0  0  0  0  0  0  0  0  0  0  0  0
    5.2693   65.5227   85.3886 C   0  0  0  0  0  0  0  0  0  0  0  0
    5.4379   65.2057   86.8639 C   0  0  0  0  0  0  0  0  0  0  0  0
 21 22  1  0  0  0
 22 20  1  0  0  0
 20  7  1  0  0  0
  7  8  1  0  0  0
  8  9  2  0  0  0
  8 10  1  0  0  0
 10 11  1  0  0  0
 10 12  1  0  0  0
 12 13  2  0  0  0
 12 14  1  0  0  0
 14 15  1  0  0  0
 15 16  1  0  0  0
 16  1  1  0  0  0
  1  2  1  0  0  0
  2  3  2  0  0  0
  3 23  1  0  0  0
 23 24  2  0  0  0
 23 25  2  0  0  0
 23 26  1  0  0  0
 26 27  1  0  0  0
 27 28  1  0  0  0
 28 29  1  0  0  0
 29 30  1  0  0  0
 29 31  1  0  0  0
 31 32  1  0  0  0
  3  4  1  0  0  0
  4  5  2  0  0  0
  5  6  1  0  0  0
  6 33  1  0  0  0
 33 34  1  0  0  0
 34 35  1  0  0  0
 16 17  2  0  0  0
 17 18  1  0  0  0
 18  7  1  0  0  0
 18 14  2  0  0  0
  6  1  2  0  0  0
 32 26  1  0  0  0
 15 19  1  0  0  0
M  END
> <minimizedAffinity>
-9.29091

$$$$



 35 38  0  0  0  0  0  0  0  0999 V2000
    0.5310   65.0856   81.9034 C   0  0  0  0  0  0  0  0  0  0  0  0
    0.3157   64.3593   80.7179 C   0  0  0  0  0  0  0  0  0  0  0  0
    0.6632   64.9032   79.4809 C   0  0  0  0  0  0  0  0  0  0  0  0
    1.2533   66.1628   79.4023 C   0  0  0  0  0  0  0  0  0  0  0  0
    1.4819   66.8922   80.5710 C   0  0  0  0  0  0  0  0  0  0  0  0
    1.1257   66.3687   81.8235 C   0  0  0  0  0  0  0  0  0  0  0  0
   -1.7983   62.4666   85.2888 N   0  0  0  0  0  0  0  0  0  0  0  0
   -1.6237   62.2069   86.6518 C   0  0  0  0  0  0  0  0  0  0  0  0
   -2.3551   61.4204   87.2612 O   0  0  0  0  0  0  0  0  0  0  0  0
   -0.5715   62.8807   87.3083 N   0  0  0  0  0  0  0  0  0  0  0  0
   -0.4168   62.6075   88.7232 C   0  0  0  0  0  0  0  0  0  0  0  0
    0.3473   63.7401   86.7004 C   0  0  0  0  0  0  0  0  0  0  0  0
    1.2777   64.2965   87.2743 O   0  0  0  0  0  0  0  0  0  0  0  0
    0.0991   63.9084   85.3164 C   0  0  0  0  0  0  0  0  0  0  0  0
    0.7558   64.6437   84.3789 N   0  0  0  0  0  0  0  0  0  0  0  0
    0.1145   64.4579   83.1691 C   0  0  0  0  0  0  0  0  0  0  0  0
   -0.9174   63.6370   83.3302 N   0  0  0  0  0  0  0  0  0  0  0  0
   -0.9167   63.3052   84.6501 C   0  0  0  0  0  0  0  0  0  0  0  0
    1.5698   65.2291   84.5204 H   0  0  0  0  0  0  0  0  0  0  0  0
   -2.8546   61.7855   84.5478 C   0  0  0  0  0  0  0  0  0  0  0  0
   -3.2380   60.1231   82.6941 C   0  0  0  0  0  0  0  0  0  0  0  0
   -2.3486   61.2414   83.2115 C   0  0  0  0  0  0  0  0  0  0  0  0
    0.3986   63.9736   77.9918 S   0  0  0  0  0  0  0  0  0  0  0  0
    1.5709   63.1674   77.7297 O   0  0  0  0  0  0  0  0  0  0  0  0
   -0.1068   64.8957   76.9960 O   0  0  0  0  0  0  0  0  0  0  0  0
   -0.8741   62.9237   78.4279 N   0  0  0  0  0  0  0  0  0  0  0  0
   -0.4538   61.5267   78.7875 C   0  0  0  0  0  0  0  0  0  0  0  0
   -1.6455   60.5544   78.7157 C   0  0  0  0  0  0  0  0  0  0  0  0
   -2.1912   60.4163   77.3506 N   0  0  0  0  0  0  0  0  0  0  0  0
   -3.5660   59.9257   77.3908 C   0  0  0  0  0  0  0  0  0  0  0  0
   -2.0739   61.6775   76.5900 C   0  0  0  0  0  0  0  0  0  0  0  0
   -2.0249   62.9457   77.4610 C   0  0  0  0  0  0  0  0  0  0  0  0
    1.3204   67.0385   83.0080 O   0  0  0  0  0  0  0  0  0  0  0  0
    2.2385   68.1326   83.0199 C   0  0  0  0  0  0  0  0  0  0  0  0
    2.8546   68.2041   84.4058 C   0  0  0  0  0  0  0  0  0  0  0  0
 21 22  1  0  0  0
 22 20  1  0  0  0
 20  7  1  0  0  0
  7  8  1  0  0  0
  8  9  2  0  0  0
  8 10  1  0  0  0
 10 11  1  0  0  0
 10 12  1  0  0  0
 12 13  2  0  0  0
 12 14  1  0  0  0
 14 15  1  0  0  0
 15 16  1  0  0  0
 16  1  1  0  0  0
  1  2  1  0  0  0
  2  3  2  0  0  0
  3 23  1  0  0  0
 23 24  2  0  0  0
 23 25  2  0  0  0
 23 26  1  0  0  0
 26 27  1  0  0  0
 27 28  1  0  0  0
 28 29  1  0  0  0
 29 30  1  0  0  0
 29 31  1  0  0  0
 31 32  1  0  0  0
  3  4  1  0  0  0
  4  5  2  0  0  0
  5  6  1  0  0  0
  6 33  1  0  0  0
 33 34  1  0  0  0
 34 35  1  0  0  0
 16 17  2  0  0  0
 17 18  1  0  0  0
 18  7  1  0  0  0
 18 14  2  0  0  0
  6  1  2  0  0  0
 32 26  1  0  0  0
 15 19  1  0  0  0
M  END
> <minimizedAffinity>
-9.28962

$$$$



 35 38  0  0  0  0  0  0  0  0999 V2000
    0.1285   63.9806   83.7175 C   0  0  0  0  0  0  0  0  0  0  0  0
    0.9229   65.1078   83.4384 C   0  0  0  0  0  0  0  0  0  0  0  0
    1.4534   65.8752   84.4758 C   0  0  0  0  0  0  0  0  0  0  0  0
    1.2270   65.5220   85.8044 C   0  0  0  0  0  0  0  0  0  0  0  0
    0.4482   64.4006   86.0976 C   0  0  0  0  0  0  0  0  0  0  0  0
   -0.1066   63.6246   85.0682 C   0  0  0  0  0  0  0  0  0  0  0  0
   -0.5671   61.9982   79.3207 N   0  0  0  0  0  0  0  0  0  0  0  0
   -1.5111   61.1424   78.7443 C   0  0  0  0  0  0  0  0  0  0  0  0
   -1.3951   60.7359   77.5840 O   0  0  0  0  0  0  0  0  0  0  0  0
   -2.6074   60.7564   79.5450 N   0  0  0  0  0  0  0  0  0  0  0  0
   -3.5806   59.8804   78.9239 C   0  0  0  0  0  0  0  0  0  0  0  0
   -2.8000   61.1089   80.8833 C   0  0  0  0  0  0  0  0  0  0  0  0
   -3.7407   60.7424   81.5799 O   0  0  0  0  0  0  0  0  0  0  0  0
   -1.7725   61.9497   81.3761 C   0  0  0  0  0  0  0  0  0  0  0  0
   -1.5878   62.4993   82.6068 N   0  0  0  0  0  0  0  0  0  0  0  0
   -0.4187   63.2351   82.5712 C   0  0  0  0  0  0  0  0  0  0  0  0
    0.1206   63.1612   81.3594 N   0  0  0  0  0  0  0  0  0  0  0  0
   -0.7168   62.3697   80.6353 C   0  0  0  0  0  0  0  0  0  0  0  0
   -2.1868   62.4005   83.4172 H   0  0  0  0  0  0  0  0  0  0  0  0
    0.6005   62.4167   78.5526 C   0  0  0  0  0  0  0  0  0  0  0  0
    0.9781   64.9040   78.4200 C   0  0  0  0  0  0  0  0  0  0  0  0
    0.3294   63.6973   77.7624 C   0  0  0  0  0  0  0  0  0  0  0  0
    2.4646   67.2884   84.1130 S   0  0  0  0  0  0  0  0  0  0  0  0
    2.4257   68.1930   85.2413 O   0  0  0  0  0  0  0  0  0  0  0  0
    2.1062   67.7413   82.7850 O   0  0  0  0  0  0  0  0  0  0  0  0
    4.0311   66.6162   84.0326 N   0  0  0  0  0  0  0  0  0  0  0  0
    4.3276   65.5643   85.0638 C   0  0  0  0  0  0  0  0  0  0  0  0
    5.8449   65.3532   85.2188 C   0  0  0  0  0  0  0  0  0  0  0  0
    6.5410   66.5512   85.7292 N   0  0  0  0  0  0  0  0  0  0  0  0
    7.9613   66.5060   85.3930 C   0  0  0  0  0  0  0  0  0  0  0  0
    5.8979   67.7944   85.2561 C   0  0  0  0  0  0  0  0  0  0  0  0
    5.1200   67.6479   83.9360 C   0  0  0  0  0  0  0  0  0  0  0  0
   -0.8847   62.5137   85.2918 O   0  0  0  0  0  0  0  0  0  0  0  0
   -1.3002   62.2410   86.6309 C   0  0  0  0  0  0  0  0  0  0  0  0
   -2.7448   62.6883   86.7669 C   0  0  0  0  0  0  0  0  0  0  0  0
 21 22  1  0  0  0
 22 20  1  0  0  0
 20  7  1  0  0  0
  7  8  1  0  0  0
  8  9  2  0  0  0
  8 10  1  0  0  0
 10 11  1  0  0  0
 10 12  1  0  0  0
 12 13  2  0  0  0
 12 14  1  0  0  0
 14 15  1  0  0  0
 15 16  1  0  0  0
 16  1  1  0  0  0
  1  2  1  0  0  0
  2  3  2  0  0  0
  3 23  1  0  0  0
 23 24  2  0  0  0
 23 25  2  0  0  0
 23 26  1  0  0  0
 26 27  1  0  0  0
 27 28  1  0  0  0
 28 29  1  0  0  0
 29 30  1  0  0  0
 29 31  1  0  0  0
 31 32  1  0  0  0
  3  4  1  0  0  0
  4  5  2  0  0  0
  5  6  1  0  0  0
  6 33  1  0  0  0
 33 34  1  0  0  0
 34 35  1  0  0  0
 16 17  2  0  0  0
 17 18  1  0  0  0
 18  7  1  0  0  0
 18 14  2  0  0  0
  6  1  2  0  0  0
 32 26  1  0  0  0
 15 19  1  0  0  0
M  END
> <minimizedAffinity>
-9.23015

$$$$



 35 38  0  0  0  0  0  0  0  0999 V2000
    2.4991   66.4844   83.9368 C   0  0  0  0  0  0  0  0  0  0  0  0
    2.2727   67.4188   82.9096 C   0  0  0  0  0  0  0  0  0  0  0  0
    3.1847   68.4480   82.6744 C   0  0  0  0  0  0  0  0  0  0  0  0
    4.3472   68.5510   83.4355 C   0  0  0  0  0  0  0  0  0  0  0  0
    4.5907   67.6257   84.4526 C   0  0  0  0  0  0  0  0  0  0  0  0
    3.6781   66.5922   84.7145 C   0  0  0  0  0  0  0  0  0  0  0  0
   -0.7235   63.4108   85.9150 N   0  0  0  0  0  0  0  0  0  0  0  0
   -1.6238   62.4549   85.4340 C   0  0  0  0  0  0  0  0  0  0  0  0
   -2.3935   61.8515   86.1878 O   0  0  0  0  0  0  0  0  0  0  0  0
   -1.6209   62.2061   84.0446 N   0  0  0  0  0  0  0  0  0  0  0  0
   -2.5519   61.2023   83.5692 C   0  0  0  0  0  0  0  0  0  0  0  0
   -0.8368   62.8748   83.1011 C   0  0  0  0  0  0  0  0  0  0  0  0
   -0.8645   62.6726   81.8916 O   0  0  0  0  0  0  0  0  0  0  0  0
    0.0141   63.8414   83.6901 C   0  0  0  0  0  0  0  0  0  0  0  0
    0.9122   64.6950   83.1282 N   0  0  0  0  0  0  0  0  0  0  0  0
    1.4793   65.4419   84.1431 C   0  0  0  0  0  0  0  0  0  0  0  0
    0.9647   65.0744   85.3113 N   0  0  0  0  0  0  0  0  0  0  0  0
    0.0666   64.0937   85.0218 C   0  0  0  0  0  0  0  0  0  0  0  0
    1.1400   64.7836   82.1456 H   0  0  0  0  0  0  0  0  0  0  0  0
   -0.6922   63.7295   87.3384 C   0  0  0  0  0  0  0  0  0  0  0  0
    0.1843   62.2199   89.1550 C   0  0  0  0  0  0  0  0  0  0  0  0
    0.5528   63.1597   88.0191 C   0  0  0  0  0  0  0  0  0  0  0  0
    2.8958   69.6147   81.3680 S   0  0  0  0  0  0  0  0  0  0  0  0
    2.0299   69.0066   80.3813 O   0  0  0  0  0  0  0  0  0  0  0  0
    4.1824   70.1620   80.9908 O   0  0  0  0  0  0  0  0  0  0  0  0
    2.0129   70.8453   82.1544 N   0  0  0  0  0  0  0  0  0  0  0  0
    0.6752   71.1590   81.5461 C   0  0  0  0  0  0  0  0  0  0  0  0
    0.1682   72.5384   82.0053 C   0  0  0  0  0  0  0  0  0  0  0  0
    1.0301   73.6470   81.5487 N   0  0  0  0  0  0  0  0  0  0  0  0
    0.8366   74.8294   82.3835 C   0  0  0  0  0  0  0  0  0  0  0  0
    2.4487   73.2392   81.4842 C   0  0  0  0  0  0  0  0  0  0  0  0
    2.8233   72.0815   82.4269 C   0  0  0  0  0  0  0  0  0  0  0  0
    3.8584   65.6545   85.7033 O   0  0  0  0  0  0  0  0  0  0  0  0
    5.1881   65.2096   85.9751 C   0  0  0  0  0  0  0  0  0  0  0  0
    5.4759   65.4806   87.4410 C   0  0  0  0  0  0  0  0  0  0  0  0
 21 22  1  0  0  0
 22 20  1  0  0  0
 20  7  1  0  0  0
  7  8  1  0  0  0
  8  9  2  0  0  0
  8 10  1  0  0  0
 10 11  1  0  0  0
 10 12  1  0  0  0
 12 13  2  0  0  0
 12 14  1  0  0  0
 14 15  1  0  0  0
 15 16  1  0  0  0
 16  1  1  0  0  0
  1  2  1  0  0  0
  2  3  2  0  0  0
  3 23  1  0  0  0
 23 24  2  0  0  0
 23 25  2  0  0  0
 23 26  1  0  0  0
 26 27  1  0  0  0
 27 28  1  0  0  0
 28 29  1  0  0  0
 29 30  1  0  0  0
 29 31  1  0  0  0
 31 32  1  0  0  0
  3  4  1  0  0  0
  4  5  2  0  0  0
  5  6  1  0  0  0
  6 33  1  0  0  0
 33 34  1  0  0  0
 34 35  1  0  0  0
 16 17  2  0  0  0
 17 18  1  0  0  0
 18  7  1  0  0  0
 18 14  2  0  0  0
  6  1  2  0  0  0
 32 26  1  0  0  0
 15 19  1  0  0  0
M  END
> <minimizedAffinity>
-9.20284

$$$$
