
     RDKit          3D

 74 77  0  0  0  0  0  0  0  0999 V2000
   -1.4606   -3.9943   -1.8608 C   0  0  0  0  0  0  0  0  0  0  0  0
   -1.6727   -3.1849   -3.1325 C   0  0  0  0  0  0  0  0  0  0  0  0
   -0.6316   -2.0793   -3.2980 C   0  0  0  0  0  0  0  0  0  0  0  0
   -0.7982   -1.1348   -2.2382 O   0  0  0  0  0  0  0  0  0  0  0  0
    0.0818   -0.0803   -2.1678 C   0  0  0  0  0  0  0  0  0  0  0  0
    1.0833    0.1578   -3.1211 C   0  0  0  0  0  0  0  0  0  0  0  0
    1.9512    1.2448   -2.9887 C   0  0  0  0  0  0  0  0  0  0  0  0
    1.8253    2.1012   -1.8962 C   0  0  0  0  0  0  0  0  0  0  0  0
    2.9054    3.5097   -1.7429 S   0  0  0  0  0  0  0  0  0  0  0  0
    2.1599    4.5630   -1.0894 O   0  0  0  0  0  0  0  0  0  0  0  0
    3.5142    3.7211   -3.0404 O   0  0  0  0  0  0  0  0  0  0  0  0
    4.1107    2.9725   -0.6890 N   0  0  0  0  0  0  0  0  0  0  0  0
    5.0639    1.9385   -1.1702 C   0  0  0  0  0  0  0  0  0  0  0  0
    4.9934    0.6539   -0.3208 C   0  0  0  0  0  0  0  0  0  0  0  0
    5.1970    0.8393    1.1325 N   0  0  0  0  0  0  0  0  0  0  0  0
    6.5294    0.4194    1.5886 C   0  0  0  0  0  0  0  0  0  0  0  0
    6.7086   -1.1065    1.6221 C   0  0  0  0  0  0  0  0  0  0  0  0
    7.9892   -1.4419    2.1517 O   0  0  0  0  0  0  0  0  0  0  0  0
    4.9291    2.2376    1.5406 C   0  0  0  0  0  0  0  0  0  0  0  0
    3.7695    2.8778    0.7563 C   0  0  0  0  0  0  0  0  0  0  0  0
    0.8127    1.8985   -0.9579 C   0  0  0  0  0  0  0  0  0  0  0  0
   -0.0593    0.8005   -1.0683 C   0  0  0  0  0  0  0  0  0  0  0  0
   -1.0729    0.6315   -0.0145 C   0  0  0  0  0  0  0  0  0  0  0  0
   -1.1491    1.3233    1.1138 N   0  0  0  0  0  0  0  0  0  0  0  0
   -2.2443    0.8312    1.7835 C   0  0  0  0  0  0  0  0  0  0  0  0
   -2.7751    1.2175    3.0701 C   0  0  0  0  0  0  0  0  0  0  0  0
   -2.2507    2.0723    3.7798 O   0  0  0  0  0  0  0  0  0  0  0  0
   -3.9319    0.5011    3.4240 N   0  0  0  0  0  0  0  0  0  0  0  0
   -4.5292    0.8117    4.7076 C   0  0  0  0  0  0  0  0  0  0  0  0
   -4.5107   -0.5664    2.7059 C   0  0  0  0  0  0  0  0  0  0  0  0
   -5.4577   -1.2092    3.1684 O   0  0  0  0  0  0  0  0  0  0  0  0
   -3.9614   -0.8750    1.4449 N   0  0  0  0  0  0  0  0  0  0  0  0
   -4.5557   -1.9538    0.6523 C   0  0  0  0  0  0  0  0  0  0  0  0
   -5.6688   -1.5242   -0.3284 C   0  0  0  0  0  0  0  0  0  0  0  0
   -5.1689   -0.5906   -1.4303 C   0  0  0  0  0  0  0  0  0  0  0  0
   -6.8810   -0.9104    0.3713 C   0  0  0  0  0  0  0  0  0  0  0  0
   -2.8444   -0.1615    1.0635 C   0  0  0  0  0  0  0  0  0  0  0  0
   -2.0979   -0.2918   -0.0662 N   0  0  0  0  0  0  0  0  0  0  0  0
   -1.5391   -3.3665   -0.9682 H   0  0  0  0  0  0  0  0  0  0  0  0
   -0.4742   -4.4690   -1.8601 H   0  0  0  0  0  0  0  0  0  0  0  0
   -2.2164   -4.7825   -1.7851 H   0  0  0  0  0  0  0  0  0  0  0  0
   -1.6302   -3.8560   -3.9973 H   0  0  0  0  0  0  0  0  0  0  0  0
   -2.6756   -2.7436   -3.1000 H   0  0  0  0  0  0  0  0  0  0  0  0
    0.3736   -2.5166   -3.2690 H   0  0  0  0  0  0  0  0  0  0  0  0
   -0.7977   -1.5847   -4.2621 H   0  0  0  0  0  0  0  0  0  0  0  0
    1.2142   -0.4804   -3.9896 H   0  0  0  0  0  0  0  0  0  0  0  0
    2.7122    1.4195   -3.7470 H   0  0  0  0  0  0  0  0  0  0  0  0
    6.0738    2.3637   -1.1264 H   0  0  0  0  0  0  0  0  0  0  0  0
    4.8797    1.6820   -2.2179 H   0  0  0  0  0  0  0  0  0  0  0  0
    5.6879   -0.0819   -0.7405 H   0  0  0  0  0  0  0  0  0  0  0  0
    3.9936    0.2183   -0.4445 H   0  0  0  0  0  0  0  0  0  0  0  0
    7.3226    0.8776    0.9831 H   0  0  0  0  0  0  0  0  0  0  0  0
    6.6975    0.7794    2.6130 H   0  0  0  0  0  0  0  0  0  0  0  0
    5.9436   -1.5809    2.2461 H   0  0  0  0  0  0  0  0  0  0  0  0
    6.6472   -1.5415    0.6209 H   0  0  0  0  0  0  0  0  0  0  0  0
    7.9866   -1.1892    3.0913 H   0  0  0  0  0  0  0  0  0  0  0  0
    4.6869    2.2512    2.6096 H   0  0  0  0  0  0  0  0  0  0  0  0
    5.8259    2.8567    1.3997 H   0  0  0  0  0  0  0  0  0  0  0  0
    3.5932    3.8864    1.1454 H   0  0  0  0  0  0  0  0  0  0  0  0
    2.8638    2.2835    0.9059 H   0  0  0  0  0  0  0  0  0  0  0  0
    0.6935    2.5966   -0.1286 H   0  0  0  0  0  0  0  0  0  0  0  0
   -4.2076    0.0543    5.4297 H   0  0  0  0  0  0  0  0  0  0  0  0
   -4.2323    1.7991    5.0712 H   0  0  0  0  0  0  0  0  0  0  0  0
   -5.6211    0.7829    4.6336 H   0  0  0  0  0  0  0  0  0  0  0  0
   -3.7549   -2.4613    0.1009 H   0  0  0  0  0  0  0  0  0  0  0  0
   -4.9644   -2.7064    1.3382 H   0  0  0  0  0  0  0  0  0  0  0  0
   -6.0153   -2.4420   -0.8225 H   0  0  0  0  0  0  0  0  0  0  0  0
   -4.8681    0.3835   -1.0326 H   0  0  0  0  0  0  0  0  0  0  0  0
   -4.3179   -1.0304   -1.9594 H   0  0  0  0  0  0  0  0  0  0  0  0
   -5.9579   -0.4137   -2.1696 H   0  0  0  0  0  0  0  0  0  0  0  0
   -7.6886   -0.7308   -0.3469 H   0  0  0  0  0  0  0  0  0  0  0  0
   -6.6371    0.0487    0.8389 H   0  0  0  0  0  0  0  0  0  0  0  0
   -7.2703   -1.5844    1.1410 H   0  0  0  0  0  0  0  0  0  0  0  0
   -2.2295   -0.9405   -0.8291 H   0  0  0  0  0  0  0  0  0  0  0  0
  1  2  1  0
  2  3  1  0
  3  4  1  0
  4  5  1  0
  5  6  1  0
  6  7  2  0
  7  8  1  0
  8  9  1  0
  9 10  2  0
  9 11  2  0
  9 12  1  0
 12 13  1  0
 13 14  1  0
 14 15  1  0
 15 16  1  0
 16 17  1  0
 17 18  1  0
 15 19  1  0
 19 20  1  0
  8 21  2  0
 21 22  1  0
 22 23  1  0
 23 24  2  0
 24 25  1  0
 25 26  1  0
 26 27  2  0
 26 28  1  0
 28 29  1  0
 28 30  1  0
 30 31  2  0
 30 32  1  0
 32 33  1  0
 33 34  1  0
 34 35  1  0
 34 36  1  0
 32 37  1  0
 37 38  1  0
 22  5  2  0
 38 23  1  0
 20 12  1  0
 37 25  2  0
  1 39  1  0
  1 40  1  0
  1 41  1  0
  2 42  1  0
  2 43  1  0
  3 44  1  0
  3 45  1  0
  6 46  1  0
  7 47  1  0
 13 48  1  0
 13 49  1  0
 14 50  1  0
 14 51  1  0
 16 52  1  0
 16 53  1  0
 17 54  1  0
 17 55  1  0
 18 56  1  0
 19 57  1  0
 19 58  1  0
 20 59  1  0
 20 60  1  0
 21 61  1  0
 29 62  1  0
 29 63  1  0
 29 64  1  0
 33 65  1  0
 33 66  1  0
 34 67  1  0
 35 68  1  0
 35 69  1  0
 35 70  1  0
 36 71  1  0
 36 72  1  0
 36 73  1  0
 38 74  1  0
M  END
$$$$
