
     RDKit          3D

 36 37  0  0  0  0  0  0  0  0999 V2000
    3.8739    1.9762   -3.5603 O   0  0  0  0  0  0  0  0  0  0  0  0
    3.6282    1.6193   -2.4083 C   0  0  0  0  0  0  0  0  0  0  0  0
    4.3440    0.4768   -1.7216 C   0  0  0  0  0  0  0  0  0  0  0  0
    3.3908   -0.5955   -1.3098 C   0  0  0  0  0  0  0  0  0  0  0  0
    3.3221   -1.8800   -1.8136 C   0  0  0  0  0  0  0  0  0  0  0  0
    2.0774   -2.7494   -1.0228 S   0  0  0  0  0  0  0  0  0  0  0  0
    1.7178   -1.3772   -0.0838 C   0  0  0  0  0  0  0  0  0  0  0  0
    0.7278   -1.3499    0.8627 N   0  0  0  0  0  0  0  0  0  0  0  0
   -0.1490   -2.3635    1.1848 C   0  0  0  0  0  0  0  0  0  0  0  0
   -0.1841   -3.4911    0.7022 O   0  0  0  0  0  0  0  0  0  0  0  0
   -1.1168   -1.9768    2.2961 C   0  0  0  0  0  0  0  0  0  0  0  0
   -1.9232   -0.7353    1.9918 C   0  0  0  0  0  0  0  0  0  0  0  0
   -1.7887    0.4137    2.7814 C   0  0  0  0  0  0  0  0  0  0  0  0
   -2.5201    1.5633    2.4844 C   0  0  0  0  0  0  0  0  0  0  0  0
   -3.3988    1.5747    1.4012 C   0  0  0  0  0  0  0  0  0  0  0  0
   -3.5650    0.4308    0.6075 C   0  0  0  0  0  0  0  0  0  0  0  0
   -4.5059    0.4405   -0.5736 C   0  0  0  0  0  0  0  0  0  0  0  0
   -3.8597    0.6854   -1.7462 F   0  0  0  0  0  0  0  0  0  0  0  0
   -5.4810    1.3871   -0.4777 F   0  0  0  0  0  0  0  0  0  0  0  0
   -5.1554   -0.7447   -0.7434 F   0  0  0  0  0  0  0  0  0  0  0  0
   -2.8162   -0.7187    0.9088 C   0  0  0  0  0  0  0  0  0  0  0  0
    2.4576   -0.3149   -0.3153 N   0  0  0  0  0  0  0  0  0  0  0  0
    2.7011    2.2698   -1.6206 N   0  0  0  0  0  0  0  0  0  0  0  0
    1.9303    3.2471   -2.2992 O   0  0  0  0  0  0  0  0  0  0  0  0
    5.1001    0.0787   -2.4079 H   0  0  0  0  0  0  0  0  0  0  0  0
    4.8718    0.8691   -0.8450 H   0  0  0  0  0  0  0  0  0  0  0  0
    3.9250   -2.3398   -2.5844 H   0  0  0  0  0  0  0  0  0  0  0  0
    0.6294   -0.4509    1.3135 H   0  0  0  0  0  0  0  0  0  0  0  0
   -1.8082   -2.8107    2.4690 H   0  0  0  0  0  0  0  0  0  0  0  0
   -0.5366   -1.8534    3.2186 H   0  0  0  0  0  0  0  0  0  0  0  0
   -1.1164    0.4255    3.6373 H   0  0  0  0  0  0  0  0  0  0  0  0
   -2.4085    2.4533    3.1000 H   0  0  0  0  0  0  0  0  0  0  0  0
   -3.9615    2.4813    1.1811 H   0  0  0  0  0  0  0  0  0  0  0  0
   -2.9354   -1.6103    0.2904 H   0  0  0  0  0  0  0  0  0  0  0  0
    2.2074    1.7255   -0.9119 H   0  0  0  0  0  0  0  0  0  0  0  0
    2.3260    3.2438   -3.1987 H   0  0  0  0  0  0  0  0  0  0  0  0
  1  2  2  0
  2  3  1  0
  3  4  1  0
  4  5  2  0
  5  6  1  0
  6  7  1  0
  7  8  1  0
  8  9  1  0
  9 10  2  0
  9 11  1  0
 11 12  1  0
 12 13  2  0
 13 14  1  0
 14 15  2  0
 15 16  1  0
 16 17  1  0
 17 18  1  0
 17 19  1  0
 17 20  1  0
 16 21  2  0
  7 22  2  0
  2 23  1  0
 23 24  1  0
 22  4  1  0
 21 12  1  0
  3 25  1  0
  3 26  1  0
  5 27  1  0
  8 28  1  0
 11 29  1  0
 11 30  1  0
 13 31  1  0
 14 32  1  0
 15 33  1  0
 21 34  1  0
 23 35  1  0
 24 36  1  0
M  END
$$$$
