


 44 47  0  0  0  0  0  0  0  0999 V2000
    2.6648   66.4613   83.9552 C   0  0  0  0  0  0  0  0  0  0  0  0
    3.0607   67.2816   82.8875 C   0  0  0  0  0  0  0  0  0  0  0  0
    2.3086   67.3390   81.7108 C   0  0  0  0  0  0  0  0  0  0  0  0
    1.1534   66.5685   81.5914 C   0  0  0  0  0  0  0  0  0  0  0  0
    0.7685   65.7133   82.6238 C   0  0  0  0  0  0  0  0  0  0  0  0
    1.5053   65.6647   83.8209 C   0  0  0  0  0  0  0  0  0  0  0  0
    0.9665   64.7685   84.9018 C   0  0  0  0  0  0  0  0  0  0  0  0
   -0.1263   64.0908   84.6816 N   0  0  0  0  0  0  0  0  0  0  0  0
   -0.5332   63.2887   85.7487 C   0  0  0  0  0  0  0  0  0  0  0  0
   -1.6566   62.4384   85.7890 C   0  0  0  0  0  0  0  0  0  0  0  0
   -1.6393   61.8688   87.0548 C   0  0  0  0  0  0  0  0  0  0  0  0
   -0.5447   62.3472   87.7391 N   0  0  0  0  0  0  0  0  0  0  0  0
   -0.1763   61.9783   89.0870 C   0  0  0  0  0  0  0  0  0  0  0  0
    0.1380   63.2209   86.9383 C   0  0  0  0  0  0  0  0  0  0  0  0
    1.3244   63.9708   87.1829 C   0  0  0  0  0  0  0  0  0  0  0  0
    1.9682   63.9804   88.2265 O   0  0  0  0  0  0  0  0  0  0  0  0
    1.6848   64.7182   86.0874 N   0  0  0  0  0  0  0  0  0  0  0  0
    2.5061   65.2962   86.2008 H   0  0  0  0  0  0  0  0  0  0  0  0
   -2.6566   62.2043   84.7059 C   0  0  0  0  0  0  0  0  0  0  0  0
   -2.0628   61.5657   83.4481 C   0  0  0  0  0  0  0  0  0  0  0  0
   -3.0567   60.6942   82.6928 C   0  0  0  0  0  0  0  0  0  0  0  0
    0.2034   66.6193   80.0865 S   0  0  0  0  0  0  0  0  0  0  0  0
   -1.0628   67.2479   80.3983 O   0  0  0  0  0  0  0  0  0  0  0  0
    1.0598   67.1348   79.0414 O   0  0  0  0  0  0  0  0  0  0  0  0
   -0.1002   64.9775   79.7596 N   0  0  0  0  0  0  0  0  0  0  0  0
    0.2471   64.4715   78.4226 C   0  0  0  0  0  0  0  0  0  0  0  0
    0.6364   62.9948   78.5392 C   0  0  0  0  0  0  0  0  0  0  0  0
   -0.2241   62.1986   79.5684 C   0  0  0  0  0  0  0  0  0  0  0  0
   -1.5469   62.9636   79.8285 C   0  0  0  0  0  0  0  0  0  0  0  0
   -1.3319   64.3935   80.3366 C   0  0  0  0  0  0  0  0  0  0  0  0
    0.5534   62.0321   80.9087 C   0  0  0  0  0  0  0  0  0  0  0  0
    1.5901   61.0636   80.7499 O   0  0  0  0  0  0  0  0  0  0  0  0
    2.1756   60.6796   81.9821 N   0  0  0  0  0  0  0  0  0  0  0  0
    3.2381   60.0596   81.9322 O   0  0  0  0  0  0  0  0  0  0  0  0
    1.5219   61.0537   82.9528 O   0  0  0  0  0  0  0  0  0  0  0  0
   -0.5378   60.7845   79.0054 C   0  0  0  0  0  0  0  0  0  0  0  0
   -1.5981   60.8674   78.0527 O   0  0  0  0  0  0  0  0  0  0  0  0
   -2.4245   59.7170   78.0504 N   0  0  0  0  0  0  0  0  0  0  0  0
   -2.3830   59.1073   76.9842 O   0  0  0  0  0  0  0  0  0  0  0  0
   -3.0606   59.4789   79.0772 O   0  0  0  0  0  0  0  0  0  0  0  0
    3.3626   66.3757   85.1336 O   0  0  0  0  0  0  0  0  0  0  0  0
    4.7906   66.4330   85.0765 C   0  0  0  0  0  0  0  0  0  0  0  0
    5.2397   65.0663   87.1636 C   0  0  0  0  0  0  0  0  0  0  0  0
    5.3548   65.1333   85.6472 C   0  0  0  0  0  0  0  0  0  0  0  0
 43 44  1  0  0  0
 44 42  1  0  0  0
 42 41  1  0  0  0
 41  1  1  0  0  0
  1  2  1  0  0  0
  2  3  2  0  0  0
  3  4  1  0  0  0
  4 22  1  0  0  0
 22 23  2  0  0  0
 22 24  2  0  0  0
 22 25  1  0  0  0
 25 26  1  0  0  0
 26 27  1  0  0  0
 27 28  1  0  0  0
 28 31  1  0  0  0
 31 32  1  0  0  0
 32 33  1  0  0  0
 33 34  2  0  0  0
 33 35  1  0  0  0
 28 36  1  0  0  0
 36 37  1  0  0  0
 37 38  1  0  0  0
 38 39  2  0  0  0
 38 40  1  0  0  0
 28 29  1  0  0  0
 29 30  1  0  0  0
  4  5  2  0  0  0
  5  6  1  0  0  0
  6  7  1  0  0  0
  7  8  2  0  0  0
  8  9  1  0  0  0
  9 10  1  0  0  0
 10 19  1  0  0  0
 19 20  1  0  0  0
 20 21  1  0  0  0
 10 11  2  0  0  0
 11 12  1  0  0  0
 12 13  1  0  0  0
 12 14  1  0  0  0
 14 15  1  0  0  0
 15 16  2  0  0  0
 15 17  1  0  0  0
  6  1  2  0  0  0
 17  7  1  0  0  0
 30 25  1  0  0  0
 14  9  2  0  0  0
 17 18  1  0  0  0
M  CHG 1  33   1
M  CHG 1  35  -1
M  CHG 1  38   1
M  CHG 1  40  -1
M  END
> <minimizedAffinity>
-9.39119

$$$$



 44 47  0  0  0  0  0  0  0  0999 V2000
    3.3776   66.8439   84.3495 C   0  0  0  0  0  0  0  0  0  0  0  0
    4.0896   67.9041   83.7675 C   0  0  0  0  0  0  0  0  0  0  0  0
    3.5147   68.6874   82.7628 C   0  0  0  0  0  0  0  0  0  0  0  0
    2.2200   68.4108   82.3275 C   0  0  0  0  0  0  0  0  0  0  0  0
    1.5133   67.3336   82.8619 C   0  0  0  0  0  0  0  0  0  0  0  0
    2.0736   66.5529   83.8891 C   0  0  0  0  0  0  0  0  0  0  0  0
    1.2032   65.4627   84.4510 C   0  0  0  0  0  0  0  0  0  0  0  0
    0.5585   64.6770   83.6331 N   0  0  0  0  0  0  0  0  0  0  0  0
   -0.2140   63.6988   84.2607 C   0  0  0  0  0  0  0  0  0  0  0  0
   -0.9955   62.7064   83.6354 C   0  0  0  0  0  0  0  0  0  0  0  0
   -1.5746   61.9887   84.6731 C   0  0  0  0  0  0  0  0  0  0  0  0
   -1.1475   62.5201   85.8692 N   0  0  0  0  0  0  0  0  0  0  0  0
   -1.5226   62.0368   87.1786 C   0  0  0  0  0  0  0  0  0  0  0  0
   -0.3103   63.5722   85.6190 C   0  0  0  0  0  0  0  0  0  0  0  0
    0.3841   64.4384   86.5119 C   0  0  0  0  0  0  0  0  0  0  0  0
    0.3318   64.4026   87.7366 O   0  0  0  0  0  0  0  0  0  0  0  0
    1.1444   65.3601   85.8330 N   0  0  0  0  0  0  0  0  0  0  0  0
    1.6451   66.0247   86.4068 H   0  0  0  0  0  0  0  0  0  0  0  0
   -1.1705   62.4784   82.1707 C   0  0  0  0  0  0  0  0  0  0  0  0
   -0.4841   61.2096   81.6595 C   0  0  0  0  0  0  0  0  0  0  0  0
    1.0331   61.2617   81.7754 C   0  0  0  0  0  0  0  0  0  0  0  0
    1.4902   69.3900   81.0320 S   0  0  0  0  0  0  0  0  0  0  0  0
    2.2182   69.1031   79.8141 O   0  0  0  0  0  0  0  0  0  0  0  0
    0.0558   69.2211   81.1062 O   0  0  0  0  0  0  0  0  0  0  0  0
    1.8593   70.9858   81.4922 N   0  0  0  0  0  0  0  0  0  0  0  0
    2.8952   71.6956   80.7258 C   0  0  0  0  0  0  0  0  0  0  0  0
    2.5703   73.1923   80.7251 C   0  0  0  0  0  0  0  0  0  0  0  0
    1.9889   73.7089   82.0774 C   0  0  0  0  0  0  0  0  0  0  0  0
    2.3546   72.7103   83.2052 C   0  0  0  0  0  0  0  0  0  0  0  0
    1.8534   71.2860   82.9417 C   0  0  0  0  0  0  0  0  0  0  0  0
    0.4392   73.8433   81.9832 C   0  0  0  0  0  0  0  0  0  0  0  0
    0.0064   73.5356   80.6581 O   0  0  0  0  0  0  0  0  0  0  0  0
   -1.1267   72.6844   80.6348 N   0  0  0  0  0  0  0  0  0  0  0  0
   -1.7571   72.6142   79.5796 O   0  0  0  0  0  0  0  0  0  0  0  0
   -1.3059   72.1070   81.7043 O   0  0  0  0  0  0  0  0  0  0  0  0
    2.5830   75.1076   82.4023 C   0  0  0  0  0  0  0  0  0  0  0  0
    3.1292   75.1067   83.7215 O   0  0  0  0  0  0  0  0  0  0  0  0
    4.5264   75.3388   83.7367 N   0  0  0  0  0  0  0  0  0  0  0  0
    4.9411   75.6544   84.8496 O   0  0  0  0  0  0  0  0  0  0  0  0
    5.1311   75.2030   82.6729 O   0  0  0  0  0  0  0  0  0  0  0  0
    3.8929   66.0513   85.3439 O   0  0  0  0  0  0  0  0  0  0  0  0
    5.0494   66.5167   86.0450 C   0  0  0  0  0  0  0  0  0  0  0  0
    7.0509   65.7160   84.7112 C   0  0  0  0  0  0  0  0  0  0  0  0
    6.1534   65.4689   85.9158 C   0  0  0  0  0  0  0  0  0  0  0  0
 43 44  1  0  0  0
 44 42  1  0  0  0
 42 41  1  0  0  0
 41  1  1  0  0  0
  1  2  1  0  0  0
  2  3  2  0  0  0
  3  4  1  0  0  0
  4 22  1  0  0  0
 22 23  2  0  0  0
 22 24  2  0  0  0
 22 25  1  0  0  0
 25 26  1  0  0  0
 26 27  1  0  0  0
 27 28  1  0  0  0
 28 31  1  0  0  0
 31 32  1  0  0  0
 32 33  1  0  0  0
 33 34  2  0  0  0
 33 35  1  0  0  0
 28 36  1  0  0  0
 36 37  1  0  0  0
 37 38  1  0  0  0
 38 39  2  0  0  0
 38 40  1  0  0  0
 28 29  1  0  0  0
 29 30  1  0  0  0
  4  5  2  0  0  0
  5  6  1  0  0  0
  6  7  1  0  0  0
  7  8  2  0  0  0
  8  9  1  0  0  0
  9 10  1  0  0  0
 10 19  1  0  0  0
 19 20  1  0  0  0
 20 21  1  0  0  0
 10 11  2  0  0  0
 11 12  1  0  0  0
 12 13  1  0  0  0
 12 14  1  0  0  0
 14 15  1  0  0  0
 15 16  2  0  0  0
 15 17  1  0  0  0
  6  1  2  0  0  0
 17  7  1  0  0  0
 30 25  1  0  0  0
 14  9  2  0  0  0
 17 18  1  0  0  0
M  CHG 1  33   1
M  CHG 1  35  -1
M  CHG 1  38   1
M  CHG 1  40  -1
M  END
> <minimizedAffinity>
-9.04490

$$$$



 44 47  0  0  0  0  0  0  0  0999 V2000
    3.2922   66.8690   84.2692 C   0  0  0  0  0  0  0  0  0  0  0  0
    3.9786   67.9350   83.6672 C   0  0  0  0  0  0  0  0  0  0  0  0
    3.3728   68.7063   82.6714 C   0  0  0  0  0  0  0  0  0  0  0  0
    2.0727   68.4118   82.2651 C   0  0  0  0  0  0  0  0  0  0  0  0
    1.3908   67.3286   82.8194 C   0  0  0  0  0  0  0  0  0  0  0  0
    1.9824   66.5599   83.8381 C   0  0  0  0  0  0  0  0  0  0  0  0
    1.1378   65.4619   84.4234 C   0  0  0  0  0  0  0  0  0  0  0  0
    0.4637   64.6817   83.6241 N   0  0  0  0  0  0  0  0  0  0  0  0
   -0.2810   63.6954   84.2723 C   0  0  0  0  0  0  0  0  0  0  0  0
   -1.0836   62.7063   83.6690 C   0  0  0  0  0  0  0  0  0  0  0  0
   -1.6196   61.9774   84.7218 C   0  0  0  0  0  0  0  0  0  0  0  0
   -1.1476   62.4991   85.9052 N   0  0  0  0  0  0  0  0  0  0  0  0
   -1.4698   62.0027   87.2237 C   0  0  0  0  0  0  0  0  0  0  0  0
   -0.3237   63.5561   85.6322 C   0  0  0  0  0  0  0  0  0  0  0  0
    0.4026   64.4162   86.5053 C   0  0  0  0  0  0  0  0  0  0  0  0
    0.3984   64.3692   87.7306 O   0  0  0  0  0  0  0  0  0  0  0  0
    1.1332   65.3465   85.8057 N   0  0  0  0  0  0  0  0  0  0  0  0
    1.6542   66.0074   86.3655 H   0  0  0  0  0  0  0  0  0  0  0  0
   -1.3152   62.4912   82.2102 C   0  0  0  0  0  0  0  0  0  0  0  0
   -0.6005   61.2595   81.6492 C   0  0  0  0  0  0  0  0  0  0  0  0
    0.9089   61.3032   81.8429 C   0  0  0  0  0  0  0  0  0  0  0  0
    1.3034   69.3756   80.9809 S   0  0  0  0  0  0  0  0  0  0  0  0
    2.0975   69.2070   79.7824 O   0  0  0  0  0  0  0  0  0  0  0  0
   -0.1113   69.0760   80.9920 O   0  0  0  0  0  0  0  0  0  0  0  0
    1.5089   70.9772   81.5171 N   0  0  0  0  0  0  0  0  0  0  0  0
    1.9210   71.1822   82.9144 C   0  0  0  0  0  0  0  0  0  0  0  0
    2.7572   72.4625   82.9998 C   0  0  0  0  0  0  0  0  0  0  0  0
    2.2471   73.6081   82.0719 C   0  0  0  0  0  0  0  0  0  0  0  0
    0.7685   73.3382   81.6928 C   0  0  0  0  0  0  0  0  0  0  0  0
    0.5551   71.9859   81.0036 C   0  0  0  0  0  0  0  0  0  0  0  0
    3.1116   73.6803   80.7772 C   0  0  0  0  0  0  0  0  0  0  0  0
    4.4170   73.1646   81.0377 O   0  0  0  0  0  0  0  0  0  0  0  0
    4.8725   72.2862   80.0229 N   0  0  0  0  0  0  0  0  0  0  0  0
    5.3804   72.7949   79.0234 O   0  0  0  0  0  0  0  0  0  0  0  0
    4.7044   71.1037   80.3111 O   0  0  0  0  0  0  0  0  0  0  0  0
    2.3587   74.9700   82.8119 C   0  0  0  0  0  0  0  0  0  0  0  0
    3.2032   74.8318   83.9548 O   0  0  0  0  0  0  0  0  0  0  0  0
    4.3774   75.6193   83.8674 N   0  0  0  0  0  0  0  0  0  0  0  0
    4.9883   75.6767   84.9321 O   0  0  0  0  0  0  0  0  0  0  0  0
    4.6314   76.1320   82.7773 O   0  0  0  0  0  0  0  0  0  0  0  0
    3.8383   66.0876   85.2560 O   0  0  0  0  0  0  0  0  0  0  0  0
    5.1346   66.4352   85.7505 C   0  0  0  0  0  0  0  0  0  0  0  0
    7.3954   65.9254   84.7236 C   0  0  0  0  0  0  0  0  0  0  0  0
    6.1243   65.3496   85.3320 C   0  0  0  0  0  0  0  0  0  0  0  0
 43 44  1  0  0  0
 44 42  1  0  0  0
 42 41  1  0  0  0
 41  1  1  0  0  0
  1  2  1  0  0  0
  2  3  2  0  0  0
  3  4  1  0  0  0
  4 22  1  0  0  0
 22 23  2  0  0  0
 22 24  2  0  0  0
 22 25  1  0  0  0
 25 26  1  0  0  0
 26 27  1  0  0  0
 27 28  1  0  0  0
 28 31  1  0  0  0
 31 32  1  0  0  0
 32 33  1  0  0  0
 33 34  2  0  0  0
 33 35  1  0  0  0
 28 36  1  0  0  0
 36 37  1  0  0  0
 37 38  1  0  0  0
 38 39  2  0  0  0
 38 40  1  0  0  0
 28 29  1  0  0  0
 29 30  1  0  0  0
  4  5  2  0  0  0
  5  6  1  0  0  0
  6  7  1  0  0  0
  7  8  2  0  0  0
  8  9  1  0  0  0
  9 10  1  0  0  0
 10 19  1  0  0  0
 19 20  1  0  0  0
 20 21  1  0  0  0
 10 11  2  0  0  0
 11 12  1  0  0  0
 12 13  1  0  0  0
 12 14  1  0  0  0
 14 15  1  0  0  0
 15 16  2  0  0  0
 15 17  1  0  0  0
  6  1  2  0  0  0
 17  7  1  0  0  0
 30 25  1  0  0  0
 14  9  2  0  0  0
 17 18  1  0  0  0
M  CHG 1  33   1
M  CHG 1  35  -1
M  CHG 1  38   1
M  CHG 1  40  -1
M  END
> <minimizedAffinity>
-8.99359

$$$$



 44 47  0  0  0  0  0  0  0  0999 V2000
    1.4796   68.3884   82.1910 C   0  0  0  0  0  0  0  0  0  0  0  0
    0.7352   68.7422   81.0550 C   0  0  0  0  0  0  0  0  0  0  0  0
    0.3226   67.7717   80.1377 C   0  0  0  0  0  0  0  0  0  0  0  0
    0.6581   66.4356   80.3483 C   0  0  0  0  0  0  0  0  0  0  0  0
    1.4355   66.0703   81.4473 C   0  0  0  0  0  0  0  0  0  0  0  0
    1.8368   67.0355   82.3885 C   0  0  0  0  0  0  0  0  0  0  0  0
    2.6071   66.5303   83.5773 C   0  0  0  0  0  0  0  0  0  0  0  0
    1.9948   65.8035   84.4711 N   0  0  0  0  0  0  0  0  0  0  0  0
    2.8044   65.3846   85.5279 C   0  0  0  0  0  0  0  0  0  0  0  0
    2.4229   64.5783   86.6192 C   0  0  0  0  0  0  0  0  0  0  0  0
    3.5660   64.4493   87.3962 C   0  0  0  0  0  0  0  0  0  0  0  0
    4.5921   65.1378   86.7893 N   0  0  0  0  0  0  0  0  0  0  0  0
    5.9454   65.2299   87.2884 C   0  0  0  0  0  0  0  0  0  0  0  0
    4.1270   65.7143   85.6396 C   0  0  0  0  0  0  0  0  0  0  0  0
    4.7921   66.5185   84.6698 C   0  0  0  0  0  0  0  0  0  0  0  0
    5.9650   66.8738   84.7107 O   0  0  0  0  0  0  0  0  0  0  0  0
    3.9487   66.8758   83.6453 N   0  0  0  0  0  0  0  0  0  0  0  0
    4.3499   67.4702   82.9330 H   0  0  0  0  0  0  0  0  0  0  0  0
    1.0763   63.9931   86.8879 C   0  0  0  0  0  0  0  0  0  0  0  0
    0.9560   63.3333   88.2636 C   0  0  0  0  0  0  0  0  0  0  0  0
   -0.4767   63.2724   88.7751 C   0  0  0  0  0  0  0  0  0  0  0  0
    0.1556   65.1974   79.1718 S   0  0  0  0  0  0  0  0  0  0  0  0
   -0.8637   65.7905   78.3322 O   0  0  0  0  0  0  0  0  0  0  0  0
    1.3523   64.6178   78.6032 O   0  0  0  0  0  0  0  0  0  0  0  0
   -0.5942   64.0174   80.1415 N   0  0  0  0  0  0  0  0  0  0  0  0
   -1.2194   64.4615   81.3970 C   0  0  0  0  0  0  0  0  0  0  0  0
   -2.4104   63.5493   81.7050 C   0  0  0  0  0  0  0  0  0  0  0  0
   -2.1636   62.0517   81.3445 C   0  0  0  0  0  0  0  0  0  0  0  0
   -0.6382   61.7955   81.2434 C   0  0  0  0  0  0  0  0  0  0  0  0
    0.0619   62.6927   80.2168 C   0  0  0  0  0  0  0  0  0  0  0  0
   -2.8411   61.7045   79.9846 C   0  0  0  0  0  0  0  0  0  0  0  0
   -3.8243   60.6880   80.1794 O   0  0  0  0  0  0  0  0  0  0  0  0
   -3.5785   59.5303   79.3996 N   0  0  0  0  0  0  0  0  0  0  0  0
   -3.5392   58.4509   79.9903 O   0  0  0  0  0  0  0  0  0  0  0  0
   -3.4566   59.7835   78.2035 O   0  0  0  0  0  0  0  0  0  0  0  0
   -2.7768   61.1406   82.4439 C   0  0  0  0  0  0  0  0  0  0  0  0
   -1.8565   61.0028   83.5268 O   0  0  0  0  0  0  0  0  0  0  0  0
   -2.1504   61.8673   84.6097 N   0  0  0  0  0  0  0  0  0  0  0  0
   -3.1577   61.5273   85.2260 O   0  0  0  0  0  0  0  0  0  0  0  0
   -1.3907   62.8187   84.7926 O   0  0  0  0  0  0  0  0  0  0  0  0
    1.9010   69.3007   83.1252 O   0  0  0  0  0  0  0  0  0  0  0  0
    2.5926   70.4651   82.6654 C   0  0  0  0  0  0  0  0  0  0  0  0
    4.0508   70.6402   80.5993 C   0  0  0  0  0  0  0  0  0  0  0  0
    3.8870   70.0268   81.9829 C   0  0  0  0  0  0  0  0  0  0  0  0
 43 44  1  0  0  0
 44 42  1  0  0  0
 42 41  1  0  0  0
 41  1  1  0  0  0
  1  2  1  0  0  0
  2  3  2  0  0  0
  3  4  1  0  0  0
  4 22  1  0  0  0
 22 23  2  0  0  0
 22 24  2  0  0  0
 22 25  1  0  0  0
 25 26  1  0  0  0
 26 27  1  0  0  0
 27 28  1  0  0  0
 28 31  1  0  0  0
 31 32  1  0  0  0
 32 33  1  0  0  0
 33 34  2  0  0  0
 33 35  1  0  0  0
 28 36  1  0  0  0
 36 37  1  0  0  0
 37 38  1  0  0  0
 38 39  2  0  0  0
 38 40  1  0  0  0
 28 29  1  0  0  0
 29 30  1  0  0  0
  4  5  2  0  0  0
  5  6  1  0  0  0
  6  7  1  0  0  0
  7  8  2  0  0  0
  8  9  1  0  0  0
  9 10  1  0  0  0
 10 19  1  0  0  0
 19 20  1  0  0  0
 20 21  1  0  0  0
 10 11  2  0  0  0
 11 12  1  0  0  0
 12 13  1  0  0  0
 12 14  1  0  0  0
 14 15  1  0  0  0
 15 16  2  0  0  0
 15 17  1  0  0  0
  6  1  2  0  0  0
 17  7  1  0  0  0
 30 25  1  0  0  0
 14  9  2  0  0  0
 17 18  1  0  0  0
M  CHG 1  33   1
M  CHG 1  35  -1
M  CHG 1  38   1
M  CHG 1  40  -1
M  END
> <minimizedAffinity>
-8.87862

$$$$



 44 47  0  0  0  0  0  0  0  0999 V2000
    1.9500   64.5213   86.4740 C   0  0  0  0  0  0  0  0  0  0  0  0
    1.5562   63.6427   87.4952 C   0  0  0  0  0  0  0  0  0  0  0  0
    0.3145   63.0026   87.4507 C   0  0  0  0  0  0  0  0  0  0  0  0
   -0.5480   63.2424   86.3826 C   0  0  0  0  0  0  0  0  0  0  0  0
   -0.1935   64.1466   85.3815 C   0  0  0  0  0  0  0  0  0  0  0  0
    1.0628   64.7789   85.4046 C   0  0  0  0  0  0  0  0  0  0  0  0
    1.3807   65.6773   84.2413 C   0  0  0  0  0  0  0  0  0  0  0  0
    1.0420   65.3050   83.0376 N   0  0  0  0  0  0  0  0  0  0  0  0
    1.3799   66.2152   82.0351 C   0  0  0  0  0  0  0  0  0  0  0  0
    1.1223   66.0897   80.6551 C   0  0  0  0  0  0  0  0  0  0  0  0
    1.6528   67.2353   80.0780 C   0  0  0  0  0  0  0  0  0  0  0  0
    2.1934   68.0202   81.0715 N   0  0  0  0  0  0  0  0  0  0  0  0
    2.8298   69.3019   80.8694 C   0  0  0  0  0  0  0  0  0  0  0  0
    2.0270   67.3955   82.2769 C   0  0  0  0  0  0  0  0  0  0  0  0
    2.4080   67.7959   83.5900 C   0  0  0  0  0  0  0  0  0  0  0  0
    3.0077   68.8243   83.8840 O   0  0  0  0  0  0  0  0  0  0  0  0
    2.0251   66.8709   84.5314 N   0  0  0  0  0  0  0  0  0  0  0  0
    2.2872   67.0800   85.4849 H   0  0  0  0  0  0  0  0  0  0  0  0
    0.4330   64.9631   79.9596 C   0  0  0  0  0  0  0  0  0  0  0  0
    0.8816   64.7692   78.5093 C   0  0  0  0  0  0  0  0  0  0  0  0
   -0.2692   64.8251   77.5141 C   0  0  0  0  0  0  0  0  0  0  0  0
   -2.1407   62.4482   86.3314 S   0  0  0  0  0  0  0  0  0  0  0  0
   -2.0066   61.1721   87.0015 O   0  0  0  0  0  0  0  0  0  0  0  0
   -3.1298   63.4160   86.7513 O   0  0  0  0  0  0  0  0  0  0  0  0
   -2.3717   62.1410   84.6740 N   0  0  0  0  0  0  0  0  0  0  0  0
   -2.5800   63.2965   83.7876 C   0  0  0  0  0  0  0  0  0  0  0  0
   -2.0178   62.9638   82.4023 C   0  0  0  0  0  0  0  0  0  0  0  0
   -2.2576   61.4853   81.9663 C   0  0  0  0  0  0  0  0  0  0  0  0
   -3.4153   60.8868   82.8055 C   0  0  0  0  0  0  0  0  0  0  0  0
   -3.1622   60.9418   84.3161 C   0  0  0  0  0  0  0  0  0  0  0  0
   -0.9659   60.6412   82.1846 C   0  0  0  0  0  0  0  0  0  0  0  0
    0.1551   61.5080   82.3580 O   0  0  0  0  0  0  0  0  0  0  0  0
    1.1978   61.2480   81.4339 N   0  0  0  0  0  0  0  0  0  0  0  0
    1.0100   61.5817   80.2639 O   0  0  0  0  0  0  0  0  0  0  0  0
    2.1776   60.7273   81.9615 O   0  0  0  0  0  0  0  0  0  0  0  0
   -2.6246   61.4376   80.4570 C   0  0  0  0  0  0  0  0  0  0  0  0
   -1.9890   60.3181   79.8397 O   0  0  0  0  0  0  0  0  0  0  0  0
   -2.9124   59.4154   79.2576 N   0  0  0  0  0  0  0  0  0  0  0  0
   -2.9915   59.5412   78.0378 O   0  0  0  0  0  0  0  0  0  0  0  0
   -3.5019   58.6458   80.0165 O   0  0  0  0  0  0  0  0  0  0  0  0
    3.1604   65.1674   86.4663 O   0  0  0  0  0  0  0  0  0  0  0  0
    4.2003   64.6598   87.3068 C   0  0  0  0  0  0  0  0  0  0  0  0
    5.4358   65.4430   85.2366 C   0  0  0  0  0  0  0  0  0  0  0  0
    5.5491   65.0438   86.7013 C   0  0  0  0  0  0  0  0  0  0  0  0
 43 44  1  0  0  0
 44 42  1  0  0  0
 42 41  1  0  0  0
 41  1  1  0  0  0
  1  2  1  0  0  0
  2  3  2  0  0  0
  3  4  1  0  0  0
  4 22  1  0  0  0
 22 23  2  0  0  0
 22 24  2  0  0  0
 22 25  1  0  0  0
 25 26  1  0  0  0
 26 27  1  0  0  0
 27 28  1  0  0  0
 28 31  1  0  0  0
 31 32  1  0  0  0
 32 33  1  0  0  0
 33 34  2  0  0  0
 33 35  1  0  0  0
 28 36  1  0  0  0
 36 37  1  0  0  0
 37 38  1  0  0  0
 38 39  2  0  0  0
 38 40  1  0  0  0
 28 29  1  0  0  0
 29 30  1  0  0  0
  4  5  2  0  0  0
  5  6  1  0  0  0
  6  7  1  0  0  0
  7  8  2  0  0  0
  8  9  1  0  0  0
  9 10  1  0  0  0
 10 19  1  0  0  0
 19 20  1  0  0  0
 20 21  1  0  0  0
 10 11  2  0  0  0
 11 12  1  0  0  0
 12 13  1  0  0  0
 12 14  1  0  0  0
 14 15  1  0  0  0
 15 16  2  0  0  0
 15 17  1  0  0  0
  6  1  2  0  0  0
 17  7  1  0  0  0
 30 25  1  0  0  0
 14  9  2  0  0  0
 17 18  1  0  0  0
M  CHG 1  33   1
M  CHG 1  35  -1
M  CHG 1  38   1
M  CHG 1  40  -1
M  END
> <minimizedAffinity>
-8.86036

$$$$



 44 47  0  0  0  0  0  0  0  0999 V2000
    3.3976   66.9118   84.3988 C   0  0  0  0  0  0  0  0  0  0  0  0
    4.1200   67.9815   83.8476 C   0  0  0  0  0  0  0  0  0  0  0  0
    3.5735   68.7654   82.8277 C   0  0  0  0  0  0  0  0  0  0  0  0
    2.2973   68.4800   82.3460 C   0  0  0  0  0  0  0  0  0  0  0  0
    1.5819   67.3937   82.8496 C   0  0  0  0  0  0  0  0  0  0  0  0
    2.1130   66.6121   83.8916 C   0  0  0  0  0  0  0  0  0  0  0  0
    1.2334   65.5112   84.4169 C   0  0  0  0  0  0  0  0  0  0  0  0
    0.6214   64.7271   83.5728 N   0  0  0  0  0  0  0  0  0  0  0  0
   -0.1635   63.7384   84.1678 C   0  0  0  0  0  0  0  0  0  0  0  0
   -0.9168   62.7451   83.5102 C   0  0  0  0  0  0  0  0  0  0  0  0
   -1.5235   62.0152   84.5233 C   0  0  0  0  0  0  0  0  0  0  0  0
   -1.1393   62.5405   85.7365 N   0  0  0  0  0  0  0  0  0  0  0  0
   -1.5527   62.0444   87.0294 C   0  0  0  0  0  0  0  0  0  0  0  0
   -0.3025   63.6007   85.5213 C   0  0  0  0  0  0  0  0  0  0  0  0
    0.3560   64.4651   86.4426 C   0  0  0  0  0  0  0  0  0  0  0  0
    0.2645   64.4196   87.6646 O   0  0  0  0  0  0  0  0  0  0  0  0
    1.1307   65.3976   85.7956 N   0  0  0  0  0  0  0  0  0  0  0  0
    1.6076   66.0615   86.3901 H   0  0  0  0  0  0  0  0  0  0  0  0
   -1.0427   62.5271   82.0390 C   0  0  0  0  0  0  0  0  0  0  0  0
   -0.3320   61.2664   81.5411 C   0  0  0  0  0  0  0  0  0  0  0  0
    1.1416   61.2203   81.9211 C   0  0  0  0  0  0  0  0  0  0  0  0
    1.6043   69.4602   81.0311 S   0  0  0  0  0  0  0  0  0  0  0  0
    2.3049   69.1051   79.8150 O   0  0  0  0  0  0  0  0  0  0  0  0
    0.1642   69.3655   81.1223 O   0  0  0  0  0  0  0  0  0  0  0  0
    2.0573   71.0470   81.4451 N   0  0  0  0  0  0  0  0  0  0  0  0
    3.3687   71.5261   80.9815 C   0  0  0  0  0  0  0  0  0  0  0  0
    3.2888   73.0383   80.7517 C   0  0  0  0  0  0  0  0  0  0  0  0
    2.4179   73.7881   81.8066 C   0  0  0  0  0  0  0  0  0  0  0  0
    2.2774   72.9056   83.0732 C   0  0  0  0  0  0  0  0  0  0  0  0
    1.6675   71.5284   82.7895 C   0  0  0  0  0  0  0  0  0  0  0  0
    1.0046   74.0910   81.2236 C   0  0  0  0  0  0  0  0  0  0  0  0
    0.1159   74.4621   82.2773 O   0  0  0  0  0  0  0  0  0  0  0  0
   -0.4819   75.7303   82.0698 N   0  0  0  0  0  0  0  0  0  0  0  0
   -0.8257   76.0101   80.9212 O   0  0  0  0  0  0  0  0  0  0  0  0
   -0.5899   76.3773   83.1086 O   0  0  0  0  0  0  0  0  0  0  0  0
    3.0933   75.1371   82.1794 C   0  0  0  0  0  0  0  0  0  0  0  0
    3.4714   75.1246   83.5561 O   0  0  0  0  0  0  0  0  0  0  0  0
    4.8561   75.3546   83.7466 N   0  0  0  0  0  0  0  0  0  0  0  0
    5.1141   75.7822   84.8693 O   0  0  0  0  0  0  0  0  0  0  0  0
    5.6030   75.1090   82.7992 O   0  0  0  0  0  0  0  0  0  0  0  0
    3.8849   66.1181   85.4063 O   0  0  0  0  0  0  0  0  0  0  0  0
    5.2057   66.3783   85.8897 C   0  0  0  0  0  0  0  0  0  0  0  0
    7.3682   65.8360   84.6833 C   0  0  0  0  0  0  0  0  0  0  0  0
    6.1367   65.2783   85.3833 C   0  0  0  0  0  0  0  0  0  0  0  0
 43 44  1  0  0  0
 44 42  1  0  0  0
 42 41  1  0  0  0
 41  1  1  0  0  0
  1  2  1  0  0  0
  2  3  2  0  0  0
  3  4  1  0  0  0
  4 22  1  0  0  0
 22 23  2  0  0  0
 22 24  2  0  0  0
 22 25  1  0  0  0
 25 26  1  0  0  0
 26 27  1  0  0  0
 27 28  1  0  0  0
 28 31  1  0  0  0
 31 32  1  0  0  0
 32 33  1  0  0  0
 33 34  2  0  0  0
 33 35  1  0  0  0
 28 36  1  0  0  0
 36 37  1  0  0  0
 37 38  1  0  0  0
 38 39  2  0  0  0
 38 40  1  0  0  0
 28 29  1  0  0  0
 29 30  1  0  0  0
  4  5  2  0  0  0
  5  6  1  0  0  0
  6  7  1  0  0  0
  7  8  2  0  0  0
  8  9  1  0  0  0
  9 10  1  0  0  0
 10 19  1  0  0  0
 19 20  1  0  0  0
 20 21  1  0  0  0
 10 11  2  0  0  0
 11 12  1  0  0  0
 12 13  1  0  0  0
 12 14  1  0  0  0
 14 15  1  0  0  0
 15 16  2  0  0  0
 15 17  1  0  0  0
  6  1  2  0  0  0
 17  7  1  0  0  0
 30 25  1  0  0  0
 14  9  2  0  0  0
 17 18  1  0  0  0
M  CHG 1  33   1
M  CHG 1  35  -1
M  CHG 1  38   1
M  CHG 1  40  -1
M  END
> <minimizedAffinity>
-8.83368

$$$$



 44 47  0  0  0  0  0  0  0  0999 V2000
    3.2794   66.8515   84.2455 C   0  0  0  0  0  0  0  0  0  0  0  0
    3.9710   67.9042   83.6265 C   0  0  0  0  0  0  0  0  0  0  0  0
    3.3787   68.6451   82.5999 C   0  0  0  0  0  0  0  0  0  0  0  0
    2.0872   68.3329   82.1796 C   0  0  0  0  0  0  0  0  0  0  0  0
    1.4010   67.2616   82.7515 C   0  0  0  0  0  0  0  0  0  0  0  0
    1.9786   66.5239   83.8007 C   0  0  0  0  0  0  0  0  0  0  0  0
    1.1292   65.4379   84.4012 C   0  0  0  0  0  0  0  0  0  0  0  0
    0.4235   64.6727   83.6147 N   0  0  0  0  0  0  0  0  0  0  0  0
   -0.3226   63.6963   84.2762 C   0  0  0  0  0  0  0  0  0  0  0  0
   -1.1558   62.7237   83.6877 C   0  0  0  0  0  0  0  0  0  0  0  0
   -1.6795   61.9993   84.7499 C   0  0  0  0  0  0  0  0  0  0  0  0
   -1.1713   62.5078   85.9240 N   0  0  0  0  0  0  0  0  0  0  0  0
   -1.4711   62.0111   87.2477 C   0  0  0  0  0  0  0  0  0  0  0  0
   -0.3360   63.5519   85.6360 C   0  0  0  0  0  0  0  0  0  0  0  0
    0.4250   64.3957   86.4954 C   0  0  0  0  0  0  0  0  0  0  0  0
    0.4484   64.3434   87.7203 O   0  0  0  0  0  0  0  0  0  0  0  0
    1.1549   65.3166   85.7827 N   0  0  0  0  0  0  0  0  0  0  0  0
    1.6999   65.9660   86.3329 H   0  0  0  0  0  0  0  0  0  0  0  0
   -1.4248   62.5188   82.2339 C   0  0  0  0  0  0  0  0  0  0  0  0
   -0.7502   61.2739   81.6531 C   0  0  0  0  0  0  0  0  0  0  0  0
    0.7682   61.3784   81.6151 C   0  0  0  0  0  0  0  0  0  0  0  0
    1.3356   69.2575   80.8567 S   0  0  0  0  0  0  0  0  0  0  0  0
    2.2058   69.1455   79.7053 O   0  0  0  0  0  0  0  0  0  0  0  0
   -0.0566   68.8730   80.7853 O   0  0  0  0  0  0  0  0  0  0  0  0
    1.4126   70.8648   81.4096 N   0  0  0  0  0  0  0  0  0  0  0  0
    1.7265   71.0843   82.8300 C   0  0  0  0  0  0  0  0  0  0  0  0
    2.4782   72.4114   82.9701 C   0  0  0  0  0  0  0  0  0  0  0  0
    1.9578   73.5310   82.0165 C   0  0  0  0  0  0  0  0  0  0  0  0
    0.5236   73.1765   81.5474 C   0  0  0  0  0  0  0  0  0  0  0  0
    0.4332   71.8187   80.8422 C   0  0  0  0  0  0  0  0  0  0  0  0
    2.8933   73.6630   80.7771 C   0  0  0  0  0  0  0  0  0  0  0  0
    4.2018   73.1967   81.1065 O   0  0  0  0  0  0  0  0  0  0  0  0
    4.7576   72.3665   80.1012 N   0  0  0  0  0  0  0  0  0  0  0  0
    5.2580   72.9231   79.1237 O   0  0  0  0  0  0  0  0  0  0  0  0
    4.6717   71.1717   80.3743 O   0  0  0  0  0  0  0  0  0  0  0  0
    1.9431   74.8921   82.7663 C   0  0  0  0  0  0  0  0  0  0  0  0
    0.6335   75.4584   82.7153 O   0  0  0  0  0  0  0  0  0  0  0  0
    0.5934   76.7913   83.1930 N   0  0  0  0  0  0  0  0  0  0  0  0
    1.6159   77.4193   82.9278 O   0  0  0  0  0  0  0  0  0  0  0  0
   -0.4215   77.1435   83.7942 O   0  0  0  0  0  0  0  0  0  0  0  0
    3.8121   66.1000   85.2624 O   0  0  0  0  0  0  0  0  0  0  0  0
    5.1019   66.4622   85.7633 C   0  0  0  0  0  0  0  0  0  0  0  0
    7.3037   65.8487   84.6671 C   0  0  0  0  0  0  0  0  0  0  0  0
    6.0871   65.3434   85.4300 C   0  0  0  0  0  0  0  0  0  0  0  0
 43 44  1  0  0  0
 44 42  1  0  0  0
 42 41  1  0  0  0
 41  1  1  0  0  0
  1  2  1  0  0  0
  2  3  2  0  0  0
  3  4  1  0  0  0
  4 22  1  0  0  0
 22 23  2  0  0  0
 22 24  2  0  0  0
 22 25  1  0  0  0
 25 26  1  0  0  0
 26 27  1  0  0  0
 27 28  1  0  0  0
 28 31  1  0  0  0
 31 32  1  0  0  0
 32 33  1  0  0  0
 33 34  2  0  0  0
 33 35  1  0  0  0
 28 36  1  0  0  0
 36 37  1  0  0  0
 37 38  1  0  0  0
 38 39  2  0  0  0
 38 40  1  0  0  0
 28 29  1  0  0  0
 29 30  1  0  0  0
  4  5  2  0  0  0
  5  6  1  0  0  0
  6  7  1  0  0  0
  7  8  2  0  0  0
  8  9  1  0  0  0
  9 10  1  0  0  0
 10 19  1  0  0  0
 19 20  1  0  0  0
 20 21  1  0  0  0
 10 11  2  0  0  0
 11 12  1  0  0  0
 12 13  1  0  0  0
 12 14  1  0  0  0
 14 15  1  0  0  0
 15 16  2  0  0  0
 15 17  1  0  0  0
  6  1  2  0  0  0
 17  7  1  0  0  0
 30 25  1  0  0  0
 14  9  2  0  0  0
 17 18  1  0  0  0
M  CHG 1  33   1
M  CHG 1  35  -1
M  CHG 1  38   1
M  CHG 1  40  -1
M  END
> <minimizedAffinity>
-8.72244

$$$$



 44 47  0  0  0  0  0  0  0  0999 V2000
    1.2685   68.2652   81.8772 C   0  0  0  0  0  0  0  0  0  0  0  0
    0.5564   68.5812   80.7098 C   0  0  0  0  0  0  0  0  0  0  0  0
    0.1736   67.5815   79.8111 C   0  0  0  0  0  0  0  0  0  0  0  0
    0.5069   66.2538   80.0723 C   0  0  0  0  0  0  0  0  0  0  0  0
    1.2530   65.9253   81.2041 C   0  0  0  0  0  0  0  0  0  0  0  0
    1.6239   66.9204   82.1265 C   0  0  0  0  0  0  0  0  0  0  0  0
    2.3607   66.4549   83.3521 C   0  0  0  0  0  0  0  0  0  0  0  0
    3.6210   66.7615   83.4926 N   0  0  0  0  0  0  0  0  0  0  0  0
    4.2040   66.2838   84.6672 C   0  0  0  0  0  0  0  0  0  0  0  0
    5.5340   66.4766   85.0918 C   0  0  0  0  0  0  0  0  0  0  0  0
    5.6316   65.8081   86.3046 C   0  0  0  0  0  0  0  0  0  0  0  0
    4.4084   65.2500   86.6004 N   0  0  0  0  0  0  0  0  0  0  0  0
    4.1057   64.4837   87.7879 C   0  0  0  0  0  0  0  0  0  0  0  0
    3.5278   65.5409   85.5951 C   0  0  0  0  0  0  0  0  0  0  0  0
    2.1549   65.1956   85.4353 C   0  0  0  0  0  0  0  0  0  0  0  0
    1.4879   64.5172   86.2089 O   0  0  0  0  0  0  0  0  0  0  0  0
    1.6347   65.7161   84.2746 N   0  0  0  0  0  0  0  0  0  0  0  0
    0.6686   65.4875   84.0849 H   0  0  0  0  0  0  0  0  0  0  0  0
    6.6113   67.2316   84.3865 C   0  0  0  0  0  0  0  0  0  0  0  0
    8.0233   66.7453   84.7213 C   0  0  0  0  0  0  0  0  0  0  0  0
    8.2777   65.3062   84.2947 C   0  0  0  0  0  0  0  0  0  0  0  0
    0.0425   64.9782   78.9203 S   0  0  0  0  0  0  0  0  0  0  0  0
   -0.9530   65.5416   78.0331 O   0  0  0  0  0  0  0  0  0  0  0  0
    1.2570   64.3854   78.4055 O   0  0  0  0  0  0  0  0  0  0  0  0
   -0.7327   63.8261   79.9034 N   0  0  0  0  0  0  0  0  0  0  0  0
   -1.1596   64.2501   81.2459 C   0  0  0  0  0  0  0  0  0  0  0  0
   -2.4104   63.4586   81.6392 C   0  0  0  0  0  0  0  0  0  0  0  0
   -2.3852   61.9712   81.1695 C   0  0  0  0  0  0  0  0  0  0  0  0
   -0.9215   61.5526   80.8775 C   0  0  0  0  0  0  0  0  0  0  0  0
   -0.2354   62.4340   79.8280 C   0  0  0  0  0  0  0  0  0  0  0  0
   -3.2436   61.7969   79.8805 C   0  0  0  0  0  0  0  0  0  0  0  0
   -4.0490   60.6233   79.9905 O   0  0  0  0  0  0  0  0  0  0  0  0
   -3.5213   59.5259   79.2653 N   0  0  0  0  0  0  0  0  0  0  0  0
   -3.0654   59.7574   78.1453 O   0  0  0  0  0  0  0  0  0  0  0  0
   -3.5816   58.4717   79.8934 O   0  0  0  0  0  0  0  0  0  0  0  0
   -2.9793   61.0614   82.2804 C   0  0  0  0  0  0  0  0  0  0  0  0
   -1.9653   60.7327   83.2303 O   0  0  0  0  0  0  0  0  0  0  0  0
   -1.9727   61.5888   84.3587 N   0  0  0  0  0  0  0  0  0  0  0  0
   -0.8971   62.1588   84.5267 O   0  0  0  0  0  0  0  0  0  0  0  0
   -3.0157   61.6531   85.0097 O   0  0  0  0  0  0  0  0  0  0  0  0
    1.6598   69.2073   82.7948 O   0  0  0  0  0  0  0  0  0  0  0  0
    2.3317   70.3757   82.3159 C   0  0  0  0  0  0  0  0  0  0  0  0
    4.0460   70.4764   80.4514 C   0  0  0  0  0  0  0  0  0  0  0  0
    3.7332   69.9791   81.8557 C   0  0  0  0  0  0  0  0  0  0  0  0
 43 44  1  0  0  0
 44 42  1  0  0  0
 42 41  1  0  0  0
 41  1  1  0  0  0
  1  2  1  0  0  0
  2  3  2  0  0  0
  3  4  1  0  0  0
  4 22  1  0  0  0
 22 23  2  0  0  0
 22 24  2  0  0  0
 22 25  1  0  0  0
 25 26  1  0  0  0
 26 27  1  0  0  0
 27 28  1  0  0  0
 28 31  1  0  0  0
 31 32  1  0  0  0
 32 33  1  0  0  0
 33 34  2  0  0  0
 33 35  1  0  0  0
 28 36  1  0  0  0
 36 37  1  0  0  0
 37 38  1  0  0  0
 38 39  2  0  0  0
 38 40  1  0  0  0
 28 29  1  0  0  0
 29 30  1  0  0  0
  4  5  2  0  0  0
  5  6  1  0  0  0
  6  7  1  0  0  0
  7  8  2  0  0  0
  8  9  1  0  0  0
  9 10  1  0  0  0
 10 19  1  0  0  0
 19 20  1  0  0  0
 20 21  1  0  0  0
 10 11  2  0  0  0
 11 12  1  0  0  0
 12 13  1  0  0  0
 12 14  1  0  0  0
 14 15  1  0  0  0
 15 16  2  0  0  0
 15 17  1  0  0  0
  6  1  2  0  0  0
 17  7  1  0  0  0
 30 25  1  0  0  0
 14  9  2  0  0  0
 17 18  1  0  0  0
M  CHG 1  33   1
M  CHG 1  35  -1
M  CHG 1  38   1
M  CHG 1  40  -1
M  END
> <minimizedAffinity>
-8.66739

$$$$



 44 47  0  0  0  0  0  0  0  0999 V2000
    2.0776   68.0661   83.0943 C   0  0  0  0  0  0  0  0  0  0  0  0
    2.2158   66.6720   83.0094 C   0  0  0  0  0  0  0  0  0  0  0  0
    1.6831   65.9636   81.9287 C   0  0  0  0  0  0  0  0  0  0  0  0
    1.0006   66.6470   80.9241 C   0  0  0  0  0  0  0  0  0  0  0  0
    0.8139   68.0263   81.0134 C   0  0  0  0  0  0  0  0  0  0  0  0
    1.3652   68.7521   82.0848 C   0  0  0  0  0  0  0  0  0  0  0  0
    1.1737   70.2434   82.0511 C   0  0  0  0  0  0  0  0  0  0  0  0
    0.2097   70.7457   81.3297 N   0  0  0  0  0  0  0  0  0  0  0  0
    0.1198   72.1377   81.3750 C   0  0  0  0  0  0  0  0  0  0  0  0
   -0.8283   72.9470   80.7172 C   0  0  0  0  0  0  0  0  0  0  0  0
   -0.4999   74.2506   81.0636 C   0  0  0  0  0  0  0  0  0  0  0  0
    0.5903   74.2226   81.9038 N   0  0  0  0  0  0  0  0  0  0  0  0
    1.2225   75.3826   82.4899 C   0  0  0  0  0  0  0  0  0  0  0  0
    0.9739   72.9242   82.0975 C   0  0  0  0  0  0  0  0  0  0  0  0
    2.0343   72.3760   82.8752 C   0  0  0  0  0  0  0  0  0  0  0  0
    2.8518   73.0138   83.5299 O   0  0  0  0  0  0  0  0  0  0  0  0
    2.0526   71.0035   82.8086 N   0  0  0  0  0  0  0  0  0  0  0  0
    2.7976   70.5488   83.3182 H   0  0  0  0  0  0  0  0  0  0  0  0
   -1.9435   72.5007   79.8312 C   0  0  0  0  0  0  0  0  0  0  0  0
   -2.2951   73.5055   78.7316 C   0  0  0  0  0  0  0  0  0  0  0  0
   -3.3803   73.0051   77.7882 C   0  0  0  0  0  0  0  0  0  0  0  0
    0.2995   65.7480   79.5565 S   0  0  0  0  0  0  0  0  0  0  0  0
   -0.8188   66.5222   79.0611 O   0  0  0  0  0  0  0  0  0  0  0  0
    1.3844   65.3543   78.6850 O   0  0  0  0  0  0  0  0  0  0  0  0
   -0.3257   64.3456   80.2893 N   0  0  0  0  0  0  0  0  0  0  0  0
   -0.5742   63.1782   79.4292 C   0  0  0  0  0  0  0  0  0  0  0  0
   -0.3757   61.9044   80.2562 C   0  0  0  0  0  0  0  0  0  0  0  0
   -0.8912   62.0225   81.7238 C   0  0  0  0  0  0  0  0  0  0  0  0
   -1.9038   63.1925   81.8169 C   0  0  0  0  0  0  0  0  0  0  0  0
   -1.3214   64.5372   81.3677 C   0  0  0  0  0  0  0  0  0  0  0  0
    0.2988   62.2853   82.6951 C   0  0  0  0  0  0  0  0  0  0  0  0
    0.1090   61.5492   83.9034 O   0  0  0  0  0  0  0  0  0  0  0  0
   -0.3612   62.3562   84.9695 N   0  0  0  0  0  0  0  0  0  0  0  0
   -1.0665   61.8122   85.8194 O   0  0  0  0  0  0  0  0  0  0  0  0
    0.0361   63.5164   84.8945 O   0  0  0  0  0  0  0  0  0  0  0  0
   -1.5826   60.6957   82.1441 C   0  0  0  0  0  0  0  0  0  0  0  0
   -2.9864   60.7830   81.8989 O   0  0  0  0  0  0  0  0  0  0  0  0
   -3.3861   60.0717   80.7410 N   0  0  0  0  0  0  0  0  0  0  0  0
   -3.3149   58.8536   80.8865 O   0  0  0  0  0  0  0  0  0  0  0  0
   -3.7405   60.7358   79.7668 O   0  0  0  0  0  0  0  0  0  0  0  0
    2.5889   68.8086   84.1287 O   0  0  0  0  0  0  0  0  0  0  0  0
    3.5767   68.2039   84.9679 C   0  0  0  0  0  0  0  0  0  0  0  0
    5.7872   67.0272   84.5746 C   0  0  0  0  0  0  0  0  0  0  0  0
    4.9196   68.2325   84.2404 C   0  0  0  0  0  0  0  0  0  0  0  0
 43 44  1  0  0  0
 44 42  1  0  0  0
 42 41  1  0  0  0
 41  1  1  0  0  0
  1  2  1  0  0  0
  2  3  2  0  0  0
  3  4  1  0  0  0
  4 22  1  0  0  0
 22 23  2  0  0  0
 22 24  2  0  0  0
 22 25  1  0  0  0
 25 26  1  0  0  0
 26 27  1  0  0  0
 27 28  1  0  0  0
 28 31  1  0  0  0
 31 32  1  0  0  0
 32 33  1  0  0  0
 33 34  2  0  0  0
 33 35  1  0  0  0
 28 36  1  0  0  0
 36 37  1  0  0  0
 37 38  1  0  0  0
 38 39  2  0  0  0
 38 40  1  0  0  0
 28 29  1  0  0  0
 29 30  1  0  0  0
  4  5  2  0  0  0
  5  6  1  0  0  0
  6  7  1  0  0  0
  7  8  2  0  0  0
  8  9  1  0  0  0
  9 10  1  0  0  0
 10 19  1  0  0  0
 19 20  1  0  0  0
 20 21  1  0  0  0
 10 11  2  0  0  0
 11 12  1  0  0  0
 12 13  1  0  0  0
 12 14  1  0  0  0
 14 15  1  0  0  0
 15 16  2  0  0  0
 15 17  1  0  0  0
  6  1  2  0  0  0
 17  7  1  0  0  0
 30 25  1  0  0  0
 14  9  2  0  0  0
 17 18  1  0  0  0
M  CHG 1  33   1
M  CHG 1  35  -1
M  CHG 1  38   1
M  CHG 1  40  -1
M  END
> <minimizedAffinity>
-8.66249

$$$$
