


 28 30  0  0  0  0  0  0  0  0999 V2000
   -1.6440   61.5621   82.7561 C   0  0  0  0  0  0  0  0  0  0  0  0
   -2.2854   61.3171   83.8914 N   0  0  0  0  0  0  0  0  0  0  0  0
   -1.6629   62.0806   84.8502 C   0  0  0  0  0  0  0  0  0  0  0  0
   -1.9586   62.1968   86.2601 C   0  0  0  0  0  0  0  0  0  0  0  0
   -2.8557   61.5616   86.8085 O   0  0  0  0  0  0  0  0  0  0  0  0
   -1.1132   63.1029   86.9258 N   0  0  0  0  0  0  0  0  0  0  0  0
   -1.3280   63.2952   88.3463 C   0  0  0  0  0  0  0  0  0  0  0  0
   -0.0423   63.8254   86.3589 C   0  0  0  0  0  0  0  0  0  0  0  0
    0.6622   64.5735   87.0432 O   0  0  0  0  0  0  0  0  0  0  0  0
    0.1943   63.6599   84.9812 N   0  0  0  0  0  0  0  0  0  0  0  0
   -0.6359   62.7941   84.3035 C   0  0  0  0  0  0  0  0  0  0  0  0
   -0.6234   62.4634   82.9844 N   0  0  0  0  0  0  0  0  0  0  0  0
   -0.0017   62.7984   82.2632 H   0  0  0  0  0  0  0  0  0  0  0  0
   -1.2256   61.2763   80.2588 C   0  0  0  0  0  0  0  0  0  0  0  0
   -1.5825   60.6482   79.0556 C   0  0  0  0  0  0  0  0  0  0  0  0
   -2.6394   59.7356   79.0108 C   0  0  0  0  0  0  0  0  0  0  0  0
   -3.3523   59.4381   80.1648 C   0  0  0  0  0  0  0  0  0  0  0  0
   -3.0055   60.0514   81.3676 C   0  0  0  0  0  0  0  0  0  0  0  0
   -1.9433   60.9721   81.4400 C   0  0  0  0  0  0  0  0  0  0  0  0
   -0.1999   62.1890   80.3632 O   0  0  0  0  0  0  0  0  0  0  0  0
   -0.1881   63.2840   79.4428 C   0  0  0  0  0  0  0  0  0  0  0  0
    0.9469   63.0627   78.4427 C   0  0  0  0  0  0  0  0  0  0  0  0
   -0.7202   63.5847   76.8310 C   0  0  0  0  0  0  0  0  0  0  0  0
    0.4703   62.8609   77.1147 O   0  0  0  0  0  0  0  0  0  0  0  0
    1.2860   64.4087   84.3601 C   0  0  0  0  0  0  0  0  0  0  0  0
    0.8450   65.7651   83.7769 C   0  0  0  0  0  0  0  0  0  0  0  0
    0.7162   65.7277   82.2533 C   0  0  0  0  0  0  0  0  0  0  0  0
    1.8433   66.8505   84.1850 C   0  0  0  0  0  0  0  0  0  0  0  0
 23 24  1  0  0  0
 24 22  1  0  0  0
 22 21  1  0  0  0
 21 20  1  0  0  0
 20 14  1  0  0  0
 14 15  2  0  0  0
 15 16  1  0  0  0
 16 17  2  0  0  0
 17 18  1  0  0  0
 18 19  2  0  0  0
 19  1  1  0  0  0
  1  2  2  0  0  0
  2  3  1  0  0  0
  3  4  1  0  0  0
  4  5  2  0  0  0
  4  6  1  0  0  0
  6  7  1  0  0  0
  6  8  1  0  0  0
  8  9  2  0  0  0
  8 10  1  0  0  0
 10 25  1  0  0  0
 25 26  1  0  0  0
 26 27  1  0  0  0
 26 28  1  0  0  0
 10 11  1  0  0  0
 11 12  1  0  0  0
 19 14  1  0  0  0
 12  1  1  0  0  0
 11  3  2  0  0  0
 12 13  1  0  0  0
M  END
> <minimizedAffinity>
-8.49772

$$$$



 28 30  0  0  0  0  0  0  0  0999 V2000
   -1.5830   62.1427   83.8507 C   0  0  0  0  0  0  0  0  0  0  0  0
   -2.2914   61.1372   83.3529 N   0  0  0  0  0  0  0  0  0  0  0  0
   -2.0012   61.0981   82.0099 C   0  0  0  0  0  0  0  0  0  0  0  0
   -2.4959   60.1973   80.9937 C   0  0  0  0  0  0  0  0  0  0  0  0
   -3.3111   59.3089   81.2288 O   0  0  0  0  0  0  0  0  0  0  0  0
   -1.9504   60.4508   79.7221 N   0  0  0  0  0  0  0  0  0  0  0  0
   -2.3802   59.5999   78.6303 C   0  0  0  0  0  0  0  0  0  0  0  0
   -1.0470   61.4805   79.3850 C   0  0  0  0  0  0  0  0  0  0  0  0
   -0.6536   61.6366   78.2252 O   0  0  0  0  0  0  0  0  0  0  0  0
   -0.6110   62.3261   80.4225 N   0  0  0  0  0  0  0  0  0  0  0  0
   -1.1148   62.0825   81.6814 C   0  0  0  0  0  0  0  0  0  0  0  0
   -0.8551   62.7419   82.8422 N   0  0  0  0  0  0  0  0  0  0  0  0
   -0.2409   63.5294   82.9882 H   0  0  0  0  0  0  0  0  0  0  0  0
   -0.5041   63.3258   85.8329 C   0  0  0  0  0  0  0  0  0  0  0  0
   -0.5874   63.7094   87.1803 C   0  0  0  0  0  0  0  0  0  0  0  0
   -1.6956   63.3611   87.9564 C   0  0  0  0  0  0  0  0  0  0  0  0
   -2.7338   62.6268   87.3983 C   0  0  0  0  0  0  0  0  0  0  0  0
   -2.6660   62.2431   86.0600 C   0  0  0  0  0  0  0  0  0  0  0  0
   -1.5620   62.5837   85.2560 C   0  0  0  0  0  0  0  0  0  0  0  0
    0.5651   63.6324   85.0213 O   0  0  0  0  0  0  0  0  0  0  0  0
    1.2636   64.8546   85.2753 C   0  0  0  0  0  0  0  0  0  0  0  0
    1.0288   65.7996   84.0966 C   0  0  0  0  0  0  0  0  0  0  0  0
    2.0349   67.6600   83.0121 C   0  0  0  0  0  0  0  0  0  0  0  0
    1.7108   67.0416   84.2507 O   0  0  0  0  0  0  0  0  0  0  0  0
    0.3394   63.3921   80.1086 C   0  0  0  0  0  0  0  0  0  0  0  0
   -0.3294   64.6693   79.5643 C   0  0  0  0  0  0  0  0  0  0  0  0
    0.2439   65.0933   78.2112 C   0  0  0  0  0  0  0  0  0  0  0  0
   -0.1662   65.8069   80.5745 C   0  0  0  0  0  0  0  0  0  0  0  0
 23 24  1  0  0  0
 24 22  1  0  0  0
 22 21  1  0  0  0
 21 20  1  0  0  0
 20 14  1  0  0  0
 14 15  2  0  0  0
 15 16  1  0  0  0
 16 17  2  0  0  0
 17 18  1  0  0  0
 18 19  2  0  0  0
 19  1  1  0  0  0
  1  2  2  0  0  0
  2  3  1  0  0  0
  3  4  1  0  0  0
  4  5  2  0  0  0
  4  6  1  0  0  0
  6  7  1  0  0  0
  6  8  1  0  0  0
  8  9  2  0  0  0
  8 10  1  0  0  0
 10 25  1  0  0  0
 25 26  1  0  0  0
 26 27  1  0  0  0
 26 28  1  0  0  0
 10 11  1  0  0  0
 11 12  1  0  0  0
 19 14  1  0  0  0
 12  1  1  0  0  0
 11  3  2  0  0  0
 12 13  1  0  0  0
M  END
> <minimizedAffinity>
-8.48624

$$$$



 28 30  0  0  0  0  0  0  0  0999 V2000
    1.3483   65.7711   83.9553 C   0  0  0  0  0  0  0  0  0  0  0  0
    0.7966   65.0658   82.9762 N   0  0  0  0  0  0  0  0  0  0  0  0
   -0.0177   64.1423   83.5874 C   0  0  0  0  0  0  0  0  0  0  0  0
   -0.8551   63.1260   82.9918 C   0  0  0  0  0  0  0  0  0  0  0  0
   -0.9236   62.9441   81.7788 O   0  0  0  0  0  0  0  0  0  0  0  0
   -1.5698   62.3760   83.9434 N   0  0  0  0  0  0  0  0  0  0  0  0
   -2.4431   61.3301   83.4492 C   0  0  0  0  0  0  0  0  0  0  0  0
   -1.4983   62.5106   85.3458 C   0  0  0  0  0  0  0  0  0  0  0  0
   -2.1463   61.7748   86.0963 O   0  0  0  0  0  0  0  0  0  0  0  0
   -0.6576   63.5163   85.8588 N   0  0  0  0  0  0  0  0  0  0  0  0
    0.0355   64.2788   84.9443 C   0  0  0  0  0  0  0  0  0  0  0  0
    0.8995   65.3036   85.1743 N   0  0  0  0  0  0  0  0  0  0  0  0
    1.1851   65.6915   86.0613 H   0  0  0  0  0  0  0  0  0  0  0  0
    3.5714   66.9236   84.4274 C   0  0  0  0  0  0  0  0  0  0  0  0
    4.4144   68.0229   84.2027 C   0  0  0  0  0  0  0  0  0  0  0  0
    4.0135   69.0748   83.3754 C   0  0  0  0  0  0  0  0  0  0  0  0
    2.7680   69.0430   82.7620 C   0  0  0  0  0  0  0  0  0  0  0  0
    1.9226   67.9550   82.9730 C   0  0  0  0  0  0  0  0  0  0  0  0
    2.3038   66.8814   83.7995 C   0  0  0  0  0  0  0  0  0  0  0  0
    3.9079   65.8624   85.2376 O   0  0  0  0  0  0  0  0  0  0  0  0
    5.2556   65.3858   85.1837 C   0  0  0  0  0  0  0  0  0  0  0  0
    5.9011   65.6053   86.5521 C   0  0  0  0  0  0  0  0  0  0  0  0
    5.6114   65.4658   88.9071 C   0  0  0  0  0  0  0  0  0  0  0  0
    5.0384   65.2387   87.6258 O   0  0  0  0  0  0  0  0  0  0  0  0
   -0.5754   63.6929   87.3080 C   0  0  0  0  0  0  0  0  0  0  0  0
    0.5370   62.8536   87.9658 C   0  0  0  0  0  0  0  0  0  0  0  0
    0.1378   62.3449   89.3519 C   0  0  0  0  0  0  0  0  0  0  0  0
    1.8173   63.6853   88.0691 C   0  0  0  0  0  0  0  0  0  0  0  0
 23 24  1  0  0  0
 24 22  1  0  0  0
 22 21  1  0  0  0
 21 20  1  0  0  0
 20 14  1  0  0  0
 14 15  2  0  0  0
 15 16  1  0  0  0
 16 17  2  0  0  0
 17 18  1  0  0  0
 18 19  2  0  0  0
 19  1  1  0  0  0
  1  2  2  0  0  0
  2  3  1  0  0  0
  3  4  1  0  0  0
  4  5  2  0  0  0
  4  6  1  0  0  0
  6  7  1  0  0  0
  6  8  1  0  0  0
  8  9  2  0  0  0
  8 10  1  0  0  0
 10 25  1  0  0  0
 25 26  1  0  0  0
 26 27  1  0  0  0
 26 28  1  0  0  0
 10 11  1  0  0  0
 11 12  1  0  0  0
 19 14  1  0  0  0
 12  1  1  0  0  0
 11  3  2  0  0  0
 12 13  1  0  0  0
M  END
> <minimizedAffinity>
-8.42124

$$$$



 28 30  0  0  0  0  0  0  0  0999 V2000
    1.1118   65.7672   83.3672 C   0  0  0  0  0  0  0  0  0  0  0  0
    0.4699   65.4383   82.2536 N   0  0  0  0  0  0  0  0  0  0  0  0
   -0.2937   64.3392   82.5673 C   0  0  0  0  0  0  0  0  0  0  0  0
   -1.1884   63.5775   81.7258 C   0  0  0  0  0  0  0  0  0  0  0  0
   -1.3659   63.8325   80.5373 O   0  0  0  0  0  0  0  0  0  0  0  0
   -1.8212   62.5234   82.4093 N   0  0  0  0  0  0  0  0  0  0  0  0
   -2.7428   61.6973   81.6550 C   0  0  0  0  0  0  0  0  0  0  0  0
   -1.6242   62.1575   83.7575 C   0  0  0  0  0  0  0  0  0  0  0  0
   -2.2083   61.1891   84.2529 O   0  0  0  0  0  0  0  0  0  0  0  0
   -0.7337   62.9385   84.5179 N   0  0  0  0  0  0  0  0  0  0  0  0
   -0.1190   63.9908   83.8752 C   0  0  0  0  0  0  0  0  0  0  0  0
    0.7697   64.8898   84.3768 N   0  0  0  0  0  0  0  0  0  0  0  0
    1.1360   64.9476   85.3156 H   0  0  0  0  0  0  0  0  0  0  0  0
    3.2177   66.8215   84.3403 C   0  0  0  0  0  0  0  0  0  0  0  0
    4.0630   67.9391   84.4189 C   0  0  0  0  0  0  0  0  0  0  0  0
    3.7684   69.1101   83.7162 C   0  0  0  0  0  0  0  0  0  0  0  0
    2.6282   69.1805   82.9265 C   0  0  0  0  0  0  0  0  0  0  0  0
    1.7823   68.0763   82.8360 C   0  0  0  0  0  0  0  0  0  0  0  0
    2.0580   66.8842   83.5316 C   0  0  0  0  0  0  0  0  0  0  0  0
    3.4512   65.6444   85.0153 O   0  0  0  0  0  0  0  0  0  0  0  0
    4.8062   65.3233   85.3428 C   0  0  0  0  0  0  0  0  0  0  0  0
    4.8654   64.9226   86.8170 C   0  0  0  0  0  0  0  0  0  0  0  0
    5.6622   65.5063   88.9789 C   0  0  0  0  0  0  0  0  0  0  0  0
    5.5128   65.9045   87.6222 O   0  0  0  0  0  0  0  0  0  0  0  0
   -0.5215   62.5957   85.9235 C   0  0  0  0  0  0  0  0  0  0  0  0
   -1.2392   63.5461   86.9015 C   0  0  0  0  0  0  0  0  0  0  0  0
   -0.4526   63.7475   88.1977 C   0  0  0  0  0  0  0  0  0  0  0  0
   -2.6323   63.0002   87.2215 C   0  0  0  0  0  0  0  0  0  0  0  0
 23 24  1  0  0  0
 24 22  1  0  0  0
 22 21  1  0  0  0
 21 20  1  0  0  0
 20 14  1  0  0  0
 14 15  2  0  0  0
 15 16  1  0  0  0
 16 17  2  0  0  0
 17 18  1  0  0  0
 18 19  2  0  0  0
 19  1  1  0  0  0
  1  2  2  0  0  0
  2  3  1  0  0  0
  3  4  1  0  0  0
  4  5  2  0  0  0
  4  6  1  0  0  0
  6  7  1  0  0  0
  6  8  1  0  0  0
  8  9  2  0  0  0
  8 10  1  0  0  0
 10 25  1  0  0  0
 25 26  1  0  0  0
 26 27  1  0  0  0
 26 28  1  0  0  0
 10 11  1  0  0  0
 11 12  1  0  0  0
 19 14  1  0  0  0
 12  1  1  0  0  0
 11  3  2  0  0  0
 12 13  1  0  0  0
M  END
> <minimizedAffinity>
-8.40068

$$$$



 28 30  0  0  0  0  0  0  0  0999 V2000
   -1.3417   61.8120   81.9581 C   0  0  0  0  0  0  0  0  0  0  0  0
   -2.0351   60.8305   81.3956 N   0  0  0  0  0  0  0  0  0  0  0  0
   -1.6494   60.8023   80.0765 C   0  0  0  0  0  0  0  0  0  0  0  0
   -2.0899   59.9273   79.0139 C   0  0  0  0  0  0  0  0  0  0  0  0
   -2.9401   59.0556   79.1763 O   0  0  0  0  0  0  0  0  0  0  0  0
   -1.4481   60.1845   77.7889 N   0  0  0  0  0  0  0  0  0  0  0  0
   -1.8171   59.3588   76.6563 C   0  0  0  0  0  0  0  0  0  0  0  0
   -0.4992   61.1966   77.5332 C   0  0  0  0  0  0  0  0  0  0  0  0
   -0.0194   61.3586   76.4072 O   0  0  0  0  0  0  0  0  0  0  0  0
   -0.1201   62.0176   78.6120 N   0  0  0  0  0  0  0  0  0  0  0  0
   -0.7192   61.7694   79.8276 C   0  0  0  0  0  0  0  0  0  0  0  0
   -0.5291   62.4069   81.0138 N   0  0  0  0  0  0  0  0  0  0  0  0
    0.0909   63.1774   81.2155 H   0  0  0  0  0  0  0  0  0  0  0  0
   -0.4224   63.0183   84.0057 C   0  0  0  0  0  0  0  0  0  0  0  0
   -0.5914   63.3784   85.3516 C   0  0  0  0  0  0  0  0  0  0  0  0
   -1.7181   62.9654   86.0669 C   0  0  0  0  0  0  0  0  0  0  0  0
   -2.6898   62.1893   85.4487 C   0  0  0  0  0  0  0  0  0  0  0  0
   -2.5367   61.8282   84.1112 C   0  0  0  0  0  0  0  0  0  0  0  0
   -1.4123   62.2336   83.3677 C   0  0  0  0  0  0  0  0  0  0  0  0
    0.6693   63.3882   83.2525 O   0  0  0  0  0  0  0  0  0  0  0  0
    1.2128   64.6941   83.4661 C   0  0  0  0  0  0  0  0  0  0  0  0
    0.7633   65.5984   82.3183 C   0  0  0  0  0  0  0  0  0  0  0  0
    1.7506   67.7113   82.7770 C   0  0  0  0  0  0  0  0  0  0  0  0
    1.7587   66.5514   81.9546 O   0  0  0  0  0  0  0  0  0  0  0  0
    0.8748   63.0645   78.3834 C   0  0  0  0  0  0  0  0  0  0  0  0
    0.2863   64.4882   78.4202 C   0  0  0  0  0  0  0  0  0  0  0  0
   -0.5067   64.8215   77.1555 C   0  0  0  0  0  0  0  0  0  0  0  0
    1.4128   65.5067   78.6077 C   0  0  0  0  0  0  0  0  0  0  0  0
 23 24  1  0  0  0
 24 22  1  0  0  0
 22 21  1  0  0  0
 21 20  1  0  0  0
 20 14  1  0  0  0
 14 15  2  0  0  0
 15 16  1  0  0  0
 16 17  2  0  0  0
 17 18  1  0  0  0
 18 19  2  0  0  0
 19  1  1  0  0  0
  1  2  2  0  0  0
  2  3  1  0  0  0
  3  4  1  0  0  0
  4  5  2  0  0  0
  4  6  1  0  0  0
  6  7  1  0  0  0
  6  8  1  0  0  0
  8  9  2  0  0  0
  8 10  1  0  0  0
 10 25  1  0  0  0
 25 26  1  0  0  0
 26 27  1  0  0  0
 26 28  1  0  0  0
 10 11  1  0  0  0
 11 12  1  0  0  0
 19 14  1  0  0  0
 12  1  1  0  0  0
 11  3  2  0  0  0
 12 13  1  0  0  0
M  END
> <minimizedAffinity>
-8.37559

$$$$



 28 30  0  0  0  0  0  0  0  0999 V2000
    0.3110   64.5409   84.8475 C   0  0  0  0  0  0  0  0  0  0  0  0
    0.9740   65.6826   84.7160 N   0  0  0  0  0  0  0  0  0  0  0  0
    1.0333   65.9326   83.3656 C   0  0  0  0  0  0  0  0  0  0  0  0
    1.6389   67.0437   82.6675 C   0  0  0  0  0  0  0  0  0  0  0  0
    2.2336   67.9505   83.2447 O   0  0  0  0  0  0  0  0  0  0  0  0
    1.4770   66.9697   81.2721 N   0  0  0  0  0  0  0  0  0  0  0  0
    2.0467   68.0392   80.4768 C   0  0  0  0  0  0  0  0  0  0  0  0
    0.8438   65.9343   80.5530 C   0  0  0  0  0  0  0  0  0  0  0  0
    0.7851   65.9504   79.3199 O   0  0  0  0  0  0  0  0  0  0  0  0
    0.2812   64.8791   81.2956 N   0  0  0  0  0  0  0  0  0  0  0  0
    0.4078   64.9416   82.6661 C   0  0  0  0  0  0  0  0  0  0  0  0
   -0.0438   64.0637   83.6015 N   0  0  0  0  0  0  0  0  0  0  0  0
   -0.5578   63.2072   83.4564 H   0  0  0  0  0  0  0  0  0  0  0  0
   -1.2024   63.1367   86.3412 C   0  0  0  0  0  0  0  0  0  0  0  0
   -1.4016   62.5078   87.5799 C   0  0  0  0  0  0  0  0  0  0  0  0
   -0.4380   62.5909   88.5879 C   0  0  0  0  0  0  0  0  0  0  0  0
    0.7357   63.3014   88.3728 C   0  0  0  0  0  0  0  0  0  0  0  0
    0.9484   63.9272   87.1455 C   0  0  0  0  0  0  0  0  0  0  0  0
   -0.0054   63.8562   86.1128 C   0  0  0  0  0  0  0  0  0  0  0  0
   -2.1182   63.0967   85.3138 O   0  0  0  0  0  0  0  0  0  0  0  0
   -2.7501   61.8441   85.0348 C   0  0  0  0  0  0  0  0  0  0  0  0
   -2.4371   61.4560   83.5895 C   0  0  0  0  0  0  0  0  0  0  0  0
   -3.0741   60.0062   81.8171 C   0  0  0  0  0  0  0  0  0  0  0  0
   -3.0176   60.2068   83.2236 O   0  0  0  0  0  0  0  0  0  0  0  0
   -0.3979   63.7995   80.5804 C   0  0  0  0  0  0  0  0  0  0  0  0
    0.5450   62.6568   80.1563 C   0  0  0  0  0  0  0  0  0  0  0  0
    0.3394   62.2456   78.6975 C   0  0  0  0  0  0  0  0  0  0  0  0
    0.3324   61.4476   81.0694 C   0  0  0  0  0  0  0  0  0  0  0  0
 23 24  1  0  0  0
 24 22  1  0  0  0
 22 21  1  0  0  0
 21 20  1  0  0  0
 20 14  1  0  0  0
 14 15  2  0  0  0
 15 16  1  0  0  0
 16 17  2  0  0  0
 17 18  1  0  0  0
 18 19  2  0  0  0
 19  1  1  0  0  0
  1  2  2  0  0  0
  2  3  1  0  0  0
  3  4  1  0  0  0
  4  5  2  0  0  0
  4  6  1  0  0  0
  6  7  1  0  0  0
  6  8  1  0  0  0
  8  9  2  0  0  0
  8 10  1  0  0  0
 10 25  1  0  0  0
 25 26  1  0  0  0
 26 27  1  0  0  0
 26 28  1  0  0  0
 10 11  1  0  0  0
 11 12  1  0  0  0
 19 14  1  0  0  0
 12  1  1  0  0  0
 11  3  2  0  0  0
 12 13  1  0  0  0
M  END
> <minimizedAffinity>
-8.37416

$$$$



 28 30  0  0  0  0  0  0  0  0999 V2000
    0.9747   65.0832   85.0755 C   0  0  0  0  0  0  0  0  0  0  0  0
    0.5385   65.6960   83.9825 N   0  0  0  0  0  0  0  0  0  0  0  0
    1.5246   66.5859   83.6284 C   0  0  0  0  0  0  0  0  0  0  0  0
    1.5683   67.5063   82.5150 C   0  0  0  0  0  0  0  0  0  0  0  0
    0.6493   67.6219   81.7080 O   0  0  0  0  0  0  0  0  0  0  0  0
    2.7626   68.2477   82.4617 N   0  0  0  0  0  0  0  0  0  0  0  0
    2.9087   69.2001   81.3789 C   0  0  0  0  0  0  0  0  0  0  0  0
    3.8303   68.1889   83.3819 C   0  0  0  0  0  0  0  0  0  0  0  0
    4.8244   68.9110   83.2604 O   0  0  0  0  0  0  0  0  0  0  0  0
    3.7191   67.2751   84.4468 N   0  0  0  0  0  0  0  0  0  0  0  0
    2.5673   66.5214   84.5066 C   0  0  0  0  0  0  0  0  0  0  0  0
    2.2174   65.5763   85.4198 N   0  0  0  0  0  0  0  0  0  0  0  0
    2.7445   65.2553   86.2185 H   0  0  0  0  0  0  0  0  0  0  0  0
   -0.2828   62.8737   85.2480 C   0  0  0  0  0  0  0  0  0  0  0  0
   -0.9319   61.9332   86.0627 C   0  0  0  0  0  0  0  0  0  0  0  0
   -1.0512   62.1400   87.4392 C   0  0  0  0  0  0  0  0  0  0  0  0
   -0.5243   63.2863   88.0197 C   0  0  0  0  0  0  0  0  0  0  0  0
    0.1268   64.2265   87.2228 C   0  0  0  0  0  0  0  0  0  0  0  0
    0.2627   64.0405   85.8342 C   0  0  0  0  0  0  0  0  0  0  0  0
   -0.1415   62.7288   83.8860 O   0  0  0  0  0  0  0  0  0  0  0  0
   -1.3255   62.7834   83.0852 C   0  0  0  0  0  0  0  0  0  0  0  0
   -1.5074   61.4299   82.3981 C   0  0  0  0  0  0  0  0  0  0  0  0
   -2.9733   59.5635   82.2673 C   0  0  0  0  0  0  0  0  0  0  0  0
   -2.4284   60.5888   83.0879 O   0  0  0  0  0  0  0  0  0  0  0  0
    4.8171   67.1775   85.4075 C   0  0  0  0  0  0  0  0  0  0  0  0
    5.5787   65.8399   85.3345 C   0  0  0  0  0  0  0  0  0  0  0  0
    5.7796   65.2102   86.7138 C   0  0  0  0  0  0  0  0  0  0  0  0
    6.9360   66.0558   84.6619 C   0  0  0  0  0  0  0  0  0  0  0  0
 23 24  1  0  0  0
 24 22  1  0  0  0
 22 21  1  0  0  0
 21 20  1  0  0  0
 20 14  1  0  0  0
 14 15  2  0  0  0
 15 16  1  0  0  0
 16 17  2  0  0  0
 17 18  1  0  0  0
 18 19  2  0  0  0
 19  1  1  0  0  0
  1  2  2  0  0  0
  2  3  1  0  0  0
  3  4  1  0  0  0
  4  5  2  0  0  0
  4  6  1  0  0  0
  6  7  1  0  0  0
  6  8  1  0  0  0
  8  9  2  0  0  0
  8 10  1  0  0  0
 10 25  1  0  0  0
 25 26  1  0  0  0
 26 27  1  0  0  0
 26 28  1  0  0  0
 10 11  1  0  0  0
 11 12  1  0  0  0
 19 14  1  0  0  0
 12  1  1  0  0  0
 11  3  2  0  0  0
 12 13  1  0  0  0
M  END
> <minimizedAffinity>
-8.37187

$$$$



 28 30  0  0  0  0  0  0  0  0999 V2000
    1.4092   66.3062   83.6529 C   0  0  0  0  0  0  0  0  0  0  0  0
    1.2990   66.0447   84.9490 N   0  0  0  0  0  0  0  0  0  0  0  0
    0.5786   64.8775   85.0397 C   0  0  0  0  0  0  0  0  0  0  0  0
    0.1728   64.1430   86.2164 C   0  0  0  0  0  0  0  0  0  0  0  0
    0.4270   64.5183   87.3581 O   0  0  0  0  0  0  0  0  0  0  0  0
   -0.5397   62.9688   85.9124 N   0  0  0  0  0  0  0  0  0  0  0  0
   -0.9915   62.1561   87.0243 C   0  0  0  0  0  0  0  0  0  0  0  0
   -0.8974   62.5116   84.6267 C   0  0  0  0  0  0  0  0  0  0  0  0
   -1.5563   61.4790   84.4716 O   0  0  0  0  0  0  0  0  0  0  0  0
   -0.4754   63.2792   83.5248 N   0  0  0  0  0  0  0  0  0  0  0  0
    0.2437   64.4223   83.7974 C   0  0  0  0  0  0  0  0  0  0  0  0
    0.7652   65.3257   82.9248 N   0  0  0  0  0  0  0  0  0  0  0  0
    0.7201   65.3169   81.9165 H   0  0  0  0  0  0  0  0  0  0  0  0
    3.2197   68.0993   83.6312 C   0  0  0  0  0  0  0  0  0  0  0  0
    3.8118   69.1859   82.9693 C   0  0  0  0  0  0  0  0  0  0  0  0
    3.3022   69.6471   81.7530 C   0  0  0  0  0  0  0  0  0  0  0  0
    2.1969   69.0300   81.1820 C   0  0  0  0  0  0  0  0  0  0  0  0
    1.6017   67.9468   81.8265 C   0  0  0  0  0  0  0  0  0  0  0  0
    2.0975   67.4613   83.0512 C   0  0  0  0  0  0  0  0  0  0  0  0
    3.6718   67.6058   84.8345 O   0  0  0  0  0  0  0  0  0  0  0  0
    5.0842   67.4539   85.0024 C   0  0  0  0  0  0  0  0  0  0  0  0
    5.4419   67.8193   86.4432 C   0  0  0  0  0  0  0  0  0  0  0  0
    5.9500   65.5064   86.6483 C   0  0  0  0  0  0  0  0  0  0  0  0
    5.4818   66.6805   87.2994 O   0  0  0  0  0  0  0  0  0  0  0  0
   -0.8151   62.8223   82.1779 C   0  0  0  0  0  0  0  0  0  0  0  0
    0.4083   62.3703   81.3571 C   0  0  0  0  0  0  0  0  0  0  0  0
    0.0302   61.9477   79.9365 C   0  0  0  0  0  0  0  0  0  0  0  0
    1.1092   61.2130   82.0716 C   0  0  0  0  0  0  0  0  0  0  0  0
 23 24  1  0  0  0
 24 22  1  0  0  0
 22 21  1  0  0  0
 21 20  1  0  0  0
 20 14  1  0  0  0
 14 15  2  0  0  0
 15 16  1  0  0  0
 16 17  2  0  0  0
 17 18  1  0  0  0
 18 19  2  0  0  0
 19  1  1  0  0  0
  1  2  2  0  0  0
  2  3  1  0  0  0
  3  4  1  0  0  0
  4  5  2  0  0  0
  4  6  1  0  0  0
  6  7  1  0  0  0
  6  8  1  0  0  0
  8  9  2  0  0  0
  8 10  1  0  0  0
 10 25  1  0  0  0
 25 26  1  0  0  0
 26 27  1  0  0  0
 26 28  1  0  0  0
 10 11  1  0  0  0
 11 12  1  0  0  0
 19 14  1  0  0  0
 12  1  1  0  0  0
 11  3  2  0  0  0
 12 13  1  0  0  0
M  END
> <minimizedAffinity>
-8.34483

$$$$



 28 30  0  0  0  0  0  0  0  0999 V2000
    1.7139   65.1684   84.9181 C   0  0  0  0  0  0  0  0  0  0  0  0
    1.1897   64.8750   86.1011 N   0  0  0  0  0  0  0  0  0  0  0  0
    0.1430   64.0202   85.8500 C   0  0  0  0  0  0  0  0  0  0  0  0
   -0.7675   63.3919   86.7800 C   0  0  0  0  0  0  0  0  0  0  0  0
   -0.7190   63.5816   87.9928 O   0  0  0  0  0  0  0  0  0  0  0  0
   -1.7052   62.5539   86.1497 N   0  0  0  0  0  0  0  0  0  0  0  0
   -2.6650   61.8723   86.9952 C   0  0  0  0  0  0  0  0  0  0  0  0
   -1.8358   62.3323   84.7627 C   0  0  0  0  0  0  0  0  0  0  0  0
   -2.7194   61.5990   84.3091 O   0  0  0  0  0  0  0  0  0  0  0  0
   -0.9199   62.9811   83.9132 N   0  0  0  0  0  0  0  0  0  0  0  0
    0.0224   63.7897   84.5102 C   0  0  0  0  0  0  0  0  0  0  0  0
    1.0111   64.5168   83.9243 N   0  0  0  0  0  0  0  0  0  0  0  0
    1.2330   64.5907   82.9424 H   0  0  0  0  0  0  0  0  0  0  0  0
    2.7923   67.2330   83.8848 C   0  0  0  0  0  0  0  0  0  0  0  0
    3.9431   68.0190   83.7193 C   0  0  0  0  0  0  0  0  0  0  0  0
    5.1534   67.6494   84.3111 C   0  0  0  0  0  0  0  0  0  0  0  0
    5.2305   66.4925   85.0754 C   0  0  0  0  0  0  0  0  0  0  0  0
    4.0940   65.7050   85.2518 C   0  0  0  0  0  0  0  0  0  0  0  0
    2.8622   66.0567   84.6685 C   0  0  0  0  0  0  0  0  0  0  0  0
    1.5749   67.5415   83.3202 O   0  0  0  0  0  0  0  0  0  0  0  0
    1.5652   67.9762   81.9574 C   0  0  0  0  0  0  0  0  0  0  0  0
    1.8043   66.7612   81.0607 C   0  0  0  0  0  0  0  0  0  0  0  0
   -0.4316   65.9969   80.8037 C   0  0  0  0  0  0  0  0  0  0  0  0
    0.8691   65.7134   81.3033 O   0  0  0  0  0  0  0  0  0  0  0  0
   -1.0178   62.7577   82.4714 C   0  0  0  0  0  0  0  0  0  0  0  0
   -0.4888   61.3802   82.0271 C   0  0  0  0  0  0  0  0  0  0  0  0
    1.0365   61.3522   81.9167 C   0  0  0  0  0  0  0  0  0  0  0  0
   -1.1116   60.9982   80.6827 C   0  0  0  0  0  0  0  0  0  0  0  0
 23 24  1  0  0  0
 24 22  1  0  0  0
 22 21  1  0  0  0
 21 20  1  0  0  0
 20 14  1  0  0  0
 14 15  2  0  0  0
 15 16  1  0  0  0
 16 17  2  0  0  0
 17 18  1  0  0  0
 18 19  2  0  0  0
 19  1  1  0  0  0
  1  2  2  0  0  0
  2  3  1  0  0  0
  3  4  1  0  0  0
  4  5  2  0  0  0
  4  6  1  0  0  0
  6  7  1  0  0  0
  6  8  1  0  0  0
  8  9  2  0  0  0
  8 10  1  0  0  0
 10 25  1  0  0  0
 25 26  1  0  0  0
 26 27  1  0  0  0
 26 28  1  0  0  0
 10 11  1  0  0  0
 11 12  1  0  0  0
 19 14  1  0  0  0
 12  1  1  0  0  0
 11  3  2  0  0  0
 12 13  1  0  0  0
M  END
> <minimizedAffinity>
-8.25083

$$$$
