
     RDKit          3D

 55 58  0  0  0  0  0  0  0  0999 V2000
   -9.3734    0.3649    0.2680 C   0  0  0  0  0  0  0  0  0  0  0  0
   -8.4929   -0.6835    0.6481 O   0  0  0  0  0  0  0  0  0  0  0  0
   -7.1572   -0.3922    0.7442 C   0  0  0  0  0  0  0  0  0  0  0  0
   -6.5984    0.8628    0.4808 C   0  0  0  0  0  0  0  0  0  0  0  0
   -5.2187    1.0698    0.6045 C   0  0  0  0  0  0  0  0  0  0  0  0
   -4.3710    0.0272    0.9978 C   0  0  0  0  0  0  0  0  0  0  0  0
   -2.8795    0.2404    1.1224 C   0  0  0  0  0  0  0  0  0  0  0  0
   -2.2156   -0.4847    0.0451 N   0  0  0  0  0  0  0  0  0  0  0  0
   -0.8094   -0.3417    0.0287 C   0  0  0  0  0  0  0  0  0  0  0  0
   -0.2006    0.4073    0.9688 N   0  0  0  0  0  0  0  0  0  0  0  0
    1.1574    0.5856    0.9619 N   0  0  0  0  0  0  0  0  0  0  0  0
    1.9305    0.0065    0.0195 C   0  0  0  0  0  0  0  0  0  0  0  0
    3.3310    0.2604    0.0103 N   0  0  0  0  0  0  0  0  0  0  0  0
    3.6227    1.3765   -0.9145 C   0  0  0  0  0  0  0  0  0  0  0  0
    4.9320    2.0818   -0.5497 C   0  0  0  0  0  0  0  0  0  0  0  0
    5.9516    1.1114    0.0534 C   0  0  0  0  0  0  0  0  0  0  0  0
    7.2551    1.8216    0.3782 C   0  0  0  0  0  0  0  0  0  0  0  0
    8.2580    1.0101    0.8228 N   0  0  0  0  0  0  0  0  0  0  0  0
    7.4371    3.0267    0.2554 O   0  0  0  0  0  0  0  0  0  0  0  0
    5.3820    0.4137    1.3022 C   0  0  0  0  0  0  0  0  0  0  0  0
    3.8540    0.4696    1.3654 C   0  0  0  0  0  0  0  0  0  0  0  0
    1.3530   -0.8269   -0.9638 C   0  0  0  0  0  0  0  0  0  0  0  0
    2.1182   -1.5130   -1.9392 C   0  0  0  0  0  0  0  0  0  0  0  0
    1.5257   -2.3405   -2.8947 C   0  0  0  0  0  0  0  0  0  0  0  0
    0.1465   -2.5161   -2.8937 C   0  0  0  0  0  0  0  0  0  0  0  0
   -0.4734   -3.3689   -3.8649 C   0  0  0  0  0  0  0  0  0  0  0  0
   -0.9738   -4.0532   -4.6573 N   0  0  0  0  0  0  0  0  0  0  0  0
   -0.6302   -1.8597   -1.9332 C   0  0  0  0  0  0  0  0  0  0  0  0
   -0.0510   -1.0063   -0.9582 C   0  0  0  0  0  0  0  0  0  0  0  0
   -4.9286   -1.2322    1.2574 C   0  0  0  0  0  0  0  0  0  0  0  0
   -6.3061   -1.4388    1.1328 C   0  0  0  0  0  0  0  0  0  0  0  0
   -6.9184   -3.0213    1.4709 Cl  0  0  0  0  0  0  0  0  0  0  0  0
   -9.3551    1.1805    0.9984 H   0  0  0  0  0  0  0  0  0  0  0  0
  -10.3891   -0.0417    0.2494 H   0  0  0  0  0  0  0  0  0  0  0  0
   -9.1425    0.7286   -0.7386 H   0  0  0  0  0  0  0  0  0  0  0  0
   -7.2089    1.7066    0.1754 H   0  0  0  0  0  0  0  0  0  0  0  0
   -4.8134    2.0576    0.3917 H   0  0  0  0  0  0  0  0  0  0  0  0
   -2.6567    1.3138    1.0692 H   0  0  0  0  0  0  0  0  0  0  0  0
   -2.5557   -0.1242    2.1058 H   0  0  0  0  0  0  0  0  0  0  0  0
   -2.5858   -0.2102   -0.8606 H   0  0  0  0  0  0  0  0  0  0  0  0
    2.8189    2.1252   -0.9285 H   0  0  0  0  0  0  0  0  0  0  0  0
    3.7124    0.9765   -1.9315 H   0  0  0  0  0  0  0  0  0  0  0  0
    4.7204    2.8845    0.1702 H   0  0  0  0  0  0  0  0  0  0  0  0
    5.3396    2.5782   -1.4390 H   0  0  0  0  0  0  0  0  0  0  0  0
    6.1842    0.3511   -0.7054 H   0  0  0  0  0  0  0  0  0  0  0  0
    8.2161    0.0037    0.7432 H   0  0  0  0  0  0  0  0  0  0  0  0
    9.1616    1.4405    0.9744 H   0  0  0  0  0  0  0  0  0  0  0  0
    5.7039   -0.6360    1.2858 H   0  0  0  0  0  0  0  0  0  0  0  0
    5.7877    0.8403    2.2279 H   0  0  0  0  0  0  0  0  0  0  0  0
    3.5302    1.4363    1.7741 H   0  0  0  0  0  0  0  0  0  0  0  0
    3.5086   -0.3149    2.0513 H   0  0  0  0  0  0  0  0  0  0  0  0
    3.2032   -1.4144   -1.9434 H   0  0  0  0  0  0  0  0  0  0  0  0
    2.1521   -2.8498   -3.6248 H   0  0  0  0  0  0  0  0  0  0  0  0
   -1.7066   -2.0326   -1.9284 H   0  0  0  0  0  0  0  0  0  0  0  0
   -4.2816   -2.0564    1.5521 H   0  0  0  0  0  0  0  0  0  0  0  0
  1  2  1  0
  2  3  1  0
  3  4  1  0
  4  5  2  0
  5  6  1  0
  6  7  1  0
  7  8  1  0
  8  9  1  0
  9 10  1  0
 10 11  2  0
 11 12  1  0
 12 13  1  0
 13 14  1  0
 14 15  1  0
 15 16  1  0
 16 17  1  0
 17 18  1  0
 17 19  2  0
 16 20  1  0
 20 21  1  0
 12 22  2  0
 22 23  1  0
 23 24  2  0
 24 25  1  0
 25 26  1  0
 26 27  3  0
 25 28  2  0
 28 29  1  0
  6 30  2  0
 30 31  1  0
 31 32  1  0
 31  3  2  0
 29  9  2  0
 21 13  1  0
 29 22  1  0
  1 33  1  0
  1 34  1  0
  1 35  1  0
  4 36  1  0
  5 37  1  0
  7 38  1  0
  7 39  1  0
  8 40  1  0
 14 41  1  0
 14 42  1  0
 15 43  1  0
 15 44  1  0
 16 45  1  0
 18 46  1  0
 18 47  1  0
 20 48  1  0
 20 49  1  0
 21 50  1  0
 21 51  1  0
 23 52  1  0
 24 53  1  0
 28 54  1  0
 30 55  1  0
M  END
$$$$
