
     RDKit          3D

 68 73  0  0  0  0  0  0  0  0999 V2000
    8.2768    0.1285   -4.8377 C   0  0  0  0  0  0  0  0  0  0  0  0
    7.9656   -0.3167   -3.5255 O   0  0  0  0  0  0  0  0  0  0  0  0
    6.7084   -0.0521   -3.0428 C   0  0  0  0  0  0  0  0  0  0  0  0
    5.7223    0.6439   -3.7452 C   0  0  0  0  0  0  0  0  0  0  0  0
    4.4670    0.8672   -3.1698 C   0  0  0  0  0  0  0  0  0  0  0  0
    4.1655    0.4011   -1.8822 C   0  0  0  0  0  0  0  0  0  0  0  0
    2.8485    0.6374   -1.2836 C   0  0  0  0  0  0  0  0  0  0  0  0
    2.2434    1.8767   -1.2371 C   0  0  0  0  0  0  0  0  0  0  0  0
    1.0291    2.1208   -0.6940 N   0  0  0  0  0  0  0  0  0  0  0  0
    0.3666    1.0815   -0.1601 C   0  0  0  0  0  0  0  0  0  0  0  0
   -0.8835    1.3052    0.3626 N   0  0  0  0  0  0  0  0  0  0  0  0
   -1.1901    2.6571    0.8167 C   0  0  0  0  0  0  0  0  0  0  0  0
   -2.2048    2.4515    1.8903 C   0  0  0  0  0  0  0  0  0  0  0  0
   -2.3775    1.1001    2.1445 C   0  0  0  0  0  0  0  0  0  0  0  0
   -3.1746    0.5959    3.1098 N   0  0  0  0  0  0  0  0  0  0  0  0
   -3.8731    1.4807    3.8433 C   0  0  0  0  0  0  0  0  0  0  0  0
   -4.7215    1.0004    4.8316 C   0  0  0  0  0  0  0  0  0  0  0  0
   -5.4778    1.8570    5.6365 C   0  0  0  0  0  0  0  0  0  0  0  0
   -5.3896    3.2313    5.4567 C   0  0  0  0  0  0  0  0  0  0  0  0
   -4.5464    3.7427    4.4723 C   0  0  0  0  0  0  0  0  0  0  0  0
   -3.7811    2.8832    3.6551 C   0  0  0  0  0  0  0  0  0  0  0  0
   -2.9151    3.3566    2.6494 C   0  0  0  0  0  0  0  0  0  0  0  0
   -2.7948    4.7059    2.4580 O   0  0  0  0  0  0  0  0  0  0  0  0
   -1.4956    0.2708    1.2150 C   0  0  0  0  0  0  0  0  0  0  0  0
   -2.2920   -0.7532    0.4172 C   0  0  0  0  0  0  0  0  0  0  0  0
   -2.8259   -0.4760   -0.8487 C   0  0  0  0  0  0  0  0  0  0  0  0
   -3.5618   -1.4397   -1.5448 C   0  0  0  0  0  0  0  0  0  0  0  0
   -3.7913   -2.6990   -0.9837 C   0  0  0  0  0  0  0  0  0  0  0  0
   -4.5014   -3.7038   -1.5942 O   0  0  0  0  0  0  0  0  0  0  0  0
   -5.0239   -3.4455   -2.8887 C   0  0  0  0  0  0  0  0  0  0  0  0
   -3.2813   -2.9890    0.2962 C   0  0  0  0  0  0  0  0  0  0  0  0
   -3.5537   -4.2436    0.7858 O   0  0  0  0  0  0  0  0  0  0  0  0
   -3.2142   -4.5048    2.1398 C   0  0  0  0  0  0  0  0  0  0  0  0
   -2.5372   -2.0192    0.9809 C   0  0  0  0  0  0  0  0  0  0  0  0
    0.8699   -0.1603   -0.1466 N   0  0  0  0  0  0  0  0  0  0  0  0
    2.0836   -0.3555   -0.7078 C   0  0  0  0  0  0  0  0  0  0  0  0
    5.1654   -0.2990   -1.1827 C   0  0  0  0  0  0  0  0  0  0  0  0
    6.4279   -0.5284   -1.7481 C   0  0  0  0  0  0  0  0  0  0  0  0
    7.4486   -1.1992   -1.1201 O   0  0  0  0  0  0  0  0  0  0  0  0
    7.2035   -1.7183    0.1787 C   0  0  0  0  0  0  0  0  0  0  0  0
    9.3048   -0.1744   -5.0587 H   0  0  0  0  0  0  0  0  0  0  0  0
    8.2305    1.2204   -4.9055 H   0  0  0  0  0  0  0  0  0  0  0  0
    7.6248   -0.3430   -5.5804 H   0  0  0  0  0  0  0  0  0  0  0  0
    5.8950    1.0249   -4.7463 H   0  0  0  0  0  0  0  0  0  0  0  0
    3.7180    1.4008   -3.7533 H   0  0  0  0  0  0  0  0  0  0  0  0
    2.7340    2.7577   -1.6435 H   0  0  0  0  0  0  0  0  0  0  0  0
   -0.3191    3.1635    1.2505 H   0  0  0  0  0  0  0  0  0  0  0  0
   -1.6045    3.2509   -0.0045 H   0  0  0  0  0  0  0  0  0  0  0  0
   -4.7989   -0.0744    4.9783 H   0  0  0  0  0  0  0  0  0  0  0  0
   -6.1331    1.4453    6.3995 H   0  0  0  0  0  0  0  0  0  0  0  0
   -5.9742    3.9048    6.0779 H   0  0  0  0  0  0  0  0  0  0  0  0
   -4.4830    4.8207    4.3374 H   0  0  0  0  0  0  0  0  0  0  0  0
   -2.2324    4.8898    1.6895 H   0  0  0  0  0  0  0  0  0  0  0  0
   -0.7381   -0.2227    1.8393 H   0  0  0  0  0  0  0  0  0  0  0  0
   -2.6658    0.4955   -1.3114 H   0  0  0  0  0  0  0  0  0  0  0  0
   -3.9423   -1.1714   -2.5241 H   0  0  0  0  0  0  0  0  0  0  0  0
   -5.5484   -4.3457   -3.2234 H   0  0  0  0  0  0  0  0  0  0  0  0
   -4.2218   -3.2431   -3.6062 H   0  0  0  0  0  0  0  0  0  0  0  0
   -5.7514   -2.6274   -2.8655 H   0  0  0  0  0  0  0  0  0  0  0  0
   -2.1284   -4.5027    2.2796 H   0  0  0  0  0  0  0  0  0  0  0  0
   -3.5777   -5.5066    2.3881 H   0  0  0  0  0  0  0  0  0  0  0  0
   -3.7034   -3.7972    2.8176 H   0  0  0  0  0  0  0  0  0  0  0  0
   -2.1353   -2.2213    1.9692 H   0  0  0  0  0  0  0  0  0  0  0  0
    2.4224   -1.3884   -0.6842 H   0  0  0  0  0  0  0  0  0  0  0  0
    4.9432   -0.6492   -0.1790 H   0  0  0  0  0  0  0  0  0  0  0  0
    6.9934   -0.9143    0.8916 H   0  0  0  0  0  0  0  0  0  0  0  0
    8.1125   -2.2283    0.5122 H   0  0  0  0  0  0  0  0  0  0  0  0
    6.3951   -2.4567    0.1636 H   0  0  0  0  0  0  0  0  0  0  0  0
  1  2  1  0
  2  3  1  0
  3  4  1  0
  4  5  2  0
  5  6  1  0
  6  7  1  0
  7  8  2  0
  8  9  1  0
  9 10  2  0
 10 11  1  0
 11 12  1  0
 12 13  1  0
 13 14  1  0
 14 15  2  0
 15 16  1  0
 16 17  2  0
 17 18  1  0
 18 19  2  0
 19 20  1  0
 20 21  2  0
 21 22  1  0
 22 23  1  0
 14 24  1  0
 24 25  1  0
 25 26  1  0
 26 27  2  0
 27 28  1  0
 28 29  1  0
 29 30  1  0
 28 31  2  0
 31 32  1  0
 32 33  1  0
 31 34  1  0
 10 35  1  0
 35 36  2  0
  6 37  2  0
 37 38  1  0
 38 39  1  0
 39 40  1  0
 38  3  2  0
 36  7  1  0
 24 11  1  0
 34 25  2  0
 22 13  2  0
 21 16  1  0
  1 41  1  0
  1 42  1  0
  1 43  1  0
  4 44  1  0
  5 45  1  0
  8 46  1  0
 12 47  1  0
 12 48  1  0
 17 49  1  0
 18 50  1  0
 19 51  1  0
 20 52  1  0
 23 53  1  0
 24 54  1  0
 26 55  1  0
 27 56  1  0
 30 57  1  0
 30 58  1  0
 30 59  1  0
 33 60  1  0
 33 61  1  0
 33 62  1  0
 34 63  1  0
 36 64  1  0
 37 65  1  0
 40 66  1  0
 40 67  1  0
 40 68  1  0
M  END
$$$$
