
     RDKit          3D

 51 53  0  0  0  0  0  0  0  0999 V2000
    3.3116   -5.3111   -0.4623 C   0  0  0  0  0  0  0  0  0  0  0  0
    2.4817   -4.1461    0.0467 C   0  0  0  0  0  0  0  0  0  0  0  0
    1.8833   -3.3361   -1.0996 C   0  0  0  0  0  0  0  0  0  0  0  0
    1.0788   -2.2694   -0.5852 O   0  0  0  0  0  0  0  0  0  0  0  0
    1.6241   -1.0208   -0.4342 C   0  0  0  0  0  0  0  0  0  0  0  0
    3.0028   -0.7741   -0.4674 C   0  0  0  0  0  0  0  0  0  0  0  0
    3.5051    0.5194   -0.2990 C   0  0  0  0  0  0  0  0  0  0  0  0
    2.6390    1.5837   -0.0866 C   0  0  0  0  0  0  0  0  0  0  0  0
    3.1255    2.9077    0.0980 N   0  0  0  0  0  0  0  0  0  0  0  0
    4.1182    3.2627    1.4126 S   0  0  0  0  0  0  0  0  0  0  0  0
    3.0523    2.9149    2.7984 C   0  0  0  0  0  0  0  0  0  0  0  0
    5.2346    2.3445    1.4468 O   0  0  0  0  0  0  0  0  0  0  0  0
    4.3227    4.6950    1.3718 O   0  0  0  0  0  0  0  0  0  0  0  0
    1.2658    1.3569   -0.0457 C   0  0  0  0  0  0  0  0  0  0  0  0
    0.7411    0.0590   -0.2083 C   0  0  0  0  0  0  0  0  0  0  0  0
   -0.7562   -0.0717   -0.1251 C   0  0  0  0  0  0  0  0  0  0  0  0
   -1.5006    0.9931    0.0324 N   0  0  0  0  0  0  0  0  0  0  0  0
   -2.8303    0.7304    0.0926 C   0  0  0  0  0  0  0  0  0  0  0  0
   -3.4504   -0.4911    0.0098 C   0  0  0  0  0  0  0  0  0  0  0  0
   -4.8290   -0.2368    0.1200 C   0  0  0  0  0  0  0  0  0  0  0  0
   -5.9417   -1.2153    0.0912 C   0  0  0  0  0  0  0  0  0  0  0  0
   -5.0700    1.0772    0.2639 N   0  0  0  0  0  0  0  0  0  0  0  0
   -3.8377    1.6421    0.2413 N   0  0  0  0  0  0  0  0  0  0  0  0
   -3.7017    3.0783    0.3689 C   0  0  0  0  0  0  0  0  0  0  0  0
   -3.7343    3.7776   -0.9781 C   0  0  0  0  0  0  0  0  0  0  0  0
   -2.6398   -1.6591   -0.1586 C   0  0  0  0  0  0  0  0  0  0  0  0
   -3.0718   -2.8023   -0.2454 O   0  0  0  0  0  0  0  0  0  0  0  0
   -1.2929   -1.3549   -0.2149 N   0  0  0  0  0  0  0  0  0  0  0  0
    3.7226   -5.8798    0.3777 H   0  0  0  0  0  0  0  0  0  0  0  0
    4.1474   -4.9582   -1.0749 H   0  0  0  0  0  0  0  0  0  0  0  0
    2.7041   -5.9911   -1.0678 H   0  0  0  0  0  0  0  0  0  0  0  0
    1.6743   -4.5180    0.6891 H   0  0  0  0  0  0  0  0  0  0  0  0
    3.0995   -3.5064    0.6863 H   0  0  0  0  0  0  0  0  0  0  0  0
    1.2038   -3.9808   -1.6698 H   0  0  0  0  0  0  0  0  0  0  0  0
    2.6343   -2.9882   -1.8181 H   0  0  0  0  0  0  0  0  0  0  0  0
    3.7291   -1.5679   -0.6127 H   0  0  0  0  0  0  0  0  0  0  0  0
    4.5805    0.6807   -0.3462 H   0  0  0  0  0  0  0  0  0  0  0  0
    2.4983    3.6790   -0.1321 H   0  0  0  0  0  0  0  0  0  0  0  0
    3.5814    3.2095    3.7076 H   0  0  0  0  0  0  0  0  0  0  0  0
    2.8363    1.8459    2.8307 H   0  0  0  0  0  0  0  0  0  0  0  0
    2.1372    3.5015    2.6982 H   0  0  0  0  0  0  0  0  0  0  0  0
    0.5927    2.1948    0.1209 H   0  0  0  0  0  0  0  0  0  0  0  0
   -5.8343   -1.9393    0.9052 H   0  0  0  0  0  0  0  0  0  0  0  0
   -5.9459   -1.7603   -0.8582 H   0  0  0  0  0  0  0  0  0  0  0  0
   -6.9135   -0.7234    0.2027 H   0  0  0  0  0  0  0  0  0  0  0  0
   -4.5169    3.4348    1.0084 H   0  0  0  0  0  0  0  0  0  0  0  0
   -2.7597    3.2843    0.8882 H   0  0  0  0  0  0  0  0  0  0  0  0
   -2.9173    3.4340   -1.6214 H   0  0  0  0  0  0  0  0  0  0  0  0
   -4.6760    3.5819   -1.5018 H   0  0  0  0  0  0  0  0  0  0  0  0
   -3.6340    4.8594   -0.8473 H   0  0  0  0  0  0  0  0  0  0  0  0
   -0.6742   -2.1463   -0.3360 H   0  0  0  0  0  0  0  0  0  0  0  0
  1  2  1  0
  2  3  1  0
  3  4  1  0
  4  5  1  0
  5  6  1  0
  6  7  2  0
  7  8  1  0
  8  9  1  0
  9 10  1  0
 10 11  1  0
 10 12  2  0
 10 13  2  0
  8 14  2  0
 14 15  1  0
 15 16  1  0
 16 17  2  0
 17 18  1  0
 18 19  2  0
 19 20  1  0
 20 21  1  0
 20 22  2  0
 22 23  1  0
 23 24  1  0
 24 25  1  0
 19 26  1  0
 26 27  2  0
 26 28  1  0
 15  5  2  0
 28 16  1  0
 23 18  1  0
  1 29  1  0
  1 30  1  0
  1 31  1  0
  2 32  1  0
  2 33  1  0
  3 34  1  0
  3 35  1  0
  6 36  1  0
  7 37  1  0
  9 38  1  0
 11 39  1  0
 11 40  1  0
 11 41  1  0
 14 42  1  0
 21 43  1  0
 21 44  1  0
 21 45  1  0
 24 46  1  0
 24 47  1  0
 25 48  1  0
 25 49  1  0
 25 50  1  0
 28 51  1  0
M  END
$$$$
