


 47 50  0  0  0  0  0  0  0  0999 V2000
    0.1470   63.8693   85.3603 C   0  0  0  0  0  0  0  0  0  0  0  0
   -0.5123   62.6430   85.5186 C   0  0  0  0  0  0  0  0  0  0  0  0
   -0.7005   61.8023   84.4225 C   0  0  0  0  0  0  0  0  0  0  0  0
   -0.2209   62.1952   83.1724 C   0  0  0  0  0  0  0  0  0  0  0  0
    0.4613   63.4061   83.0106 C   0  0  0  0  0  0  0  0  0  0  0  0
    0.6737   64.2466   84.1136 C   0  0  0  0  0  0  0  0  0  0  0  0
    1.4637   65.4971   83.8897 C   0  0  0  0  0  0  0  0  0  0  0  0
    2.5867   65.6688   84.5272 N   0  0  0  0  0  0  0  0  0  0  0  0
    3.2268   66.8774   84.2515 C   0  0  0  0  0  0  0  0  0  0  0  0
    4.4475   67.3262   84.7934 C   0  0  0  0  0  0  0  0  0  0  0  0
    4.6676   68.5686   84.2166 C   0  0  0  0  0  0  0  0  0  0  0  0
    3.6204   68.8556   83.3668 N   0  0  0  0  0  0  0  0  0  0  0  0
    2.7302   67.8151   83.3872 C   0  0  0  0  0  0  0  0  0  0  0  0
    1.5022   67.6220   82.6889 C   0  0  0  0  0  0  0  0  0  0  0  0
    0.9987   68.3977   81.8838 O   0  0  0  0  0  0  0  0  0  0  0  0
    0.9144   66.4224   83.0139 N   0  0  0  0  0  0  0  0  0  0  0  0
    0.0418   66.2205   82.5439 H   0  0  0  0  0  0  0  0  0  0  0  0
    3.4993   70.0802   82.5949 C   0  0  0  0  0  0  0  0  0  0  0  0
    4.0478   69.9305   81.1868 C   0  0  0  0  0  0  0  0  0  0  0  0
    5.3253   66.6130   85.7678 C   0  0  0  0  0  0  0  0  0  0  0  0
    6.2152   65.5434   85.1303 C   0  0  0  0  0  0  0  0  0  0  0  0
    7.5190   66.1010   84.5768 C   0  0  0  0  0  0  0  0  0  0  0  0
   -0.4422   61.1391   81.7635 S   0  0  0  0  0  0  0  0  0  0  0  0
   -1.6769   60.4148   81.9670 O   0  0  0  0  0  0  0  0  0  0  0  0
    0.8047   60.4495   81.5051 O   0  0  0  0  0  0  0  0  0  0  0  0
   -0.6681   62.2504   80.4859 N   0  0  0  0  0  0  0  0  0  0  0  0
    0.3301   62.2013   79.3813 C   0  0  0  0  0  0  0  0  0  0  0  0
   -0.3007   61.6548   78.1030 C   0  0  0  0  0  0  0  0  0  0  0  0
   -1.4383   62.5608   77.5588 C   0  0  0  0  0  0  0  0  0  0  0  0
   -2.1672   63.2195   78.7875 C   0  0  0  0  0  0  0  0  0  0  0  0
   -2.0839   62.3590   80.0444 C   0  0  0  0  0  0  0  0  0  0  0  0
   -2.5101   61.7468   76.7493 C   0  0  0  0  0  0  0  0  0  0  0  0
   -2.5748   60.2185   76.9051 C   0  0  0  0  0  0  0  0  0  0  0  0
   -3.4665   59.8585   77.9456 O   0  0  0  0  0  0  0  0  0  0  0  0
   -2.9028   58.9319   78.8566 N   0  0  0  0  0  0  0  0  0  0  0  0
   -1.8160   58.5043   78.4761 O   0  0  0  0  0  0  0  0  0  0  0  0
   -3.5457   58.6771   79.8749 O   0  0  0  0  0  0  0  0  0  0  0  0
   -0.9050   63.7798   76.7222 C   0  0  0  0  0  0  0  0  0  0  0  0
   -0.6012   65.1128   77.4124 C   0  0  0  0  0  0  0  0  0  0  0  0
    0.7100   65.0877   77.9572 O   0  0  0  0  0  0  0  0  0  0  0  0
    0.8175   65.8268   79.1621 N   0  0  0  0  0  0  0  0  0  0  0  0
    1.8369   66.5122   79.2056 O   0  0  0  0  0  0  0  0  0  0  0  0
   -0.0787   65.6796   79.9944 O   0  0  0  0  0  0  0  0  0  0  0  0
    0.3017   64.6556   86.4760 O   0  0  0  0  0  0  0  0  0  0  0  0
   -0.3525   64.0496   87.6049 C   0  0  0  0  0  0  0  0  0  0  0  0
    0.2611   62.1317   89.1520 C   0  0  0  0  0  0  0  0  0  0  0  0
    0.7000   63.4512   88.5350 C   0  0  0  0  0  0  0  0  0  0  0  0
 46 47  1  0  0  0
 47 45  1  0  0  0
 45 44  1  0  0  0
 44  1  1  0  0  0
  1  2  1  0  0  0
  2  3  2  0  0  0
  3  4  1  0  0  0
  4 23  1  0  0  0
 23 24  2  0  0  0
 23 25  2  0  0  0
 23 26  1  0  0  0
 26 27  1  0  0  0
 27 28  1  0  0  0
 28 29  1  0  0  0
 29 38  1  0  0  0
 38 39  1  0  0  0
 39 40  1  0  0  0
 40 41  1  0  0  0
 41 42  2  0  0  0
 41 43  1  0  0  0
 29 32  1  0  0  0
 32 33  1  0  0  0
 33 34  1  0  0  0
 34 35  1  0  0  0
 35 36  2  0  0  0
 35 37  1  0  0  0
 29 30  1  0  0  0
 30 31  1  0  0  0
  4  5  2  0  0  0
  5  6  1  0  0  0
  6  7  1  0  0  0
  7  8  2  0  0  0
  8  9  1  0  0  0
  9 10  1  0  0  0
 10 20  1  0  0  0
 20 21  1  0  0  0
 21 22  1  0  0  0
 10 11  2  0  0  0
 11 12  1  0  0  0
 12 18  1  0  0  0
 18 19  1  0  0  0
 12 13  1  0  0  0
 13 14  1  0  0  0
 14 15  2  0  0  0
 14 16  1  0  0  0
  6  1  2  0  0  0
 16  7  1  0  0  0
 31 26  1  0  0  0
 13  9  2  0  0  0
 16 17  1  0  0  0
M  CHG 1  35   1
M  CHG 1  37  -1
M  CHG 1  41   1
M  CHG 1  43  -1
M  END
> <minimizedAffinity>
-9.40269

$$$$



 47 50  0  0  0  0  0  0  0  0999 V2000
    3.4289   67.0967   84.4070 C   0  0  0  0  0  0  0  0  0  0  0  0
    4.1340   68.2140   83.9401 C   0  0  0  0  0  0  0  0  0  0  0  0
    3.6595   68.9342   82.8447 C   0  0  0  0  0  0  0  0  0  0  0  0
    2.4754   68.5316   82.2260 C   0  0  0  0  0  0  0  0  0  0  0  0
    1.7515   67.4327   82.7017 C   0  0  0  0  0  0  0  0  0  0  0  0
    2.2116   66.7170   83.8171 C   0  0  0  0  0  0  0  0  0  0  0  0
    1.3620   65.5914   84.3165 C   0  0  0  0  0  0  0  0  0  0  0  0
    0.7963   64.7871   83.4619 N   0  0  0  0  0  0  0  0  0  0  0  0
    0.0160   63.7865   84.0418 C   0  0  0  0  0  0  0  0  0  0  0  0
   -0.7069   62.7842   83.3648 C   0  0  0  0  0  0  0  0  0  0  0  0
   -1.3119   62.0342   84.3627 C   0  0  0  0  0  0  0  0  0  0  0  0
   -0.9699   62.5665   85.5878 N   0  0  0  0  0  0  0  0  0  0  0  0
   -0.1522   63.6475   85.3928 C   0  0  0  0  0  0  0  0  0  0  0  0
    0.4714   64.5279   86.3250 C   0  0  0  0  0  0  0  0  0  0  0  0
    0.3917   64.4615   87.5467 O   0  0  0  0  0  0  0  0  0  0  0  0
    1.2122   65.4982   85.6926 N   0  0  0  0  0  0  0  0  0  0  0  0
    1.6889   66.1512   86.3003 H   0  0  0  0  0  0  0  0  0  0  0  0
   -1.4290   62.0508   86.8660 C   0  0  0  0  0  0  0  0  0  0  0  0
   -2.7206   62.7065   87.3215 C   0  0  0  0  0  0  0  0  0  0  0  0
   -0.7925   62.5651   81.8906 C   0  0  0  0  0  0  0  0  0  0  0  0
   -0.0901   61.2920   81.4130 C   0  0  0  0  0  0  0  0  0  0  0  0
    1.3428   61.1750   81.9131 C   0  0  0  0  0  0  0  0  0  0  0  0
    1.8475   69.4364   80.8344 S   0  0  0  0  0  0  0  0  0  0  0  0
    0.7681   68.6549   80.2733 O   0  0  0  0  0  0  0  0  0  0  0  0
    2.9670   69.8697   80.0244 O   0  0  0  0  0  0  0  0  0  0  0  0
    1.1868   70.8364   81.5565 N   0  0  0  0  0  0  0  0  0  0  0  0
    2.0152   72.0723   81.4850 C   0  0  0  0  0  0  0  0  0  0  0  0
    1.3847   73.0951   80.5432 C   0  0  0  0  0  0  0  0  0  0  0  0
   -0.0047   73.5864   81.0321 C   0  0  0  0  0  0  0  0  0  0  0  0
   -0.7130   72.3909   81.7696 C   0  0  0  0  0  0  0  0  0  0  0  0
   -0.2550   71.0319   81.2495 C   0  0  0  0  0  0  0  0  0  0  0  0
   -0.9306   74.0284   79.8430 C   0  0  0  0  0  0  0  0  0  0  0  0
   -2.0192   73.0684   79.3354 C   0  0  0  0  0  0  0  0  0  0  0  0
   -3.2036   73.7777   79.0170 O   0  0  0  0  0  0  0  0  0  0  0  0
   -4.3108   72.9244   78.7889 N   0  0  0  0  0  0  0  0  0  0  0  0
   -3.9728   71.8242   78.3598 O   0  0  0  0  0  0  0  0  0  0  0  0
   -5.4306   73.3722   79.0360 O   0  0  0  0  0  0  0  0  0  0  0  0
    0.0919   74.7148   82.1218 C   0  0  0  0  0  0  0  0  0  0  0  0
    1.0322   75.9060   81.9151 C   0  0  0  0  0  0  0  0  0  0  0  0
    1.8637   76.0694   83.0547 O   0  0  0  0  0  0  0  0  0  0  0  0
    3.0038   75.2275   83.0270 N   0  0  0  0  0  0  0  0  0  0  0  0
    3.7111   75.4236   82.0410 O   0  0  0  0  0  0  0  0  0  0  0  0
    3.1287   74.4188   83.9480 O   0  0  0  0  0  0  0  0  0  0  0  0
    3.9458   66.4262   85.4887 O   0  0  0  0  0  0  0  0  0  0  0  0
    5.0895   65.6494   85.0908 C   0  0  0  0  0  0  0  0  0  0  0  0
    5.4601   65.5087   87.5991 C   0  0  0  0  0  0  0  0  0  0  0  0
    6.1078   65.6338   86.2283 C   0  0  0  0  0  0  0  0  0  0  0  0
 46 47  1  0  0  0
 47 45  1  0  0  0
 45 44  1  0  0  0
 44  1  1  0  0  0
  1  2  1  0  0  0
  2  3  2  0  0  0
  3  4  1  0  0  0
  4 23  1  0  0  0
 23 24  2  0  0  0
 23 25  2  0  0  0
 23 26  1  0  0  0
 26 27  1  0  0  0
 27 28  1  0  0  0
 28 29  1  0  0  0
 29 38  1  0  0  0
 38 39  1  0  0  0
 39 40  1  0  0  0
 40 41  1  0  0  0
 41 42  2  0  0  0
 41 43  1  0  0  0
 29 32  1  0  0  0
 32 33  1  0  0  0
 33 34  1  0  0  0
 34 35  1  0  0  0
 35 36  2  0  0  0
 35 37  1  0  0  0
 29 30  1  0  0  0
 30 31  1  0  0  0
  4  5  2  0  0  0
  5  6  1  0  0  0
  6  7  1  0  0  0
  7  8  2  0  0  0
  8  9  1  0  0  0
  9 10  1  0  0  0
 10 20  1  0  0  0
 20 21  1  0  0  0
 21 22  1  0  0  0
 10 11  2  0  0  0
 11 12  1  0  0  0
 12 18  1  0  0  0
 18 19  1  0  0  0
 12 13  1  0  0  0
 13 14  1  0  0  0
 14 15  2  0  0  0
 14 16  1  0  0  0
  6  1  2  0  0  0
 16  7  1  0  0  0
 31 26  1  0  0  0
 13  9  2  0  0  0
 16 17  1  0  0  0
M  CHG 1  35   1
M  CHG 1  37  -1
M  CHG 1  41   1
M  CHG 1  43  -1
M  END
> <minimizedAffinity>
-8.86647

$$$$



 47 50  0  0  0  0  0  0  0  0999 V2000
    1.1664   68.0703   82.0737 C   0  0  0  0  0  0  0  0  0  0  0  0
    0.3780   68.4136   80.9673 C   0  0  0  0  0  0  0  0  0  0  0  0
    0.0405   67.4474   80.0207 C   0  0  0  0  0  0  0  0  0  0  0  0
    0.4925   66.1385   80.1926 C   0  0  0  0  0  0  0  0  0  0  0  0
    1.2585   65.7813   81.3078 C   0  0  0  0  0  0  0  0  0  0  0  0
    1.5830   66.7438   82.2755 C   0  0  0  0  0  0  0  0  0  0  0  0
    2.3506   66.2877   83.4758 C   0  0  0  0  0  0  0  0  0  0  0  0
    1.7474   65.5888   84.3951 N   0  0  0  0  0  0  0  0  0  0  0  0
    2.5579   65.2341   85.4738 C   0  0  0  0  0  0  0  0  0  0  0  0
    2.1750   64.4846   86.6038 C   0  0  0  0  0  0  0  0  0  0  0  0
    3.3179   64.3925   87.3846 C   0  0  0  0  0  0  0  0  0  0  0  0
    4.3435   65.0624   86.7517 N   0  0  0  0  0  0  0  0  0  0  0  0
    3.8774   65.5831   85.5739 C   0  0  0  0  0  0  0  0  0  0  0  0
    4.5348   66.3454   84.5641 C   0  0  0  0  0  0  0  0  0  0  0  0
    5.7141   66.6809   84.5644 O   0  0  0  0  0  0  0  0  0  0  0  0
    3.6812   66.6756   83.5382 N   0  0  0  0  0  0  0  0  0  0  0  0
    4.0898   67.2104   82.7832 H   0  0  0  0  0  0  0  0  0  0  0  0
    5.6909   65.1911   87.2791 C   0  0  0  0  0  0  0  0  0  0  0  0
    5.7014   65.4614   88.7734 C   0  0  0  0  0  0  0  0  0  0  0  0
    0.8319   63.9007   86.8936 C   0  0  0  0  0  0  0  0  0  0  0  0
    0.5738   63.6524   88.3815 C   0  0  0  0  0  0  0  0  0  0  0  0
    0.2183   62.2058   88.6944 C   0  0  0  0  0  0  0  0  0  0  0  0
    0.0703   64.8892   79.0049 S   0  0  0  0  0  0  0  0  0  0  0  0
    1.2991   64.2212   78.6379 O   0  0  0  0  0  0  0  0  0  0  0  0
   -0.7970   65.4784   78.0060 O   0  0  0  0  0  0  0  0  0  0  0  0
   -0.8865   63.8056   79.9152 N   0  0  0  0  0  0  0  0  0  0  0  0
   -0.3945   62.4025   80.0047 C   0  0  0  0  0  0  0  0  0  0  0  0
    0.0881   62.0852   81.4179 C   0  0  0  0  0  0  0  0  0  0  0  0
   -1.0475   62.1669   82.4737 C   0  0  0  0  0  0  0  0  0  0  0  0
   -2.0474   63.2967   82.0280 C   0  0  0  0  0  0  0  0  0  0  0  0
   -1.3683   64.3820   81.1985 C   0  0  0  0  0  0  0  0  0  0  0  0
   -0.5071   62.5442   83.8993 C   0  0  0  0  0  0  0  0  0  0  0  0
   -1.1693   61.9326   85.1450 C   0  0  0  0  0  0  0  0  0  0  0  0
   -2.2805   62.7105   85.5543 O   0  0  0  0  0  0  0  0  0  0  0  0
   -2.7919   62.3177   86.8154 N   0  0  0  0  0  0  0  0  0  0  0  0
   -2.9203   63.2671   87.5842 O   0  0  0  0  0  0  0  0  0  0  0  0
   -3.0327   61.1219   86.9807 O   0  0  0  0  0  0  0  0  0  0  0  0
   -1.9282   60.8664   82.5298 C   0  0  0  0  0  0  0  0  0  0  0  0
   -3.2638   60.8086   81.7825 C   0  0  0  0  0  0  0  0  0  0  0  0
   -3.1949   59.8440   80.7425 O   0  0  0  0  0  0  0  0  0  0  0  0
   -3.5645   60.3714   79.4798 N   0  0  0  0  0  0  0  0  0  0  0  0
   -3.9207   61.5460   79.5451 O   0  0  0  0  0  0  0  0  0  0  0  0
   -3.5064   59.6099   78.5130 O   0  0  0  0  0  0  0  0  0  0  0  0
    1.4675   69.0650   82.9719 O   0  0  0  0  0  0  0  0  0  0  0  0
    1.8109   70.2758   82.2748 C   0  0  0  0  0  0  0  0  0  0  0  0
    3.9111   70.1724   80.8511 C   0  0  0  0  0  0  0  0  0  0  0  0
    3.3304   70.4201   82.2352 C   0  0  0  0  0  0  0  0  0  0  0  0
 46 47  1  0  0  0
 47 45  1  0  0  0
 45 44  1  0  0  0
 44  1  1  0  0  0
  1  2  1  0  0  0
  2  3  2  0  0  0
  3  4  1  0  0  0
  4 23  1  0  0  0
 23 24  2  0  0  0
 23 25  2  0  0  0
 23 26  1  0  0  0
 26 27  1  0  0  0
 27 28  1  0  0  0
 28 29  1  0  0  0
 29 38  1  0  0  0
 38 39  1  0  0  0
 39 40  1  0  0  0
 40 41  1  0  0  0
 41 42  2  0  0  0
 41 43  1  0  0  0
 29 32  1  0  0  0
 32 33  1  0  0  0
 33 34  1  0  0  0
 34 35  1  0  0  0
 35 36  2  0  0  0
 35 37  1  0  0  0
 29 30  1  0  0  0
 30 31  1  0  0  0
  4  5  2  0  0  0
  5  6  1  0  0  0
  6  7  1  0  0  0
  7  8  2  0  0  0
  8  9  1  0  0  0
  9 10  1  0  0  0
 10 20  1  0  0  0
 20 21  1  0  0  0
 21 22  1  0  0  0
 10 11  2  0  0  0
 11 12  1  0  0  0
 12 18  1  0  0  0
 18 19  1  0  0  0
 12 13  1  0  0  0
 13 14  1  0  0  0
 14 15  2  0  0  0
 14 16  1  0  0  0
  6  1  2  0  0  0
 16  7  1  0  0  0
 31 26  1  0  0  0
 13  9  2  0  0  0
 16 17  1  0  0  0
M  CHG 1  35   1
M  CHG 1  37  -1
M  CHG 1  41   1
M  CHG 1  43  -1
M  END
> <minimizedAffinity>
-8.82920

$$$$



 47 50  0  0  0  0  0  0  0  0999 V2000
    1.2576   68.2037   81.9594 C   0  0  0  0  0  0  0  0  0  0  0  0
    0.4239   68.4948   80.8715 C   0  0  0  0  0  0  0  0  0  0  0  0
    0.0808   67.4935   79.9641 C   0  0  0  0  0  0  0  0  0  0  0  0
    0.5730   66.2021   80.1567 C   0  0  0  0  0  0  0  0  0  0  0  0
    1.3850   65.8968   81.2546 C   0  0  0  0  0  0  0  0  0  0  0  0
    1.7159   66.8946   82.1836 C   0  0  0  0  0  0  0  0  0  0  0  0
    2.5350   66.4929   83.3692 C   0  0  0  0  0  0  0  0  0  0  0  0
    3.8034   66.7885   83.4021 N   0  0  0  0  0  0  0  0  0  0  0  0
    4.4677   66.3500   84.5480 C   0  0  0  0  0  0  0  0  0  0  0  0
    5.8323   66.5281   84.8499 C   0  0  0  0  0  0  0  0  0  0  0  0
    6.0133   65.9278   86.0874 C   0  0  0  0  0  0  0  0  0  0  0  0
    4.8081   65.4072   86.5090 N   0  0  0  0  0  0  0  0  0  0  0  0
    3.8538   65.6651   85.5614 C   0  0  0  0  0  0  0  0  0  0  0  0
    2.4646   65.3463   85.5231 C   0  0  0  0  0  0  0  0  0  0  0  0
    1.8337   64.7579   86.3943 O   0  0  0  0  0  0  0  0  0  0  0  0
    1.8714   65.7911   84.3653 N   0  0  0  0  0  0  0  0  0  0  0  0
    0.8812   65.6037   84.2803 H   0  0  0  0  0  0  0  0  0  0  0  0
    4.6130   64.6919   87.7583 C   0  0  0  0  0  0  0  0  0  0  0  0
    5.4287   65.2833   88.8944 C   0  0  0  0  0  0  0  0  0  0  0  0
    6.8615   67.2261   84.0239 C   0  0  0  0  0  0  0  0  0  0  0  0
    8.2790   66.6805   84.2117 C   0  0  0  0  0  0  0  0  0  0  0  0
    9.1824   67.6185   84.9997 C   0  0  0  0  0  0  0  0  0  0  0  0
    0.1448   64.9090   79.0192 S   0  0  0  0  0  0  0  0  0  0  0  0
    1.3772   64.2572   78.6355 O   0  0  0  0  0  0  0  0  0  0  0  0
   -0.7642   65.4490   78.0297 O   0  0  0  0  0  0  0  0  0  0  0  0
   -0.7604   63.8326   79.9888 N   0  0  0  0  0  0  0  0  0  0  0  0
   -0.1090   62.5356   80.3238 C   0  0  0  0  0  0  0  0  0  0  0  0
    0.2559   62.4775   81.8050 C   0  0  0  0  0  0  0  0  0  0  0  0
   -0.9871   62.5392   82.7335 C   0  0  0  0  0  0  0  0  0  0  0  0
   -2.0673   63.4505   82.0424 C   0  0  0  0  0  0  0  0  0  0  0  0
   -1.4448   64.5007   81.1275 C   0  0  0  0  0  0  0  0  0  0  0  0
   -0.6534   63.1725   84.1315 C   0  0  0  0  0  0  0  0  0  0  0  0
   -1.0292   62.4130   85.4145 C   0  0  0  0  0  0  0  0  0  0  0  0
   -2.3354   62.7615   85.8384 O   0  0  0  0  0  0  0  0  0  0  0  0
   -2.7090   62.1254   87.0474 N   0  0  0  0  0  0  0  0  0  0  0  0
   -2.5763   62.8601   88.0228 O   0  0  0  0  0  0  0  0  0  0  0  0
   -3.1024   60.9611   86.9761 O   0  0  0  0  0  0  0  0  0  0  0  0
   -1.6989   61.1479   82.8995 C   0  0  0  0  0  0  0  0  0  0  0  0
   -2.9891   60.8470   82.1310 C   0  0  0  0  0  0  0  0  0  0  0  0
   -2.9648   59.5114   81.6490 O   0  0  0  0  0  0  0  0  0  0  0  0
   -3.1795   59.4290   80.2502 N   0  0  0  0  0  0  0  0  0  0  0  0
   -3.7446   58.3886   79.9202 O   0  0  0  0  0  0  0  0  0  0  0  0
   -2.7691   60.3648   79.5619 O   0  0  0  0  0  0  0  0  0  0  0  0
    1.5620   69.2310   82.8189 O   0  0  0  0  0  0  0  0  0  0  0  0
    1.9485   70.4011   82.0765 C   0  0  0  0  0  0  0  0  0  0  0  0
    3.9286   70.3235   80.4886 C   0  0  0  0  0  0  0  0  0  0  0  0
    3.4684   70.4281   81.9348 C   0  0  0  0  0  0  0  0  0  0  0  0
 46 47  1  0  0  0
 47 45  1  0  0  0
 45 44  1  0  0  0
 44  1  1  0  0  0
  1  2  1  0  0  0
  2  3  2  0  0  0
  3  4  1  0  0  0
  4 23  1  0  0  0
 23 24  2  0  0  0
 23 25  2  0  0  0
 23 26  1  0  0  0
 26 27  1  0  0  0
 27 28  1  0  0  0
 28 29  1  0  0  0
 29 38  1  0  0  0
 38 39  1  0  0  0
 39 40  1  0  0  0
 40 41  1  0  0  0
 41 42  2  0  0  0
 41 43  1  0  0  0
 29 32  1  0  0  0
 32 33  1  0  0  0
 33 34  1  0  0  0
 34 35  1  0  0  0
 35 36  2  0  0  0
 35 37  1  0  0  0
 29 30  1  0  0  0
 30 31  1  0  0  0
  4  5  2  0  0  0
  5  6  1  0  0  0
  6  7  1  0  0  0
  7  8  2  0  0  0
  8  9  1  0  0  0
  9 10  1  0  0  0
 10 20  1  0  0  0
 20 21  1  0  0  0
 21 22  1  0  0  0
 10 11  2  0  0  0
 11 12  1  0  0  0
 12 18  1  0  0  0
 18 19  1  0  0  0
 12 13  1  0  0  0
 13 14  1  0  0  0
 14 15  2  0  0  0
 14 16  1  0  0  0
  6  1  2  0  0  0
 16  7  1  0  0  0
 31 26  1  0  0  0
 13  9  2  0  0  0
 16 17  1  0  0  0
M  CHG 1  35   1
M  CHG 1  37  -1
M  CHG 1  41   1
M  CHG 1  43  -1
M  END
> <minimizedAffinity>
-8.78473

$$$$



 47 50  0  0  0  0  0  0  0  0999 V2000
    1.9706   67.9319   83.0566 C   0  0  0  0  0  0  0  0  0  0  0  0
    2.1933   66.5494   83.0043 C   0  0  0  0  0  0  0  0  0  0  0  0
    1.6498   65.7911   81.9684 C   0  0  0  0  0  0  0  0  0  0  0  0
    0.8887   66.4261   80.9862 C   0  0  0  0  0  0  0  0  0  0  0  0
    0.6830   67.8098   81.0166 C   0  0  0  0  0  0  0  0  0  0  0  0
    1.2455   68.5820   82.0439 C   0  0  0  0  0  0  0  0  0  0  0  0
    1.0428   70.0631   81.9875 C   0  0  0  0  0  0  0  0  0  0  0  0
    0.0614   70.5495   81.2822 N   0  0  0  0  0  0  0  0  0  0  0  0
   -0.0194   71.9423   81.2909 C   0  0  0  0  0  0  0  0  0  0  0  0
   -0.9732   72.7344   80.6214 C   0  0  0  0  0  0  0  0  0  0  0  0
   -0.6446   74.0448   80.9363 C   0  0  0  0  0  0  0  0  0  0  0  0
    0.4631   74.0400   81.7575 N   0  0  0  0  0  0  0  0  0  0  0  0
    0.8512   72.7451   81.9768 C   0  0  0  0  0  0  0  0  0  0  0  0
    1.9222   72.2087   82.7502 C   0  0  0  0  0  0  0  0  0  0  0  0
    2.7306   72.8525   83.4099 O   0  0  0  0  0  0  0  0  0  0  0  0
    1.9569   70.8357   82.6893 N   0  0  0  0  0  0  0  0  0  0  0  0
    2.6904   70.3917   83.2257 H   0  0  0  0  0  0  0  0  0  0  0  0
    1.1040   75.2338   82.2814 C   0  0  0  0  0  0  0  0  0  0  0  0
    0.0975   76.2833   82.7189 C   0  0  0  0  0  0  0  0  0  0  0  0
   -2.1048   72.2656   79.7680 C   0  0  0  0  0  0  0  0  0  0  0  0
   -2.5441   73.2816   78.7110 C   0  0  0  0  0  0  0  0  0  0  0  0
   -3.9167   72.9814   78.1256 C   0  0  0  0  0  0  0  0  0  0  0  0
    0.1921   65.4833   79.6538 S   0  0  0  0  0  0  0  0  0  0  0  0
    1.2937   64.8587   78.9558 O   0  0  0  0  0  0  0  0  0  0  0  0
   -0.7708   66.3117   78.9583 O   0  0  0  0  0  0  0  0  0  0  0  0
   -0.6937   64.2702   80.4674 N   0  0  0  0  0  0  0  0  0  0  0  0
   -0.0867   62.9101   80.4906 C   0  0  0  0  0  0  0  0  0  0  0  0
    0.3820   62.5484   81.8978 C   0  0  0  0  0  0  0  0  0  0  0  0
   -0.7851   62.4706   82.9190 C   0  0  0  0  0  0  0  0  0  0  0  0
   -1.8649   63.5383   82.5078 C   0  0  0  0  0  0  0  0  0  0  0  0
   -1.2580   64.7250   81.7658 C   0  0  0  0  0  0  0  0  0  0  0  0
   -0.3182   62.8038   84.3811 C   0  0  0  0  0  0  0  0  0  0  0  0
   -1.3071   62.6375   85.5467 C   0  0  0  0  0  0  0  0  0  0  0  0
   -0.6151   62.4076   86.7615 O   0  0  0  0  0  0  0  0  0  0  0  0
   -0.8283   63.4305   87.7177 N   0  0  0  0  0  0  0  0  0  0  0  0
   -1.7607   63.1752   88.4756 O   0  0  0  0  0  0  0  0  0  0  0  0
   -0.0854   64.4110   87.6725 O   0  0  0  0  0  0  0  0  0  0  0  0
   -1.5531   61.1002   82.8701 C   0  0  0  0  0  0  0  0  0  0  0  0
   -2.8345   60.9653   82.0422 C   0  0  0  0  0  0  0  0  0  0  0  0
   -2.9977   59.6195   81.6193 O   0  0  0  0  0  0  0  0  0  0  0  0
   -3.0982   59.4954   80.2108 N   0  0  0  0  0  0  0  0  0  0  0  0
   -3.6625   58.4588   79.8676 O   0  0  0  0  0  0  0  0  0  0  0  0
   -2.6066   60.3970   79.5300 O   0  0  0  0  0  0  0  0  0  0  0  0
    2.5303   68.6260   84.1015 O   0  0  0  0  0  0  0  0  0  0  0  0
    3.9131   68.2604   84.2561 C   0  0  0  0  0  0  0  0  0  0  0  0
    5.6241   67.5733   86.0022 C   0  0  0  0  0  0  0  0  0  0  0  0
    4.2430   68.1561   85.7432 C   0  0  0  0  0  0  0  0  0  0  0  0
 46 47  1  0  0  0
 47 45  1  0  0  0
 45 44  1  0  0  0
 44  1  1  0  0  0
  1  2  1  0  0  0
  2  3  2  0  0  0
  3  4  1  0  0  0
  4 23  1  0  0  0
 23 24  2  0  0  0
 23 25  2  0  0  0
 23 26  1  0  0  0
 26 27  1  0  0  0
 27 28  1  0  0  0
 28 29  1  0  0  0
 29 38  1  0  0  0
 38 39  1  0  0  0
 39 40  1  0  0  0
 40 41  1  0  0  0
 41 42  2  0  0  0
 41 43  1  0  0  0
 29 32  1  0  0  0
 32 33  1  0  0  0
 33 34  1  0  0  0
 34 35  1  0  0  0
 35 36  2  0  0  0
 35 37  1  0  0  0
 29 30  1  0  0  0
 30 31  1  0  0  0
  4  5  2  0  0  0
  5  6  1  0  0  0
  6  7  1  0  0  0
  7  8  2  0  0  0
  8  9  1  0  0  0
  9 10  1  0  0  0
 10 20  1  0  0  0
 20 21  1  0  0  0
 21 22  1  0  0  0
 10 11  2  0  0  0
 11 12  1  0  0  0
 12 18  1  0  0  0
 18 19  1  0  0  0
 12 13  1  0  0  0
 13 14  1  0  0  0
 14 15  2  0  0  0
 14 16  1  0  0  0
  6  1  2  0  0  0
 16  7  1  0  0  0
 31 26  1  0  0  0
 13  9  2  0  0  0
 16 17  1  0  0  0
M  CHG 1  35   1
M  CHG 1  37  -1
M  CHG 1  41   1
M  CHG 1  43  -1
M  END
> <minimizedAffinity>
-8.67976

$$$$



 47 50  0  0  0  0  0  0  0  0999 V2000
    3.5461   66.9168   84.4011 C   0  0  0  0  0  0  0  0  0  0  0  0
    4.2964   68.0255   83.9874 C   0  0  0  0  0  0  0  0  0  0  0  0
    3.7608   68.9326   83.0743 C   0  0  0  0  0  0  0  0  0  0  0  0
    2.4708   68.7246   82.5844 C   0  0  0  0  0  0  0  0  0  0  0  0
    1.7049   67.6345   83.0120 C   0  0  0  0  0  0  0  0  0  0  0  0
    2.2295   66.7301   83.9473 C   0  0  0  0  0  0  0  0  0  0  0  0
    1.3401   65.6208   84.4125 C   0  0  0  0  0  0  0  0  0  0  0  0
    0.5931   64.9930   83.5492 N   0  0  0  0  0  0  0  0  0  0  0  0
   -0.2053   63.9901   84.0998 C   0  0  0  0  0  0  0  0  0  0  0  0
   -1.1050   63.1554   83.4077 C   0  0  0  0  0  0  0  0  0  0  0  0
   -1.6526   62.3271   84.3764 C   0  0  0  0  0  0  0  0  0  0  0  0
   -1.1074   62.6536   85.6000 N   0  0  0  0  0  0  0  0  0  0  0  0
   -0.2156   63.6793   85.4325 C   0  0  0  0  0  0  0  0  0  0  0  0
    0.6059   64.3666   86.3738 C   0  0  0  0  0  0  0  0  0  0  0  0
    0.6740   64.1379   87.5764 O   0  0  0  0  0  0  0  0  0  0  0  0
    1.3556   65.3501   85.7732 N   0  0  0  0  0  0  0  0  0  0  0  0
    1.9684   65.8703   86.3870 H   0  0  0  0  0  0  0  0  0  0  0  0
   -1.4520   62.0054   86.8536 C   0  0  0  0  0  0  0  0  0  0  0  0
   -2.5903   62.7084   87.5719 C   0  0  0  0  0  0  0  0  0  0  0  0
   -1.3968   63.1512   81.9436 C   0  0  0  0  0  0  0  0  0  0  0  0
   -2.8877   63.0574   81.6107 C   0  0  0  0  0  0  0  0  0  0  0  0
   -3.2672   61.7529   80.9243 C   0  0  0  0  0  0  0  0  0  0  0  0
    1.7645   69.8692   81.4266 S   0  0  0  0  0  0  0  0  0  0  0  0
    0.3724   70.0279   81.7838 O   0  0  0  0  0  0  0  0  0  0  0  0
    2.1618   69.4763   80.0907 O   0  0  0  0  0  0  0  0  0  0  0  0
    2.5858   71.3248   81.7802 N   0  0  0  0  0  0  0  0  0  0  0  0
    3.0241   72.1384   80.6119 C   0  0  0  0  0  0  0  0  0  0  0  0
    2.2094   73.4255   80.5101 C   0  0  0  0  0  0  0  0  0  0  0  0
    2.4090   74.3619   81.7325 C   0  0  0  0  0  0  0  0  0  0  0  0
    2.6353   73.4629   83.0035 C   0  0  0  0  0  0  0  0  0  0  0  0
    1.9584   72.1012   82.8824 C   0  0  0  0  0  0  0  0  0  0  0  0
    1.1505   75.2616   82.0032 C   0  0  0  0  0  0  0  0  0  0  0  0
   -0.2563   74.6666   81.8266 C   0  0  0  0  0  0  0  0  0  0  0  0
   -0.8330   75.0980   80.6065 O   0  0  0  0  0  0  0  0  0  0  0  0
   -1.2023   74.0222   79.7625 N   0  0  0  0  0  0  0  0  0  0  0  0
   -1.3850   74.3801   78.6017 O   0  0  0  0  0  0  0  0  0  0  0  0
   -1.2938   72.9067   80.2748 O   0  0  0  0  0  0  0  0  0  0  0  0
    3.7140   75.2319   81.6325 C   0  0  0  0  0  0  0  0  0  0  0  0
    4.9789   74.8115   82.3870 C   0  0  0  0  0  0  0  0  0  0  0  0
    5.6609   75.9613   82.8662 O   0  0  0  0  0  0  0  0  0  0  0  0
    6.0068   75.8621   84.2373 N   0  0  0  0  0  0  0  0  0  0  0  0
    5.0487   75.5582   84.9447 O   0  0  0  0  0  0  0  0  0  0  0  0
    7.1757   76.1051   84.5417 O   0  0  0  0  0  0  0  0  0  0  0  0
    4.1270   66.0570   85.3012 O   0  0  0  0  0  0  0  0  0  0  0  0
    5.2269   66.7035   85.9661 C   0  0  0  0  0  0  0  0  0  0  0  0
    7.2966   65.8148   84.7934 C   0  0  0  0  0  0  0  0  0  0  0  0
    6.4119   65.7428   86.0289 C   0  0  0  0  0  0  0  0  0  0  0  0
 46 47  1  0  0  0
 47 45  1  0  0  0
 45 44  1  0  0  0
 44  1  1  0  0  0
  1  2  1  0  0  0
  2  3  2  0  0  0
  3  4  1  0  0  0
  4 23  1  0  0  0
 23 24  2  0  0  0
 23 25  2  0  0  0
 23 26  1  0  0  0
 26 27  1  0  0  0
 27 28  1  0  0  0
 28 29  1  0  0  0
 29 38  1  0  0  0
 38 39  1  0  0  0
 39 40  1  0  0  0
 40 41  1  0  0  0
 41 42  2  0  0  0
 41 43  1  0  0  0
 29 32  1  0  0  0
 32 33  1  0  0  0
 33 34  1  0  0  0
 34 35  1  0  0  0
 35 36  2  0  0  0
 35 37  1  0  0  0
 29 30  1  0  0  0
 30 31  1  0  0  0
  4  5  2  0  0  0
  5  6  1  0  0  0
  6  7  1  0  0  0
  7  8  2  0  0  0
  8  9  1  0  0  0
  9 10  1  0  0  0
 10 20  1  0  0  0
 20 21  1  0  0  0
 21 22  1  0  0  0
 10 11  2  0  0  0
 11 12  1  0  0  0
 12 18  1  0  0  0
 18 19  1  0  0  0
 12 13  1  0  0  0
 13 14  1  0  0  0
 14 15  2  0  0  0
 14 16  1  0  0  0
  6  1  2  0  0  0
 16  7  1  0  0  0
 31 26  1  0  0  0
 13  9  2  0  0  0
 16 17  1  0  0  0
M  CHG 1  35   1
M  CHG 1  37  -1
M  CHG 1  41   1
M  CHG 1  43  -1
M  END
> <minimizedAffinity>
-8.61085

$$$$



 47 50  0  0  0  0  0  0  0  0999 V2000
    3.5604   66.9289   84.4757 C   0  0  0  0  0  0  0  0  0  0  0  0
    4.3101   68.0430   84.0753 C   0  0  0  0  0  0  0  0  0  0  0  0
    3.7976   68.9286   83.1284 C   0  0  0  0  0  0  0  0  0  0  0  0
    2.5314   68.6938   82.5912 C   0  0  0  0  0  0  0  0  0  0  0  0
    1.7653   67.5982   83.0044 C   0  0  0  0  0  0  0  0  0  0  0  0
    2.2658   66.7155   83.9732 C   0  0  0  0  0  0  0  0  0  0  0  0
    1.3751   65.5994   84.4194 C   0  0  0  0  0  0  0  0  0  0  0  0
    0.6843   64.9377   83.5350 N   0  0  0  0  0  0  0  0  0  0  0  0
   -0.1218   63.9317   84.0686 C   0  0  0  0  0  0  0  0  0  0  0  0
   -0.9698   63.0639   83.3523 C   0  0  0  0  0  0  0  0  0  0  0  0
   -1.5497   62.2467   84.3117 C   0  0  0  0  0  0  0  0  0  0  0  0
   -1.0727   62.6115   85.5530 N   0  0  0  0  0  0  0  0  0  0  0  0
   -0.1930   63.6507   85.4060 C   0  0  0  0  0  0  0  0  0  0  0  0
    0.5672   64.3751   86.3705 C   0  0  0  0  0  0  0  0  0  0  0  0
    0.5792   64.1749   87.5801 O   0  0  0  0  0  0  0  0  0  0  0  0
    1.3275   65.3597   85.7851 N   0  0  0  0  0  0  0  0  0  0  0  0
    1.8988   65.9057   86.4163 H   0  0  0  0  0  0  0  0  0  0  0  0
   -1.4675   61.9848   86.8027 C   0  0  0  0  0  0  0  0  0  0  0  0
   -2.6437   62.6902   87.4546 C   0  0  0  0  0  0  0  0  0  0  0  0
   -1.1878   63.0210   81.8761 C   0  0  0  0  0  0  0  0  0  0  0  0
   -0.6401   61.7582   81.2068 C   0  0  0  0  0  0  0  0  0  0  0  0
    0.7896   61.4349   81.6171 C   0  0  0  0  0  0  0  0  0  0  0  0
    1.8546   69.8106   81.3895 S   0  0  0  0  0  0  0  0  0  0  0  0
    0.4392   69.9209   81.6638 O   0  0  0  0  0  0  0  0  0  0  0  0
    2.3433   69.4295   80.0807 O   0  0  0  0  0  0  0  0  0  0  0  0
    2.6021   71.2949   81.7850 N   0  0  0  0  0  0  0  0  0  0  0  0
    3.0359   72.1435   80.6402 C   0  0  0  0  0  0  0  0  0  0  0  0
    2.1692   73.3957   80.5333 C   0  0  0  0  0  0  0  0  0  0  0  0
    2.2951   74.3219   81.7732 C   0  0  0  0  0  0  0  0  0  0  0  0
    2.5260   73.4151   83.0378 C   0  0  0  0  0  0  0  0  0  0  0  0
    1.9123   72.0275   82.8799 C   0  0  0  0  0  0  0  0  0  0  0  0
    0.9919   75.1627   82.0213 C   0  0  0  0  0  0  0  0  0  0  0  0
    1.1095   76.6602   82.3495 C   0  0  0  0  0  0  0  0  0  0  0  0
    0.9899   76.8781   83.7444 O   0  0  0  0  0  0  0  0  0  0  0  0
    2.1372   77.4903   84.3055 N   0  0  0  0  0  0  0  0  0  0  0  0
    2.7483   78.1751   83.4892 O   0  0  0  0  0  0  0  0  0  0  0  0
    2.3734   77.2683   85.4931 O   0  0  0  0  0  0  0  0  0  0  0  0
    3.5633   75.2486   81.7208 C   0  0  0  0  0  0  0  0  0  0  0  0
    4.7895   74.9243   82.5794 C   0  0  0  0  0  0  0  0  0  0  0  0
    5.4897   76.1192   82.8937 O   0  0  0  0  0  0  0  0  0  0  0  0
    5.5146   76.3905   84.2848 N   0  0  0  0  0  0  0  0  0  0  0  0
    5.0818   75.4559   84.9555 O   0  0  0  0  0  0  0  0  0  0  0  0
    5.9305   77.4960   84.6351 O   0  0  0  0  0  0  0  0  0  0  0  0
    4.1178   66.0911   85.4107 O   0  0  0  0  0  0  0  0  0  0  0  0
    5.3653   66.6322   85.8807 C   0  0  0  0  0  0  0  0  0  0  0  0
    7.5084   65.9373   84.7091 C   0  0  0  0  0  0  0  0  0  0  0  0
    6.4562   65.5726   85.7455 C   0  0  0  0  0  0  0  0  0  0  0  0
 46 47  1  0  0  0
 47 45  1  0  0  0
 45 44  1  0  0  0
 44  1  1  0  0  0
  1  2  1  0  0  0
  2  3  2  0  0  0
  3  4  1  0  0  0
  4 23  1  0  0  0
 23 24  2  0  0  0
 23 25  2  0  0  0
 23 26  1  0  0  0
 26 27  1  0  0  0
 27 28  1  0  0  0
 28 29  1  0  0  0
 29 38  1  0  0  0
 38 39  1  0  0  0
 39 40  1  0  0  0
 40 41  1  0  0  0
 41 42  2  0  0  0
 41 43  1  0  0  0
 29 32  1  0  0  0
 32 33  1  0  0  0
 33 34  1  0  0  0
 34 35  1  0  0  0
 35 36  2  0  0  0
 35 37  1  0  0  0
 29 30  1  0  0  0
 30 31  1  0  0  0
  4  5  2  0  0  0
  5  6  1  0  0  0
  6  7  1  0  0  0
  7  8  2  0  0  0
  8  9  1  0  0  0
  9 10  1  0  0  0
 10 20  1  0  0  0
 20 21  1  0  0  0
 21 22  1  0  0  0
 10 11  2  0  0  0
 11 12  1  0  0  0
 12 18  1  0  0  0
 18 19  1  0  0  0
 12 13  1  0  0  0
 13 14  1  0  0  0
 14 15  2  0  0  0
 14 16  1  0  0  0
  6  1  2  0  0  0
 16  7  1  0  0  0
 31 26  1  0  0  0
 13  9  2  0  0  0
 16 17  1  0  0  0
M  CHG 1  35   1
M  CHG 1  37  -1
M  CHG 1  41   1
M  CHG 1  43  -1
M  END
> <minimizedAffinity>
-8.59164

$$$$



 47 50  0  0  0  0  0  0  0  0999 V2000
    3.6592   66.6899   84.6277 C   0  0  0  0  0  0  0  0  0  0  0  0
    4.4354   67.7878   84.2331 C   0  0  0  0  0  0  0  0  0  0  0  0
    3.9259   68.7163   83.3265 C   0  0  0  0  0  0  0  0  0  0  0  0
    2.6362   68.5404   82.8238 C   0  0  0  0  0  0  0  0  0  0  0  0
    1.8447   67.4612   83.2322 C   0  0  0  0  0  0  0  0  0  0  0  0
    2.3430   66.5354   84.1610 C   0  0  0  0  0  0  0  0  0  0  0  0
    1.4273   65.4392   84.6058 C   0  0  0  0  0  0  0  0  0  0  0  0
    0.7004   64.8137   83.7240 N   0  0  0  0  0  0  0  0  0  0  0  0
   -0.1258   63.8234   84.2563 C   0  0  0  0  0  0  0  0  0  0  0  0
   -1.0130   62.9938   83.5422 C   0  0  0  0  0  0  0  0  0  0  0  0
   -1.5994   62.1782   84.4990 C   0  0  0  0  0  0  0  0  0  0  0  0
   -1.0885   62.5073   85.7367 N   0  0  0  0  0  0  0  0  0  0  0  0
   -0.1806   63.5220   85.5901 C   0  0  0  0  0  0  0  0  0  0  0  0
    0.6191   64.2067   86.5517 C   0  0  0  0  0  0  0  0  0  0  0  0
    0.6476   63.9857   87.7573 O   0  0  0  0  0  0  0  0  0  0  0  0
    1.3979   65.1778   85.9681 N   0  0  0  0  0  0  0  0  0  0  0  0
    1.9972   65.6956   86.5971 H   0  0  0  0  0  0  0  0  0  0  0  0
   -1.4788   61.8716   86.9833 C   0  0  0  0  0  0  0  0  0  0  0  0
   -2.6365   62.5869   87.6571 C   0  0  0  0  0  0  0  0  0  0  0  0
   -1.2596   62.9826   82.0699 C   0  0  0  0  0  0  0  0  0  0  0  0
   -2.7357   63.1191   81.6893 C   0  0  0  0  0  0  0  0  0  0  0  0
   -3.2576   61.9390   80.8819 C   0  0  0  0  0  0  0  0  0  0  0  0
    1.9629   69.7126   81.6739 S   0  0  0  0  0  0  0  0  0  0  0  0
    0.5757   69.9082   82.0319 O   0  0  0  0  0  0  0  0  0  0  0  0
    2.3495   69.3179   80.3353 O   0  0  0  0  0  0  0  0  0  0  0  0
    2.8250   71.1418   82.0377 N   0  0  0  0  0  0  0  0  0  0  0  0
    3.4180   71.8699   80.8815 C   0  0  0  0  0  0  0  0  0  0  0  0
    2.6890   73.1890   80.6384 C   0  0  0  0  0  0  0  0  0  0  0  0
    2.8207   74.1772   81.8288 C   0  0  0  0  0  0  0  0  0  0  0  0
    2.8735   73.3362   83.1572 C   0  0  0  0  0  0  0  0  0  0  0  0
    2.1377   72.0055   83.0342 C   0  0  0  0  0  0  0  0  0  0  0  0
    1.5933   75.1518   81.9304 C   0  0  0  0  0  0  0  0  0  0  0  0
    0.1677   74.5759   81.9182 C   0  0  0  0  0  0  0  0  0  0  0  0
   -0.4522   74.7997   80.6640 O   0  0  0  0  0  0  0  0  0  0  0  0
   -1.0083   73.6219   80.1078 N   0  0  0  0  0  0  0  0  0  0  0  0
   -1.6268   73.8420   79.0695 O   0  0  0  0  0  0  0  0  0  0  0  0
   -0.8141   72.5656   80.7093 O   0  0  0  0  0  0  0  0  0  0  0  0
    4.1751   74.9744   81.8177 C   0  0  0  0  0  0  0  0  0  0  0  0
    4.9669   75.1283   80.5157 C   0  0  0  0  0  0  0  0  0  0  0  0
    6.1668   74.3721   80.5870 O   0  0  0  0  0  0  0  0  0  0  0  0
    6.3493   73.5259   79.4645 N   0  0  0  0  0  0  0  0  0  0  0  0
    7.3777   72.8570   79.5403 O   0  0  0  0  0  0  0  0  0  0  0  0
    5.4984   73.5795   78.5751 O   0  0  0  0  0  0  0  0  0  0  0  0
    4.2150   65.8080   85.5222 O   0  0  0  0  0  0  0  0  0  0  0  0
    5.6123   65.6232   85.2338 C   0  0  0  0  0  0  0  0  0  0  0  0
    5.4982   65.5539   87.7697 C   0  0  0  0  0  0  0  0  0  0  0  0
    6.3971   65.5958   86.5432 C   0  0  0  0  0  0  0  0  0  0  0  0
 46 47  1  0  0  0
 47 45  1  0  0  0
 45 44  1  0  0  0
 44  1  1  0  0  0
  1  2  1  0  0  0
  2  3  2  0  0  0
  3  4  1  0  0  0
  4 23  1  0  0  0
 23 24  2  0  0  0
 23 25  2  0  0  0
 23 26  1  0  0  0
 26 27  1  0  0  0
 27 28  1  0  0  0
 28 29  1  0  0  0
 29 38  1  0  0  0
 38 39  1  0  0  0
 39 40  1  0  0  0
 40 41  1  0  0  0
 41 42  2  0  0  0
 41 43  1  0  0  0
 29 32  1  0  0  0
 32 33  1  0  0  0
 33 34  1  0  0  0
 34 35  1  0  0  0
 35 36  2  0  0  0
 35 37  1  0  0  0
 29 30  1  0  0  0
 30 31  1  0  0  0
  4  5  2  0  0  0
  5  6  1  0  0  0
  6  7  1  0  0  0
  7  8  2  0  0  0
  8  9  1  0  0  0
  9 10  1  0  0  0
 10 20  1  0  0  0
 20 21  1  0  0  0
 21 22  1  0  0  0
 10 11  2  0  0  0
 11 12  1  0  0  0
 12 18  1  0  0  0
 18 19  1  0  0  0
 12 13  1  0  0  0
 13 14  1  0  0  0
 14 15  2  0  0  0
 14 16  1  0  0  0
  6  1  2  0  0  0
 16  7  1  0  0  0
 31 26  1  0  0  0
 13  9  2  0  0  0
 16 17  1  0  0  0
M  CHG 1  35   1
M  CHG 1  37  -1
M  CHG 1  41   1
M  CHG 1  43  -1
M  END
> <minimizedAffinity>
-8.50137

$$$$



 47 50  0  0  0  0  0  0  0  0999 V2000
    2.3174   68.2278   83.2176 C   0  0  0  0  0  0  0  0  0  0  0  0
    2.5790   66.8513   83.2002 C   0  0  0  0  0  0  0  0  0  0  0  0
    1.9613   66.0328   82.2557 C   0  0  0  0  0  0  0  0  0  0  0  0
    1.0869   66.6019   81.3290 C   0  0  0  0  0  0  0  0  0  0  0  0
    0.8400   67.9791   81.3229 C   0  0  0  0  0  0  0  0  0  0  0  0
    1.4753   68.8117   82.2564 C   0  0  0  0  0  0  0  0  0  0  0  0
    1.2196   70.2825   82.1596 C   0  0  0  0  0  0  0  0  0  0  0  0
    0.2358   70.7152   81.4233 N   0  0  0  0  0  0  0  0  0  0  0  0
    0.1038   72.1038   81.3962 C   0  0  0  0  0  0  0  0  0  0  0  0
   -0.8643   72.8437   80.6888 C   0  0  0  0  0  0  0  0  0  0  0  0
   -0.5906   74.1726   80.9779 C   0  0  0  0  0  0  0  0  0  0  0  0
    0.4993   74.2284   81.8207 N   0  0  0  0  0  0  0  0  0  0  0  0
    0.9300   72.9545   82.0794 C   0  0  0  0  0  0  0  0  0  0  0  0
    2.0037   72.4768   82.8868 C   0  0  0  0  0  0  0  0  0  0  0  0
    2.7742   73.1657   83.5464 O   0  0  0  0  0  0  0  0  0  0  0  0
    2.0900   71.1049   82.8603 N   0  0  0  0  0  0  0  0  0  0  0  0
    2.8281   70.7014   83.4218 H   0  0  0  0  0  0  0  0  0  0  0  0
    1.0850   75.4573   82.3278 C   0  0  0  0  0  0  0  0  0  0  0  0
    0.0445   76.3873   82.9266 C   0  0  0  0  0  0  0  0  0  0  0  0
   -1.9601   72.3131   79.8249 C   0  0  0  0  0  0  0  0  0  0  0  0
   -2.5059   73.3328   78.8225 C   0  0  0  0  0  0  0  0  0  0  0  0
   -4.0184   73.2670   78.6647 C   0  0  0  0  0  0  0  0  0  0  0  0
    0.2939   65.5818   80.1125 S   0  0  0  0  0  0  0  0  0  0  0  0
    1.2904   65.2591   79.1157 O   0  0  0  0  0  0  0  0  0  0  0  0
   -0.9672   66.1944   79.7497 O   0  0  0  0  0  0  0  0  0  0  0  0
   -0.0780   64.1631   80.9884 N   0  0  0  0  0  0  0  0  0  0  0  0
   -0.9644   64.3300   82.1739 C   0  0  0  0  0  0  0  0  0  0  0  0
   -2.3352   63.7083   81.9189 C   0  0  0  0  0  0  0  0  0  0  0  0
   -2.2676   62.1730   81.6975 C   0  0  0  0  0  0  0  0  0  0  0  0
   -0.9107   61.8442   80.9724 C   0  0  0  0  0  0  0  0  0  0  0  0
   -0.4106   63.0045   80.1176 C   0  0  0  0  0  0  0  0  0  0  0  0
   -3.4343   61.6526   80.7838 C   0  0  0  0  0  0  0  0  0  0  0  0
   -3.2589   60.3352   80.0107 C   0  0  0  0  0  0  0  0  0  0  0  0
   -3.8658   60.4195   78.7333 O   0  0  0  0  0  0  0  0  0  0  0  0
   -3.1459   61.2458   77.8361 N   0  0  0  0  0  0  0  0  0  0  0  0
   -3.8305   62.1659   77.3959 O   0  0  0  0  0  0  0  0  0  0  0  0
   -1.9714   60.9515   77.6142 O   0  0  0  0  0  0  0  0  0  0  0  0
   -2.1983   61.3614   83.0416 C   0  0  0  0  0  0  0  0  0  0  0  0
   -1.8810   62.0778   84.3576 C   0  0  0  0  0  0  0  0  0  0  0  0
   -2.8633   61.7573   85.3318 O   0  0  0  0  0  0  0  0  0  0  0  0
   -2.4790   62.1347   86.6430 N   0  0  0  0  0  0  0  0  0  0  0  0
   -1.6383   61.3782   87.1243 O   0  0  0  0  0  0  0  0  0  0  0  0
   -3.0304   63.1239   87.1282 O   0  0  0  0  0  0  0  0  0  0  0  0
    2.9541   68.9831   84.1721 O   0  0  0  0  0  0  0  0  0  0  0  0
    4.2912   68.4948   84.3807 C   0  0  0  0  0  0  0  0  0  0  0  0
    5.8987   67.7582   86.2033 C   0  0  0  0  0  0  0  0  0  0  0  0
    4.4601   68.1001   85.8459 C   0  0  0  0  0  0  0  0  0  0  0  0
 46 47  1  0  0  0
 47 45  1  0  0  0
 45 44  1  0  0  0
 44  1  1  0  0  0
  1  2  1  0  0  0
  2  3  2  0  0  0
  3  4  1  0  0  0
  4 23  1  0  0  0
 23 24  2  0  0  0
 23 25  2  0  0  0
 23 26  1  0  0  0
 26 27  1  0  0  0
 27 28  1  0  0  0
 28 29  1  0  0  0
 29 38  1  0  0  0
 38 39  1  0  0  0
 39 40  1  0  0  0
 40 41  1  0  0  0
 41 42  2  0  0  0
 41 43  1  0  0  0
 29 32  1  0  0  0
 32 33  1  0  0  0
 33 34  1  0  0  0
 34 35  1  0  0  0
 35 36  2  0  0  0
 35 37  1  0  0  0
 29 30  1  0  0  0
 30 31  1  0  0  0
  4  5  2  0  0  0
  5  6  1  0  0  0
  6  7  1  0  0  0
  7  8  2  0  0  0
  8  9  1  0  0  0
  9 10  1  0  0  0
 10 20  1  0  0  0
 20 21  1  0  0  0
 21 22  1  0  0  0
 10 11  2  0  0  0
 11 12  1  0  0  0
 12 18  1  0  0  0
 18 19  1  0  0  0
 12 13  1  0  0  0
 13 14  1  0  0  0
 14 15  2  0  0  0
 14 16  1  0  0  0
  6  1  2  0  0  0
 16  7  1  0  0  0
 31 26  1  0  0  0
 13  9  2  0  0  0
 16 17  1  0  0  0
M  CHG 1  35   1
M  CHG 1  37  -1
M  CHG 1  41   1
M  CHG 1  43  -1
M  END
> <minimizedAffinity>
-8.34260

$$$$
