
     RDKit          3D

 37 39  0  0  0  0  0  0  0  0999 V2000
    4.0434   -2.0264   -0.2103 C   0  0  0  0  0  0  0  0  0  0  0  0
    3.8576   -0.6496   -0.8228 C   0  0  0  0  0  0  0  0  0  0  0  0
    2.4992   -0.2593   -0.6114 O   0  0  0  0  0  0  0  0  0  0  0  0
    2.0908    0.9637   -1.0838 C   0  0  0  0  0  0  0  0  0  0  0  0
    2.9450    1.8462   -1.7635 C   0  0  0  0  0  0  0  0  0  0  0  0
    2.4821    3.0805   -2.2252 C   0  0  0  0  0  0  0  0  0  0  0  0
    1.1607    3.4512   -2.0152 C   0  0  0  0  0  0  0  0  0  0  0  0
    0.2992    2.5861   -1.3418 C   0  0  0  0  0  0  0  0  0  0  0  0
    0.7444    1.3367   -0.8675 C   0  0  0  0  0  0  0  0  0  0  0  0
   -0.2744    0.4824   -0.1529 C   0  0  0  0  0  0  0  0  0  0  0  0
   -1.4973    0.9198   -0.0043 N   0  0  0  0  0  0  0  0  0  0  0  0
   -2.3425    0.0391    0.6719 C   0  0  0  0  0  0  0  0  0  0  0  0
   -3.6989    0.1722    1.0075 C   0  0  0  0  0  0  0  0  0  0  0  0
   -4.6042    1.3074    0.7242 C   0  0  0  0  0  0  0  0  0  0  0  0
   -4.1347   -0.9192    1.6650 N   0  0  0  0  0  0  0  0  0  0  0  0
   -3.0420   -1.7207    1.7313 N   0  0  0  0  0  0  0  0  0  0  0  0
   -3.1300   -3.0063    2.3804 C   0  0  0  0  0  0  0  0  0  0  0  0
   -1.9449   -1.1750    1.1432 C   0  0  0  0  0  0  0  0  0  0  0  0
   -0.6240   -1.6596    0.9885 C   0  0  0  0  0  0  0  0  0  0  0  0
   -0.2034   -2.7391    1.3877 O   0  0  0  0  0  0  0  0  0  0  0  0
    0.1625   -0.7528    0.3170 N   0  0  0  0  0  0  0  0  0  0  0  0
    3.3602   -2.7481   -0.6703 H   0  0  0  0  0  0  0  0  0  0  0  0
    3.8115   -2.0065    0.8598 H   0  0  0  0  0  0  0  0  0  0  0  0
    5.0706   -2.3772   -0.3432 H   0  0  0  0  0  0  0  0  0  0  0  0
    4.5367    0.0554   -0.3302 H   0  0  0  0  0  0  0  0  0  0  0  0
    4.0750   -0.7033   -1.8956 H   0  0  0  0  0  0  0  0  0  0  0  0
    3.9862    1.6062   -1.9542 H   0  0  0  0  0  0  0  0  0  0  0  0
    3.1571    3.7526   -2.7501 H   0  0  0  0  0  0  0  0  0  0  0  0
    0.7964    4.4111   -2.3730 H   0  0  0  0  0  0  0  0  0  0  0  0
   -0.7324    2.8994   -1.1894 H   0  0  0  0  0  0  0  0  0  0  0  0
   -4.6805    1.4748   -0.3549 H   0  0  0  0  0  0  0  0  0  0  0  0
   -5.6125    1.1249    1.1099 H   0  0  0  0  0  0  0  0  0  0  0  0
   -4.2253    2.2232    1.1892 H   0  0  0  0  0  0  0  0  0  0  0  0
   -2.8853   -3.7805    1.6491 H   0  0  0  0  0  0  0  0  0  0  0  0
   -2.4238   -3.0220    3.2140 H   0  0  0  0  0  0  0  0  0  0  0  0
   -4.1463   -3.1579    2.7535 H   0  0  0  0  0  0  0  0  0  0  0  0
    1.1239   -1.0295    0.1675 H   0  0  0  0  0  0  0  0  0  0  0  0
  1  2  1  0
  2  3  1  0
  3  4  1  0
  4  5  2  0
  5  6  1  0
  6  7  2  0
  7  8  1  0
  8  9  2  0
  9 10  1  0
 10 11  2  0
 11 12  1  0
 12 13  1  0
 13 14  1  0
 13 15  2  0
 15 16  1  0
 16 17  1  0
 16 18  1  0
 18 19  1  0
 19 20  2  0
 19 21  1  0
  9  4  1  0
 21 10  1  0
 18 12  2  0
  1 22  1  0
  1 23  1  0
  1 24  1  0
  2 25  1  0
  2 26  1  0
  5 27  1  0
  6 28  1  0
  7 29  1  0
  8 30  1  0
 14 31  1  0
 14 32  1  0
 14 33  1  0
 17 34  1  0
 17 35  1  0
 17 36  1  0
 21 37  1  0
M  END
$$$$
