
     RDKit          3D

 64 68  0  0  0  0  0  0  0  0999 V2000
    7.6438    0.2473   -1.7287 O   0  0  0  0  0  0  0  0  0  0  0  0
    8.0648    0.8635   -0.7530 C   0  0  0  0  0  0  0  0  0  0  0  0
    7.1929    1.5746    0.2602 C   0  0  0  0  0  0  0  0  0  0  0  0
    5.7065    1.4399   -0.0671 C   0  0  0  0  0  0  0  0  0  0  0  0
    4.8416    2.1527    0.9738 C   0  0  0  0  0  0  0  0  0  0  0  0
    3.3482    2.1513    0.6268 C   0  0  0  0  0  0  0  0  0  0  0  0
    2.7305    0.7459    0.6185 C   0  0  0  0  0  0  0  0  0  0  0  0
    1.2664    0.7705    0.5181 N   0  0  0  0  0  0  0  0  0  0  0  0
    0.7641    1.2453   -0.7714 C   0  0  0  0  0  0  0  0  0  0  0  0
   -0.7826    1.3449   -0.7942 C   0  0  0  0  0  0  0  0  0  0  0  0
   -1.5213    0.2581   -0.1138 N   0  0  0  0  0  0  0  0  0  0  0  0
   -0.6473   -0.9222    0.1236 C   0  0  2  0  0  0  0  0  0  0  0  0
   -1.3356   -2.0549    0.9439 C   0  0  0  0  0  0  0  0  0  0  0  0
   -2.7177   -2.2921    0.4557 C   0  0  0  0  0  0  0  0  0  0  0  0
   -3.3608   -1.3577   -0.3261 C   0  0  0  0  0  0  0  0  0  0  0  0
   -4.6180   -1.8294   -0.5953 N   0  0  0  0  0  0  0  0  0  0  0  0
   -4.7946   -3.0618   -0.0033 C   0  0  0  0  0  0  0  0  0  0  0  0
   -5.9075   -3.9111   -0.0064 C   0  0  0  0  0  0  0  0  0  0  0  0
   -5.8053   -5.1158    0.6960 C   0  0  0  0  0  0  0  0  0  0  0  0
   -4.6372   -5.4545    1.3755 C   0  0  0  0  0  0  0  0  0  0  0  0
   -3.5333   -4.5938    1.3711 C   0  0  0  0  0  0  0  0  0  0  0  0
   -3.6101   -3.3757    0.6684 C   0  0  0  0  0  0  0  0  0  0  0  0
   -2.7838   -0.0653   -0.8325 C   0  0  1  0  0  0  0  0  0  0  0  0
   -3.7980    1.0723   -0.7347 C   0  0  0  0  0  0  0  0  0  0  0  0
   -4.3583    1.6268   -1.8975 C   0  0  0  0  0  0  0  0  0  0  0  0
   -5.2986    2.6564   -1.8108 C   0  0  0  0  0  0  0  0  0  0  0  0
   -5.6862    3.1372   -0.5613 C   0  0  0  0  0  0  0  0  0  0  0  0
   -6.9593    4.5301   -0.4474 Br  0  0  0  0  0  0  0  0  0  0  0  0
   -5.1437    2.5997    0.6031 C   0  0  0  0  0  0  0  0  0  0  0  0
   -4.2040    1.5711    0.5157 C   0  0  0  0  0  0  0  0  0  0  0  0
    0.6876   -0.5493    0.8456 C   0  0  0  0  0  0  0  0  0  0  0  0
    9.4111    0.9603   -0.4764 N   0  0  0  0  0  0  0  0  0  0  0  0
   10.2621    0.4248   -1.4745 O   0  0  0  0  0  0  0  0  0  0  0  0
    7.4780    2.6330    0.2754 H   0  0  0  0  0  0  0  0  0  0  0  0
    7.3986    1.1484    1.2490 H   0  0  0  0  0  0  0  0  0  0  0  0
    5.5093    1.8584   -1.0618 H   0  0  0  0  0  0  0  0  0  0  0  0
    5.4432    0.3768   -0.1119 H   0  0  0  0  0  0  0  0  0  0  0  0
    5.1706    3.1957    1.0606 H   0  0  0  0  0  0  0  0  0  0  0  0
    4.9913    1.6922    1.9579 H   0  0  0  0  0  0  0  0  0  0  0  0
    3.2135    2.6377   -0.3458 H   0  0  0  0  0  0  0  0  0  0  0  0
    2.8271    2.7701    1.3685 H   0  0  0  0  0  0  0  0  0  0  0  0
    3.0111    0.2571    1.5607 H   0  0  0  0  0  0  0  0  0  0  0  0
    3.1552    0.1457   -0.1952 H   0  0  0  0  0  0  0  0  0  0  0  0
    1.0965    0.5752   -1.5757 H   0  0  0  0  0  0  0  0  0  0  0  0
    1.1531    2.2423   -1.0037 H   0  0  0  0  0  0  0  0  0  0  0  0
   -1.0742    2.2858   -0.3109 H   0  0  0  0  0  0  0  0  0  0  0  0
   -1.0719    1.4304   -1.8497 H   0  0  0  0  0  0  0  0  0  0  0  0
   -0.3850   -1.3363   -0.8626 H   0  0  0  0  0  0  0  0  0  0  0  0
   -0.7426   -2.9740    0.8710 H   0  0  0  0  0  0  0  0  0  0  0  0
   -1.3920   -1.7769    2.0039 H   0  0  0  0  0  0  0  0  0  0  0  0
   -5.3248   -1.3407   -1.1275 H   0  0  0  0  0  0  0  0  0  0  0  0
   -6.8204   -3.6487   -0.5306 H   0  0  0  0  0  0  0  0  0  0  0  0
   -6.6529   -5.7970    0.7136 H   0  0  0  0  0  0  0  0  0  0  0  0
   -4.5810   -6.3951    1.9175 H   0  0  0  0  0  0  0  0  0  0  0  0
   -2.6286   -4.8642    1.9065 H   0  0  0  0  0  0  0  0  0  0  0  0
   -2.5447   -0.2433   -1.8916 H   0  0  0  0  0  0  0  0  0  0  0  0
   -4.0624    1.2628   -2.8789 H   0  0  0  0  0  0  0  0  0  0  0  0
   -5.7197    3.0771   -2.7201 H   0  0  0  0  0  0  0  0  0  0  0  0
   -5.4398    2.9710    1.5803 H   0  0  0  0  0  0  0  0  0  0  0  0
   -3.7772    1.1529    1.4267 H   0  0  0  0  0  0  0  0  0  0  0  0
    1.4032   -1.3511    0.6161 H   0  0  0  0  0  0  0  0  0  0  0  0
    0.5391   -0.5608    1.9325 H   0  0  0  0  0  0  0  0  0  0  0  0
    9.7897    1.7356    0.0574 H   0  0  0  0  0  0  0  0  0  0  0  0
    9.6215    0.0504   -2.1196 H   0  0  0  0  0  0  0  0  0  0  0  0
  1  2  2  0
  2  3  1  0
  3  4  1  0
  4  5  1  0
  5  6  1  0
  6  7  1  0
  7  8  1  0
  8  9  1  0
  9 10  1  0
 10 11  1  0
 11 12  1  0
 12 13  1  0
 13 14  1  0
 14 15  2  0
 15 16  1  0
 16 17  1  0
 17 18  2  0
 18 19  1  0
 19 20  2  0
 20 21  1  0
 21 22  2  0
 15 23  1  0
 23 24  1  0
 24 25  1  0
 25 26  2  0
 26 27  1  0
 27 28  1  0
 27 29  2  0
 29 30  1  0
 12 31  1  0
  2 32  1  0
 32 33  1  0
 31  8  1  0
 23 11  1  0
 30 24  2  0
 22 14  1  0
 22 17  1  0
  3 34  1  0
  3 35  1  0
  4 36  1  0
  4 37  1  0
  5 38  1  0
  5 39  1  0
  6 40  1  0
  6 41  1  0
  7 42  1  0
  7 43  1  0
  9 44  1  0
  9 45  1  0
 10 46  1  0
 10 47  1  0
 12 48  1  6
 13 49  1  0
 13 50  1  0
 16 51  1  0
 18 52  1  0
 19 53  1  0
 20 54  1  0
 21 55  1  0
 23 56  1  6
 25 57  1  0
 26 58  1  0
 29 59  1  0
 30 60  1  0
 31 61  1  0
 31 62  1  0
 32 63  1  0
 33 64  1  0
M  END
$$$$
