
     RDKit          3D

 71 74  0  0  0  0  0  0  0  0999 V2000
   -0.1573    2.0652   -6.6481 C   0  0  0  0  0  0  0  0  0  0  0  0
   -0.5669    1.2245   -5.4511 C   0  0  0  0  0  0  0  0  0  0  0  0
   -0.0373    1.8020   -4.1416 C   0  0  0  0  0  0  0  0  0  0  0  0
   -0.5191    0.9762   -3.0774 O   0  0  0  0  0  0  0  0  0  0  0  0
   -0.2187    1.3313   -1.7854 C   0  0  0  0  0  0  0  0  0  0  0  0
    0.6123    2.4171   -1.4653 C   0  0  0  0  0  0  0  0  0  0  0  0
    0.8911    2.7372   -0.1358 C   0  0  0  0  0  0  0  0  0  0  0  0
    0.3447    1.9652    0.8870 C   0  0  0  0  0  0  0  0  0  0  0  0
    0.7343    2.3733    2.5706 S   0  0  0  0  0  0  0  0  0  0  0  0
   -0.0145    1.5078    3.4541 O   0  0  0  0  0  0  0  0  0  0  0  0
    0.6622    3.8137    2.6837 O   0  0  0  0  0  0  0  0  0  0  0  0
    2.3783    1.9136    2.6667 N   0  0  0  0  0  0  0  0  0  0  0  0
    2.6526    0.4632    2.4449 C   0  0  0  0  0  0  0  0  0  0  0  0
    4.1068    0.1224    2.7906 C   0  0  0  0  0  0  0  0  0  0  0  0
    5.0503    1.3230    2.6193 C   0  0  0  0  0  0  0  0  0  0  0  0
    5.1410    1.7979    1.1534 C   0  0  0  0  0  0  0  0  0  0  0  0
    5.5737    0.7118    0.3381 O   0  0  0  0  0  0  0  0  0  0  0  0
    5.5807    1.0350   -1.0410 N   0  0  0  0  0  0  0  0  0  0  0  0
    5.2256    2.1712   -1.3593 O   0  0  0  0  0  0  0  0  0  0  0  0
    5.9490    0.0991   -1.7471 O   0  0  0  0  0  0  0  0  0  0  0  0
    4.5951    2.4747    3.5395 C   0  0  0  0  0  0  0  0  0  0  0  0
    3.0934    2.4444    3.8500 C   0  0  0  0  0  0  0  0  0  0  0  0
   -0.4874    0.8850    0.5950 C   0  0  0  0  0  0  0  0  0  0  0  0
   -0.7738    0.5500   -0.7430 C   0  0  0  0  0  0  0  0  0  0  0  0
   -1.6641   -0.6488   -0.9600 C   0  0  0  0  0  0  0  0  0  0  0  0
   -2.0695   -1.3391    0.0704 N   0  0  0  0  0  0  0  0  0  0  0  0
   -2.8935   -2.4207   -0.2417 C   0  0  0  0  0  0  0  0  0  0  0  0
   -3.4968   -3.3156    0.6653 C   0  0  0  0  0  0  0  0  0  0  0  0
   -3.3849   -3.3087    2.1536 C   0  0  0  0  0  0  0  0  0  0  0  0
   -4.3434   -2.3090    2.8025 C   0  0  0  0  0  0  0  0  0  0  0  0
   -4.2127   -2.3175    4.3170 C   0  0  0  0  0  0  0  0  0  0  0  0
   -4.2201   -4.2024   -0.1204 C   0  0  0  0  0  0  0  0  0  0  0  0
   -4.0543   -3.8552   -1.4428 N   0  0  0  0  0  0  0  0  0  0  0  0
   -4.6442   -4.5450   -2.5672 C   0  0  0  0  0  0  0  0  0  0  0  0
   -3.2479   -2.7530   -1.5199 C   0  0  0  0  0  0  0  0  0  0  0  0
   -2.8006   -2.0070   -2.6475 C   0  0  0  0  0  0  0  0  0  0  0  0
   -3.0709   -2.2421   -3.8205 O   0  0  0  0  0  0  0  0  0  0  0  0
   -2.0048   -0.9514   -2.2713 N   0  0  0  0  0  0  0  0  0  0  0  0
   -0.5522    3.0834   -6.5683 H   0  0  0  0  0  0  0  0  0  0  0  0
    0.9335    2.1223   -6.7322 H   0  0  0  0  0  0  0  0  0  0  0  0
   -0.5454    1.6235   -7.5716 H   0  0  0  0  0  0  0  0  0  0  0  0
   -0.1987    0.1984   -5.5771 H   0  0  0  0  0  0  0  0  0  0  0  0
   -1.6601    1.1487   -5.4050 H   0  0  0  0  0  0  0  0  0  0  0  0
    1.0587    1.7920   -4.1568 H   0  0  0  0  0  0  0  0  0  0  0  0
   -0.4055    2.8271   -4.0188 H   0  0  0  0  0  0  0  0  0  0  0  0
    1.0681    3.0384   -2.2305 H   0  0  0  0  0  0  0  0  0  0  0  0
    1.5366    3.5831    0.0956 H   0  0  0  0  0  0  0  0  0  0  0  0
    2.4870    0.2364    1.3862 H   0  0  0  0  0  0  0  0  0  0  0  0
    1.9814   -0.1644    3.0404 H   0  0  0  0  0  0  0  0  0  0  0  0
    4.1522   -0.2077    3.8375 H   0  0  0  0  0  0  0  0  0  0  0  0
    4.4380   -0.7366    2.1959 H   0  0  0  0  0  0  0  0  0  0  0  0
    6.0562    1.0041    2.9219 H   0  0  0  0  0  0  0  0  0  0  0  0
    4.1699    2.1711    0.8100 H   0  0  0  0  0  0  0  0  0  0  0  0
    5.8754    2.6108    1.0882 H   0  0  0  0  0  0  0  0  0  0  0  0
    5.1419    2.4251    4.4897 H   0  0  0  0  0  0  0  0  0  0  0  0
    4.8598    3.4409    3.0909 H   0  0  0  0  0  0  0  0  0  0  0  0
    2.7694    3.4602    4.0986 H   0  0  0  0  0  0  0  0  0  0  0  0
    2.8915    1.8102    4.7222 H   0  0  0  0  0  0  0  0  0  0  0  0
   -0.9116    0.2999    1.4103 H   0  0  0  0  0  0  0  0  0  0  0  0
   -2.3518   -3.0716    2.4372 H   0  0  0  0  0  0  0  0  0  0  0  0
   -3.5868   -4.3167    2.5377 H   0  0  0  0  0  0  0  0  0  0  0  0
   -4.1426   -1.2966    2.4304 H   0  0  0  0  0  0  0  0  0  0  0  0
   -5.3781   -2.5475    2.5276 H   0  0  0  0  0  0  0  0  0  0  0  0
   -4.4496   -3.3049    4.7255 H   0  0  0  0  0  0  0  0  0  0  0  0
   -4.9018   -1.5935    4.7618 H   0  0  0  0  0  0  0  0  0  0  0  0
   -3.1965   -2.0519    4.6250 H   0  0  0  0  0  0  0  0  0  0  0  0
   -4.8350   -5.0482    0.1606 H   0  0  0  0  0  0  0  0  0  0  0  0
   -5.2404   -5.3869   -2.2056 H   0  0  0  0  0  0  0  0  0  0  0  0
   -5.2838   -3.8440   -3.1094 H   0  0  0  0  0  0  0  0  0  0  0  0
   -3.8378   -4.9142   -3.2062 H   0  0  0  0  0  0  0  0  0  0  0  0
   -1.6505   -0.3800   -3.0268 H   0  0  0  0  0  0  0  0  0  0  0  0
  1  2  1  0
  2  3  1  0
  3  4  1  0
  4  5  1  0
  5  6  1  0
  6  7  2  0
  7  8  1  0
  8  9  1  0
  9 10  2  0
  9 11  2  0
  9 12  1  0
 12 13  1  0
 13 14  1  0
 14 15  1  0
 15 16  1  0
 16 17  1  0
 17 18  1  0
 18 19  2  0
 18 20  1  0
 15 21  1  0
 21 22  1  0
  8 23  2  0
 23 24  1  0
 24 25  1  0
 25 26  2  0
 26 27  1  0
 27 28  1  0
 28 29  1  0
 29 30  1  0
 30 31  1  0
 28 32  2  0
 32 33  1  0
 33 34  1  0
 33 35  1  0
 35 36  1  0
 36 37  2  0
 36 38  1  0
 24  5  2  0
 38 25  1  0
 22 12  1  0
 35 27  2  0
  1 39  1  0
  1 40  1  0
  1 41  1  0
  2 42  1  0
  2 43  1  0
  3 44  1  0
  3 45  1  0
  6 46  1  0
  7 47  1  0
 13 48  1  0
 13 49  1  0
 14 50  1  0
 14 51  1  0
 15 52  1  0
 16 53  1  0
 16 54  1  0
 21 55  1  0
 21 56  1  0
 22 57  1  0
 22 58  1  0
 23 59  1  0
 29 60  1  0
 29 61  1  0
 30 62  1  0
 30 63  1  0
 31 64  1  0
 31 65  1  0
 31 66  1  0
 32 67  1  0
 34 68  1  0
 34 69  1  0
 34 70  1  0
 38 71  1  0
M  CHG  2  18   1  20  -1
M  END
$$$$
