


 39 45  0  0  0  0  0  0  0  0999 V2000
    0.5320   66.1604   81.7205 C   0  0  0  0  0  0  0  0  0  0  0  0
    0.2623   67.2788   81.2735 O   0  0  0  0  0  0  0  0  0  0  0  0
    0.1099   65.0403   81.0240 N   0  0  0  0  0  0  0  0  0  0  0  0
   -0.5019   65.2036   79.7126 C   0  0  0  0  0  0  0  0  0  0  0  0
   -0.6869   63.8177   79.2077 C   0  0  0  0  0  0  0  0  0  0  0  0
   -0.2893   62.8987   80.1671 C   0  0  0  0  0  0  0  0  0  0  0  0
   -0.3018   61.5619   80.0043 N   0  0  0  0  0  0  0  0  0  0  0  0
   -0.7652   61.1003   78.8286 C   0  0  0  0  0  0  0  0  0  0  0  0
   -0.8089   59.7278   78.6253 C   0  0  0  0  0  0  0  0  0  0  0  0
   -1.2770   59.1726   77.4310 C   0  0  0  0  0  0  0  0  0  0  0  0
   -1.7145   60.0029   76.4073 C   0  0  0  0  0  0  0  0  0  0  0  0
   -1.6822   61.3850   76.5822 C   0  0  0  0  0  0  0  0  0  0  0  0
   -1.2112   61.9524   77.7855 C   0  0  0  0  0  0  0  0  0  0  0  0
   -1.1585   63.3436   78.0037 C   0  0  0  0  0  0  0  0  0  0  0  0
   -1.5737   64.1895   77.0128 O   0  0  0  0  0  0  0  0  0  0  0  0
    0.1963   63.6206   81.4181 C   0  0  0  0  0  0  0  0  0  0  0  0
   -1.4730   65.1136   77.2902 H   0  0  0  0  0  0  0  0  0  0  0  0
   -0.6402   63.2770   82.6421 C   0  0  0  0  0  0  0  0  0  0  0  0
   -2.0540   63.3825   82.6424 C   0  0  0  0  0  0  0  0  0  0  0  0
   -2.8049   63.0616   83.7786 C   0  0  0  0  0  0  0  0  0  0  0  0
   -2.1257   62.6299   84.8955 C   0  0  0  0  0  0  0  0  0  0  0  0
   -0.7576   62.5079   84.9071 C   0  0  0  0  0  0  0  0  0  0  0  0
    0.0087   62.8141   83.8028 C   0  0  0  0  0  0  0  0  0  0  0  0
   -0.2857   62.0635   86.1026 O   0  0  0  0  0  0  0  0  0  0  0  0
   -1.5170   61.9024   86.8355 C   0  0  0  0  0  0  0  0  0  0  0  0
   -2.6888   62.2772   86.0819 O   0  0  0  0  0  0  0  0  0  0  0  0
    3.0107   66.0060   84.3193 C   0  0  0  0  0  0  0  0  0  0  0  0
    1.9141   65.6901   85.0952 C   0  0  0  0  0  0  0  0  0  0  0  0
    0.7902   65.7133   84.2348 C   0  0  0  0  0  0  0  0  0  0  0  0
    1.2585   66.0098   82.9681 C   0  0  0  0  0  0  0  0  0  0  0  0
    2.6072   66.2206   83.0326 O   0  0  0  0  0  0  0  0  0  0  0  0
    7.1966   66.4084   85.0713 C   0  0  0  0  0  0  0  0  0  0  0  0
    6.5272   67.3760   84.3204 C   0  0  0  0  0  0  0  0  0  0  0  0
    5.1565   67.2364   84.0743 C   0  0  0  0  0  0  0  0  0  0  0  0
    4.4416   66.1366   84.5751 C   0  0  0  0  0  0  0  0  0  0  0  0
    5.1354   65.1737   85.3254 C   0  0  0  0  0  0  0  0  0  0  0  0
    6.5048   65.3061   85.5743 C   0  0  0  0  0  0  0  0  0  0  0  0
    9.2477   67.5918   85.0641 O   0  0  0  0  0  0  0  0  0  0  0  0
    8.6427   66.5605   85.3278 C   0  0  0  0  0  0  0  0  0  0  0  0
 38 39  2  0  0  0
 39 32  1  0  0  0
 32 33  1  0  0  0
 33 34  2  0  0  0
 34 35  1  0  0  0
 35 27  1  0  0  0
 27 28  2  0  0  0
 28 29  1  0  0  0
 29 30  2  0  0  0
 30  1  1  0  0  0
  1  2  2  0  0  0
  1  3  1  0  0  0
  3  4  1  0  0  0
  4  5  1  0  0  0
  5  6  1  0  0  0
  6  7  2  0  0  0
  7  8  1  0  0  0
  8  9  2  0  0  0
  9 10  1  0  0  0
 10 11  2  0  0  0
 11 12  1  0  0  0
 12 13  2  0  0  0
 13 14  1  0  0  0
 14 15  1  0  0  0
  6 16  1  0  0  0
 16 18  1  0  0  0
 18 19  1  0  0  0
 19 20  2  0  0  0
 20 21  1  0  0  0
 21 22  2  0  0  0
 22 23  1  0  0  0
 22 24  1  0  0  0
 24 25  1  0  0  0
 25 26  1  0  0  0
 30 31  1  0  0  0
 35 36  2  0  0  0
 36 37  1  0  0  0
 37 32  2  0  0  0
 31 27  1  0  0  0
 16  3  1  0  0  0
 23 18  2  0  0  0
 14  5  2  0  0  0
 26 21  1  0  0  0
 13  8  1  0  0  0
 15 17  1  0  0  0
M  END
> <minimizedAffinity>
-11.10379

$$$$



 39 45  0  0  0  0  0  0  0  0999 V2000
    3.1155   66.9302   83.1981 C   0  0  0  0  0  0  0  0  0  0  0  0
    4.3428   66.9943   83.3132 O   0  0  0  0  0  0  0  0  0  0  0  0
    2.4023   66.1183   84.0641 N   0  0  0  0  0  0  0  0  0  0  0  0
    3.0916   65.4846   85.1794 C   0  0  0  0  0  0  0  0  0  0  0  0
    2.0137   64.8279   85.9647 C   0  0  0  0  0  0  0  0  0  0  0  0
    0.7902   64.9901   85.3323 C   0  0  0  0  0  0  0  0  0  0  0  0
   -0.3871   64.5401   85.8068 N   0  0  0  0  0  0  0  0  0  0  0  0
   -0.3510   63.8591   86.9666 C   0  0  0  0  0  0  0  0  0  0  0  0
   -1.5409   63.3649   87.4832 C   0  0  0  0  0  0  0  0  0  0  0  0
   -1.5842   62.6481   88.6824 C   0  0  0  0  0  0  0  0  0  0  0  0
   -0.4128   62.4147   89.3909 C   0  0  0  0  0  0  0  0  0  0  0  0
    0.7971   62.8989   88.8973 C   0  0  0  0  0  0  0  0  0  0  0  0
    0.8482   63.6229   87.6870 C   0  0  0  0  0  0  0  0  0  0  0  0
    2.0485   64.1328   87.1532 C   0  0  0  0  0  0  0  0  0  0  0  0
    3.2187   63.9280   87.8303 O   0  0  0  0  0  0  0  0  0  0  0  0
    0.9656   65.7810   84.0418 C   0  0  0  0  0  0  0  0  0  0  0  0
    3.9604   64.3397   87.3597 H   0  0  0  0  0  0  0  0  0  0  0  0
    0.5472   64.9823   82.8158 C   0  0  0  0  0  0  0  0  0  0  0  0
   -0.1726   65.5685   81.7442 C   0  0  0  0  0  0  0  0  0  0  0  0
   -0.5479   64.8166   80.6256 C   0  0  0  0  0  0  0  0  0  0  0  0
   -0.1864   63.4885   80.5946 C   0  0  0  0  0  0  0  0  0  0  0  0
    0.5237   62.9089   81.6175 C   0  0  0  0  0  0  0  0  0  0  0  0
    0.9096   63.6244   82.7309 C   0  0  0  0  0  0  0  0  0  0  0  0
    0.7820   61.5932   81.3904 O   0  0  0  0  0  0  0  0  0  0  0  0
    0.1679   61.4172   80.0976 C   0  0  0  0  0  0  0  0  0  0  0  0
   -0.4649   62.6117   79.5934 O   0  0  0  0  0  0  0  0  0  0  0  0
    1.4150   69.3998   81.2155 C   0  0  0  0  0  0  0  0  0  0  0  0
    1.4277   68.3896   80.2756 C   0  0  0  0  0  0  0  0  0  0  0  0
    2.0913   67.2908   80.8723 C   0  0  0  0  0  0  0  0  0  0  0  0
    2.4231   67.6712   82.1596 C   0  0  0  0  0  0  0  0  0  0  0  0
    2.0388   68.9686   82.3509 O   0  0  0  0  0  0  0  0  0  0  0  0
   -0.1219   73.3849   81.2969 C   0  0  0  0  0  0  0  0  0  0  0  0
    1.2302   73.1648   81.0297 C   0  0  0  0  0  0  0  0  0  0  0  0
    1.7284   71.8570   81.0083 C   0  0  0  0  0  0  0  0  0  0  0  0
    0.8860   70.7597   81.2489 C   0  0  0  0  0  0  0  0  0  0  0  0
   -0.4701   71.0043   81.5185 C   0  0  0  0  0  0  0  0  0  0  0  0
   -0.9744   72.3080   81.5426 C   0  0  0  0  0  0  0  0  0  0  0  0
   -0.4566   75.5195   82.2659 O   0  0  0  0  0  0  0  0  0  0  0  0
   -0.6423   74.7666   81.3185 C   0  0  0  0  0  0  0  0  0  0  0  0
 38 39  2  0  0  0
 39 32  1  0  0  0
 32 33  1  0  0  0
 33 34  2  0  0  0
 34 35  1  0  0  0
 35 27  1  0  0  0
 27 28  2  0  0  0
 28 29  1  0  0  0
 29 30  2  0  0  0
 30  1  1  0  0  0
  1  2  2  0  0  0
  1  3  1  0  0  0
  3  4  1  0  0  0
  4  5  1  0  0  0
  5  6  1  0  0  0
  6  7  2  0  0  0
  7  8  1  0  0  0
  8  9  2  0  0  0
  9 10  1  0  0  0
 10 11  2  0  0  0
 11 12  1  0  0  0
 12 13  2  0  0  0
 13 14  1  0  0  0
 14 15  1  0  0  0
  6 16  1  0  0  0
 16 18  1  0  0  0
 18 19  1  0  0  0
 19 20  2  0  0  0
 20 21  1  0  0  0
 21 22  2  0  0  0
 22 23  1  0  0  0
 22 24  1  0  0  0
 24 25  1  0  0  0
 25 26  1  0  0  0
 30 31  1  0  0  0
 35 36  2  0  0  0
 36 37  1  0  0  0
 37 32  2  0  0  0
 31 27  1  0  0  0
 16  3  1  0  0  0
 23 18  2  0  0  0
 14  5  2  0  0  0
 26 21  1  0  0  0
 13  8  1  0  0  0
 15 17  1  0  0  0
M  END
> <minimizedAffinity>
-10.17950

$$$$



 39 45  0  0  0  0  0  0  0  0999 V2000
    2.3240   69.4702   79.4632 C   0  0  0  0  0  0  0  0  0  0  0  0
    2.8736   69.3045   78.3706 O   0  0  0  0  0  0  0  0  0  0  0  0
    2.7684   70.4886   80.2898 N   0  0  0  0  0  0  0  0  0  0  0  0
    3.7612   71.4305   79.7917 C   0  0  0  0  0  0  0  0  0  0  0  0
    3.8862   72.4498   80.8665 C   0  0  0  0  0  0  0  0  0  0  0  0
    3.0915   72.1069   81.9501 C   0  0  0  0  0  0  0  0  0  0  0  0
    2.9587   72.8424   83.0704 N   0  0  0  0  0  0  0  0  0  0  0  0
    3.6806   73.9757   83.1388 C   0  0  0  0  0  0  0  0  0  0  0  0
    3.5842   74.7557   84.2830 C   0  0  0  0  0  0  0  0  0  0  0  0
    4.3025   75.9460   84.4281 C   0  0  0  0  0  0  0  0  0  0  0  0
    5.1413   76.3760   83.4081 C   0  0  0  0  0  0  0  0  0  0  0  0
    5.2583   75.6140   82.2473 C   0  0  0  0  0  0  0  0  0  0  0  0
    4.5363   74.4111   82.0943 C   0  0  0  0  0  0  0  0  0  0  0  0
    4.6225   73.6116   80.9371 C   0  0  0  0  0  0  0  0  0  0  0  0
    5.4327   74.0108   79.9104 O   0  0  0  0  0  0  0  0  0  0  0  0
    2.3639   70.7966   81.6754 C   0  0  0  0  0  0  0  0  0  0  0  0
    5.3883   73.3780   79.1764 H   0  0  0  0  0  0  0  0  0  0  0  0
    2.7373   69.7106   82.6739 C   0  0  0  0  0  0  0  0  0  0  0  0
    1.7594   68.9154   83.3231 C   0  0  0  0  0  0  0  0  0  0  0  0
    2.1237   67.9216   84.2381 C   0  0  0  0  0  0  0  0  0  0  0  0
    3.4657   67.7339   84.4809 C   0  0  0  0  0  0  0  0  0  0  0  0
    4.4263   68.4854   83.8493 C   0  0  0  0  0  0  0  0  0  0  0  0
    4.0985   69.4696   82.9414 C   0  0  0  0  0  0  0  0  0  0  0  0
    5.6868   68.1400   84.2254 O   0  0  0  0  0  0  0  0  0  0  0  0
    5.4081   67.0716   85.1529 C   0  0  0  0  0  0  0  0  0  0  0  0
    3.9992   66.8195   85.3343 O   0  0  0  0  0  0  0  0  0  0  0  0
    0.2948   66.7582   80.6670 C   0  0  0  0  0  0  0  0  0  0  0  0
   -0.7196   67.6745   80.4790 C   0  0  0  0  0  0  0  0  0  0  0  0
   -0.1099   68.8609   80.0053 C   0  0  0  0  0  0  0  0  0  0  0  0
    1.2439   68.6020   79.8953 C   0  0  0  0  0  0  0  0  0  0  0  0
    1.4885   67.3305   80.3323 O   0  0  0  0  0  0  0  0  0  0  0  0
    0.4663   62.6890   81.9560 C   0  0  0  0  0  0  0  0  0  0  0  0
    0.2491   62.9849   80.6094 C   0  0  0  0  0  0  0  0  0  0  0  0
    0.1901   64.3202   80.1941 C   0  0  0  0  0  0  0  0  0  0  0  0
    0.3497   65.3696   81.1131 C   0  0  0  0  0  0  0  0  0  0  0  0
    0.5642   65.0492   82.4632 C   0  0  0  0  0  0  0  0  0  0  0  0
    0.6232   63.7177   82.8855 C   0  0  0  0  0  0  0  0  0  0  0  0
    1.5757   60.6463   82.4076 O   0  0  0  0  0  0  0  0  0  0  0  0
    0.5275   61.2786   82.3889 C   0  0  0  0  0  0  0  0  0  0  0  0
 38 39  2  0  0  0
 39 32  1  0  0  0
 32 33  1  0  0  0
 33 34  2  0  0  0
 34 35  1  0  0  0
 35 27  1  0  0  0
 27 28  2  0  0  0
 28 29  1  0  0  0
 29 30  2  0  0  0
 30  1  1  0  0  0
  1  2  2  0  0  0
  1  3  1  0  0  0
  3  4  1  0  0  0
  4  5  1  0  0  0
  5  6  1  0  0  0
  6  7  2  0  0  0
  7  8  1  0  0  0
  8  9  2  0  0  0
  9 10  1  0  0  0
 10 11  2  0  0  0
 11 12  1  0  0  0
 12 13  2  0  0  0
 13 14  1  0  0  0
 14 15  1  0  0  0
  6 16  1  0  0  0
 16 18  1  0  0  0
 18 19  1  0  0  0
 19 20  2  0  0  0
 20 21  1  0  0  0
 21 22  2  0  0  0
 22 23  1  0  0  0
 22 24  1  0  0  0
 24 25  1  0  0  0
 25 26  1  0  0  0
 30 31  1  0  0  0
 35 36  2  0  0  0
 36 37  1  0  0  0
 37 32  2  0  0  0
 31 27  1  0  0  0
 16  3  1  0  0  0
 23 18  2  0  0  0
 14  5  2  0  0  0
 26 21  1  0  0  0
 13  8  1  0  0  0
 15 17  1  0  0  0
M  END
> <minimizedAffinity>
-10.12509

$$$$



 39 45  0  0  0  0  0  0  0  0999 V2000
    3.0557   66.9382   83.2505 C   0  0  0  0  0  0  0  0  0  0  0  0
    4.2572   67.0593   83.5060 O   0  0  0  0  0  0  0  0  0  0  0  0
    2.2839   66.1003   84.0379 N   0  0  0  0  0  0  0  0  0  0  0  0
    2.8668   65.5065   85.2331 C   0  0  0  0  0  0  0  0  0  0  0  0
    1.7355   64.8064   85.8963 C   0  0  0  0  0  0  0  0  0  0  0  0
    0.5877   64.9079   85.1247 C   0  0  0  0  0  0  0  0  0  0  0  0
   -0.6154   64.4076   85.4652 N   0  0  0  0  0  0  0  0  0  0  0  0
   -0.6837   63.7369   86.6295 C   0  0  0  0  0  0  0  0  0  0  0  0
   -1.9021   63.1920   87.0110 C   0  0  0  0  0  0  0  0  0  0  0  0
   -2.0522   62.4823   88.2058 C   0  0  0  0  0  0  0  0  0  0  0  0
   -0.9617   62.3077   89.0478 C   0  0  0  0  0  0  0  0  0  0  0  0
    0.2744   62.8436   88.6916 C   0  0  0  0  0  0  0  0  0  0  0  0
    0.4331   63.5609   87.4867 C   0  0  0  0  0  0  0  0  0  0  0  0
    1.6632   64.1218   87.0892 C   0  0  0  0  0  0  0  0  0  0  0  0
    2.7549   63.9756   87.8995 O   0  0  0  0  0  0  0  0  0  0  0  0
    0.8761   65.6972   83.8536 C   0  0  0  0  0  0  0  0  0  0  0  0
    3.5271   64.4177   87.5129 H   0  0  0  0  0  0  0  0  0  0  0  0
    0.6391   64.8718   82.5973 C   0  0  0  0  0  0  0  0  0  0  0  0
    0.9219   63.4836   82.5433 C   0  0  0  0  0  0  0  0  0  0  0  0
    0.6967   62.7424   81.3781 C   0  0  0  0  0  0  0  0  0  0  0  0
    0.1814   63.4042   80.2864 C   0  0  0  0  0  0  0  0  0  0  0  0
   -0.1120   64.7454   80.3267 C   0  0  0  0  0  0  0  0  0  0  0  0
    0.0966   65.5012   81.4606 C   0  0  0  0  0  0  0  0  0  0  0  0
   -0.6140   65.2032   79.1486 O   0  0  0  0  0  0  0  0  0  0  0  0
   -0.6195   63.9904   78.3685 C   0  0  0  0  0  0  0  0  0  0  0  0
   -0.0991   62.8471   79.0782 O   0  0  0  0  0  0  0  0  0  0  0  0
    1.4932   69.3155   81.0531 C   0  0  0  0  0  0  0  0  0  0  0  0
    1.6519   68.2971   80.1356 C   0  0  0  0  0  0  0  0  0  0  0  0
    2.2870   67.2326   80.8193 C   0  0  0  0  0  0  0  0  0  0  0  0
    2.4560   67.6394   82.1299 C   0  0  0  0  0  0  0  0  0  0  0  0
    2.0015   68.9219   82.2577 O   0  0  0  0  0  0  0  0  0  0  0  0
   -0.2008   73.2343   80.9018 C   0  0  0  0  0  0  0  0  0  0  0  0
    1.1725   73.0613   80.7224 C   0  0  0  0  0  0  0  0  0  0  0  0
    1.7219   71.7752   80.7770 C   0  0  0  0  0  0  0  0  0  0  0  0
    0.9103   70.6528   81.0068 C   0  0  0  0  0  0  0  0  0  0  0  0
   -0.4681   70.8501   81.1875 C   0  0  0  0  0  0  0  0  0  0  0  0
   -1.0237   72.1320   81.1354 C   0  0  0  0  0  0  0  0  0  0  0  0
   -0.5122   75.4497   81.6779 O   0  0  0  0  0  0  0  0  0  0  0  0
   -0.7753   74.5933   80.8434 C   0  0  0  0  0  0  0  0  0  0  0  0
 38 39  2  0  0  0
 39 32  1  0  0  0
 32 33  1  0  0  0
 33 34  2  0  0  0
 34 35  1  0  0  0
 35 27  1  0  0  0
 27 28  2  0  0  0
 28 29  1  0  0  0
 29 30  2  0  0  0
 30  1  1  0  0  0
  1  2  2  0  0  0
  1  3  1  0  0  0
  3  4  1  0  0  0
  4  5  1  0  0  0
  5  6  1  0  0  0
  6  7  2  0  0  0
  7  8  1  0  0  0
  8  9  2  0  0  0
  9 10  1  0  0  0
 10 11  2  0  0  0
 11 12  1  0  0  0
 12 13  2  0  0  0
 13 14  1  0  0  0
 14 15  1  0  0  0
  6 16  1  0  0  0
 16 18  1  0  0  0
 18 19  1  0  0  0
 19 20  2  0  0  0
 20 21  1  0  0  0
 21 22  2  0  0  0
 22 23  1  0  0  0
 22 24  1  0  0  0
 24 25  1  0  0  0
 25 26  1  0  0  0
 30 31  1  0  0  0
 35 36  2  0  0  0
 36 37  1  0  0  0
 37 32  2  0  0  0
 31 27  1  0  0  0
 16  3  1  0  0  0
 23 18  2  0  0  0
 14  5  2  0  0  0
 26 21  1  0  0  0
 13  8  1  0  0  0
 15 17  1  0  0  0
M  END
> <minimizedAffinity>
-9.69248

$$$$



 39 45  0  0  0  0  0  0  0  0999 V2000
    0.4378   71.3089   81.2193 C   0  0  0  0  0  0  0  0  0  0  0  0
   -0.6748   71.4490   80.7035 O   0  0  0  0  0  0  0  0  0  0  0  0
    1.0716   72.4162   81.7577 N   0  0  0  0  0  0  0  0  0  0  0  0
    0.3526   73.6798   81.8416 C   0  0  0  0  0  0  0  0  0  0  0  0
    1.2643   74.5832   82.5917 C   0  0  0  0  0  0  0  0  0  0  0  0
    2.4607   73.9386   82.8680 C   0  0  0  0  0  0  0  0  0  0  0  0
    3.4817   74.4757   83.5627 N   0  0  0  0  0  0  0  0  0  0  0  0
    3.3241   75.7427   83.9869 C   0  0  0  0  0  0  0  0  0  0  0  0
    4.3590   76.3394   84.6940 C   0  0  0  0  0  0  0  0  0  0  0  0
    4.2697   77.6515   85.1674 C   0  0  0  0  0  0  0  0  0  0  0  0
    3.1199   78.3943   84.9331 C   0  0  0  0  0  0  0  0  0  0  0  0
    2.0641   77.8219   84.2263 C   0  0  0  0  0  0  0  0  0  0  0  0
    2.1476   76.4979   83.7451 C   0  0  0  0  0  0  0  0  0  0  0  0
    1.1035   75.8792   83.0290 C   0  0  0  0  0  0  0  0  0  0  0  0
   -0.0459   76.5800   82.7885 O   0  0  0  0  0  0  0  0  0  0  0  0
    2.4390   72.5237   82.3027 C   0  0  0  0  0  0  0  0  0  0  0  0
   -0.6812   76.0337   82.2995 H   0  0  0  0  0  0  0  0  0  0  0  0
    3.5277   72.3027   81.2627 C   0  0  0  0  0  0  0  0  0  0  0  0
    4.1135   71.0303   81.0438 C   0  0  0  0  0  0  0  0  0  0  0  0
    5.1134   70.8480   80.0822 C   0  0  0  0  0  0  0  0  0  0  0  0
    5.5040   71.9446   79.3472 C   0  0  0  0  0  0  0  0  0  0  0  0
    4.9363   73.1809   79.5364 C   0  0  0  0  0  0  0  0  0  0  0  0
    3.9477   73.3908   80.4740 C   0  0  0  0  0  0  0  0  0  0  0  0
    5.4593   74.1249   78.7090 O   0  0  0  0  0  0  0  0  0  0  0  0
    6.4088   73.3350   77.9647 C   0  0  0  0  0  0  0  0  0  0  0  0
    6.4560   71.9531   78.3763 O   0  0  0  0  0  0  0  0  0  0  0  0
    2.2066   68.3089   82.1099 C   0  0  0  0  0  0  0  0  0  0  0  0
    1.9318   67.9755   80.7994 C   0  0  0  0  0  0  0  0  0  0  0  0
    1.2000   69.0566   80.2523 C   0  0  0  0  0  0  0  0  0  0  0  0
    1.0912   70.0129   81.2450 C   0  0  0  0  0  0  0  0  0  0  0  0
    1.6768   69.5370   82.3844 O   0  0  0  0  0  0  0  0  0  0  0  0
    4.3022   66.3872   85.2982 C   0  0  0  0  0  0  0  0  0  0  0  0
    3.1990   65.7633   84.7135 C   0  0  0  0  0  0  0  0  0  0  0  0
    2.5144   66.3999   83.6719 C   0  0  0  0  0  0  0  0  0  0  0  0
    2.9232   67.6585   83.2025 C   0  0  0  0  0  0  0  0  0  0  0  0
    4.0335   68.2692   83.8070 C   0  0  0  0  0  0  0  0  0  0  0  0
    4.7216   67.6397   84.8487 C   0  0  0  0  0  0  0  0  0  0  0  0
    5.4739   64.5797   86.2818 O   0  0  0  0  0  0  0  0  0  0  0  0
    5.0209   65.7114   86.3968 C   0  0  0  0  0  0  0  0  0  0  0  0
 38 39  2  0  0  0
 39 32  1  0  0  0
 32 33  1  0  0  0
 33 34  2  0  0  0
 34 35  1  0  0  0
 35 27  1  0  0  0
 27 28  2  0  0  0
 28 29  1  0  0  0
 29 30  2  0  0  0
 30  1  1  0  0  0
  1  2  2  0  0  0
  1  3  1  0  0  0
  3  4  1  0  0  0
  4  5  1  0  0  0
  5  6  1  0  0  0
  6  7  2  0  0  0
  7  8  1  0  0  0
  8  9  2  0  0  0
  9 10  1  0  0  0
 10 11  2  0  0  0
 11 12  1  0  0  0
 12 13  2  0  0  0
 13 14  1  0  0  0
 14 15  1  0  0  0
  6 16  1  0  0  0
 16 18  1  0  0  0
 18 19  1  0  0  0
 19 20  2  0  0  0
 20 21  1  0  0  0
 21 22  2  0  0  0
 22 23  1  0  0  0
 22 24  1  0  0  0
 24 25  1  0  0  0
 25 26  1  0  0  0
 30 31  1  0  0  0
 35 36  2  0  0  0
 36 37  1  0  0  0
 37 32  2  0  0  0
 31 27  1  0  0  0
 16  3  1  0  0  0
 23 18  2  0  0  0
 14  5  2  0  0  0
 26 21  1  0  0  0
 13  8  1  0  0  0
 15 17  1  0  0  0
M  END
> <minimizedAffinity>
-9.44823

$$$$



 39 45  0  0  0  0  0  0  0  0999 V2000
    0.1819   71.3792   80.7753 C   0  0  0  0  0  0  0  0  0  0  0  0
   -0.8558   71.5951   80.1430 O   0  0  0  0  0  0  0  0  0  0  0  0
    0.8041   72.4334   81.4229 N   0  0  0  0  0  0  0  0  0  0  0  0
    0.1438   73.7305   81.4726 C   0  0  0  0  0  0  0  0  0  0  0  0
    1.0074   74.5595   82.3541 C   0  0  0  0  0  0  0  0  0  0  0  0
    2.1307   73.8433   82.7391 C   0  0  0  0  0  0  0  0  0  0  0  0
    3.0909   74.3027   83.5642 N   0  0  0  0  0  0  0  0  0  0  0  0
    2.9488   75.5623   84.0152 C   0  0  0  0  0  0  0  0  0  0  0  0
    3.9241   76.0799   84.8564 C   0  0  0  0  0  0  0  0  0  0  0  0
    3.8466   77.3793   85.3656 C   0  0  0  0  0  0  0  0  0  0  0  0
    2.7695   78.1897   85.0312 C   0  0  0  0  0  0  0  0  0  0  0  0
    1.7745   77.6974   84.1889 C   0  0  0  0  0  0  0  0  0  0  0  0
    1.8467   76.3867   83.6708 C   0  0  0  0  0  0  0  0  0  0  0  0
    0.8621   75.8478   82.8188 C   0  0  0  0  0  0  0  0  0  0  0  0
   -0.2160   76.6164   82.4767 O   0  0  0  0  0  0  0  0  0  0  0  0
    2.1037   72.4502   82.1224 C   0  0  0  0  0  0  0  0  0  0  0  0
   -0.8174   76.1207   81.8990 H   0  0  0  0  0  0  0  0  0  0  0  0
    3.2920   72.2041   81.2041 C   0  0  0  0  0  0  0  0  0  0  0  0
    3.9316   70.9415   81.1214 C   0  0  0  0  0  0  0  0  0  0  0  0
    5.0230   70.7359   80.2704 C   0  0  0  0  0  0  0  0  0  0  0  0
    5.4507   71.7989   79.5072 C   0  0  0  0  0  0  0  0  0  0  0  0
    4.8330   73.0243   79.5645 C   0  0  0  0  0  0  0  0  0  0  0  0
    3.7543   73.2565   80.3909 C   0  0  0  0  0  0  0  0  0  0  0  0
    5.4054   73.9341   78.7314 O   0  0  0  0  0  0  0  0  0  0  0  0
    6.4431   73.1336   78.1300 C   0  0  0  0  0  0  0  0  0  0  0  0
    6.4900   71.7813   78.6306 O   0  0  0  0  0  0  0  0  0  0  0  0
    1.2575   68.0725   81.6868 C   0  0  0  0  0  0  0  0  0  0  0  0
    1.8039   68.0986   80.4199 C   0  0  0  0  0  0  0  0  0  0  0  0
    1.4695   69.3556   79.8613 C   0  0  0  0  0  0  0  0  0  0  0  0
    0.7630   70.0500   80.8259 C   0  0  0  0  0  0  0  0  0  0  0  0
    0.6077   69.2500   81.9230 O   0  0  0  0  0  0  0  0  0  0  0  0
    1.2176   65.2438   84.8876 C   0  0  0  0  0  0  0  0  0  0  0  0
    1.9270   66.4382   85.0220 C   0  0  0  0  0  0  0  0  0  0  0  0
    1.9394   67.3592   83.9681 C   0  0  0  0  0  0  0  0  0  0  0  0
    1.2445   67.1008   82.7757 C   0  0  0  0  0  0  0  0  0  0  0  0
    0.5399   65.8918   82.6609 C   0  0  0  0  0  0  0  0  0  0  0  0
    0.5241   64.9667   83.7091 C   0  0  0  0  0  0  0  0  0  0  0  0
    0.5802   64.4745   87.0346 O   0  0  0  0  0  0  0  0  0  0  0  0
    1.2079   64.2755   86.0024 C   0  0  0  0  0  0  0  0  0  0  0  0
 38 39  2  0  0  0
 39 32  1  0  0  0
 32 33  1  0  0  0
 33 34  2  0  0  0
 34 35  1  0  0  0
 35 27  1  0  0  0
 27 28  2  0  0  0
 28 29  1  0  0  0
 29 30  2  0  0  0
 30  1  1  0  0  0
  1  2  2  0  0  0
  1  3  1  0  0  0
  3  4  1  0  0  0
  4  5  1  0  0  0
  5  6  1  0  0  0
  6  7  2  0  0  0
  7  8  1  0  0  0
  8  9  2  0  0  0
  9 10  1  0  0  0
 10 11  2  0  0  0
 11 12  1  0  0  0
 12 13  2  0  0  0
 13 14  1  0  0  0
 14 15  1  0  0  0
  6 16  1  0  0  0
 16 18  1  0  0  0
 18 19  1  0  0  0
 19 20  2  0  0  0
 20 21  1  0  0  0
 21 22  2  0  0  0
 22 23  1  0  0  0
 22 24  1  0  0  0
 24 25  1  0  0  0
 25 26  1  0  0  0
 30 31  1  0  0  0
 35 36  2  0  0  0
 36 37  1  0  0  0
 37 32  2  0  0  0
 31 27  1  0  0  0
 16  3  1  0  0  0
 23 18  2  0  0  0
 14  5  2  0  0  0
 26 21  1  0  0  0
 13  8  1  0  0  0
 15 17  1  0  0  0
M  END
> <minimizedAffinity>
-9.22955

$$$$



 39 45  0  0  0  0  0  0  0  0999 V2000
    2.5763   66.6176   82.9230 C   0  0  0  0  0  0  0  0  0  0  0  0
    3.7334   66.8902   83.2552 O   0  0  0  0  0  0  0  0  0  0  0  0
    1.8302   65.7705   83.7253 N   0  0  0  0  0  0  0  0  0  0  0  0
    2.3678   65.3476   85.0110 C   0  0  0  0  0  0  0  0  0  0  0  0
    1.2618   64.5873   85.6503 C   0  0  0  0  0  0  0  0  0  0  0  0
    0.1787   64.4971   84.7889 C   0  0  0  0  0  0  0  0  0  0  0  0
   -0.9915   63.8994   85.0837 N   0  0  0  0  0  0  0  0  0  0  0  0
   -1.0891   63.3267   86.2972 C   0  0  0  0  0  0  0  0  0  0  0  0
   -2.2734   62.6867   86.6357 C   0  0  0  0  0  0  0  0  0  0  0  0
   -2.4506   62.0690   87.8770 C   0  0  0  0  0  0  0  0  0  0  0  0
   -1.4229   62.0866   88.8109 C   0  0  0  0  0  0  0  0  0  0  0  0
   -0.2222   62.7218   88.4996 C   0  0  0  0  0  0  0  0  0  0  0  0
   -0.0364   63.3470   87.2482 C   0  0  0  0  0  0  0  0  0  0  0  0
    1.1593   64.0028   86.8931 C   0  0  0  0  0  0  0  0  0  0  0  0
    2.1880   64.0459   87.7930 O   0  0  0  0  0  0  0  0  0  0  0  0
    0.4913   65.2022   83.4747 C   0  0  0  0  0  0  0  0  0  0  0  0
    2.9410   64.5351   87.4256 H   0  0  0  0  0  0  0  0  0  0  0  0
    0.4464   64.2521   82.2868 C   0  0  0  0  0  0  0  0  0  0  0  0
    0.9278   62.9210   82.3679 C   0  0  0  0  0  0  0  0  0  0  0  0
    0.8773   62.0631   81.2639 C   0  0  0  0  0  0  0  0  0  0  0  0
    0.3348   62.5511   80.0965 C   0  0  0  0  0  0  0  0  0  0  0  0
   -0.1496   63.8332   80.0054 C   0  0  0  0  0  0  0  0  0  0  0  0
   -0.1158   64.7006   81.0764 C   0  0  0  0  0  0  0  0  0  0  0  0
   -0.6447   64.1151   78.7706 O   0  0  0  0  0  0  0  0  0  0  0  0
   -0.4323   62.8558   78.1010 C   0  0  0  0  0  0  0  0  0  0  0  0
    0.2057   61.8629   78.9309 O   0  0  0  0  0  0  0  0  0  0  0  0
    0.8259   68.5297   80.4327 C   0  0  0  0  0  0  0  0  0  0  0  0
    1.3926   67.6012   79.5837 C   0  0  0  0  0  0  0  0  0  0  0  0
    2.1639   66.7321   80.3922 C   0  0  0  0  0  0  0  0  0  0  0  0
    2.0049   67.1514   81.7001 C   0  0  0  0  0  0  0  0  0  0  0  0
    1.2162   68.2674   81.7146 O   0  0  0  0  0  0  0  0  0  0  0  0
   -1.8148   71.8461   79.9066 C   0  0  0  0  0  0  0  0  0  0  0  0
   -2.0135   70.6743   79.1750 C   0  0  0  0  0  0  0  0  0  0  0  0
   -1.1425   69.5926   79.3491 C   0  0  0  0  0  0  0  0  0  0  0  0
   -0.0709   69.6672   80.2533 C   0  0  0  0  0  0  0  0  0  0  0  0
    0.1121   70.8565   80.9767 C   0  0  0  0  0  0  0  0  0  0  0  0
   -0.7533   71.9414   80.8071 C   0  0  0  0  0  0  0  0  0  0  0  0
   -3.1147   73.3425   78.6110 O   0  0  0  0  0  0  0  0  0  0  0  0
   -2.7366   72.9844   79.7190 C   0  0  0  0  0  0  0  0  0  0  0  0
 38 39  2  0  0  0
 39 32  1  0  0  0
 32 33  1  0  0  0
 33 34  2  0  0  0
 34 35  1  0  0  0
 35 27  1  0  0  0
 27 28  2  0  0  0
 28 29  1  0  0  0
 29 30  2  0  0  0
 30  1  1  0  0  0
  1  2  2  0  0  0
  1  3  1  0  0  0
  3  4  1  0  0  0
  4  5  1  0  0  0
  5  6  1  0  0  0
  6  7  2  0  0  0
  7  8  1  0  0  0
  8  9  2  0  0  0
  9 10  1  0  0  0
 10 11  2  0  0  0
 11 12  1  0  0  0
 12 13  2  0  0  0
 13 14  1  0  0  0
 14 15  1  0  0  0
  6 16  1  0  0  0
 16 18  1  0  0  0
 18 19  1  0  0  0
 19 20  2  0  0  0
 20 21  1  0  0  0
 21 22  2  0  0  0
 22 23  1  0  0  0
 22 24  1  0  0  0
 24 25  1  0  0  0
 25 26  1  0  0  0
 30 31  1  0  0  0
 35 36  2  0  0  0
 36 37  1  0  0  0
 37 32  2  0  0  0
 31 27  1  0  0  0
 16  3  1  0  0  0
 23 18  2  0  0  0
 14  5  2  0  0  0
 26 21  1  0  0  0
 13  8  1  0  0  0
 15 17  1  0  0  0
M  END
> <minimizedAffinity>
-9.03041

$$$$



 39 45  0  0  0  0  0  0  0  0999 V2000
    2.2692   69.4333   79.3363 C   0  0  0  0  0  0  0  0  0  0  0  0
    2.7986   69.3270   78.2264 O   0  0  0  0  0  0  0  0  0  0  0  0
    2.7105   70.4240   80.1975 N   0  0  0  0  0  0  0  0  0  0  0  0
    3.6729   71.4076   79.7210 C   0  0  0  0  0  0  0  0  0  0  0  0
    3.8002   72.3817   80.8367 C   0  0  0  0  0  0  0  0  0  0  0  0
    3.0361   71.9751   81.9203 C   0  0  0  0  0  0  0  0  0  0  0  0
    2.9124   72.6582   83.0743 N   0  0  0  0  0  0  0  0  0  0  0  0
    3.6123   73.8026   83.1776 C   0  0  0  0  0  0  0  0  0  0  0  0
    3.5246   74.5299   84.3567 C   0  0  0  0  0  0  0  0  0  0  0  0
    4.2214   75.7278   84.5391 C   0  0  0  0  0  0  0  0  0  0  0  0
    5.0291   76.2196   83.5220 C   0  0  0  0  0  0  0  0  0  0  0  0
    5.1367   75.5114   82.3266 C   0  0  0  0  0  0  0  0  0  0  0  0
    4.4363   74.3011   82.1358 C   0  0  0  0  0  0  0  0  0  0  0  0
    4.5139   73.5548   80.9431 C   0  0  0  0  0  0  0  0  0  0  0  0
    5.2935   74.0154   79.9184 O   0  0  0  0  0  0  0  0  0  0  0  0
    2.3296   70.6628   81.6033 C   0  0  0  0  0  0  0  0  0  0  0  0
    5.2463   73.4143   79.1584 H   0  0  0  0  0  0  0  0  0  0  0  0
    2.7465   69.5426   82.5453 C   0  0  0  0  0  0  0  0  0  0  0  0
    4.0903   69.3703   82.9631 C   0  0  0  0  0  0  0  0  0  0  0  0
    4.4529   68.3336   83.8299 C   0  0  0  0  0  0  0  0  0  0  0  0
    3.4589   67.4903   84.2727 C   0  0  0  0  0  0  0  0  0  0  0  0
    2.1499   67.6523   83.8894 C   0  0  0  0  0  0  0  0  0  0  0  0
    1.7618   68.6654   83.0388 C   0  0  0  0  0  0  0  0  0  0  0  0
    1.3280   66.7193   84.4400 O   0  0  0  0  0  0  0  0  0  0  0  0
    2.2688   65.9628   85.2286 C   0  0  0  0  0  0  0  0  0  0  0  0
    3.6272   66.4351   85.1137 O   0  0  0  0  0  0  0  0  0  0  0  0
    0.3191   66.6214   80.4372 C   0  0  0  0  0  0  0  0  0  0  0  0
   -0.7120   67.5342   80.3492 C   0  0  0  0  0  0  0  0  0  0  0  0
   -0.1344   68.7572   79.9311 C   0  0  0  0  0  0  0  0  0  0  0  0
    1.2167   68.5242   79.7520 C   0  0  0  0  0  0  0  0  0  0  0  0
    1.4923   67.2303   80.0948 O   0  0  0  0  0  0  0  0  0  0  0  0
    0.5638   62.4866   81.4825 C   0  0  0  0  0  0  0  0  0  0  0  0
    0.6447   63.4627   82.4768 C   0  0  0  0  0  0  0  0  0  0  0  0
    0.5677   64.8159   82.1274 C   0  0  0  0  0  0  0  0  0  0  0  0
    0.4067   65.2075   80.7887 C   0  0  0  0  0  0  0  0  0  0  0  0
    0.3307   64.2092   79.8044 C   0  0  0  0  0  0  0  0  0  0  0  0
    0.4079   62.8556   80.1460 C   0  0  0  0  0  0  0  0  0  0  0  0
    1.7050   60.5234   82.1541 O   0  0  0  0  0  0  0  0  0  0  0  0
    0.6457   61.0605   81.8565 C   0  0  0  0  0  0  0  0  0  0  0  0
 38 39  2  0  0  0
 39 32  1  0  0  0
 32 33  1  0  0  0
 33 34  2  0  0  0
 34 35  1  0  0  0
 35 27  1  0  0  0
 27 28  2  0  0  0
 28 29  1  0  0  0
 29 30  2  0  0  0
 30  1  1  0  0  0
  1  2  2  0  0  0
  1  3  1  0  0  0
  3  4  1  0  0  0
  4  5  1  0  0  0
  5  6  1  0  0  0
  6  7  2  0  0  0
  7  8  1  0  0  0
  8  9  2  0  0  0
  9 10  1  0  0  0
 10 11  2  0  0  0
 11 12  1  0  0  0
 12 13  2  0  0  0
 13 14  1  0  0  0
 14 15  1  0  0  0
  6 16  1  0  0  0
 16 18  1  0  0  0
 18 19  1  0  0  0
 19 20  2  0  0  0
 20 21  1  0  0  0
 21 22  2  0  0  0
 22 23  1  0  0  0
 22 24  1  0  0  0
 24 25  1  0  0  0
 25 26  1  0  0  0
 30 31  1  0  0  0
 35 36  2  0  0  0
 36 37  1  0  0  0
 37 32  2  0  0  0
 31 27  1  0  0  0
 16  3  1  0  0  0
 23 18  2  0  0  0
 14  5  2  0  0  0
 26 21  1  0  0  0
 13  8  1  0  0  0
 15 17  1  0  0  0
M  END
> <minimizedAffinity>
-9.00105

$$$$



 39 45  0  0  0  0  0  0  0  0999 V2000
    1.5461   66.3319   80.0548 C   0  0  0  0  0  0  0  0  0  0  0  0
    2.0111   65.9907   78.9635 O   0  0  0  0  0  0  0  0  0  0  0  0
    1.9228   67.5513   80.5924 N   0  0  0  0  0  0  0  0  0  0  0  0
    2.7299   68.4643   79.7951 C   0  0  0  0  0  0  0  0  0  0  0  0
    2.8140   69.7040   80.6113 C   0  0  0  0  0  0  0  0  0  0  0  0
    2.1751   69.5230   81.8288 C   0  0  0  0  0  0  0  0  0  0  0  0
    2.0472   70.4689   82.7789 N   0  0  0  0  0  0  0  0  0  0  0  0
    2.6129   71.6626   82.5237 C   0  0  0  0  0  0  0  0  0  0  0  0
    2.5171   72.6610   83.4833 C   0  0  0  0  0  0  0  0  0  0  0  0
    3.0787   73.9266   83.2911 C   0  0  0  0  0  0  0  0  0  0  0  0
    3.7551   74.2109   82.1120 C   0  0  0  0  0  0  0  0  0  0  0  0
    3.8673   73.2285   81.1300 C   0  0  0  0  0  0  0  0  0  0  0  0
    3.3032   71.9486   81.3176 C   0  0  0  0  0  0  0  0  0  0  0  0
    3.3903   70.9274   80.3506 C   0  0  0  0  0  0  0  0  0  0  0  0
    4.0421   71.1772   79.1747 O   0  0  0  0  0  0  0  0  0  0  0  0
    1.6087   68.1115   81.9213 C   0  0  0  0  0  0  0  0  0  0  0  0
    4.0166   70.3965   78.5993 H   0  0  0  0  0  0  0  0  0  0  0  0
    2.2146   67.3225   83.0729 C   0  0  0  0  0  0  0  0  0  0  0  0
    1.4148   66.7182   84.0755 C   0  0  0  0  0  0  0  0  0  0  0  0
    1.9917   65.9967   85.1262 C   0  0  0  0  0  0  0  0  0  0  0  0
    3.3636   65.8839   85.1498 C   0  0  0  0  0  0  0  0  0  0  0  0
    4.1520   66.4505   84.1783 C   0  0  0  0  0  0  0  0  0  0  0  0
    3.6126   67.1648   83.1298 C   0  0  0  0  0  0  0  0  0  0  0  0
    5.4763   66.2196   84.3837 O   0  0  0  0  0  0  0  0  0  0  0  0
    5.4282   65.4264   85.5870 C   0  0  0  0  0  0  0  0  0  0  0  0
    4.0912   65.2239   86.0899 O   0  0  0  0  0  0  0  0  0  0  0  0
   -0.7660   63.7834   81.0943 C   0  0  0  0  0  0  0  0  0  0  0  0
   -0.6350   64.4177   82.3128 C   0  0  0  0  0  0  0  0  0  0  0  0
    0.2789   65.4812   82.1185 C   0  0  0  0  0  0  0  0  0  0  0  0
    0.6370   65.4658   80.7831 C   0  0  0  0  0  0  0  0  0  0  0  0
    0.0235   64.4084   80.1722 O   0  0  0  0  0  0  0  0  0  0  0  0
   -3.0667   60.4753   79.6755 C   0  0  0  0  0  0  0  0  0  0  0  0
   -3.6199   61.3641   80.5986 C   0  0  0  0  0  0  0  0  0  0  0  0
   -2.8596   62.4437   81.0625 C   0  0  0  0  0  0  0  0  0  0  0  0
   -1.5464   62.6490   80.6100 C   0  0  0  0  0  0  0  0  0  0  0  0
   -1.0087   61.7411   79.6837 C   0  0  0  0  0  0  0  0  0  0  0  0
   -1.7620   60.6598   79.2168 C   0  0  0  0  0  0  0  0  0  0  0  0
   -3.8848   58.2547   79.7602 O   0  0  0  0  0  0  0  0  0  0  0  0
   -3.8730   59.3379   79.1895 C   0  0  0  0  0  0  0  0  0  0  0  0
 38 39  2  0  0  0
 39 32  1  0  0  0
 32 33  1  0  0  0
 33 34  2  0  0  0
 34 35  1  0  0  0
 35 27  1  0  0  0
 27 28  2  0  0  0
 28 29  1  0  0  0
 29 30  2  0  0  0
 30  1  1  0  0  0
  1  2  2  0  0  0
  1  3  1  0  0  0
  3  4  1  0  0  0
  4  5  1  0  0  0
  5  6  1  0  0  0
  6  7  2  0  0  0
  7  8  1  0  0  0
  8  9  2  0  0  0
  9 10  1  0  0  0
 10 11  2  0  0  0
 11 12  1  0  0  0
 12 13  2  0  0  0
 13 14  1  0  0  0
 14 15  1  0  0  0
  6 16  1  0  0  0
 16 18  1  0  0  0
 18 19  1  0  0  0
 19 20  2  0  0  0
 20 21  1  0  0  0
 21 22  2  0  0  0
 22 23  1  0  0  0
 22 24  1  0  0  0
 24 25  1  0  0  0
 25 26  1  0  0  0
 30 31  1  0  0  0
 35 36  2  0  0  0
 36 37  1  0  0  0
 37 32  2  0  0  0
 31 27  1  0  0  0
 16  3  1  0  0  0
 23 18  2  0  0  0
 14  5  2  0  0  0
 26 21  1  0  0  0
 13  8  1  0  0  0
 15 17  1  0  0  0
M  END
> <minimizedAffinity>
-8.96842

$$$$
