


 30 32  0  0  0  0  0  0  0  0999 V2000
   -0.2457   63.1667   85.1235 C   0  0  0  0  0  0  0  0  0  0  0  0
    0.3999   64.0613   85.9883 C   0  0  0  0  0  0  0  0  0  0  0  0
    1.0037   65.2240   85.5012 C   0  0  0  0  0  0  0  0  0  0  0  0
    0.9802   65.5191   84.1372 C   0  0  0  0  0  0  0  0  0  0  0  0
    0.3420   64.6262   83.2675 C   0  0  0  0  0  0  0  0  0  0  0  0
   -0.2743   63.4492   83.7406 C   0  0  0  0  0  0  0  0  0  0  0  0
   -0.9366   62.5732   82.7067 C   0  0  0  0  0  0  0  0  0  0  0  0
   -0.7999   62.8578   81.4381 N   0  0  0  0  0  0  0  0  0  0  0  0
   -1.4549   61.9724   80.5808 C   0  0  0  0  0  0  0  0  0  0  0  0
   -1.5232   61.9611   79.1781 C   0  0  0  0  0  0  0  0  0  0  0  0
   -2.2639   60.9217   78.7481 N   0  0  0  0  0  0  0  0  0  0  0  0
   -2.6495   60.2977   79.8892 N   0  0  0  0  0  0  0  0  0  0  0  0
   -3.4747   59.1159   79.8203 C   0  0  0  0  0  0  0  0  0  0  0  0
   -2.1790   60.9025   81.0118 C   0  0  0  0  0  0  0  0  0  0  0  0
   -2.3366   60.5878   82.3830 C   0  0  0  0  0  0  0  0  0  0  0  0
   -2.9805   59.6488   82.8354 O   0  0  0  0  0  0  0  0  0  0  0  0
   -1.6650   61.4861   83.1793 N   0  0  0  0  0  0  0  0  0  0  0  0
   -1.7430   61.3340   84.1766 H   0  0  0  0  0  0  0  0  0  0  0  0
   -0.9039   62.9088   78.2127 C   0  0  0  0  0  0  0  0  0  0  0  0
    0.5985   62.7069   78.0877 C   0  0  0  0  0  0  0  0  0  0  0  0
   -0.8548   62.0143   85.5529 O   0  0  0  0  0  0  0  0  0  0  0  0
   -2.7180   62.5454   86.9368 C   0  0  0  0  0  0  0  0  0  0  0  0
   -1.3190   61.9565   86.9036 C   0  0  0  0  0  0  0  0  0  0  0  0
    1.6198   66.7813   83.6148 C   0  0  0  0  0  0  0  0  0  0  0  0
    2.8819   67.1428   84.3689 C   0  0  0  0  0  0  0  0  0  0  0  0
    3.9306   66.5054   84.2779 O   0  0  0  0  0  0  0  0  0  0  0  0
    2.7649   68.2513   85.1797 N   0  0  0  0  0  0  0  0  0  0  0  0
    3.8987   68.5064   85.9920 O   0  0  0  0  0  0  0  0  0  0  0  0
    1.8695   68.4937   85.5941 H   0  0  0  0  0  0  0  0  0  0  0  0
    4.5290   67.8089   85.7054 H   0  0  0  0  0  0  0  0  0  0  0  0
 22 23  1  0  0  0
 23 21  1  0  0  0
 21  1  1  0  0  0
  1  2  1  0  0  0
  2  3  2  0  0  0
  3  4  1  0  0  0
  4 24  1  0  0  0
 24 25  1  0  0  0
 25 26  2  0  0  0
 25 27  1  0  0  0
 27 28  1  0  0  0
  4  5  2  0  0  0
  5  6  1  0  0  0
  6  7  1  0  0  0
  7  8  2  0  0  0
  8  9  1  0  0  0
  9 10  1  0  0  0
 10 19  1  0  0  0
 19 20  1  0  0  0
 10 11  2  0  0  0
 11 12  1  0  0  0
 12 13  1  0  0  0
 12 14  1  0  0  0
 14 15  1  0  0  0
 15 16  2  0  0  0
 15 17  1  0  0  0
  6  1  2  0  0  0
 17  7  1  0  0  0
 14  9  2  0  0  0
 27 29  1  0  0  0
 28 30  1  0  0  0
 17 18  1  0  0  0
M  END
> <minimizedAffinity>
-10.08187

$$$$



 30 32  0  0  0  0  0  0  0  0999 V2000
    3.6407   66.3686   84.8037 C   0  0  0  0  0  0  0  0  0  0  0  0
    4.4672   67.3786   84.2923 C   0  0  0  0  0  0  0  0  0  0  0  0
    4.0079   68.2515   83.3019 C   0  0  0  0  0  0  0  0  0  0  0  0
    2.7125   68.1338   82.7958 C   0  0  0  0  0  0  0  0  0  0  0  0
    1.8841   67.1228   83.2985 C   0  0  0  0  0  0  0  0  0  0  0  0
    2.3291   66.2340   84.2989 C   0  0  0  0  0  0  0  0  0  0  0  0
    1.3406   65.1943   84.7645 C   0  0  0  0  0  0  0  0  0  0  0  0
    0.8075   64.3770   83.8946 N   0  0  0  0  0  0  0  0  0  0  0  0
   -0.0872   63.4594   84.4475 C   0  0  0  0  0  0  0  0  0  0  0  0
   -0.8327   62.4429   83.8283 C   0  0  0  0  0  0  0  0  0  0  0  0
   -1.5759   61.7807   84.7354 N   0  0  0  0  0  0  0  0  0  0  0  0
   -1.2851   62.3936   85.9101 N   0  0  0  0  0  0  0  0  0  0  0  0
   -1.9095   61.9442   87.1309 C   0  0  0  0  0  0  0  0  0  0  0  0
   -0.3908   63.4081   85.7741 C   0  0  0  0  0  0  0  0  0  0  0  0
    0.1778   64.2908   86.7236 C   0  0  0  0  0  0  0  0  0  0  0  0
   -0.0596   64.3033   87.9256 O   0  0  0  0  0  0  0  0  0  0  0  0
    1.0555   65.1651   86.1260 N   0  0  0  0  0  0  0  0  0  0  0  0
    1.4927   65.8390   86.7414 H   0  0  0  0  0  0  0  0  0  0  0  0
   -0.8688   62.0660   82.3895 C   0  0  0  0  0  0  0  0  0  0  0  0
    0.3785   61.3097   81.9586 C   0  0  0  0  0  0  0  0  0  0  0  0
    4.0439   65.4892   85.7772 O   0  0  0  0  0  0  0  0  0  0  0  0
    5.8487   65.4398   87.3293 C   0  0  0  0  0  0  0  0  0  0  0  0
    5.4383   65.1948   85.8883 C   0  0  0  0  0  0  0  0  0  0  0  0
    2.2135   69.0855   81.7373 C   0  0  0  0  0  0  0  0  0  0  0  0
    1.6014   70.3371   82.3297 C   0  0  0  0  0  0  0  0  0  0  0  0
    0.4449   70.6950   82.1083 O   0  0  0  0  0  0  0  0  0  0  0  0
    2.4498   71.0580   83.1424 N   0  0  0  0  0  0  0  0  0  0  0  0
    1.9263   72.3001   83.5824 O   0  0  0  0  0  0  0  0  0  0  0  0
    3.4531   71.0407   82.9833 H   0  0  0  0  0  0  0  0  0  0  0  0
    1.0175   72.2942   83.2082 H   0  0  0  0  0  0  0  0  0  0  0  0
 22 23  1  0  0  0
 23 21  1  0  0  0
 21  1  1  0  0  0
  1  2  1  0  0  0
  2  3  2  0  0  0
  3  4  1  0  0  0
  4 24  1  0  0  0
 24 25  1  0  0  0
 25 26  2  0  0  0
 25 27  1  0  0  0
 27 28  1  0  0  0
  4  5  2  0  0  0
  5  6  1  0  0  0
  6  7  1  0  0  0
  7  8  2  0  0  0
  8  9  1  0  0  0
  9 10  1  0  0  0
 10 19  1  0  0  0
 19 20  1  0  0  0
 10 11  2  0  0  0
 11 12  1  0  0  0
 12 13  1  0  0  0
 12 14  1  0  0  0
 14 15  1  0  0  0
 15 16  2  0  0  0
 15 17  1  0  0  0
  6  1  2  0  0  0
 17  7  1  0  0  0
 14  9  2  0  0  0
 27 29  1  0  0  0
 28 30  1  0  0  0
 17 18  1  0  0  0
M  END
> <minimizedAffinity>
-9.90012

$$$$



 30 32  0  0  0  0  0  0  0  0999 V2000
    3.6231   66.3647   84.7489 C   0  0  0  0  0  0  0  0  0  0  0  0
    4.4160   67.4161   84.2684 C   0  0  0  0  0  0  0  0  0  0  0  0
    3.8822   68.3905   83.4204 C   0  0  0  0  0  0  0  0  0  0  0  0
    2.5437   68.3358   83.0288 C   0  0  0  0  0  0  0  0  0  0  0  0
    1.7480   67.2845   83.5005 C   0  0  0  0  0  0  0  0  0  0  0  0
    2.2683   66.2933   84.3583 C   0  0  0  0  0  0  0  0  0  0  0  0
    1.3093   65.2184   84.8055 C   0  0  0  0  0  0  0  0  0  0  0  0
    0.7958   64.4045   83.9208 N   0  0  0  0  0  0  0  0  0  0  0  0
   -0.0724   63.4524   84.4574 C   0  0  0  0  0  0  0  0  0  0  0  0
   -0.7921   62.4287   83.8199 C   0  0  0  0  0  0  0  0  0  0  0  0
   -1.5148   61.7290   84.7154 N   0  0  0  0  0  0  0  0  0  0  0  0
   -1.2373   62.3263   85.9013 N   0  0  0  0  0  0  0  0  0  0  0  0
   -1.8461   61.8364   87.1144 C   0  0  0  0  0  0  0  0  0  0  0  0
   -0.3709   63.3669   85.7834 C   0  0  0  0  0  0  0  0  0  0  0  0
    0.1765   64.2457   86.7489 C   0  0  0  0  0  0  0  0  0  0  0  0
   -0.0578   64.2281   87.9514 O   0  0  0  0  0  0  0  0  0  0  0  0
    1.0288   65.1549   86.1667 N   0  0  0  0  0  0  0  0  0  0  0  0
    1.4495   65.8279   86.7943 H   0  0  0  0  0  0  0  0  0  0  0  0
   -0.8221   62.0793   82.3740 C   0  0  0  0  0  0  0  0  0  0  0  0
    0.4491   61.3768   81.9226 C   0  0  0  0  0  0  0  0  0  0  0  0
    4.0994   65.3860   85.5848 O   0  0  0  0  0  0  0  0  0  0  0  0
    5.7825   65.5738   87.2583 C   0  0  0  0  0  0  0  0  0  0  0  0
    5.5114   65.2990   85.7900 C   0  0  0  0  0  0  0  0  0  0  0  0
    1.9653   69.3960   82.1250 C   0  0  0  0  0  0  0  0  0  0  0  0
    1.3834   68.8151   80.8538 C   0  0  0  0  0  0  0  0  0  0  0  0
    2.0366   68.1442   80.0553 O   0  0  0  0  0  0  0  0  0  0  0  0
    0.0503   69.1023   80.6528 N   0  0  0  0  0  0  0  0  0  0  0  0
   -0.4581   68.6810   79.3980 O   0  0  0  0  0  0  0  0  0  0  0  0
   -0.3524   69.9601   81.0195 H   0  0  0  0  0  0  0  0  0  0  0  0
    0.3125   68.2200   78.9985 H   0  0  0  0  0  0  0  0  0  0  0  0
 22 23  1  0  0  0
 23 21  1  0  0  0
 21  1  1  0  0  0
  1  2  1  0  0  0
  2  3  2  0  0  0
  3  4  1  0  0  0
  4 24  1  0  0  0
 24 25  1  0  0  0
 25 26  2  0  0  0
 25 27  1  0  0  0
 27 28  1  0  0  0
  4  5  2  0  0  0
  5  6  1  0  0  0
  6  7  1  0  0  0
  7  8  2  0  0  0
  8  9  1  0  0  0
  9 10  1  0  0  0
 10 19  1  0  0  0
 19 20  1  0  0  0
 10 11  2  0  0  0
 11 12  1  0  0  0
 12 13  1  0  0  0
 12 14  1  0  0  0
 14 15  1  0  0  0
 15 16  2  0  0  0
 15 17  1  0  0  0
  6  1  2  0  0  0
 17  7  1  0  0  0
 14  9  2  0  0  0
 27 29  1  0  0  0
 28 30  1  0  0  0
 17 18  1  0  0  0
M  END
> <minimizedAffinity>
-9.65375

$$$$



 30 32  0  0  0  0  0  0  0  0999 V2000
    1.6272   67.4759   82.4798 C   0  0  0  0  0  0  0  0  0  0  0  0
    2.5056   68.5635   82.5816 C   0  0  0  0  0  0  0  0  0  0  0  0
    3.4995   68.5963   83.5639 C   0  0  0  0  0  0  0  0  0  0  0  0
    3.6372   67.5443   84.4708 C   0  0  0  0  0  0  0  0  0  0  0  0
    2.7588   66.4577   84.3780 C   0  0  0  0  0  0  0  0  0  0  0  0
    1.7511   66.4060   83.3925 C   0  0  0  0  0  0  0  0  0  0  0  0
    0.8743   65.1788   83.3894 C   0  0  0  0  0  0  0  0  0  0  0  0
    0.3783   64.7385   84.5159 N   0  0  0  0  0  0  0  0  0  0  0  0
   -0.4190   63.6007   84.3824 C   0  0  0  0  0  0  0  0  0  0  0  0
   -1.1101   62.8653   85.3591 C   0  0  0  0  0  0  0  0  0  0  0  0
   -1.7656   61.8312   84.7980 N   0  0  0  0  0  0  0  0  0  0  0  0
   -1.4740   61.9341   83.4772 N   0  0  0  0  0  0  0  0  0  0  0  0
   -2.0132   60.9749   82.5437 C   0  0  0  0  0  0  0  0  0  0  0  0
   -0.6666   62.9894   83.1909 C   0  0  0  0  0  0  0  0  0  0  0  0
   -0.1314   63.4557   81.9661 C   0  0  0  0  0  0  0  0  0  0  0  0
   -0.3073   62.9476   80.8652 O   0  0  0  0  0  0  0  0  0  0  0  0
    0.6370   64.5807   82.1559 N   0  0  0  0  0  0  0  0  0  0  0  0
    1.0666   64.9654   81.3244 H   0  0  0  0  0  0  0  0  0  0  0  0
   -1.1777   63.1072   86.8255 C   0  0  0  0  0  0  0  0  0  0  0  0
   -2.5958   62.9983   87.3645 C   0  0  0  0  0  0  0  0  0  0  0  0
    0.6377   67.3958   81.5322 O   0  0  0  0  0  0  0  0  0  0  0  0
    1.7361   66.5897   79.5797 C   0  0  0  0  0  0  0  0  0  0  0  0
    0.9606   67.7463   80.1846 C   0  0  0  0  0  0  0  0  0  0  0  0
    4.7193   67.5744   85.5212 C   0  0  0  0  0  0  0  0  0  0  0  0
    5.3064   66.2037   85.7835 C   0  0  0  0  0  0  0  0  0  0  0  0
    6.0660   65.6319   85.0021 O   0  0  0  0  0  0  0  0  0  0  0  0
    4.9168   65.6346   86.9769 N   0  0  0  0  0  0  0  0  0  0  0  0
    5.3504   64.2968   87.1583 O   0  0  0  0  0  0  0  0  0  0  0  0
    4.0121   65.8573   87.3824 H   0  0  0  0  0  0  0  0  0  0  0  0
    5.8928   64.1365   86.3545 H   0  0  0  0  0  0  0  0  0  0  0  0
 22 23  1  0  0  0
 23 21  1  0  0  0
 21  1  1  0  0  0
  1  2  1  0  0  0
  2  3  2  0  0  0
  3  4  1  0  0  0
  4 24  1  0  0  0
 24 25  1  0  0  0
 25 26  2  0  0  0
 25 27  1  0  0  0
 27 28  1  0  0  0
  4  5  2  0  0  0
  5  6  1  0  0  0
  6  7  1  0  0  0
  7  8  2  0  0  0
  8  9  1  0  0  0
  9 10  1  0  0  0
 10 19  1  0  0  0
 19 20  1  0  0  0
 10 11  2  0  0  0
 11 12  1  0  0  0
 12 13  1  0  0  0
 12 14  1  0  0  0
 14 15  1  0  0  0
 15 16  2  0  0  0
 15 17  1  0  0  0
  6  1  2  0  0  0
 17  7  1  0  0  0
 14  9  2  0  0  0
 27 29  1  0  0  0
 28 30  1  0  0  0
 17 18  1  0  0  0
M  END
> <minimizedAffinity>
-9.63900

$$$$



 30 32  0  0  0  0  0  0  0  0999 V2000
    1.8272   67.3506   82.6982 C   0  0  0  0  0  0  0  0  0  0  0  0
    2.7811   68.3712   82.8145 C   0  0  0  0  0  0  0  0  0  0  0  0
    3.8443   68.2633   83.7154 C   0  0  0  0  0  0  0  0  0  0  0  0
    3.9779   67.1341   84.5249 C   0  0  0  0  0  0  0  0  0  0  0  0
    3.0248   66.1139   84.4177 C   0  0  0  0  0  0  0  0  0  0  0  0
    1.9464   66.2041   83.5132 C   0  0  0  0  0  0  0  0  0  0  0  0
    0.9921   65.0364   83.4842 C   0  0  0  0  0  0  0  0  0  0  0  0
    0.4645   64.6077   84.6007 N   0  0  0  0  0  0  0  0  0  0  0  0
   -0.4042   63.5266   84.4433 C   0  0  0  0  0  0  0  0  0  0  0  0
   -1.1451   62.8189   85.4038 C   0  0  0  0  0  0  0  0  0  0  0  0
   -1.8639   61.8403   84.8212 N   0  0  0  0  0  0  0  0  0  0  0  0
   -1.5613   61.9493   83.5034 N   0  0  0  0  0  0  0  0  0  0  0  0
   -2.1578   61.0450   82.5502 C   0  0  0  0  0  0  0  0  0  0  0  0
   -0.6863   62.9554   83.2396 C   0  0  0  0  0  0  0  0  0  0  0  0
   -0.1174   63.4094   82.0254 C   0  0  0  0  0  0  0  0  0  0  0  0
   -0.3217   62.9348   80.9144 O   0  0  0  0  0  0  0  0  0  0  0  0
    0.7214   64.4785   82.2388 N   0  0  0  0  0  0  0  0  0  0  0  0
    1.1781   64.8504   81.4160 H   0  0  0  0  0  0  0  0  0  0  0  0
   -1.2024   63.0367   86.8745 C   0  0  0  0  0  0  0  0  0  0  0  0
   -2.6264   63.0063   87.4081 C   0  0  0  0  0  0  0  0  0  0  0  0
    0.7678   67.4084   81.8278 O   0  0  0  0  0  0  0  0  0  0  0  0
    1.7280   66.7384   79.7547 C   0  0  0  0  0  0  0  0  0  0  0  0
    1.0122   67.8557   80.4923 C   0  0  0  0  0  0  0  0  0  0  0  0
    5.1337   67.0127   85.4865 C   0  0  0  0  0  0  0  0  0  0  0  0
    6.0905   65.9046   85.1007 C   0  0  0  0  0  0  0  0  0  0  0  0
    5.9960   64.7519   85.5212 O   0  0  0  0  0  0  0  0  0  0  0  0
    7.0919   66.2903   84.2356 N   0  0  0  0  0  0  0  0  0  0  0  0
    8.0682   65.2929   83.9860 O   0  0  0  0  0  0  0  0  0  0  0  0
    7.4378   67.2456   84.2418 H   0  0  0  0  0  0  0  0  0  0  0  0
    7.7216   64.5230   84.4891 H   0  0  0  0  0  0  0  0  0  0  0  0
 22 23  1  0  0  0
 23 21  1  0  0  0
 21  1  1  0  0  0
  1  2  1  0  0  0
  2  3  2  0  0  0
  3  4  1  0  0  0
  4 24  1  0  0  0
 24 25  1  0  0  0
 25 26  2  0  0  0
 25 27  1  0  0  0
 27 28  1  0  0  0
  4  5  2  0  0  0
  5  6  1  0  0  0
  6  7  1  0  0  0
  7  8  2  0  0  0
  8  9  1  0  0  0
  9 10  1  0  0  0
 10 19  1  0  0  0
 19 20  1  0  0  0
 10 11  2  0  0  0
 11 12  1  0  0  0
 12 13  1  0  0  0
 12 14  1  0  0  0
 14 15  1  0  0  0
 15 16  2  0  0  0
 15 17  1  0  0  0
  6  1  2  0  0  0
 17  7  1  0  0  0
 14  9  2  0  0  0
 27 29  1  0  0  0
 28 30  1  0  0  0
 17 18  1  0  0  0
M  END
> <minimizedAffinity>
-9.62346

$$$$



 30 32  0  0  0  0  0  0  0  0999 V2000
   -0.4184   63.5567   86.1845 C   0  0  0  0  0  0  0  0  0  0  0  0
   -1.5057   62.6722   86.2056 C   0  0  0  0  0  0  0  0  0  0  0  0
   -2.1636   62.3124   85.0260 C   0  0  0  0  0  0  0  0  0  0  0  0
   -1.7530   62.8307   83.7969 C   0  0  0  0  0  0  0  0  0  0  0  0
   -0.6712   63.7195   83.7700 C   0  0  0  0  0  0  0  0  0  0  0  0
    0.0061   64.0928   84.9494 C   0  0  0  0  0  0  0  0  0  0  0  0
    1.1611   65.0494   84.7889 C   0  0  0  0  0  0  0  0  0  0  0  0
    1.0454   66.0689   83.9789 N   0  0  0  0  0  0  0  0  0  0  0  0
    2.1782   66.8822   83.9198 C   0  0  0  0  0  0  0  0  0  0  0  0
    2.4111   68.0496   83.1746 C   0  0  0  0  0  0  0  0  0  0  0  0
    3.6476   68.5263   83.4150 N   0  0  0  0  0  0  0  0  0  0  0  0
    4.1712   67.6490   84.3072 N   0  0  0  0  0  0  0  0  0  0  0  0
    5.5120   67.8414   84.8047 C   0  0  0  0  0  0  0  0  0  0  0  0
    3.3132   66.6470   84.6348 C   0  0  0  0  0  0  0  0  0  0  0  0
    3.4501   65.5439   85.5115 C   0  0  0  0  0  0  0  0  0  0  0  0
    4.4442   65.2716   86.1738 O   0  0  0  0  0  0  0  0  0  0  0  0
    2.3040   64.7838   85.5364 N   0  0  0  0  0  0  0  0  0  0  0  0
    2.3311   63.9664   86.1323 H   0  0  0  0  0  0  0  0  0  0  0  0
    1.4949   68.7442   82.2304 C   0  0  0  0  0  0  0  0  0  0  0  0
    1.6160   68.2121   80.8107 C   0  0  0  0  0  0  0  0  0  0  0  0
    0.2613   63.9384   87.3140 O   0  0  0  0  0  0  0  0  0  0  0  0
    0.4405   62.3767   89.1023 C   0  0  0  0  0  0  0  0  0  0  0  0
   -0.2957   63.6001   88.5863 C   0  0  0  0  0  0  0  0  0  0  0  0
   -2.4548   62.4304   82.5231 C   0  0  0  0  0  0  0  0  0  0  0  0
   -2.1736   60.9937   82.1370 C   0  0  0  0  0  0  0  0  0  0  0  0
   -1.0857   60.6082   81.7100 O   0  0  0  0  0  0  0  0  0  0  0  0
   -3.2436   60.1396   82.2971 N   0  0  0  0  0  0  0  0  0  0  0  0
   -3.0263   58.8281   81.8040 O   0  0  0  0  0  0  0  0  0  0  0  0
   -4.1952   60.4848   82.2102 H   0  0  0  0  0  0  0  0  0  0  0  0
   -2.0906   58.8636   81.5054 H   0  0  0  0  0  0  0  0  0  0  0  0
 22 23  1  0  0  0
 23 21  1  0  0  0
 21  1  1  0  0  0
  1  2  1  0  0  0
  2  3  2  0  0  0
  3  4  1  0  0  0
  4 24  1  0  0  0
 24 25  1  0  0  0
 25 26  2  0  0  0
 25 27  1  0  0  0
 27 28  1  0  0  0
  4  5  2  0  0  0
  5  6  1  0  0  0
  6  7  1  0  0  0
  7  8  2  0  0  0
  8  9  1  0  0  0
  9 10  1  0  0  0
 10 19  1  0  0  0
 19 20  1  0  0  0
 10 11  2  0  0  0
 11 12  1  0  0  0
 12 13  1  0  0  0
 12 14  1  0  0  0
 14 15  1  0  0  0
 15 16  2  0  0  0
 15 17  1  0  0  0
  6  1  2  0  0  0
 17  7  1  0  0  0
 14  9  2  0  0  0
 27 29  1  0  0  0
 28 30  1  0  0  0
 17 18  1  0  0  0
M  END
> <minimizedAffinity>
-9.51770

$$$$



 30 32  0  0  0  0  0  0  0  0999 V2000
   -0.5403   63.5056   86.0929 C   0  0  0  0  0  0  0  0  0  0  0  0
   -1.6334   62.6283   86.1142 C   0  0  0  0  0  0  0  0  0  0  0  0
   -2.2831   62.2593   84.9329 C   0  0  0  0  0  0  0  0  0  0  0  0
   -1.8583   62.7611   83.7017 C   0  0  0  0  0  0  0  0  0  0  0  0
   -0.7707   63.6427   83.6745 C   0  0  0  0  0  0  0  0  0  0  0  0
   -0.1015   64.0249   84.8556 C   0  0  0  0  0  0  0  0  0  0  0  0
    1.0610   64.9724   84.6947 C   0  0  0  0  0  0  0  0  0  0  0  0
    2.1704   64.7480   85.3487 N   0  0  0  0  0  0  0  0  0  0  0  0
    3.1722   65.6910   85.1138 C   0  0  0  0  0  0  0  0  0  0  0  0
    4.4760   65.7679   85.6300 C   0  0  0  0  0  0  0  0  0  0  0  0
    5.1177   66.8449   85.1379 N   0  0  0  0  0  0  0  0  0  0  0  0
    4.2049   67.4274   84.3210 N   0  0  0  0  0  0  0  0  0  0  0  0
    4.5447   68.6334   83.6052 C   0  0  0  0  0  0  0  0  0  0  0  0
    3.0224   66.7583   84.2811 C   0  0  0  0  0  0  0  0  0  0  0  0
    1.8243   67.0125   83.5714 C   0  0  0  0  0  0  0  0  0  0  0  0
    1.6225   67.9565   82.8169 O   0  0  0  0  0  0  0  0  0  0  0  0
    0.8775   66.0497   83.8336 N   0  0  0  0  0  0  0  0  0  0  0  0
   -0.0142   66.1721   83.3714 H   0  0  0  0  0  0  0  0  0  0  0  0
    5.1504   64.8468   86.5842 C   0  0  0  0  0  0  0  0  0  0  0  0
    5.5095   65.5326   87.8934 C   0  0  0  0  0  0  0  0  0  0  0  0
    0.1318   63.8957   87.2240 O   0  0  0  0  0  0  0  0  0  0  0  0
    0.4335   62.4886   89.1208 C   0  0  0  0  0  0  0  0  0  0  0  0
   -0.4334   63.5665   88.4950 C   0  0  0  0  0  0  0  0  0  0  0  0
   -2.5514   62.3508   82.4263 C   0  0  0  0  0  0  0  0  0  0  0  0
   -2.2371   60.9229   82.0331 C   0  0  0  0  0  0  0  0  0  0  0  0
   -1.1380   60.5631   81.6123 O   0  0  0  0  0  0  0  0  0  0  0  0
   -3.2902   60.0456   82.1789 N   0  0  0  0  0  0  0  0  0  0  0  0
   -3.0416   58.7422   81.6790 O   0  0  0  0  0  0  0  0  0  0  0  0
   -4.2481   60.3714   82.0866 H   0  0  0  0  0  0  0  0  0  0  0  0
   -2.1045   58.7994   81.3882 H   0  0  0  0  0  0  0  0  0  0  0  0
 22 23  1  0  0  0
 23 21  1  0  0  0
 21  1  1  0  0  0
  1  2  1  0  0  0
  2  3  2  0  0  0
  3  4  1  0  0  0
  4 24  1  0  0  0
 24 25  1  0  0  0
 25 26  2  0  0  0
 25 27  1  0  0  0
 27 28  1  0  0  0
  4  5  2  0  0  0
  5  6  1  0  0  0
  6  7  1  0  0  0
  7  8  2  0  0  0
  8  9  1  0  0  0
  9 10  1  0  0  0
 10 19  1  0  0  0
 19 20  1  0  0  0
 10 11  2  0  0  0
 11 12  1  0  0  0
 12 13  1  0  0  0
 12 14  1  0  0  0
 14 15  1  0  0  0
 15 16  2  0  0  0
 15 17  1  0  0  0
  6  1  2  0  0  0
 17  7  1  0  0  0
 14  9  2  0  0  0
 27 29  1  0  0  0
 28 30  1  0  0  0
 17 18  1  0  0  0
M  END
> <minimizedAffinity>
-9.47900

$$$$



 30 32  0  0  0  0  0  0  0  0999 V2000
    2.0474   67.3540   83.0467 C   0  0  0  0  0  0  0  0  0  0  0  0
    2.9697   68.3553   82.7126 C   0  0  0  0  0  0  0  0  0  0  0  0
    4.1673   68.4955   83.4197 C   0  0  0  0  0  0  0  0  0  0  0  0
    4.4705   67.6405   84.4804 C   0  0  0  0  0  0  0  0  0  0  0  0
    3.5503   66.6420   84.8228 C   0  0  0  0  0  0  0  0  0  0  0  0
    2.3379   66.4840   84.1199 C   0  0  0  0  0  0  0  0  0  0  0  0
    1.4345   65.3664   84.5778 C   0  0  0  0  0  0  0  0  0  0  0  0
    1.0192   64.4783   83.7131 N   0  0  0  0  0  0  0  0  0  0  0  0
    0.1938   63.4935   84.2581 C   0  0  0  0  0  0  0  0  0  0  0  0
   -0.4241   62.3934   83.6415 C   0  0  0  0  0  0  0  0  0  0  0  0
   -1.1384   61.6869   84.5385 N   0  0  0  0  0  0  0  0  0  0  0  0
   -0.9576   62.3565   85.7043 N   0  0  0  0  0  0  0  0  0  0  0  0
   -1.5874   61.8818   86.9127 C   0  0  0  0  0  0  0  0  0  0  0  0
   -0.1595   63.4488   85.5726 C   0  0  0  0  0  0  0  0  0  0  0  0
    0.2814   64.4075   86.5162 C   0  0  0  0  0  0  0  0  0  0  0  0
   -0.0069   64.4293   87.7069 O   0  0  0  0  0  0  0  0  0  0  0  0
    1.0960   65.3464   85.9272 N   0  0  0  0  0  0  0  0  0  0  0  0
    1.4403   66.0756   86.5383 H   0  0  0  0  0  0  0  0  0  0  0  0
   -0.3631   61.9762   82.2147 C   0  0  0  0  0  0  0  0  0  0  0  0
    0.9679   61.3327   81.8571 C   0  0  0  0  0  0  0  0  0  0  0  0
    0.8603   67.1743   82.3819 O   0  0  0  0  0  0  0  0  0  0  0  0
   -0.5411   67.1628   80.4572 C   0  0  0  0  0  0  0  0  0  0  0  0
    0.8903   67.0790   80.9560 C   0  0  0  0  0  0  0  0  0  0  0  0
    5.7696   67.7838   85.2334 C   0  0  0  0  0  0  0  0  0  0  0  0
    6.6056   66.5224   85.1861 C   0  0  0  0  0  0  0  0  0  0  0  0
    6.6819   65.7256   86.1208 O   0  0  0  0  0  0  0  0  0  0  0  0
    7.2879   66.3337   84.0034 N   0  0  0  0  0  0  0  0  0  0  0  0
    8.1793   65.2311   84.0097 O   0  0  0  0  0  0  0  0  0  0  0  0
    7.5859   67.1308   83.4482 H   0  0  0  0  0  0  0  0  0  0  0  0
    8.0265   64.8371   84.8970 H   0  0  0  0  0  0  0  0  0  0  0  0
 22 23  1  0  0  0
 23 21  1  0  0  0
 21  1  1  0  0  0
  1  2  1  0  0  0
  2  3  2  0  0  0
  3  4  1  0  0  0
  4 24  1  0  0  0
 24 25  1  0  0  0
 25 26  2  0  0  0
 25 27  1  0  0  0
 27 28  1  0  0  0
  4  5  2  0  0  0
  5  6  1  0  0  0
  6  7  1  0  0  0
  7  8  2  0  0  0
  8  9  1  0  0  0
  9 10  1  0  0  0
 10 19  1  0  0  0
 19 20  1  0  0  0
 10 11  2  0  0  0
 11 12  1  0  0  0
 12 13  1  0  0  0
 12 14  1  0  0  0
 14 15  1  0  0  0
 15 16  2  0  0  0
 15 17  1  0  0  0
  6  1  2  0  0  0
 17  7  1  0  0  0
 14  9  2  0  0  0
 27 29  1  0  0  0
 28 30  1  0  0  0
 17 18  1  0  0  0
M  END
> <minimizedAffinity>
-9.46551

$$$$



 30 32  0  0  0  0  0  0  0  0999 V2000
    0.0129   63.5136   84.7775 C   0  0  0  0  0  0  0  0  0  0  0  0
    0.6483   64.5287   85.5060 C   0  0  0  0  0  0  0  0  0  0  0  0
    1.1528   65.6651   84.8673 C   0  0  0  0  0  0  0  0  0  0  0  0
    1.0376   65.8129   83.4842 C   0  0  0  0  0  0  0  0  0  0  0  0
    0.4091   64.7993   82.7501 C   0  0  0  0  0  0  0  0  0  0  0  0
   -0.1076   63.6466   83.3772 C   0  0  0  0  0  0  0  0  0  0  0  0
   -0.7701   62.6313   82.4799 C   0  0  0  0  0  0  0  0  0  0  0  0
   -0.4464   62.5816   81.2143 N   0  0  0  0  0  0  0  0  0  0  0  0
   -1.1235   61.5990   80.4902 C   0  0  0  0  0  0  0  0  0  0  0  0
   -1.0302   61.2562   79.1315 C   0  0  0  0  0  0  0  0  0  0  0  0
   -1.8640   60.2392   78.8411 N   0  0  0  0  0  0  0  0  0  0  0  0
   -2.4682   59.9608   80.0232 N   0  0  0  0  0  0  0  0  0  0  0  0
   -3.4481   58.9043   80.1000 C   0  0  0  0  0  0  0  0  0  0  0  0
   -2.0451   60.7594   81.0384 C   0  0  0  0  0  0  0  0  0  0  0  0
   -2.4056   60.8075   82.4065 C   0  0  0  0  0  0  0  0  0  0  0  0
   -3.2313   60.0895   82.9578 O   0  0  0  0  0  0  0  0  0  0  0  0
   -1.7032   61.7857   83.0713 N   0  0  0  0  0  0  0  0  0  0  0  0
   -1.9180   61.8902   84.0546 H   0  0  0  0  0  0  0  0  0  0  0  0
   -0.1681   61.8611   78.0806 C   0  0  0  0  0  0  0  0  0  0  0  0
   -0.2269   61.0905   76.7706 C   0  0  0  0  0  0  0  0  0  0  0  0
   -0.5006   62.3811   85.3583 O   0  0  0  0  0  0  0  0  0  0  0  0
   -2.6148   62.8064   86.3673 C   0  0  0  0  0  0  0  0  0  0  0  0
   -1.1495   62.5048   86.6259 C   0  0  0  0  0  0  0  0  0  0  0  0
    1.5697   67.0463   82.7980 C   0  0  0  0  0  0  0  0  0  0  0  0
    1.1100   67.1491   81.3591 C   0  0  0  0  0  0  0  0  0  0  0  0
   -0.0053   67.5537   81.0322 O   0  0  0  0  0  0  0  0  0  0  0  0
    2.0453   66.7451   80.4308 N   0  0  0  0  0  0  0  0  0  0  0  0
    1.5685   66.7063   79.0960 O   0  0  0  0  0  0  0  0  0  0  0  0
    2.7328   66.0355   80.6678 H   0  0  0  0  0  0  0  0  0  0  0  0
    0.6519   67.0494   79.1858 H   0  0  0  0  0  0  0  0  0  0  0  0
 22 23  1  0  0  0
 23 21  1  0  0  0
 21  1  1  0  0  0
  1  2  1  0  0  0
  2  3  2  0  0  0
  3  4  1  0  0  0
  4 24  1  0  0  0
 24 25  1  0  0  0
 25 26  2  0  0  0
 25 27  1  0  0  0
 27 28  1  0  0  0
  4  5  2  0  0  0
  5  6  1  0  0  0
  6  7  1  0  0  0
  7  8  2  0  0  0
  8  9  1  0  0  0
  9 10  1  0  0  0
 10 19  1  0  0  0
 19 20  1  0  0  0
 10 11  2  0  0  0
 11 12  1  0  0  0
 12 13  1  0  0  0
 12 14  1  0  0  0
 14 15  1  0  0  0
 15 16  2  0  0  0
 15 17  1  0  0  0
  6  1  2  0  0  0
 17  7  1  0  0  0
 14  9  2  0  0  0
 27 29  1  0  0  0
 28 30  1  0  0  0
 17 18  1  0  0  0
M  END
> <minimizedAffinity>
-9.43211

$$$$
