


 30 32  0  0  0  0  0  0  0  0999 V2000
    3.6044   66.4813   84.6958 C   0  0  0  0  0  0  0  0  0  0  0  0
    4.3926   67.5213   84.1909 C   0  0  0  0  0  0  0  0  0  0  0  0
    3.8629   68.4673   83.3029 C   0  0  0  0  0  0  0  0  0  0  0  0
    2.5317   68.4059   82.9089 C   0  0  0  0  0  0  0  0  0  0  0  0
    1.7453   67.3545   83.3945 C   0  0  0  0  0  0  0  0  0  0  0  0
    2.2578   66.3926   84.2895 C   0  0  0  0  0  0  0  0  0  0  0  0
    1.3038   65.3217   84.7467 C   0  0  0  0  0  0  0  0  0  0  0  0
    0.7266   64.5344   83.8749 N   0  0  0  0  0  0  0  0  0  0  0  0
   -0.1080   63.6182   84.4273 C   0  0  0  0  0  0  0  0  0  0  0  0
   -0.3951   63.4386   85.7576 C   0  0  0  0  0  0  0  0  0  0  0  0
   -1.3062   62.3694   85.8193 C   0  0  0  0  0  0  0  0  0  0  0  0
   -1.9318   61.7732   87.0232 C   0  0  0  0  0  0  0  0  0  0  0  0
   -1.5828   61.8966   84.5923 N   0  0  0  0  0  0  0  0  0  0  0  0
   -0.8417   62.6749   83.7655 N   0  0  0  0  0  0  0  0  0  0  0  0
   -0.8956   62.4443   82.3445 C   0  0  0  0  0  0  0  0  0  0  0  0
    0.2352   64.2959   86.7155 C   0  0  0  0  0  0  0  0  0  0  0  0
    0.0683   64.2300   87.9275 O   0  0  0  0  0  0  0  0  0  0  0  0
    1.0694   65.2203   86.1172 N   0  0  0  0  0  0  0  0  0  0  0  0
    1.5495   65.8466   86.7498 H   0  0  0  0  0  0  0  0  0  0  0  0
    1.9146   69.3003   82.0080 N   0  0  0  0  0  0  0  0  0  0  0  0
    1.7812   68.9371   81.0722 H   0  0  0  0  0  0  0  0  0  0  0  0
    1.2787   70.5030   82.1999 C   0  0  0  0  0  0  0  0  0  0  0  0
    1.9381   71.2706   83.1233 N   0  0  0  0  0  0  0  0  0  0  0  0
   -0.0632   71.1555   81.4721 S   0  0  0  0  0  0  0  0  0  0  0  0
    1.4691   72.1348   83.3759 H   0  0  0  0  0  0  0  0  0  0  0  0
    2.4062   70.8085   83.8916 H   0  0  0  0  0  0  0  0  0  0  0  0
    4.0765   65.5307   85.5642 O   0  0  0  0  0  0  0  0  0  0  0  0
    5.4571   65.1654   85.4875 C   0  0  0  0  0  0  0  0  0  0  0  0
    5.3716   65.4428   88.0054 C   0  0  0  0  0  0  0  0  0  0  0  0
    6.1704   65.6887   86.7329 C   0  0  0  0  0  0  0  0  0  0  0  0
 29 30  1  0  0  0
 30 28  1  0  0  0
 28 27  1  0  0  0
 27  1  1  0  0  0
  1  2  1  0  0  0
  2  3  2  0  0  0
  3  4  1  0  0  0
  4 20  1  0  0  0
 20 22  1  0  0  0
 22 23  1  0  0  0
 22 24  2  0  0  0
  4  5  2  0  0  0
  5  6  1  0  0  0
  6  7  1  0  0  0
  7  8  2  0  0  0
  8  9  1  0  0  0
  9 10  2  0  0  0
 10 11  1  0  0  0
 11 12  1  0  0  0
 11 13  2  0  0  0
 13 14  1  0  0  0
 14 15  1  0  0  0
 10 16  1  0  0  0
 16 17  2  0  0  0
 16 18  1  0  0  0
  6  1  2  0  0  0
 18  7  1  0  0  0
 14  9  1  0  0  0
 20 21  1  0  0  0
 23 25  1  0  0  0
 23 26  1  0  0  0
 18 19  1  0  0  0
M  END
> <minimizedAffinity>
-9.31193

$$$$



 30 32  0  0  0  0  0  0  0  0999 V2000
    1.3342   66.6527   82.3891 C   0  0  0  0  0  0  0  0  0  0  0  0
    2.2886   67.6597   82.5705 C   0  0  0  0  0  0  0  0  0  0  0  0
    3.1922   67.6181   83.6409 C   0  0  0  0  0  0  0  0  0  0  0  0
    3.1738   66.5646   84.5469 C   0  0  0  0  0  0  0  0  0  0  0  0
    2.2066   65.5662   84.3818 C   0  0  0  0  0  0  0  0  0  0  0  0
    1.2885   65.5880   83.3114 C   0  0  0  0  0  0  0  0  0  0  0  0
    0.3089   64.4472   83.2405 C   0  0  0  0  0  0  0  0  0  0  0  0
   -0.3604   64.0835   84.3049 N   0  0  0  0  0  0  0  0  0  0  0  0
   -1.2051   63.0424   84.0957 C   0  0  0  0  0  0  0  0  0  0  0  0
   -1.4226   62.3601   82.9246 C   0  0  0  0  0  0  0  0  0  0  0  0
   -2.3841   61.3771   83.2185 C   0  0  0  0  0  0  0  0  0  0  0  0
   -2.9700   60.3719   82.3008 C   0  0  0  0  0  0  0  0  0  0  0  0
   -2.7561   61.4331   84.5086 N   0  0  0  0  0  0  0  0  0  0  0  0
   -2.0229   62.4535   85.0180 N   0  0  0  0  0  0  0  0  0  0  0  0
   -2.1691   62.8008   86.4085 C   0  0  0  0  0  0  0  0  0  0  0  0
   -0.6945   62.7554   81.7570 C   0  0  0  0  0  0  0  0  0  0  0  0
   -0.8064   62.2326   80.6545 O   0  0  0  0  0  0  0  0  0  0  0  0
    0.1609   63.8103   82.0093 N   0  0  0  0  0  0  0  0  0  0  0  0
    0.6942   64.1376   81.2146 H   0  0  0  0  0  0  0  0  0  0  0  0
    4.0299   66.4446   85.6627 N   0  0  0  0  0  0  0  0  0  0  0  0
    3.7947   65.6941   86.3006 H   0  0  0  0  0  0  0  0  0  0  0  0
    5.2408   67.0234   85.9568 C   0  0  0  0  0  0  0  0  0  0  0  0
    5.0896   68.0802   86.8153 N   0  0  0  0  0  0  0  0  0  0  0  0
    6.7840   66.6156   85.5004 S   0  0  0  0  0  0  0  0  0  0  0  0
    5.9376   68.6063   87.0012 H   0  0  0  0  0  0  0  0  0  0  0  0
    4.2535   68.6449   86.7456 H   0  0  0  0  0  0  0  0  0  0  0  0
    0.4277   66.6496   81.3601 O   0  0  0  0  0  0  0  0  0  0  0  0
    0.8168   67.2236   80.1093 C   0  0  0  0  0  0  0  0  0  0  0  0
    0.8471   65.1116   78.7086 C   0  0  0  0  0  0  0  0  0  0  0  0
    1.6774   66.2119   79.3547 C   0  0  0  0  0  0  0  0  0  0  0  0
 29 30  1  0  0  0
 30 28  1  0  0  0
 28 27  1  0  0  0
 27  1  1  0  0  0
  1  2  1  0  0  0
  2  3  2  0  0  0
  3  4  1  0  0  0
  4 20  1  0  0  0
 20 22  1  0  0  0
 22 23  1  0  0  0
 22 24  2  0  0  0
  4  5  2  0  0  0
  5  6  1  0  0  0
  6  7  1  0  0  0
  7  8  2  0  0  0
  8  9  1  0  0  0
  9 10  2  0  0  0
 10 11  1  0  0  0
 11 12  1  0  0  0
 11 13  2  0  0  0
 13 14  1  0  0  0
 14 15  1  0  0  0
 10 16  1  0  0  0
 16 17  2  0  0  0
 16 18  1  0  0  0
  6  1  2  0  0  0
 18  7  1  0  0  0
 14  9  1  0  0  0
 20 21  1  0  0  0
 23 25  1  0  0  0
 23 26  1  0  0  0
 18 19  1  0  0  0
M  END
> <minimizedAffinity>
-8.91646

$$$$



 30 32  0  0  0  0  0  0  0  0999 V2000
    1.3137   66.6057   82.4086 C   0  0  0  0  0  0  0  0  0  0  0  0
    2.2780   67.6091   82.5541 C   0  0  0  0  0  0  0  0  0  0  0  0
    3.1989   67.5821   83.6102 C   0  0  0  0  0  0  0  0  0  0  0  0
    3.1880   66.5470   84.5372 C   0  0  0  0  0  0  0  0  0  0  0  0
    2.2112   65.5526   84.4080 C   0  0  0  0  0  0  0  0  0  0  0  0
    1.2758   65.5599   83.3525 C   0  0  0  0  0  0  0  0  0  0  0  0
    0.2871   64.4252   83.3205 C   0  0  0  0  0  0  0  0  0  0  0  0
   -0.3457   64.0689   84.4094 N   0  0  0  0  0  0  0  0  0  0  0  0
   -1.2039   63.0326   84.2340 C   0  0  0  0  0  0  0  0  0  0  0  0
   -1.4677   62.3482   83.0736 C   0  0  0  0  0  0  0  0  0  0  0  0
   -2.4241   61.3722   83.4050 C   0  0  0  0  0  0  0  0  0  0  0  0
   -3.0489   60.3680   82.5120 C   0  0  0  0  0  0  0  0  0  0  0  0
   -2.7491   61.4343   84.7074 N   0  0  0  0  0  0  0  0  0  0  0  0
   -1.9916   62.4515   85.1869 N   0  0  0  0  0  0  0  0  0  0  0  0
   -2.0856   62.8038   86.5806 C   0  0  0  0  0  0  0  0  0  0  0  0
   -0.7795   62.7354   81.8793 C   0  0  0  0  0  0  0  0  0  0  0  0
   -0.9342   62.2102   80.7832 O   0  0  0  0  0  0  0  0  0  0  0  0
    0.0910   63.7856   82.0974 N   0  0  0  0  0  0  0  0  0  0  0  0
    0.5974   64.1072   81.2831 H   0  0  0  0  0  0  0  0  0  0  0  0
    4.0616   66.4428   85.6411 N   0  0  0  0  0  0  0  0  0  0  0  0
    3.8539   65.6833   86.2778 H   0  0  0  0  0  0  0  0  0  0  0  0
    5.2611   67.0506   85.9226 C   0  0  0  0  0  0  0  0  0  0  0  0
    5.0980   68.0835   86.8075 N   0  0  0  0  0  0  0  0  0  0  0  0
    6.8054   66.6986   85.4248 S   0  0  0  0  0  0  0  0  0  0  0  0
    5.9342   68.6303   86.9872 H   0  0  0  0  0  0  0  0  0  0  0  0
    4.2445   68.6247   86.7679 H   0  0  0  0  0  0  0  0  0  0  0  0
    0.3903   66.5889   81.3948 O   0  0  0  0  0  0  0  0  0  0  0  0
    0.6556   67.3608   80.2205 C   0  0  0  0  0  0  0  0  0  0  0  0
    0.0038   69.7824   80.5880 C   0  0  0  0  0  0  0  0  0  0  0  0
   -0.4368   68.4186   80.0746 C   0  0  0  0  0  0  0  0  0  0  0  0
 29 30  1  0  0  0
 30 28  1  0  0  0
 28 27  1  0  0  0
 27  1  1  0  0  0
  1  2  1  0  0  0
  2  3  2  0  0  0
  3  4  1  0  0  0
  4 20  1  0  0  0
 20 22  1  0  0  0
 22 23  1  0  0  0
 22 24  2  0  0  0
  4  5  2  0  0  0
  5  6  1  0  0  0
  6  7  1  0  0  0
  7  8  2  0  0  0
  8  9  1  0  0  0
  9 10  2  0  0  0
 10 11  1  0  0  0
 11 12  1  0  0  0
 11 13  2  0  0  0
 13 14  1  0  0  0
 14 15  1  0  0  0
 10 16  1  0  0  0
 16 17  2  0  0  0
 16 18  1  0  0  0
  6  1  2  0  0  0
 18  7  1  0  0  0
 14  9  1  0  0  0
 20 21  1  0  0  0
 23 25  1  0  0  0
 23 26  1  0  0  0
 18 19  1  0  0  0
M  END
> <minimizedAffinity>
-8.85591

$$$$



 30 32  0  0  0  0  0  0  0  0999 V2000
    2.1594   66.6681   83.5448 C   0  0  0  0  0  0  0  0  0  0  0  0
    2.4609   67.4298   82.4104 C   0  0  0  0  0  0  0  0  0  0  0  0
    1.7704   67.2408   81.2056 C   0  0  0  0  0  0  0  0  0  0  0  0
    0.7545   66.2977   81.1082 C   0  0  0  0  0  0  0  0  0  0  0  0
    0.4643   65.5185   82.2344 C   0  0  0  0  0  0  0  0  0  0  0  0
    1.1459   65.6928   83.4567 C   0  0  0  0  0  0  0  0  0  0  0  0
    0.7283   64.7998   84.5944 C   0  0  0  0  0  0  0  0  0  0  0  0
   -0.3338   64.0428   84.4850 N   0  0  0  0  0  0  0  0  0  0  0  0
   -0.5915   63.2925   85.5859 C   0  0  0  0  0  0  0  0  0  0  0  0
    0.1235   63.2467   86.7568 C   0  0  0  0  0  0  0  0  0  0  0  0
   -0.5396   62.3222   87.5830 C   0  0  0  0  0  0  0  0  0  0  0  0
   -0.1764   61.9036   88.9574 C   0  0  0  0  0  0  0  0  0  0  0  0
   -1.6189   61.8094   86.9682 N   0  0  0  0  0  0  0  0  0  0  0  0
   -1.6268   62.4176   85.7565 N   0  0  0  0  0  0  0  0  0  0  0  0
   -2.6699   62.0996   84.8151 C   0  0  0  0  0  0  0  0  0  0  0  0
    1.2872   64.0714   86.8807 C   0  0  0  0  0  0  0  0  0  0  0  0
    2.0113   64.1130   87.8682 O   0  0  0  0  0  0  0  0  0  0  0  0
    1.5130   64.8267   85.7463 N   0  0  0  0  0  0  0  0  0  0  0  0
    2.3304   65.4218   85.7755 H   0  0  0  0  0  0  0  0  0  0  0  0
    0.0165   66.0244   79.9364 N   0  0  0  0  0  0  0  0  0  0  0  0
   -0.7669   66.6448   79.7726 H   0  0  0  0  0  0  0  0  0  0  0  0
    0.2666   65.2007   78.8657 C   0  0  0  0  0  0  0  0  0  0  0  0
    1.4341   65.5453   78.2371 N   0  0  0  0  0  0  0  0  0  0  0  0
   -0.5592   63.8812   78.2885 S   0  0  0  0  0  0  0  0  0  0  0  0
    1.6297   65.0310   77.3840 H   0  0  0  0  0  0  0  0  0  0  0  0
    1.6984   66.5211   78.2076 H   0  0  0  0  0  0  0  0  0  0  0  0
    2.8073   66.8136   84.7446 O   0  0  0  0  0  0  0  0  0  0  0  0
    4.0930   67.4400   84.7516 C   0  0  0  0  0  0  0  0  0  0  0  0
    5.0097   65.3333   85.8215 C   0  0  0  0  0  0  0  0  0  0  0  0
    5.1656   66.3535   84.7024 C   0  0  0  0  0  0  0  0  0  0  0  0
 29 30  1  0  0  0
 30 28  1  0  0  0
 28 27  1  0  0  0
 27  1  1  0  0  0
  1  2  1  0  0  0
  2  3  2  0  0  0
  3  4  1  0  0  0
  4 20  1  0  0  0
 20 22  1  0  0  0
 22 23  1  0  0  0
 22 24  2  0  0  0
  4  5  2  0  0  0
  5  6  1  0  0  0
  6  7  1  0  0  0
  7  8  2  0  0  0
  8  9  1  0  0  0
  9 10  2  0  0  0
 10 11  1  0  0  0
 11 12  1  0  0  0
 11 13  2  0  0  0
 13 14  1  0  0  0
 14 15  1  0  0  0
 10 16  1  0  0  0
 16 17  2  0  0  0
 16 18  1  0  0  0
  6  1  2  0  0  0
 18  7  1  0  0  0
 14  9  1  0  0  0
 20 21  1  0  0  0
 23 25  1  0  0  0
 23 26  1  0  0  0
 18 19  1  0  0  0
M  END
> <minimizedAffinity>
-8.81908

$$$$



 30 32  0  0  0  0  0  0  0  0999 V2000
   -0.0767   63.0113   85.4733 C   0  0  0  0  0  0  0  0  0  0  0  0
    0.5358   63.8594   86.4027 C   0  0  0  0  0  0  0  0  0  0  0  0
    1.1299   65.0642   86.0034 C   0  0  0  0  0  0  0  0  0  0  0  0
    1.1147   65.4575   84.6707 C   0  0  0  0  0  0  0  0  0  0  0  0
    0.5222   64.6019   83.7345 C   0  0  0  0  0  0  0  0  0  0  0  0
   -0.0821   63.3856   84.1146 C   0  0  0  0  0  0  0  0  0  0  0  0
   -0.6956   62.5645   83.0122 C   0  0  0  0  0  0  0  0  0  0  0  0
   -0.1870   62.5914   81.8065 N   0  0  0  0  0  0  0  0  0  0  0  0
   -0.8411   61.8052   80.9147 C   0  0  0  0  0  0  0  0  0  0  0  0
   -1.9387   61.0125   81.1412 C   0  0  0  0  0  0  0  0  0  0  0  0
   -2.2371   60.3986   79.9120 C   0  0  0  0  0  0  0  0  0  0  0  0
   -3.3308   59.4450   79.6111 C   0  0  0  0  0  0  0  0  0  0  0  0
   -1.3742   60.7826   78.9561 N   0  0  0  0  0  0  0  0  0  0  0  0
   -0.5375   61.6383   79.5933 N   0  0  0  0  0  0  0  0  0  0  0  0
    0.5346   62.2561   78.8554 C   0  0  0  0  0  0  0  0  0  0  0  0
   -2.4976   60.9781   82.4589 C   0  0  0  0  0  0  0  0  0  0  0  0
   -3.4675   60.3056   82.7883 O   0  0  0  0  0  0  0  0  0  0  0  0
   -1.8127   61.7961   83.3364 N   0  0  0  0  0  0  0  0  0  0  0  0
   -2.1598   61.8023   84.2864 H   0  0  0  0  0  0  0  0  0  0  0  0
    1.7000   66.6411   84.1717 N   0  0  0  0  0  0  0  0  0  0  0  0
    1.0797   67.2240   83.6232 H   0  0  0  0  0  0  0  0  0  0  0  0
    2.8958   67.2597   84.4457 C   0  0  0  0  0  0  0  0  0  0  0  0
    2.7016   68.5458   84.8758 N   0  0  0  0  0  0  0  0  0  0  0  0
    4.4547   66.6908   84.3953 S   0  0  0  0  0  0  0  0  0  0  0  0
    3.5506   69.0860   85.0094 H   0  0  0  0  0  0  0  0  0  0  0  0
    1.9262   69.0718   84.4951 H   0  0  0  0  0  0  0  0  0  0  0  0
   -0.6689   61.8221   85.8137 O   0  0  0  0  0  0  0  0  0  0  0  0
   -1.1925   61.6773   87.1367 C   0  0  0  0  0  0  0  0  0  0  0  0
   -3.0693   63.3801   87.1746 C   0  0  0  0  0  0  0  0  0  0  0  0
   -2.7023   61.9050   87.0917 C   0  0  0  0  0  0  0  0  0  0  0  0
 29 30  1  0  0  0
 30 28  1  0  0  0
 28 27  1  0  0  0
 27  1  1  0  0  0
  1  2  1  0  0  0
  2  3  2  0  0  0
  3  4  1  0  0  0
  4 20  1  0  0  0
 20 22  1  0  0  0
 22 23  1  0  0  0
 22 24  2  0  0  0
  4  5  2  0  0  0
  5  6  1  0  0  0
  6  7  1  0  0  0
  7  8  2  0  0  0
  8  9  1  0  0  0
  9 10  2  0  0  0
 10 11  1  0  0  0
 11 12  1  0  0  0
 11 13  2  0  0  0
 13 14  1  0  0  0
 14 15  1  0  0  0
 10 16  1  0  0  0
 16 17  2  0  0  0
 16 18  1  0  0  0
  6  1  2  0  0  0
 18  7  1  0  0  0
 14  9  1  0  0  0
 20 21  1  0  0  0
 23 25  1  0  0  0
 23 26  1  0  0  0
 18 19  1  0  0  0
M  END
> <minimizedAffinity>
-8.78971

$$$$



 30 32  0  0  0  0  0  0  0  0999 V2000
    1.4806   67.2364   82.5468 C   0  0  0  0  0  0  0  0  0  0  0  0
    2.3089   68.2619   82.0777 C   0  0  0  0  0  0  0  0  0  0  0  0
    3.5037   68.5866   82.7343 C   0  0  0  0  0  0  0  0  0  0  0  0
    3.9067   67.8871   83.8654 C   0  0  0  0  0  0  0  0  0  0  0  0
    3.0704   66.8748   84.3507 C   0  0  0  0  0  0  0  0  0  0  0  0
    1.8645   66.5312   83.7051 C   0  0  0  0  0  0  0  0  0  0  0  0
    1.0644   65.4151   84.3216 C   0  0  0  0  0  0  0  0  0  0  0  0
    0.4850   64.5198   83.5627 N   0  0  0  0  0  0  0  0  0  0  0  0
   -0.2026   63.5747   84.2521 C   0  0  0  0  0  0  0  0  0  0  0  0
   -0.3441   63.4651   85.6131 C   0  0  0  0  0  0  0  0  0  0  0  0
   -1.1392   62.3264   85.8324 C   0  0  0  0  0  0  0  0  0  0  0  0
   -1.5885   61.7640   87.1277 C   0  0  0  0  0  0  0  0  0  0  0  0
   -1.4843   61.7450   84.6711 N   0  0  0  0  0  0  0  0  0  0  0  0
   -0.9024   62.5254   83.7273 N   0  0  0  0  0  0  0  0  0  0  0  0
   -1.0682   62.1907   82.3359 C   0  0  0  0  0  0  0  0  0  0  0  0
    0.2895   64.4408   86.4476 C   0  0  0  0  0  0  0  0  0  0  0  0
    0.2450   64.4465   87.6721 O   0  0  0  0  0  0  0  0  0  0  0  0
    0.9714   65.3908   85.7123 N   0  0  0  0  0  0  0  0  0  0  0  0
    1.4474   66.1006   86.2534 H   0  0  0  0  0  0  0  0  0  0  0  0
    5.0811   68.1518   84.6023 N   0  0  0  0  0  0  0  0  0  0  0  0
    5.5320   69.0316   84.3826 H   0  0  0  0  0  0  0  0  0  0  0  0
    5.6314   67.5404   85.7027 C   0  0  0  0  0  0  0  0  0  0  0  0
    5.1957   68.1232   86.8634 N   0  0  0  0  0  0  0  0  0  0  0  0
    6.6431   66.2303   85.8304 S   0  0  0  0  0  0  0  0  0  0  0  0
    5.6354   67.7748   87.7094 H   0  0  0  0  0  0  0  0  0  0  0  0
    5.0115   69.1177   86.8664 H   0  0  0  0  0  0  0  0  0  0  0  0
    0.3019   66.8830   81.9416 O   0  0  0  0  0  0  0  0  0  0  0  0
    0.1814   67.0662   80.5283 C   0  0  0  0  0  0  0  0  0  0  0  0
    1.8687   65.9992   78.9668 C   0  0  0  0  0  0  0  0  0  0  0  0
    0.6330   65.7849   79.8299 C   0  0  0  0  0  0  0  0  0  0  0  0
 29 30  1  0  0  0
 30 28  1  0  0  0
 28 27  1  0  0  0
 27  1  1  0  0  0
  1  2  1  0  0  0
  2  3  2  0  0  0
  3  4  1  0  0  0
  4 20  1  0  0  0
 20 22  1  0  0  0
 22 23  1  0  0  0
 22 24  2  0  0  0
  4  5  2  0  0  0
  5  6  1  0  0  0
  6  7  1  0  0  0
  7  8  2  0  0  0
  8  9  1  0  0  0
  9 10  2  0  0  0
 10 11  1  0  0  0
 11 12  1  0  0  0
 11 13  2  0  0  0
 13 14  1  0  0  0
 14 15  1  0  0  0
 10 16  1  0  0  0
 16 17  2  0  0  0
 16 18  1  0  0  0
  6  1  2  0  0  0
 18  7  1  0  0  0
 14  9  1  0  0  0
 20 21  1  0  0  0
 23 25  1  0  0  0
 23 26  1  0  0  0
 18 19  1  0  0  0
M  END
> <minimizedAffinity>
-8.73953

$$$$



 30 32  0  0  0  0  0  0  0  0999 V2000
   -2.3297   62.0044   83.7229 C   0  0  0  0  0  0  0  0  0  0  0  0
   -3.1353   60.8744   83.5433 C   0  0  0  0  0  0  0  0  0  0  0  0
   -3.1199   60.1568   82.3396 C   0  0  0  0  0  0  0  0  0  0  0  0
   -2.2910   60.5413   81.2927 C   0  0  0  0  0  0  0  0  0  0  0  0
   -1.4995   61.6837   81.4601 C   0  0  0  0  0  0  0  0  0  0  0  0
   -1.4989   62.4199   82.6631 C   0  0  0  0  0  0  0  0  0  0  0  0
   -0.5919   63.6201   82.7181 C   0  0  0  0  0  0  0  0  0  0  0  0
   -0.2091   64.2105   81.6145 N   0  0  0  0  0  0  0  0  0  0  0  0
    0.6066   65.2764   81.8141 C   0  0  0  0  0  0  0  0  0  0  0  0
    1.0514   65.7806   83.0109 C   0  0  0  0  0  0  0  0  0  0  0  0
    1.8633   66.8835   82.6921 C   0  0  0  0  0  0  0  0  0  0  0  0
    2.5882   67.7809   83.6222 C   0  0  0  0  0  0  0  0  0  0  0  0
    1.9302   67.0682   81.3627 N   0  0  0  0  0  0  0  0  0  0  0  0
    1.1580   66.0766   80.8540 N   0  0  0  0  0  0  0  0  0  0  0  0
    1.0008   65.9680   79.4260 C   0  0  0  0  0  0  0  0  0  0  0  0
    0.6339   65.1395   84.2210 C   0  0  0  0  0  0  0  0  0  0  0  0
    0.9545   65.4988   85.3477 O   0  0  0  0  0  0  0  0  0  0  0  0
   -0.1867   64.0549   83.9791 N   0  0  0  0  0  0  0  0  0  0  0  0
   -0.5201   63.5696   84.8016 H   0  0  0  0  0  0  0  0  0  0  0  0
   -2.2191   59.8937   80.0405 N   0  0  0  0  0  0  0  0  0  0  0  0
   -1.6592   59.0499   80.0295 H   0  0  0  0  0  0  0  0  0  0  0  0
   -2.9194   60.0743   78.8725 C   0  0  0  0  0  0  0  0  0  0  0  0
   -4.2539   59.8207   79.0503 N   0  0  0  0  0  0  0  0  0  0  0  0
   -2.4254   60.5871   77.3728 S   0  0  0  0  0  0  0  0  0  0  0  0
   -4.8124   59.8496   78.2032 H   0  0  0  0  0  0  0  0  0  0  0  0
   -4.5268   59.1018   79.7073 H   0  0  0  0  0  0  0  0  0  0  0  0
   -2.3110   62.7407   84.8796 O   0  0  0  0  0  0  0  0  0  0  0  0
   -2.8024   62.1359   86.0788 C   0  0  0  0  0  0  0  0  0  0  0  0
   -1.1402   63.4166   87.5003 C   0  0  0  0  0  0  0  0  0  0  0  0
   -2.6087   63.1159   87.2345 C   0  0  0  0  0  0  0  0  0  0  0  0
 29 30  1  0  0  0
 30 28  1  0  0  0
 28 27  1  0  0  0
 27  1  1  0  0  0
  1  2  1  0  0  0
  2  3  2  0  0  0
  3  4  1  0  0  0
  4 20  1  0  0  0
 20 22  1  0  0  0
 22 23  1  0  0  0
 22 24  2  0  0  0
  4  5  2  0  0  0
  5  6  1  0  0  0
  6  7  1  0  0  0
  7  8  2  0  0  0
  8  9  1  0  0  0
  9 10  2  0  0  0
 10 11  1  0  0  0
 11 12  1  0  0  0
 11 13  2  0  0  0
 13 14  1  0  0  0
 14 15  1  0  0  0
 10 16  1  0  0  0
 16 17  2  0  0  0
 16 18  1  0  0  0
  6  1  2  0  0  0
 18  7  1  0  0  0
 14  9  1  0  0  0
 20 21  1  0  0  0
 23 25  1  0  0  0
 23 26  1  0  0  0
 18 19  1  0  0  0
M  END
> <minimizedAffinity>
-8.61140

$$$$



 30 32  0  0  0  0  0  0  0  0999 V2000
   -1.9442   62.2724   82.7028 C   0  0  0  0  0  0  0  0  0  0  0  0
   -2.6061   61.1377   82.2209 C   0  0  0  0  0  0  0  0  0  0  0  0
   -2.2077   60.5173   81.0291 C   0  0  0  0  0  0  0  0  0  0  0  0
   -1.1317   61.0059   80.2979 C   0  0  0  0  0  0  0  0  0  0  0  0
   -0.4804   62.1536   80.7650 C   0  0  0  0  0  0  0  0  0  0  0  0
   -0.8642   62.7929   81.9621 C   0  0  0  0  0  0  0  0  0  0  0  0
   -0.0729   64.0103   82.3595 C   0  0  0  0  0  0  0  0  0  0  0  0
    0.3966   64.8210   81.4455 N   0  0  0  0  0  0  0  0  0  0  0  0
    1.0904   65.8739   81.9466 C   0  0  0  0  0  0  0  0  0  0  0  0
    1.3378   66.1654   83.2650 C   0  0  0  0  0  0  0  0  0  0  0  0
    2.0903   67.3531   83.2676 C   0  0  0  0  0  0  0  0  0  0  0  0
    2.6160   68.0966   84.4368 C   0  0  0  0  0  0  0  0  0  0  0  0
    2.3092   67.7912   82.0163 N   0  0  0  0  0  0  0  0  0  0  0  0
    1.6912   66.8724   81.2337 N   0  0  0  0  0  0  0  0  0  0  0  0
    1.7251   67.0292   79.8020 C   0  0  0  0  0  0  0  0  0  0  0  0
    0.8247   65.2827   84.2688 C   0  0  0  0  0  0  0  0  0  0  0  0
    0.9700   65.4384   85.4754 O   0  0  0  0  0  0  0  0  0  0  0  0
    0.1329   64.2192   83.7224 N   0  0  0  0  0  0  0  0  0  0  0  0
   -0.2608   63.5679   84.3887 H   0  0  0  0  0  0  0  0  0  0  0  0
   -0.6687   60.4607   79.0810 N   0  0  0  0  0  0  0  0  0  0  0  0
    0.3370   60.3637   79.0137 H   0  0  0  0  0  0  0  0  0  0  0  0
   -1.3257   59.8514   78.0396 C   0  0  0  0  0  0  0  0  0  0  0  0
   -0.6855   58.7035   77.6533 N   0  0  0  0  0  0  0  0  0  0  0  0
   -2.7388   60.2449   77.2621 S   0  0  0  0  0  0  0  0  0  0  0  0
   -1.0716   58.2538   76.8292 H   0  0  0  0  0  0  0  0  0  0  0  0
    0.3232   58.6670   77.7163 H   0  0  0  0  0  0  0  0  0  0  0  0
   -2.2974   62.9161   83.8611 O   0  0  0  0  0  0  0  0  0  0  0  0
   -2.7431   62.1281   84.9683 C   0  0  0  0  0  0  0  0  0  0  0  0
   -0.8200   62.2764   86.6125 C   0  0  0  0  0  0  0  0  0  0  0  0
   -2.2199   62.7582   86.2578 C   0  0  0  0  0  0  0  0  0  0  0  0
 29 30  1  0  0  0
 30 28  1  0  0  0
 28 27  1  0  0  0
 27  1  1  0  0  0
  1  2  1  0  0  0
  2  3  2  0  0  0
  3  4  1  0  0  0
  4 20  1  0  0  0
 20 22  1  0  0  0
 22 23  1  0  0  0
 22 24  2  0  0  0
  4  5  2  0  0  0
  5  6  1  0  0  0
  6  7  1  0  0  0
  7  8  2  0  0  0
  8  9  1  0  0  0
  9 10  2  0  0  0
 10 11  1  0  0  0
 11 12  1  0  0  0
 11 13  2  0  0  0
 13 14  1  0  0  0
 14 15  1  0  0  0
 10 16  1  0  0  0
 16 17  2  0  0  0
 16 18  1  0  0  0
  6  1  2  0  0  0
 18  7  1  0  0  0
 14  9  1  0  0  0
 20 21  1  0  0  0
 23 25  1  0  0  0
 23 26  1  0  0  0
 18 19  1  0  0  0
M  END
> <minimizedAffinity>
-8.55815

$$$$



 30 32  0  0  0  0  0  0  0  0999 V2000
    0.8122   65.1950   82.2577 C   0  0  0  0  0  0  0  0  0  0  0  0
    1.1836   66.0536   81.2171 C   0  0  0  0  0  0  0  0  0  0  0  0
    1.8394   67.2649   81.4757 C   0  0  0  0  0  0  0  0  0  0  0  0
    2.1520   67.6412   82.7763 C   0  0  0  0  0  0  0  0  0  0  0  0
    1.7629   66.7955   83.8218 C   0  0  0  0  0  0  0  0  0  0  0  0
    1.1031   65.5719   83.5842 C   0  0  0  0  0  0  0  0  0  0  0  0
    0.7518   64.7495   84.7950 C   0  0  0  0  0  0  0  0  0  0  0  0
   -0.3639   64.0659   84.8288 N   0  0  0  0  0  0  0  0  0  0  0  0
   -0.5511   63.3732   85.9804 C   0  0  0  0  0  0  0  0  0  0  0  0
    0.2809   63.3166   87.0708 C   0  0  0  0  0  0  0  0  0  0  0  0
   -0.3496   62.4695   87.9993 C   0  0  0  0  0  0  0  0  0  0  0  0
    0.1305   62.0729   89.3440 C   0  0  0  0  0  0  0  0  0  0  0  0
   -1.5203   62.0136   87.5226 N   0  0  0  0  0  0  0  0  0  0  0  0
   -1.6179   62.5797   86.2944 N   0  0  0  0  0  0  0  0  0  0  0  0
   -2.7749   62.3044   85.4814 C   0  0  0  0  0  0  0  0  0  0  0  0
    1.5034   64.0610   87.0380 C   0  0  0  0  0  0  0  0  0  0  0  0
    2.3306   64.0847   87.9417 O   0  0  0  0  0  0  0  0  0  0  0  0
    1.6557   64.7598   85.8562 N   0  0  0  0  0  0  0  0  0  0  0  0
    2.5093   65.2965   85.7751 H   0  0  0  0  0  0  0  0  0  0  0  0
    2.7936   68.8460   83.1359 N   0  0  0  0  0  0  0  0  0  0  0  0
    3.4361   68.7697   83.9149 H   0  0  0  0  0  0  0  0  0  0  0  0
    2.8673   70.0680   82.5123 C   0  0  0  0  0  0  0  0  0  0  0  0
    2.1536   71.0170   83.1955 N   0  0  0  0  0  0  0  0  0  0  0  0
    3.6994   70.5541   81.1604 S   0  0  0  0  0  0  0  0  0  0  0  0
    2.0947   71.9212   82.7377 H   0  0  0  0  0  0  0  0  0  0  0  0
    1.3093   70.7353   83.6758 H   0  0  0  0  0  0  0  0  0  0  0  0
    0.1673   64.0016   82.0565 O   0  0  0  0  0  0  0  0  0  0  0  0
    0.2180   63.4123   80.7544 C   0  0  0  0  0  0  0  0  0  0  0  0
    0.9950   61.4805   82.1995 C   0  0  0  0  0  0  0  0  0  0  0  0
    0.3030   61.8948   80.9084 C   0  0  0  0  0  0  0  0  0  0  0  0
 29 30  1  0  0  0
 30 28  1  0  0  0
 28 27  1  0  0  0
 27  1  1  0  0  0
  1  2  1  0  0  0
  2  3  2  0  0  0
  3  4  1  0  0  0
  4 20  1  0  0  0
 20 22  1  0  0  0
 22 23  1  0  0  0
 22 24  2  0  0  0
  4  5  2  0  0  0
  5  6  1  0  0  0
  6  7  1  0  0  0
  7  8  2  0  0  0
  8  9  1  0  0  0
  9 10  2  0  0  0
 10 11  1  0  0  0
 11 12  1  0  0  0
 11 13  2  0  0  0
 13 14  1  0  0  0
 14 15  1  0  0  0
 10 16  1  0  0  0
 16 17  2  0  0  0
 16 18  1  0  0  0
  6  1  2  0  0  0
 18  7  1  0  0  0
 14  9  1  0  0  0
 20 21  1  0  0  0
 23 25  1  0  0  0
 23 26  1  0  0  0
 18 19  1  0  0  0
M  END
> <minimizedAffinity>
-8.54894

$$$$
