
     RDKit          3D

 46 48  0  0  0  0  0  0  0  0999 V2000
   -2.1698   -3.3703   -0.8767 C   0  0  0  0  0  0  0  0  0  0  0  0
   -2.6250   -2.2506    0.0739 C   0  0  0  0  0  0  0  0  0  0  0  0
   -3.1876   -2.8873    1.3511 C   0  0  0  0  0  0  0  0  0  0  0  0
   -3.7084   -1.4142   -0.6191 C   0  0  0  0  0  0  0  0  0  0  0  0
   -1.4571   -1.3336    0.4193 C   0  0  0  0  0  0  0  0  0  0  0  0
   -0.3279   -1.3488   -0.2211 N   0  0  0  0  0  0  0  0  0  0  0  0
    0.4535   -0.3668    0.3180 N   0  0  0  0  0  0  0  0  0  0  0  0
    1.7862   -0.2233   -0.0617 C   0  0  0  0  0  0  0  0  0  0  0  0
    2.3621   -1.0937   -1.0048 C   0  0  0  0  0  0  0  0  0  0  0  0
    3.6989   -0.9771   -1.4072 C   0  0  0  0  0  0  0  0  0  0  0  0
    4.5023    0.0272   -0.8678 C   0  0  0  0  0  0  0  0  0  0  0  0
    5.9226    0.1992   -1.2553 C   0  0  0  0  0  0  0  0  0  0  0  0
    6.6824    1.0459   -0.8221 O   0  0  0  0  0  0  0  0  0  0  0  0
    6.3288   -0.6994   -2.1698 O   0  0  0  0  0  0  0  0  0  0  0  0
    3.9569    0.9053    0.0711 C   0  0  0  0  0  0  0  0  0  0  0  0
    2.6177    0.7772    0.4657 C   0  0  0  0  0  0  0  0  0  0  0  0
   -0.2675    0.4764    1.2732 C   0  0  0  0  0  0  0  0  0  0  0  0
   -0.6125    1.8557    0.7285 C   0  0  0  0  0  0  0  0  0  0  0  0
   -0.8909    2.0774   -0.6310 C   0  0  0  0  0  0  0  0  0  0  0  0
   -1.2283    3.3506   -1.0950 C   0  0  0  0  0  0  0  0  0  0  0  0
   -1.3007    4.4217   -0.2068 C   0  0  0  0  0  0  0  0  0  0  0  0
   -1.0352    4.2132    1.1439 C   0  0  0  0  0  0  0  0  0  0  0  0
   -1.1373    5.6623    2.3541 Br  0  0  0  0  0  0  0  0  0  0  0  0
   -0.6963    2.9435    1.6148 C   0  0  0  0  0  0  0  0  0  0  0  0
   -1.5342   -0.3353    1.5416 C   0  0  0  0  0  0  0  0  0  0  0  0
   -1.3688   -3.9695   -0.4284 H   0  0  0  0  0  0  0  0  0  0  0  0
   -1.7881   -2.9650   -1.8211 H   0  0  0  0  0  0  0  0  0  0  0  0
   -2.9976   -4.0464   -1.1190 H   0  0  0  0  0  0  0  0  0  0  0  0
   -3.9906   -3.5966    1.1208 H   0  0  0  0  0  0  0  0  0  0  0  0
   -2.4068   -3.4273    1.8989 H   0  0  0  0  0  0  0  0  0  0  0  0
   -3.6023   -2.1342    2.0305 H   0  0  0  0  0  0  0  0  0  0  0  0
   -3.3112   -0.9141   -1.5101 H   0  0  0  0  0  0  0  0  0  0  0  0
   -4.5531   -2.0387   -0.9308 H   0  0  0  0  0  0  0  0  0  0  0  0
   -4.1005   -0.6335    0.0419 H   0  0  0  0  0  0  0  0  0  0  0  0
    1.7571   -1.8861   -1.4423 H   0  0  0  0  0  0  0  0  0  0  0  0
    4.0924   -1.6764   -2.1400 H   0  0  0  0  0  0  0  0  0  0  0  0
    7.2675   -0.4660   -2.3261 H   0  0  0  0  0  0  0  0  0  0  0  0
    4.5673    1.6969    0.5012 H   0  0  0  0  0  0  0  0  0  0  0  0
    2.2416    1.4885    1.1948 H   0  0  0  0  0  0  0  0  0  0  0  0
    0.3047    0.5759    2.2044 H   0  0  0  0  0  0  0  0  0  0  0  0
   -0.8343    1.2558   -1.3449 H   0  0  0  0  0  0  0  0  0  0  0  0
   -1.4304    3.5046   -2.1522 H   0  0  0  0  0  0  0  0  0  0  0  0
   -1.5619    5.4094   -0.5769 H   0  0  0  0  0  0  0  0  0  0  0  0
   -0.4950    2.8005    2.6743 H   0  0  0  0  0  0  0  0  0  0  0  0
   -1.4616   -0.8756    2.4911 H   0  0  0  0  0  0  0  0  0  0  0  0
   -2.4610    0.2423    1.5170 H   0  0  0  0  0  0  0  0  0  0  0  0
  1  2  1  0
  2  3  1  0
  2  4  1  0
  2  5  1  0
  5  6  2  0
  6  7  1  0
  7  8  1  0
  8  9  1  0
  9 10  2  0
 10 11  1  0
 11 12  1  0
 12 13  2  0
 12 14  1  0
 11 15  2  0
 15 16  1  0
  7 17  1  0
 17 18  1  0
 18 19  2  0
 19 20  1  0
 20 21  2  0
 21 22  1  0
 22 23  1  0
 22 24  2  0
 17 25  1  0
 25  5  1  0
 16  8  2  0
 24 18  1  0
  1 26  1  0
  1 27  1  0
  1 28  1  0
  3 29  1  0
  3 30  1  0
  3 31  1  0
  4 32  1  0
  4 33  1  0
  4 34  1  0
  9 35  1  0
 10 36  1  0
 14 37  1  0
 15 38  1  0
 16 39  1  0
 17 40  1  0
 19 41  1  0
 20 42  1  0
 21 43  1  0
 24 44  1  0
 25 45  1  0
 25 46  1  0
M  END
$$$$
