
     RDKit          3D

 67 71  0  0  0  0  0  0  0  0999 V2000
   -0.2340   -6.2334    0.4013 C   0  0  0  0  0  0  0  0  0  0  0  0
    0.7358   -5.2432    1.0208 C   0  0  0  0  0  0  0  0  0  0  0  0
    0.1707   -3.9406    0.8927 O   0  0  0  0  0  0  0  0  0  0  0  0
    0.8296   -2.8898    1.4709 C   0  0  0  0  0  0  0  0  0  0  0  0
    2.1098   -2.9818    2.0343 C   0  0  0  0  0  0  0  0  0  0  0  0
    2.7513   -1.8464    2.5429 C   0  0  0  0  0  0  0  0  0  0  0  0
    2.1180   -0.6044    2.4814 C   0  0  0  0  0  0  0  0  0  0  0  0
    2.9258    0.8447    3.1288 S   0  0  0  0  0  0  0  0  0  0  0  0
    4.0182    0.3898    3.9631 O   0  0  0  0  0  0  0  0  0  0  0  0
    1.8919    1.7097    3.6553 O   0  0  0  0  0  0  0  0  0  0  0  0
    3.5880    1.5754    1.7569 N   0  0  0  0  0  0  0  0  0  0  0  0
    2.6741    2.2477    0.7917 C   0  0  0  0  0  0  0  0  0  0  0  0
    2.7133    1.5776   -0.5951 C   0  0  0  0  0  0  0  0  0  0  0  0
    4.0545    1.4845   -1.2079 N   0  0  0  0  0  0  0  0  0  0  0  0
    4.2430    2.4797   -2.2607 C   0  0  0  0  0  0  0  0  0  0  0  0
    5.1304    1.5865   -0.1998 C   0  0  0  0  0  0  0  0  0  0  0  0
    4.7632    0.9078    1.1322 C   0  0  0  0  0  0  0  0  0  0  0  0
    0.8290   -0.4983    1.9627 C   0  0  0  0  0  0  0  0  0  0  0  0
    0.1903   -1.6364    1.4478 C   0  0  0  0  0  0  0  0  0  0  0  0
   -1.1605   -1.4353    0.8524 C   0  0  0  0  0  0  0  0  0  0  0  0
   -2.1209   -2.3670    1.1987 N   0  0  0  0  0  0  0  0  0  0  0  0
   -3.2881   -2.1954    0.6973 C   0  0  0  0  0  0  0  0  0  0  0  0
   -4.2838   -3.0492    0.9648 O   0  0  0  0  0  0  0  0  0  0  0  0
   -3.6094   -1.1249   -0.1437 C   0  0  0  0  0  0  0  0  0  0  0  0
   -4.7081   -0.6489   -0.8161 C   0  0  0  0  0  0  0  0  0  0  0  0
   -6.0823   -1.1913   -0.8760 C   0  0  0  0  0  0  0  0  0  0  0  0
   -4.3717    0.5047   -1.4938 N   0  0  0  0  0  0  0  0  0  0  0  0
   -3.0889    0.7128   -1.2408 C   0  0  0  0  0  0  0  0  0  0  0  0
   -2.2355    1.8414   -1.7334 C   0  0  0  0  0  0  0  0  0  0  0  0
   -2.1815    2.9850   -0.7029 C   0  0  0  0  0  0  0  0  0  0  0  0
   -2.5998    4.2468   -1.4500 C   0  0  0  0  0  0  0  0  0  0  0  0
   -3.4973    3.7363   -2.5628 C   0  0  0  0  0  0  0  0  0  0  0  0
   -2.7791    2.4763   -3.0224 C   0  0  0  0  0  0  0  0  0  0  0  0
   -2.5944   -0.2660   -0.4079 N   0  0  0  0  0  0  0  0  0  0  0  0
   -1.3444   -0.3916    0.0919 N   0  0  0  0  0  0  0  0  0  0  0  0
    0.1522   -7.2540    0.4719 H   0  0  0  0  0  0  0  0  0  0  0  0
   -1.2058   -6.1869    0.9042 H   0  0  0  0  0  0  0  0  0  0  0  0
   -0.4093   -5.9934   -0.6527 H   0  0  0  0  0  0  0  0  0  0  0  0
    0.8794   -5.4967    2.0775 H   0  0  0  0  0  0  0  0  0  0  0  0
    1.6908   -5.2951    0.4860 H   0  0  0  0  0  0  0  0  0  0  0  0
    2.6473   -3.9243    2.0806 H   0  0  0  0  0  0  0  0  0  0  0  0
    3.7456   -1.9418    2.9761 H   0  0  0  0  0  0  0  0  0  0  0  0
    1.6434    2.2623    1.1566 H   0  0  0  0  0  0  0  0  0  0  0  0
    2.9850    3.2965    0.7110 H   0  0  0  0  0  0  0  0  0  0  0  0
    2.0018    2.0791   -1.2630 H   0  0  0  0  0  0  0  0  0  0  0  0
    2.3434    0.5501   -0.4916 H   0  0  0  0  0  0  0  0  0  0  0  0
    5.2326    2.3734   -2.7188 H   0  0  0  0  0  0  0  0  0  0  0  0
    4.1437    3.5038   -1.8833 H   0  0  0  0  0  0  0  0  0  0  0  0
    3.5097    2.3343   -3.0617 H   0  0  0  0  0  0  0  0  0  0  0  0
    6.0363    1.1190   -0.6025 H   0  0  0  0  0  0  0  0  0  0  0  0
    5.3701    2.6390    0.0049 H   0  0  0  0  0  0  0  0  0  0  0  0
    4.5552   -0.1522    0.9541 H   0  0  0  0  0  0  0  0  0  0  0  0
    5.6163    0.9841    1.8149 H   0  0  0  0  0  0  0  0  0  0  0  0
    0.3155    0.4609    1.9559 H   0  0  0  0  0  0  0  0  0  0  0  0
   -3.9235   -3.7362    1.5492 H   0  0  0  0  0  0  0  0  0  0  0  0
   -6.7217   -0.5676   -1.5086 H   0  0  0  0  0  0  0  0  0  0  0  0
   -6.0784   -2.2035   -1.2919 H   0  0  0  0  0  0  0  0  0  0  0  0
   -6.5257   -1.2264    0.1239 H   0  0  0  0  0  0  0  0  0  0  0  0
   -1.2249    1.4624   -1.9321 H   0  0  0  0  0  0  0  0  0  0  0  0
   -1.1753    3.0969   -0.2838 H   0  0  0  0  0  0  0  0  0  0  0  0
   -2.8632    2.8109    0.1389 H   0  0  0  0  0  0  0  0  0  0  0  0
   -1.7168    4.7400   -1.8738 H   0  0  0  0  0  0  0  0  0  0  0  0
   -3.1081    4.9644   -0.7995 H   0  0  0  0  0  0  0  0  0  0  0  0
   -3.6141    4.4652   -3.3697 H   0  0  0  0  0  0  0  0  0  0  0  0
   -4.4915    3.4910   -2.1717 H   0  0  0  0  0  0  0  0  0  0  0  0
   -1.9369    2.7619   -3.6661 H   0  0  0  0  0  0  0  0  0  0  0  0
   -3.4298    1.8206   -3.6095 H   0  0  0  0  0  0  0  0  0  0  0  0
  1  2  1  0
  2  3  1  0
  3  4  1  0
  4  5  1  0
  5  6  2  0
  6  7  1  0
  7  8  1  0
  8  9  2  0
  8 10  2  0
  8 11  1  0
 11 12  1  0
 12 13  1  0
 13 14  1  0
 14 15  1  0
 14 16  1  0
 16 17  1  0
  7 18  2  0
 18 19  1  0
 19 20  1  0
 20 21  1  0
 21 22  2  0
 22 23  1  0
 22 24  1  0
 24 25  2  0
 25 26  1  0
 25 27  1  0
 27 28  2  0
 28 29  1  0
 29 30  1  0
 30 31  1  0
 31 32  1  0
 32 33  1  0
 28 34  1  0
 34 35  1  0
 19  4  2  0
 35 20  2  0
 17 11  1  0
 34 24  1  0
 33 29  1  0
  1 36  1  0
  1 37  1  0
  1 38  1  0
  2 39  1  0
  2 40  1  0
  5 41  1  0
  6 42  1  0
 12 43  1  0
 12 44  1  0
 13 45  1  0
 13 46  1  0
 15 47  1  0
 15 48  1  0
 15 49  1  0
 16 50  1  0
 16 51  1  0
 17 52  1  0
 17 53  1  0
 18 54  1  0
 23 55  1  0
 26 56  1  0
 26 57  1  0
 26 58  1  0
 29 59  1  0
 30 60  1  0
 30 61  1  0
 31 62  1  0
 31 63  1  0
 32 64  1  0
 32 65  1  0
 33 66  1  0
 33 67  1  0
M  END
$$$$
