


 39 42  0  0  0  0  0  0  0  0999 V2000
    3.6528   66.2440   84.9945 C   0  0  0  0  0  0  0  0  0  0  0  0
    4.4434   67.2219   84.3696 C   0  0  0  0  0  0  0  0  0  0  0  0
    3.9286   68.0046   83.3351 C   0  0  0  0  0  0  0  0  0  0  0  0
    2.6111   67.8191   82.9221 C   0  0  0  0  0  0  0  0  0  0  0  0
    1.8075   66.8511   83.5236 C   0  0  0  0  0  0  0  0  0  0  0  0
    2.3147   66.0570   84.5708 C   0  0  0  0  0  0  0  0  0  0  0  0
    1.3634   65.0536   85.1748 C   0  0  0  0  0  0  0  0  0  0  0  0
    0.4122   64.5497   84.4372 N   0  0  0  0  0  0  0  0  0  0  0  0
   -0.4044   63.6270   85.0914 C   0  0  0  0  0  0  0  0  0  0  0  0
   -1.4837   62.9087   84.5377 C   0  0  0  0  0  0  0  0  0  0  0  0
   -1.9684   62.1197   85.5718 C   0  0  0  0  0  0  0  0  0  0  0  0
   -1.2132   62.3579   86.6986 N   0  0  0  0  0  0  0  0  0  0  0  0
   -1.4133   61.7315   87.9854 C   0  0  0  0  0  0  0  0  0  0  0  0
   -0.2435   63.2763   86.4032 C   0  0  0  0  0  0  0  0  0  0  0  0
    0.7882   63.8303   87.2137 C   0  0  0  0  0  0  0  0  0  0  0  0
    0.9953   63.5702   88.3942 O   0  0  0  0  0  0  0  0  0  0  0  0
    1.5618   64.7204   86.5078 N   0  0  0  0  0  0  0  0  0  0  0  0
    2.3141   65.1533   87.0269 H   0  0  0  0  0  0  0  0  0  0  0  0
   -1.9940   62.9786   83.1369 C   0  0  0  0  0  0  0  0  0  0  0  0
   -2.3929   61.6048   82.5958 C   0  0  0  0  0  0  0  0  0  0  0  0
   -3.2182   61.7269   81.3250 C   0  0  0  0  0  0  0  0  0  0  0  0
    1.9677   68.8441   81.6228 S   0  0  0  0  0  0  0  0  0  0  0  0
    3.0683   69.3963   80.8650 O   0  0  0  0  0  0  0  0  0  0  0  0
    0.9571   69.6928   82.2154 O   0  0  0  0  0  0  0  0  0  0  0  0
    1.1822   67.6939   80.6313 N   0  0  0  0  0  0  0  0  0  0  0  0
    2.0752   66.9090   79.7287 C   0  0  0  0  0  0  0  0  0  0  0  0
    1.2553   66.0920   78.7233 C   0  0  0  0  0  0  0  0  0  0  0  0
   -0.1409   65.7327   79.2550 C   0  0  0  0  0  0  0  0  0  0  0  0
   -0.9216   67.0246   79.5744 C   0  0  0  0  0  0  0  0  0  0  0  0
   -0.0136   68.2097   79.9261 C   0  0  0  0  0  0  0  0  0  0  0  0
   -0.0822   64.8099   80.4910 C   0  0  0  0  0  0  0  0  0  0  0  0
   -0.5897   63.5257   80.1376 O   0  0  0  0  0  0  0  0  0  0  0  0
    0.4252   62.5403   80.0640 N   0  0  0  0  0  0  0  0  0  0  0  0
    0.7253   61.9558   81.1064 O   0  0  0  0  0  0  0  0  0  0  0  0
    0.8800   62.4095   78.9298 O   0  0  0  0  0  0  0  0  0  0  0  0
    4.1139   65.4526   86.0176 O   0  0  0  0  0  0  0  0  0  0  0  0
    5.4552   64.9598   85.9477 C   0  0  0  0  0  0  0  0  0  0  0  0
    5.4802   65.4164   88.4291 C   0  0  0  0  0  0  0  0  0  0  0  0
    6.2304   65.5618   87.1163 C   0  0  0  0  0  0  0  0  0  0  0  0
 38 39  1  0  0  0
 39 37  1  0  0  0
 37 36  1  0  0  0
 36  1  1  0  0  0
  1  2  1  0  0  0
  2  3  2  0  0  0
  3  4  1  0  0  0
  4 22  1  0  0  0
 22 23  2  0  0  0
 22 24  2  0  0  0
 22 25  1  0  0  0
 25 26  1  0  0  0
 26 27  1  0  0  0
 27 28  1  0  0  0
 28 31  1  0  0  0
 31 32  1  0  0  0
 32 33  1  0  0  0
 33 34  2  0  0  0
 33 35  1  0  0  0
 28 29  1  0  0  0
 29 30  1  0  0  0
  4  5  2  0  0  0
  5  6  1  0  0  0
  6  7  1  0  0  0
  7  8  2  0  0  0
  8  9  1  0  0  0
  9 10  1  0  0  0
 10 19  1  0  0  0
 19 20  1  0  0  0
 20 21  1  0  0  0
 10 11  2  0  0  0
 11 12  1  0  0  0
 12 13  1  0  0  0
 12 14  1  0  0  0
 14 15  1  0  0  0
 15 16  2  0  0  0
 15 17  1  0  0  0
  6  1  2  0  0  0
 17  7  1  0  0  0
 30 25  1  0  0  0
 14  9  2  0  0  0
 17 18  1  0  0  0
M  CHG 1  33   1
M  CHG 1  35  -1
M  END
> <minimizedAffinity>
-9.36865

$$$$



 39 42  0  0  0  0  0  0  0  0999 V2000
   -0.0586   63.3344   85.2405 C   0  0  0  0  0  0  0  0  0  0  0  0
   -0.9859   62.2808   85.2842 C   0  0  0  0  0  0  0  0  0  0  0  0
   -1.7804   61.9804   84.1768 C   0  0  0  0  0  0  0  0  0  0  0  0
   -1.6465   62.7299   83.0102 C   0  0  0  0  0  0  0  0  0  0  0  0
   -0.7363   63.7842   82.9435 C   0  0  0  0  0  0  0  0  0  0  0  0
    0.0734   64.0953   84.0536 C   0  0  0  0  0  0  0  0  0  0  0  0
    1.0445   65.2369   83.8784 C   0  0  0  0  0  0  0  0  0  0  0  0
    2.1748   65.2206   84.5302 N   0  0  0  0  0  0  0  0  0  0  0  0
    3.0008   66.3189   84.2898 C   0  0  0  0  0  0  0  0  0  0  0  0
    4.2823   66.5495   84.8300 C   0  0  0  0  0  0  0  0  0  0  0  0
    4.6965   67.7588   84.2888 C   0  0  0  0  0  0  0  0  0  0  0  0
    3.7033   68.2342   83.4616 N   0  0  0  0  0  0  0  0  0  0  0  0
    3.7566   69.4732   82.7199 C   0  0  0  0  0  0  0  0  0  0  0  0
    2.6637   67.3453   83.4515 C   0  0  0  0  0  0  0  0  0  0  0  0
    1.4275   67.3706   82.7450 C   0  0  0  0  0  0  0  0  0  0  0  0
    1.0522   68.2532   81.9805 O   0  0  0  0  0  0  0  0  0  0  0  0
    0.6679   66.2577   83.0162 N   0  0  0  0  0  0  0  0  0  0  0  0
   -0.2268   66.2139   82.5467 H   0  0  0  0  0  0  0  0  0  0  0  0
    5.0351   65.6773   85.7788 C   0  0  0  0  0  0  0  0  0  0  0  0
    5.5513   66.4512   86.9928 C   0  0  0  0  0  0  0  0  0  0  0  0
    5.5928   65.5740   88.2337 C   0  0  0  0  0  0  0  0  0  0  0  0
   -2.6476   62.3134   81.6041 S   0  0  0  0  0  0  0  0  0  0  0  0
   -3.5225   63.4233   81.2991 O   0  0  0  0  0  0  0  0  0  0  0  0
   -3.1667   60.9829   81.8344 O   0  0  0  0  0  0  0  0  0  0  0  0
   -1.4772   62.2202   80.3612 N   0  0  0  0  0  0  0  0  0  0  0  0
   -1.9822   61.7462   79.0390 C   0  0  0  0  0  0  0  0  0  0  0  0
   -0.8210   61.4699   78.0770 C   0  0  0  0  0  0  0  0  0  0  0  0
    0.4194   62.3208   78.3906 C   0  0  0  0  0  0  0  0  0  0  0  0
    0.9028   62.0225   79.8251 C   0  0  0  0  0  0  0  0  0  0  0  0
   -0.2193   61.5450   80.7553 C   0  0  0  0  0  0  0  0  0  0  0  0
    0.1617   63.8312   78.2037 C   0  0  0  0  0  0  0  0  0  0  0  0
    1.3299   64.5535   78.5848 O   0  0  0  0  0  0  0  0  0  0  0  0
    1.0344   65.6833   79.3863 N   0  0  0  0  0  0  0  0  0  0  0  0
    0.0006   65.6493   80.0560 O   0  0  0  0  0  0  0  0  0  0  0  0
    1.8809   66.5690   79.2906 O   0  0  0  0  0  0  0  0  0  0  0  0
    0.7464   63.6654   86.3026 O   0  0  0  0  0  0  0  0  0  0  0  0
    0.1277   64.0645   87.5293 C   0  0  0  0  0  0  0  0  0  0  0  0
    0.1084   62.0835   89.0918 C   0  0  0  0  0  0  0  0  0  0  0  0
    0.8453   63.3416   88.6656 C   0  0  0  0  0  0  0  0  0  0  0  0
 38 39  1  0  0  0
 39 37  1  0  0  0
 37 36  1  0  0  0
 36  1  1  0  0  0
  1  2  1  0  0  0
  2  3  2  0  0  0
  3  4  1  0  0  0
  4 22  1  0  0  0
 22 23  2  0  0  0
 22 24  2  0  0  0
 22 25  1  0  0  0
 25 26  1  0  0  0
 26 27  1  0  0  0
 27 28  1  0  0  0
 28 31  1  0  0  0
 31 32  1  0  0  0
 32 33  1  0  0  0
 33 34  2  0  0  0
 33 35  1  0  0  0
 28 29  1  0  0  0
 29 30  1  0  0  0
  4  5  2  0  0  0
  5  6  1  0  0  0
  6  7  1  0  0  0
  7  8  2  0  0  0
  8  9  1  0  0  0
  9 10  1  0  0  0
 10 19  1  0  0  0
 19 20  1  0  0  0
 20 21  1  0  0  0
 10 11  2  0  0  0
 11 12  1  0  0  0
 12 13  1  0  0  0
 12 14  1  0  0  0
 14 15  1  0  0  0
 15 16  2  0  0  0
 15 17  1  0  0  0
  6  1  2  0  0  0
 17  7  1  0  0  0
 30 25  1  0  0  0
 14  9  2  0  0  0
 17 18  1  0  0  0
M  CHG 1  33   1
M  CHG 1  35  -1
M  END
> <minimizedAffinity>
-9.21597

$$$$



 39 42  0  0  0  0  0  0  0  0999 V2000
   -0.3789   64.2915   82.1033 C   0  0  0  0  0  0  0  0  0  0  0  0
   -0.9128   63.1016   81.5825 C   0  0  0  0  0  0  0  0  0  0  0  0
   -0.8176   62.8104   80.2209 C   0  0  0  0  0  0  0  0  0  0  0  0
   -0.1780   63.7075   79.3684 C   0  0  0  0  0  0  0  0  0  0  0  0
    0.3559   64.8980   79.8605 C   0  0  0  0  0  0  0  0  0  0  0  0
    0.2689   65.2018   81.2333 C   0  0  0  0  0  0  0  0  0  0  0  0
    0.8964   66.5009   81.6753 C   0  0  0  0  0  0  0  0  0  0  0  0
    1.8995   66.4754   82.5095 N   0  0  0  0  0  0  0  0  0  0  0  0
    2.4087   67.7299   82.8456 C   0  0  0  0  0  0  0  0  0  0  0  0
    3.5003   68.0013   83.6954 C   0  0  0  0  0  0  0  0  0  0  0  0
    3.6224   69.3840   83.7058 C   0  0  0  0  0  0  0  0  0  0  0  0
    2.6428   69.9186   82.8987 N   0  0  0  0  0  0  0  0  0  0  0  0
    2.4369   71.3285   82.6582 C   0  0  0  0  0  0  0  0  0  0  0  0
    1.9018   68.9032   82.3594 C   0  0  0  0  0  0  0  0  0  0  0  0
    0.8018   68.9354   81.4555 C   0  0  0  0  0  0  0  0  0  0  0  0
    0.2898   69.9429   80.9790 O   0  0  0  0  0  0  0  0  0  0  0  0
    0.3563   67.6699   81.1568 N   0  0  0  0  0  0  0  0  0  0  0  0
   -0.4274   67.6214   80.5195 H   0  0  0  0  0  0  0  0  0  0  0  0
    4.3470   67.0124   84.4253 C   0  0  0  0  0  0  0  0  0  0  0  0
    5.5495   67.6687   85.1053 C   0  0  0  0  0  0  0  0  0  0  0  0
    5.5867   67.3538   86.5920 C   0  0  0  0  0  0  0  0  0  0  0  0
   -0.0441   63.3046   77.6443 S   0  0  0  0  0  0  0  0  0  0  0  0
    1.2278   62.6601   77.4050 O   0  0  0  0  0  0  0  0  0  0  0  0
   -0.4471   64.4798   76.9033 O   0  0  0  0  0  0  0  0  0  0  0  0
   -1.2652   62.1207   77.4696 N   0  0  0  0  0  0  0  0  0  0  0  0
   -0.8683   60.8969   76.7127 C   0  0  0  0  0  0  0  0  0  0  0  0
   -2.0898   60.0220   76.4078 C   0  0  0  0  0  0  0  0  0  0  0  0
   -3.2142   60.1994   77.4399 C   0  0  0  0  0  0  0  0  0  0  0  0
   -3.6715   61.6728   77.4594 C   0  0  0  0  0  0  0  0  0  0  0  0
   -2.5742   62.6533   77.0267 C   0  0  0  0  0  0  0  0  0  0  0  0
   -2.7969   59.7380   78.8525 C   0  0  0  0  0  0  0  0  0  0  0  0
   -3.4464   60.5576   79.8209 O   0  0  0  0  0  0  0  0  0  0  0  0
   -3.3886   60.0093   81.1256 N   0  0  0  0  0  0  0  0  0  0  0  0
   -3.5256   60.7845   82.0735 O   0  0  0  0  0  0  0  0  0  0  0  0
   -3.1982   58.7952   81.1234 O   0  0  0  0  0  0  0  0  0  0  0  0
   -0.4454   64.6198   83.4350 O   0  0  0  0  0  0  0  0  0  0  0  0
    0.2566   63.8016   84.3754 C   0  0  0  0  0  0  0  0  0  0  0  0
    0.4471   64.1931   86.8607 C   0  0  0  0  0  0  0  0  0  0  0  0
    0.7893   64.7149   85.4758 C   0  0  0  0  0  0  0  0  0  0  0  0
 38 39  1  0  0  0
 39 37  1  0  0  0
 37 36  1  0  0  0
 36  1  1  0  0  0
  1  2  1  0  0  0
  2  3  2  0  0  0
  3  4  1  0  0  0
  4 22  1  0  0  0
 22 23  2  0  0  0
 22 24  2  0  0  0
 22 25  1  0  0  0
 25 26  1  0  0  0
 26 27  1  0  0  0
 27 28  1  0  0  0
 28 31  1  0  0  0
 31 32  1  0  0  0
 32 33  1  0  0  0
 33 34  2  0  0  0
 33 35  1  0  0  0
 28 29  1  0  0  0
 29 30  1  0  0  0
  4  5  2  0  0  0
  5  6  1  0  0  0
  6  7  1  0  0  0
  7  8  2  0  0  0
  8  9  1  0  0  0
  9 10  1  0  0  0
 10 19  1  0  0  0
 19 20  1  0  0  0
 20 21  1  0  0  0
 10 11  2  0  0  0
 11 12  1  0  0  0
 12 13  1  0  0  0
 12 14  1  0  0  0
 14 15  1  0  0  0
 15 16  2  0  0  0
 15 17  1  0  0  0
  6  1  2  0  0  0
 17  7  1  0  0  0
 30 25  1  0  0  0
 14  9  2  0  0  0
 17 18  1  0  0  0
M  CHG 1  33   1
M  CHG 1  35  -1
M  END
> <minimizedAffinity>
-9.16534

$$$$



 39 42  0  0  0  0  0  0  0  0999 V2000
    0.3964   65.2125   82.4975 C   0  0  0  0  0  0  0  0  0  0  0  0
    0.0624   63.8849   82.1844 C   0  0  0  0  0  0  0  0  0  0  0  0
   -0.0432   63.4678   80.8567 C   0  0  0  0  0  0  0  0  0  0  0  0
    0.1935   64.3776   79.8287 C   0  0  0  0  0  0  0  0  0  0  0  0
    0.5218   65.7025   80.1139 C   0  0  0  0  0  0  0  0  0  0  0  0
    0.6344   66.1349   81.4498 C   0  0  0  0  0  0  0  0  0  0  0  0
    1.0170   67.5795   81.6588 C   0  0  0  0  0  0  0  0  0  0  0  0
    0.2587   68.5196   81.1652 N   0  0  0  0  0  0  0  0  0  0  0  0
    0.6995   69.8179   81.4231 C   0  0  0  0  0  0  0  0  0  0  0  0
    0.0683   71.0188   81.0397 C   0  0  0  0  0  0  0  0  0  0  0  0
    0.8789   72.0326   81.5314 C   0  0  0  0  0  0  0  0  0  0  0  0
    1.9524   71.4629   82.1794 N   0  0  0  0  0  0  0  0  0  0  0  0
    3.0237   72.1915   82.8193 C   0  0  0  0  0  0  0  0  0  0  0  0
    1.8389   70.1009   82.1241 C   0  0  0  0  0  0  0  0  0  0  0  0
    2.6735   69.0774   82.6570 C   0  0  0  0  0  0  0  0  0  0  0  0
    3.7088   69.2492   83.2917 O   0  0  0  0  0  0  0  0  0  0  0  0
    2.1782   67.8258   82.3787 N   0  0  0  0  0  0  0  0  0  0  0  0
    2.7262   67.0511   82.7282 H   0  0  0  0  0  0  0  0  0  0  0  0
   -1.2028   71.1683   80.2719 C   0  0  0  0  0  0  0  0  0  0  0  0
   -1.5912   72.6342   80.0731 C   0  0  0  0  0  0  0  0  0  0  0  0
   -2.7035   72.7795   79.0472 C   0  0  0  0  0  0  0  0  0  0  0  0
    0.0806   63.8191   78.1470 S   0  0  0  0  0  0  0  0  0  0  0  0
    1.3025   63.1327   77.7919 O   0  0  0  0  0  0  0  0  0  0  0  0
   -0.4167   64.9301   77.3653 O   0  0  0  0  0  0  0  0  0  0  0  0
   -1.1592   62.6466   78.2541 N   0  0  0  0  0  0  0  0  0  0  0  0
   -0.6961   61.2353   78.4018 C   0  0  0  0  0  0  0  0  0  0  0  0
   -1.8656   60.2565   78.2444 C   0  0  0  0  0  0  0  0  0  0  0  0
   -3.2130   60.8794   78.6410 C   0  0  0  0  0  0  0  0  0  0  0  0
   -3.4949   62.1109   77.7553 C   0  0  0  0  0  0  0  0  0  0  0  0
   -2.2204   62.7837   77.2302 C   0  0  0  0  0  0  0  0  0  0  0  0
   -3.2714   61.2569   80.1366 C   0  0  0  0  0  0  0  0  0  0  0  0
   -3.3177   60.0646   80.9162 O   0  0  0  0  0  0  0  0  0  0  0  0
   -2.5626   60.1650   82.1104 N   0  0  0  0  0  0  0  0  0  0  0  0
   -3.1349   59.8954   83.1679 O   0  0  0  0  0  0  0  0  0  0  0  0
   -1.4043   60.5245   81.9121 O   0  0  0  0  0  0  0  0  0  0  0  0
    0.5148   65.6684   83.7874 O   0  0  0  0  0  0  0  0  0  0  0  0
    1.3959   64.9769   84.6773 C   0  0  0  0  0  0  0  0  0  0  0  0
   -0.1033   63.2925   85.8094 C   0  0  0  0  0  0  0  0  0  0  0  0
    0.6044   64.6307   85.9353 C   0  0  0  0  0  0  0  0  0  0  0  0
 38 39  1  0  0  0
 39 37  1  0  0  0
 37 36  1  0  0  0
 36  1  1  0  0  0
  1  2  1  0  0  0
  2  3  2  0  0  0
  3  4  1  0  0  0
  4 22  1  0  0  0
 22 23  2  0  0  0
 22 24  2  0  0  0
 22 25  1  0  0  0
 25 26  1  0  0  0
 26 27  1  0  0  0
 27 28  1  0  0  0
 28 31  1  0  0  0
 31 32  1  0  0  0
 32 33  1  0  0  0
 33 34  2  0  0  0
 33 35  1  0  0  0
 28 29  1  0  0  0
 29 30  1  0  0  0
  4  5  2  0  0  0
  5  6  1  0  0  0
  6  7  1  0  0  0
  7  8  2  0  0  0
  8  9  1  0  0  0
  9 10  1  0  0  0
 10 19  1  0  0  0
 19 20  1  0  0  0
 20 21  1  0  0  0
 10 11  2  0  0  0
 11 12  1  0  0  0
 12 13  1  0  0  0
 12 14  1  0  0  0
 14 15  1  0  0  0
 15 16  2  0  0  0
 15 17  1  0  0  0
  6  1  2  0  0  0
 17  7  1  0  0  0
 30 25  1  0  0  0
 14  9  2  0  0  0
 17 18  1  0  0  0
M  CHG 1  33   1
M  CHG 1  35  -1
M  END
> <minimizedAffinity>
-9.14742

$$$$



 39 42  0  0  0  0  0  0  0  0999 V2000
   -1.4230   62.8057   83.7102 C   0  0  0  0  0  0  0  0  0  0  0  0
   -2.1608   61.6147   83.8066 C   0  0  0  0  0  0  0  0  0  0  0  0
   -2.7821   61.0651   82.6842 C   0  0  0  0  0  0  0  0  0  0  0  0
   -2.6624   61.7014   81.4507 C   0  0  0  0  0  0  0  0  0  0  0  0
   -1.9393   62.8876   81.3302 C   0  0  0  0  0  0  0  0  0  0  0  0
   -1.3051   63.4506   82.4551 C   0  0  0  0  0  0  0  0  0  0  0  0
   -0.5263   64.7218   82.2217 C   0  0  0  0  0  0  0  0  0  0  0  0
    0.4911   64.9986   82.9903 N   0  0  0  0  0  0  0  0  0  0  0  0
    1.1445   66.1923   82.6830 C   0  0  0  0  0  0  0  0  0  0  0  0
    2.2830   66.7239   83.3223 C   0  0  0  0  0  0  0  0  0  0  0  0
    2.5566   67.9111   82.6571 C   0  0  0  0  0  0  0  0  0  0  0  0
    1.6193   68.0850   81.6631 N   0  0  0  0  0  0  0  0  0  0  0  0
    1.5628   69.2087   80.7563 C   0  0  0  0  0  0  0  0  0  0  0  0
    0.7561   67.0239   81.6694 C   0  0  0  0  0  0  0  0  0  0  0  0
   -0.3589   66.7292   80.8338 C   0  0  0  0  0  0  0  0  0  0  0  0
   -0.7703   67.4229   79.9098 O   0  0  0  0  0  0  0  0  0  0  0  0
   -0.9491   65.5375   81.1810 N   0  0  0  0  0  0  0  0  0  0  0  0
   -1.7511   65.2690   80.6265 H   0  0  0  0  0  0  0  0  0  0  0  0
    3.0361   66.1339   84.4678 C   0  0  0  0  0  0  0  0  0  0  0  0
    4.5362   66.4205   84.3847 C   0  0  0  0  0  0  0  0  0  0  0  0
    5.3263   65.5185   85.3190 C   0  0  0  0  0  0  0  0  0  0  0  0
   -3.4379   60.9705   80.0304 S   0  0  0  0  0  0  0  0  0  0  0  0
   -4.7836   61.4846   79.9075 O   0  0  0  0  0  0  0  0  0  0  0  0
   -3.1741   59.5494   80.0896 O   0  0  0  0  0  0  0  0  0  0  0  0
   -2.5130   61.6307   78.7529 N   0  0  0  0  0  0  0  0  0  0  0  0
   -3.2994   62.1808   77.6096 C   0  0  0  0  0  0  0  0  0  0  0  0
   -2.3830   62.5198   76.4283 C   0  0  0  0  0  0  0  0  0  0  0  0
   -0.9517   62.8607   76.8713 C   0  0  0  0  0  0  0  0  0  0  0  0
   -0.3422   61.6588   77.6226 C   0  0  0  0  0  0  0  0  0  0  0  0
   -1.3938   60.7723   78.3014 C   0  0  0  0  0  0  0  0  0  0  0  0
   -0.8904   64.1358   77.7391 C   0  0  0  0  0  0  0  0  0  0  0  0
    0.3043   64.8502   77.4330 O   0  0  0  0  0  0  0  0  0  0  0  0
    1.1955   64.9176   78.5319 N   0  0  0  0  0  0  0  0  0  0  0  0
    1.0983   64.0441   79.3956 O   0  0  0  0  0  0  0  0  0  0  0  0
    1.9619   65.8759   78.4649 O   0  0  0  0  0  0  0  0  0  0  0  0
   -0.7921   63.3824   84.7850 O   0  0  0  0  0  0  0  0  0  0  0  0
   -0.5693   62.5868   85.9529 C   0  0  0  0  0  0  0  0  0  0  0  0
   -2.6904   62.9827   87.2606 C   0  0  0  0  0  0  0  0  0  0  0  0
   -1.2123   63.3087   87.1337 C   0  0  0  0  0  0  0  0  0  0  0  0
 38 39  1  0  0  0
 39 37  1  0  0  0
 37 36  1  0  0  0
 36  1  1  0  0  0
  1  2  1  0  0  0
  2  3  2  0  0  0
  3  4  1  0  0  0
  4 22  1  0  0  0
 22 23  2  0  0  0
 22 24  2  0  0  0
 22 25  1  0  0  0
 25 26  1  0  0  0
 26 27  1  0  0  0
 27 28  1  0  0  0
 28 31  1  0  0  0
 31 32  1  0  0  0
 32 33  1  0  0  0
 33 34  2  0  0  0
 33 35  1  0  0  0
 28 29  1  0  0  0
 29 30  1  0  0  0
  4  5  2  0  0  0
  5  6  1  0  0  0
  6  7  1  0  0  0
  7  8  2  0  0  0
  8  9  1  0  0  0
  9 10  1  0  0  0
 10 19  1  0  0  0
 19 20  1  0  0  0
 20 21  1  0  0  0
 10 11  2  0  0  0
 11 12  1  0  0  0
 12 13  1  0  0  0
 12 14  1  0  0  0
 14 15  1  0  0  0
 15 16  2  0  0  0
 15 17  1  0  0  0
  6  1  2  0  0  0
 17  7  1  0  0  0
 30 25  1  0  0  0
 14  9  2  0  0  0
 17 18  1  0  0  0
M  CHG 1  33   1
M  CHG 1  35  -1
M  END
> <minimizedAffinity>
-9.11603

$$$$



 39 42  0  0  0  0  0  0  0  0999 V2000
    2.2576   66.9273   83.7410 C   0  0  0  0  0  0  0  0  0  0  0  0
    2.6012   67.6877   82.6115 C   0  0  0  0  0  0  0  0  0  0  0  0
    2.1228   67.3453   81.3459 C   0  0  0  0  0  0  0  0  0  0  0  0
    1.2872   66.2400   81.2020 C   0  0  0  0  0  0  0  0  0  0  0  0
    0.9356   65.4662   82.3075 C   0  0  0  0  0  0  0  0  0  0  0  0
    1.4096   65.8033   83.5905 C   0  0  0  0  0  0  0  0  0  0  0  0
    0.9562   64.9213   84.7278 C   0  0  0  0  0  0  0  0  0  0  0  0
   -0.1619   64.2580   84.6160 N   0  0  0  0  0  0  0  0  0  0  0  0
   -0.4827   63.4683   85.7204 C   0  0  0  0  0  0  0  0  0  0  0  0
   -1.6063   62.6291   85.8642 C   0  0  0  0  0  0  0  0  0  0  0  0
   -1.4766   62.0543   87.1210 C   0  0  0  0  0  0  0  0  0  0  0  0
   -0.3252   62.5317   87.7068 N   0  0  0  0  0  0  0  0  0  0  0  0
    0.1522   62.1735   89.0228 C   0  0  0  0  0  0  0  0  0  0  0  0
    0.2940   63.3930   86.8433 C   0  0  0  0  0  0  0  0  0  0  0  0
    1.5106   64.1219   86.9722 C   0  0  0  0  0  0  0  0  0  0  0  0
    2.2584   64.1101   87.9444 O   0  0  0  0  0  0  0  0  0  0  0  0
    1.7737   64.8684   85.8485 N   0  0  0  0  0  0  0  0  0  0  0  0
    2.6249   65.4138   85.8754 H   0  0  0  0  0  0  0  0  0  0  0  0
   -2.7004   62.4037   84.8743 C   0  0  0  0  0  0  0  0  0  0  0  0
   -2.1962   61.7333   83.5954 C   0  0  0  0  0  0  0  0  0  0  0  0
   -3.0900   60.5735   83.1871 C   0  0  0  0  0  0  0  0  0  0  0  0
    0.6679   65.8382   79.5871 S   0  0  0  0  0  0  0  0  0  0  0  0
    1.7428   65.9461   78.6263 O   0  0  0  0  0  0  0  0  0  0  0  0
   -0.5725   66.5632   79.4180 O   0  0  0  0  0  0  0  0  0  0  0  0
    0.2949   64.1789   79.7623 N   0  0  0  0  0  0  0  0  0  0  0  0
    0.9103   63.2727   78.7483 C   0  0  0  0  0  0  0  0  0  0  0  0
    0.3229   61.8602   78.8488 C   0  0  0  0  0  0  0  0  0  0  0  0
   -0.1805   61.5304   80.2626 C   0  0  0  0  0  0  0  0  0  0  0  0
   -1.2769   62.5366   80.6697 C   0  0  0  0  0  0  0  0  0  0  0  0
   -1.1438   63.8941   79.9683 C   0  0  0  0  0  0  0  0  0  0  0  0
    0.9580   61.5111   81.3048 C   0  0  0  0  0  0  0  0  0  0  0  0
    2.0648   60.7882   80.7720 O   0  0  0  0  0  0  0  0  0  0  0  0
    2.9534   60.3339   81.7772 N   0  0  0  0  0  0  0  0  0  0  0  0
    4.0991   60.0404   81.4313 O   0  0  0  0  0  0  0  0  0  0  0  0
    2.4323   60.2920   82.8893 O   0  0  0  0  0  0  0  0  0  0  0  0
    2.7009   67.2265   85.0058 O   0  0  0  0  0  0  0  0  0  0  0  0
    4.0639   67.6272   85.1742 C   0  0  0  0  0  0  0  0  0  0  0  0
    6.2403   66.5984   84.4185 C   0  0  0  0  0  0  0  0  0  0  0  0
    4.9238   66.3670   85.1401 C   0  0  0  0  0  0  0  0  0  0  0  0
 38 39  1  0  0  0
 39 37  1  0  0  0
 37 36  1  0  0  0
 36  1  1  0  0  0
  1  2  1  0  0  0
  2  3  2  0  0  0
  3  4  1  0  0  0
  4 22  1  0  0  0
 22 23  2  0  0  0
 22 24  2  0  0  0
 22 25  1  0  0  0
 25 26  1  0  0  0
 26 27  1  0  0  0
 27 28  1  0  0  0
 28 31  1  0  0  0
 31 32  1  0  0  0
 32 33  1  0  0  0
 33 34  2  0  0  0
 33 35  1  0  0  0
 28 29  1  0  0  0
 29 30  1  0  0  0
  4  5  2  0  0  0
  5  6  1  0  0  0
  6  7  1  0  0  0
  7  8  2  0  0  0
  8  9  1  0  0  0
  9 10  1  0  0  0
 10 19  1  0  0  0
 19 20  1  0  0  0
 20 21  1  0  0  0
 10 11  2  0  0  0
 11 12  1  0  0  0
 12 13  1  0  0  0
 12 14  1  0  0  0
 14 15  1  0  0  0
 15 16  2  0  0  0
 15 17  1  0  0  0
  6  1  2  0  0  0
 17  7  1  0  0  0
 30 25  1  0  0  0
 14  9  2  0  0  0
 17 18  1  0  0  0
M  CHG 1  33   1
M  CHG 1  35  -1
M  END
> <minimizedAffinity>
-9.03583

$$$$



 39 42  0  0  0  0  0  0  0  0999 V2000
    4.2961   66.2261   84.9426 C   0  0  0  0  0  0  0  0  0  0  0  0
    5.2794   67.1892   84.6641 C   0  0  0  0  0  0  0  0  0  0  0  0
    4.9958   68.2866   83.8498 C   0  0  0  0  0  0  0  0  0  0  0  0
    3.7189   68.4330   83.3125 C   0  0  0  0  0  0  0  0  0  0  0  0
    2.7268   67.4877   83.5703 C   0  0  0  0  0  0  0  0  0  0  0  0
    2.9998   66.3774   84.3932 C   0  0  0  0  0  0  0  0  0  0  0  0
    1.8571   65.4217   84.6337 C   0  0  0  0  0  0  0  0  0  0  0  0
    1.3424   64.7738   83.6248 N   0  0  0  0  0  0  0  0  0  0  0  0
    0.2977   63.9116   83.9591 C   0  0  0  0  0  0  0  0  0  0  0  0
   -0.4198   63.0707   83.0842 C   0  0  0  0  0  0  0  0  0  0  0  0
   -1.3420   62.4101   83.8841 C   0  0  0  0  0  0  0  0  0  0  0  0
   -1.1857   62.8398   85.1832 N   0  0  0  0  0  0  0  0  0  0  0  0
   -1.9684   62.3893   86.3113 C   0  0  0  0  0  0  0  0  0  0  0  0
   -0.1705   63.7551   85.2343 C   0  0  0  0  0  0  0  0  0  0  0  0
    0.3833   64.4668   86.3366 C   0  0  0  0  0  0  0  0  0  0  0  0
    0.0183   64.3840   87.5046 O   0  0  0  0  0  0  0  0  0  0  0  0
    1.4128   65.2874   85.9420 N   0  0  0  0  0  0  0  0  0  0  0  0
    1.8502   65.8250   86.6785 H   0  0  0  0  0  0  0  0  0  0  0  0
   -0.2263   62.9199   81.6120 C   0  0  0  0  0  0  0  0  0  0  0  0
    0.1828   61.4983   81.2236 C   0  0  0  0  0  0  0  0  0  0  0  0
    1.4536   61.0711   81.9400 C   0  0  0  0  0  0  0  0  0  0  0  0
    3.3719   69.8508   82.3014 S   0  0  0  0  0  0  0  0  0  0  0  0
    4.4428   70.0258   81.3460 O   0  0  0  0  0  0  0  0  0  0  0  0
    2.9724   70.9178   83.1928 O   0  0  0  0  0  0  0  0  0  0  0  0
    1.9894   69.3315   81.4398 N   0  0  0  0  0  0  0  0  0  0  0  0
    2.1680   69.1924   79.9644 C   0  0  0  0  0  0  0  0  0  0  0  0
    0.8210   68.9619   79.2696 C   0  0  0  0  0  0  0  0  0  0  0  0
   -0.2076   68.2840   80.1881 C   0  0  0  0  0  0  0  0  0  0  0  0
   -0.4526   69.1654   81.4305 C   0  0  0  0  0  0  0  0  0  0  0  0
    0.7448   70.0549   81.7877 C   0  0  0  0  0  0  0  0  0  0  0  0
    0.2201   66.8603   80.6037 C   0  0  0  0  0  0  0  0  0  0  0  0
   -0.3096   65.9236   79.6691 O   0  0  0  0  0  0  0  0  0  0  0  0
    0.6584   65.4789   78.7355 N   0  0  0  0  0  0  0  0  0  0  0  0
    1.8436   65.6747   79.0102 O   0  0  0  0  0  0  0  0  0  0  0  0
    0.1573   64.9467   77.7477 O   0  0  0  0  0  0  0  0  0  0  0  0
    4.5268   65.1322   85.7399 O   0  0  0  0  0  0  0  0  0  0  0  0
    5.7222   65.1001   86.5252 C   0  0  0  0  0  0  0  0  0  0  0  0
    5.8811   65.3127   89.0343 C   0  0  0  0  0  0  0  0  0  0  0  0
    5.5051   66.0042   87.7352 C   0  0  0  0  0  0  0  0  0  0  0  0
 38 39  1  0  0  0
 39 37  1  0  0  0
 37 36  1  0  0  0
 36  1  1  0  0  0
  1  2  1  0  0  0
  2  3  2  0  0  0
  3  4  1  0  0  0
  4 22  1  0  0  0
 22 23  2  0  0  0
 22 24  2  0  0  0
 22 25  1  0  0  0
 25 26  1  0  0  0
 26 27  1  0  0  0
 27 28  1  0  0  0
 28 31  1  0  0  0
 31 32  1  0  0  0
 32 33  1  0  0  0
 33 34  2  0  0  0
 33 35  1  0  0  0
 28 29  1  0  0  0
 29 30  1  0  0  0
  4  5  2  0  0  0
  5  6  1  0  0  0
  6  7  1  0  0  0
  7  8  2  0  0  0
  8  9  1  0  0  0
  9 10  1  0  0  0
 10 19  1  0  0  0
 19 20  1  0  0  0
 20 21  1  0  0  0
 10 11  2  0  0  0
 11 12  1  0  0  0
 12 13  1  0  0  0
 12 14  1  0  0  0
 14 15  1  0  0  0
 15 16  2  0  0  0
 15 17  1  0  0  0
  6  1  2  0  0  0
 17  7  1  0  0  0
 30 25  1  0  0  0
 14  9  2  0  0  0
 17 18  1  0  0  0
M  CHG 1  33   1
M  CHG 1  35  -1
M  END
> <minimizedAffinity>
-9.02330

$$$$



 39 42  0  0  0  0  0  0  0  0999 V2000
    0.2835   63.6348   85.3156 C   0  0  0  0  0  0  0  0  0  0  0  0
    0.9418   64.5586   86.1435 C   0  0  0  0  0  0  0  0  0  0  0  0
    1.6501   65.6303   85.5982 C   0  0  0  0  0  0  0  0  0  0  0  0
    1.6984   65.7908   84.2152 C   0  0  0  0  0  0  0  0  0  0  0  0
    1.0571   64.8843   83.3718 C   0  0  0  0  0  0  0  0  0  0  0  0
    0.3364   63.8002   83.9102 C   0  0  0  0  0  0  0  0  0  0  0  0
   -0.3434   62.8868   82.9200 C   0  0  0  0  0  0  0  0  0  0  0  0
    0.0649   62.8701   81.6808 N   0  0  0  0  0  0  0  0  0  0  0  0
   -0.6263   61.9855   80.8525 C   0  0  0  0  0  0  0  0  0  0  0  0
   -0.3834   61.7393   79.4858 C   0  0  0  0  0  0  0  0  0  0  0  0
   -1.3172   60.7819   79.1138 C   0  0  0  0  0  0  0  0  0  0  0  0
   -2.0891   60.4701   80.2109 N   0  0  0  0  0  0  0  0  0  0  0  0
   -3.1763   59.5183   80.2234 C   0  0  0  0  0  0  0  0  0  0  0  0
   -1.6593   61.2006   81.2846 C   0  0  0  0  0  0  0  0  0  0  0  0
   -2.1131   61.2223   82.6343 C   0  0  0  0  0  0  0  0  0  0  0  0
   -3.0314   60.5537   83.0967 O   0  0  0  0  0  0  0  0  0  0  0  0
   -1.3849   62.1032   83.3978 N   0  0  0  0  0  0  0  0  0  0  0  0
   -1.6580   62.1690   84.3693 H   0  0  0  0  0  0  0  0  0  0  0  0
    0.6583   62.3706   78.6234 C   0  0  0  0  0  0  0  0  0  0  0  0
    0.0566   63.3302   77.5956 C   0  0  0  0  0  0  0  0  0  0  0  0
    0.1195   64.7706   78.0775 C   0  0  0  0  0  0  0  0  0  0  0  0
    2.5822   67.1767   83.5435 S   0  0  0  0  0  0  0  0  0  0  0  0
    1.9187   68.3991   83.9382 O   0  0  0  0  0  0  0  0  0  0  0  0
    2.8472   66.8753   82.1536 O   0  0  0  0  0  0  0  0  0  0  0  0
    4.0608   67.0913   84.3978 N   0  0  0  0  0  0  0  0  0  0  0  0
    4.0972   67.8335   85.6923 C   0  0  0  0  0  0  0  0  0  0  0  0
    5.5246   67.8932   86.2487 C   0  0  0  0  0  0  0  0  0  0  0  0
    6.3867   66.7076   85.7883 C   0  0  0  0  0  0  0  0  0  0  0  0
    6.4717   66.6965   84.2478 C   0  0  0  0  0  0  0  0  0  0  0  0
    5.2611   67.3500   83.5698 C   0  0  0  0  0  0  0  0  0  0  0  0
    5.8614   65.3556   86.3165 C   0  0  0  0  0  0  0  0  0  0  0  0
    6.3116   65.1727   87.6564 O   0  0  0  0  0  0  0  0  0  0  0  0
    5.2551   65.2283   88.5983 N   0  0  0  0  0  0  0  0  0  0  0  0
    4.1430   64.8497   88.2266 O   0  0  0  0  0  0  0  0  0  0  0  0
    5.6129   65.6670   89.6891 O   0  0  0  0  0  0  0  0  0  0  0  0
   -0.4277   62.5672   85.8054 O   0  0  0  0  0  0  0  0  0  0  0  0
   -0.5726   62.4364   87.2227 C   0  0  0  0  0  0  0  0  0  0  0  0
   -2.9792   62.8612   86.5950 C   0  0  0  0  0  0  0  0  0  0  0  0
   -1.8838   63.1098   87.6176 C   0  0  0  0  0  0  0  0  0  0  0  0
 38 39  1  0  0  0
 39 37  1  0  0  0
 37 36  1  0  0  0
 36  1  1  0  0  0
  1  2  1  0  0  0
  2  3  2  0  0  0
  3  4  1  0  0  0
  4 22  1  0  0  0
 22 23  2  0  0  0
 22 24  2  0  0  0
 22 25  1  0  0  0
 25 26  1  0  0  0
 26 27  1  0  0  0
 27 28  1  0  0  0
 28 31  1  0  0  0
 31 32  1  0  0  0
 32 33  1  0  0  0
 33 34  2  0  0  0
 33 35  1  0  0  0
 28 29  1  0  0  0
 29 30  1  0  0  0
  4  5  2  0  0  0
  5  6  1  0  0  0
  6  7  1  0  0  0
  7  8  2  0  0  0
  8  9  1  0  0  0
  9 10  1  0  0  0
 10 19  1  0  0  0
 19 20  1  0  0  0
 20 21  1  0  0  0
 10 11  2  0  0  0
 11 12  1  0  0  0
 12 13  1  0  0  0
 12 14  1  0  0  0
 14 15  1  0  0  0
 15 16  2  0  0  0
 15 17  1  0  0  0
  6  1  2  0  0  0
 17  7  1  0  0  0
 30 25  1  0  0  0
 14  9  2  0  0  0
 17 18  1  0  0  0
M  CHG 1  33   1
M  CHG 1  35  -1
M  END
> <minimizedAffinity>
-9.01368

$$$$



 39 42  0  0  0  0  0  0  0  0999 V2000
    2.6114   66.4578   83.8905 C   0  0  0  0  0  0  0  0  0  0  0  0
    2.9564   67.2599   82.7907 C   0  0  0  0  0  0  0  0  0  0  0  0
    2.1637   67.2791   81.6423 C   0  0  0  0  0  0  0  0  0  0  0  0
    1.0109   66.4988   81.5888 C   0  0  0  0  0  0  0  0  0  0  0  0
    0.6495   65.6902   82.6659 C   0  0  0  0  0  0  0  0  0  0  0  0
    1.4398   65.6646   83.8318 C   0  0  0  0  0  0  0  0  0  0  0  0
    0.9558   64.7779   84.9527 C   0  0  0  0  0  0  0  0  0  0  0  0
   -0.1473   64.0980   84.7992 N   0  0  0  0  0  0  0  0  0  0  0  0
   -0.4989   63.3054   85.8921 C   0  0  0  0  0  0  0  0  0  0  0  0
   -1.6149   62.4501   85.9943 C   0  0  0  0  0  0  0  0  0  0  0  0
   -1.5255   61.8794   87.2565 C   0  0  0  0  0  0  0  0  0  0  0  0
   -0.4048   62.3747   87.8853 N   0  0  0  0  0  0  0  0  0  0  0  0
    0.0266   62.0257   89.2195 C   0  0  0  0  0  0  0  0  0  0  0  0
    0.2348   63.2435   87.0444 C   0  0  0  0  0  0  0  0  0  0  0  0
    1.4346   63.9905   87.2186 C   0  0  0  0  0  0  0  0  0  0  0  0
    2.1443   63.9913   88.2190 O   0  0  0  0  0  0  0  0  0  0  0  0
    1.7299   64.7390   86.1043 N   0  0  0  0  0  0  0  0  0  0  0  0
    2.5714   65.2969   86.1628 H   0  0  0  0  0  0  0  0  0  0  0  0
   -2.6664   62.2069   84.9634 C   0  0  0  0  0  0  0  0  0  0  0  0
   -2.0767   61.7327   83.6342 C   0  0  0  0  0  0  0  0  0  0  0  0
   -2.9870   60.7250   82.9511 C   0  0  0  0  0  0  0  0  0  0  0  0
    0.0021   66.5590   80.1289 S   0  0  0  0  0  0  0  0  0  0  0  0
    0.6884   67.3198   79.1089 O   0  0  0  0  0  0  0  0  0  0  0  0
   -1.3373   66.9017   80.5547 O   0  0  0  0  0  0  0  0  0  0  0  0
    0.0021   64.9205   79.6403 N   0  0  0  0  0  0  0  0  0  0  0  0
   -0.0689   63.9213   80.7469 C   0  0  0  0  0  0  0  0  0  0  0  0
    0.1810   62.5033   80.2205 C   0  0  0  0  0  0  0  0  0  0  0  0
   -0.2177   62.3434   78.7453 C   0  0  0  0  0  0  0  0  0  0  0  0
    0.5960   63.3276   77.8794 C   0  0  0  0  0  0  0  0  0  0  0  0
    1.0435   64.5797   78.6439 C   0  0  0  0  0  0  0  0  0  0  0  0
   -1.7319   62.5391   78.5186 C   0  0  0  0  0  0  0  0  0  0  0  0
   -2.3950   61.2905   78.6997 O   0  0  0  0  0  0  0  0  0  0  0  0
   -3.2913   60.9916   77.6443 N   0  0  0  0  0  0  0  0  0  0  0  0
   -3.4875   59.8029   77.3861 O   0  0  0  0  0  0  0  0  0  0  0  0
   -3.7570   61.9987   77.1161 O   0  0  0  0  0  0  0  0  0  0  0  0
    3.3577   66.4082   85.0421 O   0  0  0  0  0  0  0  0  0  0  0  0
    4.7840   66.4199   84.9319 C   0  0  0  0  0  0  0  0  0  0  0  0
    5.3838   65.1526   87.0295 C   0  0  0  0  0  0  0  0  0  0  0  0
    5.3035   65.1082   85.5133 C   0  0  0  0  0  0  0  0  0  0  0  0
 38 39  1  0  0  0
 39 37  1  0  0  0
 37 36  1  0  0  0
 36  1  1  0  0  0
  1  2  1  0  0  0
  2  3  2  0  0  0
  3  4  1  0  0  0
  4 22  1  0  0  0
 22 23  2  0  0  0
 22 24  2  0  0  0
 22 25  1  0  0  0
 25 26  1  0  0  0
 26 27  1  0  0  0
 27 28  1  0  0  0
 28 31  1  0  0  0
 31 32  1  0  0  0
 32 33  1  0  0  0
 33 34  2  0  0  0
 33 35  1  0  0  0
 28 29  1  0  0  0
 29 30  1  0  0  0
  4  5  2  0  0  0
  5  6  1  0  0  0
  6  7  1  0  0  0
  7  8  2  0  0  0
  8  9  1  0  0  0
  9 10  1  0  0  0
 10 19  1  0  0  0
 19 20  1  0  0  0
 20 21  1  0  0  0
 10 11  2  0  0  0
 11 12  1  0  0  0
 12 13  1  0  0  0
 12 14  1  0  0  0
 14 15  1  0  0  0
 15 16  2  0  0  0
 15 17  1  0  0  0
  6  1  2  0  0  0
 17  7  1  0  0  0
 30 25  1  0  0  0
 14  9  2  0  0  0
 17 18  1  0  0  0
M  CHG 1  33   1
M  CHG 1  35  -1
M  END
> <minimizedAffinity>
-9.00128

$$$$
