


 26 28  0  0  0  0  0  0  0  0999 V2000
    3.3135   66.9173   84.3730 C   0  0  0  0  0  0  0  0  0  0  0  0
    3.9297   68.0080   83.7588 C   0  0  0  0  0  0  0  0  0  0  0  0
    3.2700   68.7424   82.7620 C   0  0  0  0  0  0  0  0  0  0  0  0
    1.9773   68.4256   82.3245 C   0  0  0  0  0  0  0  0  0  0  0  0
    1.3695   67.3352   82.9701 C   0  0  0  0  0  0  0  0  0  0  0  0
    2.0083   66.5743   83.9773 C   0  0  0  0  0  0  0  0  0  0  0  0
    1.2222   65.4282   84.5603 C   0  0  0  0  0  0  0  0  0  0  0  0
    0.4543   64.6928   83.7970 N   0  0  0  0  0  0  0  0  0  0  0  0
   -0.1933   63.6997   84.4559 C   0  0  0  0  0  0  0  0  0  0  0  0
   -0.1262   63.3964   85.7926 C   0  0  0  0  0  0  0  0  0  0  0  0
   -0.9721   62.2895   85.9840 C   0  0  0  0  0  0  0  0  0  0  0  0
   -1.2576   61.5685   87.2467 C   0  0  0  0  0  0  0  0  0  0  0  0
   -1.5458   61.9115   84.8289 N   0  0  0  0  0  0  0  0  0  0  0  0
   -1.0548   62.7872   83.9170 N   0  0  0  0  0  0  0  0  0  0  0  0
   -1.4661   62.6777   82.5406 C   0  0  0  0  0  0  0  0  0  0  0  0
    0.7132   64.1951   86.6333 C   0  0  0  0  0  0  0  0  0  0  0  0
    0.8618   64.0218   87.8374 O   0  0  0  0  0  0  0  0  0  0  0  0
    1.3513   65.1985   85.9302 N   0  0  0  0  0  0  0  0  0  0  0  0
    1.9642   65.7907   86.4748 H   0  0  0  0  0  0  0  0  0  0  0  0
    1.3228   69.1765   81.3423 N   0  0  0  0  0  0  0  0  0  0  0  0
    0.4393   70.2664   81.7561 C   0  0  0  0  0  0  0  0  0  0  0  0
    1.9430   69.3337   80.0268 C   0  0  0  0  0  0  0  0  0  0  0  0
    3.9120   66.1637   85.3497 O   0  0  0  0  0  0  0  0  0  0  0  0
    5.2325   66.5194   85.7685 C   0  0  0  0  0  0  0  0  0  0  0  0
    7.3894   65.8873   84.6252 C   0  0  0  0  0  0  0  0  0  0  0  0
    6.1652   65.3808   85.3661 C   0  0  0  0  0  0  0  0  0  0  0  0
 25 26  1  0  0  0
 26 24  1  0  0  0
 24 23  1  0  0  0
 23  1  1  0  0  0
  1  2  1  0  0  0
  2  3  2  0  0  0
  3  4  1  0  0  0
  4 20  1  0  0  0
 20 21  1  0  0  0
 20 22  1  0  0  0
  4  5  2  0  0  0
  5  6  1  0  0  0
  6  7  1  0  0  0
  7  8  2  0  0  0
  8  9  1  0  0  0
  9 10  2  0  0  0
 10 11  1  0  0  0
 11 12  1  0  0  0
 11 13  2  0  0  0
 13 14  1  0  0  0
 14 15  1  0  0  0
 10 16  1  0  0  0
 16 17  2  0  0  0
 16 18  1  0  0  0
  6  1  2  0  0  0
 18  7  1  0  0  0
 14  9  1  0  0  0
 18 19  1  0  0  0
M  END
> <minimizedAffinity>
-9.18307

$$$$



 26 28  0  0  0  0  0  0  0  0999 V2000
    1.7323   66.7501   83.4473 C   0  0  0  0  0  0  0  0  0  0  0  0
    1.9627   67.3910   82.2296 C   0  0  0  0  0  0  0  0  0  0  0  0
    1.5174   66.8300   81.0233 C   0  0  0  0  0  0  0  0  0  0  0  0
    0.8329   65.6088   80.9683 C   0  0  0  0  0  0  0  0  0  0  0  0
    0.5959   64.9908   82.2081 C   0  0  0  0  0  0  0  0  0  0  0  0
    1.0328   65.5300   83.4409 C   0  0  0  0  0  0  0  0  0  0  0  0
    0.7079   64.7356   84.6799 C   0  0  0  0  0  0  0  0  0  0  0  0
   -0.4024   64.0468   84.7554 N   0  0  0  0  0  0  0  0  0  0  0  0
   -0.5636   63.3831   85.9273 C   0  0  0  0  0  0  0  0  0  0  0  0
    0.2890   63.3589   87.0023 C   0  0  0  0  0  0  0  0  0  0  0  0
   -0.3199   62.5334   87.9641 C   0  0  0  0  0  0  0  0  0  0  0  0
    0.1874   62.1744   89.3094 C   0  0  0  0  0  0  0  0  0  0  0  0
   -1.4973   62.0597   87.5218 N   0  0  0  0  0  0  0  0  0  0  0  0
   -1.6202   62.5934   86.2811 N   0  0  0  0  0  0  0  0  0  0  0  0
   -2.7904   62.2930   85.4961 C   0  0  0  0  0  0  0  0  0  0  0  0
    1.5064   64.1083   86.9261 C   0  0  0  0  0  0  0  0  0  0  0  0
    2.3492   64.1620   87.8142 O   0  0  0  0  0  0  0  0  0  0  0  0
    1.6336   64.7746   85.7227 N   0  0  0  0  0  0  0  0  0  0  0  0
    2.4807   65.3159   85.6114 H   0  0  0  0  0  0  0  0  0  0  0  0
    0.3780   65.0683   79.7609 N   0  0  0  0  0  0  0  0  0  0  0  0
    1.1476   65.3129   78.5413 C   0  0  0  0  0  0  0  0  0  0  0  0
   -0.3997   63.8294   79.7767 C   0  0  0  0  0  0  0  0  0  0  0  0
    2.1469   67.2513   84.6544 O   0  0  0  0  0  0  0  0  0  0  0  0
    3.2659   68.1419   84.6718 C   0  0  0  0  0  0  0  0  0  0  0  0
    5.1962   67.8652   86.2705 C   0  0  0  0  0  0  0  0  0  0  0  0
    4.5005   67.3224   85.0354 C   0  0  0  0  0  0  0  0  0  0  0  0
 25 26  1  0  0  0
 26 24  1  0  0  0
 24 23  1  0  0  0
 23  1  1  0  0  0
  1  2  1  0  0  0
  2  3  2  0  0  0
  3  4  1  0  0  0
  4 20  1  0  0  0
 20 21  1  0  0  0
 20 22  1  0  0  0
  4  5  2  0  0  0
  5  6  1  0  0  0
  6  7  1  0  0  0
  7  8  2  0  0  0
  8  9  1  0  0  0
  9 10  2  0  0  0
 10 11  1  0  0  0
 11 12  1  0  0  0
 11 13  2  0  0  0
 13 14  1  0  0  0
 14 15  1  0  0  0
 10 16  1  0  0  0
 16 17  2  0  0  0
 16 18  1  0  0  0
  6  1  2  0  0  0
 18  7  1  0  0  0
 14  9  1  0  0  0
 18 19  1  0  0  0
M  END
> <minimizedAffinity>
-8.79598

$$$$



 26 28  0  0  0  0  0  0  0  0999 V2000
   -0.0463   63.1207   85.1969 C   0  0  0  0  0  0  0  0  0  0  0  0
    0.5611   64.0667   86.0233 C   0  0  0  0  0  0  0  0  0  0  0  0
    1.0576   65.2697   85.4995 C   0  0  0  0  0  0  0  0  0  0  0  0
    0.9823   65.5854   84.1365 C   0  0  0  0  0  0  0  0  0  0  0  0
    0.3501   64.6264   83.3267 C   0  0  0  0  0  0  0  0  0  0  0  0
   -0.1596   63.4040   83.8241 C   0  0  0  0  0  0  0  0  0  0  0  0
   -0.7981   62.4788   82.8202 C   0  0  0  0  0  0  0  0  0  0  0  0
   -0.4115   62.4863   81.5697 N   0  0  0  0  0  0  0  0  0  0  0  0
   -1.0734   61.6041   80.7803 C   0  0  0  0  0  0  0  0  0  0  0  0
   -2.0695   60.7338   81.1458 C   0  0  0  0  0  0  0  0  0  0  0  0
   -2.4263   60.0369   79.9778 C   0  0  0  0  0  0  0  0  0  0  0  0
   -3.4544   58.9807   79.8250 C   0  0  0  0  0  0  0  0  0  0  0  0
   -1.6948   60.4447   78.9267 N   0  0  0  0  0  0  0  0  0  0  0  0
   -0.8813   61.3988   79.4438 N   0  0  0  0  0  0  0  0  0  0  0  0
    0.0580   62.0690   78.5811 C   0  0  0  0  0  0  0  0  0  0  0  0
   -2.4961   60.7184   82.5123 C   0  0  0  0  0  0  0  0  0  0  0  0
   -3.3692   59.9855   82.9623 O   0  0  0  0  0  0  0  0  0  0  0  0
   -1.8051   61.6322   83.2842 N   0  0  0  0  0  0  0  0  0  0  0  0
   -2.0617   61.6594   84.2621 H   0  0  0  0  0  0  0  0  0  0  0  0
    1.4649   66.7962   83.6288 N   0  0  0  0  0  0  0  0  0  0  0  0
    2.5572   67.4721   84.3286 C   0  0  0  0  0  0  0  0  0  0  0  0
    1.3818   67.0561   82.1917 C   0  0  0  0  0  0  0  0  0  0  0  0
   -0.5462   61.9288   85.6546 O   0  0  0  0  0  0  0  0  0  0  0  0
   -0.9986   61.8574   87.0095 C   0  0  0  0  0  0  0  0  0  0  0  0
   -3.0224   63.3556   87.1439 C   0  0  0  0  0  0  0  0  0  0  0  0
   -2.5225   61.9306   86.9902 C   0  0  0  0  0  0  0  0  0  0  0  0
 25 26  1  0  0  0
 26 24  1  0  0  0
 24 23  1  0  0  0
 23  1  1  0  0  0
  1  2  1  0  0  0
  2  3  2  0  0  0
  3  4  1  0  0  0
  4 20  1  0  0  0
 20 21  1  0  0  0
 20 22  1  0  0  0
  4  5  2  0  0  0
  5  6  1  0  0  0
  6  7  1  0  0  0
  7  8  2  0  0  0
  8  9  1  0  0  0
  9 10  2  0  0  0
 10 11  1  0  0  0
 11 12  1  0  0  0
 11 13  2  0  0  0
 13 14  1  0  0  0
 14 15  1  0  0  0
 10 16  1  0  0  0
 16 17  2  0  0  0
 16 18  1  0  0  0
  6  1  2  0  0  0
 18  7  1  0  0  0
 14  9  1  0  0  0
 18 19  1  0  0  0
M  END
> <minimizedAffinity>
-8.72217

$$$$



 26 28  0  0  0  0  0  0  0  0999 V2000
    2.6918   67.5311   83.6738 C   0  0  0  0  0  0  0  0  0  0  0  0
    3.8241   68.3458   83.7003 C   0  0  0  0  0  0  0  0  0  0  0  0
    4.9944   67.9337   84.3550 C   0  0  0  0  0  0  0  0  0  0  0  0
    5.0930   66.7031   85.0176 C   0  0  0  0  0  0  0  0  0  0  0  0
    3.9469   65.8916   84.9618 C   0  0  0  0  0  0  0  0  0  0  0  0
    2.7518   66.2789   84.3111 C   0  0  0  0  0  0  0  0  0  0  0  0
    1.6094   65.2967   84.3538 C   0  0  0  0  0  0  0  0  0  0  0  0
    1.1351   64.8784   85.4997 N   0  0  0  0  0  0  0  0  0  0  0  0
    0.1106   63.9969   85.3863 C   0  0  0  0  0  0  0  0  0  0  0  0
   -0.4608   63.5178   84.2343 C   0  0  0  0  0  0  0  0  0  0  0  0
   -1.4795   62.6379   84.6411 C   0  0  0  0  0  0  0  0  0  0  0  0
   -2.4021   61.8545   83.7863 C   0  0  0  0  0  0  0  0  0  0  0  0
   -1.5495   62.5629   85.9812 N   0  0  0  0  0  0  0  0  0  0  0  0
   -0.5704   63.3988   86.4080 N   0  0  0  0  0  0  0  0  0  0  0  0
   -0.3532   63.5677   87.8221 C   0  0  0  0  0  0  0  0  0  0  0  0
    0.0513   63.9724   82.9771 C   0  0  0  0  0  0  0  0  0  0  0  0
   -0.3763   63.6242   81.8827 O   0  0  0  0  0  0  0  0  0  0  0  0
    1.0959   64.8631   83.1314 N   0  0  0  0  0  0  0  0  0  0  0  0
    1.4925   65.2229   82.2734 H   0  0  0  0  0  0  0  0  0  0  0  0
    6.2714   66.2954   85.6516 N   0  0  0  0  0  0  0  0  0  0  0  0
    6.1814   65.6152   86.9435 C   0  0  0  0  0  0  0  0  0  0  0  0
    7.4420   65.9571   84.8422 C   0  0  0  0  0  0  0  0  0  0  0  0
    1.5221   67.8844   83.0516 O   0  0  0  0  0  0  0  0  0  0  0  0
    1.5986   68.5326   81.7790 C   0  0  0  0  0  0  0  0  0  0  0  0
    1.9146   66.6656   80.1137 C   0  0  0  0  0  0  0  0  0  0  0  0
    0.9258   67.6209   80.7571 C   0  0  0  0  0  0  0  0  0  0  0  0
 25 26  1  0  0  0
 26 24  1  0  0  0
 24 23  1  0  0  0
 23  1  1  0  0  0
  1  2  1  0  0  0
  2  3  2  0  0  0
  3  4  1  0  0  0
  4 20  1  0  0  0
 20 21  1  0  0  0
 20 22  1  0  0  0
  4  5  2  0  0  0
  5  6  1  0  0  0
  6  7  1  0  0  0
  7  8  2  0  0  0
  8  9  1  0  0  0
  9 10  2  0  0  0
 10 11  1  0  0  0
 11 12  1  0  0  0
 11 13  2  0  0  0
 13 14  1  0  0  0
 14 15  1  0  0  0
 10 16  1  0  0  0
 16 17  2  0  0  0
 16 18  1  0  0  0
  6  1  2  0  0  0
 18  7  1  0  0  0
 14  9  1  0  0  0
 18 19  1  0  0  0
M  END
> <minimizedAffinity>
-8.63753

$$$$



 26 28  0  0  0  0  0  0  0  0999 V2000
    2.7079   67.3099   83.7228 C   0  0  0  0  0  0  0  0  0  0  0  0
    3.8615   68.0767   83.5558 C   0  0  0  0  0  0  0  0  0  0  0  0
    5.0619   67.7217   84.1891 C   0  0  0  0  0  0  0  0  0  0  0  0
    5.1713   66.5990   85.0203 C   0  0  0  0  0  0  0  0  0  0  0  0
    4.0021   65.8317   85.1588 C   0  0  0  0  0  0  0  0  0  0  0  0
    2.7766   66.1636   84.5346 C   0  0  0  0  0  0  0  0  0  0  0  0
    1.6130   65.2419   84.7956 C   0  0  0  0  0  0  0  0  0  0  0  0
    1.0427   64.5962   83.8103 N   0  0  0  0  0  0  0  0  0  0  0  0
    0.0089   63.8053   84.1915 C   0  0  0  0  0  0  0  0  0  0  0  0
   -0.4812   63.6176   85.4595 C   0  0  0  0  0  0  0  0  0  0  0  0
   -1.5478   62.7099   85.3347 C   0  0  0  0  0  0  0  0  0  0  0  0
   -2.4173   62.1725   86.4076 C   0  0  0  0  0  0  0  0  0  0  0  0
   -1.7248   62.3419   84.0543 N   0  0  0  0  0  0  0  0  0  0  0  0
   -0.7650   63.0242   83.3814 N   0  0  0  0  0  0  0  0  0  0  0  0
   -0.6582   62.8686   81.9531 C   0  0  0  0  0  0  0  0  0  0  0  0
    0.1389   64.3190   86.5426 C   0  0  0  0  0  0  0  0  0  0  0  0
   -0.2019   64.2312   87.7165 O   0  0  0  0  0  0  0  0  0  0  0  0
    1.1824   65.1177   86.1167 N   0  0  0  0  0  0  0  0  0  0  0  0
    1.6623   65.6323   86.8432 H   0  0  0  0  0  0  0  0  0  0  0  0
    6.3785   66.2450   85.6320 N   0  0  0  0  0  0  0  0  0  0  0  0
    6.3428   65.5361   86.9110 C   0  0  0  0  0  0  0  0  0  0  0  0
    7.5554   65.9876   84.8023 C   0  0  0  0  0  0  0  0  0  0  0  0
    1.5088   67.6116   83.1303 O   0  0  0  0  0  0  0  0  0  0  0  0
    1.5083   67.9854   81.7498 C   0  0  0  0  0  0  0  0  0  0  0  0
    0.4558   66.0604   80.5067 C   0  0  0  0  0  0  0  0  0  0  0  0
    1.7546   66.7217   80.9309 C   0  0  0  0  0  0  0  0  0  0  0  0
 25 26  1  0  0  0
 26 24  1  0  0  0
 24 23  1  0  0  0
 23  1  1  0  0  0
  1  2  1  0  0  0
  2  3  2  0  0  0
  3  4  1  0  0  0
  4 20  1  0  0  0
 20 21  1  0  0  0
 20 22  1  0  0  0
  4  5  2  0  0  0
  5  6  1  0  0  0
  6  7  1  0  0  0
  7  8  2  0  0  0
  8  9  1  0  0  0
  9 10  2  0  0  0
 10 11  1  0  0  0
 11 12  1  0  0  0
 11 13  2  0  0  0
 13 14  1  0  0  0
 14 15  1  0  0  0
 10 16  1  0  0  0
 16 17  2  0  0  0
 16 18  1  0  0  0
  6  1  2  0  0  0
 18  7  1  0  0  0
 14  9  1  0  0  0
 18 19  1  0  0  0
M  END
> <minimizedAffinity>
-8.52437

$$$$



 26 28  0  0  0  0  0  0  0  0999 V2000
    0.0009   63.5171   84.4284 C   0  0  0  0  0  0  0  0  0  0  0  0
    0.5969   64.3461   85.3793 C   0  0  0  0  0  0  0  0  0  0  0  0
    1.1350   65.5899   85.0164 C   0  0  0  0  0  0  0  0  0  0  0  0
    1.1141   66.0635   83.6979 C   0  0  0  0  0  0  0  0  0  0  0  0
    0.4925   65.2202   82.7612 C   0  0  0  0  0  0  0  0  0  0  0  0
   -0.0582   63.9605   83.0952 C   0  0  0  0  0  0  0  0  0  0  0  0
   -0.6785   63.1734   81.9694 C   0  0  0  0  0  0  0  0  0  0  0  0
   -0.1385   63.1805   80.7772 N   0  0  0  0  0  0  0  0  0  0  0  0
   -0.8035   62.4302   79.8637 C   0  0  0  0  0  0  0  0  0  0  0  0
   -1.9424   61.6890   80.0553 C   0  0  0  0  0  0  0  0  0  0  0  0
   -2.2353   61.0965   78.8142 C   0  0  0  0  0  0  0  0  0  0  0  0
   -3.3639   60.1972   78.4774 C   0  0  0  0  0  0  0  0  0  0  0  0
   -1.3295   61.4446   77.8843 N   0  0  0  0  0  0  0  0  0  0  0  0
   -0.4714   62.2567   78.5503 N   0  0  0  0  0  0  0  0  0  0  0  0
    0.6488   62.8284   77.8475 C   0  0  0  0  0  0  0  0  0  0  0  0
   -2.5375   61.6748   81.3573 C   0  0  0  0  0  0  0  0  0  0  0  0
   -3.5483   61.0493   81.6554 O   0  0  0  0  0  0  0  0  0  0  0  0
   -1.8376   62.4531   82.2587 N   0  0  0  0  0  0  0  0  0  0  0  0
   -2.2106   62.4741   83.1985 H   0  0  0  0  0  0  0  0  0  0  0  0
    1.6379   67.3135   83.3515 N   0  0  0  0  0  0  0  0  0  0  0  0
    2.6456   67.9238   84.2185 C   0  0  0  0  0  0  0  0  0  0  0  0
    1.7038   67.6985   81.9418 C   0  0  0  0  0  0  0  0  0  0  0  0
   -0.5380   62.2921   84.7268 O   0  0  0  0  0  0  0  0  0  0  0  0
   -0.9370   62.0360   86.0762 C   0  0  0  0  0  0  0  0  0  0  0  0
   -2.8020   63.2411   87.2713 C   0  0  0  0  0  0  0  0  0  0  0  0
   -2.4425   62.2684   86.1628 C   0  0  0  0  0  0  0  0  0  0  0  0
 25 26  1  0  0  0
 26 24  1  0  0  0
 24 23  1  0  0  0
 23  1  1  0  0  0
  1  2  1  0  0  0
  2  3  2  0  0  0
  3  4  1  0  0  0
  4 20  1  0  0  0
 20 21  1  0  0  0
 20 22  1  0  0  0
  4  5  2  0  0  0
  5  6  1  0  0  0
  6  7  1  0  0  0
  7  8  2  0  0  0
  8  9  1  0  0  0
  9 10  2  0  0  0
 10 11  1  0  0  0
 11 12  1  0  0  0
 11 13  2  0  0  0
 13 14  1  0  0  0
 14 15  1  0  0  0
 10 16  1  0  0  0
 16 17  2  0  0  0
 16 18  1  0  0  0
  6  1  2  0  0  0
 18  7  1  0  0  0
 14  9  1  0  0  0
 18 19  1  0  0  0
M  END
> <minimizedAffinity>
-8.49697

$$$$



 26 28  0  0  0  0  0  0  0  0999 V2000
    1.8081   67.1160   82.8652 C   0  0  0  0  0  0  0  0  0  0  0  0
    2.8212   68.0670   82.9914 C   0  0  0  0  0  0  0  0  0  0  0  0
    3.8562   67.8994   83.9235 C   0  0  0  0  0  0  0  0  0  0  0  0
    3.9296   66.7895   84.7755 C   0  0  0  0  0  0  0  0  0  0  0  0
    2.9092   65.8361   84.6177 C   0  0  0  0  0  0  0  0  0  0  0  0
    1.8518   65.9766   83.6883 C   0  0  0  0  0  0  0  0  0  0  0  0
    0.8305   64.8689   83.6531 C   0  0  0  0  0  0  0  0  0  0  0  0
    0.2703   64.4461   84.7578 N   0  0  0  0  0  0  0  0  0  0  0  0
   -0.6273   63.4456   84.5758 C   0  0  0  0  0  0  0  0  0  0  0  0
   -0.9966   62.8541   83.3939 C   0  0  0  0  0  0  0  0  0  0  0  0
   -1.9518   61.8779   83.7284 C   0  0  0  0  0  0  0  0  0  0  0  0
   -2.6695   60.9554   82.8175 C   0  0  0  0  0  0  0  0  0  0  0  0
   -2.1756   61.8516   85.0533 N   0  0  0  0  0  0  0  0  0  0  0  0
   -1.3559   62.8147   85.5434 N   0  0  0  0  0  0  0  0  0  0  0  0
   -1.3329   63.0676   86.9616 C   0  0  0  0  0  0  0  0  0  0  0  0
   -0.3897   63.3127   82.1812 C   0  0  0  0  0  0  0  0  0  0  0  0
   -0.6390   62.8705   81.0657 O   0  0  0  0  0  0  0  0  0  0  0  0
    0.5216   64.3265   82.4055 N   0  0  0  0  0  0  0  0  0  0  0  0
    0.9767   64.6941   81.5805 H   0  0  0  0  0  0  0  0  0  0  0  0
    4.9765   66.6246   85.6886 N   0  0  0  0  0  0  0  0  0  0  0  0
    5.3867   67.7643   86.5086 C   0  0  0  0  0  0  0  0  0  0  0  0
    5.2142   65.3070   86.2779 C   0  0  0  0  0  0  0  0  0  0  0  0
    0.7725   67.2303   81.9737 O   0  0  0  0  0  0  0  0  0  0  0  0
    1.0275   67.8553   80.7128 C   0  0  0  0  0  0  0  0  0  0  0  0
    0.0774   70.1118   81.3164 C   0  0  0  0  0  0  0  0  0  0  0  0
   -0.0890   68.8655   80.4660 C   0  0  0  0  0  0  0  0  0  0  0  0
 25 26  1  0  0  0
 26 24  1  0  0  0
 24 23  1  0  0  0
 23  1  1  0  0  0
  1  2  1  0  0  0
  2  3  2  0  0  0
  3  4  1  0  0  0
  4 20  1  0  0  0
 20 21  1  0  0  0
 20 22  1  0  0  0
  4  5  2  0  0  0
  5  6  1  0  0  0
  6  7  1  0  0  0
  7  8  2  0  0  0
  8  9  1  0  0  0
  9 10  2  0  0  0
 10 11  1  0  0  0
 11 12  1  0  0  0
 11 13  2  0  0  0
 13 14  1  0  0  0
 14 15  1  0  0  0
 10 16  1  0  0  0
 16 17  2  0  0  0
 16 18  1  0  0  0
  6  1  2  0  0  0
 18  7  1  0  0  0
 14  9  1  0  0  0
 18 19  1  0  0  0
M  END
> <minimizedAffinity>
-8.47944

$$$$



 26 28  0  0  0  0  0  0  0  0999 V2000
    3.4659   66.6412   84.3373 C   0  0  0  0  0  0  0  0  0  0  0  0
    4.2453   67.7939   84.2350 C   0  0  0  0  0  0  0  0  0  0  0  0
    3.7673   68.9313   83.5672 C   0  0  0  0  0  0  0  0  0  0  0  0
    2.5027   68.9752   82.9655 C   0  0  0  0  0  0  0  0  0  0  0  0
    1.7284   67.8098   83.0973 C   0  0  0  0  0  0  0  0  0  0  0  0
    2.1822   66.6469   83.7632 C   0  0  0  0  0  0  0  0  0  0  0  0
    1.2324   65.4773   83.8052 C   0  0  0  0  0  0  0  0  0  0  0  0
    0.8604   64.9641   84.9503 N   0  0  0  0  0  0  0  0  0  0  0  0
    0.0060   63.9170   84.8363 C   0  0  0  0  0  0  0  0  0  0  0  0
   -0.4924   63.3619   83.6845 C   0  0  0  0  0  0  0  0  0  0  0  0
   -1.3319   62.3094   84.0905 C   0  0  0  0  0  0  0  0  0  0  0  0
   -2.1167   61.3881   83.2355 C   0  0  0  0  0  0  0  0  0  0  0  0
   -1.3633   62.2027   85.4299 N   0  0  0  0  0  0  0  0  0  0  0  0
   -0.5399   63.1921   85.8570 N   0  0  0  0  0  0  0  0  0  0  0  0
   -0.3304   63.3752   87.2706 C   0  0  0  0  0  0  0  0  0  0  0  0
   -0.0916   63.9193   82.4282 C   0  0  0  0  0  0  0  0  0  0  0  0
   -0.4706   63.5176   81.3342 O   0  0  0  0  0  0  0  0  0  0  0  0
    0.7816   64.9784   82.5829 N   0  0  0  0  0  0  0  0  0  0  0  0
    1.0927   65.4159   81.7258 H   0  0  0  0  0  0  0  0  0  0  0  0
    2.0299   70.1214   82.3178 N   0  0  0  0  0  0  0  0  0  0  0  0
    0.6583   70.1324   81.8096 C   0  0  0  0  0  0  0  0  0  0  0  0
    2.5772   71.4285   82.6810 C   0  0  0  0  0  0  0  0  0  0  0  0
    3.8837   65.5019   84.9757 O   0  0  0  0  0  0  0  0  0  0  0  0
    5.0991   65.5516   85.7280 C   0  0  0  0  0  0  0  0  0  0  0  0
    5.6190   65.5349   88.1953 C   0  0  0  0  0  0  0  0  0  0  0  0
    4.8359   64.8794   87.0722 C   0  0  0  0  0  0  0  0  0  0  0  0
 25 26  1  0  0  0
 26 24  1  0  0  0
 24 23  1  0  0  0
 23  1  1  0  0  0
  1  2  1  0  0  0
  2  3  2  0  0  0
  3  4  1  0  0  0
  4 20  1  0  0  0
 20 21  1  0  0  0
 20 22  1  0  0  0
  4  5  2  0  0  0
  5  6  1  0  0  0
  6  7  1  0  0  0
  7  8  2  0  0  0
  8  9  1  0  0  0
  9 10  2  0  0  0
 10 11  1  0  0  0
 11 12  1  0  0  0
 11 13  2  0  0  0
 13 14  1  0  0  0
 14 15  1  0  0  0
 10 16  1  0  0  0
 16 17  2  0  0  0
 16 18  1  0  0  0
  6  1  2  0  0  0
 18  7  1  0  0  0
 14  9  1  0  0  0
 18 19  1  0  0  0
M  END
> <minimizedAffinity>
-8.36195

$$$$



 26 28  0  0  0  0  0  0  0  0999 V2000
    0.1885   63.1266   83.2773 C   0  0  0  0  0  0  0  0  0  0  0  0
   -0.3304   62.0533   84.0022 C   0  0  0  0  0  0  0  0  0  0  0  0
   -0.5607   62.1586   85.3821 C   0  0  0  0  0  0  0  0  0  0  0  0
   -0.2807   63.3255   86.1053 C   0  0  0  0  0  0  0  0  0  0  0  0
    0.2235   64.3990   85.3514 C   0  0  0  0  0  0  0  0  0  0  0  0
    0.4677   64.3241   83.9599 C   0  0  0  0  0  0  0  0  0  0  0  0
    1.0219   65.5620   83.3026 C   0  0  0  0  0  0  0  0  0  0  0  0
    1.9629   66.2597   83.8864 N   0  0  0  0  0  0  0  0  0  0  0  0
    2.3638   67.3471   83.1818 C   0  0  0  0  0  0  0  0  0  0  0  0
    1.9020   67.7740   81.9621 C   0  0  0  0  0  0  0  0  0  0  0  0
    2.6284   68.9385   81.6561 C   0  0  0  0  0  0  0  0  0  0  0  0
    2.5161   69.7919   80.4499 C   0  0  0  0  0  0  0  0  0  0  0  0
    3.5044   69.2345   82.6314 N   0  0  0  0  0  0  0  0  0  0  0  0
    3.3209   68.2506   83.5466 N   0  0  0  0  0  0  0  0  0  0  0  0
    4.1103   68.2513   84.7518 C   0  0  0  0  0  0  0  0  0  0  0  0
    0.8743   67.0147   81.3165 C   0  0  0  0  0  0  0  0  0  0  0  0
    0.3848   67.2885   80.2269 O   0  0  0  0  0  0  0  0  0  0  0  0
    0.4877   65.9196   82.0646 N   0  0  0  0  0  0  0  0  0  0  0  0
   -0.2328   65.3420   81.6520 H   0  0  0  0  0  0  0  0  0  0  0  0
   -0.5315   63.4244   87.4779 N   0  0  0  0  0  0  0  0  0  0  0  0
   -1.8520   63.0516   87.9850 C   0  0  0  0  0  0  0  0  0  0  0  0
    0.5737   63.2651   88.4229 C   0  0  0  0  0  0  0  0  0  0  0  0
    0.4352   63.0780   81.9294 O   0  0  0  0  0  0  0  0  0  0  0  0
    0.6103   61.7976   81.3166 C   0  0  0  0  0  0  0  0  0  0  0  0
    0.2375   63.4359   79.4363 C   0  0  0  0  0  0  0  0  0  0  0  0
    0.4179   61.9768   79.8136 C   0  0  0  0  0  0  0  0  0  0  0  0
 25 26  1  0  0  0
 26 24  1  0  0  0
 24 23  1  0  0  0
 23  1  1  0  0  0
  1  2  1  0  0  0
  2  3  2  0  0  0
  3  4  1  0  0  0
  4 20  1  0  0  0
 20 21  1  0  0  0
 20 22  1  0  0  0
  4  5  2  0  0  0
  5  6  1  0  0  0
  6  7  1  0  0  0
  7  8  2  0  0  0
  8  9  1  0  0  0
  9 10  2  0  0  0
 10 11  1  0  0  0
 11 12  1  0  0  0
 11 13  2  0  0  0
 13 14  1  0  0  0
 14 15  1  0  0  0
 10 16  1  0  0  0
 16 17  2  0  0  0
 16 18  1  0  0  0
  6  1  2  0  0  0
 18  7  1  0  0  0
 14  9  1  0  0  0
 18 19  1  0  0  0
M  END
> <minimizedAffinity>
-8.32276

$$$$
