


 31 34  0  0  0  0  0  0  0  0999 V2000
    0.3955   64.8177   82.4380 C   0  0  0  0  0  0  0  0  0  0  0  0
   -0.0284   64.5699   81.1841 N   0  0  0  0  0  0  0  0  0  0  0  0
   -0.9490   63.5885   80.9260 N   0  0  0  0  0  0  0  0  0  0  0  0
   -1.4715   62.8441   81.9212 C   0  0  0  0  0  0  0  0  0  0  0  0
   -1.0501   63.0445   83.2555 C   0  0  0  0  0  0  0  0  0  0  0  0
   -1.5168   62.2603   84.3402 C   0  0  0  0  0  0  0  0  0  0  0  0
   -1.1004   62.4914   85.6528 C   0  0  0  0  0  0  0  0  0  0  0  0
   -0.2002   63.5169   85.9193 C   0  0  0  0  0  0  0  0  0  0  0  0
    0.2903   64.2925   84.8641 C   0  0  0  0  0  0  0  0  0  0  0  0
   -0.1052   64.0647   83.5206 C   0  0  0  0  0  0  0  0  0  0  0  0
   -2.4692   61.8822   81.6175 N   0  0  0  0  0  0  0  0  0  0  0  0
   -3.3444   62.3379   80.5149 C   0  0  0  0  0  0  0  0  0  0  0  0
   -3.2613   61.4355   79.2938 C   0  0  0  0  0  0  0  0  0  0  0  0
   -3.5397   60.0129   79.7109 C   0  0  0  0  0  0  0  0  0  0  0  0
   -4.1555   59.2402   78.9759 O   0  0  0  0  0  0  0  0  0  0  0  0
   -3.0240   59.5673   81.0565 C   0  0  0  0  0  0  0  0  0  0  0  0
   -1.9223   60.5201   81.4910 C   0  0  0  0  0  0  0  0  0  0  0  0
    1.3632   65.8215   82.6782 N   0  0  0  0  0  0  0  0  0  0  0  0
    2.1981   65.3666   83.0373 H   0  0  0  0  0  0  0  0  0  0  0  0
    1.6834   66.6832   81.5438 C   0  0  0  0  0  0  0  0  0  0  0  0
    1.6706   70.8666   82.7028 C   0  0  0  0  0  0  0  0  0  0  0  0
    2.6708   70.0039   83.1616 C   0  0  0  0  0  0  0  0  0  0  0  0
    2.6735   68.6542   82.7886 C   0  0  0  0  0  0  0  0  0  0  0  0
    1.6767   68.1379   81.9522 C   0  0  0  0  0  0  0  0  0  0  0  0
    0.6773   69.0026   81.4864 C   0  0  0  0  0  0  0  0  0  0  0  0
    0.6743   70.3508   81.8588 C   0  0  0  0  0  0  0  0  0  0  0  0
   -0.5950   71.3537   81.2436 Cl  0  0  0  0  0  0  0  0  0  0  0  0
    2.7766   72.9720   82.9256 C   0  0  0  0  0  0  0  0  0  0  0  0
    1.5883   72.1983   83.0171 O   0  0  0  0  0  0  0  0  0  0  0  0
    0.2292   63.7714   87.2630 C   0  0  0  0  0  0  0  0  0  0  0  0
    0.5729   63.9716   88.3531 N   0  0  0  0  0  0  0  0  0  0  0  0
 28 29  1  0  0  0
 29 21  1  0  0  0
 21 22  1  0  0  0
 22 23  2  0  0  0
 23 24  1  0  0  0
 24 20  1  0  0  0
 20 18  1  0  0  0
 18  1  1  0  0  0
  1  2  1  0  0  0
  2  3  2  0  0  0
  3  4  1  0  0  0
  4 11  1  0  0  0
 11 12  1  0  0  0
 12 13  1  0  0  0
 13 14  1  0  0  0
 14 15  2  0  0  0
 14 16  1  0  0  0
 16 17  1  0  0  0
  4  5  2  0  0  0
  5  6  1  0  0  0
  6  7  2  0  0  0
  7  8  1  0  0  0
  8 30  1  0  0  0
 30 31  3  0  0  0
  8  9  2  0  0  0
  9 10  1  0  0  0
 24 25  2  0  0  0
 25 26  1  0  0  0
 26 27  1  0  0  0
 26 21  2  0  0  0
 10  1  2  0  0  0
 17 11  1  0  0  0
 10  5  1  0  0  0
 18 19  1  0  0  0
M  END
> <minimizedAffinity>
-10.32817

$$$$



 31 34  0  0  0  0  0  0  0  0999 V2000
    0.6219   65.4049   83.9027 C   0  0  0  0  0  0  0  0  0  0  0  0
    0.4893   65.3648   82.5632 N   0  0  0  0  0  0  0  0  0  0  0  0
   -0.0373   64.2677   81.9337 N   0  0  0  0  0  0  0  0  0  0  0  0
   -0.4520   63.1939   82.6354 C   0  0  0  0  0  0  0  0  0  0  0  0
   -0.3195   63.1696   84.0425 C   0  0  0  0  0  0  0  0  0  0  0  0
   -0.6832   62.0517   84.8346 C   0  0  0  0  0  0  0  0  0  0  0  0
   -0.5613   62.0600   86.2256 C   0  0  0  0  0  0  0  0  0  0  0  0
   -0.0688   63.1908   86.8670 C   0  0  0  0  0  0  0  0  0  0  0  0
    0.3155   64.2998   86.1067 C   0  0  0  0  0  0  0  0  0  0  0  0
    0.2170   64.3077   84.6912 C   0  0  0  0  0  0  0  0  0  0  0  0
   -1.0501   62.1056   81.9492 N   0  0  0  0  0  0  0  0  0  0  0  0
   -2.5246   62.1329   82.0695 C   0  0  0  0  0  0  0  0  0  0  0  0
   -3.2161   62.2983   80.7254 C   0  0  0  0  0  0  0  0  0  0  0  0
   -2.7265   61.2272   79.7828 C   0  0  0  0  0  0  0  0  0  0  0  0
   -3.4797   60.7086   78.9581 O   0  0  0  0  0  0  0  0  0  0  0  0
   -1.2761   60.8242   79.8784 C   0  0  0  0  0  0  0  0  0  0  0  0
   -0.5134   61.9308   80.5884 C   0  0  0  0  0  0  0  0  0  0  0  0
    1.1886   66.5396   84.5294 N   0  0  0  0  0  0  0  0  0  0  0  0
    1.6144   66.2321   85.3995 H   0  0  0  0  0  0  0  0  0  0  0  0
    2.1363   67.3058   83.7250 C   0  0  0  0  0  0  0  0  0  0  0  0
    6.1791   66.8315   85.2333 C   0  0  0  0  0  0  0  0  0  0  0  0
    5.8668   67.8671   84.3472 C   0  0  0  0  0  0  0  0  0  0  0  0
    4.5629   68.0188   83.8599 C   0  0  0  0  0  0  0  0  0  0  0  0
    3.5449   67.1382   84.2452 C   0  0  0  0  0  0  0  0  0  0  0  0
    3.8549   66.1038   85.1380 C   0  0  0  0  0  0  0  0  0  0  0  0
    5.1573   65.9521   85.6250 C   0  0  0  0  0  0  0  0  0  0  0  0
    5.4604   64.6485   86.7223 Cl  0  0  0  0  0  0  0  0  0  0  0  0
    8.3874   65.9742   84.9260 C   0  0  0  0  0  0  0  0  0  0  0  0
    7.4252   66.6070   85.7584 O   0  0  0  0  0  0  0  0  0  0  0  0
    0.0534   63.2169   88.2950 C   0  0  0  0  0  0  0  0  0  0  0  0
    0.1569   63.2322   89.4507 N   0  0  0  0  0  0  0  0  0  0  0  0
 28 29  1  0  0  0
 29 21  1  0  0  0
 21 22  1  0  0  0
 22 23  2  0  0  0
 23 24  1  0  0  0
 24 20  1  0  0  0
 20 18  1  0  0  0
 18  1  1  0  0  0
  1  2  1  0  0  0
  2  3  2  0  0  0
  3  4  1  0  0  0
  4 11  1  0  0  0
 11 12  1  0  0  0
 12 13  1  0  0  0
 13 14  1  0  0  0
 14 15  2  0  0  0
 14 16  1  0  0  0
 16 17  1  0  0  0
  4  5  2  0  0  0
  5  6  1  0  0  0
  6  7  2  0  0  0
  7  8  1  0  0  0
  8 30  1  0  0  0
 30 31  3  0  0  0
  8  9  2  0  0  0
  9 10  1  0  0  0
 24 25  2  0  0  0
 25 26  1  0  0  0
 26 27  1  0  0  0
 26 21  2  0  0  0
 10  1  2  0  0  0
 17 11  1  0  0  0
 10  5  1  0  0  0
 18 19  1  0  0  0
M  END
> <minimizedAffinity>
-10.29994

$$$$



 31 34  0  0  0  0  0  0  0  0999 V2000
    0.5783   65.5183   81.9814 C   0  0  0  0  0  0  0  0  0  0  0  0
    1.5758   66.3895   81.7374 N   0  0  0  0  0  0  0  0  0  0  0  0
    2.4728   66.7344   82.7139 N   0  0  0  0  0  0  0  0  0  0  0  0
    2.3946   66.2040   83.9509 C   0  0  0  0  0  0  0  0  0  0  0  0
    1.3570   65.2995   84.2723 C   0  0  0  0  0  0  0  0  0  0  0  0
    1.1841   64.7489   85.5671 C   0  0  0  0  0  0  0  0  0  0  0  0
    0.1627   63.8413   85.8543 C   0  0  0  0  0  0  0  0  0  0  0  0
   -0.7198   63.4575   84.8510 C   0  0  0  0  0  0  0  0  0  0  0  0
   -0.5827   64.0011   83.5699 C   0  0  0  0  0  0  0  0  0  0  0  0
    0.4366   64.9381   83.2593 C   0  0  0  0  0  0  0  0  0  0  0  0
    3.3817   66.5395   84.9132 N   0  0  0  0  0  0  0  0  0  0  0  0
    4.5202   65.5953   84.8742 C   0  0  0  0  0  0  0  0  0  0  0  0
    5.8278   66.2741   84.4975 C   0  0  0  0  0  0  0  0  0  0  0  0
    6.0657   67.4382   85.4267 C   0  0  0  0  0  0  0  0  0  0  0  0
    7.2004   67.7349   85.8021 O   0  0  0  0  0  0  0  0  0  0  0  0
    4.8633   68.2346   85.8687 C   0  0  0  0  0  0  0  0  0  0  0  0
    3.7259   67.9719   84.8952 C   0  0  0  0  0  0  0  0  0  0  0  0
   -0.3495   65.1935   80.9639 N   0  0  0  0  0  0  0  0  0  0  0  0
   -1.0279   65.9485   80.9115 H   0  0  0  0  0  0  0  0  0  0  0  0
    0.2191   64.9085   79.6496 C   0  0  0  0  0  0  0  0  0  0  0  0
   -0.7722   60.8788   78.3756 C   0  0  0  0  0  0  0  0  0  0  0  0
    0.0492   61.6922   77.5890 C   0  0  0  0  0  0  0  0  0  0  0  0
    0.3674   62.9925   77.9997 C   0  0  0  0  0  0  0  0  0  0  0  0
   -0.1298   63.5080   79.2027 C   0  0  0  0  0  0  0  0  0  0  0  0
   -0.9479   62.6918   79.9951 C   0  0  0  0  0  0  0  0  0  0  0  0
   -1.2659   61.3929   79.5851 C   0  0  0  0  0  0  0  0  0  0  0  0
   -2.2838   60.4485   80.6183 Cl  0  0  0  0  0  0  0  0  0  0  0  0
   -0.9595   59.1817   76.7051 C   0  0  0  0  0  0  0  0  0  0  0  0
   -1.1362   59.5974   78.0524 O   0  0  0  0  0  0  0  0  0  0  0  0
   -1.7677   62.5198   85.1291 C   0  0  0  0  0  0  0  0  0  0  0  0
   -2.6204   61.7641   85.3494 N   0  0  0  0  0  0  0  0  0  0  0  0
 28 29  1  0  0  0
 29 21  1  0  0  0
 21 22  1  0  0  0
 22 23  2  0  0  0
 23 24  1  0  0  0
 24 20  1  0  0  0
 20 18  1  0  0  0
 18  1  1  0  0  0
  1  2  1  0  0  0
  2  3  2  0  0  0
  3  4  1  0  0  0
  4 11  1  0  0  0
 11 12  1  0  0  0
 12 13  1  0  0  0
 13 14  1  0  0  0
 14 15  2  0  0  0
 14 16  1  0  0  0
 16 17  1  0  0  0
  4  5  2  0  0  0
  5  6  1  0  0  0
  6  7  2  0  0  0
  7  8  1  0  0  0
  8 30  1  0  0  0
 30 31  3  0  0  0
  8  9  2  0  0  0
  9 10  1  0  0  0
 24 25  2  0  0  0
 25 26  1  0  0  0
 26 27  1  0  0  0
 26 21  2  0  0  0
 10  1  2  0  0  0
 17 11  1  0  0  0
 10  5  1  0  0  0
 18 19  1  0  0  0
M  END
> <minimizedAffinity>
-10.18472

$$$$



 31 34  0  0  0  0  0  0  0  0999 V2000
    0.6120   65.6566   81.9169 C   0  0  0  0  0  0  0  0  0  0  0  0
    1.6054   66.5418   81.7091 N   0  0  0  0  0  0  0  0  0  0  0  0
    2.4970   66.8552   82.7011 N   0  0  0  0  0  0  0  0  0  0  0  0
    2.4174   66.2790   83.9172 C   0  0  0  0  0  0  0  0  0  0  0  0
    1.3838   65.3574   84.2010 C   0  0  0  0  0  0  0  0  0  0  0  0
    1.2094   64.7583   85.4739 C   0  0  0  0  0  0  0  0  0  0  0  0
    0.1921   63.8350   85.7234 C   0  0  0  0  0  0  0  0  0  0  0  0
   -0.6847   63.4839   84.7033 C   0  0  0  0  0  0  0  0  0  0  0  0
   -0.5461   64.0753   83.4437 C   0  0  0  0  0  0  0  0  0  0  0  0
    0.4690   65.0288   83.1719 C   0  0  0  0  0  0  0  0  0  0  0  0
    3.3991   66.5840   84.8950 N   0  0  0  0  0  0  0  0  0  0  0  0
    4.5354   65.6380   84.8363 C   0  0  0  0  0  0  0  0  0  0  0  0
    5.8471   66.3236   84.4875 C   0  0  0  0  0  0  0  0  0  0  0  0
    6.0821   67.4600   85.4511 C   0  0  0  0  0  0  0  0  0  0  0  0
    7.2152   67.7426   85.8421 O   0  0  0  0  0  0  0  0  0  0  0  0
    4.8790   68.2468   85.9080 C   0  0  0  0  0  0  0  0  0  0  0  0
    3.7472   68.0153   84.9202 C   0  0  0  0  0  0  0  0  0  0  0  0
   -0.3103   65.3647   80.8846 N   0  0  0  0  0  0  0  0  0  0  0  0
   -0.8565   66.2042   80.7113 H   0  0  0  0  0  0  0  0  0  0  0  0
    0.2624   64.8477   79.6450 C   0  0  0  0  0  0  0  0  0  0  0  0
   -1.3994   60.9523   78.6917 C   0  0  0  0  0  0  0  0  0  0  0  0
   -0.4056   61.0830   79.6665 C   0  0  0  0  0  0  0  0  0  0  0  0
    0.1311   62.3396   79.9726 C   0  0  0  0  0  0  0  0  0  0  0  0
   -0.3115   63.4907   79.3100 C   0  0  0  0  0  0  0  0  0  0  0  0
   -1.3119   63.3621   78.3373 C   0  0  0  0  0  0  0  0  0  0  0  0
   -1.8483   62.1071   78.0314 C   0  0  0  0  0  0  0  0  0  0  0  0
   -3.0788   62.0312   76.8168 Cl  0  0  0  0  0  0  0  0  0  0  0  0
   -1.2448   58.9105   77.4617 C   0  0  0  0  0  0  0  0  0  0  0  0
   -1.9795   59.7650   78.3272 O   0  0  0  0  0  0  0  0  0  0  0  0
   -1.7282   62.5307   84.9425 C   0  0  0  0  0  0  0  0  0  0  0  0
   -2.5694   61.7566   85.1422 N   0  0  0  0  0  0  0  0  0  0  0  0
 28 29  1  0  0  0
 29 21  1  0  0  0
 21 22  1  0  0  0
 22 23  2  0  0  0
 23 24  1  0  0  0
 24 20  1  0  0  0
 20 18  1  0  0  0
 18  1  1  0  0  0
  1  2  1  0  0  0
  2  3  2  0  0  0
  3  4  1  0  0  0
  4 11  1  0  0  0
 11 12  1  0  0  0
 12 13  1  0  0  0
 13 14  1  0  0  0
 14 15  2  0  0  0
 14 16  1  0  0  0
 16 17  1  0  0  0
  4  5  2  0  0  0
  5  6  1  0  0  0
  6  7  2  0  0  0
  7  8  1  0  0  0
  8 30  1  0  0  0
 30 31  3  0  0  0
  8  9  2  0  0  0
  9 10  1  0  0  0
 24 25  2  0  0  0
 25 26  1  0  0  0
 26 27  1  0  0  0
 26 21  2  0  0  0
 10  1  2  0  0  0
 17 11  1  0  0  0
 10  5  1  0  0  0
 18 19  1  0  0  0
M  END
> <minimizedAffinity>
-10.15036

$$$$



 31 34  0  0  0  0  0  0  0  0999 V2000
    0.3547   65.2868   81.8217 C   0  0  0  0  0  0  0  0  0  0  0  0
    0.0653   65.0382   80.5302 N   0  0  0  0  0  0  0  0  0  0  0  0
   -0.5330   63.8661   80.1488 N   0  0  0  0  0  0  0  0  0  0  0  0
   -0.8633   62.9250   81.0558 C   0  0  0  0  0  0  0  0  0  0  0  0
   -0.5661   63.1207   82.4238 C   0  0  0  0  0  0  0  0  0  0  0  0
   -0.8352   62.1493   83.4206 C   0  0  0  0  0  0  0  0  0  0  0  0
   -0.5505   62.3748   84.7688 C   0  0  0  0  0  0  0  0  0  0  0  0
    0.0153   63.5828   85.1605 C   0  0  0  0  0  0  0  0  0  0  0  0
    0.3086   64.5500   84.1940 C   0  0  0  0  0  0  0  0  0  0  0  0
    0.0442   64.3361   82.8164 C   0  0  0  0  0  0  0  0  0  0  0  0
   -1.5392   61.7540   80.6257 N   0  0  0  0  0  0  0  0  0  0  0  0
   -2.9929   61.9888   80.4815 C   0  0  0  0  0  0  0  0  0  0  0  0
   -3.4740   61.8048   79.0508 C   0  0  0  0  0  0  0  0  0  0  0  0
   -3.0503   60.4435   78.5583 C   0  0  0  0  0  0  0  0  0  0  0  0
   -3.7680   59.7843   77.8055 O   0  0  0  0  0  0  0  0  0  0  0  0
   -1.7083   59.9248   79.0111 C   0  0  0  0  0  0  0  0  0  0  0  0
   -0.8713   61.1014   79.4862 C   0  0  0  0  0  0  0  0  0  0  0  0
    0.9924   66.4948   82.1897 N   0  0  0  0  0  0  0  0  0  0  0  0
    1.8422   66.2551   82.6932 H   0  0  0  0  0  0  0  0  0  0  0  0
    1.2743   67.4250   81.1000 C   0  0  0  0  0  0  0  0  0  0  0  0
    1.4848   71.5128   82.5456 C   0  0  0  0  0  0  0  0  0  0  0  0
    2.5499   70.6301   82.7491 C   0  0  0  0  0  0  0  0  0  0  0  0
    2.4808   69.3111   82.2839 C   0  0  0  0  0  0  0  0  0  0  0  0
    1.3462   68.8460   81.6084 C   0  0  0  0  0  0  0  0  0  0  0  0
    0.2807   69.7313   81.3981 C   0  0  0  0  0  0  0  0  0  0  0  0
    0.3493   71.0488   81.8626 C   0  0  0  0  0  0  0  0  0  0  0  0
   -1.0086   72.0797   81.5653 Cl  0  0  0  0  0  0  0  0  0  0  0  0
    2.7102   73.4327   83.2652 C   0  0  0  0  0  0  0  0  0  0  0  0
    1.4649   72.8172   82.9664 O   0  0  0  0  0  0  0  0  0  0  0  0
    0.3048   63.8317   86.5422 C   0  0  0  0  0  0  0  0  0  0  0  0
    0.5354   64.0270   87.6626 N   0  0  0  0  0  0  0  0  0  0  0  0
 28 29  1  0  0  0
 29 21  1  0  0  0
 21 22  1  0  0  0
 22 23  2  0  0  0
 23 24  1  0  0  0
 24 20  1  0  0  0
 20 18  1  0  0  0
 18  1  1  0  0  0
  1  2  1  0  0  0
  2  3  2  0  0  0
  3  4  1  0  0  0
  4 11  1  0  0  0
 11 12  1  0  0  0
 12 13  1  0  0  0
 13 14  1  0  0  0
 14 15  2  0  0  0
 14 16  1  0  0  0
 16 17  1  0  0  0
  4  5  2  0  0  0
  5  6  1  0  0  0
  6  7  2  0  0  0
  7  8  1  0  0  0
  8 30  1  0  0  0
 30 31  3  0  0  0
  8  9  2  0  0  0
  9 10  1  0  0  0
 24 25  2  0  0  0
 25 26  1  0  0  0
 26 27  1  0  0  0
 26 21  2  0  0  0
 10  1  2  0  0  0
 17 11  1  0  0  0
 10  5  1  0  0  0
 18 19  1  0  0  0
M  END
> <minimizedAffinity>
-10.09894

$$$$



 31 34  0  0  0  0  0  0  0  0999 V2000
    1.6477   66.0115   82.9699 C   0  0  0  0  0  0  0  0  0  0  0  0
    0.9579   66.8049   82.1283 N   0  0  0  0  0  0  0  0  0  0  0  0
    1.2497   68.1383   82.0090 N   0  0  0  0  0  0  0  0  0  0  0  0
    2.2461   68.7001   82.7225 C   0  0  0  0  0  0  0  0  0  0  0  0
    2.9919   67.9221   83.6371 C   0  0  0  0  0  0  0  0  0  0  0  0
    4.0140   68.4614   84.4579 C   0  0  0  0  0  0  0  0  0  0  0  0
    4.7505   67.6675   85.3394 C   0  0  0  0  0  0  0  0  0  0  0  0
    4.4837   66.3059   85.4268 C   0  0  0  0  0  0  0  0  0  0  0  0
    3.4671   65.7528   84.6419 C   0  0  0  0  0  0  0  0  0  0  0  0
    2.6942   66.5430   83.7522 C   0  0  0  0  0  0  0  0  0  0  0  0
    2.5564   70.0698   82.5211 N   0  0  0  0  0  0  0  0  0  0  0  0
    3.5634   70.2464   81.4515 C   0  0  0  0  0  0  0  0  0  0  0  0
    3.0260   71.0384   80.2699 C   0  0  0  0  0  0  0  0  0  0  0  0
    2.4655   72.3477   80.7666 C   0  0  0  0  0  0  0  0  0  0  0  0
    2.5713   73.3806   80.1044 O   0  0  0  0  0  0  0  0  0  0  0  0
    1.7583   72.3428   82.0989 C   0  0  0  0  0  0  0  0  0  0  0  0
    1.3531   70.9145   82.4251 C   0  0  0  0  0  0  0  0  0  0  0  0
    1.3146   64.6420   83.0927 N   0  0  0  0  0  0  0  0  0  0  0  0
    1.9264   64.2367   83.7959 H   0  0  0  0  0  0  0  0  0  0  0  0
   -0.0857   64.3500   83.3860 C   0  0  0  0  0  0  0  0  0  0  0  0
   -0.6081   63.2362   87.5490 C   0  0  0  0  0  0  0  0  0  0  0  0
    0.4432   64.0732   87.1626 C   0  0  0  0  0  0  0  0  0  0  0  0
    0.6122   64.4309   85.8194 C   0  0  0  0  0  0  0  0  0  0  0  0
   -0.2635   63.9585   84.8345 C   0  0  0  0  0  0  0  0  0  0  0  0
   -1.3212   63.1248   85.2210 C   0  0  0  0  0  0  0  0  0  0  0  0
   -1.4902   62.7673   86.5627 C   0  0  0  0  0  0  0  0  0  0  0  0
   -2.8195   61.7325   86.9594 Cl  0  0  0  0  0  0  0  0  0  0  0  0
    0.1943   62.1521   89.5205 C   0  0  0  0  0  0  0  0  0  0  0  0
   -0.8484   62.8341   88.8372 O   0  0  0  0  0  0  0  0  0  0  0  0
    5.2378   65.4770   86.3208 C   0  0  0  0  0  0  0  0  0  0  0  0
    5.8420   64.8023   87.0462 N   0  0  0  0  0  0  0  0  0  0  0  0
 28 29  1  0  0  0
 29 21  1  0  0  0
 21 22  1  0  0  0
 22 23  2  0  0  0
 23 24  1  0  0  0
 24 20  1  0  0  0
 20 18  1  0  0  0
 18  1  1  0  0  0
  1  2  1  0  0  0
  2  3  2  0  0  0
  3  4  1  0  0  0
  4 11  1  0  0  0
 11 12  1  0  0  0
 12 13  1  0  0  0
 13 14  1  0  0  0
 14 15  2  0  0  0
 14 16  1  0  0  0
 16 17  1  0  0  0
  4  5  2  0  0  0
  5  6  1  0  0  0
  6  7  2  0  0  0
  7  8  1  0  0  0
  8 30  1  0  0  0
 30 31  3  0  0  0
  8  9  2  0  0  0
  9 10  1  0  0  0
 24 25  2  0  0  0
 25 26  1  0  0  0
 26 27  1  0  0  0
 26 21  2  0  0  0
 10  1  2  0  0  0
 17 11  1  0  0  0
 10  5  1  0  0  0
 18 19  1  0  0  0
M  END
> <minimizedAffinity>
-9.99682

$$$$



 31 34  0  0  0  0  0  0  0  0999 V2000
    0.2918   65.4757   80.4464 C   0  0  0  0  0  0  0  0  0  0  0  0
   -0.0203   65.1179   79.1862 N   0  0  0  0  0  0  0  0  0  0  0  0
   -0.5660   63.8919   78.9100 N   0  0  0  0  0  0  0  0  0  0  0  0
   -0.8203   63.0049   79.8929 C   0  0  0  0  0  0  0  0  0  0  0  0
   -0.4955   63.3161   81.2329 C   0  0  0  0  0  0  0  0  0  0  0  0
   -0.6846   62.4088   82.3056 C   0  0  0  0  0  0  0  0  0  0  0  0
   -0.3744   62.7476   83.6241 C   0  0  0  0  0  0  0  0  0  0  0  0
    0.1375   64.0085   83.9090 C   0  0  0  0  0  0  0  0  0  0  0  0
    0.3517   64.9151   82.8661 C   0  0  0  0  0  0  0  0  0  0  0  0
    0.0603   64.5867   81.5168 C   0  0  0  0  0  0  0  0  0  0  0  0
   -1.4450   61.7725   79.5706 N   0  0  0  0  0  0  0  0  0  0  0  0
   -2.9073   61.9314   79.4094 C   0  0  0  0  0  0  0  0  0  0  0  0
   -3.3779   61.6001   78.0020 C   0  0  0  0  0  0  0  0  0  0  0  0
   -2.8959   60.2196   77.6319 C   0  0  0  0  0  0  0  0  0  0  0  0
   -3.5838   59.4658   76.9426 O   0  0  0  0  0  0  0  0  0  0  0  0
   -1.5336   59.8010   78.1261 C   0  0  0  0  0  0  0  0  0  0  0  0
   -0.7483   61.0498   78.4924 C   0  0  0  0  0  0  0  0  0  0  0  0
    0.8747   66.7385   80.7053 N   0  0  0  0  0  0  0  0  0  0  0  0
    1.7225   66.8078   80.1489 H   0  0  0  0  0  0  0  0  0  0  0  0
    0.0111   67.8960   80.4899 C   0  0  0  0  0  0  0  0  0  0  0  0
    1.4999   71.3649   82.6332 C   0  0  0  0  0  0  0  0  0  0  0  0
    2.1485   70.1306   82.7386 C   0  0  0  0  0  0  0  0  0  0  0  0
    1.6669   69.0116   82.0482 C   0  0  0  0  0  0  0  0  0  0  0  0
    0.5268   69.1015   81.2406 C   0  0  0  0  0  0  0  0  0  0  0  0
   -0.1204   70.3392   81.1289 C   0  0  0  0  0  0  0  0  0  0  0  0
    0.3603   71.4571   81.8184 C   0  0  0  0  0  0  0  0  0  0  0  0
   -0.4959   72.9493   81.6304 Cl  0  0  0  0  0  0  0  0  0  0  0  0
    3.1384   73.0849   82.8829 C   0  0  0  0  0  0  0  0  0  0  0  0
    1.8989   72.5099   83.2726 O   0  0  0  0  0  0  0  0  0  0  0  0
    0.4521   64.3733   85.2590 C   0  0  0  0  0  0  0  0  0  0  0  0
    0.7043   64.6621   86.3543 N   0  0  0  0  0  0  0  0  0  0  0  0
 28 29  1  0  0  0
 29 21  1  0  0  0
 21 22  1  0  0  0
 22 23  2  0  0  0
 23 24  1  0  0  0
 24 20  1  0  0  0
 20 18  1  0  0  0
 18  1  1  0  0  0
  1  2  1  0  0  0
  2  3  2  0  0  0
  3  4  1  0  0  0
  4 11  1  0  0  0
 11 12  1  0  0  0
 12 13  1  0  0  0
 13 14  1  0  0  0
 14 15  2  0  0  0
 14 16  1  0  0  0
 16 17  1  0  0  0
  4  5  2  0  0  0
  5  6  1  0  0  0
  6  7  2  0  0  0
  7  8  1  0  0  0
  8 30  1  0  0  0
 30 31  3  0  0  0
  8  9  2  0  0  0
  9 10  1  0  0  0
 24 25  2  0  0  0
 25 26  1  0  0  0
 26 27  1  0  0  0
 26 21  2  0  0  0
 10  1  2  0  0  0
 17 11  1  0  0  0
 10  5  1  0  0  0
 18 19  1  0  0  0
M  END
> <minimizedAffinity>
-9.90513

$$$$



 31 34  0  0  0  0  0  0  0  0999 V2000
    0.6091   65.4782   82.1549 C   0  0  0  0  0  0  0  0  0  0  0  0
    0.7288   66.0198   83.3820 N   0  0  0  0  0  0  0  0  0  0  0  0
    0.5308   65.2705   84.5119 N   0  0  0  0  0  0  0  0  0  0  0  0
    0.2203   63.9609   84.4340 C   0  0  0  0  0  0  0  0  0  0  0  0
    0.0613   63.3416   83.1733 C   0  0  0  0  0  0  0  0  0  0  0  0
   -0.3186   61.9845   83.0204 C   0  0  0  0  0  0  0  0  0  0  0  0
   -0.4495   61.3904   81.7637 C   0  0  0  0  0  0  0  0  0  0  0  0
   -0.2045   62.1399   80.6187 C   0  0  0  0  0  0  0  0  0  0  0  0
    0.1528   63.4863   80.7418 C   0  0  0  0  0  0  0  0  0  0  0  0
    0.2748   64.1158   82.0076 C   0  0  0  0  0  0  0  0  0  0  0  0
    0.0870   63.2074   85.6288 N   0  0  0  0  0  0  0  0  0  0  0  0
    0.8869   63.7892   86.7292 C   0  0  0  0  0  0  0  0  0  0  0  0
    0.0257   64.2534   87.8934 C   0  0  0  0  0  0  0  0  0  0  0  0
   -0.8488   63.1113   88.3473 C   0  0  0  0  0  0  0  0  0  0  0  0
   -1.1205   62.9482   89.5372 O   0  0  0  0  0  0  0  0  0  0  0  0
   -1.3896   62.1836   87.2880 C   0  0  0  0  0  0  0  0  0  0  0  0
   -1.3168   62.8905   85.9443 C   0  0  0  0  0  0  0  0  0  0  0  0
    0.7967   66.2764   81.0020 N   0  0  0  0  0  0  0  0  0  0  0  0
    0.0108   66.9179   80.9386 H   0  0  0  0  0  0  0  0  0  0  0  0
    2.0659   66.9941   80.9226 C   0  0  0  0  0  0  0  0  0  0  0  0
    1.6925   71.0031   82.5450 C   0  0  0  0  0  0  0  0  0  0  0  0
    2.8600   70.2601   82.7451 C   0  0  0  0  0  0  0  0  0  0  0  0
    2.9793   68.9663   82.2228 C   0  0  0  0  0  0  0  0  0  0  0  0
    1.9347   68.3873   81.4923 C   0  0  0  0  0  0  0  0  0  0  0  0
    0.7666   69.1331   81.2856 C   0  0  0  0  0  0  0  0  0  0  0  0
    0.6472   70.4253   81.8072 C   0  0  0  0  0  0  0  0  0  0  0  0
   -0.8277   71.2808   81.5104 Cl  0  0  0  0  0  0  0  0  0  0  0  0
    2.6276   73.1045   83.1896 C   0  0  0  0  0  0  0  0  0  0  0  0
    1.4882   72.2727   83.0196 O   0  0  0  0  0  0  0  0  0  0  0  0
   -0.3262   61.5408   79.3222 C   0  0  0  0  0  0  0  0  0  0  0  0
   -0.4198   61.0506   78.2745 N   0  0  0  0  0  0  0  0  0  0  0  0
 28 29  1  0  0  0
 29 21  1  0  0  0
 21 22  1  0  0  0
 22 23  2  0  0  0
 23 24  1  0  0  0
 24 20  1  0  0  0
 20 18  1  0  0  0
 18  1  1  0  0  0
  1  2  1  0  0  0
  2  3  2  0  0  0
  3  4  1  0  0  0
  4 11  1  0  0  0
 11 12  1  0  0  0
 12 13  1  0  0  0
 13 14  1  0  0  0
 14 15  2  0  0  0
 14 16  1  0  0  0
 16 17  1  0  0  0
  4  5  2  0  0  0
  5  6  1  0  0  0
  6  7  2  0  0  0
  7  8  1  0  0  0
  8 30  1  0  0  0
 30 31  3  0  0  0
  8  9  2  0  0  0
  9 10  1  0  0  0
 24 25  2  0  0  0
 25 26  1  0  0  0
 26 27  1  0  0  0
 26 21  2  0  0  0
 10  1  2  0  0  0
 17 11  1  0  0  0
 10  5  1  0  0  0
 18 19  1  0  0  0
M  END
> <minimizedAffinity>
-9.90452

$$$$



 31 34  0  0  0  0  0  0  0  0999 V2000
    0.6537   65.2617   83.5617 C   0  0  0  0  0  0  0  0  0  0  0  0
    0.4885   65.1495   82.2299 N   0  0  0  0  0  0  0  0  0  0  0  0
   -0.1275   64.0564   81.6797 N   0  0  0  0  0  0  0  0  0  0  0  0
   -0.6004   63.0595   82.4545 C   0  0  0  0  0  0  0  0  0  0  0  0
   -0.4383   63.1117   83.8577 C   0  0  0  0  0  0  0  0  0  0  0  0
   -0.8613   62.0729   84.7246 C   0  0  0  0  0  0  0  0  0  0  0  0
   -0.7079   62.1573   86.1098 C   0  0  0  0  0  0  0  0  0  0  0  0
   -0.1233   63.2872   86.6704 C   0  0  0  0  0  0  0  0  0  0  0  0
    0.3203   64.3177   85.8356 C   0  0  0  0  0  0  0  0  0  0  0  0
    0.1909   64.2462   84.4244 C   0  0  0  0  0  0  0  0  0  0  0  0
   -1.2883   61.9767   81.8485 N   0  0  0  0  0  0  0  0  0  0  0  0
   -2.7542   62.1151   81.9954 C   0  0  0  0  0  0  0  0  0  0  0  0
   -3.4641   62.2475   80.6572 C   0  0  0  0  0  0  0  0  0  0  0  0
   -3.0721   61.0898   79.7732 C   0  0  0  0  0  0  0  0  0  0  0  0
   -3.8786   60.5768   78.9968 O   0  0  0  0  0  0  0  0  0  0  0  0
   -1.6512   60.5920   79.8655 C   0  0  0  0  0  0  0  0  0  0  0  0
   -0.7972   61.6829   80.4910 C   0  0  0  0  0  0  0  0  0  0  0  0
    1.3122   66.3894   84.1060 N   0  0  0  0  0  0  0  0  0  0  0  0
    1.5601   66.1690   85.0667 H   0  0  0  0  0  0  0  0  0  0  0  0
    2.4735   66.8701   83.3628 C   0  0  0  0  0  0  0  0  0  0  0  0
    1.9824   71.0294   82.2211 C   0  0  0  0  0  0  0  0  0  0  0  0
    3.1701   70.5893   82.8133 C   0  0  0  0  0  0  0  0  0  0  0  0
    3.3274   69.2478   83.1828 C   0  0  0  0  0  0  0  0  0  0  0  0
    2.3014   68.3191   82.9708 C   0  0  0  0  0  0  0  0  0  0  0  0
    1.1131   68.7574   82.3715 C   0  0  0  0  0  0  0  0  0  0  0  0
    0.9557   70.0972   82.0024 C   0  0  0  0  0  0  0  0  0  0  0  0
   -0.5423   70.5604   81.2697 Cl  0  0  0  0  0  0  0  0  0  0  0  0
    2.0560   73.3580   82.7482 C   0  0  0  0  0  0  0  0  0  0  0  0
    1.7409   72.3207   81.8297 O   0  0  0  0  0  0  0  0  0  0  0  0
    0.0325   63.3916   88.0915 C   0  0  0  0  0  0  0  0  0  0  0  0
    0.1630   63.4819   89.2411 N   0  0  0  0  0  0  0  0  0  0  0  0
 28 29  1  0  0  0
 29 21  1  0  0  0
 21 22  1  0  0  0
 22 23  2  0  0  0
 23 24  1  0  0  0
 24 20  1  0  0  0
 20 18  1  0  0  0
 18  1  1  0  0  0
  1  2  1  0  0  0
  2  3  2  0  0  0
  3  4  1  0  0  0
  4 11  1  0  0  0
 11 12  1  0  0  0
 12 13  1  0  0  0
 13 14  1  0  0  0
 14 15  2  0  0  0
 14 16  1  0  0  0
 16 17  1  0  0  0
  4  5  2  0  0  0
  5  6  1  0  0  0
  6  7  2  0  0  0
  7  8  1  0  0  0
  8 30  1  0  0  0
 30 31  3  0  0  0
  8  9  2  0  0  0
  9 10  1  0  0  0
 24 25  2  0  0  0
 25 26  1  0  0  0
 26 27  1  0  0  0
 26 21  2  0  0  0
 10  1  2  0  0  0
 17 11  1  0  0  0
 10  5  1  0  0  0
 18 19  1  0  0  0
M  END
> <minimizedAffinity>
-9.78738

$$$$
