
     RDKit          3D

 50 53  0  0  0  0  0  0  0  0999 V2000
   -4.7135    2.1534    1.5491 C   0  0  0  0  0  0  0  0  0  0  0  0
   -5.3492    0.7727    1.4592 C   0  0  0  0  0  0  0  0  0  0  0  0
   -4.9225    0.0191    0.2006 C   0  0  0  0  0  0  0  0  0  0  0  0
   -3.5030   -0.1383    0.1393 O   0  0  0  0  0  0  0  0  0  0  0  0
   -2.9042   -1.2364    0.7013 C   0  0  0  0  0  0  0  0  0  0  0  0
   -3.5922   -2.1834    1.4737 C   0  0  0  0  0  0  0  0  0  0  0  0
   -2.9289   -3.2860    2.0184 C   0  0  0  0  0  0  0  0  0  0  0  0
   -1.5682   -3.4578    1.8025 C   0  0  0  0  0  0  0  0  0  0  0  0
   -0.8669   -2.5216    1.0448 C   0  0  0  0  0  0  0  0  0  0  0  0
   -1.5160   -1.4020    0.4899 C   0  0  0  0  0  0  0  0  0  0  0  0
   -0.6586   -0.4491   -0.3003 C   0  0  0  0  0  0  0  0  0  0  0  0
    0.5931   -0.7374   -0.5508 N   0  0  0  0  0  0  0  0  0  0  0  0
    1.2470    0.2159   -1.2613 C   0  0  0  0  0  0  0  0  0  0  0  0
    0.7451    1.4006   -1.7382 C   0  0  0  0  0  0  0  0  0  0  0  0
    1.8033    2.0276   -2.4196 C   0  0  0  0  0  0  0  0  0  0  0  0
    1.7870    3.3319   -3.1230 C   0  0  0  0  0  0  0  0  0  0  0  0
    2.9184    1.2789   -2.3825 N   0  0  0  0  0  0  0  0  0  0  0  0
    2.5609    0.1934   -1.6429 N   0  0  0  0  0  0  0  0  0  0  0  0
    3.5229   -0.8648   -1.3852 C   0  0  0  0  0  0  0  0  0  0  0  0
    4.2323   -0.6651   -0.0685 C   0  0  0  0  0  0  0  0  0  0  0  0
    3.7946   -1.3291    1.0867 C   0  0  0  0  0  0  0  0  0  0  0  0
    4.4478   -1.1357    2.3048 C   0  0  0  0  0  0  0  0  0  0  0  0
    5.5402   -0.2737    2.3821 C   0  0  0  0  0  0  0  0  0  0  0  0
    5.9774    0.4004    1.2434 C   0  0  0  0  0  0  0  0  0  0  0  0
    5.3257    0.2085    0.0244 C   0  0  0  0  0  0  0  0  0  0  0  0
   -0.6252    1.7185   -1.4714 C   0  0  0  0  0  0  0  0  0  0  0  0
   -1.1915    2.7374   -1.8498 O   0  0  0  0  0  0  0  0  0  0  0  0
   -1.2546    0.7347   -0.7337 N   0  0  0  0  0  0  0  0  0  0  0  0
   -5.0724    2.6761    2.4414 H   0  0  0  0  0  0  0  0  0  0  0  0
   -4.9691    2.7602    0.6747 H   0  0  0  0  0  0  0  0  0  0  0  0
   -3.6230    2.0864    1.6149 H   0  0  0  0  0  0  0  0  0  0  0  0
   -5.0693    0.2085    2.3550 H   0  0  0  0  0  0  0  0  0  0  0  0
   -6.4399    0.8763    1.4638 H   0  0  0  0  0  0  0  0  0  0  0  0
   -5.2025    0.6136   -0.6774 H   0  0  0  0  0  0  0  0  0  0  0  0
   -5.4519   -0.9333    0.0875 H   0  0  0  0  0  0  0  0  0  0  0  0
   -4.6529   -2.0952    1.6841 H   0  0  0  0  0  0  0  0  0  0  0  0
   -3.4793   -4.0106    2.6143 H   0  0  0  0  0  0  0  0  0  0  0  0
   -1.0498   -4.3151    2.2248 H   0  0  0  0  0  0  0  0  0  0  0  0
    0.2001   -2.6723    0.8932 H   0  0  0  0  0  0  0  0  0  0  0  0
    1.0559    3.3168   -3.9376 H   0  0  0  0  0  0  0  0  0  0  0  0
    1.5170    4.1356   -2.4306 H   0  0  0  0  0  0  0  0  0  0  0  0
    2.7659    3.5704   -3.5517 H   0  0  0  0  0  0  0  0  0  0  0  0
    4.2411   -0.8807   -2.2137 H   0  0  0  0  0  0  0  0  0  0  0  0
    2.9903   -1.8226   -1.4092 H   0  0  0  0  0  0  0  0  0  0  0  0
    2.9341   -1.9934    1.0446 H   0  0  0  0  0  0  0  0  0  0  0  0
    4.1001   -1.6526    3.1953 H   0  0  0  0  0  0  0  0  0  0  0  0
    6.0459   -0.1201    3.3316 H   0  0  0  0  0  0  0  0  0  0  0  0
    6.8216    1.0821    1.3046 H   0  0  0  0  0  0  0  0  0  0  0  0
    5.6660    0.7540   -0.8545 H   0  0  0  0  0  0  0  0  0  0  0  0
   -2.2293    0.9032   -0.5232 H   0  0  0  0  0  0  0  0  0  0  0  0
  1  2  1  0
  2  3  1  0
  3  4  1  0
  4  5  1  0
  5  6  2  0
  6  7  1  0
  7  8  2  0
  8  9  1  0
  9 10  2  0
 10 11  1  0
 11 12  2  0
 12 13  1  0
 13 14  2  0
 14 15  1  0
 15 16  1  0
 15 17  2  0
 17 18  1  0
 18 19  1  0
 19 20  1  0
 20 21  2  0
 21 22  1  0
 22 23  2  0
 23 24  1  0
 24 25  2  0
 14 26  1  0
 26 27  2  0
 26 28  1  0
 10  5  1  0
 28 11  1  0
 18 13  1  0
 25 20  1  0
  1 29  1  0
  1 30  1  0
  1 31  1  0
  2 32  1  0
  2 33  1  0
  3 34  1  0
  3 35  1  0
  6 36  1  0
  7 37  1  0
  8 38  1  0
  9 39  1  0
 16 40  1  0
 16 41  1  0
 16 42  1  0
 19 43  1  0
 19 44  1  0
 21 45  1  0
 22 46  1  0
 23 47  1  0
 24 48  1  0
 25 49  1  0
 28 50  1  0
M  END
$$$$
