
     RDKit          3D

 36 39  0  0  0  0  0  0  0  0999 V2000
   -1.8851    3.6740    0.4120 C   0  0  0  0  0  0  0  0  0  0  0  0
   -1.3119    2.9594   -0.8033 C   0  0  0  0  0  0  0  0  0  0  0  0
   -1.1168    1.5388   -0.5491 N   0  0  0  0  0  0  0  0  0  0  0  0
   -2.1797    0.6598   -0.8008 C   0  0  0  0  0  0  0  0  0  0  0  0
   -3.2713    0.9969   -1.2505 O   0  0  0  0  0  0  0  0  0  0  0  0
   -1.8827   -0.6976   -0.4621 C   0  0  0  0  0  0  0  0  0  0  0  0
   -2.6473   -1.8233   -0.5452 N   0  0  0  0  0  0  0  0  0  0  0  0
   -1.8802   -2.8691   -0.0742 C   0  0  0  0  0  0  0  0  0  0  0  0
   -2.3954   -4.2574   -0.0163 C   0  0  0  0  0  0  0  0  0  0  0  0
   -0.6798   -2.4535    0.2963 N   0  0  0  0  0  0  0  0  0  0  0  0
   -0.6918   -1.1192    0.0513 C   0  0  0  0  0  0  0  0  0  0  0  0
    0.2905   -0.2445    0.2525 N   0  0  0  0  0  0  0  0  0  0  0  0
    0.0759    1.0847    0.0068 C   0  0  0  0  0  0  0  0  0  0  0  0
    1.0569    1.8923    0.3267 N   0  0  0  0  0  0  0  0  0  0  0  0
    2.1006    0.9859    0.9097 C   0  0  2  0  0  0  0  0  0  0  0  0
    3.3595    0.9980    0.0472 C   0  0  0  0  0  0  0  0  0  0  0  0
    3.8285   -0.4485    0.0603 C   0  0  0  0  0  0  0  0  0  0  0  0
    2.5325   -1.2411   -0.0261 C   0  0  0  0  0  0  0  0  0  0  0  0
    1.5613   -0.4703    0.8624 C   0  0  2  0  0  0  0  0  0  0  0  0
   -1.2173    3.5848    1.2749 H   0  0  0  0  0  0  0  0  0  0  0  0
   -2.8545    3.2517    0.6961 H   0  0  0  0  0  0  0  0  0  0  0  0
   -2.0253    4.7376    0.1963 H   0  0  0  0  0  0  0  0  0  0  0  0
   -0.3571    3.4181   -1.0827 H   0  0  0  0  0  0  0  0  0  0  0  0
   -1.9928    3.0856   -1.6526 H   0  0  0  0  0  0  0  0  0  0  0  0
   -3.5989   -1.8733   -0.8854 H   0  0  0  0  0  0  0  0  0  0  0  0
   -2.6712   -4.6076   -1.0157 H   0  0  0  0  0  0  0  0  0  0  0  0
   -1.6343   -4.9339    0.3843 H   0  0  0  0  0  0  0  0  0  0  0  0
   -3.2767   -4.3142    0.6299 H   0  0  0  0  0  0  0  0  0  0  0  0
    2.3180    1.2876    1.9406 H   0  0  0  0  0  0  0  0  0  0  0  0
    3.1359    1.3119   -0.9799 H   0  0  0  0  0  0  0  0  0  0  0  0
    4.1196    1.6787    0.4427 H   0  0  0  0  0  0  0  0  0  0  0  0
    4.5081   -0.6725   -0.7668 H   0  0  0  0  0  0  0  0  0  0  0  0
    4.3468   -0.6708    1.0007 H   0  0  0  0  0  0  0  0  0  0  0  0
    2.1869   -1.2825   -1.0667 H   0  0  0  0  0  0  0  0  0  0  0  0
    2.6647   -2.2722    0.3166 H   0  0  0  0  0  0  0  0  0  0  0  0
    1.4845   -0.8940    1.8702 H   0  0  0  0  0  0  0  0  0  0  0  0
  1  2  1  0
  2  3  1  0
  3  4  1  0
  4  5  2  0
  4  6  1  0
  6  7  1  0
  7  8  1  0
  8  9  1  0
  8 10  2  0
 10 11  1  0
 11 12  1  0
 12 13  1  0
 13 14  2  0
 14 15  1  0
 15 16  1  0
 16 17  1  0
 17 18  1  0
 18 19  1  0
 13  3  1  0
 19 15  1  0
 11  6  2  0
 19 12  1  0
  1 20  1  0
  1 21  1  0
  1 22  1  0
  2 23  1  0
  2 24  1  0
  7 25  1  0
  9 26  1  0
  9 27  1  0
  9 28  1  0
 15 29  1  1
 16 30  1  0
 16 31  1  0
 17 32  1  0
 17 33  1  0
 18 34  1  0
 18 35  1  0
 19 36  1  1
M  END
$$$$
