
     RDKit          3D

 43 45  0  0  0  0  0  0  0  0999 V2000
    2.0937    3.9382   -0.7124 C   0  0  0  0  0  0  0  0  0  0  0  0
    2.1533    2.4208   -0.6368 C   0  0  0  0  0  0  0  0  0  0  0  0
    2.2344    1.9361    0.8106 C   0  0  0  0  0  0  0  0  0  0  0  0
    2.2943    0.4531    0.9145 C   0  0  0  0  0  0  0  0  0  0  0  0
    3.4496   -0.1774    1.3280 N   0  0  0  0  0  0  0  0  0  0  0  0
    3.1772   -1.4703    1.3283 C   0  0  0  0  0  0  0  0  0  0  0  0
    4.1249   -2.5453    1.7089 C   0  0  0  0  0  0  0  0  0  0  0  0
    1.8811   -1.6886    0.9215 N   0  0  0  0  0  0  0  0  0  0  0  0
    1.1069   -2.8123    0.7377 C   0  0  0  0  0  0  0  0  0  0  0  0
    1.7288   -3.9693    1.0173 O   0  0  0  0  0  0  0  0  0  0  0  0
   -0.1121   -2.7839    0.3284 N   0  0  0  0  0  0  0  0  0  0  0  0
   -0.6431   -1.5211    0.0811 C   0  0  0  0  0  0  0  0  0  0  0  0
   -2.0545   -1.5161   -0.4098 C   0  0  0  0  0  0  0  0  0  0  0  0
   -2.4952   -2.5965   -1.1938 C   0  0  0  0  0  0  0  0  0  0  0  0
   -3.8033   -2.6359   -1.6827 C   0  0  0  0  0  0  0  0  0  0  0  0
   -4.6885   -1.6030   -1.3848 C   0  0  0  0  0  0  0  0  0  0  0  0
   -4.2655   -0.5287   -0.6028 C   0  0  0  0  0  0  0  0  0  0  0  0
   -2.9475   -0.4721   -0.1320 C   0  0  0  0  0  0  0  0  0  0  0  0
   -2.6076    0.5630    0.6992 O   0  0  0  0  0  0  0  0  0  0  0  0
   -2.3742    1.7626   -0.0496 C   0  0  0  0  0  0  0  0  0  0  0  0
   -1.9085    2.8342    0.9182 C   0  0  0  0  0  0  0  0  0  0  0  0
    0.0172   -0.4051    0.2246 N   0  0  0  0  0  0  0  0  0  0  0  0
    1.3047   -0.4736    0.6537 C   0  0  0  0  0  0  0  0  0  0  0  0
    2.9846    4.3889   -0.2637 H   0  0  0  0  0  0  0  0  0  0  0  0
    2.0370    4.2637   -1.7558 H   0  0  0  0  0  0  0  0  0  0  0  0
    1.2124    4.3221   -0.1886 H   0  0  0  0  0  0  0  0  0  0  0  0
    3.0238    2.0639   -1.2006 H   0  0  0  0  0  0  0  0  0  0  0  0
    1.2654    2.0050   -1.1281 H   0  0  0  0  0  0  0  0  0  0  0  0
    1.3689    2.2992    1.3765 H   0  0  0  0  0  0  0  0  0  0  0  0
    3.1221    2.3664    1.2906 H   0  0  0  0  0  0  0  0  0  0  0  0
    3.7474   -3.1154    2.5630 H   0  0  0  0  0  0  0  0  0  0  0  0
    4.3016   -3.2259    0.8706 H   0  0  0  0  0  0  0  0  0  0  0  0
    5.0900   -2.1159    1.9969 H   0  0  0  0  0  0  0  0  0  0  0  0
    1.0930   -4.6894    0.8664 H   0  0  0  0  0  0  0  0  0  0  0  0
   -1.8191   -3.4132   -1.4355 H   0  0  0  0  0  0  0  0  0  0  0  0
   -4.1318   -3.4765   -2.2890 H   0  0  0  0  0  0  0  0  0  0  0  0
   -5.7118   -1.6392   -1.7503 H   0  0  0  0  0  0  0  0  0  0  0  0
   -4.9693    0.2583   -0.3448 H   0  0  0  0  0  0  0  0  0  0  0  0
   -3.2976    2.0971   -0.5369 H   0  0  0  0  0  0  0  0  0  0  0  0
   -1.6053    1.5985   -0.8141 H   0  0  0  0  0  0  0  0  0  0  0  0
   -2.6777    3.0305    1.6725 H   0  0  0  0  0  0  0  0  0  0  0  0
   -1.0141    2.5070    1.4565 H   0  0  0  0  0  0  0  0  0  0  0  0
   -1.6855    3.7662    0.3915 H   0  0  0  0  0  0  0  0  0  0  0  0
  1  2  1  0
  2  3  1  0
  3  4  1  0
  4  5  1  0
  5  6  2  0
  6  7  1  0
  6  8  1  0
  8  9  1  0
  9 10  1  0
  9 11  2  0
 11 12  1  0
 12 13  1  0
 13 14  2  0
 14 15  1  0
 15 16  2  0
 16 17  1  0
 17 18  2  0
 18 19  1  0
 19 20  1  0
 20 21  1  0
 12 22  2  0
 22 23  1  0
 23  4  2  0
 23  8  1  0
 18 13  1  0
  1 24  1  0
  1 25  1  0
  1 26  1  0
  2 27  1  0
  2 28  1  0
  3 29  1  0
  3 30  1  0
  7 31  1  0
  7 32  1  0
  7 33  1  0
 10 34  1  0
 14 35  1  0
 15 36  1  0
 16 37  1  0
 17 38  1  0
 20 39  1  0
 20 40  1  0
 21 41  1  0
 21 42  1  0
 21 43  1  0
M  END
$$$$
