


 28 32  0  0  0  0  0  0  0  0999 V2000
   -2.2123   63.2139   81.8716 C   0  0  0  0  0  0  0  0  0  0  0  0
   -1.1675   63.7518   82.7197 N   0  0  0  0  0  0  0  0  0  0  0  0
   -0.2841   64.7103   82.2073 C   0  0  0  0  0  0  0  0  0  0  0  0
   -0.3489   65.1501   81.0628 O   0  0  0  0  0  0  0  0  0  0  0  0
    0.7173   65.1381   83.1513 C   0  0  0  0  0  0  0  0  0  0  0  0
    0.7769   64.6712   84.4339 C   0  0  0  0  0  0  0  0  0  0  0  0
    1.7987   65.2052   85.1369 N   0  0  0  0  0  0  0  0  0  0  0  0
    2.4039   66.0396   84.2938 C   0  0  0  0  0  0  0  0  0  0  0  0
    1.7649   66.0254   83.0557 N   0  0  0  0  0  0  0  0  0  0  0  0
   -0.1130   63.7871   84.8755 N   0  0  0  0  0  0  0  0  0  0  0  0
   -1.0621   63.2955   84.0264 C   0  0  0  0  0  0  0  0  0  0  0  0
   -1.8577   62.3781   84.5168 N   0  0  0  0  0  0  0  0  0  0  0  0
   -1.3662   62.1853   85.9217 C   0  0  0  0  0  0  0  0  0  0  0  0
   -2.4447   62.5884   86.9236 C   0  0  0  0  0  0  0  0  0  0  0  0
   -1.6765   63.2955   88.0291 C   0  0  0  0  0  0  0  0  0  0  0  0
   -0.6243   64.0935   87.2736 C   0  0  0  0  0  0  0  0  0  0  0  0
   -0.1761   63.1569   86.1562 C   0  0  0  0  0  0  0  0  0  0  0  0
    3.5966   66.8938   84.6031 C   0  0  0  0  0  0  0  0  0  0  0  0
    4.3519   66.3790   85.6106 F   0  0  0  0  0  0  0  0  0  0  0  0
    3.2506   68.1481   84.9953 F   0  0  0  0  0  0  0  0  0  0  0  0
    4.4181   67.0341   83.5326 F   0  0  0  0  0  0  0  0  0  0  0  0
    2.1603   66.7583   81.8575 C   0  0  0  0  0  0  0  0  0  0  0  0
    1.4830   68.1008   81.7592 C   0  0  0  0  0  0  0  0  0  0  0  0
    1.9576   69.1941   82.4994 C   0  0  0  0  0  0  0  0  0  0  0  0
    1.3324   70.4391   82.4090 C   0  0  0  0  0  0  0  0  0  0  0  0
    0.2328   70.6094   81.5714 C   0  0  0  0  0  0  0  0  0  0  0  0
   -0.2402   69.5367   80.8198 C   0  0  0  0  0  0  0  0  0  0  0  0
    0.3823   68.2906   80.9099 C   0  0  0  0  0  0  0  0  0  0  0  0
  1  2  1  0  0  0
  2  3  1  0  0  0
  3  4  2  0  0  0
  3  5  1  0  0  0
  5  6  2  0  0  0
  6  7  1  0  0  0
  7  8  2  0  0  0
  8 18  1  0  0  0
 18 19  1  0  0  0
 18 20  1  0  0  0
 18 21  1  0  0  0
  8  9  1  0  0  0
  9 22  1  0  0  0
 22 23  1  0  0  0
 23 24  2  0  0  0
 24 25  1  0  0  0
 25 26  2  0  0  0
 26 27  1  0  0  0
 27 28  2  0  0  0
  6 10  1  0  0  0
 10 11  1  0  0  0
 11 12  2  0  0  0
 12 13  1  0  0  0
 13 14  1  0  0  0
 14 15  1  0  0  0
 15 16  1  0  0  0
 16 17  1  0  0  0
 11  2  1  0  0  0
 17 13  1  0  0  0
  9  5  1  0  0  0
 28 23  1  0  0  0
 17 10  1  0  0  0
M  END
> <minimizedAffinity>
-10.05912

$$$$



 28 32  0  0  0  0  0  0  0  0999 V2000
    3.6702   67.3688   84.6516 C   0  0  0  0  0  0  0  0  0  0  0  0
    2.6183   66.7904   83.8396 N   0  0  0  0  0  0  0  0  0  0  0  0
    2.0617   65.5575   84.2026 C   0  0  0  0  0  0  0  0  0  0  0  0
    2.4017   64.9261   85.1991 O   0  0  0  0  0  0  0  0  0  0  0  0
    1.0451   65.0912   83.2936 C   0  0  0  0  0  0  0  0  0  0  0  0
    0.6447   65.8028   82.1983 C   0  0  0  0  0  0  0  0  0  0  0  0
   -0.3149   65.1719   81.4880 N   0  0  0  0  0  0  0  0  0  0  0  0
   -0.5441   64.0357   82.1435 C   0  0  0  0  0  0  0  0  0  0  0  0
    0.2779   63.9490   83.2651 N   0  0  0  0  0  0  0  0  0  0  0  0
    1.1852   66.9867   81.9243 N   0  0  0  0  0  0  0  0  0  0  0  0
    2.1900   67.4735   82.7098 C   0  0  0  0  0  0  0  0  0  0  0  0
    2.7171   68.6122   82.3349 N   0  0  0  0  0  0  0  0  0  0  0  0
    1.9769   68.9573   81.0758 C   0  0  0  0  0  0  0  0  0  0  0  0
    1.1819   70.2468   81.2615 C   0  0  0  0  0  0  0  0  0  0  0  0
   -0.1266   69.9824   80.5330 C   0  0  0  0  0  0  0  0  0  0  0  0
   -0.4298   68.5296   80.8675 C   0  0  0  0  0  0  0  0  0  0  0  0
    0.9298   67.8407   80.8079 C   0  0  0  0  0  0  0  0  0  0  0  0
   -1.5429   62.9844   81.7626 C   0  0  0  0  0  0  0  0  0  0  0  0
   -1.1376   61.7355   82.1182 F   0  0  0  0  0  0  0  0  0  0  0  0
   -1.7665   62.9402   80.4228 F   0  0  0  0  0  0  0  0  0  0  0  0
   -2.7485   63.1852   82.3513 F   0  0  0  0  0  0  0  0  0  0  0  0
    0.3647   62.8349   84.2035 C   0  0  0  0  0  0  0  0  0  0  0  0
   -0.5634   63.0036   85.3785 C   0  0  0  0  0  0  0  0  0  0  0  0
   -1.8905   62.5537   85.3085 C   0  0  0  0  0  0  0  0  0  0  0  0
   -2.7518   62.7078   86.3963 C   0  0  0  0  0  0  0  0  0  0  0  0
   -2.2957   63.3037   87.5696 C   0  0  0  0  0  0  0  0  0  0  0  0
   -0.9768   63.7419   87.6584 C   0  0  0  0  0  0  0  0  0  0  0  0
   -0.1143   63.5903   86.5714 C   0  0  0  0  0  0  0  0  0  0  0  0
  1  2  1  0  0  0
  2  3  1  0  0  0
  3  4  2  0  0  0
  3  5  1  0  0  0
  5  6  2  0  0  0
  6  7  1  0  0  0
  7  8  2  0  0  0
  8 18  1  0  0  0
 18 19  1  0  0  0
 18 20  1  0  0  0
 18 21  1  0  0  0
  8  9  1  0  0  0
  9 22  1  0  0  0
 22 23  1  0  0  0
 23 24  2  0  0  0
 24 25  1  0  0  0
 25 26  2  0  0  0
 26 27  1  0  0  0
 27 28  2  0  0  0
  6 10  1  0  0  0
 10 11  1  0  0  0
 11 12  2  0  0  0
 12 13  1  0  0  0
 13 14  1  0  0  0
 14 15  1  0  0  0
 15 16  1  0  0  0
 16 17  1  0  0  0
 11  2  1  0  0  0
 17 13  1  0  0  0
  9  5  1  0  0  0
 28 23  1  0  0  0
 17 10  1  0  0  0
M  END
> <minimizedAffinity>
-9.55442

$$$$



 28 32  0  0  0  0  0  0  0  0999 V2000
    3.6765   67.3676   84.6666 C   0  0  0  0  0  0  0  0  0  0  0  0
    2.6246   66.7886   83.8551 N   0  0  0  0  0  0  0  0  0  0  0  0
    2.0703   65.5543   84.2173 C   0  0  0  0  0  0  0  0  0  0  0  0
    2.4125   64.9222   85.2126 O   0  0  0  0  0  0  0  0  0  0  0  0
    1.0533   65.0875   83.3089 C   0  0  0  0  0  0  0  0  0  0  0  0
    0.6506   65.7998   82.2149 C   0  0  0  0  0  0  0  0  0  0  0  0
   -0.3089   65.1682   81.5050 N   0  0  0  0  0  0  0  0  0  0  0  0
   -0.5356   64.0309   82.1594 C   0  0  0  0  0  0  0  0  0  0  0  0
    0.2879   63.9441   83.2800 N   0  0  0  0  0  0  0  0  0  0  0  0
    1.1889   66.9848   81.9417 N   0  0  0  0  0  0  0  0  0  0  0  0
    2.1938   67.4723   82.7266 C   0  0  0  0  0  0  0  0  0  0  0  0
    2.7187   68.6123   82.3525 N   0  0  0  0  0  0  0  0  0  0  0  0
    1.9764   68.9578   81.0946 C   0  0  0  0  0  0  0  0  0  0  0  0
    1.1795   70.2458   81.2828 C   0  0  0  0  0  0  0  0  0  0  0  0
   -0.1293   69.9802   80.5557 C   0  0  0  0  0  0  0  0  0  0  0  0
   -0.4299   68.5264   80.8888 C   0  0  0  0  0  0  0  0  0  0  0  0
    0.9307   67.8399   80.8266 C   0  0  0  0  0  0  0  0  0  0  0  0
   -1.5331   62.9784   81.7784 C   0  0  0  0  0  0  0  0  0  0  0  0
   -1.7679   62.9518   80.4388 F   0  0  0  0  0  0  0  0  0  0  0  0
   -2.7423   63.1697   82.3687 F   0  0  0  0  0  0  0  0  0  0  0  0
   -1.1231   61.7331   82.1272 F   0  0  0  0  0  0  0  0  0  0  0  0
    0.3777   62.8290   84.2169 C   0  0  0  0  0  0  0  0  0  0  0  0
   -0.5569   62.9897   85.3879 C   0  0  0  0  0  0  0  0  0  0  0  0
   -0.1174   63.6015   86.5715 C   0  0  0  0  0  0  0  0  0  0  0  0
   -0.9819   63.7526   87.6573 C   0  0  0  0  0  0  0  0  0  0  0  0
   -2.2974   63.3036   87.5705 C   0  0  0  0  0  0  0  0  0  0  0  0
   -2.7516   62.7074   86.3968 C   0  0  0  0  0  0  0  0  0  0  0  0
   -1.8885   62.5539   85.3105 C   0  0  0  0  0  0  0  0  0  0  0  0
  1  2  1  0  0  0
  2  3  1  0  0  0
  3  4  2  0  0  0
  3  5  1  0  0  0
  5  6  2  0  0  0
  6  7  1  0  0  0
  7  8  2  0  0  0
  8 18  1  0  0  0
 18 19  1  0  0  0
 18 20  1  0  0  0
 18 21  1  0  0  0
  8  9  1  0  0  0
  9 22  1  0  0  0
 22 23  1  0  0  0
 23 24  2  0  0  0
 24 25  1  0  0  0
 25 26  2  0  0  0
 26 27  1  0  0  0
 27 28  2  0  0  0
  6 10  1  0  0  0
 10 11  1  0  0  0
 11 12  2  0  0  0
 12 13  1  0  0  0
 13 14  1  0  0  0
 14 15  1  0  0  0
 15 16  1  0  0  0
 16 17  1  0  0  0
 11  2  1  0  0  0
 17 13  1  0  0  0
  9  5  1  0  0  0
 28 23  1  0  0  0
 17 10  1  0  0  0
M  END
> <minimizedAffinity>
-9.51738

$$$$



 28 32  0  0  0  0  0  0  0  0999 V2000
    0.7101   65.3948   79.2548 C   0  0  0  0  0  0  0  0  0  0  0  0
    0.5722   64.7989   80.5686 N   0  0  0  0  0  0  0  0  0  0  0  0
    0.8486   65.5640   81.7088 C   0  0  0  0  0  0  0  0  0  0  0  0
    1.1913   66.7422   81.6691 O   0  0  0  0  0  0  0  0  0  0  0  0
    0.6938   64.8383   82.9444 C   0  0  0  0  0  0  0  0  0  0  0  0
    0.2870   63.5351   82.9947 C   0  0  0  0  0  0  0  0  0  0  0  0
    0.2175   63.0582   84.2561 N   0  0  0  0  0  0  0  0  0  0  0  0
    0.5776   64.0768   85.0346 C   0  0  0  0  0  0  0  0  0  0  0  0
    0.8804   65.1949   84.2604 N   0  0  0  0  0  0  0  0  0  0  0  0
    0.0035   62.8698   81.8786 N   0  0  0  0  0  0  0  0  0  0  0  0
    0.1740   63.4728   80.6658 C   0  0  0  0  0  0  0  0  0  0  0  0
   -0.0600   62.7302   79.6127 N   0  0  0  0  0  0  0  0  0  0  0  0
   -0.4272   61.3928   80.1864 C   0  0  0  0  0  0  0  0  0  0  0  0
   -1.8671   61.0362   79.8276 C   0  0  0  0  0  0  0  0  0  0  0  0
   -2.4120   60.3853   81.0892 C   0  0  0  0  0  0  0  0  0  0  0  0
   -1.8072   61.2209   82.2075 C   0  0  0  0  0  0  0  0  0  0  0  0
   -0.3841   61.5021   81.7360 C   0  0  0  0  0  0  0  0  0  0  0  0
    0.6477   64.0599   86.5322 C   0  0  0  0  0  0  0  0  0  0  0  0
    0.0892   62.9381   87.0616 F   0  0  0  0  0  0  0  0  0  0  0  0
   -0.0080   65.1085   87.0956 F   0  0  0  0  0  0  0  0  0  0  0  0
    1.9251   64.1109   86.9863 F   0  0  0  0  0  0  0  0  0  0  0  0
    1.3666   66.4853   84.7378 C   0  0  0  0  0  0  0  0  0  0  0  0
    2.8675   66.5949   84.6605 C   0  0  0  0  0  0  0  0  0  0  0  0
    3.4725   67.7660   84.1803 C   0  0  0  0  0  0  0  0  0  0  0  0
    4.8629   67.8702   84.1089 C   0  0  0  0  0  0  0  0  0  0  0  0
    5.6651   66.8105   84.5251 C   0  0  0  0  0  0  0  0  0  0  0  0
    5.0785   65.6474   85.0175 C   0  0  0  0  0  0  0  0  0  0  0  0
    3.6885   65.5404   85.0883 C   0  0  0  0  0  0  0  0  0  0  0  0
  1  2  1  0  0  0
  2  3  1  0  0  0
  3  4  2  0  0  0
  3  5  1  0  0  0
  5  6  2  0  0  0
  6  7  1  0  0  0
  7  8  2  0  0  0
  8 18  1  0  0  0
 18 19  1  0  0  0
 18 20  1  0  0  0
 18 21  1  0  0  0
  8  9  1  0  0  0
  9 22  1  0  0  0
 22 23  1  0  0  0
 23 24  2  0  0  0
 24 25  1  0  0  0
 25 26  2  0  0  0
 26 27  1  0  0  0
 27 28  2  0  0  0
  6 10  1  0  0  0
 10 11  1  0  0  0
 11 12  2  0  0  0
 12 13  1  0  0  0
 13 14  1  0  0  0
 14 15  1  0  0  0
 15 16  1  0  0  0
 16 17  1  0  0  0
 11  2  1  0  0  0
 17 13  1  0  0  0
  9  5  1  0  0  0
 28 23  1  0  0  0
 17 10  1  0  0  0
M  END
> <minimizedAffinity>
-9.49250

$$$$



 28 32  0  0  0  0  0  0  0  0999 V2000
   -0.3720   63.2777   84.1078 C   0  0  0  0  0  0  0  0  0  0  0  0
    0.1929   64.3585   83.3249 N   0  0  0  0  0  0  0  0  0  0  0  0
    0.9411   65.3572   83.9612 C   0  0  0  0  0  0  0  0  0  0  0  0
    1.1716   65.3683   85.1670 O   0  0  0  0  0  0  0  0  0  0  0  0
    1.4204   66.3802   83.0663 C   0  0  0  0  0  0  0  0  0  0  0  0
    1.1889   66.3578   81.7200 C   0  0  0  0  0  0  0  0  0  0  0  0
    1.7263   67.4185   81.0802 N   0  0  0  0  0  0  0  0  0  0  0  0
    2.3239   68.1338   82.0313 C   0  0  0  0  0  0  0  0  0  0  0  0
    2.1563   67.5246   83.2731 N   0  0  0  0  0  0  0  0  0  0  0  0
    0.5014   65.3628   81.1669 N   0  0  0  0  0  0  0  0  0  0  0  0
   -0.0288   64.3823   81.9550 C   0  0  0  0  0  0  0  0  0  0  0  0
   -0.7504   63.4762   81.3439 N   0  0  0  0  0  0  0  0  0  0  0  0
   -0.7390   63.9115   79.9077 C   0  0  0  0  0  0  0  0  0  0  0  0
   -0.0466   62.8648   79.0391 C   0  0  0  0  0  0  0  0  0  0  0  0
    0.7604   63.6847   78.0447 C   0  0  0  0  0  0  0  0  0  0  0  0
    1.2893   64.8378   78.8845 C   0  0  0  0  0  0  0  0  0  0  0  0
    0.1233   65.1998   79.7988 C   0  0  0  0  0  0  0  0  0  0  0  0
    3.0846   69.4096   81.8281 C   0  0  0  0  0  0  0  0  0  0  0  0
    3.2198   69.7250   80.5117 F   0  0  0  0  0  0  0  0  0  0  0  0
    4.3453   69.3496   82.3320 F   0  0  0  0  0  0  0  0  0  0  0  0
    2.4787   70.4681   82.4222 F   0  0  0  0  0  0  0  0  0  0  0  0
    2.6135   68.0276   84.5644 C   0  0  0  0  0  0  0  0  0  0  0  0
    3.9874   67.5217   84.9209 C   0  0  0  0  0  0  0  0  0  0  0  0
    4.7920   68.2253   85.8297 C   0  0  0  0  0  0  0  0  0  0  0  0
    6.0647   67.7578   86.1624 C   0  0  0  0  0  0  0  0  0  0  0  0
    6.5448   66.5779   85.5994 C   0  0  0  0  0  0  0  0  0  0  0  0
    5.7514   65.8616   84.7068 C   0  0  0  0  0  0  0  0  0  0  0  0
    4.4792   66.3279   84.3715 C   0  0  0  0  0  0  0  0  0  0  0  0
  1  2  1  0  0  0
  2  3  1  0  0  0
  3  4  2  0  0  0
  3  5  1  0  0  0
  5  6  2  0  0  0
  6  7  1  0  0  0
  7  8  2  0  0  0
  8 18  1  0  0  0
 18 19  1  0  0  0
 18 20  1  0  0  0
 18 21  1  0  0  0
  8  9  1  0  0  0
  9 22  1  0  0  0
 22 23  1  0  0  0
 23 24  2  0  0  0
 24 25  1  0  0  0
 25 26  2  0  0  0
 26 27  1  0  0  0
 27 28  2  0  0  0
  6 10  1  0  0  0
 10 11  1  0  0  0
 11 12  2  0  0  0
 12 13  1  0  0  0
 13 14  1  0  0  0
 14 15  1  0  0  0
 15 16  1  0  0  0
 16 17  1  0  0  0
 11  2  1  0  0  0
 17 13  1  0  0  0
  9  5  1  0  0  0
 28 23  1  0  0  0
 17 10  1  0  0  0
M  END
> <minimizedAffinity>
-9.49086

$$$$



 28 32  0  0  0  0  0  0  0  0999 V2000
   -0.1185   64.3006   77.0002 C   0  0  0  0  0  0  0  0  0  0  0  0
   -0.1257   64.2535   78.4487 N   0  0  0  0  0  0  0  0  0  0  0  0
    0.6534   65.1630   79.1752 C   0  0  0  0  0  0  0  0  0  0  0  0
    1.3461   66.0320   78.6533 O   0  0  0  0  0  0  0  0  0  0  0  0
    0.5692   64.9861   80.6030 C   0  0  0  0  0  0  0  0  0  0  0  0
   -0.2207   64.0378   81.1889 C   0  0  0  0  0  0  0  0  0  0  0  0
   -0.1386   64.0501   82.5367 N   0  0  0  0  0  0  0  0  0  0  0  0
    0.7137   65.0316   82.8255 C   0  0  0  0  0  0  0  0  0  0  0  0
    1.1736   65.6337   81.6562 N   0  0  0  0  0  0  0  0  0  0  0  0
   -0.9675   63.2249   80.4472 N   0  0  0  0  0  0  0  0  0  0  0  0
   -0.9041   63.2969   79.0854 C   0  0  0  0  0  0  0  0  0  0  0  0
   -1.6161   62.4176   78.4260 N   0  0  0  0  0  0  0  0  0  0  0  0
   -2.2553   61.5886   79.5015 C   0  0  0  0  0  0  0  0  0  0  0  0
   -3.7737   61.7372   79.4572 C   0  0  0  0  0  0  0  0  0  0  0  0
   -4.1830   61.7872   80.9209 C   0  0  0  0  0  0  0  0  0  0  0  0
   -3.0861   62.6209   81.5663 C   0  0  0  0  0  0  0  0  0  0  0  0
   -1.8076   62.1529   80.8785 C   0  0  0  0  0  0  0  0  0  0  0  0
    1.1319   65.4599   84.2001 C   0  0  0  0  0  0  0  0  0  0  0  0
    1.0206   66.8040   84.3773 F   0  0  0  0  0  0  0  0  0  0  0  0
    2.4276   65.1509   84.4696 F   0  0  0  0  0  0  0  0  0  0  0  0
    0.3834   64.8757   85.1691 F   0  0  0  0  0  0  0  0  0  0  0  0
    2.1585   66.7054   81.5517 C   0  0  0  0  0  0  0  0  0  0  0  0
    1.5270   68.0714   81.6280 C   0  0  0  0  0  0  0  0  0  0  0  0
    2.1099   69.0832   82.4058 C   0  0  0  0  0  0  0  0  0  0  0  0
    1.5272   70.3499   82.4771 C   0  0  0  0  0  0  0  0  0  0  0  0
    0.3620   70.6239   81.7652 C   0  0  0  0  0  0  0  0  0  0  0  0
   -0.2196   69.6335   80.9777 C   0  0  0  0  0  0  0  0  0  0  0  0
    0.3603   68.3658   80.9062 C   0  0  0  0  0  0  0  0  0  0  0  0
  1  2  1  0  0  0
  2  3  1  0  0  0
  3  4  2  0  0  0
  3  5  1  0  0  0
  5  6  2  0  0  0
  6  7  1  0  0  0
  7  8  2  0  0  0
  8 18  1  0  0  0
 18 19  1  0  0  0
 18 20  1  0  0  0
 18 21  1  0  0  0
  8  9  1  0  0  0
  9 22  1  0  0  0
 22 23  1  0  0  0
 23 24  2  0  0  0
 24 25  1  0  0  0
 25 26  2  0  0  0
 26 27  1  0  0  0
 27 28  2  0  0  0
  6 10  1  0  0  0
 10 11  1  0  0  0
 11 12  2  0  0  0
 12 13  1  0  0  0
 13 14  1  0  0  0
 14 15  1  0  0  0
 15 16  1  0  0  0
 16 17  1  0  0  0
 11  2  1  0  0  0
 17 13  1  0  0  0
  9  5  1  0  0  0
 28 23  1  0  0  0
 17 10  1  0  0  0
M  END
> <minimizedAffinity>
-9.49077

$$$$



 28 32  0  0  0  0  0  0  0  0999 V2000
   -0.6452   62.5237   86.3477 C   0  0  0  0  0  0  0  0  0  0  0  0
   -0.3753   63.3257   85.1712 N   0  0  0  0  0  0  0  0  0  0  0  0
    0.4342   64.4636   85.2793 C   0  0  0  0  0  0  0  0  0  0  0  0
    0.9590   64.8262   86.3283 O   0  0  0  0  0  0  0  0  0  0  0  0
    0.5976   65.1779   84.0382 C   0  0  0  0  0  0  0  0  0  0  0  0
    0.0374   64.7635   82.8631 C   0  0  0  0  0  0  0  0  0  0  0  0
    0.3182   65.5883   81.8314 N   0  0  0  0  0  0  0  0  0  0  0  0
    1.0820   66.5480   82.3498 C   0  0  0  0  0  0  0  0  0  0  0  0
    1.2767   66.3297   83.7121 N   0  0  0  0  0  0  0  0  0  0  0  0
   -0.6929   63.6531   82.8148 N   0  0  0  0  0  0  0  0  0  0  0  0
   -0.9354   62.9485   83.9585 C   0  0  0  0  0  0  0  0  0  0  0  0
   -1.7196   61.9063   83.8405 N   0  0  0  0  0  0  0  0  0  0  0  0
   -2.1012   61.9021   82.3890 C   0  0  0  0  0  0  0  0  0  0  0  0
   -1.5752   60.6441   81.7033 C   0  0  0  0  0  0  0  0  0  0  0  0
   -1.1059   61.1338   80.3423 C   0  0  0  0  0  0  0  0  0  0  0  0
   -0.4680   62.4799   80.6517 C   0  0  0  0  0  0  0  0  0  0  0  0
   -1.3899   63.0985   81.6977 C   0  0  0  0  0  0  0  0  0  0  0  0
    1.6725   67.7053   81.6016 C   0  0  0  0  0  0  0  0  0  0  0  0
    1.4427   68.8928   82.2241 F   0  0  0  0  0  0  0  0  0  0  0  0
    1.1596   67.8314   80.3494 F   0  0  0  0  0  0  0  0  0  0  0  0
    3.0172   67.5927   81.4612 F   0  0  0  0  0  0  0  0  0  0  0  0
    2.0060   67.1866   84.6412 C   0  0  0  0  0  0  0  0  0  0  0  0
    3.4820   66.8837   84.6596 C   0  0  0  0  0  0  0  0  0  0  0  0
    4.4143   67.8590   84.2748 C   0  0  0  0  0  0  0  0  0  0  0  0
    5.7823   67.5810   84.2922 C   0  0  0  0  0  0  0  0  0  0  0  0
    6.2357   66.3300   84.7032 C   0  0  0  0  0  0  0  0  0  0  0  0
    5.3225   65.3570   85.1015 C   0  0  0  0  0  0  0  0  0  0  0  0
    3.9542   65.6321   85.0834 C   0  0  0  0  0  0  0  0  0  0  0  0
  1  2  1  0  0  0
  2  3  1  0  0  0
  3  4  2  0  0  0
  3  5  1  0  0  0
  5  6  2  0  0  0
  6  7  1  0  0  0
  7  8  2  0  0  0
  8 18  1  0  0  0
 18 19  1  0  0  0
 18 20  1  0  0  0
 18 21  1  0  0  0
  8  9  1  0  0  0
  9 22  1  0  0  0
 22 23  1  0  0  0
 23 24  2  0  0  0
 24 25  1  0  0  0
 25 26  2  0  0  0
 26 27  1  0  0  0
 27 28  2  0  0  0
  6 10  1  0  0  0
 10 11  1  0  0  0
 11 12  2  0  0  0
 12 13  1  0  0  0
 13 14  1  0  0  0
 14 15  1  0  0  0
 15 16  1  0  0  0
 16 17  1  0  0  0
 11  2  1  0  0  0
 17 13  1  0  0  0
  9  5  1  0  0  0
 28 23  1  0  0  0
 17 10  1  0  0  0
M  END
> <minimizedAffinity>
-9.40710

$$$$



 28 32  0  0  0  0  0  0  0  0999 V2000
    2.1558   68.8088   81.0165 C   0  0  0  0  0  0  0  0  0  0  0  0
    1.9183   67.7202   81.9433 N   0  0  0  0  0  0  0  0  0  0  0  0
    0.8839   66.8099   81.6922 C   0  0  0  0  0  0  0  0  0  0  0  0
    0.1575   66.8633   80.7039 O   0  0  0  0  0  0  0  0  0  0  0  0
    0.7464   65.7956   82.7068 C   0  0  0  0  0  0  0  0  0  0  0  0
    1.5692   65.7163   83.7945 C   0  0  0  0  0  0  0  0  0  0  0  0
    1.2528   64.6916   84.6150 N   0  0  0  0  0  0  0  0  0  0  0  0
    0.2114   64.0930   84.0400 C   0  0  0  0  0  0  0  0  0  0  0  0
   -0.1318   64.7468   82.8585 N   0  0  0  0  0  0  0  0  0  0  0  0
    2.5589   66.5890   83.9609 N   0  0  0  0  0  0  0  0  0  0  0  0
    2.7225   67.6096   83.0691 C   0  0  0  0  0  0  0  0  0  0  0  0
    3.6752   68.4666   83.3394 N   0  0  0  0  0  0  0  0  0  0  0  0
    4.2466   67.9761   84.6376 C   0  0  0  0  0  0  0  0  0  0  0  0
    5.7030   67.5580   84.4546 C   0  0  0  0  0  0  0  0  0  0  0  0
    5.8369   66.3038   85.3041 C   0  0  0  0  0  0  0  0  0  0  0  0
    4.5208   65.5770   85.0710 C   0  0  0  0  0  0  0  0  0  0  0  0
    3.4780   66.6900   85.0500 C   0  0  0  0  0  0  0  0  0  0  0  0
   -0.5054   62.8820   84.5574 C   0  0  0  0  0  0  0  0  0  0  0  0
   -0.1960   62.6153   85.8550 F   0  0  0  0  0  0  0  0  0  0  0  0
   -0.1985   61.7576   83.8586 F   0  0  0  0  0  0  0  0  0  0  0  0
   -1.8537   63.0202   84.4987 F   0  0  0  0  0  0  0  0  0  0  0  0
   -1.2482   64.4294   81.9742 C   0  0  0  0  0  0  0  0  0  0  0  0
   -0.9437   63.2682   81.0634 C   0  0  0  0  0  0  0  0  0  0  0  0
   -1.8130   62.1690   80.9954 C   0  0  0  0  0  0  0  0  0  0  0  0
   -1.5335   61.0926   80.1514 C   0  0  0  0  0  0  0  0  0  0  0  0
   -0.3885   61.1056   79.3586 C   0  0  0  0  0  0  0  0  0  0  0  0
    0.4759   62.1964   79.4051 C   0  0  0  0  0  0  0  0  0  0  0  0
    0.1993   63.2730   80.2494 C   0  0  0  0  0  0  0  0  0  0  0  0
  1  2  1  0  0  0
  2  3  1  0  0  0
  3  4  2  0  0  0
  3  5  1  0  0  0
  5  6  2  0  0  0
  6  7  1  0  0  0
  7  8  2  0  0  0
  8 18  1  0  0  0
 18 19  1  0  0  0
 18 20  1  0  0  0
 18 21  1  0  0  0
  8  9  1  0  0  0
  9 22  1  0  0  0
 22 23  1  0  0  0
 23 24  2  0  0  0
 24 25  1  0  0  0
 25 26  2  0  0  0
 26 27  1  0  0  0
 27 28  2  0  0  0
  6 10  1  0  0  0
 10 11  1  0  0  0
 11 12  2  0  0  0
 12 13  1  0  0  0
 13 14  1  0  0  0
 14 15  1  0  0  0
 15 16  1  0  0  0
 16 17  1  0  0  0
 11  2  1  0  0  0
 17 13  1  0  0  0
  9  5  1  0  0  0
 28 23  1  0  0  0
 17 10  1  0  0  0
M  END
> <minimizedAffinity>
-9.30463

$$$$



 28 32  0  0  0  0  0  0  0  0999 V2000
   -1.2749   63.5829   81.0681 C   0  0  0  0  0  0  0  0  0  0  0  0
   -0.3750   64.3499   81.9060 N   0  0  0  0  0  0  0  0  0  0  0  0
    0.2389   65.4994   81.3927 C   0  0  0  0  0  0  0  0  0  0  0  0
    0.0463   65.9219   80.2561 O   0  0  0  0  0  0  0  0  0  0  0  0
    1.1255   66.1480   82.3257 C   0  0  0  0  0  0  0  0  0  0  0  0
    1.3225   65.6966   83.6000 C   0  0  0  0  0  0  0  0  0  0  0  0
    2.1982   66.4556   84.2932 N   0  0  0  0  0  0  0  0  0  0  0  0
    2.5657   67.4205   83.4522 C   0  0  0  0  0  0  0  0  0  0  0  0
    1.9244   67.2641   82.2252 N   0  0  0  0  0  0  0  0  0  0  0  0
    0.6828   64.6183   84.0437 N   0  0  0  0  0  0  0  0  0  0  0  0
   -0.1356   63.9197   83.2038 C   0  0  0  0  0  0  0  0  0  0  0  0
   -0.6747   62.8315   83.6942 N   0  0  0  0  0  0  0  0  0  0  0  0
   -0.1228   62.7497   85.0875 C   0  0  0  0  0  0  0  0  0  0  0  0
   -1.2464   62.8685   86.1136 C   0  0  0  0  0  0  0  0  0  0  0  0
   -0.6505   63.7298   87.2161 C   0  0  0  0  0  0  0  0  0  0  0  0
    0.1611   64.7670   86.4544 C   0  0  0  0  0  0  0  0  0  0  0  0
    0.8005   63.9787   85.3158 C   0  0  0  0  0  0  0  0  0  0  0  0
    3.5215   68.5356   83.7535 C   0  0  0  0  0  0  0  0  0  0  0  0
    2.8834   69.7185   83.9640 F   0  0  0  0  0  0  0  0  0  0  0  0
    4.3992   68.7567   82.7399 F   0  0  0  0  0  0  0  0  0  0  0  0
    4.2628   68.2899   84.8629 F   0  0  0  0  0  0  0  0  0  0  0  0
    2.1058   68.0833   81.0313 C   0  0  0  0  0  0  0  0  0  0  0  0
    1.4497   69.4338   81.1597 C   0  0  0  0  0  0  0  0  0  0  0  0
    2.1829   70.6070   80.9265 C   0  0  0  0  0  0  0  0  0  0  0  0
    1.5769   71.8593   81.0437 C   0  0  0  0  0  0  0  0  0  0  0  0
    0.2300   71.9543   81.3853 C   0  0  0  0  0  0  0  0  0  0  0  0
   -0.5136   70.7977   81.6055 C   0  0  0  0  0  0  0  0  0  0  0  0
    0.0906   69.5447   81.4905 C   0  0  0  0  0  0  0  0  0  0  0  0
  1  2  1  0  0  0
  2  3  1  0  0  0
  3  4  2  0  0  0
  3  5  1  0  0  0
  5  6  2  0  0  0
  6  7  1  0  0  0
  7  8  2  0  0  0
  8 18  1  0  0  0
 18 19  1  0  0  0
 18 20  1  0  0  0
 18 21  1  0  0  0
  8  9  1  0  0  0
  9 22  1  0  0  0
 22 23  1  0  0  0
 23 24  2  0  0  0
 24 25  1  0  0  0
 25 26  2  0  0  0
 26 27  1  0  0  0
 27 28  2  0  0  0
  6 10  1  0  0  0
 10 11  1  0  0  0
 11 12  2  0  0  0
 12 13  1  0  0  0
 13 14  1  0  0  0
 14 15  1  0  0  0
 15 16  1  0  0  0
 16 17  1  0  0  0
 11  2  1  0  0  0
 17 13  1  0  0  0
  9  5  1  0  0  0
 28 23  1  0  0  0
 17 10  1  0  0  0
M  END
> <minimizedAffinity>
-9.12634

$$$$
