
     RDKit          3D

 40 42  0  0  0  0  0  0  0  0999 V2000
    4.3072   -2.6862   -1.3231 C   0  0  0  0  0  0  0  0  0  0  0  0
    3.8085   -1.3731   -0.8509 C   0  0  0  0  0  0  0  0  0  0  0  0
    4.6192   -0.3023   -0.8081 N   0  0  0  0  0  0  0  0  0  0  0  0
    3.8267    0.6912   -0.3347 N   0  0  0  0  0  0  0  0  0  0  0  0
    4.3779    2.0107   -0.1584 C   0  0  0  0  0  0  0  0  0  0  0  0
    2.5480    0.2844   -0.0795 C   0  0  0  0  0  0  0  0  0  0  0  0
    1.5315    1.0484    0.3932 N   0  0  0  0  0  0  0  0  0  0  0  0
    0.4073    0.3973    0.5423 C   0  0  0  0  0  0  0  0  0  0  0  0
   -0.8121    1.0967    1.0576 C   0  0  0  0  0  0  0  0  0  0  0  0
   -0.6298    2.3283    1.7085 C   0  0  0  0  0  0  0  0  0  0  0  0
   -1.7180    3.0254    2.2383 C   0  0  0  0  0  0  0  0  0  0  0  0
   -3.0013    2.4973    2.1306 C   0  0  0  0  0  0  0  0  0  0  0  0
   -3.2006    1.2805    1.4794 C   0  0  0  0  0  0  0  0  0  0  0  0
   -2.1166    0.5932    0.9178 C   0  0  0  0  0  0  0  0  0  0  0  0
   -2.3277   -0.6119    0.2948 O   0  0  0  0  0  0  0  0  0  0  0  0
   -3.1975   -0.5249   -0.8506 C   0  0  0  0  0  0  0  0  0  0  0  0
   -4.3230   -1.5348   -0.6599 C   0  0  0  0  0  0  0  0  0  0  0  0
   -2.3744   -0.8645   -2.0894 C   0  0  0  0  0  0  0  0  0  0  0  0
    0.2762   -0.9610    0.2551 N   0  0  0  0  0  0  0  0  0  0  0  0
    1.2841   -1.7632   -0.2441 C   0  0  0  0  0  0  0  0  0  0  0  0
    1.1235   -2.9463   -0.5200 O   0  0  0  0  0  0  0  0  0  0  0  0
    2.5146   -1.0486   -0.4059 C   0  0  0  0  0  0  0  0  0  0  0  0
    5.3657   -2.6393   -1.5993 H   0  0  0  0  0  0  0  0  0  0  0  0
    3.7430   -3.0150   -2.2016 H   0  0  0  0  0  0  0  0  0  0  0  0
    4.1962   -3.4413   -0.5382 H   0  0  0  0  0  0  0  0  0  0  0  0
    3.6189    2.6838    0.2462 H   0  0  0  0  0  0  0  0  0  0  0  0
    4.7152    2.3749   -1.1321 H   0  0  0  0  0  0  0  0  0  0  0  0
    5.2190    1.9422    0.5361 H   0  0  0  0  0  0  0  0  0  0  0  0
    0.3676    2.7501    1.8192 H   0  0  0  0  0  0  0  0  0  0  0  0
   -1.5590    3.9743    2.7453 H   0  0  0  0  0  0  0  0  0  0  0  0
   -3.8466    3.0305    2.5591 H   0  0  0  0  0  0  0  0  0  0  0  0
   -4.2049    0.8697    1.4211 H   0  0  0  0  0  0  0  0  0  0  0  0
   -3.6270    0.4765   -0.9830 H   0  0  0  0  0  0  0  0  0  0  0  0
   -4.9001   -1.3007    0.2408 H   0  0  0  0  0  0  0  0  0  0  0  0
   -5.0031   -1.5383   -1.5171 H   0  0  0  0  0  0  0  0  0  0  0  0
   -3.9247   -2.5464   -0.5232 H   0  0  0  0  0  0  0  0  0  0  0  0
   -1.9088   -1.8519   -1.9952 H   0  0  0  0  0  0  0  0  0  0  0  0
   -2.9923   -0.8521   -2.9925 H   0  0  0  0  0  0  0  0  0  0  0  0
   -1.5602   -0.1429   -2.2162 H   0  0  0  0  0  0  0  0  0  0  0  0
   -0.6226   -1.4108    0.3745 H   0  0  0  0  0  0  0  0  0  0  0  0
  1  2  1  0
  2  3  2  0
  3  4  1  0
  4  5  1  0
  4  6  1  0
  6  7  1  0
  7  8  2  0
  8  9  1  0
  9 10  2  0
 10 11  1  0
 11 12  2  0
 12 13  1  0
 13 14  2  0
 14 15  1  0
 15 16  1  0
 16 17  1  0
 16 18  1  0
  8 19  1  0
 19 20  1  0
 20 21  2  0
 20 22  1  0
 22  2  1  0
 22  6  2  0
 14  9  1  0
  1 23  1  0
  1 24  1  0
  1 25  1  0
  5 26  1  0
  5 27  1  0
  5 28  1  0
 10 29  1  0
 11 30  1  0
 12 31  1  0
 13 32  1  0
 16 33  1  0
 17 34  1  0
 17 35  1  0
 17 36  1  0
 18 37  1  0
 18 38  1  0
 18 39  1  0
 19 40  1  0
M  END
$$$$
