
     RDKit          3D

 70 73  0  0  0  0  0  0  0  0999 V2000
   -0.5187    4.9531    2.0671 C   0  0  0  0  0  0  0  0  0  0  0  0
    0.3608    4.4669    0.9301 C   0  0  0  0  0  0  0  0  0  0  0  0
    0.7080    3.0997    1.1914 O   0  0  0  0  0  0  0  0  0  0  0  0
    1.2032    2.5047    0.0589 C   0  0  0  0  0  0  0  0  0  0  0  0
    2.5665    2.6569   -0.2158 C   0  0  0  0  0  0  0  0  0  0  0  0
    3.1331    2.0038   -1.3078 C   0  0  0  0  0  0  0  0  0  0  0  0
    2.3380    1.1669   -2.0946 C   0  0  0  0  0  0  0  0  0  0  0  0
    3.0559    0.3305   -3.4975 S   0  0  0  0  0  0  0  0  0  0  0  0
    1.9683   -0.0095   -4.3906 O   0  0  0  0  0  0  0  0  0  0  0  0
    4.1798    1.1244   -3.9445 O   0  0  0  0  0  0  0  0  0  0  0  0
    3.6513   -1.1045   -2.8323 N   0  0  0  0  0  0  0  0  0  0  0  0
    2.6789   -2.1243   -2.3553 C   0  0  0  0  0  0  0  0  0  0  0  0
    2.7987   -2.3374   -0.8348 C   0  0  0  0  0  0  0  0  0  0  0  0
    4.1256   -2.8213   -0.4276 N   0  0  0  0  0  0  0  0  0  0  0  0
    4.3927   -2.6758    1.0045 C   0  0  0  0  0  0  0  0  0  0  0  0
    4.6284   -1.2546    1.5089 C   0  0  0  0  0  0  0  0  0  0  0  0
    5.2063   -2.3487   -1.3102 C   0  0  0  0  0  0  0  0  0  0  0  0
    4.9086   -1.0233   -2.0384 C   0  0  0  0  0  0  0  0  0  0  0  0
    0.9682    1.0232   -1.8309 C   0  0  0  0  0  0  0  0  0  0  0  0
    0.3860    1.6852   -0.7393 C   0  0  0  0  0  0  0  0  0  0  0  0
   -1.0446    1.5336   -0.4693 C   0  0  0  0  0  0  0  0  0  0  0  0
   -1.9108    2.5063   -0.2373 N   0  0  0  0  0  0  0  0  0  0  0  0
   -3.1180    1.8905   -0.0181 C   0  0  0  0  0  0  0  0  0  0  0  0
   -4.3972    2.4814    0.3024 C   0  0  0  0  0  0  0  0  0  0  0  0
   -4.5571    3.6919    0.4364 O   0  0  0  0  0  0  0  0  0  0  0  0
   -5.4203    1.5281    0.4485 N   0  0  0  0  0  0  0  0  0  0  0  0
   -6.7459    2.0165    0.7731 C   0  0  0  0  0  0  0  0  0  0  0  0
   -5.2836    0.1274    0.3542 C   0  0  0  0  0  0  0  0  0  0  0  0
   -6.2432   -0.6265    0.5412 O   0  0  0  0  0  0  0  0  0  0  0  0
   -4.0079   -0.3812    0.0402 N   0  0  0  0  0  0  0  0  0  0  0  0
   -3.8403   -1.8300   -0.0664 C   0  0  0  0  0  0  0  0  0  0  0  0
   -3.7070   -2.5343    1.2977 C   0  0  0  0  0  0  0  0  0  0  0  0
   -2.4170   -2.1494    2.0241 C   0  0  0  0  0  0  0  0  0  0  0  0
   -3.7570   -4.0513    1.1033 C   0  0  0  0  0  0  0  0  0  0  0  0
   -2.9932    0.5354   -0.1299 C   0  0  0  0  0  0  0  0  0  0  0  0
   -1.6817    0.3089   -0.4235 N   0  0  0  0  0  0  0  0  0  0  0  0
   -1.4290    4.3485    2.1366 H   0  0  0  0  0  0  0  0  0  0  0  0
   -0.8005    5.9997    1.9218 H   0  0  0  0  0  0  0  0  0  0  0  0
    0.0018    4.8568    3.0257 H   0  0  0  0  0  0  0  0  0  0  0  0
    1.2742    5.0719    0.8911 H   0  0  0  0  0  0  0  0  0  0  0  0
   -0.1766    4.5750   -0.0199 H   0  0  0  0  0  0  0  0  0  0  0  0
    3.1821    3.2846    0.4237 H   0  0  0  0  0  0  0  0  0  0  0  0
    4.1871    2.1492   -1.5343 H   0  0  0  0  0  0  0  0  0  0  0  0
    1.6503   -1.8406   -2.5979 H   0  0  0  0  0  0  0  0  0  0  0  0
    2.8758   -3.0610   -2.8908 H   0  0  0  0  0  0  0  0  0  0  0  0
    2.0446   -3.0667   -0.5175 H   0  0  0  0  0  0  0  0  0  0  0  0
    2.5563   -1.3894   -0.3418 H   0  0  0  0  0  0  0  0  0  0  0  0
    3.5635   -3.1195    1.5699 H   0  0  0  0  0  0  0  0  0  0  0  0
    5.2709   -3.2832    1.2572 H   0  0  0  0  0  0  0  0  0  0  0  0
    4.8109   -1.2731    2.5887 H   0  0  0  0  0  0  0  0  0  0  0  0
    3.7642   -0.6075    1.3345 H   0  0  0  0  0  0  0  0  0  0  0  0
    5.5036   -0.7972    1.0380 H   0  0  0  0  0  0  0  0  0  0  0  0
    5.3611   -3.1261   -2.0701 H   0  0  0  0  0  0  0  0  0  0  0  0
    6.1602   -2.2728   -0.7743 H   0  0  0  0  0  0  0  0  0  0  0  0
    4.8432   -0.2190   -1.3013 H   0  0  0  0  0  0  0  0  0  0  0  0
    5.7380   -0.8007   -2.7185 H   0  0  0  0  0  0  0  0  0  0  0  0
    0.3535    0.4186   -2.4951 H   0  0  0  0  0  0  0  0  0  0  0  0
   -7.4723    1.5858    0.0760 H   0  0  0  0  0  0  0  0  0  0  0  0
   -7.0016    1.6872    1.7856 H   0  0  0  0  0  0  0  0  0  0  0  0
   -6.8180    3.1059    0.7252 H   0  0  0  0  0  0  0  0  0  0  0  0
   -2.9764   -2.0518   -0.7041 H   0  0  0  0  0  0  0  0  0  0  0  0
   -4.7179   -2.2260   -0.5936 H   0  0  0  0  0  0  0  0  0  0  0  0
   -4.5512   -2.2496    1.9377 H   0  0  0  0  0  0  0  0  0  0  0  0
   -2.3203   -2.7053    2.9630 H   0  0  0  0  0  0  0  0  0  0  0  0
   -2.4064   -1.0847    2.2761 H   0  0  0  0  0  0  0  0  0  0  0  0
   -1.5351   -2.3668    1.4121 H   0  0  0  0  0  0  0  0  0  0  0  0
   -4.6956   -4.3517    0.6256 H   0  0  0  0  0  0  0  0  0  0  0  0
   -3.6932   -4.5699    2.0658 H   0  0  0  0  0  0  0  0  0  0  0  0
   -2.9297   -4.3991    0.4752 H   0  0  0  0  0  0  0  0  0  0  0  0
   -1.2327   -0.5850   -0.5481 H   0  0  0  0  0  0  0  0  0  0  0  0
  1  2  1  0
  2  3  1  0
  3  4  1  0
  4  5  1  0
  5  6  2  0
  6  7  1  0
  7  8  1  0
  8  9  2  0
  8 10  2  0
  8 11  1  0
 11 12  1  0
 12 13  1  0
 13 14  1  0
 14 15  1  0
 15 16  1  0
 14 17  1  0
 17 18  1  0
  7 19  2  0
 19 20  1  0
 20 21  1  0
 21 22  2  0
 22 23  1  0
 23 24  1  0
 24 25  2  0
 24 26  1  0
 26 27  1  0
 26 28  1  0
 28 29  2  0
 28 30  1  0
 30 31  1  0
 31 32  1  0
 32 33  1  0
 32 34  1  0
 30 35  1  0
 35 36  1  0
 20  4  2  0
 36 21  1  0
 18 11  1  0
 35 23  2  0
  1 37  1  0
  1 38  1  0
  1 39  1  0
  2 40  1  0
  2 41  1  0
  5 42  1  0
  6 43  1  0
 12 44  1  0
 12 45  1  0
 13 46  1  0
 13 47  1  0
 15 48  1  0
 15 49  1  0
 16 50  1  0
 16 51  1  0
 16 52  1  0
 17 53  1  0
 17 54  1  0
 18 55  1  0
 18 56  1  0
 19 57  1  0
 27 58  1  0
 27 59  1  0
 27 60  1  0
 31 61  1  0
 31 62  1  0
 32 63  1  0
 33 64  1  0
 33 65  1  0
 33 66  1  0
 34 67  1  0
 34 68  1  0
 34 69  1  0
 36 70  1  0
M  END
$$$$
