


 23 25  0  0  0  0  0  0  0  0999 V2000
   -1.0895   61.5802   87.2755 C   0  0  0  0  0  0  0  0  0  0  0  0
   -0.8678   62.2905   85.9940 C   0  0  0  0  0  0  0  0  0  0  0  0
   -1.4662   61.8773   84.8640 N   0  0  0  0  0  0  0  0  0  0  0  0
   -1.0333   62.7534   83.9236 N   0  0  0  0  0  0  0  0  0  0  0  0
   -1.4860   62.6100   82.5633 C   0  0  0  0  0  0  0  0  0  0  0  0
   -0.1860   63.7022   84.4213 C   0  0  0  0  0  0  0  0  0  0  0  0
    0.4024   64.7095   83.7288 N   0  0  0  0  0  0  0  0  0  0  0  0
    1.1682   65.4761   84.4609 C   0  0  0  0  0  0  0  0  0  0  0  0
    1.3698   65.2628   85.8242 N   0  0  0  0  0  0  0  0  0  0  0  0
    0.7730   64.2595   86.5630 C   0  0  0  0  0  0  0  0  0  0  0  0
    0.9445   64.1235   87.7687 O   0  0  0  0  0  0  0  0  0  0  0  0
   -0.0646   63.4207   85.7594 C   0  0  0  0  0  0  0  0  0  0  0  0
    1.9614   65.8974   86.3454 H   0  0  0  0  0  0  0  0  0  0  0  0
    1.8929   66.6333   83.8466 C   0  0  0  0  0  0  0  0  0  0  0  0
    1.2565   67.3168   82.7971 C   0  0  0  0  0  0  0  0  0  0  0  0
    1.8827   68.3895   82.1584 C   0  0  0  0  0  0  0  0  0  0  0  0
    3.1557   68.7883   82.5556 C   0  0  0  0  0  0  0  0  0  0  0  0
    3.7974   68.1264   83.6018 C   0  0  0  0  0  0  0  0  0  0  0  0
    3.1603   67.0709   84.2672 C   0  0  0  0  0  0  0  0  0  0  0  0
    3.8127   66.4188   85.2841 O   0  0  0  0  0  0  0  0  0  0  0  0
    5.2248   66.7001   85.3377 C   0  0  0  0  0  0  0  0  0  0  0  0
    5.9665   65.3686   85.3370 C   0  0  0  0  0  0  0  0  0  0  0  0
    5.4998   67.4681   86.6269 C   0  0  0  0  0  0  0  0  0  0  0  0
  1  2  1  0  0  0
  2  3  2  0  0  0
  3  4  1  0  0  0
  4  5  1  0  0  0
  4  6  1  0  0  0
  6  7  1  0  0  0
  7  8  2  0  0  0
  8 14  1  0  0  0
 14 15  2  0  0  0
 15 16  1  0  0  0
 16 17  2  0  0  0
 17 18  1  0  0  0
 18 19  2  0  0  0
 19 20  1  0  0  0
 20 21  1  0  0  0
 21 22  1  0  0  0
 21 23  1  0  0  0
  8  9  1  0  0  0
  9 10  1  0  0  0
 10 11  2  0  0  0
 10 12  1  0  0  0
 12  2  1  0  0  0
 12  6  2  0  0  0
 19 14  1  0  0  0
  9 13  1  0  0  0
M  END
> <minimizedAffinity>
-9.28798

$$$$



 23 25  0  0  0  0  0  0  0  0999 V2000
   -3.4910   59.1089   79.7810 C   0  0  0  0  0  0  0  0  0  0  0  0
   -2.4389   60.1511   79.8341 C   0  0  0  0  0  0  0  0  0  0  0  0
   -1.7043   60.4455   78.7480 N   0  0  0  0  0  0  0  0  0  0  0  0
   -0.8667   61.4237   79.1731 N   0  0  0  0  0  0  0  0  0  0  0  0
    0.0819   61.9918   78.2492 C   0  0  0  0  0  0  0  0  0  0  0  0
   -1.0486   61.7554   80.4856 C   0  0  0  0  0  0  0  0  0  0  0  0
   -0.3679   62.6958   81.1877 N   0  0  0  0  0  0  0  0  0  0  0  0
   -0.7525   62.8058   82.4326 C   0  0  0  0  0  0  0  0  0  0  0  0
   -1.7593   62.0152   82.9858 N   0  0  0  0  0  0  0  0  0  0  0  0
   -2.4841   61.0628   82.2957 C   0  0  0  0  0  0  0  0  0  0  0  0
   -3.3882   60.4108   82.8048 O   0  0  0  0  0  0  0  0  0  0  0  0
   -2.0609   60.9432   80.9328 C   0  0  0  0  0  0  0  0  0  0  0  0
   -2.0274   62.1541   83.9519 H   0  0  0  0  0  0  0  0  0  0  0  0
   -0.0990   63.7978   83.3439 C   0  0  0  0  0  0  0  0  0  0  0  0
    0.4474   64.9542   82.7625 C   0  0  0  0  0  0  0  0  0  0  0  0
    1.0955   65.9113   83.5466 C   0  0  0  0  0  0  0  0  0  0  0  0
    1.2121   65.7216   84.9206 C   0  0  0  0  0  0  0  0  0  0  0  0
    0.6671   64.5838   85.5146 C   0  0  0  0  0  0  0  0  0  0  0  0
   -0.0124   63.6368   84.7372 C   0  0  0  0  0  0  0  0  0  0  0  0
   -0.5284   62.5138   85.3351 O   0  0  0  0  0  0  0  0  0  0  0  0
   -1.1776   62.7769   86.5942 C   0  0  0  0  0  0  0  0  0  0  0  0
   -0.7944   61.6612   87.5593 C   0  0  0  0  0  0  0  0  0  0  0  0
   -2.6837   62.7840   86.3510 C   0  0  0  0  0  0  0  0  0  0  0  0
  1  2  1  0  0  0
  2  3  2  0  0  0
  3  4  1  0  0  0
  4  5  1  0  0  0
  4  6  1  0  0  0
  6  7  1  0  0  0
  7  8  2  0  0  0
  8 14  1  0  0  0
 14 15  2  0  0  0
 15 16  1  0  0  0
 16 17  2  0  0  0
 17 18  1  0  0  0
 18 19  2  0  0  0
 19 20  1  0  0  0
 20 21  1  0  0  0
 21 22  1  0  0  0
 21 23  1  0  0  0
  8  9  1  0  0  0
  9 10  1  0  0  0
 10 11  2  0  0  0
 10 12  1  0  0  0
 12  2  1  0  0  0
 12  6  2  0  0  0
 19 14  1  0  0  0
  9 13  1  0  0  0
M  END
> <minimizedAffinity>
-8.82346

$$$$



 23 25  0  0  0  0  0  0  0  0999 V2000
    0.1967   62.0502   89.3041 C   0  0  0  0  0  0  0  0  0  0  0  0
   -0.2901   62.4911   87.9757 C   0  0  0  0  0  0  0  0  0  0  0  0
   -1.4729   62.0673   87.4992 N   0  0  0  0  0  0  0  0  0  0  0  0
   -1.5734   62.6683   86.2876 N   0  0  0  0  0  0  0  0  0  0  0  0
   -2.7429   62.4355   85.4789 C   0  0  0  0  0  0  0  0  0  0  0  0
   -0.4981   63.4546   85.9859 C   0  0  0  0  0  0  0  0  0  0  0  0
   -0.3153   64.1819   84.8554 N   0  0  0  0  0  0  0  0  0  0  0  0
    0.8103   64.8471   84.8322 C   0  0  0  0  0  0  0  0  0  0  0  0
    1.7401   64.7966   85.8703 N   0  0  0  0  0  0  0  0  0  0  0  0
    1.5778   64.0820   87.0415 C   0  0  0  0  0  0  0  0  0  0  0  0
    2.4003   64.0894   87.9498 O   0  0  0  0  0  0  0  0  0  0  0  0
    0.3449   63.3537   87.0646 C   0  0  0  0  0  0  0  0  0  0  0  0
    2.5886   65.3447   85.8060 H   0  0  0  0  0  0  0  0  0  0  0  0
    1.1648   65.6980   83.6524 C   0  0  0  0  0  0  0  0  0  0  0  0
    1.7229   66.9621   83.9058 C   0  0  0  0  0  0  0  0  0  0  0  0
    2.0543   67.8213   82.8557 C   0  0  0  0  0  0  0  0  0  0  0  0
    1.8256   67.4312   81.5393 C   0  0  0  0  0  0  0  0  0  0  0  0
    1.2809   66.1760   81.2703 C   0  0  0  0  0  0  0  0  0  0  0  0
    0.9770   65.2976   82.3185 C   0  0  0  0  0  0  0  0  0  0  0  0
    0.4256   64.0721   82.0373 O   0  0  0  0  0  0  0  0  0  0  0  0
   -0.6632   64.1316   81.0955 C   0  0  0  0  0  0  0  0  0  0  0  0
   -1.9373   63.7293   81.8288 C   0  0  0  0  0  0  0  0  0  0  0  0
   -0.3594   63.1506   79.9673 C   0  0  0  0  0  0  0  0  0  0  0  0
  1  2  1  0  0  0
  2  3  2  0  0  0
  3  4  1  0  0  0
  4  5  1  0  0  0
  4  6  1  0  0  0
  6  7  1  0  0  0
  7  8  2  0  0  0
  8 14  1  0  0  0
 14 15  2  0  0  0
 15 16  1  0  0  0
 16 17  2  0  0  0
 17 18  1  0  0  0
 18 19  2  0  0  0
 19 20  1  0  0  0
 20 21  1  0  0  0
 21 22  1  0  0  0
 21 23  1  0  0  0
  8  9  1  0  0  0
  9 10  1  0  0  0
 10 11  2  0  0  0
 10 12  1  0  0  0
 12  2  1  0  0  0
 12  6  2  0  0  0
 19 14  1  0  0  0
  9 13  1  0  0  0
M  END
> <minimizedAffinity>
-8.48291

$$$$



 23 25  0  0  0  0  0  0  0  0999 V2000
    1.9452   68.5637   79.9945 C   0  0  0  0  0  0  0  0  0  0  0  0
    2.0684   68.1103   81.3999 C   0  0  0  0  0  0  0  0  0  0  0  0
    2.8790   68.7476   82.2616 N   0  0  0  0  0  0  0  0  0  0  0  0
    2.7296   68.0616   83.4220 N   0  0  0  0  0  0  0  0  0  0  0  0
    3.4658   68.4783   84.5883 C   0  0  0  0  0  0  0  0  0  0  0  0
    1.8545   67.0177   83.3213 C   0  0  0  0  0  0  0  0  0  0  0  0
    1.4985   66.1580   84.3085 N   0  0  0  0  0  0  0  0  0  0  0  0
    0.6359   65.2502   83.9320 C   0  0  0  0  0  0  0  0  0  0  0  0
    0.1432   65.1690   82.6299 N   0  0  0  0  0  0  0  0  0  0  0  0
    0.4700   66.0378   81.6066 C   0  0  0  0  0  0  0  0  0  0  0  0
   -0.0106   65.9587   80.4822 O   0  0  0  0  0  0  0  0  0  0  0  0
    1.4154   67.0306   82.0207 C   0  0  0  0  0  0  0  0  0  0  0  0
   -0.5353   64.4548   82.3978 H   0  0  0  0  0  0  0  0  0  0  0  0
    0.1423   64.2232   84.9032 C   0  0  0  0  0  0  0  0  0  0  0  0
    0.4400   64.4168   86.2625 C   0  0  0  0  0  0  0  0  0  0  0  0
    0.0351   63.4870   87.2230 C   0  0  0  0  0  0  0  0  0  0  0  0
   -0.6663   62.3486   86.8365 C   0  0  0  0  0  0  0  0  0  0  0  0
   -0.9780   62.1461   85.4925 C   0  0  0  0  0  0  0  0  0  0  0  0
   -0.6025   63.0917   84.5294 C   0  0  0  0  0  0  0  0  0  0  0  0
   -0.9022   62.8689   83.2082 O   0  0  0  0  0  0  0  0  0  0  0  0
   -0.5351   61.5542   82.7468 C   0  0  0  0  0  0  0  0  0  0  0  0
    0.9048   61.6186   82.2513 C   0  0  0  0  0  0  0  0  0  0  0  0
   -1.4791   61.1777   81.6090 C   0  0  0  0  0  0  0  0  0  0  0  0
  1  2  1  0  0  0
  2  3  2  0  0  0
  3  4  1  0  0  0
  4  5  1  0  0  0
  4  6  1  0  0  0
  6  7  1  0  0  0
  7  8  2  0  0  0
  8 14  1  0  0  0
 14 15  2  0  0  0
 15 16  1  0  0  0
 16 17  2  0  0  0
 17 18  1  0  0  0
 18 19  2  0  0  0
 19 20  1  0  0  0
 20 21  1  0  0  0
 21 22  1  0  0  0
 21 23  1  0  0  0
  8  9  1  0  0  0
  9 10  1  0  0  0
 10 11  2  0  0  0
 10 12  1  0  0  0
 12  2  1  0  0  0
 12  6  2  0  0  0
 19 14  1  0  0  0
  9 13  1  0  0  0
M  END
> <minimizedAffinity>
-8.47881

$$$$



 23 25  0  0  0  0  0  0  0  0999 V2000
   -0.4997   60.6001   78.2697 C   0  0  0  0  0  0  0  0  0  0  0  0
   -1.4265   61.0384   79.3396 C   0  0  0  0  0  0  0  0  0  0  0  0
   -2.7435   61.1621   79.1031 N   0  0  0  0  0  0  0  0  0  0  0  0
   -3.2535   61.5728   80.2908 N   0  0  0  0  0  0  0  0  0  0  0  0
   -4.6701   61.8089   80.4072 C   0  0  0  0  0  0  0  0  0  0  0  0
   -2.3058   61.7107   81.2647 C   0  0  0  0  0  0  0  0  0  0  0  0
   -2.5105   62.0990   82.5483 N   0  0  0  0  0  0  0  0  0  0  0  0
   -1.4189   62.1426   83.2669 C   0  0  0  0  0  0  0  0  0  0  0  0
   -0.1610   61.8327   82.7509 N   0  0  0  0  0  0  0  0  0  0  0  0
    0.0805   61.4170   81.4558 C   0  0  0  0  0  0  0  0  0  0  0  0
    1.1957   61.1173   81.0457 O   0  0  0  0  0  0  0  0  0  0  0  0
   -1.1160   61.3706   80.6702 C   0  0  0  0  0  0  0  0  0  0  0  0
    0.6487   61.8684   83.3573 H   0  0  0  0  0  0  0  0  0  0  0  0
   -1.4731   62.5548   84.7052 C   0  0  0  0  0  0  0  0  0  0  0  0
   -2.5869   62.1463   85.4578 C   0  0  0  0  0  0  0  0  0  0  0  0
   -2.7187   62.5153   86.7984 C   0  0  0  0  0  0  0  0  0  0  0  0
   -1.7428   63.3031   87.4021 C   0  0  0  0  0  0  0  0  0  0  0  0
   -0.6265   63.7092   86.6718 C   0  0  0  0  0  0  0  0  0  0  0  0
   -0.4735   63.3147   85.3362 C   0  0  0  0  0  0  0  0  0  0  0  0
    0.6230   63.7372   84.6262 O   0  0  0  0  0  0  0  0  0  0  0  0
    0.6051   65.1451   84.3204 C   0  0  0  0  0  0  0  0  0  0  0  0
    0.4157   65.2935   82.8154 C   0  0  0  0  0  0  0  0  0  0  0  0
    1.9434   65.7348   84.7548 C   0  0  0  0  0  0  0  0  0  0  0  0
  1  2  1  0  0  0
  2  3  2  0  0  0
  3  4  1  0  0  0
  4  5  1  0  0  0
  4  6  1  0  0  0
  6  7  1  0  0  0
  7  8  2  0  0  0
  8 14  1  0  0  0
 14 15  2  0  0  0
 15 16  1  0  0  0
 16 17  2  0  0  0
 17 18  1  0  0  0
 18 19  2  0  0  0
 19 20  1  0  0  0
 20 21  1  0  0  0
 21 22  1  0  0  0
 21 23  1  0  0  0
  8  9  1  0  0  0
  9 10  1  0  0  0
 10 11  2  0  0  0
 10 12  1  0  0  0
 12  2  1  0  0  0
 12  6  2  0  0  0
 19 14  1  0  0  0
  9 13  1  0  0  0
M  END
> <minimizedAffinity>
-8.42379

$$$$



 23 25  0  0  0  0  0  0  0  0999 V2000
   -2.1838   62.2231   86.4545 C   0  0  0  0  0  0  0  0  0  0  0  0
   -1.4202   62.8816   85.3685 C   0  0  0  0  0  0  0  0  0  0  0  0
   -1.7814   62.7322   84.0829 N   0  0  0  0  0  0  0  0  0  0  0  0
   -0.8686   63.4649   83.3979 N   0  0  0  0  0  0  0  0  0  0  0  0
   -0.9537   63.5346   81.9612 C   0  0  0  0  0  0  0  0  0  0  0  0
    0.0520   64.0696   84.2056 C   0  0  0  0  0  0  0  0  0  0  0  0
    1.0782   64.8657   83.8138 N   0  0  0  0  0  0  0  0  0  0  0  0
    1.8061   65.3137   84.8035 C   0  0  0  0  0  0  0  0  0  0  0  0
    1.5548   64.9866   86.1356 N   0  0  0  0  0  0  0  0  0  0  0  0
    0.5094   64.1950   86.5704 C   0  0  0  0  0  0  0  0  0  0  0  0
    0.2965   63.9576   87.7536 O   0  0  0  0  0  0  0  0  0  0  0  0
   -0.2860   63.7047   85.4851 C   0  0  0  0  0  0  0  0  0  0  0  0
    2.1418   65.3748   86.8630 H   0  0  0  0  0  0  0  0  0  0  0  0
    2.9801   66.2045   84.5394 C   0  0  0  0  0  0  0  0  0  0  0  0
    4.2410   65.7667   84.9780 C   0  0  0  0  0  0  0  0  0  0  0  0
    5.3776   66.5564   84.7901 C   0  0  0  0  0  0  0  0  0  0  0  0
    5.2676   67.7967   84.1679 C   0  0  0  0  0  0  0  0  0  0  0  0
    4.0250   68.2419   83.7184 C   0  0  0  0  0  0  0  0  0  0  0  0
    2.8873   67.4395   83.8753 C   0  0  0  0  0  0  0  0  0  0  0  0
    1.6684   67.8999   83.4424 O   0  0  0  0  0  0  0  0  0  0  0  0
    1.6628   68.3061   82.0600 C   0  0  0  0  0  0  0  0  0  0  0  0
    1.0339   69.6923   81.9832 C   0  0  0  0  0  0  0  0  0  0  0  0
    0.8305   67.2939   81.2788 C   0  0  0  0  0  0  0  0  0  0  0  0
  1  2  1  0  0  0
  2  3  2  0  0  0
  3  4  1  0  0  0
  4  5  1  0  0  0
  4  6  1  0  0  0
  6  7  1  0  0  0
  7  8  2  0  0  0
  8 14  1  0  0  0
 14 15  2  0  0  0
 15 16  1  0  0  0
 16 17  2  0  0  0
 17 18  1  0  0  0
 18 19  2  0  0  0
 19 20  1  0  0  0
 20 21  1  0  0  0
 21 22  1  0  0  0
 21 23  1  0  0  0
  8  9  1  0  0  0
  9 10  1  0  0  0
 10 11  2  0  0  0
 10 12  1  0  0  0
 12  2  1  0  0  0
 12  6  2  0  0  0
 19 14  1  0  0  0
  9 13  1  0  0  0
M  END
> <minimizedAffinity>
-8.41064

$$$$



 23 25  0  0  0  0  0  0  0  0999 V2000
   -0.9890   61.5230   87.3190 C   0  0  0  0  0  0  0  0  0  0  0  0
   -0.8576   62.2527   86.0359 C   0  0  0  0  0  0  0  0  0  0  0  0
   -1.5217   61.8468   84.9406 N   0  0  0  0  0  0  0  0  0  0  0  0
   -1.1598   62.7404   83.9868 N   0  0  0  0  0  0  0  0  0  0  0  0
   -1.6964   62.6090   82.6561 C   0  0  0  0  0  0  0  0  0  0  0  0
   -0.2937   63.6931   84.4427 C   0  0  0  0  0  0  0  0  0  0  0  0
    0.2377   64.7167   83.7283 N   0  0  0  0  0  0  0  0  0  0  0  0
    1.0394   65.4832   84.4208 C   0  0  0  0  0  0  0  0  0  0  0  0
    1.3298   65.2547   85.7655 N   0  0  0  0  0  0  0  0  0  0  0  0
    0.7930   64.2345   86.5268 C   0  0  0  0  0  0  0  0  0  0  0  0
    1.0424   64.0849   87.7171 O   0  0  0  0  0  0  0  0  0  0  0  0
   -0.0841   63.3957   85.7664 C   0  0  0  0  0  0  0  0  0  0  0  0
    1.9459   65.8899   86.2568 H   0  0  0  0  0  0  0  0  0  0  0  0
    1.7100   66.6573   83.7778 C   0  0  0  0  0  0  0  0  0  0  0  0
    2.7141   67.3140   84.5086 C   0  0  0  0  0  0  0  0  0  0  0  0
    3.3653   68.4327   83.9839 C   0  0  0  0  0  0  0  0  0  0  0  0
    3.0165   68.9135   82.7251 C   0  0  0  0  0  0  0  0  0  0  0  0
    2.0284   68.2676   81.9828 C   0  0  0  0  0  0  0  0  0  0  0  0
    1.3951   67.1259   82.4909 C   0  0  0  0  0  0  0  0  0  0  0  0
    0.4125   66.5118   81.7546 O   0  0  0  0  0  0  0  0  0  0  0  0
    0.5091   66.7640   80.3392 C   0  0  0  0  0  0  0  0  0  0  0  0
   -0.7911   67.4220   79.8924 C   0  0  0  0  0  0  0  0  0  0  0  0
    0.7021   65.4231   79.6376 C   0  0  0  0  0  0  0  0  0  0  0  0
  1  2  1  0  0  0
  2  3  2  0  0  0
  3  4  1  0  0  0
  4  5  1  0  0  0
  4  6  1  0  0  0
  6  7  1  0  0  0
  7  8  2  0  0  0
  8 14  1  0  0  0
 14 15  2  0  0  0
 15 16  1  0  0  0
 16 17  2  0  0  0
 17 18  1  0  0  0
 18 19  2  0  0  0
 19 20  1  0  0  0
 20 21  1  0  0  0
 21 22  1  0  0  0
 21 23  1  0  0  0
  8  9  1  0  0  0
  9 10  1  0  0  0
 10 11  2  0  0  0
 10 12  1  0  0  0
 12  2  1  0  0  0
 12  6  2  0  0  0
 19 14  1  0  0  0
  9 13  1  0  0  0
M  END
> <minimizedAffinity>
-8.37359

$$$$



 23 25  0  0  0  0  0  0  0  0999 V2000
   -2.4058   61.8754   83.8675 C   0  0  0  0  0  0  0  0  0  0  0  0
   -1.4768   62.6637   84.7110 C   0  0  0  0  0  0  0  0  0  0  0  0
   -1.5501   62.6120   86.0517 N   0  0  0  0  0  0  0  0  0  0  0  0
   -0.5636   63.4447   86.4672 N   0  0  0  0  0  0  0  0  0  0  0  0
   -0.3475   63.6343   87.8790 C   0  0  0  0  0  0  0  0  0  0  0  0
    0.1274   64.0167   85.4371 C   0  0  0  0  0  0  0  0  0  0  0  0
    1.1658   64.8838   85.5379 N   0  0  0  0  0  0  0  0  0  0  0  0
    1.6421   65.2731   84.3840 C   0  0  0  0  0  0  0  0  0  0  0  0
    1.1162   64.8450   83.1655 N   0  0  0  0  0  0  0  0  0  0  0  0
    0.0730   63.9500   83.0267 C   0  0  0  0  0  0  0  0  0  0  0  0
   -0.3404   63.5671   81.9385 O   0  0  0  0  0  0  0  0  0  0  0  0
   -0.4478   63.5255   84.2915 C   0  0  0  0  0  0  0  0  0  0  0  0
    1.5347   65.1668   82.3019 H   0  0  0  0  0  0  0  0  0  0  0  0
    2.7895   66.2330   84.3214 C   0  0  0  0  0  0  0  0  0  0  0  0
    3.9807   65.8665   84.9699 C   0  0  0  0  0  0  0  0  0  0  0  0
    5.0843   66.7226   84.9763 C   0  0  0  0  0  0  0  0  0  0  0  0
    5.0091   67.9587   84.3409 C   0  0  0  0  0  0  0  0  0  0  0  0
    3.8373   68.3337   83.6847 C   0  0  0  0  0  0  0  0  0  0  0  0
    2.7387   67.4651   83.6476 C   0  0  0  0  0  0  0  0  0  0  0  0
    1.5866   67.8565   83.0118 O   0  0  0  0  0  0  0  0  0  0  0  0
    1.8176   68.5039   81.7454 C   0  0  0  0  0  0  0  0  0  0  0  0
    0.6400   69.4326   81.4742 C   0  0  0  0  0  0  0  0  0  0  0  0
    1.9053   67.4199   80.6755 C   0  0  0  0  0  0  0  0  0  0  0  0
  1  2  1  0  0  0
  2  3  2  0  0  0
  3  4  1  0  0  0
  4  5  1  0  0  0
  4  6  1  0  0  0
  6  7  1  0  0  0
  7  8  2  0  0  0
  8 14  1  0  0  0
 14 15  2  0  0  0
 15 16  1  0  0  0
 16 17  2  0  0  0
 17 18  1  0  0  0
 18 19  2  0  0  0
 19 20  1  0  0  0
 20 21  1  0  0  0
 21 22  1  0  0  0
 21 23  1  0  0  0
  8  9  1  0  0  0
  9 10  1  0  0  0
 10 11  2  0  0  0
 10 12  1  0  0  0
 12  2  1  0  0  0
 12  6  2  0  0  0
 19 14  1  0  0  0
  9 13  1  0  0  0
M  END
> <minimizedAffinity>
-8.36254

$$$$



 23 25  0  0  0  0  0  0  0  0999 V2000
   -1.4849   61.2815   76.4159 C   0  0  0  0  0  0  0  0  0  0  0  0
   -1.8428   61.6703   77.8003 C   0  0  0  0  0  0  0  0  0  0  0  0
   -3.0275   61.3218   78.3301 N   0  0  0  0  0  0  0  0  0  0  0  0
   -2.9936   61.8423   79.5820 N   0  0  0  0  0  0  0  0  0  0  0  0
   -4.1243   61.6555   80.4552 C   0  0  0  0  0  0  0  0  0  0  0  0
   -1.8311   62.5040   79.8585 C   0  0  0  0  0  0  0  0  0  0  0  0
   -1.5046   63.1213   81.0216 N   0  0  0  0  0  0  0  0  0  0  0  0
   -0.3205   63.6761   81.0101 C   0  0  0  0  0  0  0  0  0  0  0  0
    0.5181   63.6460   79.8963 N   0  0  0  0  0  0  0  0  0  0  0  0
    0.2251   63.0117   78.7045 C   0  0  0  0  0  0  0  0  0  0  0  0
    1.0019   62.9741   77.7575 O   0  0  0  0  0  0  0  0  0  0  0  0
   -1.0723   62.4055   78.7187 C   0  0  0  0  0  0  0  0  0  0  0  0
    1.4314   64.0790   79.9487 H   0  0  0  0  0  0  0  0  0  0  0  0
    0.1898   64.4004   82.2170 C   0  0  0  0  0  0  0  0  0  0  0  0
   -0.0884   63.8434   83.4764 C   0  0  0  0  0  0  0  0  0  0  0  0
    0.3329   64.4769   84.6477 C   0  0  0  0  0  0  0  0  0  0  0  0
    1.0315   65.6787   84.5757 C   0  0  0  0  0  0  0  0  0  0  0  0
    1.3238   66.2402   83.3333 C   0  0  0  0  0  0  0  0  0  0  0  0
    0.9319   65.5922   82.1546 C   0  0  0  0  0  0  0  0  0  0  0  0
    1.2128   66.1669   80.9398 O   0  0  0  0  0  0  0  0  0  0  0  0
    0.7070   67.5094   80.8057 C   0  0  0  0  0  0  0  0  0  0  0  0
   -0.6193   67.4361   80.0585 C   0  0  0  0  0  0  0  0  0  0  0  0
    1.7285   68.3164   80.0104 C   0  0  0  0  0  0  0  0  0  0  0  0
  1  2  1  0  0  0
  2  3  2  0  0  0
  3  4  1  0  0  0
  4  5  1  0  0  0
  4  6  1  0  0  0
  6  7  1  0  0  0
  7  8  2  0  0  0
  8 14  1  0  0  0
 14 15  2  0  0  0
 15 16  1  0  0  0
 16 17  2  0  0  0
 17 18  1  0  0  0
 18 19  2  0  0  0
 19 20  1  0  0  0
 20 21  1  0  0  0
 21 22  1  0  0  0
 21 23  1  0  0  0
  8  9  1  0  0  0
  9 10  1  0  0  0
 10 11  2  0  0  0
 10 12  1  0  0  0
 12  2  1  0  0  0
 12  6  2  0  0  0
 19 14  1  0  0  0
  9 13  1  0  0  0
M  END
> <minimizedAffinity>
-8.33942

$$$$
