


 43 48  0  0  0  0  0  0  0  0999 V2000
   -0.5617   63.4075   79.9578 C   0  0  0  0  0  0  0  0  0  0  0  0
    0.0815   63.1651   78.7454 C   0  0  0  0  0  0  0  0  0  0  0  0
    0.9088   64.1455   78.2433 C   0  0  0  0  0  0  0  0  0  0  0  0
    1.1356   65.3208   78.8624 N   0  0  0  0  0  0  0  0  0  0  0  0
    0.5205   65.5801   80.0525 C   0  0  0  0  0  0  0  0  0  0  0  0
   -0.3355   64.6321   80.6097 C   0  0  0  0  0  0  0  0  0  0  0  0
    0.7913   66.8515   80.6772 N   0  0  0  0  0  0  0  0  0  0  0  0
    1.7635   66.7699   81.6555 N   0  0  0  0  0  0  0  0  0  0  0  0
    2.1428   67.8239   82.3040 C   0  0  0  0  0  0  0  0  0  0  0  0
    1.5381   69.1521   82.0934 C   0  0  0  0  0  0  0  0  0  0  0  0
    1.8618   70.2813   82.8611 C   0  0  0  0  0  0  0  0  0  0  0  0
    1.2494   71.5094   82.5986 C   0  0  0  0  0  0  0  0  0  0  0  0
    0.3037   71.6146   81.5830 C   0  0  0  0  0  0  0  0  0  0  0  0
   -0.0410   70.4868   80.8389 C   0  0  0  0  0  0  0  0  0  0  0  0
    0.5713   69.2499   81.1002 C   0  0  0  0  0  0  0  0  0  0  0  0
    0.1551   68.0485   80.3435 C   0  0  0  0  0  0  0  0  0  0  0  0
   -0.7370   68.2053   79.5121 O   0  0  0  0  0  0  0  0  0  0  0  0
    3.2299   67.6305   83.2872 C   0  0  0  0  0  0  0  0  0  0  0  0
    3.2294   66.5100   84.1163 C   0  0  0  0  0  0  0  0  0  0  0  0
    4.2712   66.3416   85.0241 C   0  0  0  0  0  0  0  0  0  0  0  0
    5.2763   67.2977   85.0586 C   0  0  0  0  0  0  0  0  0  0  0  0
    5.3124   68.3841   84.2533 N   0  0  0  0  0  0  0  0  0  0  0  0
    4.2971   68.5150   83.3667 C   0  0  0  0  0  0  0  0  0  0  0  0
   -1.8348   62.0142   84.8015 C   0  0  0  0  0  0  0  0  0  0  0  0
   -2.5487   61.1896   83.9284 C   0  0  0  0  0  0  0  0  0  0  0  0
   -2.4290   61.3208   82.5324 C   0  0  0  0  0  0  0  0  0  0  0  0
   -3.1725   60.4872   81.6890 C   0  0  0  0  0  0  0  0  0  0  0  0
   -3.0882   60.5791   80.2918 C   0  0  0  0  0  0  0  0  0  0  0  0
   -2.2161   61.5277   79.7068 C   0  0  0  0  0  0  0  0  0  0  0  0
   -1.4608   62.3941   80.5496 C   0  0  0  0  0  0  0  0  0  0  0  0
   -1.5710   62.2924   81.9765 C   0  0  0  0  0  0  0  0  0  0  0  0
   -0.8641   63.1241   82.8834 C   0  0  0  0  0  0  0  0  0  0  0  0
   -0.9883   62.9984   84.2730 C   0  0  0  0  0  0  0  0  0  0  0  0
   -3.9720   59.6807   79.4623 C   0  0  0  0  0  0  0  0  0  0  0  0
   -3.9579   58.3723   80.0225 O   0  0  0  0  0  0  0  0  0  0  0  0
   -3.0188   58.1266   80.1256 H   0  0  0  0  0  0  0  0  0  0  0  0
   -2.1186   61.6290   78.1942 C   0  0  0  0  0  0  0  0  0  0  0  0
   -3.1730   62.4291   77.6818 O   0  0  0  0  0  0  0  0  0  0  0  0
   -4.0010   61.9422   77.8696 H   0  0  0  0  0  0  0  0  0  0  0  0
   -2.9150   62.6875   86.8264 C   0  0  0  0  0  0  0  0  0  0  0  0
   -1.9000   61.9425   86.1705 O   0  0  0  0  0  0  0  0  0  0  0  0
   -0.3201   63.7771   85.1856 O   0  0  0  0  0  0  0  0  0  0  0  0
    0.4381   64.8714   84.6891 C   0  0  0  0  0  0  0  0  0  0  0  0
 40 41  1  0  0  0
 41 24  1  0  0  0
 24 25  1  0  0  0
 25 26  2  0  0  0
 26 27  1  0  0  0
 27 28  2  0  0  0
 28 34  1  0  0  0
 34 35  1  0  0  0
 28 29  1  0  0  0
 29 37  1  0  0  0
 37 38  1  0  0  0
 29 30  2  0  0  0
 30  1  1  0  0  0
  1  2  2  0  0  0
  2  3  1  0  0  0
  3  4  2  0  0  0
  4  5  1  0  0  0
  5  7  1  0  0  0
  7  8  1  0  0  0
  8  9  2  0  0  0
  9 18  1  0  0  0
 18 19  1  0  0  0
 19 20  2  0  0  0
 20 21  1  0  0  0
 21 22  2  0  0  0
 22 23  1  0  0  0
  9 10  1  0  0  0
 10 11  2  0  0  0
 11 12  1  0  0  0
 12 13  2  0  0  0
 13 14  1  0  0  0
 14 15  2  0  0  0
 15 16  1  0  0  0
 16 17  2  0  0  0
  5  6  2  0  0  0
 30 31  1  0  0  0
 31 32  2  0  0  0
 32 33  1  0  0  0
 33 42  1  0  0  0
 42 43  1  0  0  0
 33 24  2  0  0  0
 31 26  1  0  0  0
  6  1  1  0  0  0
 16  7  1  0  0  0
 23 18  2  0  0  0
 15 10  1  0  0  0
 35 36  1  0  0  0
 38 39  1  0  0  0
M  END
> <minimizedAffinity>
-11.99335

$$$$



 43 48  0  0  0  0  0  0  0  0999 V2000
    1.8251   66.8934   82.9047 C   0  0  0  0  0  0  0  0  0  0  0  0
    2.9663   66.8298   83.7022 C   0  0  0  0  0  0  0  0  0  0  0  0
    3.6120   68.0084   84.0049 C   0  0  0  0  0  0  0  0  0  0  0  0
    3.1974   69.2180   83.5791 N   0  0  0  0  0  0  0  0  0  0  0  0
    2.0805   69.3068   82.8004 C   0  0  0  0  0  0  0  0  0  0  0  0
    1.3866   68.1497   82.4517 C   0  0  0  0  0  0  0  0  0  0  0  0
    1.6759   70.6214   82.3665 N   0  0  0  0  0  0  0  0  0  0  0  0
    2.5621   71.6082   82.7537 N   0  0  0  0  0  0  0  0  0  0  0  0
    2.3611   72.8451   82.4299 C   0  0  0  0  0  0  0  0  0  0  0  0
    1.1672   73.2933   81.6898 C   0  0  0  0  0  0  0  0  0  0  0  0
    0.8809   74.6411   81.4243 C   0  0  0  0  0  0  0  0  0  0  0  0
   -0.2695   74.9887   80.7114 C   0  0  0  0  0  0  0  0  0  0  0  0
   -1.1448   73.9991   80.2739 C   0  0  0  0  0  0  0  0  0  0  0  0
   -0.8772   72.6615   80.5629 C   0  0  0  0  0  0  0  0  0  0  0  0
    0.2774   72.3077   81.2802 C   0  0  0  0  0  0  0  0  0  0  0  0
    0.5204   70.8910   81.6311 C   0  0  0  0  0  0  0  0  0  0  0  0
   -0.3337   70.0825   81.2726 O   0  0  0  0  0  0  0  0  0  0  0  0
    3.4028   73.8076   82.8472 C   0  0  0  0  0  0  0  0  0  0  0  0
    4.4425   74.1312   81.9771 C   0  0  0  0  0  0  0  0  0  0  0  0
    5.4037   75.0512   82.3863 C   0  0  0  0  0  0  0  0  0  0  0  0
    5.2798   75.6168   83.6473 C   0  0  0  0  0  0  0  0  0  0  0  0
    4.2716   75.3362   84.5047 N   0  0  0  0  0  0  0  0  0  0  0  0
    3.3398   74.4522   84.0754 C   0  0  0  0  0  0  0  0  0  0  0  0
   -0.4279   63.0535   85.5884 C   0  0  0  0  0  0  0  0  0  0  0  0
   -0.6077   62.7757   84.2311 C   0  0  0  0  0  0  0  0  0  0  0  0
   -0.1149   63.6381   83.2341 C   0  0  0  0  0  0  0  0  0  0  0  0
   -0.3284   63.3350   81.8844 C   0  0  0  0  0  0  0  0  0  0  0  0
    0.1425   64.1624   80.8542 C   0  0  0  0  0  0  0  0  0  0  0  0
    0.8708   65.3320   81.1771 C   0  0  0  0  0  0  0  0  0  0  0  0
    1.0868   65.6638   82.5462 C   0  0  0  0  0  0  0  0  0  0  0  0
    0.5858   64.8106   83.5853 C   0  0  0  0  0  0  0  0  0  0  0  0
    0.7472   65.0758   84.9700 C   0  0  0  0  0  0  0  0  0  0  0  0
    0.2509   64.2213   85.9627 C   0  0  0  0  0  0  0  0  0  0  0  0
   -0.1871   63.7879   79.4303 C   0  0  0  0  0  0  0  0  0  0  0  0
    0.7426   62.8076   78.9825 O   0  0  0  0  0  0  0  0  0  0  0  0
    1.6315   63.1641   79.1708 H   0  0  0  0  0  0  0  0  0  0  0  0
    1.3859   66.2296   80.0651 C   0  0  0  0  0  0  0  0  0  0  0  0
    0.3235   66.9883   79.5080 O   0  0  0  0  0  0  0  0  0  0  0  0
   -0.2777   66.3441   79.0819 H   0  0  0  0  0  0  0  0  0  0  0  0
   -2.2761   62.2199   86.8572 C   0  0  0  0  0  0  0  0  0  0  0  0
   -0.8781   62.2595   86.6132 O   0  0  0  0  0  0  0  0  0  0  0  0
    0.3889   64.4362   87.3120 O   0  0  0  0  0  0  0  0  0  0  0  0
    1.4315   63.7457   87.9865 C   0  0  0  0  0  0  0  0  0  0  0  0
 40 41  1  0  0  0
 41 24  1  0  0  0
 24 25  1  0  0  0
 25 26  2  0  0  0
 26 27  1  0  0  0
 27 28  2  0  0  0
 28 34  1  0  0  0
 34 35  1  0  0  0
 28 29  1  0  0  0
 29 37  1  0  0  0
 37 38  1  0  0  0
 29 30  2  0  0  0
 30  1  1  0  0  0
  1  2  2  0  0  0
  2  3  1  0  0  0
  3  4  2  0  0  0
  4  5  1  0  0  0
  5  7  1  0  0  0
  7  8  1  0  0  0
  8  9  2  0  0  0
  9 18  1  0  0  0
 18 19  1  0  0  0
 19 20  2  0  0  0
 20 21  1  0  0  0
 21 22  2  0  0  0
 22 23  1  0  0  0
  9 10  1  0  0  0
 10 11  2  0  0  0
 11 12  1  0  0  0
 12 13  2  0  0  0
 13 14  1  0  0  0
 14 15  2  0  0  0
 15 16  1  0  0  0
 16 17  2  0  0  0
  5  6  2  0  0  0
 30 31  1  0  0  0
 31 32  2  0  0  0
 32 33  1  0  0  0
 33 42  1  0  0  0
 42 43  1  0  0  0
 33 24  2  0  0  0
 31 26  1  0  0  0
  6  1  1  0  0  0
 16  7  1  0  0  0
 23 18  2  0  0  0
 15 10  1  0  0  0
 35 36  1  0  0  0
 38 39  1  0  0  0
M  END
> <minimizedAffinity>
-11.95549

$$$$



 43 48  0  0  0  0  0  0  0  0999 V2000
    1.7787   65.5453   84.5456 C   0  0  0  0  0  0  0  0  0  0  0  0
    1.3541   65.4179   85.8670 C   0  0  0  0  0  0  0  0  0  0  0  0
    0.3337   64.5328   86.1373 C   0  0  0  0  0  0  0  0  0  0  0  0
   -0.2704   63.7795   85.1973 N   0  0  0  0  0  0  0  0  0  0  0  0
    0.1301   63.8834   83.8971 C   0  0  0  0  0  0  0  0  0  0  0  0
    1.1522   64.7673   83.5566 C   0  0  0  0  0  0  0  0  0  0  0  0
   -0.5464   63.0596   82.9255 N   0  0  0  0  0  0  0  0  0  0  0  0
   -0.4454   63.5568   81.6404 N   0  0  0  0  0  0  0  0  0  0  0  0
   -0.9795   62.9295   80.6421 C   0  0  0  0  0  0  0  0  0  0  0  0
   -1.7687   61.6946   80.8046 C   0  0  0  0  0  0  0  0  0  0  0  0
   -2.4430   61.0616   79.7492 C   0  0  0  0  0  0  0  0  0  0  0  0
   -3.1679   59.8896   79.9799 C   0  0  0  0  0  0  0  0  0  0  0  0
   -3.2363   59.3526   81.2621 C   0  0  0  0  0  0  0  0  0  0  0  0
   -2.5916   59.9968   82.3174 C   0  0  0  0  0  0  0  0  0  0  0  0
   -1.8628   61.1758   82.0902 C   0  0  0  0  0  0  0  0  0  0  0  0
   -1.2321   61.8816   83.2273 C   0  0  0  0  0  0  0  0  0  0  0  0
   -1.3964   61.3858   84.3404 O   0  0  0  0  0  0  0  0  0  0  0  0
   -0.7600   63.5214   79.3052 C   0  0  0  0  0  0  0  0  0  0  0  0
   -1.5092   63.0807   78.2157 C   0  0  0  0  0  0  0  0  0  0  0  0
   -1.2954   63.6631   76.9695 C   0  0  0  0  0  0  0  0  0  0  0  0
   -0.3460   64.6699   76.8668 C   0  0  0  0  0  0  0  0  0  0  0  0
    0.3816   65.1305   77.9103 N   0  0  0  0  0  0  0  0  0  0  0  0
    0.1414   64.5601   79.1148 C   0  0  0  0  0  0  0  0  0  0  0  0
    2.1941   69.7039   81.4541 C   0  0  0  0  0  0  0  0  0  0  0  0
    3.4453   69.4911   82.0384 C   0  0  0  0  0  0  0  0  0  0  0  0
    3.6630   68.4345   82.9421 C   0  0  0  0  0  0  0  0  0  0  0  0
    4.9261   68.2624   83.5199 C   0  0  0  0  0  0  0  0  0  0  0  0
    5.1930   67.2253   84.4258 C   0  0  0  0  0  0  0  0  0  0  0  0
    4.1668   66.3099   84.7598 C   0  0  0  0  0  0  0  0  0  0  0  0
    2.8705   66.4770   84.1915 C   0  0  0  0  0  0  0  0  0  0  0  0
    2.6147   67.5521   83.2765 C   0  0  0  0  0  0  0  0  0  0  0  0
    1.3512   67.7946   82.6777 C   0  0  0  0  0  0  0  0  0  0  0  0
    1.1323   68.8503   81.7835 C   0  0  0  0  0  0  0  0  0  0  0  0
    6.5671   67.1535   85.0448 C   0  0  0  0  0  0  0  0  0  0  0  0
    7.4934   66.6996   84.0641 O   0  0  0  0  0  0  0  0  0  0  0  0
    7.1159   65.8830   83.6853 H   0  0  0  0  0  0  0  0  0  0  0  0
    4.4516   65.1829   85.7378 C   0  0  0  0  0  0  0  0  0  0  0  0
    4.5513   65.6877   87.0607 O   0  0  0  0  0  0  0  0  0  0  0  0
    5.3409   66.2657   87.0734 H   0  0  0  0  0  0  0  0  0  0  0  0
    2.3362   72.0241   80.8915 C   0  0  0  0  0  0  0  0  0  0  0  0
    1.9095   70.7100   80.5653 O   0  0  0  0  0  0  0  0  0  0  0  0
   -0.0708   69.1177   81.1777 O   0  0  0  0  0  0  0  0  0  0  0  0
   -0.4940   68.2461   80.1385 C   0  0  0  0  0  0  0  0  0  0  0  0
 40 41  1  0  0  0
 41 24  1  0  0  0
 24 25  1  0  0  0
 25 26  2  0  0  0
 26 27  1  0  0  0
 27 28  2  0  0  0
 28 34  1  0  0  0
 34 35  1  0  0  0
 28 29  1  0  0  0
 29 37  1  0  0  0
 37 38  1  0  0  0
 29 30  2  0  0  0
 30  1  1  0  0  0
  1  2  2  0  0  0
  2  3  1  0  0  0
  3  4  2  0  0  0
  4  5  1  0  0  0
  5  7  1  0  0  0
  7  8  1  0  0  0
  8  9  2  0  0  0
  9 18  1  0  0  0
 18 19  1  0  0  0
 19 20  2  0  0  0
 20 21  1  0  0  0
 21 22  2  0  0  0
 22 23  1  0  0  0
  9 10  1  0  0  0
 10 11  2  0  0  0
 11 12  1  0  0  0
 12 13  2  0  0  0
 13 14  1  0  0  0
 14 15  2  0  0  0
 15 16  1  0  0  0
 16 17  2  0  0  0
  5  6  2  0  0  0
 30 31  1  0  0  0
 31 32  2  0  0  0
 32 33  1  0  0  0
 33 42  1  0  0  0
 42 43  1  0  0  0
 33 24  2  0  0  0
 31 26  1  0  0  0
  6  1  1  0  0  0
 16  7  1  0  0  0
 23 18  2  0  0  0
 15 10  1  0  0  0
 35 36  1  0  0  0
 38 39  1  0  0  0
M  END
> <minimizedAffinity>
-11.61472

$$$$



 43 48  0  0  0  0  0  0  0  0999 V2000
    1.6320   66.3121   83.4918 C   0  0  0  0  0  0  0  0  0  0  0  0
    2.9404   66.3127   83.9721 C   0  0  0  0  0  0  0  0  0  0  0  0
    3.6694   67.4767   83.8651 C   0  0  0  0  0  0  0  0  0  0  0  0
    3.1856   68.6146   83.3293 N   0  0  0  0  0  0  0  0  0  0  0  0
    1.9063   68.6403   82.8557 C   0  0  0  0  0  0  0  0  0  0  0  0
    1.1191   67.4926   82.9270 C   0  0  0  0  0  0  0  0  0  0  0  0
    1.4323   69.8791   82.2891 N   0  0  0  0  0  0  0  0  0  0  0  0
    2.2462   70.9527   82.5953 N   0  0  0  0  0  0  0  0  0  0  0  0
    1.9775   72.1378   82.1495 C   0  0  0  0  0  0  0  0  0  0  0  0
    0.7769   72.4363   81.3474 C   0  0  0  0  0  0  0  0  0  0  0  0
    0.4148   73.7317   80.9473 C   0  0  0  0  0  0  0  0  0  0  0  0
   -0.7369   73.9357   80.1828 C   0  0  0  0  0  0  0  0  0  0  0  0
   -1.5386   72.8551   79.8271 C   0  0  0  0  0  0  0  0  0  0  0  0
   -1.1964   71.5709   80.2492 C   0  0  0  0  0  0  0  0  0  0  0  0
   -0.0402   71.3615   81.0188 C   0  0  0  0  0  0  0  0  0  0  0  0
    0.2808   70.0031   81.5097 C   0  0  0  0  0  0  0  0  0  0  0  0
   -0.5129   69.1114   81.2153 O   0  0  0  0  0  0  0  0  0  0  0  0
    2.9475   73.2001   82.4909 C   0  0  0  0  0  0  0  0  0  0  0  0
    2.8195   73.9033   83.6875 C   0  0  0  0  0  0  0  0  0  0  0  0
    3.7533   74.8890   83.9944 C   0  0  0  0  0  0  0  0  0  0  0  0
    4.7829   75.1244   83.0944 C   0  0  0  0  0  0  0  0  0  0  0  0
    4.9427   74.4447   81.9357 N   0  0  0  0  0  0  0  0  0  0  0  0
    4.0316   73.4787   81.6695 C   0  0  0  0  0  0  0  0  0  0  0  0
   -0.5973   63.1365   80.0322 C   0  0  0  0  0  0  0  0  0  0  0  0
   -0.9138   62.6556   81.3051 C   0  0  0  0  0  0  0  0  0  0  0  0
   -0.4488   63.2968   82.4684 C   0  0  0  0  0  0  0  0  0  0  0  0
   -0.7731   62.7764   83.7266 C   0  0  0  0  0  0  0  0  0  0  0  0
   -0.3339   63.3788   84.9148 C   0  0  0  0  0  0  0  0  0  0  0  0
    0.4466   64.5575   84.8518 C   0  0  0  0  0  0  0  0  0  0  0  0
    0.7979   65.0947   83.5793 C   0  0  0  0  0  0  0  0  0  0  0  0
    0.3490   64.4562   82.3754 C   0  0  0  0  0  0  0  0  0  0  0  0
    0.6648   64.9196   81.0718 C   0  0  0  0  0  0  0  0  0  0  0  0
    0.2080   64.2776   79.9137 C   0  0  0  0  0  0  0  0  0  0  0  0
   -0.6814   62.7136   86.2237 C   0  0  0  0  0  0  0  0  0  0  0  0
   -1.7586   61.8079   86.0109 O   0  0  0  0  0  0  0  0  0  0  0  0
   -2.4565   62.3124   85.5514 H   0  0  0  0  0  0  0  0  0  0  0  0
    0.9219   65.2157   86.1358 C   0  0  0  0  0  0  0  0  0  0  0  0
    1.9921   64.4770   86.7050 O   0  0  0  0  0  0  0  0  0  0  0  0
    1.6178   63.6109   86.9649 H   0  0  0  0  0  0  0  0  0  0  0  0
   -0.7126   61.1956   78.6393 C   0  0  0  0  0  0  0  0  0  0  0  0
   -1.0157   62.5655   78.8565 O   0  0  0  0  0  0  0  0  0  0  0  0
    0.4846   64.6942   78.6348 O   0  0  0  0  0  0  0  0  0  0  0  0
    1.5498   65.6178   78.4580 C   0  0  0  0  0  0  0  0  0  0  0  0
 40 41  1  0  0  0
 41 24  1  0  0  0
 24 25  1  0  0  0
 25 26  2  0  0  0
 26 27  1  0  0  0
 27 28  2  0  0  0
 28 34  1  0  0  0
 34 35  1  0  0  0
 28 29  1  0  0  0
 29 37  1  0  0  0
 37 38  1  0  0  0
 29 30  2  0  0  0
 30  1  1  0  0  0
  1  2  2  0  0  0
  2  3  1  0  0  0
  3  4  2  0  0  0
  4  5  1  0  0  0
  5  7  1  0  0  0
  7  8  1  0  0  0
  8  9  2  0  0  0
  9 18  1  0  0  0
 18 19  1  0  0  0
 19 20  2  0  0  0
 20 21  1  0  0  0
 21 22  2  0  0  0
 22 23  1  0  0  0
  9 10  1  0  0  0
 10 11  2  0  0  0
 11 12  1  0  0  0
 12 13  2  0  0  0
 13 14  1  0  0  0
 14 15  2  0  0  0
 15 16  1  0  0  0
 16 17  2  0  0  0
  5  6  2  0  0  0
 30 31  1  0  0  0
 31 32  2  0  0  0
 32 33  1  0  0  0
 33 42  1  0  0  0
 42 43  1  0  0  0
 33 24  2  0  0  0
 31 26  1  0  0  0
  6  1  1  0  0  0
 16  7  1  0  0  0
 23 18  2  0  0  0
 15 10  1  0  0  0
 35 36  1  0  0  0
 38 39  1  0  0  0
M  END
> <minimizedAffinity>
-11.50453

$$$$



 43 48  0  0  0  0  0  0  0  0999 V2000
    1.2716   65.6812   83.9941 C   0  0  0  0  0  0  0  0  0  0  0  0
    1.0094   65.4443   85.3423 C   0  0  0  0  0  0  0  0  0  0  0  0
    0.1593   64.4095   85.6650 C   0  0  0  0  0  0  0  0  0  0  0  0
   -0.4259   63.6106   84.7510 N   0  0  0  0  0  0  0  0  0  0  0  0
   -0.1817   63.8199   83.4250 C   0  0  0  0  0  0  0  0  0  0  0  0
    0.6629   64.8564   83.0323 C   0  0  0  0  0  0  0  0  0  0  0  0
   -0.8313   62.9418   82.4831 N   0  0  0  0  0  0  0  0  0  0  0  0
   -0.8049   63.4306   81.1910 N   0  0  0  0  0  0  0  0  0  0  0  0
   -1.3266   62.7579   80.2161 C   0  0  0  0  0  0  0  0  0  0  0  0
   -2.0249   61.4745   80.4147 C   0  0  0  0  0  0  0  0  0  0  0  0
   -2.6879   60.7860   79.3872 C   0  0  0  0  0  0  0  0  0  0  0  0
   -3.3242   59.5705   79.6516 C   0  0  0  0  0  0  0  0  0  0  0  0
   -3.3155   59.0441   80.9399 C   0  0  0  0  0  0  0  0  0  0  0  0
   -2.6829   59.7418   81.9682 C   0  0  0  0  0  0  0  0  0  0  0  0
   -2.0430   60.9646   81.7072 C   0  0  0  0  0  0  0  0  0  0  0  0
   -1.4259   61.7238   82.8171 C   0  0  0  0  0  0  0  0  0  0  0  0
   -1.5210   61.2302   83.9392 O   0  0  0  0  0  0  0  0  0  0  0  0
   -1.1901   63.3485   78.8676 C   0  0  0  0  0  0  0  0  0  0  0  0
   -2.0818   62.9936   77.8570 C   0  0  0  0  0  0  0  0  0  0  0  0
   -1.9426   63.5740   76.5993 C   0  0  0  0  0  0  0  0  0  0  0  0
   -0.9211   64.4933   76.4072 C   0  0  0  0  0  0  0  0  0  0  0  0
   -0.0537   64.8707   77.3743 N   0  0  0  0  0  0  0  0  0  0  0  0
   -0.2220   64.3053   78.5933 C   0  0  0  0  0  0  0  0  0  0  0  0
    6.1420   67.0551   85.1836 C   0  0  0  0  0  0  0  0  0  0  0  0
    5.6572   67.9891   84.2646 C   0  0  0  0  0  0  0  0  0  0  0  0
    4.3568   67.8912   83.7357 C   0  0  0  0  0  0  0  0  0  0  0  0
    3.9114   68.8367   82.8046 C   0  0  0  0  0  0  0  0  0  0  0  0
    2.6247   68.7823   82.2487 C   0  0  0  0  0  0  0  0  0  0  0  0
    1.7363   67.7551   82.6463 C   0  0  0  0  0  0  0  0  0  0  0  0
    2.1766   66.7757   83.5835 C   0  0  0  0  0  0  0  0  0  0  0  0
    3.5012   66.8419   84.1309 C   0  0  0  0  0  0  0  0  0  0  0  0
    4.0196   65.9007   85.0578 C   0  0  0  0  0  0  0  0  0  0  0  0
    5.3163   65.9938   85.5792 C   0  0  0  0  0  0  0  0  0  0  0  0
    2.2526   69.8087   81.2073 C   0  0  0  0  0  0  0  0  0  0  0  0
    2.6216   69.3194   79.9227 O   0  0  0  0  0  0  0  0  0  0  0  0
    3.5572   69.0490   79.9888 H   0  0  0  0  0  0  0  0  0  0  0  0
    0.3406   67.6936   82.0498 C   0  0  0  0  0  0  0  0  0  0  0  0
    0.4011   67.3075   80.6853 O   0  0  0  0  0  0  0  0  0  0  0  0
    0.8659   68.0306   80.2174 H   0  0  0  0  0  0  0  0  0  0  0  0
    8.5061   66.8371   84.8935 C   0  0  0  0  0  0  0  0  0  0  0  0
    7.3954   67.0881   85.7415 O   0  0  0  0  0  0  0  0  0  0  0  0
    5.8557   65.1096   86.4808 O   0  0  0  0  0  0  0  0  0  0  0  0
    5.4236   65.1990   87.8314 C   0  0  0  0  0  0  0  0  0  0  0  0
 40 41  1  0  0  0
 41 24  1  0  0  0
 24 25  1  0  0  0
 25 26  2  0  0  0
 26 27  1  0  0  0
 27 28  2  0  0  0
 28 34  1  0  0  0
 34 35  1  0  0  0
 28 29  1  0  0  0
 29 37  1  0  0  0
 37 38  1  0  0  0
 29 30  2  0  0  0
 30  1  1  0  0  0
  1  2  2  0  0  0
  2  3  1  0  0  0
  3  4  2  0  0  0
  4  5  1  0  0  0
  5  7  1  0  0  0
  7  8  1  0  0  0
  8  9  2  0  0  0
  9 18  1  0  0  0
 18 19  1  0  0  0
 19 20  2  0  0  0
 20 21  1  0  0  0
 21 22  2  0  0  0
 22 23  1  0  0  0
  9 10  1  0  0  0
 10 11  2  0  0  0
 11 12  1  0  0  0
 12 13  2  0  0  0
 13 14  1  0  0  0
 14 15  2  0  0  0
 15 16  1  0  0  0
 16 17  2  0  0  0
  5  6  2  0  0  0
 30 31  1  0  0  0
 31 32  2  0  0  0
 32 33  1  0  0  0
 33 42  1  0  0  0
 42 43  1  0  0  0
 33 24  2  0  0  0
 31 26  1  0  0  0
  6  1  1  0  0  0
 16  7  1  0  0  0
 23 18  2  0  0  0
 15 10  1  0  0  0
 35 36  1  0  0  0
 38 39  1  0  0  0
M  END
> <minimizedAffinity>
-11.35381

$$$$



 43 48  0  0  0  0  0  0  0  0999 V2000
    1.3136   66.7443   80.7062 C   0  0  0  0  0  0  0  0  0  0  0  0
    1.8903   66.6369   79.4420 C   0  0  0  0  0  0  0  0  0  0  0  0
    1.6575   65.4876   78.7190 C   0  0  0  0  0  0  0  0  0  0  0  0
    0.8983   64.4666   79.1632 N   0  0  0  0  0  0  0  0  0  0  0  0
    0.3197   64.5497   80.3961 C   0  0  0  0  0  0  0  0  0  0  0  0
    0.5235   65.6831   81.1808 C   0  0  0  0  0  0  0  0  0  0  0  0
   -0.4822   63.4323   80.8304 N   0  0  0  0  0  0  0  0  0  0  0  0
   -0.5953   63.3583   82.2054 N   0  0  0  0  0  0  0  0  0  0  0  0
   -1.2975   62.4257   82.7644 C   0  0  0  0  0  0  0  0  0  0  0  0
   -1.9673   61.3605   81.9957 C   0  0  0  0  0  0  0  0  0  0  0  0
   -2.6419   60.2832   82.5902 C   0  0  0  0  0  0  0  0  0  0  0  0
   -3.2576   59.3135   81.7946 C   0  0  0  0  0  0  0  0  0  0  0  0
   -3.1917   59.4044   80.4074 C   0  0  0  0  0  0  0  0  0  0  0  0
   -2.4963   60.4580   79.8153 C   0  0  0  0  0  0  0  0  0  0  0  0
   -1.8748   61.4343   80.6112 C   0  0  0  0  0  0  0  0  0  0  0  0
   -1.0909   62.5145   79.9726 C   0  0  0  0  0  0  0  0  0  0  0  0
   -1.0180   62.4879   78.7455 O   0  0  0  0  0  0  0  0  0  0  0  0
   -1.3966   62.4767   84.2387 C   0  0  0  0  0  0  0  0  0  0  0  0
   -2.6274   62.7168   84.8471 C   0  0  0  0  0  0  0  0  0  0  0  0
   -2.6990   62.7457   86.2370 C   0  0  0  0  0  0  0  0  0  0  0  0
   -1.5366   62.5240   86.9616 C   0  0  0  0  0  0  0  0  0  0  0  0
   -0.3331   62.2698   86.3984 N   0  0  0  0  0  0  0  0  0  0  0  0
   -0.2941   62.2289   85.0453 C   0  0  0  0  0  0  0  0  0  0  0  0
    4.0539   67.8332   84.9874 C   0  0  0  0  0  0  0  0  0  0  0  0
    3.3992   69.0054   84.6012 C   0  0  0  0  0  0  0  0  0  0  0  0
    2.5743   69.0438   83.4617 C   0  0  0  0  0  0  0  0  0  0  0  0
    1.9474   70.2408   83.0966 C   0  0  0  0  0  0  0  0  0  0  0  0
    1.1164   70.3301   81.9701 C   0  0  0  0  0  0  0  0  0  0  0  0
    0.8843   69.1781   81.1817 C   0  0  0  0  0  0  0  0  0  0  0  0
    1.5245   67.9534   81.5304 C   0  0  0  0  0  0  0  0  0  0  0  0
    2.3810   67.8862   82.6795 C   0  0  0  0  0  0  0  0  0  0  0  0
    3.0641   66.7107   83.0865 C   0  0  0  0  0  0  0  0  0  0  0  0
    3.8907   66.6739   84.2167 C   0  0  0  0  0  0  0  0  0  0  0  0
    0.5316   71.6759   81.6189 C   0  0  0  0  0  0  0  0  0  0  0  0
    0.9133   72.6202   82.6131 O   0  0  0  0  0  0  0  0  0  0  0  0
    0.6760   72.2255   83.4738 H   0  0  0  0  0  0  0  0  0  0  0  0
   -0.0175   69.2687   79.9627 C   0  0  0  0  0  0  0  0  0  0  0  0
   -1.1503   68.4281   80.1202 O   0  0  0  0  0  0  0  0  0  0  0  0
   -0.8090   67.5110   80.1393 H   0  0  0  0  0  0  0  0  0  0  0  0
    6.2479   68.0218   85.9207 C   0  0  0  0  0  0  0  0  0  0  0  0
    4.8702   67.7212   86.0849 O   0  0  0  0  0  0  0  0  0  0  0  0
    4.5652   65.5586   84.6491 O   0  0  0  0  0  0  0  0  0  0  0  0
    4.1604   64.9797   85.8819 C   0  0  0  0  0  0  0  0  0  0  0  0
 40 41  1  0  0  0
 41 24  1  0  0  0
 24 25  1  0  0  0
 25 26  2  0  0  0
 26 27  1  0  0  0
 27 28  2  0  0  0
 28 34  1  0  0  0
 34 35  1  0  0  0
 28 29  1  0  0  0
 29 37  1  0  0  0
 37 38  1  0  0  0
 29 30  2  0  0  0
 30  1  1  0  0  0
  1  2  2  0  0  0
  2  3  1  0  0  0
  3  4  2  0  0  0
  4  5  1  0  0  0
  5  7  1  0  0  0
  7  8  1  0  0  0
  8  9  2  0  0  0
  9 18  1  0  0  0
 18 19  1  0  0  0
 19 20  2  0  0  0
 20 21  1  0  0  0
 21 22  2  0  0  0
 22 23  1  0  0  0
  9 10  1  0  0  0
 10 11  2  0  0  0
 11 12  1  0  0  0
 12 13  2  0  0  0
 13 14  1  0  0  0
 14 15  2  0  0  0
 15 16  1  0  0  0
 16 17  2  0  0  0
  5  6  2  0  0  0
 30 31  1  0  0  0
 31 32  2  0  0  0
 32 33  1  0  0  0
 33 42  1  0  0  0
 42 43  1  0  0  0
 33 24  2  0  0  0
 31 26  1  0  0  0
  6  1  1  0  0  0
 16  7  1  0  0  0
 23 18  2  0  0  0
 15 10  1  0  0  0
 35 36  1  0  0  0
 38 39  1  0  0  0
M  END
> <minimizedAffinity>
-11.25618

$$$$



 43 48  0  0  0  0  0  0  0  0999 V2000
    0.9749   66.4345   81.8235 C   0  0  0  0  0  0  0  0  0  0  0  0
    1.3996   66.0560   80.5512 C   0  0  0  0  0  0  0  0  0  0  0  0
    1.7398   67.0492   79.6593 C   0  0  0  0  0  0  0  0  0  0  0  0
    1.6915   68.3640   79.9513 N   0  0  0  0  0  0  0  0  0  0  0  0
    1.2827   68.7596   81.1915 C   0  0  0  0  0  0  0  0  0  0  0  0
    0.9166   67.8035   82.1369 C   0  0  0  0  0  0  0  0  0  0  0  0
    1.2447   70.1766   81.4579 N   0  0  0  0  0  0  0  0  0  0  0  0
    0.2757   70.8326   80.7234 N   0  0  0  0  0  0  0  0  0  0  0  0
    0.0921   72.1071   80.8552 C   0  0  0  0  0  0  0  0  0  0  0  0
    0.9239   72.9470   81.7367 C   0  0  0  0  0  0  0  0  0  0  0  0
    0.8088   74.3436   81.8105 C   0  0  0  0  0  0  0  0  0  0  0  0
    1.6301   75.0723   82.6746 C   0  0  0  0  0  0  0  0  0  0  0  0
    2.5771   74.4166   83.4557 C   0  0  0  0  0  0  0  0  0  0  0  0
    2.7132   73.0321   83.3614 C   0  0  0  0  0  0  0  0  0  0  0  0
    1.8905   72.2957   82.4933 C   0  0  0  0  0  0  0  0  0  0  0  0
    2.0837   70.8350   82.3587 C   0  0  0  0  0  0  0  0  0  0  0  0
    2.9876   70.3371   83.0271 O   0  0  0  0  0  0  0  0  0  0  0  0
   -1.0098   72.6942   80.0635 C   0  0  0  0  0  0  0  0  0  0  0  0
   -2.1219   71.9208   79.7352 C   0  0  0  0  0  0  0  0  0  0  0  0
   -3.1538   72.4994   79.0016 C   0  0  0  0  0  0  0  0  0  0  0  0
   -3.0342   73.8321   78.6341 C   0  0  0  0  0  0  0  0  0  0  0  0
   -1.9760   74.6115   78.9550 N   0  0  0  0  0  0  0  0  0  0  0  0
   -0.9945   74.0298   79.6846 C   0  0  0  0  0  0  0  0  0  0  0  0
   -1.9118   62.1118   81.7532 C   0  0  0  0  0  0  0  0  0  0  0  0
   -1.4261   62.2686   83.0538 C   0  0  0  0  0  0  0  0  0  0  0  0
   -0.5968   63.3510   83.4018 C   0  0  0  0  0  0  0  0  0  0  0  0
   -0.1161   63.4661   84.7113 C   0  0  0  0  0  0  0  0  0  0  0  0
    0.7130   64.5260   85.1073 C   0  0  0  0  0  0  0  0  0  0  0  0
    1.0667   65.5232   84.1675 C   0  0  0  0  0  0  0  0  0  0  0  0
    0.5975   65.4157   82.8260 C   0  0  0  0  0  0  0  0  0  0  0  0
   -0.2395   64.3168   82.4381 C   0  0  0  0  0  0  0  0  0  0  0  0
   -0.7372   64.1305   81.1223 C   0  0  0  0  0  0  0  0  0  0  0  0
   -1.5570   63.0495   80.7738 C   0  0  0  0  0  0  0  0  0  0  0  0
    1.2325   64.5357   86.5238 C   0  0  0  0  0  0  0  0  0  0  0  0
    0.1651   64.8644   87.4060 O   0  0  0  0  0  0  0  0  0  0  0  0
   -0.2384   65.6823   87.0580 H   0  0  0  0  0  0  0  0  0  0  0  0
    1.9617   66.6749   84.5921 C   0  0  0  0  0  0  0  0  0  0  0  0
    3.3270   66.3412   84.3935 O   0  0  0  0  0  0  0  0  0  0  0  0
    3.5201   65.6048   85.0086 H   0  0  0  0  0  0  0  0  0  0  0  0
   -3.0014   60.0464   82.2703 C   0  0  0  0  0  0  0  0  0  0  0  0
   -2.7244   61.0849   81.3428 O   0  0  0  0  0  0  0  0  0  0  0  0
   -2.0645   62.8340   79.5161 O   0  0  0  0  0  0  0  0  0  0  0  0
   -1.1438   62.5362   78.4756 C   0  0  0  0  0  0  0  0  0  0  0  0
 40 41  1  0  0  0
 41 24  1  0  0  0
 24 25  1  0  0  0
 25 26  2  0  0  0
 26 27  1  0  0  0
 27 28  2  0  0  0
 28 34  1  0  0  0
 34 35  1  0  0  0
 28 29  1  0  0  0
 29 37  1  0  0  0
 37 38  1  0  0  0
 29 30  2  0  0  0
 30  1  1  0  0  0
  1  2  2  0  0  0
  2  3  1  0  0  0
  3  4  2  0  0  0
  4  5  1  0  0  0
  5  7  1  0  0  0
  7  8  1  0  0  0
  8  9  2  0  0  0
  9 18  1  0  0  0
 18 19  1  0  0  0
 19 20  2  0  0  0
 20 21  1  0  0  0
 21 22  2  0  0  0
 22 23  1  0  0  0
  9 10  1  0  0  0
 10 11  2  0  0  0
 11 12  1  0  0  0
 12 13  2  0  0  0
 13 14  1  0  0  0
 14 15  2  0  0  0
 15 16  1  0  0  0
 16 17  2  0  0  0
  5  6  2  0  0  0
 30 31  1  0  0  0
 31 32  2  0  0  0
 32 33  1  0  0  0
 33 42  1  0  0  0
 42 43  1  0  0  0
 33 24  2  0  0  0
 31 26  1  0  0  0
  6  1  1  0  0  0
 16  7  1  0  0  0
 23 18  2  0  0  0
 15 10  1  0  0  0
 35 36  1  0  0  0
 38 39  1  0  0  0
M  END
> <minimizedAffinity>
-11.21663

$$$$



 43 48  0  0  0  0  0  0  0  0999 V2000
    1.2406   68.9372   81.0199 C   0  0  0  0  0  0  0  0  0  0  0  0
    1.8739   68.5181   79.8513 C   0  0  0  0  0  0  0  0  0  0  0  0
    2.0123   67.1640   79.6390 C   0  0  0  0  0  0  0  0  0  0  0  0
    1.5635   66.2241   80.4942 N   0  0  0  0  0  0  0  0  0  0  0  0
    0.9368   66.6093   81.6434 C   0  0  0  0  0  0  0  0  0  0  0  0
    0.7726   67.9650   81.9208 C   0  0  0  0  0  0  0  0  0  0  0  0
    0.4753   65.5689   82.5293 N   0  0  0  0  0  0  0  0  0  0  0  0
   -0.2938   64.6197   81.8839 N   0  0  0  0  0  0  0  0  0  0  0  0
   -0.7731   63.6042   82.5276 C   0  0  0  0  0  0  0  0  0  0  0  0
   -0.5877   63.4182   83.9785 C   0  0  0  0  0  0  0  0  0  0  0  0
   -1.1890   62.3825   84.7099 C   0  0  0  0  0  0  0  0  0  0  0  0
   -0.9620   62.2679   86.0838 C   0  0  0  0  0  0  0  0  0  0  0  0
   -0.1494   63.1904   86.7361 C   0  0  0  0  0  0  0  0  0  0  0  0
    0.4247   64.2376   86.0162 C   0  0  0  0  0  0  0  0  0  0  0  0
    0.1982   64.3573   84.6352 C   0  0  0  0  0  0  0  0  0  0  0  0
    0.7649   65.5053   83.8934 C   0  0  0  0  0  0  0  0  0  0  0  0
    1.4120   66.3181   84.5510 O   0  0  0  0  0  0  0  0  0  0  0  0
   -1.5326   62.6213   81.7258 C   0  0  0  0  0  0  0  0  0  0  0  0
   -2.9098   62.7653   81.5675 C   0  0  0  0  0  0  0  0  0  0  0  0
   -3.6015   61.8358   80.7959 C   0  0  0  0  0  0  0  0  0  0  0  0
   -2.8843   60.8045   80.2065 C   0  0  0  0  0  0  0  0  0  0  0  0
   -1.5456   60.6511   80.3271 N   0  0  0  0  0  0  0  0  0  0  0  0
   -0.8939   61.5789   81.0676 C   0  0  0  0  0  0  0  0  0  0  0  0
   -2.1923   72.5608   79.5679 C   0  0  0  0  0  0  0  0  0  0  0  0
   -1.2673   73.1771   80.4143 C   0  0  0  0  0  0  0  0  0  0  0  0
   -0.2040   72.4560   80.9885 C   0  0  0  0  0  0  0  0  0  0  0  0
    0.6938   73.1040   81.8447 C   0  0  0  0  0  0  0  0  0  0  0  0
    1.7691   72.4292   82.4415 C   0  0  0  0  0  0  0  0  0  0  0  0
    1.9716   71.0565   82.1635 C   0  0  0  0  0  0  0  0  0  0  0  0
    1.0600   70.3767   81.3044 C   0  0  0  0  0  0  0  0  0  0  0  0
   -0.0410   71.0822   80.7139 C   0  0  0  0  0  0  0  0  0  0  0  0
   -0.9985   70.4768   79.8592 C   0  0  0  0  0  0  0  0  0  0  0  0
   -2.0611   71.1926   79.2931 C   0  0  0  0  0  0  0  0  0  0  0  0
    2.6499   73.1942   83.3982 C   0  0  0  0  0  0  0  0  0  0  0  0
    3.7143   73.7943   82.6683 O   0  0  0  0  0  0  0  0  0  0  0  0
    4.1202   73.0828   82.1375 H   0  0  0  0  0  0  0  0  0  0  0  0
    3.1365   70.3220   82.8046 C   0  0  0  0  0  0  0  0  0  0  0  0
    2.7149   69.6601   83.9874 O   0  0  0  0  0  0  0  0  0  0  0  0
    2.4568   70.3639   84.6167 H   0  0  0  0  0  0  0  0  0  0  0  0
   -3.0513   74.5287   78.5144 C   0  0  0  0  0  0  0  0  0  0  0  0
   -3.2507   73.1997   78.9721 O   0  0  0  0  0  0  0  0  0  0  0  0
   -3.0058   70.6487   78.4579 O   0  0  0  0  0  0  0  0  0  0  0  0
   -2.8051   69.3132   78.0164 C   0  0  0  0  0  0  0  0  0  0  0  0
 40 41  1  0  0  0
 41 24  1  0  0  0
 24 25  1  0  0  0
 25 26  2  0  0  0
 26 27  1  0  0  0
 27 28  2  0  0  0
 28 34  1  0  0  0
 34 35  1  0  0  0
 28 29  1  0  0  0
 29 37  1  0  0  0
 37 38  1  0  0  0
 29 30  2  0  0  0
 30  1  1  0  0  0
  1  2  2  0  0  0
  2  3  1  0  0  0
  3  4  2  0  0  0
  4  5  1  0  0  0
  5  7  1  0  0  0
  7  8  1  0  0  0
  8  9  2  0  0  0
  9 18  1  0  0  0
 18 19  1  0  0  0
 19 20  2  0  0  0
 20 21  1  0  0  0
 21 22  2  0  0  0
 22 23  1  0  0  0
  9 10  1  0  0  0
 10 11  2  0  0  0
 11 12  1  0  0  0
 12 13  2  0  0  0
 13 14  1  0  0  0
 14 15  2  0  0  0
 15 16  1  0  0  0
 16 17  2  0  0  0
  5  6  2  0  0  0
 30 31  1  0  0  0
 31 32  2  0  0  0
 32 33  1  0  0  0
 33 42  1  0  0  0
 42 43  1  0  0  0
 33 24  2  0  0  0
 31 26  1  0  0  0
  6  1  1  0  0  0
 16  7  1  0  0  0
 23 18  2  0  0  0
 15 10  1  0  0  0
 35 36  1  0  0  0
 38 39  1  0  0  0
M  END
> <minimizedAffinity>
-11.12137

$$$$



 43 48  0  0  0  0  0  0  0  0999 V2000
    1.7563   65.6981   83.9193 C   0  0  0  0  0  0  0  0  0  0  0  0
    1.1808   65.0735   85.0244 C   0  0  0  0  0  0  0  0  0  0  0  0
    0.1783   64.1556   84.8007 C   0  0  0  0  0  0  0  0  0  0  0  0
   -0.2706   63.8235   83.5742 N   0  0  0  0  0  0  0  0  0  0  0  0
    0.2797   64.4183   82.4764 C   0  0  0  0  0  0  0  0  0  0  0  0
    1.2924   65.3622   82.6357 C   0  0  0  0  0  0  0  0  0  0  0  0
   -0.2338   64.0336   81.1847 N   0  0  0  0  0  0  0  0  0  0  0  0
   -0.8615   62.8028   81.2042 N   0  0  0  0  0  0  0  0  0  0  0  0
   -1.3974   62.3140   80.1322 C   0  0  0  0  0  0  0  0  0  0  0  0
   -1.3293   62.9918   78.8246 C   0  0  0  0  0  0  0  0  0  0  0  0
   -1.8104   62.4273   77.6333 C   0  0  0  0  0  0  0  0  0  0  0  0
   -1.7150   63.1334   76.4315 C   0  0  0  0  0  0  0  0  0  0  0  0
   -1.1283   64.3953   76.4083 C   0  0  0  0  0  0  0  0  0  0  0  0
   -0.6228   64.9450   77.5859 C   0  0  0  0  0  0  0  0  0  0  0  0
   -0.7155   64.2381   78.7961 C   0  0  0  0  0  0  0  0  0  0  0  0
   -0.1236   64.8062   80.0273 C   0  0  0  0  0  0  0  0  0  0  0  0
    0.4415   65.8924   79.9140 O   0  0  0  0  0  0  0  0  0  0  0  0
   -2.0923   61.0176   80.2816 C   0  0  0  0  0  0  0  0  0  0  0  0
   -2.3689   60.5168   81.5525 C   0  0  0  0  0  0  0  0  0  0  0  0
   -3.0374   59.3012   81.6683 C   0  0  0  0  0  0  0  0  0  0  0  0
   -3.4097   58.6406   80.5062 C   0  0  0  0  0  0  0  0  0  0  0  0
   -3.1715   59.1120   79.2607 N   0  0  0  0  0  0  0  0  0  0  0  0
   -2.5364   60.3050   79.1758 C   0  0  0  0  0  0  0  0  0  0  0  0
    2.4975   70.6168   82.4094 C   0  0  0  0  0  0  0  0  0  0  0  0
    3.6266   70.2279   83.1346 C   0  0  0  0  0  0  0  0  0  0  0  0
    3.7328   68.9402   83.6922 C   0  0  0  0  0  0  0  0  0  0  0  0
    4.8725   68.5918   84.4263 C   0  0  0  0  0  0  0  0  0  0  0  0
    5.0254   67.3217   85.0016 C   0  0  0  0  0  0  0  0  0  0  0  0
    4.0112   66.3503   84.8268 C   0  0  0  0  0  0  0  0  0  0  0  0
    2.8376   66.6911   84.0934 C   0  0  0  0  0  0  0  0  0  0  0  0
    2.6950   68.0001   83.5235 C   0  0  0  0  0  0  0  0  0  0  0  0
    1.5548   68.4218   82.7915 C   0  0  0  0  0  0  0  0  0  0  0  0
    1.4456   69.7057   82.2423 C   0  0  0  0  0  0  0  0  0  0  0  0
    6.2600   67.0554   85.8270 C   0  0  0  0  0  0  0  0  0  0  0  0
    7.3731   66.8915   84.9552 O   0  0  0  0  0  0  0  0  0  0  0  0
    7.1091   66.2245   84.2933 H   0  0  0  0  0  0  0  0  0  0  0  0
    4.1735   64.9723   85.4450 C   0  0  0  0  0  0  0  0  0  0  0  0
    3.8881   65.0155   86.8347 O   0  0  0  0  0  0  0  0  0  0  0  0
    4.5799   65.5783   87.2380 H   0  0  0  0  0  0  0  0  0  0  0  0
    1.8679   72.9099   82.6657 C   0  0  0  0  0  0  0  0  0  0  0  0
    2.3258   71.8522   81.8369 O   0  0  0  0  0  0  0  0  0  0  0  0
    0.3644   70.1532   81.5235 O   0  0  0  0  0  0  0  0  0  0  0  0
   -0.0359   69.3924   80.3922 C   0  0  0  0  0  0  0  0  0  0  0  0
 40 41  1  0  0  0
 41 24  1  0  0  0
 24 25  1  0  0  0
 25 26  2  0  0  0
 26 27  1  0  0  0
 27 28  2  0  0  0
 28 34  1  0  0  0
 34 35  1  0  0  0
 28 29  1  0  0  0
 29 37  1  0  0  0
 37 38  1  0  0  0
 29 30  2  0  0  0
 30  1  1  0  0  0
  1  2  2  0  0  0
  2  3  1  0  0  0
  3  4  2  0  0  0
  4  5  1  0  0  0
  5  7  1  0  0  0
  7  8  1  0  0  0
  8  9  2  0  0  0
  9 18  1  0  0  0
 18 19  1  0  0  0
 19 20  2  0  0  0
 20 21  1  0  0  0
 21 22  2  0  0  0
 22 23  1  0  0  0
  9 10  1  0  0  0
 10 11  2  0  0  0
 11 12  1  0  0  0
 12 13  2  0  0  0
 13 14  1  0  0  0
 14 15  2  0  0  0
 15 16  1  0  0  0
 16 17  2  0  0  0
  5  6  2  0  0  0
 30 31  1  0  0  0
 31 32  2  0  0  0
 32 33  1  0  0  0
 33 42  1  0  0  0
 42 43  1  0  0  0
 33 24  2  0  0  0
 31 26  1  0  0  0
  6  1  1  0  0  0
 16  7  1  0  0  0
 23 18  2  0  0  0
 15 10  1  0  0  0
 35 36  1  0  0  0
 38 39  1  0  0  0
M  END
> <minimizedAffinity>
-10.92717

$$$$
