


 34 37  0  0  0  0  0  0  0  0999 V2000
   -0.2309   63.4219   85.3574 C   0  0  0  0  0  0  0  0  0  0  0  0
   -1.3276   62.5604   85.2122 C   0  0  0  0  0  0  0  0  0  0  0  0
   -2.0661   62.5302   84.0260 C   0  0  0  0  0  0  0  0  0  0  0  0
   -1.7244   63.3566   82.9535 C   0  0  0  0  0  0  0  0  0  0  0  0
   -0.6314   64.2216   83.0955 C   0  0  0  0  0  0  0  0  0  0  0  0
    0.1253   64.2683   84.2842 C   0  0  0  0  0  0  0  0  0  0  0  0
    1.2758   65.2451   84.3125 C   0  0  0  0  0  0  0  0  0  0  0  0
    1.2115   66.3398   83.6006 N   0  0  0  0  0  0  0  0  0  0  0  0
    2.3335   67.1619   83.7125 C   0  0  0  0  0  0  0  0  0  0  0  0
    2.6081   68.3982   83.1058 C   0  0  0  0  0  0  0  0  0  0  0  0
    3.8138   68.8582   83.4916 N   0  0  0  0  0  0  0  0  0  0  0  0
    4.2765   67.9013   84.3347 N   0  0  0  0  0  0  0  0  0  0  0  0
    5.5686   68.0545   84.9585 C   0  0  0  0  0  0  0  0  0  0  0  0
    3.4103   66.8656   84.4914 C   0  0  0  0  0  0  0  0  0  0  0  0
    3.4918   65.6832   85.2655 C   0  0  0  0  0  0  0  0  0  0  0  0
    4.4292   65.3586   85.9846 O   0  0  0  0  0  0  0  0  0  0  0  0
    2.3621   64.9128   85.1161 N   0  0  0  0  0  0  0  0  0  0  0  0
    2.3464   64.0484   85.6416 H   0  0  0  0  0  0  0  0  0  0  0  0
    1.7601   69.1748   82.1616 C   0  0  0  0  0  0  0  0  0  0  0  0
    1.7327   68.5611   80.7703 C   0  0  0  0  0  0  0  0  0  0  0  0
    0.5245   63.4880   86.5018 O   0  0  0  0  0  0  0  0  0  0  0  0
    0.4069   62.8079   88.7806 C   0  0  0  0  0  0  0  0  0  0  0  0
   -0.1379   63.7670   87.7372 C   0  0  0  0  0  0  0  0  0  0  0  0
   -2.5349   63.3387   81.6760 C   0  0  0  0  0  0  0  0  0  0  0  0
   -2.5519   62.0005   81.0723 N   0  0  0  0  0  0  0  0  0  0  0  0
   -2.2066   62.0781   79.6271 C   0  0  0  0  0  0  0  0  0  0  0  0
   -3.3271   61.0411   79.3719 C   0  0  0  0  0  0  0  0  0  0  0  0
   -3.9342   61.6087   80.6768 C   0  0  0  0  0  0  0  0  0  0  0  0
   -2.9111   59.5506   79.3196 C   0  0  0  0  0  0  0  0  0  0  0  0
   -3.4452   58.6487   79.9759 O   0  0  0  0  0  0  0  0  0  0  0  0
   -1.8893   59.2543   78.4408 N   0  0  0  0  0  0  0  0  0  0  0  0
   -1.6574   57.8794   78.2067 O   0  0  0  0  0  0  0  0  0  0  0  0
   -1.6349   59.9053   77.6998 H   0  0  0  0  0  0  0  0  0  0  0  0
   -2.2829   57.4552   78.8352 H   0  0  0  0  0  0  0  0  0  0  0  0
 22 23  1  0  0  0
 23 21  1  0  0  0
 21  1  1  0  0  0
  1  2  1  0  0  0
  2  3  2  0  0  0
  3  4  1  0  0  0
  4 24  1  0  0  0
 24 25  1  0  0  0
 25 26  1  0  0  0
 26 27  1  0  0  0
 27 29  1  0  0  0
 29 30  2  0  0  0
 29 31  1  0  0  0
 31 32  1  0  0  0
 27 28  1  0  0  0
  4  5  2  0  0  0
  5  6  1  0  0  0
  6  7  1  0  0  0
  7  8  2  0  0  0
  8  9  1  0  0  0
  9 10  1  0  0  0
 10 19  1  0  0  0
 19 20  1  0  0  0
 10 11  2  0  0  0
 11 12  1  0  0  0
 12 13  1  0  0  0
 12 14  1  0  0  0
 14 15  1  0  0  0
 15 16  2  0  0  0
 15 17  1  0  0  0
  6  1  2  0  0  0
 17  7  1  0  0  0
 28 25  1  0  0  0
 14  9  2  0  0  0
 31 33  1  0  0  0
 32 34  1  0  0  0
 17 18  1  0  0  0
M  END
> <minimizedAffinity>
-10.06440

$$$$



 34 37  0  0  0  0  0  0  0  0999 V2000
   -0.1383   63.0843   85.3111 C   0  0  0  0  0  0  0  0  0  0  0  0
    0.5131   63.9863   86.1645 C   0  0  0  0  0  0  0  0  0  0  0  0
    1.2015   65.0901   85.6537 C   0  0  0  0  0  0  0  0  0  0  0  0
    1.2524   65.3231   84.2778 C   0  0  0  0  0  0  0  0  0  0  0  0
    0.6059   64.4224   83.4211 C   0  0  0  0  0  0  0  0  0  0  0  0
   -0.0924   63.3021   83.9163 C   0  0  0  0  0  0  0  0  0  0  0  0
   -0.7430   62.4063   82.8903 C   0  0  0  0  0  0  0  0  0  0  0  0
   -0.3469   62.4559   81.6453 N   0  0  0  0  0  0  0  0  0  0  0  0
   -1.0218   61.5794   80.7947 C   0  0  0  0  0  0  0  0  0  0  0  0
   -0.8621   61.3600   79.4169 C   0  0  0  0  0  0  0  0  0  0  0  0
   -1.7194   60.4151   78.9849 N   0  0  0  0  0  0  0  0  0  0  0  0
   -2.4038   60.0573   80.1002 N   0  0  0  0  0  0  0  0  0  0  0  0
   -3.4287   59.0446   80.0224 C   0  0  0  0  0  0  0  0  0  0  0  0
   -2.0091   60.7380   81.2086 C   0  0  0  0  0  0  0  0  0  0  0  0
   -2.4471   60.6761   82.5532 C   0  0  0  0  0  0  0  0  0  0  0  0
   -3.3274   59.9437   82.9890 O   0  0  0  0  0  0  0  0  0  0  0  0
   -1.7499   61.5597   83.3440 N   0  0  0  0  0  0  0  0  0  0  0  0
   -2.0073   61.5722   84.3223 H   0  0  0  0  0  0  0  0  0  0  0  0
    0.0861   62.0185   78.4783 C   0  0  0  0  0  0  0  0  0  0  0  0
   -0.1215   61.5724   77.0391 C   0  0  0  0  0  0  0  0  0  0  0  0
   -0.8265   61.9864   85.7646 O   0  0  0  0  0  0  0  0  0  0  0  0
   -2.7830   62.7511   86.8854 C   0  0  0  0  0  0  0  0  0  0  0  0
   -1.4434   62.0561   87.0520 C   0  0  0  0  0  0  0  0  0  0  0  0
    2.0136   66.5069   83.7226 C   0  0  0  0  0  0  0  0  0  0  0  0
    1.2527   67.1834   82.6648 N   0  0  0  0  0  0  0  0  0  0  0  0
    1.9125   66.9896   81.3453 C   0  0  0  0  0  0  0  0  0  0  0  0
    1.5995   68.4756   81.0452 C   0  0  0  0  0  0  0  0  0  0  0  0
    1.6137   68.6270   82.5849 C   0  0  0  0  0  0  0  0  0  0  0  0
    0.2943   68.7794   80.2696 C   0  0  0  0  0  0  0  0  0  0  0  0
   -0.1956   69.9066   80.1331 O   0  0  0  0  0  0  0  0  0  0  0  0
   -0.3096   67.6870   79.6813 N   0  0  0  0  0  0  0  0  0  0  0  0
   -1.3608   67.9750   78.7808 O   0  0  0  0  0  0  0  0  0  0  0  0
    0.2076   66.8215   79.5366 H   0  0  0  0  0  0  0  0  0  0  0  0
   -1.4461   68.9502   78.8690 H   0  0  0  0  0  0  0  0  0  0  0  0
 22 23  1  0  0  0
 23 21  1  0  0  0
 21  1  1  0  0  0
  1  2  1  0  0  0
  2  3  2  0  0  0
  3  4  1  0  0  0
  4 24  1  0  0  0
 24 25  1  0  0  0
 25 26  1  0  0  0
 26 27  1  0  0  0
 27 29  1  0  0  0
 29 30  2  0  0  0
 29 31  1  0  0  0
 31 32  1  0  0  0
 27 28  1  0  0  0
  4  5  2  0  0  0
  5  6  1  0  0  0
  6  7  1  0  0  0
  7  8  2  0  0  0
  8  9  1  0  0  0
  9 10  1  0  0  0
 10 19  1  0  0  0
 19 20  1  0  0  0
 10 11  2  0  0  0
 11 12  1  0  0  0
 12 13  1  0  0  0
 12 14  1  0  0  0
 14 15  1  0  0  0
 15 16  2  0  0  0
 15 17  1  0  0  0
  6  1  2  0  0  0
 17  7  1  0  0  0
 28 25  1  0  0  0
 14  9  2  0  0  0
 31 33  1  0  0  0
 32 34  1  0  0  0
 17 18  1  0  0  0
M  END
> <minimizedAffinity>
-10.02297

$$$$



 34 37  0  0  0  0  0  0  0  0999 V2000
    1.4878   66.7730   82.6454 C   0  0  0  0  0  0  0  0  0  0  0  0
    1.8810   67.4706   81.4943 C   0  0  0  0  0  0  0  0  0  0  0  0
    1.5956   66.9734   80.2196 C   0  0  0  0  0  0  0  0  0  0  0  0
    0.9061   65.7693   80.0631 C   0  0  0  0  0  0  0  0  0  0  0  0
    0.5143   65.0672   81.2106 C   0  0  0  0  0  0  0  0  0  0  0  0
    0.7939   65.5508   82.5051 C   0  0  0  0  0  0  0  0  0  0  0  0
    0.3218   64.6995   83.6588 C   0  0  0  0  0  0  0  0  0  0  0  0
   -0.6680   63.8638   83.4824 N   0  0  0  0  0  0  0  0  0  0  0  0
   -1.0096   63.1328   84.6210 C   0  0  0  0  0  0  0  0  0  0  0  0
   -2.0031   62.1567   84.7999 C   0  0  0  0  0  0  0  0  0  0  0  0
   -1.9920   61.6955   86.0653 N   0  0  0  0  0  0  0  0  0  0  0  0
   -0.9907   62.3911   86.6603 N   0  0  0  0  0  0  0  0  0  0  0  0
   -0.6782   62.1578   88.0494 C   0  0  0  0  0  0  0  0  0  0  0  0
   -0.3769   63.2651   85.8194 C   0  0  0  0  0  0  0  0  0  0  0  0
    0.6950   64.1670   86.0227 C   0  0  0  0  0  0  0  0  0  0  0  0
    1.3046   64.3335   87.0725 O   0  0  0  0  0  0  0  0  0  0  0  0
    0.9869   64.8594   84.8706 N   0  0  0  0  0  0  0  0  0  0  0  0
    1.7459   65.5250   84.9376 H   0  0  0  0  0  0  0  0  0  0  0  0
   -2.9770   61.6336   83.8041 C   0  0  0  0  0  0  0  0  0  0  0  0
   -2.3033   60.8255   82.7058 C   0  0  0  0  0  0  0  0  0  0  0  0
    1.7449   67.2200   83.9177 O   0  0  0  0  0  0  0  0  0  0  0  0
    4.0214   66.6883   84.3693 C   0  0  0  0  0  0  0  0  0  0  0  0
    3.0179   67.8126   84.1846 C   0  0  0  0  0  0  0  0  0  0  0  0
    0.6136   65.2205   78.6838 C   0  0  0  0  0  0  0  0  0  0  0  0
    0.0814   63.8540   78.7538 N   0  0  0  0  0  0  0  0  0  0  0  0
    1.0833   62.8795   78.2434 C   0  0  0  0  0  0  0  0  0  0  0  0
   -0.0836   62.1552   77.5292 C   0  0  0  0  0  0  0  0  0  0  0  0
   -0.7611   63.5457   77.5640 C   0  0  0  0  0  0  0  0  0  0  0  0
   -0.7465   60.9744   78.2799 C   0  0  0  0  0  0  0  0  0  0  0  0
   -1.3154   61.0681   79.3740 O   0  0  0  0  0  0  0  0  0  0  0  0
   -0.7002   59.7600   77.6263 N   0  0  0  0  0  0  0  0  0  0  0  0
   -1.4976   58.7318   78.1796 O   0  0  0  0  0  0  0  0  0  0  0  0
   -0.5014   59.7132   76.6284 H   0  0  0  0  0  0  0  0  0  0  0  0
   -1.8488   59.1585   78.9925 H   0  0  0  0  0  0  0  0  0  0  0  0
 22 23  1  0  0  0
 23 21  1  0  0  0
 21  1  1  0  0  0
  1  2  1  0  0  0
  2  3  2  0  0  0
  3  4  1  0  0  0
  4 24  1  0  0  0
 24 25  1  0  0  0
 25 26  1  0  0  0
 26 27  1  0  0  0
 27 29  1  0  0  0
 29 30  2  0  0  0
 29 31  1  0  0  0
 31 32  1  0  0  0
 27 28  1  0  0  0
  4  5  2  0  0  0
  5  6  1  0  0  0
  6  7  1  0  0  0
  7  8  2  0  0  0
  8  9  1  0  0  0
  9 10  1  0  0  0
 10 19  1  0  0  0
 19 20  1  0  0  0
 10 11  2  0  0  0
 11 12  1  0  0  0
 12 13  1  0  0  0
 12 14  1  0  0  0
 14 15  1  0  0  0
 15 16  2  0  0  0
 15 17  1  0  0  0
  6  1  2  0  0  0
 17  7  1  0  0  0
 28 25  1  0  0  0
 14  9  2  0  0  0
 31 33  1  0  0  0
 32 34  1  0  0  0
 17 18  1  0  0  0
M  END
> <minimizedAffinity>
-10.00504

$$$$



 34 37  0  0  0  0  0  0  0  0999 V2000
    1.0709   67.7481   81.6644 C   0  0  0  0  0  0  0  0  0  0  0  0
    1.8799   68.8844   81.5215 C   0  0  0  0  0  0  0  0  0  0  0  0
    3.0217   69.0577   82.3087 C   0  0  0  0  0  0  0  0  0  0  0  0
    3.3865   68.0977   83.2549 C   0  0  0  0  0  0  0  0  0  0  0  0
    2.5790   66.9623   83.4035 C   0  0  0  0  0  0  0  0  0  0  0  0
    1.4225   66.7696   82.6205 C   0  0  0  0  0  0  0  0  0  0  0  0
    0.6364   65.5073   82.8793 C   0  0  0  0  0  0  0  0  0  0  0  0
    0.4938   65.0748   84.1048 N   0  0  0  0  0  0  0  0  0  0  0  0
   -0.2544   63.9020   84.2144 C   0  0  0  0  0  0  0  0  0  0  0  0
   -0.6099   63.1639   85.3549 C   0  0  0  0  0  0  0  0  0  0  0  0
   -1.3482   62.0903   85.0136 N   0  0  0  0  0  0  0  0  0  0  0  0
   -1.4435   62.1725   83.6628 N   0  0  0  0  0  0  0  0  0  0  0  0
   -2.1798   61.1708   82.9304 C   0  0  0  0  0  0  0  0  0  0  0  0
   -0.7970   63.2517   83.1482 C   0  0  0  0  0  0  0  0  0  0  0  0
   -0.6485   63.7096   81.8170 C   0  0  0  0  0  0  0  0  0  0  0  0
   -1.1100   63.1727   80.8169 O   0  0  0  0  0  0  0  0  0  0  0  0
    0.0966   64.8649   81.7692 N   0  0  0  0  0  0  0  0  0  0  0  0
    0.2454   65.2546   80.8475 H   0  0  0  0  0  0  0  0  0  0  0  0
   -0.2745   63.4399   86.7779 C   0  0  0  0  0  0  0  0  0  0  0  0
   -1.4573   63.2092   87.7059 C   0  0  0  0  0  0  0  0  0  0  0  0
   -0.0594   67.5332   80.9155 O   0  0  0  0  0  0  0  0  0  0  0  0
   -1.4490   67.9321   79.0237 C   0  0  0  0  0  0  0  0  0  0  0  0
   -0.4787   68.5568   80.0104 C   0  0  0  0  0  0  0  0  0  0  0  0
    4.6116   68.2935   84.1209 C   0  0  0  0  0  0  0  0  0  0  0  0
    4.6365   67.3384   85.2357 N   0  0  0  0  0  0  0  0  0  0  0  0
    5.2883   67.9470   86.4268 C   0  0  0  0  0  0  0  0  0  0  0  0
    5.9993   66.5900   86.6483 C   0  0  0  0  0  0  0  0  0  0  0  0
    5.8008   66.4150   85.1240 C   0  0  0  0  0  0  0  0  0  0  0  0
    5.3234   65.5886   87.6166 C   0  0  0  0  0  0  0  0  0  0  0  0
    5.7093   65.3554   88.7682 O   0  0  0  0  0  0  0  0  0  0  0  0
    4.1969   64.9616   87.1245 N   0  0  0  0  0  0  0  0  0  0  0  0
    3.4380   64.2300   88.0667 O   0  0  0  0  0  0  0  0  0  0  0  0
    3.7045   65.3359   86.3152 H   0  0  0  0  0  0  0  0  0  0  0  0
    3.9910   64.3008   88.8762 H   0  0  0  0  0  0  0  0  0  0  0  0
 22 23  1  0  0  0
 23 21  1  0  0  0
 21  1  1  0  0  0
  1  2  1  0  0  0
  2  3  2  0  0  0
  3  4  1  0  0  0
  4 24  1  0  0  0
 24 25  1  0  0  0
 25 26  1  0  0  0
 26 27  1  0  0  0
 27 29  1  0  0  0
 29 30  2  0  0  0
 29 31  1  0  0  0
 31 32  1  0  0  0
 27 28  1  0  0  0
  4  5  2  0  0  0
  5  6  1  0  0  0
  6  7  1  0  0  0
  7  8  2  0  0  0
  8  9  1  0  0  0
  9 10  1  0  0  0
 10 19  1  0  0  0
 19 20  1  0  0  0
 10 11  2  0  0  0
 11 12  1  0  0  0
 12 13  1  0  0  0
 12 14  1  0  0  0
 14 15  1  0  0  0
 15 16  2  0  0  0
 15 17  1  0  0  0
  6  1  2  0  0  0
 17  7  1  0  0  0
 28 25  1  0  0  0
 14  9  2  0  0  0
 31 33  1  0  0  0
 32 34  1  0  0  0
 17 18  1  0  0  0
M  END
> <minimizedAffinity>
-9.95734

$$$$



 34 37  0  0  0  0  0  0  0  0999 V2000
   -0.2130   63.0538   85.5297 C   0  0  0  0  0  0  0  0  0  0  0  0
    0.3715   63.9027   86.4805 C   0  0  0  0  0  0  0  0  0  0  0  0
    1.0121   65.0830   86.0933 C   0  0  0  0  0  0  0  0  0  0  0  0
    1.0805   65.4472   84.7470 C   0  0  0  0  0  0  0  0  0  0  0  0
    0.5009   64.6001   83.7932 C   0  0  0  0  0  0  0  0  0  0  0  0
   -0.1483   63.4045   84.1630 C   0  0  0  0  0  0  0  0  0  0  0  0
   -0.7286   62.5781   83.0410 C   0  0  0  0  0  0  0  0  0  0  0  0
   -0.1812   62.6244   81.8547 N   0  0  0  0  0  0  0  0  0  0  0  0
   -0.8056   61.8155   80.9043 C   0  0  0  0  0  0  0  0  0  0  0  0
   -0.4945   61.6131   79.5500 C   0  0  0  0  0  0  0  0  0  0  0  0
   -1.3552   60.7405   78.9913 N   0  0  0  0  0  0  0  0  0  0  0  0
   -2.1934   60.4100   80.0055 N   0  0  0  0  0  0  0  0  0  0  0  0
   -3.2679   59.4747   79.7761 C   0  0  0  0  0  0  0  0  0  0  0  0
   -1.8911   61.0384   81.1723 C   0  0  0  0  0  0  0  0  0  0  0  0
   -2.4930   60.9809   82.4522 C   0  0  0  0  0  0  0  0  0  0  0  0
   -3.4679   60.3045   82.7579 O   0  0  0  0  0  0  0  0  0  0  0  0
   -1.8387   61.7964   83.3460 N   0  0  0  0  0  0  0  0  0  0  0  0
   -2.2121   61.8076   84.2862 H   0  0  0  0  0  0  0  0  0  0  0  0
    0.6038   62.2211   78.7514 C   0  0  0  0  0  0  0  0  0  0  0  0
    0.0816   63.0827   77.6121 C   0  0  0  0  0  0  0  0  0  0  0  0
   -0.8524   61.8849   85.8604 O   0  0  0  0  0  0  0  0  0  0  0  0
   -2.7710   62.6512   87.0439 C   0  0  0  0  0  0  0  0  0  0  0  0
   -1.5121   61.8066   87.1260 C   0  0  0  0  0  0  0  0  0  0  0  0
    1.7905   66.7148   84.3250 C   0  0  0  0  0  0  0  0  0  0  0  0
    3.2347   66.6270   84.5743 N   0  0  0  0  0  0  0  0  0  0  0  0
    3.7206   67.8587   85.2531 C   0  0  0  0  0  0  0  0  0  0  0  0
    4.9581   67.8021   84.3249 C   0  0  0  0  0  0  0  0  0  0  0  0
    4.0119   67.0358   83.3703 C   0  0  0  0  0  0  0  0  0  0  0  0
    6.2183   67.0877   84.8714 C   0  0  0  0  0  0  0  0  0  0  0  0
    6.3137   66.5994   86.0036 O   0  0  0  0  0  0  0  0  0  0  0  0
    7.2702   66.9867   83.9840 N   0  0  0  0  0  0  0  0  0  0  0  0
    8.3307   66.1395   84.3795 O   0  0  0  0  0  0  0  0  0  0  0  0
    7.1224   67.1173   82.9846 H   0  0  0  0  0  0  0  0  0  0  0  0
    8.0584   65.8788   85.2873 H   0  0  0  0  0  0  0  0  0  0  0  0
 22 23  1  0  0  0
 23 21  1  0  0  0
 21  1  1  0  0  0
  1  2  1  0  0  0
  2  3  2  0  0  0
  3  4  1  0  0  0
  4 24  1  0  0  0
 24 25  1  0  0  0
 25 26  1  0  0  0
 26 27  1  0  0  0
 27 29  1  0  0  0
 29 30  2  0  0  0
 29 31  1  0  0  0
 31 32  1  0  0  0
 27 28  1  0  0  0
  4  5  2  0  0  0
  5  6  1  0  0  0
  6  7  1  0  0  0
  7  8  2  0  0  0
  8  9  1  0  0  0
  9 10  1  0  0  0
 10 19  1  0  0  0
 19 20  1  0  0  0
 10 11  2  0  0  0
 11 12  1  0  0  0
 12 13  1  0  0  0
 12 14  1  0  0  0
 14 15  1  0  0  0
 15 16  2  0  0  0
 15 17  1  0  0  0
  6  1  2  0  0  0
 17  7  1  0  0  0
 28 25  1  0  0  0
 14  9  2  0  0  0
 31 33  1  0  0  0
 32 34  1  0  0  0
 17 18  1  0  0  0
M  END
> <minimizedAffinity>
-9.92137

$$$$



 34 37  0  0  0  0  0  0  0  0999 V2000
   -0.4651   63.2658   85.3621 C   0  0  0  0  0  0  0  0  0  0  0  0
   -1.5676   62.4033   85.2803 C   0  0  0  0  0  0  0  0  0  0  0  0
   -2.3519   62.3464   84.1248 C   0  0  0  0  0  0  0  0  0  0  0  0
   -2.0514   63.1464   83.0204 C   0  0  0  0  0  0  0  0  0  0  0  0
   -0.9528   64.0124   83.0991 C   0  0  0  0  0  0  0  0  0  0  0  0
   -0.1502   64.0858   84.2559 C   0  0  0  0  0  0  0  0  0  0  0  0
    1.0016   65.0607   84.2160 C   0  0  0  0  0  0  0  0  0  0  0  0
    2.0527   64.8498   84.9643 N   0  0  0  0  0  0  0  0  0  0  0  0
    3.0493   65.8183   84.8370 C   0  0  0  0  0  0  0  0  0  0  0  0
    4.2980   65.9141   85.4722 C   0  0  0  0  0  0  0  0  0  0  0  0
    4.9581   67.0123   85.0566 N   0  0  0  0  0  0  0  0  0  0  0  0
    4.1112   67.5881   84.1668 N   0  0  0  0  0  0  0  0  0  0  0  0
    4.4889   68.8110   83.5006 C   0  0  0  0  0  0  0  0  0  0  0  0
    2.9525   66.8953   84.0095 C   0  0  0  0  0  0  0  0  0  0  0  0
    1.8193   67.1347   83.1957 C   0  0  0  0  0  0  0  0  0  0  0  0
    1.6702   68.0813   82.4322 O   0  0  0  0  0  0  0  0  0  0  0  0
    0.8714   66.1519   83.3624 N   0  0  0  0  0  0  0  0  0  0  0  0
    0.0296   66.2543   82.8105 H   0  0  0  0  0  0  0  0  0  0  0  0
    4.9017   64.9919   86.4715 C   0  0  0  0  0  0  0  0  0  0  0  0
    5.5613   65.7371   87.6216 C   0  0  0  0  0  0  0  0  0  0  0  0
    0.3345   63.3575   86.4742 O   0  0  0  0  0  0  0  0  0  0  0  0
   -0.1678   62.9828   88.7712 C   0  0  0  0  0  0  0  0  0  0  0  0
   -0.1940   63.9945   87.6395 C   0  0  0  0  0  0  0  0  0  0  0  0
   -2.9112   63.0998   81.7763 C   0  0  0  0  0  0  0  0  0  0  0  0
   -2.8187   61.7942   81.1111 N   0  0  0  0  0  0  0  0  0  0  0  0
   -2.0323   61.9068   79.8530 C   0  0  0  0  0  0  0  0  0  0  0  0
   -3.0766   60.9725   79.1951 C   0  0  0  0  0  0  0  0  0  0  0  0
   -4.0276   61.5292   80.2811 C   0  0  0  0  0  0  0  0  0  0  0  0
   -2.7567   59.4577   79.1774 C   0  0  0  0  0  0  0  0  0  0  0  0
   -3.3537   58.6057   79.8460 O   0  0  0  0  0  0  0  0  0  0  0  0
   -1.7478   59.0783   78.3158 N   0  0  0  0  0  0  0  0  0  0  0  0
   -1.6026   57.6868   78.1120 O   0  0  0  0  0  0  0  0  0  0  0  0
   -1.4451   59.6961   77.5646 H   0  0  0  0  0  0  0  0  0  0  0  0
   -2.2599   57.3167   78.7421 H   0  0  0  0  0  0  0  0  0  0  0  0
 22 23  1  0  0  0
 23 21  1  0  0  0
 21  1  1  0  0  0
  1  2  1  0  0  0
  2  3  2  0  0  0
  3  4  1  0  0  0
  4 24  1  0  0  0
 24 25  1  0  0  0
 25 26  1  0  0  0
 26 27  1  0  0  0
 27 29  1  0  0  0
 29 30  2  0  0  0
 29 31  1  0  0  0
 31 32  1  0  0  0
 27 28  1  0  0  0
  4  5  2  0  0  0
  5  6  1  0  0  0
  6  7  1  0  0  0
  7  8  2  0  0  0
  8  9  1  0  0  0
  9 10  1  0  0  0
 10 19  1  0  0  0
 19 20  1  0  0  0
 10 11  2  0  0  0
 11 12  1  0  0  0
 12 13  1  0  0  0
 12 14  1  0  0  0
 14 15  1  0  0  0
 15 16  2  0  0  0
 15 17  1  0  0  0
  6  1  2  0  0  0
 17  7  1  0  0  0
 28 25  1  0  0  0
 14  9  2  0  0  0
 31 33  1  0  0  0
 32 34  1  0  0  0
 17 18  1  0  0  0
M  END
> <minimizedAffinity>
-9.91396

$$$$



 34 37  0  0  0  0  0  0  0  0999 V2000
    0.9753   65.9840   81.2058 C   0  0  0  0  0  0  0  0  0  0  0  0
    1.8297   67.0953   81.2396 C   0  0  0  0  0  0  0  0  0  0  0  0
    2.5447   67.4176   82.3965 C   0  0  0  0  0  0  0  0  0  0  0  0
    2.4276   66.6348   83.5469 C   0  0  0  0  0  0  0  0  0  0  0  0
    1.5723   65.5254   83.5187 C   0  0  0  0  0  0  0  0  0  0  0  0
    0.8412   65.1844   82.3624 C   0  0  0  0  0  0  0  0  0  0  0  0
   -0.0478   63.9686   82.4617 C   0  0  0  0  0  0  0  0  0  0  0  0
   -0.7545   63.7715   83.5438 N   0  0  0  0  0  0  0  0  0  0  0  0
   -1.5370   62.6165   83.5139 C   0  0  0  0  0  0  0  0  0  0  0  0
   -2.4121   62.0964   84.4812 C   0  0  0  0  0  0  0  0  0  0  0  0
   -2.9759   60.9536   84.0447 N   0  0  0  0  0  0  0  0  0  0  0  0
   -2.4442   60.7753   82.8094 N   0  0  0  0  0  0  0  0  0  0  0  0
   -2.8251   59.6292   82.0199 C   0  0  0  0  0  0  0  0  0  0  0  0
   -1.5742   61.7584   82.4573 C   0  0  0  0  0  0  0  0  0  0  0  0
   -0.8129   61.9606   81.2811 C   0  0  0  0  0  0  0  0  0  0  0  0
   -0.8013   61.2290   80.2983 O   0  0  0  0  0  0  0  0  0  0  0  0
   -0.0621   63.1100   81.3667 N   0  0  0  0  0  0  0  0  0  0  0  0
    0.5101   63.3229   80.5599 H   0  0  0  0  0  0  0  0  0  0  0  0
   -2.7424   62.6478   85.8229 C   0  0  0  0  0  0  0  0  0  0  0  0
   -1.6256   62.4243   86.8309 C   0  0  0  0  0  0  0  0  0  0  0  0
    0.2524   65.6273   80.0945 O   0  0  0  0  0  0  0  0  0  0  0  0
    0.2152   64.4853   78.0056 C   0  0  0  0  0  0  0  0  0  0  0  0
    0.9364   65.5259   78.8436 C   0  0  0  0  0  0  0  0  0  0  0  0
    3.1863   66.9939   84.8058 C   0  0  0  0  0  0  0  0  0  0  0  0
    4.6298   66.7855   84.6378 N   0  0  0  0  0  0  0  0  0  0  0  0
    5.2766   66.5434   85.9558 C   0  0  0  0  0  0  0  0  0  0  0  0
    6.4341   67.4547   85.4804 C   0  0  0  0  0  0  0  0  0  0  0  0
    5.3544   68.0859   84.5696 C   0  0  0  0  0  0  0  0  0  0  0  0
    7.6571   66.7618   84.8315 C   0  0  0  0  0  0  0  0  0  0  0  0
    8.8124   67.2022   84.8622 O   0  0  0  0  0  0  0  0  0  0  0  0
    7.3931   65.5557   84.2152 N   0  0  0  0  0  0  0  0  0  0  0  0
    8.5243   64.8015   83.8273 O   0  0  0  0  0  0  0  0  0  0  0  0
    6.5358   65.0442   84.4180 H   0  0  0  0  0  0  0  0  0  0  0  0
    9.2634   65.4112   84.0466 H   0  0  0  0  0  0  0  0  0  0  0  0
 22 23  1  0  0  0
 23 21  1  0  0  0
 21  1  1  0  0  0
  1  2  1  0  0  0
  2  3  2  0  0  0
  3  4  1  0  0  0
  4 24  1  0  0  0
 24 25  1  0  0  0
 25 26  1  0  0  0
 26 27  1  0  0  0
 27 29  1  0  0  0
 29 30  2  0  0  0
 29 31  1  0  0  0
 31 32  1  0  0  0
 27 28  1  0  0  0
  4  5  2  0  0  0
  5  6  1  0  0  0
  6  7  1  0  0  0
  7  8  2  0  0  0
  8  9  1  0  0  0
  9 10  1  0  0  0
 10 19  1  0  0  0
 19 20  1  0  0  0
 10 11  2  0  0  0
 11 12  1  0  0  0
 12 13  1  0  0  0
 12 14  1  0  0  0
 14 15  1  0  0  0
 15 16  2  0  0  0
 15 17  1  0  0  0
  6  1  2  0  0  0
 17  7  1  0  0  0
 28 25  1  0  0  0
 14  9  2  0  0  0
 31 33  1  0  0  0
 32 34  1  0  0  0
 17 18  1  0  0  0
M  END
> <minimizedAffinity>
-9.91179

$$$$



 34 37  0  0  0  0  0  0  0  0999 V2000
    1.1688   66.7224   80.7755 C   0  0  0  0  0  0  0  0  0  0  0  0
    1.9845   67.8387   80.5417 C   0  0  0  0  0  0  0  0  0  0  0  0
    2.7148   68.4254   81.5788 C   0  0  0  0  0  0  0  0  0  0  0  0
    2.6523   67.9086   82.8746 C   0  0  0  0  0  0  0  0  0  0  0  0
    1.8357   66.7954   83.1135 C   0  0  0  0  0  0  0  0  0  0  0  0
    1.0899   66.1900   82.0814 C   0  0  0  0  0  0  0  0  0  0  0  0
    0.2465   64.9996   82.4689 C   0  0  0  0  0  0  0  0  0  0  0  0
    0.1409   64.6651   83.7283 N   0  0  0  0  0  0  0  0  0  0  0  0
   -0.6671   63.5509   83.9587 C   0  0  0  0  0  0  0  0  0  0  0  0
   -1.0067   62.9190   85.1659 C   0  0  0  0  0  0  0  0  0  0  0  0
   -1.8217   61.8709   84.9393 N   0  0  0  0  0  0  0  0  0  0  0  0
   -1.9797   61.8623   83.5919 N   0  0  0  0  0  0  0  0  0  0  0  0
   -2.8082   60.8577   82.9703 C   0  0  0  0  0  0  0  0  0  0  0  0
   -1.2989   62.8607   82.9696 C   0  0  0  0  0  0  0  0  0  0  0  0
   -1.1913   63.2126   81.6027 C   0  0  0  0  0  0  0  0  0  0  0  0
   -1.7324   62.6350   80.6674 O   0  0  0  0  0  0  0  0  0  0  0  0
   -0.3843   64.3139   81.4353 N   0  0  0  0  0  0  0  0  0  0  0  0
   -0.2597   64.6272   80.4814 H   0  0  0  0  0  0  0  0  0  0  0  0
   -0.5851   63.2748   86.5477 C   0  0  0  0  0  0  0  0  0  0  0  0
   -1.7491   63.2700   87.5266 C   0  0  0  0  0  0  0  0  0  0  0  0
    0.4329   66.1118   79.7905 O   0  0  0  0  0  0  0  0  0  0  0  0
    0.1415   64.7490   77.8600 C   0  0  0  0  0  0  0  0  0  0  0  0
    1.1213   65.6012   78.6467 C   0  0  0  0  0  0  0  0  0  0  0  0
    3.4273   68.5548   84.0019 C   0  0  0  0  0  0  0  0  0  0  0  0
    3.8711   67.5589   84.9852 N   0  0  0  0  0  0  0  0  0  0  0  0
    4.7508   68.1917   86.0048 C   0  0  0  0  0  0  0  0  0  0  0  0
    5.6491   66.9344   85.9133 C   0  0  0  0  0  0  0  0  0  0  0  0
    5.0589   66.8083   84.4888 C   0  0  0  0  0  0  0  0  0  0  0  0
    5.3893   65.8048   86.9399 C   0  0  0  0  0  0  0  0  0  0  0  0
    6.1608   65.4971   87.8562 O   0  0  0  0  0  0  0  0  0  0  0  0
    4.1847   65.1465   86.7997 N   0  0  0  0  0  0  0  0  0  0  0  0
    3.8285   64.2814   87.8597 O   0  0  0  0  0  0  0  0  0  0  0  0
    3.4280   65.5561   86.2546 H   0  0  0  0  0  0  0  0  0  0  0  0
    4.6264   64.3182   88.4325 H   0  0  0  0  0  0  0  0  0  0  0  0
 22 23  1  0  0  0
 23 21  1  0  0  0
 21  1  1  0  0  0
  1  2  1  0  0  0
  2  3  2  0  0  0
  3  4  1  0  0  0
  4 24  1  0  0  0
 24 25  1  0  0  0
 25 26  1  0  0  0
 26 27  1  0  0  0
 27 29  1  0  0  0
 29 30  2  0  0  0
 29 31  1  0  0  0
 31 32  1  0  0  0
 27 28  1  0  0  0
  4  5  2  0  0  0
  5  6  1  0  0  0
  6  7  1  0  0  0
  7  8  2  0  0  0
  8  9  1  0  0  0
  9 10  1  0  0  0
 10 19  1  0  0  0
 19 20  1  0  0  0
 10 11  2  0  0  0
 11 12  1  0  0  0
 12 13  1  0  0  0
 12 14  1  0  0  0
 14 15  1  0  0  0
 15 16  2  0  0  0
 15 17  1  0  0  0
  6  1  2  0  0  0
 17  7  1  0  0  0
 28 25  1  0  0  0
 14  9  2  0  0  0
 31 33  1  0  0  0
 32 34  1  0  0  0
 17 18  1  0  0  0
M  END
> <minimizedAffinity>
-9.85908

$$$$



 34 37  0  0  0  0  0  0  0  0999 V2000
    3.2692   66.4827   84.6400 C   0  0  0  0  0  0  0  0  0  0  0  0
    4.0166   67.4999   84.0294 C   0  0  0  0  0  0  0  0  0  0  0  0
    3.4706   68.2766   83.0037 C   0  0  0  0  0  0  0  0  0  0  0  0
    2.1625   68.0597   82.5658 C   0  0  0  0  0  0  0  0  0  0  0  0
    1.4132   67.0420   83.1708 C   0  0  0  0  0  0  0  0  0  0  0  0
    1.9461   66.2465   84.2056 C   0  0  0  0  0  0  0  0  0  0  0  0
    1.0387   65.1813   84.7718 C   0  0  0  0  0  0  0  0  0  0  0  0
    0.3335   64.4359   83.9618 N   0  0  0  0  0  0  0  0  0  0  0  0
   -0.4629   63.4872   84.6045 C   0  0  0  0  0  0  0  0  0  0  0  0
   -1.3344   62.5280   84.0638 C   0  0  0  0  0  0  0  0  0  0  0  0
   -1.9087   61.8037   85.0435 N   0  0  0  0  0  0  0  0  0  0  0  0
   -1.3877   62.3215   86.1840 N   0  0  0  0  0  0  0  0  0  0  0  0
   -1.7794   61.7830   87.4641 C   0  0  0  0  0  0  0  0  0  0  0  0
   -0.5127   63.3365   85.9568 C   0  0  0  0  0  0  0  0  0  0  0  0
    0.2452   64.1381   86.8438 C   0  0  0  0  0  0  0  0  0  0  0  0
    0.2457   64.0537   88.0662 O   0  0  0  0  0  0  0  0  0  0  0  0
    1.0083   65.0537   86.1572 N   0  0  0  0  0  0  0  0  0  0  0  0
    1.5805   65.6642   86.7258 H   0  0  0  0  0  0  0  0  0  0  0  0
   -1.6488   62.2644   82.6337 C   0  0  0  0  0  0  0  0  0  0  0  0
   -2.5488   63.3333   82.0330 C   0  0  0  0  0  0  0  0  0  0  0  0
    3.7611   65.6938   85.6501 O   0  0  0  0  0  0  0  0  0  0  0  0
    5.5182   65.3503   87.2196 C   0  0  0  0  0  0  0  0  0  0  0  0
    5.1767   65.5238   85.7505 C   0  0  0  0  0  0  0  0  0  0  0  0
    1.5770   68.8870   81.4424 C   0  0  0  0  0  0  0  0  0  0  0  0
    1.4181   70.2915   81.8396 N   0  0  0  0  0  0  0  0  0  0  0  0
    0.0716   70.7918   81.4515 C   0  0  0  0  0  0  0  0  0  0  0  0
    0.7604   72.1060   81.0101 C   0  0  0  0  0  0  0  0  0  0  0  0
    2.0045   71.2062   80.8197 C   0  0  0  0  0  0  0  0  0  0  0  0
    0.8134   73.2571   82.0441 C   0  0  0  0  0  0  0  0  0  0  0  0
    1.7421   73.4455   82.8388 O   0  0  0  0  0  0  0  0  0  0  0  0
   -0.2593   74.1247   82.0158 N   0  0  0  0  0  0  0  0  0  0  0  0
   -0.1178   75.3044   82.7822 O   0  0  0  0  0  0  0  0  0  0  0  0
   -0.8768   74.1628   81.2066 H   0  0  0  0  0  0  0  0  0  0  0  0
    0.7441   75.1563   83.2309 H   0  0  0  0  0  0  0  0  0  0  0  0
 22 23  1  0  0  0
 23 21  1  0  0  0
 21  1  1  0  0  0
  1  2  1  0  0  0
  2  3  2  0  0  0
  3  4  1  0  0  0
  4 24  1  0  0  0
 24 25  1  0  0  0
 25 26  1  0  0  0
 26 27  1  0  0  0
 27 29  1  0  0  0
 29 30  2  0  0  0
 29 31  1  0  0  0
 31 32  1  0  0  0
 27 28  1  0  0  0
  4  5  2  0  0  0
  5  6  1  0  0  0
  6  7  1  0  0  0
  7  8  2  0  0  0
  8  9  1  0  0  0
  9 10  1  0  0  0
 10 19  1  0  0  0
 19 20  1  0  0  0
 10 11  2  0  0  0
 11 12  1  0  0  0
 12 13  1  0  0  0
 12 14  1  0  0  0
 14 15  1  0  0  0
 15 16  2  0  0  0
 15 17  1  0  0  0
  6  1  2  0  0  0
 17  7  1  0  0  0
 28 25  1  0  0  0
 14  9  2  0  0  0
 31 33  1  0  0  0
 32 34  1  0  0  0
 17 18  1  0  0  0
M  END
> <minimizedAffinity>
-9.83288

$$$$
