
     RDKit          3D

 48 52  0  0  0  0  0  0  0  0999 V2000
    7.6146   -1.4550    0.1291 C   0  0  0  0  0  0  0  0  0  0  0  0
    6.3535   -1.7195    0.7304 O   0  0  0  0  0  0  0  0  0  0  0  0
    5.2745   -1.0338    0.2364 C   0  0  0  0  0  0  0  0  0  0  0  0
    5.3071   -0.1008   -0.7996 C   0  0  0  0  0  0  0  0  0  0  0  0
    4.1351    0.5445   -1.2243 C   0  0  0  0  0  0  0  0  0  0  0  0
    2.9105    0.2418   -0.6013 C   0  0  0  0  0  0  0  0  0  0  0  0
    1.5744    0.6896   -0.7573 C   0  0  0  0  0  0  0  0  0  0  0  0
    0.7811    0.0020    0.1391 C   0  0  0  0  0  0  0  0  0  0  0  0
    1.6048   -0.7955    0.8897 N   0  0  0  0  0  0  0  0  0  0  0  0
    2.9020   -0.6917    0.4361 C   0  0  0  0  0  0  0  0  0  0  0  0
    4.0642   -1.3402    0.8716 C   0  0  0  0  0  0  0  0  0  0  0  0
   -0.6967    0.1521    0.3470 C   0  0  0  0  0  0  0  0  0  0  0  0
   -1.1892    1.2784   -0.4437 N   0  0  0  0  0  0  0  0  0  0  0  0
   -0.2585    2.3075   -0.9361 C   0  0  0  0  0  0  0  0  0  0  0  0
    0.9772    1.7211   -1.6410 C   0  0  0  0  0  0  0  0  0  0  0  0
   -2.5337    1.6153   -0.3113 C   0  0  0  0  0  0  0  0  0  0  0  0
   -2.9722    2.7066   -0.6636 O   0  0  0  0  0  0  0  0  0  0  0  0
   -3.4259    0.5515    0.2386 C   0  0  0  0  0  0  0  0  0  0  0  0
   -4.7583    0.8051    0.6042 C   0  0  0  0  0  0  0  0  0  0  0  0
   -5.2896    2.0678    0.6146 O   0  0  0  0  0  0  0  0  0  0  0  0
   -6.0194    2.3102   -0.5896 C   0  0  0  0  0  0  0  0  0  0  0  0
   -5.5694   -0.2298    1.0707 C   0  0  0  0  0  0  0  0  0  0  0  0
   -5.0696   -1.5249    1.1327 C   0  0  0  0  0  0  0  0  0  0  0  0
   -3.7476   -1.7843    0.7594 C   0  0  0  0  0  0  0  0  0  0  0  0
   -2.8918   -0.7562    0.3271 C   0  0  0  0  0  0  0  0  0  0  0  0
   -1.5478   -0.9787   -0.0258 N   0  0  0  0  0  0  0  0  0  0  0  0
   -1.0130   -2.3282   -0.0507 C   0  0  0  0  0  0  0  0  0  0  0  0
    7.6122   -1.7299   -0.9308 H   0  0  0  0  0  0  0  0  0  0  0  0
    8.3614   -2.0769    0.6320 H   0  0  0  0  0  0  0  0  0  0  0  0
    7.9061   -0.4085    0.2669 H   0  0  0  0  0  0  0  0  0  0  0  0
    6.2312    0.1563   -1.3065 H   0  0  0  0  0  0  0  0  0  0  0  0
    4.1762    1.2699   -2.0315 H   0  0  0  0  0  0  0  0  0  0  0  0
    1.3134   -1.3902    1.6532 H   0  0  0  0  0  0  0  0  0  0  0  0
    4.0384   -2.0620    1.6817 H   0  0  0  0  0  0  0  0  0  0  0  0
   -0.8460    0.4015    1.4090 H   0  0  0  0  0  0  0  0  0  0  0  0
   -0.7783    2.9805   -1.6270 H   0  0  0  0  0  0  0  0  0  0  0  0
    0.0417    2.9058   -0.0658 H   0  0  0  0  0  0  0  0  0  0  0  0
    0.6811    1.2557   -2.5885 H   0  0  0  0  0  0  0  0  0  0  0  0
    1.6935    2.5190   -1.8623 H   0  0  0  0  0  0  0  0  0  0  0  0
   -6.2344    3.3816   -0.6413 H   0  0  0  0  0  0  0  0  0  0  0  0
   -5.4495    2.0330   -1.4835 H   0  0  0  0  0  0  0  0  0  0  0  0
   -6.9734    1.7726   -0.5719 H   0  0  0  0  0  0  0  0  0  0  0  0
   -6.5887   -0.0232    1.3858 H   0  0  0  0  0  0  0  0  0  0  0  0
   -5.7037   -2.3353    1.4838 H   0  0  0  0  0  0  0  0  0  0  0  0
   -3.4003   -2.8098    0.8413 H   0  0  0  0  0  0  0  0  0  0  0  0
   -0.0762   -2.3757   -0.6147 H   0  0  0  0  0  0  0  0  0  0  0  0
   -1.6881   -3.0173   -0.5709 H   0  0  0  0  0  0  0  0  0  0  0  0
   -0.8330   -2.7020    0.9629 H   0  0  0  0  0  0  0  0  0  0  0  0
  1  2  1  0
  2  3  1  0
  3  4  2  0
  4  5  1  0
  5  6  2  0
  6  7  1  0
  7  8  2  0
  8  9  1  0
  9 10  1  0
 10 11  2  0
  8 12  1  0
 12 13  1  0
 13 14  1  0
 14 15  1  0
 13 16  1  0
 16 17  2  0
 16 18  1  0
 18 19  2  0
 19 20  1  0
 20 21  1  0
 19 22  1  0
 22 23  2  0
 23 24  1  0
 24 25  2  0
 25 26  1  0
 26 27  1  0
 11  3  1  0
 26 12  1  0
 10  6  1  0
 25 18  1  0
 15  7  1  0
  1 28  1  0
  1 29  1  0
  1 30  1  0
  4 31  1  0
  5 32  1  0
  9 33  1  0
 11 34  1  0
 12 35  1  0
 14 36  1  0
 14 37  1  0
 15 38  1  0
 15 39  1  0
 21 40  1  0
 21 41  1  0
 21 42  1  0
 22 43  1  0
 23 44  1  0
 24 45  1  0
 27 46  1  0
 27 47  1  0
 27 48  1  0
M  END
$$$$
