
     RDKit          3D

 59 62  0  0  0  0  0  0  0  0999 V2000
    7.5838   -0.3597    2.0379 C   0  0  0  0  0  0  0  0  0  0  0  0
    6.3319    0.2141    2.6885 C   0  0  0  0  0  0  0  0  0  0  0  0
    5.2686   -0.8503    2.9617 C   0  0  0  0  0  0  0  0  0  0  0  0
    4.7397   -1.3910    1.7203 N   0  0  0  0  0  0  0  0  0  0  0  0
    3.5083   -0.9436    1.2484 C   0  0  0  0  0  0  0  0  0  0  0  0
    2.8220   -1.8300    0.4756 N   0  0  0  0  0  0  0  0  0  0  0  0
    1.6262   -1.4996   -0.0628 C   0  0  0  0  0  0  0  0  0  0  0  0
    1.0475   -2.5167   -0.8212 N   0  0  0  0  0  0  0  0  0  0  0  0
   -0.0692   -2.5807   -1.6603 C   0  0  0  0  0  0  0  0  0  0  0  0
   -0.5068   -3.8450   -2.0944 C   0  0  0  0  0  0  0  0  0  0  0  0
   -1.6520   -3.9961   -2.8839 C   0  0  0  0  0  0  0  0  0  0  0  0
   -2.3948   -2.8788   -3.2482 C   0  0  0  0  0  0  0  0  0  0  0  0
   -1.9755   -1.6196   -2.8197 C   0  0  0  0  0  0  0  0  0  0  0  0
   -2.9224   -0.1841   -3.2484 S   0  0  0  0  0  0  0  0  0  0  0  0
   -2.0909    0.6413   -4.0971 O   0  0  0  0  0  0  0  0  0  0  0  0
   -4.2376   -0.6155   -3.6766 O   0  0  0  0  0  0  0  0  0  0  0  0
   -3.1301    0.6255   -1.7584 N   0  0  0  0  0  0  0  0  0  0  0  0
   -3.9168   -0.1285   -0.7328 C   0  0  0  0  0  0  0  0  0  0  0  0
   -3.9257    0.6467    0.6017 C   0  0  0  0  0  0  0  0  0  0  0  0
   -4.4128    2.0408    0.5187 N   0  0  0  0  0  0  0  0  0  0  0  0
   -5.8638    2.0941    0.3446 C   0  0  0  0  0  0  0  0  0  0  0  0
   -3.7092    2.7444   -0.5743 C   0  0  0  0  0  0  0  0  0  0  0  0
   -3.6798    2.0071   -1.9286 C   0  0  0  0  0  0  0  0  0  0  0  0
   -0.8267   -1.4675   -2.0320 C   0  0  0  0  0  0  0  0  0  0  0  0
    0.9924   -0.3303    0.1154 N   0  0  0  0  0  0  0  0  0  0  0  0
    1.6841    0.5215    0.8812 C   0  0  0  0  0  0  0  0  0  0  0  0
    2.9153    0.3125    1.4765 C   0  0  0  0  0  0  0  0  0  0  0  0
    3.2923    1.4309    2.2000 N   0  0  0  0  0  0  0  0  0  0  0  0
    2.3140    2.2956    2.0326 C   0  0  0  0  0  0  0  0  0  0  0  0
    1.3217    1.7872    1.2440 N   0  0  0  0  0  0  0  0  0  0  0  0
    0.1062    2.4536    0.8601 C   0  0  0  0  0  0  0  0  0  0  0  0
    8.0249   -1.1448    2.6602 H   0  0  0  0  0  0  0  0  0  0  0  0
    8.3330    0.4273    1.9048 H   0  0  0  0  0  0  0  0  0  0  0  0
    7.3634   -0.7831    1.0531 H   0  0  0  0  0  0  0  0  0  0  0  0
    5.9331    1.0084    2.0486 H   0  0  0  0  0  0  0  0  0  0  0  0
    6.6161    0.6790    3.6398 H   0  0  0  0  0  0  0  0  0  0  0  0
    4.4794   -0.4524    3.6101 H   0  0  0  0  0  0  0  0  0  0  0  0
    5.7263   -1.6722    3.5260 H   0  0  0  0  0  0  0  0  0  0  0  0
    4.7743   -2.4007    1.6282 H   0  0  0  0  0  0  0  0  0  0  0  0
    1.6682   -3.3137   -0.8198 H   0  0  0  0  0  0  0  0  0  0  0  0
    0.0461   -4.7382   -1.8097 H   0  0  0  0  0  0  0  0  0  0  0  0
   -1.9622   -4.9869   -3.2066 H   0  0  0  0  0  0  0  0  0  0  0  0
   -3.2864   -2.9944   -3.8600 H   0  0  0  0  0  0  0  0  0  0  0  0
   -3.4589   -1.1058   -0.5525 H   0  0  0  0  0  0  0  0  0  0  0  0
   -4.9411   -0.2906   -1.0859 H   0  0  0  0  0  0  0  0  0  0  0  0
   -2.8994    0.6770    0.9905 H   0  0  0  0  0  0  0  0  0  0  0  0
   -4.5070    0.0897    1.3468 H   0  0  0  0  0  0  0  0  0  0  0  0
   -6.2076    3.1345    0.3398 H   0  0  0  0  0  0  0  0  0  0  0  0
   -6.2083    1.6186   -0.5790 H   0  0  0  0  0  0  0  0  0  0  0  0
   -6.3662    1.6056    1.1870 H   0  0  0  0  0  0  0  0  0  0  0  0
   -4.1327    3.7471   -0.7107 H   0  0  0  0  0  0  0  0  0  0  0  0
   -2.6740    2.9058   -0.2480 H   0  0  0  0  0  0  0  0  0  0  0  0
   -3.0378    2.5762   -2.6096 H   0  0  0  0  0  0  0  0  0  0  0  0
   -4.6854    1.9595   -2.3616 H   0  0  0  0  0  0  0  0  0  0  0  0
   -0.5327   -0.4667   -1.7289 H   0  0  0  0  0  0  0  0  0  0  0  0
    2.2765    3.2907    2.4576 H   0  0  0  0  0  0  0  0  0  0  0  0
   -0.7248    1.9866    1.3942 H   0  0  0  0  0  0  0  0  0  0  0  0
    0.1707    3.5123    1.1236 H   0  0  0  0  0  0  0  0  0  0  0  0
   -0.0273    2.3528   -0.2202 H   0  0  0  0  0  0  0  0  0  0  0  0
  1  2  1  0
  2  3  1  0
  3  4  1  0
  4  5  1  0
  5  6  1  0
  6  7  2  0
  7  8  1  0
  8  9  1  0
  9 10  1  0
 10 11  2  0
 11 12  1  0
 12 13  2  0
 13 14  1  0
 14 15  2  0
 14 16  2  0
 14 17  1  0
 17 18  1  0
 18 19  1  0
 19 20  1  0
 20 21  1  0
 20 22  1  0
 22 23  1  0
 13 24  1  0
  7 25  1  0
 25 26  2  0
 26 27  1  0
 27 28  1  0
 28 29  2  0
 29 30  1  0
 30 31  1  0
 27  5  2  0
 24  9  2  0
 30 26  1  0
 23 17  1  0
  1 32  1  0
  1 33  1  0
  1 34  1  0
  2 35  1  0
  2 36  1  0
  3 37  1  0
  3 38  1  0
  4 39  1  0
  8 40  1  0
 10 41  1  0
 11 42  1  0
 12 43  1  0
 18 44  1  0
 18 45  1  0
 19 46  1  0
 19 47  1  0
 21 48  1  0
 21 49  1  0
 21 50  1  0
 22 51  1  0
 22 52  1  0
 23 53  1  0
 23 54  1  0
 24 55  1  0
 29 56  1  0
 31 57  1  0
 31 58  1  0
 31 59  1  0
M  END
$$$$
