
     RDKit          3D

 61 63  0  0  0  0  0  0  0  0999 V2000
   -1.6376    2.5910   -5.2606 C   0  0  0  0  0  0  0  0  0  0  0  0
   -1.5848    3.5616   -4.0889 C   0  0  0  0  0  0  0  0  0  0  0  0
   -0.3669    3.3314   -3.1961 C   0  0  0  0  0  0  0  0  0  0  0  0
   -0.4903    2.0505   -2.5727 O   0  0  0  0  0  0  0  0  0  0  0  0
    0.4912    1.6506   -1.7004 C   0  0  0  0  0  0  0  0  0  0  0  0
    1.6371    2.4159   -1.4312 C   0  0  0  0  0  0  0  0  0  0  0  0
    2.6066    1.9641   -0.5324 C   0  0  0  0  0  0  0  0  0  0  0  0
    2.4359    0.7382    0.1060 C   0  0  0  0  0  0  0  0  0  0  0  0
    3.6819    0.1506    1.2309 S   0  0  0  0  0  0  0  0  0  0  0  0
    3.6004   -1.2918    1.2693 O   0  0  0  0  0  0  0  0  0  0  0  0
    4.9189    0.8224    0.8933 O   0  0  0  0  0  0  0  0  0  0  0  0
    3.1422    0.7867    2.6935 N   0  0  0  0  0  0  0  0  0  0  0  0
    1.9017    0.2555    3.3018 C   0  0  0  0  0  0  0  0  0  0  0  0
    2.1465    0.2560    4.8072 C   0  0  0  0  0  0  0  0  0  0  0  0
    3.3002    1.2254    5.0060 C   0  0  0  0  0  0  0  0  0  0  0  0
    4.1550    1.0207    3.7565 C   0  0  1  0  0  0  0  0  0  0  0  0
    5.1991   -0.0550    3.9923 C   0  0  0  0  0  0  0  0  0  0  0  0
    6.3729    0.1403    4.2693 O   0  0  0  0  0  0  0  0  0  0  0  0
    4.7188   -1.3121    3.9413 O   0  0  0  0  0  0  0  0  0  0  0  0
    1.3147   -0.0482   -0.1610 C   0  0  0  0  0  0  0  0  0  0  0  0
    0.3254    0.4028   -1.0541 C   0  0  0  0  0  0  0  0  0  0  0  0
   -0.8645   -0.4951   -1.2419 C   0  0  0  0  0  0  0  0  0  0  0  0
   -0.9972   -1.5706   -0.5322 N   0  0  0  0  0  0  0  0  0  0  0  0
   -2.1004   -2.3736   -0.7303 C   0  0  0  0  0  0  0  0  0  0  0  0
   -2.1010   -3.5986    0.1654 C   0  0  0  0  0  0  0  0  0  0  0  0
   -2.3914   -3.2404    1.6176 C   0  0  0  0  0  0  0  0  0  0  0  0
   -3.0735   -2.1053   -1.6261 C   0  0  0  0  0  0  0  0  0  0  0  0
   -4.2929   -2.9341   -1.9285 C   0  0  0  0  0  0  0  0  0  0  0  0
   -5.5016   -2.4857   -1.1196 C   0  0  0  0  0  0  0  0  0  0  0  0
   -2.9233   -0.8577   -2.4190 C   0  0  0  0  0  0  0  0  0  0  0  0
   -3.7588   -0.4880   -3.2377 O   0  0  0  0  0  0  0  0  0  0  0  0
   -1.7957   -0.1387   -2.1756 N   0  0  0  0  0  0  0  0  0  0  0  0
   -1.7161    1.5544   -4.9199 H   0  0  0  0  0  0  0  0  0  0  0  0
   -2.5087    2.8051   -5.8879 H   0  0  0  0  0  0  0  0  0  0  0  0
   -0.7416    2.6807   -5.8830 H   0  0  0  0  0  0  0  0  0  0  0  0
   -1.5626    4.5870   -4.4740 H   0  0  0  0  0  0  0  0  0  0  0  0
   -2.5011    3.4447   -3.4985 H   0  0  0  0  0  0  0  0  0  0  0  0
   -0.3433    4.1148   -2.4295 H   0  0  0  0  0  0  0  0  0  0  0  0
    0.5450    3.3740   -3.8033 H   0  0  0  0  0  0  0  0  0  0  0  0
    1.8126    3.3760   -1.9073 H   0  0  0  0  0  0  0  0  0  0  0  0
    3.4889    2.5717   -0.3392 H   0  0  0  0  0  0  0  0  0  0  0  0
    1.0751    0.9270    3.0473 H   0  0  0  0  0  0  0  0  0  0  0  0
    1.6533   -0.7519    2.9571 H   0  0  0  0  0  0  0  0  0  0  0  0
    1.2544    0.5466    5.3700 H   0  0  0  0  0  0  0  0  0  0  0  0
    2.4309   -0.7481    5.1421 H   0  0  0  0  0  0  0  0  0  0  0  0
    2.9140    2.2519    5.0303 H   0  0  0  0  0  0  0  0  0  0  0  0
    3.8365    1.0399    5.9417 H   0  0  0  0  0  0  0  0  0  0  0  0
    4.6926    1.9472    3.5219 H   0  0  0  0  0  0  0  0  0  0  0  0
    5.5071   -1.8877    4.0269 H   0  0  0  0  0  0  0  0  0  0  0  0
    1.2094   -1.0151    0.3297 H   0  0  0  0  0  0  0  0  0  0  0  0
   -2.8247   -4.3512   -0.1571 H   0  0  0  0  0  0  0  0  0  0  0  0
   -1.1198   -4.0863    0.1021 H   0  0  0  0  0  0  0  0  0  0  0  0
   -2.3902   -4.1442    2.2354 H   0  0  0  0  0  0  0  0  0  0  0  0
   -1.6356   -2.5584    2.0215 H   0  0  0  0  0  0  0  0  0  0  0  0
   -3.3715   -2.7628    1.7187 H   0  0  0  0  0  0  0  0  0  0  0  0
   -4.1093   -3.9970   -1.7446 H   0  0  0  0  0  0  0  0  0  0  0  0
   -4.5313   -2.8775   -2.9979 H   0  0  0  0  0  0  0  0  0  0  0  0
   -6.3719   -3.1003   -1.3711 H   0  0  0  0  0  0  0  0  0  0  0  0
   -5.3188   -2.5855   -0.0446 H   0  0  0  0  0  0  0  0  0  0  0  0
   -5.7568   -1.4411   -1.3267 H   0  0  0  0  0  0  0  0  0  0  0  0
   -1.6854    0.7175   -2.7022 H   0  0  0  0  0  0  0  0  0  0  0  0
  1  2  1  0
  2  3  1  0
  3  4  1  0
  4  5  1  0
  5  6  1  0
  6  7  2  0
  7  8  1  0
  8  9  1  0
  9 10  2  0
  9 11  2  0
  9 12  1  0
 12 13  1  0
 13 14  1  0
 14 15  1  0
 15 16  1  0
 16 17  1  0
 17 18  2  0
 17 19  1  0
  8 20  2  0
 20 21  1  0
 21 22  1  0
 22 23  2  0
 23 24  1  0
 24 25  1  0
 25 26  1  0
 24 27  2  0
 27 28  1  0
 28 29  1  0
 27 30  1  0
 30 31  2  0
 30 32  1  0
 21  5  2  0
 32 22  1  0
 16 12  1  0
  1 33  1  0
  1 34  1  0
  1 35  1  0
  2 36  1  0
  2 37  1  0
  3 38  1  0
  3 39  1  0
  6 40  1  0
  7 41  1  0
 13 42  1  0
 13 43  1  0
 14 44  1  0
 14 45  1  0
 15 46  1  0
 15 47  1  0
 16 48  1  6
 19 49  1  0
 20 50  1  0
 25 51  1  0
 25 52  1  0
 26 53  1  0
 26 54  1  0
 26 55  1  0
 28 56  1  0
 28 57  1  0
 29 58  1  0
 29 59  1  0
 29 60  1  0
 32 61  1  0
M  END
$$$$
