
     RDKit          3D

 62 65  0  0  0  0  0  0  0  0999 V2000
    4.4289    2.1309   -2.3807 C   0  0  0  0  0  0  0  0  0  0  0  0
    3.0538    1.5937   -1.9801 C   0  0  0  0  0  0  0  0  0  0  0  0
    2.7999    1.8274   -0.4910 C   0  0  0  0  0  0  0  0  0  0  0  0
    2.8420    0.1302   -2.4112 C   0  0  0  0  0  0  0  0  0  0  0  0
    3.8421   -0.7882   -1.8987 N   0  0  0  0  0  0  0  0  0  0  0  0
    3.6708   -1.3627   -0.6448 C   0  0  0  0  0  0  0  0  0  0  0  0
    2.4367   -1.5034   -0.0941 N   0  0  0  0  0  0  0  0  0  0  0  0
    2.2812   -2.0680    1.1229 C   0  0  0  0  0  0  0  0  0  0  0  0
    1.0158   -2.1860    1.6987 N   0  0  0  0  0  0  0  0  0  0  0  0
   -0.2853   -1.9703    1.2325 C   0  0  0  0  0  0  0  0  0  0  0  0
   -0.5949   -1.6597   -0.0974 C   0  0  0  0  0  0  0  0  0  0  0  0
   -1.9116   -1.4092   -0.4982 C   0  0  0  0  0  0  0  0  0  0  0  0
   -2.9379   -1.4519    0.4447 C   0  0  0  0  0  0  0  0  0  0  0  0
   -4.5984   -1.1049   -0.0714 S   0  0  0  0  0  0  0  0  0  0  0  0
   -5.4466   -1.0620    1.1022 O   0  0  0  0  0  0  0  0  0  0  0  0
   -4.8965   -1.9855   -1.1800 O   0  0  0  0  0  0  0  0  0  0  0  0
   -4.4842    0.4910   -0.6695 N   0  0  0  0  0  0  0  0  0  0  0  0
   -4.1419    1.5248    0.3580 C   0  0  0  0  0  0  0  0  0  0  0  0
   -3.9687    2.9078   -0.3044 C   0  0  0  0  0  0  0  0  0  0  0  0
   -5.1150    3.3639   -1.1173 N   0  0  0  0  0  0  0  0  0  0  0  0
   -6.2475    3.7641   -0.2849 C   0  0  0  0  0  0  0  0  0  0  0  0
   -5.4865    2.2992   -2.0731 C   0  0  0  0  0  0  0  0  0  0  0  0
   -5.6912    0.9010   -1.4543 C   0  0  0  0  0  0  0  0  0  0  0  0
   -2.6626   -1.7539    1.7766 C   0  0  0  0  0  0  0  0  0  0  0  0
   -1.3419   -2.0058    2.1611 C   0  0  0  0  0  0  0  0  0  0  0  0
    3.2807   -2.5276    1.9029 N   0  0  0  0  0  0  0  0  0  0  0  0
    4.4845   -2.3781    1.3343 C   0  0  0  0  0  0  0  0  0  0  0  0
    4.7669   -1.8223    0.1016 C   0  0  0  0  0  0  0  0  0  0  0  0
    6.1280   -1.8227   -0.1393 N   0  0  0  0  0  0  0  0  0  0  0  0
    6.6564   -2.3845    0.9283 C   0  0  0  0  0  0  0  0  0  0  0  0
    5.7015   -2.7352    1.8424 N   0  0  0  0  0  0  0  0  0  0  0  0
    5.9259   -3.3669    3.1151 C   0  0  0  0  0  0  0  0  0  0  0  0
    5.2338    1.6514   -1.8142 H   0  0  0  0  0  0  0  0  0  0  0  0
    4.4892    3.2084   -2.1926 H   0  0  0  0  0  0  0  0  0  0  0  0
    4.6157    1.9682   -3.4472 H   0  0  0  0  0  0  0  0  0  0  0  0
    2.3060    2.1863   -2.5245 H   0  0  0  0  0  0  0  0  0  0  0  0
    1.8241    1.4301   -0.1932 H   0  0  0  0  0  0  0  0  0  0  0  0
    2.8021    2.9000   -0.2678 H   0  0  0  0  0  0  0  0  0  0  0  0
    3.5695    1.3634    0.1332 H   0  0  0  0  0  0  0  0  0  0  0  0
    2.9020    0.0888   -3.5060 H   0  0  0  0  0  0  0  0  0  0  0  0
    1.8240   -0.1954   -2.1658 H   0  0  0  0  0  0  0  0  0  0  0  0
    4.8171   -0.5702   -2.0862 H   0  0  0  0  0  0  0  0  0  0  0  0
    1.1099   -2.6085    2.6103 H   0  0  0  0  0  0  0  0  0  0  0  0
    0.1819   -1.6238   -0.8559 H   0  0  0  0  0  0  0  0  0  0  0  0
   -2.1255   -1.1813   -1.5401 H   0  0  0  0  0  0  0  0  0  0  0  0
   -4.9237    1.5679    1.1243 H   0  0  0  0  0  0  0  0  0  0  0  0
   -3.1977    1.2647    0.8462 H   0  0  0  0  0  0  0  0  0  0  0  0
   -3.7315    3.6553    0.4625 H   0  0  0  0  0  0  0  0  0  0  0  0
   -3.0896    2.8695   -0.9615 H   0  0  0  0  0  0  0  0  0  0  0  0
   -7.0628    4.1446   -0.9103 H   0  0  0  0  0  0  0  0  0  0  0  0
   -6.6439    2.9510    0.3312 H   0  0  0  0  0  0  0  0  0  0  0  0
   -5.9583    4.5848    0.3810 H   0  0  0  0  0  0  0  0  0  0  0  0
   -6.3862    2.5907   -2.6289 H   0  0  0  0  0  0  0  0  0  0  0  0
   -4.6858    2.2325   -2.8217 H   0  0  0  0  0  0  0  0  0  0  0  0
   -6.5769    0.8923   -0.8090 H   0  0  0  0  0  0  0  0  0  0  0  0
   -5.8540    0.1904   -2.2718 H   0  0  0  0  0  0  0  0  0  0  0  0
   -3.4573   -1.7928    2.5178 H   0  0  0  0  0  0  0  0  0  0  0  0
   -1.1404   -2.2283    3.2069 H   0  0  0  0  0  0  0  0  0  0  0  0
    7.7134   -2.5580    1.0868 H   0  0  0  0  0  0  0  0  0  0  0  0
    5.5527   -2.7066    3.9021 H   0  0  0  0  0  0  0  0  0  0  0  0
    5.3921   -4.3206    3.1297 H   0  0  0  0  0  0  0  0  0  0  0  0
    6.9960   -3.5403    3.2547 H   0  0  0  0  0  0  0  0  0  0  0  0
  1  2  1  0
  2  3  1  0
  2  4  1  0
  4  5  1  0
  5  6  1  0
  6  7  1  0
  7  8  2  0
  8  9  1  0
  9 10  1  0
 10 11  1  0
 11 12  2  0
 12 13  1  0
 13 14  1  0
 14 15  2  0
 14 16  2  0
 14 17  1  0
 17 18  1  0
 18 19  1  0
 19 20  1  0
 20 21  1  0
 20 22  1  0
 22 23  1  0
 13 24  2  0
 24 25  1  0
  8 26  1  0
 26 27  2  0
 27 28  1  0
 28 29  1  0
 29 30  2  0
 30 31  1  0
 31 32  1  0
 28  6  2  0
 25 10  2  0
 31 27  1  0
 23 17  1  0
  1 33  1  0
  1 34  1  0
  1 35  1  0
  2 36  1  0
  3 37  1  0
  3 38  1  0
  3 39  1  0
  4 40  1  0
  4 41  1  0
  5 42  1  0
  9 43  1  0
 11 44  1  0
 12 45  1  0
 18 46  1  0
 18 47  1  0
 19 48  1  0
 19 49  1  0
 21 50  1  0
 21 51  1  0
 21 52  1  0
 22 53  1  0
 22 54  1  0
 23 55  1  0
 23 56  1  0
 24 57  1  0
 25 58  1  0
 30 59  1  0
 32 60  1  0
 32 61  1  0
 32 62  1  0
M  END
$$$$
