


 28 30  0  0  0  0  0  0  0  0999 V2000
   -0.4157   63.2609   81.1313 N   0  0  0  0  0  0  0  0  0  0  0  0
   -0.1023   64.4986   80.6226 C   0  0  0  0  0  0  0  0  0  0  0  0
   -0.3118   64.9243   79.4939 O   0  0  0  0  0  0  0  0  0  0  0  0
   -0.1594   63.0845   82.0969 H   0  0  0  0  0  0  0  0  0  0  0  0
   -0.8839   59.9055   77.7565 C   0  0  0  0  0  0  0  0  0  0  0  0
   -1.3252   60.6415   78.9721 C   0  0  0  0  0  0  0  0  0  0  0  0
   -0.5114   61.6719   79.4272 N   0  0  0  0  0  0  0  0  0  0  0  0
   -1.0335   62.2202   80.4973 C   0  0  0  0  0  0  0  0  0  0  0  0
   -2.5019   61.5550   81.0272 S   0  0  0  0  0  0  0  0  0  0  0  0
   -2.4692   60.4293   79.7287 C   0  0  0  0  0  0  0  0  0  0  0  0
   -3.5450   59.4830   79.5974 C   0  0  0  0  0  0  0  0  0  0  0  0
   -3.5619   58.2963   79.8925 O   0  0  0  0  0  0  0  0  0  0  0  0
   -4.6586   60.0414   79.0710 O   0  0  0  0  0  0  0  0  0  0  0  0
   -5.2847   59.2878   79.0469 H   0  0  0  0  0  0  0  0  0  0  0  0
    0.5750   65.3760   81.6352 C   0  0  0  0  0  0  0  0  0  0  0  0
    1.2459   66.5207   81.2284 C   0  0  0  0  0  0  0  0  0  0  0  0
    1.8553   67.3010   82.2032 C   0  0  0  0  0  0  0  0  0  0  0  0
    1.7754   66.9121   83.5384 C   0  0  0  0  0  0  0  0  0  0  0  0
    1.0894   65.7426   83.8708 C   0  0  0  0  0  0  0  0  0  0  0  0
    0.4762   64.9717   82.9355 N   0  0  0  0  0  0  0  0  0  0  0  0
    0.9666   65.3150   85.3190 C   0  0  0  0  0  0  0  0  0  0  0  0
    0.7627   63.9029   85.3863 O   0  0  0  0  0  0  0  0  0  0  0  0
   -0.4033   63.4710   85.9556 C   0  0  0  0  0  0  0  0  0  0  0  0
   -0.4797   63.6590   87.3385 C   0  0  0  0  0  0  0  0  0  0  0  0
   -1.6149   63.2657   88.0489 C   0  0  0  0  0  0  0  0  0  0  0  0
   -2.6841   62.6787   87.3773 C   0  0  0  0  0  0  0  0  0  0  0  0
   -2.6146   62.4857   85.9986 C   0  0  0  0  0  0  0  0  0  0  0  0
   -1.4768   62.8802   85.2872 C   0  0  0  0  0  0  0  0  0  0  0  0
  5  6  1  0  0  0
  6  7  1  0  0  0
  7  8  2  0  0  0
  8  1  1  0  0  0
  1  2  1  0  0  0
  2  3  2  0  0  0
  2 15  1  0  0  0
 15 16  1  0  0  0
 16 17  2  0  0  0
 17 18  1  0  0  0
 18 19  2  0  0  0
 19 21  1  0  0  0
 21 22  1  0  0  0
 22 23  1  0  0  0
 23 24  2  0  0  0
 24 25  1  0  0  0
 25 26  2  0  0  0
 26 27  1  0  0  0
 27 28  2  0  0  0
 19 20  1  0  0  0
  8  9  1  0  0  0
  9 10  1  0  0  0
 10 11  1  0  0  0
 11 12  2  0  0  0
 11 13  1  0  0  0
 10  6  2  0  0  0
 20 15  2  0  0  0
 28 23  1  0  0  0
  1  4  1  0  0  0
 13 14  1  0  0  0
M  END
> <minimizedAffinity>
-9.62959

$$$$



 28 30  0  0  0  0  0  0  0  0999 V2000
   -0.3700   63.4675   80.8244 N   0  0  0  0  0  0  0  0  0  0  0  0
    0.0046   64.7100   80.3720 C   0  0  0  0  0  0  0  0  0  0  0  0
   -0.1276   65.1732   79.2464 O   0  0  0  0  0  0  0  0  0  0  0  0
   -0.1751   63.2567   81.7975 H   0  0  0  0  0  0  0  0  0  0  0  0
   -4.0340   60.6664   79.5605 C   0  0  0  0  0  0  0  0  0  0  0  0
   -2.6202   61.1243   79.4839 C   0  0  0  0  0  0  0  0  0  0  0  0
   -2.2438   62.1797   80.3058 N   0  0  0  0  0  0  0  0  0  0  0  0
   -0.9766   62.4627   80.1251 C   0  0  0  0  0  0  0  0  0  0  0  0
   -0.1623   61.5099   78.9812 S   0  0  0  0  0  0  0  0  0  0  0  0
   -1.6046   60.6244   78.6809 C   0  0  0  0  0  0  0  0  0  0  0  0
   -1.5823   59.5605   77.7126 C   0  0  0  0  0  0  0  0  0  0  0  0
   -2.4407   59.2454   76.9005 O   0  0  0  0  0  0  0  0  0  0  0  0
   -0.4321   58.8505   77.7563 O   0  0  0  0  0  0  0  0  0  0  0  0
   -0.5677   58.1804   77.0542 H   0  0  0  0  0  0  0  0  0  0  0  0
    0.6442   65.5391   81.4477 C   0  0  0  0  0  0  0  0  0  0  0  0
    1.3061   66.7145   81.1214 C   0  0  0  0  0  0  0  0  0  0  0  0
    1.8803   67.4478   82.1524 C   0  0  0  0  0  0  0  0  0  0  0  0
    1.7758   66.9837   83.4616 C   0  0  0  0  0  0  0  0  0  0  0  0
    1.1010   65.7876   83.7120 C   0  0  0  0  0  0  0  0  0  0  0  0
    0.5219   65.0613   82.7208 N   0  0  0  0  0  0  0  0  0  0  0  0
    0.9515   65.2779   85.1308 C   0  0  0  0  0  0  0  0  0  0  0  0
    0.5880   63.8968   85.1083 O   0  0  0  0  0  0  0  0  0  0  0  0
   -0.4402   63.5127   85.9240 C   0  0  0  0  0  0  0  0  0  0  0  0
   -1.5113   62.9052   85.2627 C   0  0  0  0  0  0  0  0  0  0  0  0
   -2.6278   62.4620   85.9734 C   0  0  0  0  0  0  0  0  0  0  0  0
   -2.6798   62.6256   87.3552 C   0  0  0  0  0  0  0  0  0  0  0  0
   -1.6167   63.2326   88.0217 C   0  0  0  0  0  0  0  0  0  0  0  0
   -0.4980   63.6764   87.3090 C   0  0  0  0  0  0  0  0  0  0  0  0
  5  6  1  0  0  0
  6  7  1  0  0  0
  7  8  2  0  0  0
  8  1  1  0  0  0
  1  2  1  0  0  0
  2  3  2  0  0  0
  2 15  1  0  0  0
 15 16  1  0  0  0
 16 17  2  0  0  0
 17 18  1  0  0  0
 18 19  2  0  0  0
 19 21  1  0  0  0
 21 22  1  0  0  0
 22 23  1  0  0  0
 23 24  2  0  0  0
 24 25  1  0  0  0
 25 26  2  0  0  0
 26 27  1  0  0  0
 27 28  2  0  0  0
 19 20  1  0  0  0
  8  9  1  0  0  0
  9 10  1  0  0  0
 10 11  1  0  0  0
 11 12  2  0  0  0
 11 13  1  0  0  0
 10  6  2  0  0  0
 20 15  2  0  0  0
 28 23  1  0  0  0
  1  4  1  0  0  0
 13 14  1  0  0  0
M  END
> <minimizedAffinity>
-9.39458

$$$$



 28 30  0  0  0  0  0  0  0  0999 V2000
   -1.3646   62.3953   82.7928 N   0  0  0  0  0  0  0  0  0  0  0  0
   -1.7172   62.2521   84.1135 C   0  0  0  0  0  0  0  0  0  0  0  0
   -2.5997   61.5469   84.5855 O   0  0  0  0  0  0  0  0  0  0  0  0
   -0.6028   63.0335   82.5889 H   0  0  0  0  0  0  0  0  0  0  0  0
   -2.7469   62.1090   78.2239 C   0  0  0  0  0  0  0  0  0  0  0  0
   -2.5841   61.5708   79.6016 C   0  0  0  0  0  0  0  0  0  0  0  0
   -1.9842   62.3966   80.5447 N   0  0  0  0  0  0  0  0  0  0  0  0
   -1.9154   61.7845   81.7018 C   0  0  0  0  0  0  0  0  0  0  0  0
   -2.5464   60.2099   81.7438 S   0  0  0  0  0  0  0  0  0  0  0  0
   -2.9615   60.3238   80.0797 C   0  0  0  0  0  0  0  0  0  0  0  0
   -3.5974   59.2028   79.4402 C   0  0  0  0  0  0  0  0  0  0  0  0
   -4.3536   59.1967   78.4790 O   0  0  0  0  0  0  0  0  0  0  0  0
   -3.2766   58.0272   80.0266 O   0  0  0  0  0  0  0  0  0  0  0  0
   -3.7753   57.3770   79.4890 H   0  0  0  0  0  0  0  0  0  0  0  0
   -0.8701   63.0935   85.0237 C   0  0  0  0  0  0  0  0  0  0  0  0
   -0.8505   62.8417   86.3884 C   0  0  0  0  0  0  0  0  0  0  0  0
   -0.0496   63.6467   87.1890 C   0  0  0  0  0  0  0  0  0  0  0  0
    0.6953   64.6676   86.6032 C   0  0  0  0  0  0  0  0  0  0  0  0
    0.6184   64.8660   85.2235 C   0  0  0  0  0  0  0  0  0  0  0  0
   -0.1484   64.0832   84.4207 N   0  0  0  0  0  0  0  0  0  0  0  0
    1.4406   65.9526   84.5615 C   0  0  0  0  0  0  0  0  0  0  0  0
    2.7474   65.4550   84.2705 O   0  0  0  0  0  0  0  0  0  0  0  0
    3.7747   65.9203   85.0440 C   0  0  0  0  0  0  0  0  0  0  0  0
    4.1665   67.2321   84.7625 C   0  0  0  0  0  0  0  0  0  0  0  0
    5.2026   67.8347   85.4777 C   0  0  0  0  0  0  0  0  0  0  0  0
    5.8561   67.1252   86.4818 C   0  0  0  0  0  0  0  0  0  0  0  0
    5.4727   65.8158   86.7669 C   0  0  0  0  0  0  0  0  0  0  0  0
    4.4343   65.2124   86.0501 C   0  0  0  0  0  0  0  0  0  0  0  0
  5  6  1  0  0  0
  6  7  1  0  0  0
  7  8  2  0  0  0
  8  1  1  0  0  0
  1  2  1  0  0  0
  2  3  2  0  0  0
  2 15  1  0  0  0
 15 16  1  0  0  0
 16 17  2  0  0  0
 17 18  1  0  0  0
 18 19  2  0  0  0
 19 21  1  0  0  0
 21 22  1  0  0  0
 22 23  1  0  0  0
 23 24  2  0  0  0
 24 25  1  0  0  0
 25 26  2  0  0  0
 26 27  1  0  0  0
 27 28  2  0  0  0
 19 20  1  0  0  0
  8  9  1  0  0  0
  9 10  1  0  0  0
 10 11  1  0  0  0
 11 12  2  0  0  0
 11 13  1  0  0  0
 10  6  2  0  0  0
 20 15  2  0  0  0
 28 23  1  0  0  0
  1  4  1  0  0  0
 13 14  1  0  0  0
M  END
> <minimizedAffinity>
-9.35980

$$$$



 28 30  0  0  0  0  0  0  0  0999 V2000
   -0.7085   62.8449   80.8190 N   0  0  0  0  0  0  0  0  0  0  0  0
   -0.3772   64.1736   80.9367 C   0  0  0  0  0  0  0  0  0  0  0  0
   -0.3978   65.0351   80.0670 O   0  0  0  0  0  0  0  0  0  0  0  0
   -0.6259   62.2766   81.6553 H   0  0  0  0  0  0  0  0  0  0  0  0
   -0.1567   60.5407   76.6652 C   0  0  0  0  0  0  0  0  0  0  0  0
   -0.9690   61.1012   77.7789 C   0  0  0  0  0  0  0  0  0  0  0  0
   -0.2889   61.7401   78.8086 N   0  0  0  0  0  0  0  0  0  0  0  0
   -1.1377   62.1781   79.7064 C   0  0  0  0  0  0  0  0  0  0  0  0
   -2.7749   61.8611   79.3924 S   0  0  0  0  0  0  0  0  0  0  0  0
   -2.3485   61.0691   77.9278 C   0  0  0  0  0  0  0  0  0  0  0  0
   -3.3902   60.5156   77.1041 C   0  0  0  0  0  0  0  0  0  0  0  0
   -3.6302   59.3420   76.8579 O   0  0  0  0  0  0  0  0  0  0  0  0
   -4.1748   61.4717   76.5572 O   0  0  0  0  0  0  0  0  0  0  0  0
   -4.8202   60.9477   76.0382 H   0  0  0  0  0  0  0  0  0  0  0  0
    0.0496   64.5330   82.3305 C   0  0  0  0  0  0  0  0  0  0  0  0
   -0.3545   63.7544   83.4060 C   0  0  0  0  0  0  0  0  0  0  0  0
    0.0678   64.1269   84.6762 C   0  0  0  0  0  0  0  0  0  0  0  0
    0.8700   65.2558   84.8260 C   0  0  0  0  0  0  0  0  0  0  0  0
    1.2297   65.9944   83.6974 C   0  0  0  0  0  0  0  0  0  0  0  0
    0.8383   65.6414   82.4455 N   0  0  0  0  0  0  0  0  0  0  0  0
    2.1239   67.2098   83.8336 C   0  0  0  0  0  0  0  0  0  0  0  0
    3.4889   66.8212   83.6731 O   0  0  0  0  0  0  0  0  0  0  0  0
    4.2474   66.7374   84.8079 C   0  0  0  0  0  0  0  0  0  0  0  0
    4.5594   65.4337   85.2037 C   0  0  0  0  0  0  0  0  0  0  0  0
    5.3296   65.2010   86.3443 C   0  0  0  0  0  0  0  0  0  0  0  0
    5.7930   66.2755   87.0990 C   0  0  0  0  0  0  0  0  0  0  0  0
    5.4842   67.5785   86.7120 C   0  0  0  0  0  0  0  0  0  0  0  0
    4.7126   67.8111   85.5689 C   0  0  0  0  0  0  0  0  0  0  0  0
  5  6  1  0  0  0
  6  7  1  0  0  0
  7  8  2  0  0  0
  8  1  1  0  0  0
  1  2  1  0  0  0
  2  3  2  0  0  0
  2 15  1  0  0  0
 15 16  1  0  0  0
 16 17  2  0  0  0
 17 18  1  0  0  0
 18 19  2  0  0  0
 19 21  1  0  0  0
 21 22  1  0  0  0
 22 23  1  0  0  0
 23 24  2  0  0  0
 24 25  1  0  0  0
 25 26  2  0  0  0
 26 27  1  0  0  0
 27 28  2  0  0  0
 19 20  1  0  0  0
  8  9  1  0  0  0
  9 10  1  0  0  0
 10 11  1  0  0  0
 11 12  2  0  0  0
 11 13  1  0  0  0
 10  6  2  0  0  0
 20 15  2  0  0  0
 28 23  1  0  0  0
  1  4  1  0  0  0
 13 14  1  0  0  0
M  END
> <minimizedAffinity>
-9.30105

$$$$



 28 30  0  0  0  0  0  0  0  0999 V2000
   -1.6436   62.1528   83.2768 N   0  0  0  0  0  0  0  0  0  0  0  0
   -2.1712   62.0456   84.5414 C   0  0  0  0  0  0  0  0  0  0  0  0
   -3.1734   61.4350   84.8902 O   0  0  0  0  0  0  0  0  0  0  0  0
   -0.8008   62.7090   83.1780 H   0  0  0  0  0  0  0  0  0  0  0  0
   -2.7409   62.1359   78.6225 C   0  0  0  0  0  0  0  0  0  0  0  0
   -2.6492   61.5131   79.9707 C   0  0  0  0  0  0  0  0  0  0  0  0
   -2.1264   62.2875   80.9994 N   0  0  0  0  0  0  0  0  0  0  0  0
   -2.1134   61.6034   82.1175 C   0  0  0  0  0  0  0  0  0  0  0  0
   -2.7095   60.0176   82.0207 S   0  0  0  0  0  0  0  0  0  0  0  0
   -3.0260   60.2307   80.3448 C   0  0  0  0  0  0  0  0  0  0  0  0
   -3.5963   59.1415   79.5976 C   0  0  0  0  0  0  0  0  0  0  0  0
   -4.3496   59.1841   78.6351 O   0  0  0  0  0  0  0  0  0  0  0  0
   -3.2099   57.9355   80.0720 O   0  0  0  0  0  0  0  0  0  0  0  0
   -3.6701   57.3122   79.4719 H   0  0  0  0  0  0  0  0  0  0  0  0
   -1.3628   62.7940   85.5613 C   0  0  0  0  0  0  0  0  0  0  0  0
   -1.6714   62.6877   86.9102 C   0  0  0  0  0  0  0  0  0  0  0  0
   -0.8929   63.3981   87.8156 C   0  0  0  0  0  0  0  0  0  0  0  0
    0.1560   64.1848   87.3451 C   0  0  0  0  0  0  0  0  0  0  0  0
    0.4013   64.2487   85.9724 C   0  0  0  0  0  0  0  0  0  0  0  0
   -0.3393   63.5529   85.0709 N   0  0  0  0  0  0  0  0  0  0  0  0
    1.5535   65.0761   85.4405 C   0  0  0  0  0  0  0  0  0  0  0  0
    1.5970   64.9778   84.0162 O   0  0  0  0  0  0  0  0  0  0  0  0
    1.5155   66.1467   83.3110 C   0  0  0  0  0  0  0  0  0  0  0  0
    0.8596   66.0395   82.0815 C   0  0  0  0  0  0  0  0  0  0  0  0
    0.7029   67.1557   81.2584 C   0  0  0  0  0  0  0  0  0  0  0  0
    1.2044   68.3904   81.6618 C   0  0  0  0  0  0  0  0  0  0  0  0
    1.8617   68.5051   82.8856 C   0  0  0  0  0  0  0  0  0  0  0  0
    2.0183   67.3861   83.7101 C   0  0  0  0  0  0  0  0  0  0  0  0
  5  6  1  0  0  0
  6  7  1  0  0  0
  7  8  2  0  0  0
  8  1  1  0  0  0
  1  2  1  0  0  0
  2  3  2  0  0  0
  2 15  1  0  0  0
 15 16  1  0  0  0
 16 17  2  0  0  0
 17 18  1  0  0  0
 18 19  2  0  0  0
 19 21  1  0  0  0
 21 22  1  0  0  0
 22 23  1  0  0  0
 23 24  2  0  0  0
 24 25  1  0  0  0
 25 26  2  0  0  0
 26 27  1  0  0  0
 27 28  2  0  0  0
 19 20  1  0  0  0
  8  9  1  0  0  0
  9 10  1  0  0  0
 10 11  1  0  0  0
 11 12  2  0  0  0
 11 13  1  0  0  0
 10  6  2  0  0  0
 20 15  2  0  0  0
 28 23  1  0  0  0
  1  4  1  0  0  0
 13 14  1  0  0  0
M  END
> <minimizedAffinity>
-9.25073

$$$$



 28 30  0  0  0  0  0  0  0  0999 V2000
   -0.7958   62.8186   81.3717 N   0  0  0  0  0  0  0  0  0  0  0  0
    0.0828   62.3000   82.2926 C   0  0  0  0  0  0  0  0  0  0  0  0
    0.6870   61.2364   82.2415 O   0  0  0  0  0  0  0  0  0  0  0  0
   -1.2060   63.7210   81.5880 H   0  0  0  0  0  0  0  0  0  0  0  0
   -0.1794   61.2032   76.9132 C   0  0  0  0  0  0  0  0  0  0  0  0
   -0.9977   61.5018   78.1196 C   0  0  0  0  0  0  0  0  0  0  0  0
   -0.3473   62.0649   79.2109 N   0  0  0  0  0  0  0  0  0  0  0  0
   -1.1979   62.2692   80.1871 C   0  0  0  0  0  0  0  0  0  0  0  0
   -2.8019   61.8093   79.8783 S   0  0  0  0  0  0  0  0  0  0  0  0
   -2.3566   61.2871   78.3024 C   0  0  0  0  0  0  0  0  0  0  0  0
   -3.3663   60.7365   77.4378 C   0  0  0  0  0  0  0  0  0  0  0  0
   -3.5398   59.5720   77.1070 O   0  0  0  0  0  0  0  0  0  0  0  0
   -4.2042   61.6837   76.9588 O   0  0  0  0  0  0  0  0  0  0  0  0
   -4.8195   61.1628   76.4015 H   0  0  0  0  0  0  0  0  0  0  0  0
    0.2720   63.2075   83.4734 C   0  0  0  0  0  0  0  0  0  0  0  0
   -0.1324   62.8009   84.7372 C   0  0  0  0  0  0  0  0  0  0  0  0
    0.0655   63.6754   85.7985 C   0  0  0  0  0  0  0  0  0  0  0  0
    0.6533   64.9158   85.5614 C   0  0  0  0  0  0  0  0  0  0  0  0
    1.0272   65.2586   84.2608 C   0  0  0  0  0  0  0  0  0  0  0  0
    0.8542   64.4142   83.2109 N   0  0  0  0  0  0  0  0  0  0  0  0
    1.6929   66.5910   83.9839 C   0  0  0  0  0  0  0  0  0  0  0  0
    3.0844   66.3888   83.7332 O   0  0  0  0  0  0  0  0  0  0  0  0
    3.9403   66.6011   84.7784 C   0  0  0  0  0  0  0  0  0  0  0  0
    4.3925   65.4367   85.4054 C   0  0  0  0  0  0  0  0  0  0  0  0
    5.2729   65.5060   86.4863 C   0  0  0  0  0  0  0  0  0  0  0  0
    5.7067   66.7457   86.9487 C   0  0  0  0  0  0  0  0  0  0  0  0
    5.2584   67.9116   86.3302 C   0  0  0  0  0  0  0  0  0  0  0  0
    4.3764   67.8416   85.2470 C   0  0  0  0  0  0  0  0  0  0  0  0
  5  6  1  0  0  0
  6  7  1  0  0  0
  7  8  2  0  0  0
  8  1  1  0  0  0
  1  2  1  0  0  0
  2  3  2  0  0  0
  2 15  1  0  0  0
 15 16  1  0  0  0
 16 17  2  0  0  0
 17 18  1  0  0  0
 18 19  2  0  0  0
 19 21  1  0  0  0
 21 22  1  0  0  0
 22 23  1  0  0  0
 23 24  2  0  0  0
 24 25  1  0  0  0
 25 26  2  0  0  0
 26 27  1  0  0  0
 27 28  2  0  0  0
 19 20  1  0  0  0
  8  9  1  0  0  0
  9 10  1  0  0  0
 10 11  1  0  0  0
 11 12  2  0  0  0
 11 13  1  0  0  0
 10  6  2  0  0  0
 20 15  2  0  0  0
 28 23  1  0  0  0
  1  4  1  0  0  0
 13 14  1  0  0  0
M  END
> <minimizedAffinity>
-9.21185

$$$$



 28 30  0  0  0  0  0  0  0  0999 V2000
   -1.4949   62.3733   82.4357 N   0  0  0  0  0  0  0  0  0  0  0  0
   -2.1100   61.7228   83.4785 C   0  0  0  0  0  0  0  0  0  0  0  0
   -2.8218   60.7278   83.4308 O   0  0  0  0  0  0  0  0  0  0  0  0
   -0.9413   63.1908   82.6689 H   0  0  0  0  0  0  0  0  0  0  0  0
   -3.5577   61.9507   78.1423 C   0  0  0  0  0  0  0  0  0  0  0  0
   -2.4136   61.8349   79.0865 C   0  0  0  0  0  0  0  0  0  0  0  0
   -2.6286   62.2234   80.4034 N   0  0  0  0  0  0  0  0  0  0  0  0
   -1.5340   62.0610   81.1062 C   0  0  0  0  0  0  0  0  0  0  0  0
   -0.1965   61.4486   80.2603 S   0  0  0  0  0  0  0  0  0  0  0  0
   -1.1302   61.3793   78.8189 C   0  0  0  0  0  0  0  0  0  0  0  0
   -0.5155   60.8965   77.6110 C   0  0  0  0  0  0  0  0  0  0  0  0
   -0.0833   61.5363   76.6626 O   0  0  0  0  0  0  0  0  0  0  0  0
   -0.4340   59.5470   77.5803 O   0  0  0  0  0  0  0  0  0  0  0  0
   -0.0024   59.3784   76.7168 H   0  0  0  0  0  0  0  0  0  0  0  0
   -1.8244   62.3710   84.8022 C   0  0  0  0  0  0  0  0  0  0  0  0
   -2.7207   62.2349   85.8531 C   0  0  0  0  0  0  0  0  0  0  0  0
   -2.4110   62.8519   87.0588 C   0  0  0  0  0  0  0  0  0  0  0  0
   -1.2280   63.5788   87.1704 C   0  0  0  0  0  0  0  0  0  0  0  0
   -0.3790   63.6781   86.0668 C   0  0  0  0  0  0  0  0  0  0  0  0
   -0.6562   63.0729   84.8827 N   0  0  0  0  0  0  0  0  0  0  0  0
    0.9258   64.4406   86.1735 C   0  0  0  0  0  0  0  0  0  0  0  0
    1.4826   64.6227   84.8709 O   0  0  0  0  0  0  0  0  0  0  0  0
    2.3222   65.6883   84.6987 C   0  0  0  0  0  0  0  0  0  0  0  0
    1.7223   66.8154   84.1303 C   0  0  0  0  0  0  0  0  0  0  0  0
    2.4625   67.9760   83.8995 C   0  0  0  0  0  0  0  0  0  0  0  0
    3.8129   68.0154   84.2365 C   0  0  0  0  0  0  0  0  0  0  0  0
    4.4191   66.8947   84.8016 C   0  0  0  0  0  0  0  0  0  0  0  0
    3.6768   65.7320   85.0328 C   0  0  0  0  0  0  0  0  0  0  0  0
  5  6  1  0  0  0
  6  7  1  0  0  0
  7  8  2  0  0  0
  8  1  1  0  0  0
  1  2  1  0  0  0
  2  3  2  0  0  0
  2 15  1  0  0  0
 15 16  1  0  0  0
 16 17  2  0  0  0
 17 18  1  0  0  0
 18 19  2  0  0  0
 19 21  1  0  0  0
 21 22  1  0  0  0
 22 23  1  0  0  0
 23 24  2  0  0  0
 24 25  1  0  0  0
 25 26  2  0  0  0
 26 27  1  0  0  0
 27 28  2  0  0  0
 19 20  1  0  0  0
  8  9  1  0  0  0
  9 10  1  0  0  0
 10 11  1  0  0  0
 11 12  2  0  0  0
 11 13  1  0  0  0
 10  6  2  0  0  0
 20 15  2  0  0  0
 28 23  1  0  0  0
  1  4  1  0  0  0
 13 14  1  0  0  0
M  END
> <minimizedAffinity>
-9.13600

$$$$



 28 30  0  0  0  0  0  0  0  0999 V2000
   -0.8380   62.6063   82.3561 N   0  0  0  0  0  0  0  0  0  0  0  0
   -1.2500   62.2808   83.6262 C   0  0  0  0  0  0  0  0  0  0  0  0
   -2.0505   61.4167   83.9603 O   0  0  0  0  0  0  0  0  0  0  0  0
   -0.1643   63.3603   82.2725 H   0  0  0  0  0  0  0  0  0  0  0  0
   -3.8899   61.6621   78.7977 C   0  0  0  0  0  0  0  0  0  0  0  0
   -2.5755   61.5567   79.4873 C   0  0  0  0  0  0  0  0  0  0  0  0
   -2.4288   62.2332   80.6923 N   0  0  0  0  0  0  0  0  0  0  0  0
   -1.2245   62.0420   81.1734 C   0  0  0  0  0  0  0  0  0  0  0  0
   -0.2015   61.0634   80.2378 S   0  0  0  0  0  0  0  0  0  0  0  0
   -1.4508   60.8554   79.0757 C   0  0  0  0  0  0  0  0  0  0  0  0
   -1.1965   60.0454   77.9141 C   0  0  0  0  0  0  0  0  0  0  0  0
   -0.6565   60.3609   76.8633 O   0  0  0  0  0  0  0  0  0  0  0  0
   -1.6372   58.7760   78.0669 O   0  0  0  0  0  0  0  0  0  0  0  0
   -1.3955   58.3615   77.2124 H   0  0  0  0  0  0  0  0  0  0  0  0
   -0.5926   63.1316   84.6740 C   0  0  0  0  0  0  0  0  0  0  0  0
   -0.7381   62.8188   86.0183 C   0  0  0  0  0  0  0  0  0  0  0  0
   -0.1091   63.6353   86.9500 C   0  0  0  0  0  0  0  0  0  0  0  0
    0.6348   64.7276   86.5096 C   0  0  0  0  0  0  0  0  0  0  0  0
    0.7294   64.9840   85.1406 C   0  0  0  0  0  0  0  0  0  0  0  0
    0.1328   64.1920   84.2122 N   0  0  0  0  0  0  0  0  0  0  0  0
    1.5554   66.1502   84.6377 C   0  0  0  0  0  0  0  0  0  0  0  0
    2.8168   65.6757   84.1647 O   0  0  0  0  0  0  0  0  0  0  0  0
    3.9258   66.0538   84.8698 C   0  0  0  0  0  0  0  0  0  0  0  0
    4.4817   67.2722   84.4698 C   0  0  0  0  0  0  0  0  0  0  0  0
    5.6160   67.7800   85.1052 C   0  0  0  0  0  0  0  0  0  0  0  0
    6.2035   67.0685   86.1479 C   0  0  0  0  0  0  0  0  0  0  0  0
    5.6563   65.8516   86.5512 C   0  0  0  0  0  0  0  0  0  0  0  0
    4.5196   65.3432   85.9143 C   0  0  0  0  0  0  0  0  0  0  0  0
  5  6  1  0  0  0
  6  7  1  0  0  0
  7  8  2  0  0  0
  8  1  1  0  0  0
  1  2  1  0  0  0
  2  3  2  0  0  0
  2 15  1  0  0  0
 15 16  1  0  0  0
 16 17  2  0  0  0
 17 18  1  0  0  0
 18 19  2  0  0  0
 19 21  1  0  0  0
 21 22  1  0  0  0
 22 23  1  0  0  0
 23 24  2  0  0  0
 24 25  1  0  0  0
 25 26  2  0  0  0
 26 27  1  0  0  0
 27 28  2  0  0  0
 19 20  1  0  0  0
  8  9  1  0  0  0
  9 10  1  0  0  0
 10 11  1  0  0  0
 11 12  2  0  0  0
 11 13  1  0  0  0
 10  6  2  0  0  0
 20 15  2  0  0  0
 28 23  1  0  0  0
  1  4  1  0  0  0
 13 14  1  0  0  0
M  END
> <minimizedAffinity>
-9.04844

$$$$



 28 30  0  0  0  0  0  0  0  0999 V2000
   -0.7715   63.7907   80.4360 N   0  0  0  0  0  0  0  0  0  0  0  0
    0.0566   64.1252   81.4806 C   0  0  0  0  0  0  0  0  0  0  0  0
    0.5413   63.3830   82.3251 O   0  0  0  0  0  0  0  0  0  0  0  0
   -1.0790   64.5480   79.8349 H   0  0  0  0  0  0  0  0  0  0  0  0
   -0.9506   59.7816   77.8354 C   0  0  0  0  0  0  0  0  0  0  0  0
   -1.3924   60.6695   78.9447 C   0  0  0  0  0  0  0  0  0  0  0  0
   -0.7444   61.8911   79.0836 N   0  0  0  0  0  0  0  0  0  0  0  0
   -1.2450   62.5546   80.0973 C   0  0  0  0  0  0  0  0  0  0  0  0
   -2.4972   61.7808   80.9414 S   0  0  0  0  0  0  0  0  0  0  0  0
   -2.3896   60.4328   79.8805 C   0  0  0  0  0  0  0  0  0  0  0  0
   -3.2751   59.3161   80.0778 C   0  0  0  0  0  0  0  0  0  0  0  0
   -4.0561   58.8082   79.2856 O   0  0  0  0  0  0  0  0  0  0  0  0
   -3.1851   58.8039   81.3262 O   0  0  0  0  0  0  0  0  0  0  0  0
   -3.8327   58.0687   81.3028 H   0  0  0  0  0  0  0  0  0  0  0  0
    0.3571   65.5955   81.5211 C   0  0  0  0  0  0  0  0  0  0  0  0
   -0.2279   66.4525   80.5994 C   0  0  0  0  0  0  0  0  0  0  0  0
    0.0801   67.8049   80.6788 C   0  0  0  0  0  0  0  0  0  0  0  0
    0.9561   68.2494   81.6665 C   0  0  0  0  0  0  0  0  0  0  0  0
    1.5120   67.3265   82.5541 C   0  0  0  0  0  0  0  0  0  0  0  0
    1.2153   66.0019   82.5021 N   0  0  0  0  0  0  0  0  0  0  0  0
    2.4456   67.7910   83.6531 C   0  0  0  0  0  0  0  0  0  0  0  0
    3.6459   67.0174   83.6214 O   0  0  0  0  0  0  0  0  0  0  0  0
    4.3055   66.8472   84.8072 C   0  0  0  0  0  0  0  0  0  0  0  0
    4.4152   65.5182   85.2260 C   0  0  0  0  0  0  0  0  0  0  0  0
    5.0664   65.1990   86.4185 C   0  0  0  0  0  0  0  0  0  0  0  0
    5.6129   66.2116   87.2026 C   0  0  0  0  0  0  0  0  0  0  0  0
    5.5057   67.5395   86.7929 C   0  0  0  0  0  0  0  0  0  0  0  0
    4.8531   67.8589   85.5977 C   0  0  0  0  0  0  0  0  0  0  0  0
  5  6  1  0  0  0
  6  7  1  0  0  0
  7  8  2  0  0  0
  8  1  1  0  0  0
  1  2  1  0  0  0
  2  3  2  0  0  0
  2 15  1  0  0  0
 15 16  1  0  0  0
 16 17  2  0  0  0
 17 18  1  0  0  0
 18 19  2  0  0  0
 19 21  1  0  0  0
 21 22  1  0  0  0
 22 23  1  0  0  0
 23 24  2  0  0  0
 24 25  1  0  0  0
 25 26  2  0  0  0
 26 27  1  0  0  0
 27 28  2  0  0  0
 19 20  1  0  0  0
  8  9  1  0  0  0
  9 10  1  0  0  0
 10 11  1  0  0  0
 11 12  2  0  0  0
 11 13  1  0  0  0
 10  6  2  0  0  0
 20 15  2  0  0  0
 28 23  1  0  0  0
  1  4  1  0  0  0
 13 14  1  0  0  0
M  END
> <minimizedAffinity>
-9.00175

$$$$
