


 33 36  0  0  0  0  0  0  0  0999 V2000
    1.6698   67.8028   82.5853 C   0  0  0  0  0  0  0  0  0  0  0  0
    2.6169   68.8370   82.5751 C   0  0  0  0  0  0  0  0  0  0  0  0
    3.7771   68.7579   83.3506 C   0  0  0  0  0  0  0  0  0  0  0  0
    4.0150   67.6471   84.1605 C   0  0  0  0  0  0  0  0  0  0  0  0
    3.0737   66.6091   84.1712 C   0  0  0  0  0  0  0  0  0  0  0  0
    1.8989   66.6683   83.3947 C   0  0  0  0  0  0  0  0  0  0  0  0
    0.9653   65.4866   83.4899 C   0  0  0  0  0  0  0  0  0  0  0  0
    0.6900   64.9713   84.6592 N   0  0  0  0  0  0  0  0  0  0  0  0
   -0.1862   63.8863   84.6152 C   0  0  0  0  0  0  0  0  0  0  0  0
   -0.7002   63.1010   85.6597 C   0  0  0  0  0  0  0  0  0  0  0  0
   -1.5213   62.1485   85.1768 N   0  0  0  0  0  0  0  0  0  0  0  0
   -1.5100   62.3538   83.8359 N   0  0  0  0  0  0  0  0  0  0  0  0
   -2.2940   61.5058   82.9710 C   0  0  0  0  0  0  0  0  0  0  0  0
   -0.7168   63.3924   83.4625 C   0  0  0  0  0  0  0  0  0  0  0  0
   -0.4239   63.9396   82.1904 C   0  0  0  0  0  0  0  0  0  0  0  0
   -0.8605   63.5387   81.1179 O   0  0  0  0  0  0  0  0  0  0  0  0
    0.4372   65.0071   82.2948 N   0  0  0  0  0  0  0  0  0  0  0  0
    0.7009   65.4472   81.4231 H   0  0  0  0  0  0  0  0  0  0  0  0
   -0.4418   63.2200   87.1202 C   0  0  0  0  0  0  0  0  0  0  0  0
   -1.7236   63.1873   87.9383 C   0  0  0  0  0  0  0  0  0  0  0  0
    0.5170   67.8344   81.8401 O   0  0  0  0  0  0  0  0  0  0  0  0
   -0.1759   69.3549   80.1442 C   0  0  0  0  0  0  0  0  0  0  0  0
    0.6211   68.0967   80.4392 C   0  0  0  0  0  0  0  0  0  0  0  0
    5.2758   67.5477   84.9858 C   0  0  0  0  0  0  0  0  0  0  0  0
    6.0502   66.3175   84.6050 C   0  0  0  0  0  0  0  0  0  0  0  0
    7.3447   65.9733   85.2939 C   0  0  0  0  0  0  0  0  0  0  0  0
    6.1228   65.1117   85.5240 C   0  0  0  0  0  0  0  0  0  0  0  0
    5.4236   65.0996   86.8305 C   0  0  0  0  0  0  0  0  0  0  0  0
    4.2473   64.7685   86.9230 O   0  0  0  0  0  0  0  0  0  0  0  0
    6.2044   65.4299   87.9072 N   0  0  0  0  0  0  0  0  0  0  0  0
    5.6239   65.2242   89.1797 O   0  0  0  0  0  0  0  0  0  0  0  0
    7.2167   65.4460   87.8619 H   0  0  0  0  0  0  0  0  0  0  0  0
    4.7233   64.9029   88.9528 H   0  0  0  0  0  0  0  0  0  0  0  0
 22 23  1  0  0  0
 23 21  1  0  0  0
 21  1  1  0  0  0
  1  2  1  0  0  0
  2  3  2  0  0  0
  3  4  1  0  0  0
  4 24  1  0  0  0
 24 25  1  0  0  0
 25 26  1  0  0  0
 26 27  1  0  0  0
 27 28  1  0  0  0
 28 29  2  0  0  0
 28 30  1  0  0  0
 30 31  1  0  0  0
  4  5  2  0  0  0
  5  6  1  0  0  0
  6  7  1  0  0  0
  7  8  2  0  0  0
  8  9  1  0  0  0
  9 10  1  0  0  0
 10 19  1  0  0  0
 19 20  1  0  0  0
 10 11  2  0  0  0
 11 12  1  0  0  0
 12 13  1  0  0  0
 12 14  1  0  0  0
 14 15  1  0  0  0
 15 16  2  0  0  0
 15 17  1  0  0  0
  6  1  2  0  0  0
 17  7  1  0  0  0
 27 25  1  0  0  0
 14  9  2  0  0  0
 30 32  1  0  0  0
 31 33  1  0  0  0
 17 18  1  0  0  0
M  END
> <minimizedAffinity>
-10.16975

$$$$



 33 36  0  0  0  0  0  0  0  0999 V2000
    0.8864   66.3590   82.0629 C   0  0  0  0  0  0  0  0  0  0  0  0
    1.8250   67.3951   82.1721 C   0  0  0  0  0  0  0  0  0  0  0  0
    2.8150   67.3684   83.1585 C   0  0  0  0  0  0  0  0  0  0  0  0
    2.8859   66.3096   84.0642 C   0  0  0  0  0  0  0  0  0  0  0  0
    1.9527   65.2697   83.9570 C   0  0  0  0  0  0  0  0  0  0  0  0
    0.9486   65.2765   82.9679 C   0  0  0  0  0  0  0  0  0  0  0  0
    0.0058   64.0982   82.9535 C   0  0  0  0  0  0  0  0  0  0  0  0
   -0.7040   63.8238   84.0163 N   0  0  0  0  0  0  0  0  0  0  0  0
   -1.5382   62.7140   83.8772 C   0  0  0  0  0  0  0  0  0  0  0  0
   -2.4322   62.1389   84.7947 C   0  0  0  0  0  0  0  0  0  0  0  0
   -3.0468   61.0703   84.2514 N   0  0  0  0  0  0  0  0  0  0  0  0
   -2.5286   60.9941   83.0001 N   0  0  0  0  0  0  0  0  0  0  0  0
   -2.9624   59.9503   82.1034 C   0  0  0  0  0  0  0  0  0  0  0  0
   -1.6172   61.9684   82.7405 C   0  0  0  0  0  0  0  0  0  0  0  0
   -0.8515   62.2536   81.5847 C   0  0  0  0  0  0  0  0  0  0  0  0
   -0.8701   61.6198   80.5361 O   0  0  0  0  0  0  0  0  0  0  0  0
   -0.0546   63.3581   81.7764 N   0  0  0  0  0  0  0  0  0  0  0  0
    0.5308   63.6201   80.9943 H   0  0  0  0  0  0  0  0  0  0  0  0
   -2.7337   62.5691   86.1867 C   0  0  0  0  0  0  0  0  0  0  0  0
   -1.6222   62.2029   87.1582 C   0  0  0  0  0  0  0  0  0  0  0  0
   -0.1024   66.3402   81.1105 O   0  0  0  0  0  0  0  0  0  0  0  0
    0.8584   65.5528   79.0796 C   0  0  0  0  0  0  0  0  0  0  0  0
    0.2287   66.7436   79.7801 C   0  0  0  0  0  0  0  0  0  0  0  0
    3.9649   66.2661   85.1199 C   0  0  0  0  0  0  0  0  0  0  0  0
    4.6174   67.6134   85.2514 C   0  0  0  0  0  0  0  0  0  0  0  0
    5.2566   68.0410   86.5466 C   0  0  0  0  0  0  0  0  0  0  0  0
    6.1258   67.7571   85.3415 C   0  0  0  0  0  0  0  0  0  0  0  0
    7.0136   66.5715   85.2940 C   0  0  0  0  0  0  0  0  0  0  0  0
    7.1231   65.8161   86.2527 O   0  0  0  0  0  0  0  0  0  0  0  0
    7.6433   66.3685   84.0938 N   0  0  0  0  0  0  0  0  0  0  0  0
    8.3260   65.1386   83.9528 O   0  0  0  0  0  0  0  0  0  0  0  0
    7.3536   66.8329   83.2409 H   0  0  0  0  0  0  0  0  0  0  0  0
    8.1953   64.7211   84.8328 H   0  0  0  0  0  0  0  0  0  0  0  0
 22 23  1  0  0  0
 23 21  1  0  0  0
 21  1  1  0  0  0
  1  2  1  0  0  0
  2  3  2  0  0  0
  3  4  1  0  0  0
  4 24  1  0  0  0
 24 25  1  0  0  0
 25 26  1  0  0  0
 26 27  1  0  0  0
 27 28  1  0  0  0
 28 29  2  0  0  0
 28 30  1  0  0  0
 30 31  1  0  0  0
  4  5  2  0  0  0
  5  6  1  0  0  0
  6  7  1  0  0  0
  7  8  2  0  0  0
  8  9  1  0  0  0
  9 10  1  0  0  0
 10 19  1  0  0  0
 19 20  1  0  0  0
 10 11  2  0  0  0
 11 12  1  0  0  0
 12 13  1  0  0  0
 12 14  1  0  0  0
 14 15  1  0  0  0
 15 16  2  0  0  0
 15 17  1  0  0  0
  6  1  2  0  0  0
 17  7  1  0  0  0
 27 25  1  0  0  0
 14  9  2  0  0  0
 30 32  1  0  0  0
 31 33  1  0  0  0
 17 18  1  0  0  0
M  END
> <minimizedAffinity>
-10.02335

$$$$



 33 36  0  0  0  0  0  0  0  0999 V2000
   -0.1498   63.0530   85.3931 C   0  0  0  0  0  0  0  0  0  0  0  0
    0.4340   63.9266   86.3218 C   0  0  0  0  0  0  0  0  0  0  0  0
    1.0310   65.1213   85.9093 C   0  0  0  0  0  0  0  0  0  0  0  0
    1.0656   65.4678   84.5583 C   0  0  0  0  0  0  0  0  0  0  0  0
    0.4801   64.6002   83.6266 C   0  0  0  0  0  0  0  0  0  0  0  0
   -0.1290   63.3924   84.0223 C   0  0  0  0  0  0  0  0  0  0  0  0
   -0.7269   62.5456   82.9255 C   0  0  0  0  0  0  0  0  0  0  0  0
   -0.2105   62.5817   81.7252 N   0  0  0  0  0  0  0  0  0  0  0  0
   -0.8493   61.7536   80.8016 C   0  0  0  0  0  0  0  0  0  0  0  0
   -0.5692   61.5355   79.4430 C   0  0  0  0  0  0  0  0  0  0  0  0
   -1.4362   60.6489   78.9166 N   0  0  0  0  0  0  0  0  0  0  0  0
   -2.2454   60.3239   79.9558 N   0  0  0  0  0  0  0  0  0  0  0  0
   -3.3167   59.3764   79.7652 C   0  0  0  0  0  0  0  0  0  0  0  0
   -1.9207   60.9703   81.1064 C   0  0  0  0  0  0  0  0  0  0  0  0
   -2.4907   60.9251   82.4013 C   0  0  0  0  0  0  0  0  0  0  0  0
   -3.4561   60.2500   82.7382 O   0  0  0  0  0  0  0  0  0  0  0  0
   -1.8187   61.7539   83.2693 N   0  0  0  0  0  0  0  0  0  0  0  0
   -2.1744   61.7822   84.2157 H   0  0  0  0  0  0  0  0  0  0  0  0
    0.5050   62.1416   78.6109 C   0  0  0  0  0  0  0  0  0  0  0  0
   -0.0310   63.1935   77.6520 C   0  0  0  0  0  0  0  0  0  0  0  0
   -0.7488   61.8702   85.7501 O   0  0  0  0  0  0  0  0  0  0  0  0
   -2.7206   62.4166   86.9671 C   0  0  0  0  0  0  0  0  0  0  0  0
   -1.3464   61.7755   87.0447 C   0  0  0  0  0  0  0  0  0  0  0  0
    1.6924   66.7663   84.1090 C   0  0  0  0  0  0  0  0  0  0  0  0
    1.8384   66.7822   82.6134 C   0  0  0  0  0  0  0  0  0  0  0  0
    0.8728   67.5503   81.7494 C   0  0  0  0  0  0  0  0  0  0  0  0
    2.3035   68.0251   81.8766 C   0  0  0  0  0  0  0  0  0  0  0  0
    2.6402   69.2694   82.6076 C   0  0  0  0  0  0  0  0  0  0  0  0
    3.7815   69.4959   82.9923 O   0  0  0  0  0  0  0  0  0  0  0  0
    1.6000   70.1482   82.7629 N   0  0  0  0  0  0  0  0  0  0  0  0
    1.9380   71.4251   83.2665 O   0  0  0  0  0  0  0  0  0  0  0  0
    0.7430   70.0785   82.2266 H   0  0  0  0  0  0  0  0  0  0  0  0
    2.9047   71.3428   83.4226 H   0  0  0  0  0  0  0  0  0  0  0  0
 22 23  1  0  0  0
 23 21  1  0  0  0
 21  1  1  0  0  0
  1  2  1  0  0  0
  2  3  2  0  0  0
  3  4  1  0  0  0
  4 24  1  0  0  0
 24 25  1  0  0  0
 25 26  1  0  0  0
 26 27  1  0  0  0
 27 28  1  0  0  0
 28 29  2  0  0  0
 28 30  1  0  0  0
 30 31  1  0  0  0
  4  5  2  0  0  0
  5  6  1  0  0  0
  6  7  1  0  0  0
  7  8  2  0  0  0
  8  9  1  0  0  0
  9 10  1  0  0  0
 10 19  1  0  0  0
 19 20  1  0  0  0
 10 11  2  0  0  0
 11 12  1  0  0  0
 12 13  1  0  0  0
 12 14  1  0  0  0
 14 15  1  0  0  0
 15 16  2  0  0  0
 15 17  1  0  0  0
  6  1  2  0  0  0
 17  7  1  0  0  0
 27 25  1  0  0  0
 14  9  2  0  0  0
 30 32  1  0  0  0
 31 33  1  0  0  0
 17 18  1  0  0  0
M  END
> <minimizedAffinity>
-10.01977

$$$$



 33 36  0  0  0  0  0  0  0  0999 V2000
    1.1323   65.8366   82.0553 C   0  0  0  0  0  0  0  0  0  0  0  0
    1.5645   66.5039   83.2105 C   0  0  0  0  0  0  0  0  0  0  0  0
    1.2755   66.0015   84.4825 C   0  0  0  0  0  0  0  0  0  0  0  0
    0.5414   64.8245   84.6305 C   0  0  0  0  0  0  0  0  0  0  0  0
    0.1105   64.1516   83.4793 C   0  0  0  0  0  0  0  0  0  0  0  0
    0.3937   64.6401   82.1879 C   0  0  0  0  0  0  0  0  0  0  0  0
   -0.1219   63.8238   81.0281 C   0  0  0  0  0  0  0  0  0  0  0  0
   -1.2465   63.1682   81.1470 N   0  0  0  0  0  0  0  0  0  0  0  0
   -1.6170   62.4548   80.0065 C   0  0  0  0  0  0  0  0  0  0  0  0
   -2.7467   61.6543   79.7726 C   0  0  0  0  0  0  0  0  0  0  0  0
   -2.7175   61.1459   78.5253 N   0  0  0  0  0  0  0  0  0  0  0  0
   -1.5694   61.6384   77.9966 N   0  0  0  0  0  0  0  0  0  0  0  0
   -1.1974   61.3021   76.6437 C   0  0  0  0  0  0  0  0  0  0  0  0
   -0.8817   62.4308   78.8607 C   0  0  0  0  0  0  0  0  0  0  0  0
    0.3389   63.1337   78.7210 C   0  0  0  0  0  0  0  0  0  0  0  0
    1.0501   63.1474   77.7232 O   0  0  0  0  0  0  0  0  0  0  0  0
    0.6505   63.8221   79.8704 N   0  0  0  0  0  0  0  0  0  0  0  0
    1.5167   64.3439   79.8503 H   0  0  0  0  0  0  0  0  0  0  0  0
   -3.8714   61.3482   80.6974 C   0  0  0  0  0  0  0  0  0  0  0  0
   -3.4338   60.4922   81.8759 C   0  0  0  0  0  0  0  0  0  0  0  0
    1.3928   66.2900   80.7857 O   0  0  0  0  0  0  0  0  0  0  0  0
   -0.4994   67.6414   80.2749 C   0  0  0  0  0  0  0  0  0  0  0  0
    1.0088   67.6247   80.4493 C   0  0  0  0  0  0  0  0  0  0  0  0
    0.2426   64.2669   86.0019 C   0  0  0  0  0  0  0  0  0  0  0  0
   -0.9303   63.3296   85.9372 C   0  0  0  0  0  0  0  0  0  0  0  0
   -0.7429   61.8431   86.0920 C   0  0  0  0  0  0  0  0  0  0  0  0
   -1.4499   62.6249   87.1771 C   0  0  0  0  0  0  0  0  0  0  0  0
   -0.8236   62.8425   88.5024 C   0  0  0  0  0  0  0  0  0  0  0  0
   -1.1732   63.7637   89.2311 O   0  0  0  0  0  0  0  0  0  0  0  0
    0.1189   61.9126   88.8561 N   0  0  0  0  0  0  0  0  0  0  0  0
    0.5779   61.9732   90.1919 O   0  0  0  0  0  0  0  0  0  0  0  0
    0.2144   61.0243   88.3779 H   0  0  0  0  0  0  0  0  0  0  0  0
    0.0921   62.7495   90.5484 H   0  0  0  0  0  0  0  0  0  0  0  0
 22 23  1  0  0  0
 23 21  1  0  0  0
 21  1  1  0  0  0
  1  2  1  0  0  0
  2  3  2  0  0  0
  3  4  1  0  0  0
  4 24  1  0  0  0
 24 25  1  0  0  0
 25 26  1  0  0  0
 26 27  1  0  0  0
 27 28  1  0  0  0
 28 29  2  0  0  0
 28 30  1  0  0  0
 30 31  1  0  0  0
  4  5  2  0  0  0
  5  6  1  0  0  0
  6  7  1  0  0  0
  7  8  2  0  0  0
  8  9  1  0  0  0
  9 10  1  0  0  0
 10 19  1  0  0  0
 19 20  1  0  0  0
 10 11  2  0  0  0
 11 12  1  0  0  0
 12 13  1  0  0  0
 12 14  1  0  0  0
 14 15  1  0  0  0
 15 16  2  0  0  0
 15 17  1  0  0  0
  6  1  2  0  0  0
 17  7  1  0  0  0
 27 25  1  0  0  0
 14  9  2  0  0  0
 30 32  1  0  0  0
 31 33  1  0  0  0
 17 18  1  0  0  0
M  END
> <minimizedAffinity>
-10.01007

$$$$



 33 36  0  0  0  0  0  0  0  0999 V2000
   -0.1396   62.9887   85.5773 C   0  0  0  0  0  0  0  0  0  0  0  0
    0.4186   63.8512   86.5318 C   0  0  0  0  0  0  0  0  0  0  0  0
    0.9617   65.0837   86.1578 C   0  0  0  0  0  0  0  0  0  0  0  0
    0.9668   65.4803   84.8202 C   0  0  0  0  0  0  0  0  0  0  0  0
    0.4066   64.6238   83.8630 C   0  0  0  0  0  0  0  0  0  0  0  0
   -0.1483   63.3784   84.2198 C   0  0  0  0  0  0  0  0  0  0  0  0
   -0.7235   62.5483   83.0985 C   0  0  0  0  0  0  0  0  0  0  0  0
   -0.1797   62.5985   81.9108 N   0  0  0  0  0  0  0  0  0  0  0  0
   -0.7998   61.7848   80.9620 C   0  0  0  0  0  0  0  0  0  0  0  0
   -0.4894   61.5839   79.6074 C   0  0  0  0  0  0  0  0  0  0  0  0
   -1.3469   60.7072   79.0495 N   0  0  0  0  0  0  0  0  0  0  0  0
   -2.1806   60.3713   80.0655 N   0  0  0  0  0  0  0  0  0  0  0  0
   -3.2502   59.4299   79.8380 C   0  0  0  0  0  0  0  0  0  0  0  0
   -1.8803   61.0012   81.2318 C   0  0  0  0  0  0  0  0  0  0  0  0
   -2.4798   60.9408   82.5126 C   0  0  0  0  0  0  0  0  0  0  0  0
   -3.4548   60.2646   82.8184 O   0  0  0  0  0  0  0  0  0  0  0  0
   -1.8253   61.7558   83.4068 N   0  0  0  0  0  0  0  0  0  0  0  0
   -2.2025   61.7727   84.3451 H   0  0  0  0  0  0  0  0  0  0  0  0
    0.6054   62.1974   78.8081 C   0  0  0  0  0  0  0  0  0  0  0  0
    0.2782   63.6180   78.3747 C   0  0  0  0  0  0  0  0  0  0  0  0
   -0.6858   61.7700   85.8963 O   0  0  0  0  0  0  0  0  0  0  0  0
   -2.7459   62.3868   86.9178 C   0  0  0  0  0  0  0  0  0  0  0  0
   -1.4290   61.6563   87.1116 C   0  0  0  0  0  0  0  0  0  0  0  0
    1.5349   66.8190   84.4129 C   0  0  0  0  0  0  0  0  0  0  0  0
    2.6900   66.6280   83.4708 C   0  0  0  0  0  0  0  0  0  0  0  0
    3.6114   67.7709   83.1338 C   0  0  0  0  0  0  0  0  0  0  0  0
    4.1240   66.6178   83.9682 C   0  0  0  0  0  0  0  0  0  0  0  0
    4.4384   66.7876   85.4064 C   0  0  0  0  0  0  0  0  0  0  0  0
    4.6493   65.8233   86.1327 O   0  0  0  0  0  0  0  0  0  0  0  0
    4.5251   68.0881   85.8297 N   0  0  0  0  0  0  0  0  0  0  0  0
    5.0268   68.2818   87.1371 O   0  0  0  0  0  0  0  0  0  0  0  0
    4.6090   68.8663   85.1860 H   0  0  0  0  0  0  0  0  0  0  0  0
    5.1658   67.3607   87.4498 H   0  0  0  0  0  0  0  0  0  0  0  0
 22 23  1  0  0  0
 23 21  1  0  0  0
 21  1  1  0  0  0
  1  2  1  0  0  0
  2  3  2  0  0  0
  3  4  1  0  0  0
  4 24  1  0  0  0
 24 25  1  0  0  0
 25 26  1  0  0  0
 26 27  1  0  0  0
 27 28  1  0  0  0
 28 29  2  0  0  0
 28 30  1  0  0  0
 30 31  1  0  0  0
  4  5  2  0  0  0
  5  6  1  0  0  0
  6  7  1  0  0  0
  7  8  2  0  0  0
  8  9  1  0  0  0
  9 10  1  0  0  0
 10 19  1  0  0  0
 19 20  1  0  0  0
 10 11  2  0  0  0
 11 12  1  0  0  0
 12 13  1  0  0  0
 12 14  1  0  0  0
 14 15  1  0  0  0
 15 16  2  0  0  0
 15 17  1  0  0  0
  6  1  2  0  0  0
 17  7  1  0  0  0
 27 25  1  0  0  0
 14  9  2  0  0  0
 30 32  1  0  0  0
 31 33  1  0  0  0
 17 18  1  0  0  0
M  END
> <minimizedAffinity>
-10.00537

$$$$



 33 36  0  0  0  0  0  0  0  0999 V2000
   -0.5773   64.2852   81.5050 C   0  0  0  0  0  0  0  0  0  0  0  0
   -1.3809   63.1393   81.5916 C   0  0  0  0  0  0  0  0  0  0  0  0
   -1.5325   62.4563   82.8017 C   0  0  0  0  0  0  0  0  0  0  0  0
   -0.8786   62.8977   83.9523 C   0  0  0  0  0  0  0  0  0  0  0  0
   -0.0774   64.0446   83.8721 C   0  0  0  0  0  0  0  0  0  0  0  0
    0.0862   64.7490   82.6624 C   0  0  0  0  0  0  0  0  0  0  0  0
    0.9716   65.9702   82.7055 C   0  0  0  0  0  0  0  0  0  0  0  0
    2.0126   65.9879   83.4960 N   0  0  0  0  0  0  0  0  0  0  0  0
    2.7518   67.1700   83.4434 C   0  0  0  0  0  0  0  0  0  0  0  0
    3.9160   67.5357   84.1383 C   0  0  0  0  0  0  0  0  0  0  0  0
    4.3070   68.7764   83.7883 N   0  0  0  0  0  0  0  0  0  0  0  0
    3.3814   69.1679   82.8772 N   0  0  0  0  0  0  0  0  0  0  0  0
    3.4784   70.4716   82.2667 C   0  0  0  0  0  0  0  0  0  0  0  0
    2.4302   68.2252   82.6451 C   0  0  0  0  0  0  0  0  0  0  0  0
    1.3041   68.2193   81.7875 C   0  0  0  0  0  0  0  0  0  0  0  0
    0.9562   69.1357   81.0522 O   0  0  0  0  0  0  0  0  0  0  0  0
    0.6182   67.0303   81.8758 N   0  0  0  0  0  0  0  0  0  0  0  0
   -0.2072   66.9538   81.2963 H   0  0  0  0  0  0  0  0  0  0  0  0
    4.6860   66.7435   85.1350 C   0  0  0  0  0  0  0  0  0  0  0  0
    5.3218   67.6199   86.2030 C   0  0  0  0  0  0  0  0  0  0  0  0
   -0.3992   64.9900   80.3401 O   0  0  0  0  0  0  0  0  0  0  0  0
    1.2733   65.4501   78.7096 C   0  0  0  0  0  0  0  0  0  0  0  0
    0.3592   64.3859   79.2903 C   0  0  0  0  0  0  0  0  0  0  0  0
   -1.0538   62.1748   85.2666 C   0  0  0  0  0  0  0  0  0  0  0  0
   -2.2645   62.6957   85.9885 C   0  0  0  0  0  0  0  0  0  0  0  0
   -2.7322   62.0626   87.2727 C   0  0  0  0  0  0  0  0  0  0  0  0
   -2.1405   63.4546   87.2971 C   0  0  0  0  0  0  0  0  0  0  0  0
   -0.8166   63.7184   87.9085 C   0  0  0  0  0  0  0  0  0  0  0  0
   -0.0849   64.6079   87.4897 O   0  0  0  0  0  0  0  0  0  0  0  0
   -0.5139   62.9358   88.9920 N   0  0  0  0  0  0  0  0  0  0  0  0
    0.6413   63.3043   89.7188 O   0  0  0  0  0  0  0  0  0  0  0  0
   -1.2141   62.3951   89.4864 H   0  0  0  0  0  0  0  0  0  0  0  0
    0.9818   64.0685   89.2032 H   0  0  0  0  0  0  0  0  0  0  0  0
 22 23  1  0  0  0
 23 21  1  0  0  0
 21  1  1  0  0  0
  1  2  1  0  0  0
  2  3  2  0  0  0
  3  4  1  0  0  0
  4 24  1  0  0  0
 24 25  1  0  0  0
 25 26  1  0  0  0
 26 27  1  0  0  0
 27 28  1  0  0  0
 28 29  2  0  0  0
 28 30  1  0  0  0
 30 31  1  0  0  0
  4  5  2  0  0  0
  5  6  1  0  0  0
  6  7  1  0  0  0
  7  8  2  0  0  0
  8  9  1  0  0  0
  9 10  1  0  0  0
 10 19  1  0  0  0
 19 20  1  0  0  0
 10 11  2  0  0  0
 11 12  1  0  0  0
 12 13  1  0  0  0
 12 14  1  0  0  0
 14 15  1  0  0  0
 15 16  2  0  0  0
 15 17  1  0  0  0
  6  1  2  0  0  0
 17  7  1  0  0  0
 27 25  1  0  0  0
 14  9  2  0  0  0
 30 32  1  0  0  0
 31 33  1  0  0  0
 17 18  1  0  0  0
M  END
> <minimizedAffinity>
-9.92085

$$$$



 33 36  0  0  0  0  0  0  0  0999 V2000
    1.7132   67.2584   82.9091 C   0  0  0  0  0  0  0  0  0  0  0  0
    2.5720   68.2678   82.4510 C   0  0  0  0  0  0  0  0  0  0  0  0
    3.8177   68.4791   83.0488 C   0  0  0  0  0  0  0  0  0  0  0  0
    4.2317   67.6918   84.1236 C   0  0  0  0  0  0  0  0  0  0  0  0
    3.3789   66.6790   84.5827 C   0  0  0  0  0  0  0  0  0  0  0  0
    2.1202   66.4481   83.9920 C   0  0  0  0  0  0  0  0  0  0  0  0
    1.2957   65.3263   84.5741 C   0  0  0  0  0  0  0  0  0  0  0  0
    0.5144   64.6252   83.7952 N   0  0  0  0  0  0  0  0  0  0  0  0
   -0.1925   63.6165   84.4507 C   0  0  0  0  0  0  0  0  0  0  0  0
   -1.1050   62.6790   83.9407 C   0  0  0  0  0  0  0  0  0  0  0  0
   -1.5595   61.8769   84.9230 N   0  0  0  0  0  0  0  0  0  0  0  0
   -0.9220   62.3242   86.0338 N   0  0  0  0  0  0  0  0  0  0  0  0
   -1.1633   61.6899   87.3071 C   0  0  0  0  0  0  0  0  0  0  0  0
   -0.0908   63.3707   85.7862 C   0  0  0  0  0  0  0  0  0  0  0  0
    0.7491   64.1247   86.6403 C   0  0  0  0  0  0  0  0  0  0  0  0
    0.8799   63.9603   87.8475 O   0  0  0  0  0  0  0  0  0  0  0  0
    1.4241   65.0981   85.9410 N   0  0  0  0  0  0  0  0  0  0  0  0
    2.0399   65.6859   86.4871 H   0  0  0  0  0  0  0  0  0  0  0  0
   -1.5698   62.5088   82.5375 C   0  0  0  0  0  0  0  0  0  0  0  0
   -2.6041   63.5510   82.1409 C   0  0  0  0  0  0  0  0  0  0  0  0
    0.4820   67.0120   82.3535 O   0  0  0  0  0  0  0  0  0  0  0  0
    0.8138   65.7100   80.3882 C   0  0  0  0  0  0  0  0  0  0  0  0
    0.3589   67.0533   80.9303 C   0  0  0  0  0  0  0  0  0  0  0  0
    5.5843   67.9031   84.7610 C   0  0  0  0  0  0  0  0  0  0  0  0
    6.4863   66.7385   84.4635 C   0  0  0  0  0  0  0  0  0  0  0  0
    7.7597   66.5273   85.2398 C   0  0  0  0  0  0  0  0  0  0  0  0
    6.6060   65.5654   85.4191 C   0  0  0  0  0  0  0  0  0  0  0  0
    5.8289   65.5207   86.6802 C   0  0  0  0  0  0  0  0  0  0  0  0
    5.9682   66.3753   87.5474 O   0  0  0  0  0  0  0  0  0  0  0  0
    4.9230   64.4959   86.7651 N   0  0  0  0  0  0  0  0  0  0  0  0
    4.0266   64.5505   87.8568 O   0  0  0  0  0  0  0  0  0  0  0  0
    4.6298   63.9594   85.9569 H   0  0  0  0  0  0  0  0  0  0  0  0
    4.3247   65.3548   88.3364 H   0  0  0  0  0  0  0  0  0  0  0  0
 22 23  1  0  0  0
 23 21  1  0  0  0
 21  1  1  0  0  0
  1  2  1  0  0  0
  2  3  2  0  0  0
  3  4  1  0  0  0
  4 24  1  0  0  0
 24 25  1  0  0  0
 25 26  1  0  0  0
 26 27  1  0  0  0
 27 28  1  0  0  0
 28 29  2  0  0  0
 28 30  1  0  0  0
 30 31  1  0  0  0
  4  5  2  0  0  0
  5  6  1  0  0  0
  6  7  1  0  0  0
  7  8  2  0  0  0
  8  9  1  0  0  0
  9 10  1  0  0  0
 10 19  1  0  0  0
 19 20  1  0  0  0
 10 11  2  0  0  0
 11 12  1  0  0  0
 12 13  1  0  0  0
 12 14  1  0  0  0
 14 15  1  0  0  0
 15 16  2  0  0  0
 15 17  1  0  0  0
  6  1  2  0  0  0
 17  7  1  0  0  0
 27 25  1  0  0  0
 14  9  2  0  0  0
 30 32  1  0  0  0
 31 33  1  0  0  0
 17 18  1  0  0  0
M  END
> <minimizedAffinity>
-9.91618

$$$$



 33 36  0  0  0  0  0  0  0  0999 V2000
    3.5309   65.9370   85.1974 C   0  0  0  0  0  0  0  0  0  0  0  0
    4.4530   66.8485   84.6629 C   0  0  0  0  0  0  0  0  0  0  0  0
    4.1045   67.6833   83.5973 C   0  0  0  0  0  0  0  0  0  0  0  0
    2.8290   67.6221   83.0356 C   0  0  0  0  0  0  0  0  0  0  0  0
    1.9025   66.7158   83.5687 C   0  0  0  0  0  0  0  0  0  0  0  0
    2.2332   65.8674   84.6444 C   0  0  0  0  0  0  0  0  0  0  0  0
    1.1482   64.9382   85.1309 C   0  0  0  0  0  0  0  0  0  0  0  0
    0.4189   64.2847   84.2650 N   0  0  0  0  0  0  0  0  0  0  0  0
   -0.5470   63.4571   84.8384 C   0  0  0  0  0  0  0  0  0  0  0  0
   -1.4901   62.6157   84.2263 C   0  0  0  0  0  0  0  0  0  0  0  0
   -2.2374   61.9870   85.1544 N   0  0  0  0  0  0  0  0  0  0  0  0
   -1.7485   62.4438   86.3345 N   0  0  0  0  0  0  0  0  0  0  0  0
   -2.3147   61.9779   87.5771 C   0  0  0  0  0  0  0  0  0  0  0  0
   -0.7296   63.3304   86.1818 C   0  0  0  0  0  0  0  0  0  0  0  0
    0.0512   64.0350   87.1290 C   0  0  0  0  0  0  0  0  0  0  0  0
   -0.0668   63.9718   88.3470 O   0  0  0  0  0  0  0  0  0  0  0  0
    0.9886   64.8281   86.5091 N   0  0  0  0  0  0  0  0  0  0  0  0
    1.5813   65.3713   87.1228 H   0  0  0  0  0  0  0  0  0  0  0  0
   -1.7141   62.3785   82.7747 C   0  0  0  0  0  0  0  0  0  0  0  0
   -2.5027   63.5025   82.1204 C   0  0  0  0  0  0  0  0  0  0  0  0
    3.8261   65.0984   86.2438 O   0  0  0  0  0  0  0  0  0  0  0  0
    5.4117   65.4614   87.9820 C   0  0  0  0  0  0  0  0  0  0  0  0
    5.1987   64.8992   86.5878 C   0  0  0  0  0  0  0  0  0  0  0  0
    2.4410   68.5350   81.8968 C   0  0  0  0  0  0  0  0  0  0  0  0
    0.9448   68.6099   81.7779 C   0  0  0  0  0  0  0  0  0  0  0  0
    0.2918   69.0783   80.5039 C   0  0  0  0  0  0  0  0  0  0  0  0
    0.1687   67.6286   80.9185 C   0  0  0  0  0  0  0  0  0  0  0  0
    0.8588   66.5520   80.1697 C   0  0  0  0  0  0  0  0  0  0  0  0
    0.8465   65.3911   80.5624 O   0  0  0  0  0  0  0  0  0  0  0  0
    1.4505   66.9494   78.9992 N   0  0  0  0  0  0  0  0  0  0  0  0
    1.9312   65.9139   78.1654 O   0  0  0  0  0  0  0  0  0  0  0  0
    1.2388   67.8353   78.5550 H   0  0  0  0  0  0  0  0  0  0  0  0
    1.7350   65.1083   78.6928 H   0  0  0  0  0  0  0  0  0  0  0  0
 22 23  1  0  0  0
 23 21  1  0  0  0
 21  1  1  0  0  0
  1  2  1  0  0  0
  2  3  2  0  0  0
  3  4  1  0  0  0
  4 24  1  0  0  0
 24 25  1  0  0  0
 25 26  1  0  0  0
 26 27  1  0  0  0
 27 28  1  0  0  0
 28 29  2  0  0  0
 28 30  1  0  0  0
 30 31  1  0  0  0
  4  5  2  0  0  0
  5  6  1  0  0  0
  6  7  1  0  0  0
  7  8  2  0  0  0
  8  9  1  0  0  0
  9 10  1  0  0  0
 10 19  1  0  0  0
 19 20  1  0  0  0
 10 11  2  0  0  0
 11 12  1  0  0  0
 12 13  1  0  0  0
 12 14  1  0  0  0
 14 15  1  0  0  0
 15 16  2  0  0  0
 15 17  1  0  0  0
  6  1  2  0  0  0
 17  7  1  0  0  0
 27 25  1  0  0  0
 14  9  2  0  0  0
 30 32  1  0  0  0
 31 33  1  0  0  0
 17 18  1  0  0  0
M  END
> <minimizedAffinity>
-9.79504

$$$$



 33 36  0  0  0  0  0  0  0  0999 V2000
    3.5041   66.0710   84.9392 C   0  0  0  0  0  0  0  0  0  0  0  0
    4.3679   67.0358   84.4012 C   0  0  0  0  0  0  0  0  0  0  0  0
    3.9191   67.9495   83.4434 C   0  0  0  0  0  0  0  0  0  0  0  0
    2.5985   67.9161   82.9947 C   0  0  0  0  0  0  0  0  0  0  0  0
    1.7301   66.9565   83.5320 C   0  0  0  0  0  0  0  0  0  0  0  0
    2.1623   66.0281   84.5005 C   0  0  0  0  0  0  0  0  0  0  0  0
    1.1319   65.0471   85.0038 C   0  0  0  0  0  0  0  0  0  0  0  0
    0.4233   64.3568   84.1495 N   0  0  0  0  0  0  0  0  0  0  0  0
   -0.4919   63.4834   84.7379 C   0  0  0  0  0  0  0  0  0  0  0  0
   -1.4011   62.5953   84.1407 C   0  0  0  0  0  0  0  0  0  0  0  0
   -2.1025   61.9319   85.0803 N   0  0  0  0  0  0  0  0  0  0  0  0
   -1.6195   62.4144   86.2526 N   0  0  0  0  0  0  0  0  0  0  0  0
   -2.1437   61.9232   87.5039 C   0  0  0  0  0  0  0  0  0  0  0  0
   -0.6483   63.3501   86.0840 C   0  0  0  0  0  0  0  0  0  0  0  0
    0.1106   64.0941   87.0189 C   0  0  0  0  0  0  0  0  0  0  0  0
    0.0137   64.0273   88.2385 O   0  0  0  0  0  0  0  0  0  0  0  0
    0.9983   64.9316   86.3844 N   0  0  0  0  0  0  0  0  0  0  0  0
    1.5723   65.5046   86.9887 H   0  0  0  0  0  0  0  0  0  0  0  0
   -1.6344   62.3448   82.6927 C   0  0  0  0  0  0  0  0  0  0  0  0
   -2.5020   63.4178   82.0530 C   0  0  0  0  0  0  0  0  0  0  0  0
    3.8981   65.1543   85.8825 O   0  0  0  0  0  0  0  0  0  0  0  0
    5.3964   65.4838   87.7030 C   0  0  0  0  0  0  0  0  0  0  0  0
    5.2809   65.0985   86.2389 C   0  0  0  0  0  0  0  0  0  0  0  0
    2.1032   68.9129   81.9741 C   0  0  0  0  0  0  0  0  0  0  0  0
    3.2458   69.4039   81.1305 C   0  0  0  0  0  0  0  0  0  0  0  0
    2.9967   70.0869   79.8113 C   0  0  0  0  0  0  0  0  0  0  0  0
    3.5370   70.8856   80.9769 C   0  0  0  0  0  0  0  0  0  0  0  0
    2.7083   71.9054   81.6621 C   0  0  0  0  0  0  0  0  0  0  0  0
    1.7841   72.4691   81.0878 O   0  0  0  0  0  0  0  0  0  0  0  0
    3.0237   72.1170   82.9789 N   0  0  0  0  0  0  0  0  0  0  0  0
    2.1219   72.9239   83.7097 O   0  0  0  0  0  0  0  0  0  0  0  0
    3.6007   71.4760   83.5109 H   0  0  0  0  0  0  0  0  0  0  0  0
    1.4624   73.1775   83.0268 H   0  0  0  0  0  0  0  0  0  0  0  0
 22 23  1  0  0  0
 23 21  1  0  0  0
 21  1  1  0  0  0
  1  2  1  0  0  0
  2  3  2  0  0  0
  3  4  1  0  0  0
  4 24  1  0  0  0
 24 25  1  0  0  0
 25 26  1  0  0  0
 26 27  1  0  0  0
 27 28  1  0  0  0
 28 29  2  0  0  0
 28 30  1  0  0  0
 30 31  1  0  0  0
  4  5  2  0  0  0
  5  6  1  0  0  0
  6  7  1  0  0  0
  7  8  2  0  0  0
  8  9  1  0  0  0
  9 10  1  0  0  0
 10 19  1  0  0  0
 19 20  1  0  0  0
 10 11  2  0  0  0
 11 12  1  0  0  0
 12 13  1  0  0  0
 12 14  1  0  0  0
 14 15  1  0  0  0
 15 16  2  0  0  0
 15 17  1  0  0  0
  6  1  2  0  0  0
 17  7  1  0  0  0
 27 25  1  0  0  0
 14  9  2  0  0  0
 30 32  1  0  0  0
 31 33  1  0  0  0
 17 18  1  0  0  0
M  END
> <minimizedAffinity>
-9.76501

$$$$
