


 20 23  0  0  0  0  0  0  0  0999 V2000
   -0.9965   63.3286   86.6785 N   0  0  0  0  0  0  0  0  0  0  0  0
   -2.0181   62.4095   86.4002 C   0  0  0  0  0  0  0  0  0  0  0  0
   -2.7715   61.9288   87.2421 O   0  0  0  0  0  0  0  0  0  0  0  0
   -2.0980   62.0553   85.0168 C   0  0  0  0  0  0  0  0  0  0  0  0
   -2.9330   61.1972   84.3647 N   0  0  0  0  0  0  0  0  0  0  0  0
   -2.5723   61.2154   83.0330 C   0  0  0  0  0  0  0  0  0  0  0  0
   -3.2716   60.3923   82.0183 C   0  0  0  0  0  0  0  0  0  0  0  0
   -1.5584   62.0394   82.8228 N   0  0  0  0  0  0  0  0  0  0  0  0
   -1.2773   62.5513   84.0473 C   0  0  0  0  0  0  0  0  0  0  0  0
   -0.3359   63.4365   84.3644 N   0  0  0  0  0  0  0  0  0  0  0  0
   -0.1525   63.7922   85.6732 C   0  0  0  0  0  0  0  0  0  0  0  0
    0.8594   64.5889   85.9142 N   0  0  0  0  0  0  0  0  0  0  0  0
    1.4911   64.7940   84.5690 C   0  0  0  0  0  0  0  0  0  0  0  0
    1.3944   66.2589   84.1522 C   0  0  0  0  0  0  0  0  0  0  0  0
    1.1013   66.1988   82.6613 C   0  0  0  0  0  0  0  0  0  0  0  0
    0.1342   65.0305   82.5380 C   0  0  0  0  0  0  0  0  0  0  0  0
    0.6711   63.9938   83.5197 C   0  0  0  0  0  0  0  0  0  0  0  0
   -3.6728   60.6504   84.7860 H   0  0  0  0  0  0  0  0  0  0  0  0
    0.1491   62.7651   88.7864 C   0  0  0  0  0  0  0  0  0  0  0  0
   -0.7777   63.7301   88.0611 C   0  0  0  0  0  0  0  0  0  0  0  0
 19 20  1  0  0  0
 20  1  1  0  0  0
  1  2  1  0  0  0
  2  3  2  0  0  0
  2  4  1  0  0  0
  4  5  1  0  0  0
  5  6  1  0  0  0
  6  7  1  0  0  0
  6  8  2  0  0  0
  8  9  1  0  0  0
  9 10  1  0  0  0
 10 11  1  0  0  0
 11 12  2  0  0  0
 12 13  1  0  0  0
 13 14  1  0  0  0
 14 15  1  0  0  0
 15 16  1  0  0  0
 16 17  1  0  0  0
 11  1  1  0  0  0
 17 13  1  0  0  0
  9  4  2  0  0  0
 17 10  1  0  0  0
  5 18  1  0  0  0
M  END
> <minimizedAffinity>
-8.31622

$$$$



 20 23  0  0  0  0  0  0  0  0999 V2000
   -0.6006   63.0196   85.9796 N   0  0  0  0  0  0  0  0  0  0  0  0
    0.2124   64.0952   86.3642 C   0  0  0  0  0  0  0  0  0  0  0  0
    0.5203   64.3563   87.5238 O   0  0  0  0  0  0  0  0  0  0  0  0
    0.6491   64.8957   85.2624 C   0  0  0  0  0  0  0  0  0  0  0  0
    1.4255   66.0159   85.2288 N   0  0  0  0  0  0  0  0  0  0  0  0
    1.5280   66.3976   83.9068 C   0  0  0  0  0  0  0  0  0  0  0  0
    2.3050   67.5891   83.4912 C   0  0  0  0  0  0  0  0  0  0  0  0
    0.8574   65.5742   83.1173 N   0  0  0  0  0  0  0  0  0  0  0  0
    0.3241   64.6547   83.9602 C   0  0  0  0  0  0  0  0  0  0  0  0
   -0.4358   63.6076   83.6492 N   0  0  0  0  0  0  0  0  0  0  0  0
   -0.9430   62.8179   84.6454 C   0  0  0  0  0  0  0  0  0  0  0  0
   -1.7636   61.8704   84.2639 N   0  0  0  0  0  0  0  0  0  0  0  0
   -1.8618   62.0491   82.7776 C   0  0  0  0  0  0  0  0  0  0  0  0
   -1.2976   60.8288   82.0553 C   0  0  0  0  0  0  0  0  0  0  0  0
   -0.5621   61.4157   80.8607 C   0  0  0  0  0  0  0  0  0  0  0  0
    0.0928   62.6664   81.4284 C   0  0  0  0  0  0  0  0  0  0  0  0
   -0.9576   63.2452   82.3709 C   0  0  0  0  0  0  0  0  0  0  0  0
    1.8411   66.4768   86.0280 H   0  0  0  0  0  0  0  0  0  0  0  0
   -2.4669   62.7035   87.5575 C   0  0  0  0  0  0  0  0  0  0  0  0
   -1.1535   62.1583   87.0155 C   0  0  0  0  0  0  0  0  0  0  0  0
 19 20  1  0  0  0
 20  1  1  0  0  0
  1  2  1  0  0  0
  2  3  2  0  0  0
  2  4  1  0  0  0
  4  5  1  0  0  0
  5  6  1  0  0  0
  6  7  1  0  0  0
  6  8  2  0  0  0
  8  9  1  0  0  0
  9 10  1  0  0  0
 10 11  1  0  0  0
 11 12  2  0  0  0
 12 13  1  0  0  0
 13 14  1  0  0  0
 14 15  1  0  0  0
 15 16  1  0  0  0
 16 17  1  0  0  0
 11  1  1  0  0  0
 17 13  1  0  0  0
  9  4  2  0  0  0
 17 10  1  0  0  0
  5 18  1  0  0  0
M  END
> <minimizedAffinity>
-8.26010

$$$$



 20 23  0  0  0  0  0  0  0  0999 V2000
    0.4527   64.8151   84.5430 N   0  0  0  0  0  0  0  0  0  0  0  0
    0.0041   64.2868   83.3242 C   0  0  0  0  0  0  0  0  0  0  0  0
    0.3062   64.7293   82.2195 O   0  0  0  0  0  0  0  0  0  0  0  0
   -0.8748   63.1696   83.4820 C   0  0  0  0  0  0  0  0  0  0  0  0
   -1.5196   62.4066   82.5542 N   0  0  0  0  0  0  0  0  0  0  0  0
   -2.2552   61.4655   83.2449 C   0  0  0  0  0  0  0  0  0  0  0  0
   -3.0914   60.4579   82.5508 C   0  0  0  0  0  0  0  0  0  0  0  0
   -2.1013   61.6024   84.5520 N   0  0  0  0  0  0  0  0  0  0  0  0
   -1.2498   62.6501   84.6857 C   0  0  0  0  0  0  0  0  0  0  0  0
   -0.7783   63.1788   85.8121 N   0  0  0  0  0  0  0  0  0  0  0  0
    0.0265   64.2845   85.7574 C   0  0  0  0  0  0  0  0  0  0  0  0
    0.3647   64.8048   86.9114 N   0  0  0  0  0  0  0  0  0  0  0  0
   -0.3369   63.9436   87.9198 C   0  0  0  0  0  0  0  0  0  0  0  0
    0.6777   63.2103   88.7927 C   0  0  0  0  0  0  0  0  0  0  0  0
    0.0692   61.8298   88.9835 C   0  0  0  0  0  0  0  0  0  0  0  0
   -0.5291   61.5156   87.6201 C   0  0  0  0  0  0  0  0  0  0  0  0
   -1.1223   62.8421   87.1560 C   0  0  0  0  0  0  0  0  0  0  0  0
   -1.4668   62.5187   81.5500 H   0  0  0  0  0  0  0  0  0  0  0  0
    2.7851   65.6092   84.5926 C   0  0  0  0  0  0  0  0  0  0  0  0
    1.3133   65.9896   84.5191 C   0  0  0  0  0  0  0  0  0  0  0  0
 19 20  1  0  0  0
 20  1  1  0  0  0
  1  2  1  0  0  0
  2  3  2  0  0  0
  2  4  1  0  0  0
  4  5  1  0  0  0
  5  6  1  0  0  0
  6  7  1  0  0  0
  6  8  2  0  0  0
  8  9  1  0  0  0
  9 10  1  0  0  0
 10 11  1  0  0  0
 11 12  2  0  0  0
 12 13  1  0  0  0
 13 14  1  0  0  0
 14 15  1  0  0  0
 15 16  1  0  0  0
 16 17  1  0  0  0
 11  1  1  0  0  0
 17 13  1  0  0  0
  9  4  2  0  0  0
 17 10  1  0  0  0
  5 18  1  0  0  0
M  END
> <minimizedAffinity>
-7.97254

$$$$



 20 23  0  0  0  0  0  0  0  0999 V2000
   -1.3412   63.0748   83.0397 N   0  0  0  0  0  0  0  0  0  0  0  0
   -0.7698   64.1195   82.2995 C   0  0  0  0  0  0  0  0  0  0  0  0
   -0.9929   64.3352   81.1116 O   0  0  0  0  0  0  0  0  0  0  0  0
    0.1346   64.9233   83.0620 C   0  0  0  0  0  0  0  0  0  0  0  0
    0.8854   66.0030   82.7024 N   0  0  0  0  0  0  0  0  0  0  0  0
    1.5947   66.3928   83.8200 C   0  0  0  0  0  0  0  0  0  0  0  0
    2.5254   67.5458   83.7970 C   0  0  0  0  0  0  0  0  0  0  0  0
    1.3242   65.6136   84.8547 N   0  0  0  0  0  0  0  0  0  0  0  0
    0.4247   64.7167   84.3783 C   0  0  0  0  0  0  0  0  0  0  0  0
   -0.1615   63.7210   85.0382 N   0  0  0  0  0  0  0  0  0  0  0  0
   -1.0005   62.8681   84.3735 C   0  0  0  0  0  0  0  0  0  0  0  0
   -1.4561   61.8550   85.0684 N   0  0  0  0  0  0  0  0  0  0  0  0
   -0.8111   62.0154   86.4134 C   0  0  0  0  0  0  0  0  0  0  0  0
   -1.8677   62.2692   87.4848 C   0  0  0  0  0  0  0  0  0  0  0  0
   -1.2253   63.3016   88.3980 C   0  0  0  0  0  0  0  0  0  0  0  0
   -0.5007   64.2266   87.4312 C   0  0  0  0  0  0  0  0  0  0  0  0
    0.0787   63.2884   86.3772 C   0  0  0  0  0  0  0  0  0  0  0  0
    0.9146   66.4295   81.7854 H   0  0  0  0  0  0  0  0  0  0  0  0
   -1.4802   61.0217   81.6837 C   0  0  0  0  0  0  0  0  0  0  0  0
   -2.2411   62.1516   82.3624 C   0  0  0  0  0  0  0  0  0  0  0  0
 19 20  1  0  0  0
 20  1  1  0  0  0
  1  2  1  0  0  0
  2  3  2  0  0  0
  2  4  1  0  0  0
  4  5  1  0  0  0
  5  6  1  0  0  0
  6  7  1  0  0  0
  6  8  2  0  0  0
  8  9  1  0  0  0
  9 10  1  0  0  0
 10 11  1  0  0  0
 11 12  2  0  0  0
 12 13  1  0  0  0
 13 14  1  0  0  0
 14 15  1  0  0  0
 15 16  1  0  0  0
 16 17  1  0  0  0
 11  1  1  0  0  0
 17 13  1  0  0  0
  9  4  2  0  0  0
 17 10  1  0  0  0
  5 18  1  0  0  0
M  END
> <minimizedAffinity>
-7.71033

$$$$



 20 23  0  0  0  0  0  0  0  0999 V2000
   -0.7396   63.3323   83.3114 N   0  0  0  0  0  0  0  0  0  0  0  0
   -1.0381   62.5009   84.4002 C   0  0  0  0  0  0  0  0  0  0  0  0
   -1.7315   61.4898   84.3355 O   0  0  0  0  0  0  0  0  0  0  0  0
   -0.4659   62.9537   85.6303 C   0  0  0  0  0  0  0  0  0  0  0  0
   -0.5386   62.4359   86.8894 N   0  0  0  0  0  0  0  0  0  0  0  0
    0.1847   63.2735   87.7136 C   0  0  0  0  0  0  0  0  0  0  0  0
    0.3231   63.0180   89.1668 C   0  0  0  0  0  0  0  0  0  0  0  0
    0.7033   64.2834   87.0339 N   0  0  0  0  0  0  0  0  0  0  0  0
    0.2995   64.0753   85.7556 C   0  0  0  0  0  0  0  0  0  0  0  0
    0.5677   64.8182   84.6847 N   0  0  0  0  0  0  0  0  0  0  0  0
    0.0168   64.4892   83.4758 C   0  0  0  0  0  0  0  0  0  0  0  0
    0.2458   65.3270   82.4947 N   0  0  0  0  0  0  0  0  0  0  0  0
    1.0567   66.4185   83.1284 C   0  0  0  0  0  0  0  0  0  0  0  0
    2.4520   66.4724   82.5127 C   0  0  0  0  0  0  0  0  0  0  0  0
    3.3643   66.7657   83.6935 C   0  0  0  0  0  0  0  0  0  0  0  0
    2.7693   65.9286   84.8163 C   0  0  0  0  0  0  0  0  0  0  0  0
    1.2618   66.0643   84.6271 C   0  0  0  0  0  0  0  0  0  0  0  0
   -1.0351   61.5971   87.1608 H   0  0  0  0  0  0  0  0  0  0  0  0
   -2.7418   63.5017   81.8846 C   0  0  0  0  0  0  0  0  0  0  0  0
   -1.3078   63.0078   82.0103 C   0  0  0  0  0  0  0  0  0  0  0  0
 19 20  1  0  0  0
 20  1  1  0  0  0
  1  2  1  0  0  0
  2  3  2  0  0  0
  2  4  1  0  0  0
  4  5  1  0  0  0
  5  6  1  0  0  0
  6  7  1  0  0  0
  6  8  2  0  0  0
  8  9  1  0  0  0
  9 10  1  0  0  0
 10 11  1  0  0  0
 11 12  2  0  0  0
 12 13  1  0  0  0
 13 14  1  0  0  0
 14 15  1  0  0  0
 15 16  1  0  0  0
 16 17  1  0  0  0
 11  1  1  0  0  0
 17 13  1  0  0  0
  9  4  2  0  0  0
 17 10  1  0  0  0
  5 18  1  0  0  0
M  END
> <minimizedAffinity>
-7.64445

$$$$



 20 23  0  0  0  0  0  0  0  0999 V2000
    0.8331   65.1584   82.9123 N   0  0  0  0  0  0  0  0  0  0  0  0
    1.0473   65.6418   84.2108 C   0  0  0  0  0  0  0  0  0  0  0  0
    1.5934   66.7090   84.4759 O   0  0  0  0  0  0  0  0  0  0  0  0
    0.5798   64.7529   85.2290 C   0  0  0  0  0  0  0  0  0  0  0  0
    0.6185   64.8570   86.5878 N   0  0  0  0  0  0  0  0  0  0  0  0
    0.0419   63.7119   87.0980 C   0  0  0  0  0  0  0  0  0  0  0  0
   -0.0866   63.4796   88.5559 C   0  0  0  0  0  0  0  0  0  0  0  0
   -0.3537   62.9024   86.1289 N   0  0  0  0  0  0  0  0  0  0  0  0
   -0.0207   63.5529   84.9859 C   0  0  0  0  0  0  0  0  0  0  0  0
   -0.2166   63.1512   83.7326 N   0  0  0  0  0  0  0  0  0  0  0  0
    0.2476   63.9142   82.6955 C   0  0  0  0  0  0  0  0  0  0  0  0
    0.1062   63.4008   81.4982 N   0  0  0  0  0  0  0  0  0  0  0  0
   -0.5282   62.0642   81.7467 C   0  0  0  0  0  0  0  0  0  0  0  0
   -1.9208   62.0109   81.1249 C   0  0  0  0  0  0  0  0  0  0  0  0
   -2.7484   61.2398   82.1412 C   0  0  0  0  0  0  0  0  0  0  0  0
   -2.2403   61.7594   83.4780 C   0  0  0  0  0  0  0  0  0  0  0  0
   -0.7348   61.9012   83.2778 C   0  0  0  0  0  0  0  0  0  0  0  0
    1.0033   65.6300   87.1153 H   0  0  0  0  0  0  0  0  0  0  0  0
    0.2306   66.8746   81.2496 C   0  0  0  0  0  0  0  0  0  0  0  0
    1.3121   65.9483   81.7865 C   0  0  0  0  0  0  0  0  0  0  0  0
 19 20  1  0  0  0
 20  1  1  0  0  0
  1  2  1  0  0  0
  2  3  2  0  0  0
  2  4  1  0  0  0
  4  5  1  0  0  0
  5  6  1  0  0  0
  6  7  1  0  0  0
  6  8  2  0  0  0
  8  9  1  0  0  0
  9 10  1  0  0  0
 10 11  1  0  0  0
 11 12  2  0  0  0
 12 13  1  0  0  0
 13 14  1  0  0  0
 14 15  1  0  0  0
 15 16  1  0  0  0
 16 17  1  0  0  0
 11  1  1  0  0  0
 17 13  1  0  0  0
  9  4  2  0  0  0
 17 10  1  0  0  0
  5 18  1  0  0  0
M  END
> <minimizedAffinity>
-7.58795

$$$$



 20 23  0  0  0  0  0  0  0  0999 V2000
   -1.2896   62.7851   85.1849 N   0  0  0  0  0  0  0  0  0  0  0  0
   -2.2371   62.0876   84.4223 C   0  0  0  0  0  0  0  0  0  0  0  0
   -3.1104   61.3620   84.8896 O   0  0  0  0  0  0  0  0  0  0  0  0
   -2.0838   62.2834   83.0139 C   0  0  0  0  0  0  0  0  0  0  0  0
   -2.7870   61.7740   81.9628 N   0  0  0  0  0  0  0  0  0  0  0  0
   -2.2134   62.2742   80.8118 C   0  0  0  0  0  0  0  0  0  0  0  0
   -2.7240   61.9269   79.4647 C   0  0  0  0  0  0  0  0  0  0  0  0
   -1.1921   63.0676   81.0916 N   0  0  0  0  0  0  0  0  0  0  0  0
   -1.1234   63.0678   82.4466 C   0  0  0  0  0  0  0  0  0  0  0  0
   -0.2608   63.7233   83.2191 N   0  0  0  0  0  0  0  0  0  0  0  0
   -0.3000   63.5519   84.5764 C   0  0  0  0  0  0  0  0  0  0  0  0
    0.6461   64.1506   85.2571 N   0  0  0  0  0  0  0  0  0  0  0  0
    1.4861   64.8161   84.2072 C   0  0  0  0  0  0  0  0  0  0  0  0
    1.4357   66.3330   84.3663 C   0  0  0  0  0  0  0  0  0  0  0  0
    1.3916   66.8516   82.9374 C   0  0  0  0  0  0  0  0  0  0  0  0
    0.4765   65.8625   82.2305 C   0  0  0  0  0  0  0  0  0  0  0  0
    0.8618   64.5087   82.8182 C   0  0  0  0  0  0  0  0  0  0  0  0
   -3.5769   61.1446   82.0236 H   0  0  0  0  0  0  0  0  0  0  0  0
   -2.5311   63.2818   87.2549 C   0  0  0  0  0  0  0  0  0  0  0  0
   -1.3066   62.6267   86.6324 C   0  0  0  0  0  0  0  0  0  0  0  0
 19 20  1  0  0  0
 20  1  1  0  0  0
  1  2  1  0  0  0
  2  3  2  0  0  0
  2  4  1  0  0  0
  4  5  1  0  0  0
  5  6  1  0  0  0
  6  7  1  0  0  0
  6  8  2  0  0  0
  8  9  1  0  0  0
  9 10  1  0  0  0
 10 11  1  0  0  0
 11 12  2  0  0  0
 12 13  1  0  0  0
 13 14  1  0  0  0
 14 15  1  0  0  0
 15 16  1  0  0  0
 16 17  1  0  0  0
 11  1  1  0  0  0
 17 13  1  0  0  0
  9  4  2  0  0  0
 17 10  1  0  0  0
  5 18  1  0  0  0
M  END
> <minimizedAffinity>
-7.57801

$$$$



 20 23  0  0  0  0  0  0  0  0999 V2000
    3.0455   68.2444   82.9225 N   0  0  0  0  0  0  0  0  0  0  0  0
    1.8093   67.6081   82.7421 C   0  0  0  0  0  0  0  0  0  0  0  0
    0.9547   67.9617   81.9345 O   0  0  0  0  0  0  0  0  0  0  0  0
    1.6150   66.4928   83.6161 C   0  0  0  0  0  0  0  0  0  0  0  0
    0.5573   65.6436   83.7536 N   0  0  0  0  0  0  0  0  0  0  0  0
    0.8826   64.7509   84.7542 C   0  0  0  0  0  0  0  0  0  0  0  0
   -0.0433   63.6742   85.1779 C   0  0  0  0  0  0  0  0  0  0  0  0
    2.0860   64.9995   85.2451 N   0  0  0  0  0  0  0  0  0  0  0  0
    2.5271   66.0695   84.5371 C   0  0  0  0  0  0  0  0  0  0  0  0
    3.6937   66.6989   84.6530 N   0  0  0  0  0  0  0  0  0  0  0  0
    3.9431   67.8101   83.8938 C   0  0  0  0  0  0  0  0  0  0  0  0
    5.0703   68.4311   84.1400 N   0  0  0  0  0  0  0  0  0  0  0  0
    5.6827   67.6453   85.2617 C   0  0  0  0  0  0  0  0  0  0  0  0
    6.9930   67.0056   84.8114 C   0  0  0  0  0  0  0  0  0  0  0  0
    6.9794   65.6354   85.4710 C   0  0  0  0  0  0  0  0  0  0  0  0
    5.5274   65.1977   85.3468 C   0  0  0  0  0  0  0  0  0  0  0  0
    4.7281   66.4700   85.6098 C   0  0  0  0  0  0  0  0  0  0  0  0
   -0.3026   65.6720   83.2211 H   0  0  0  0  0  0  0  0  0  0  0  0
    2.7689   70.6877   82.7591 C   0  0  0  0  0  0  0  0  0  0  0  0
    3.3431   69.4277   82.1275 C   0  0  0  0  0  0  0  0  0  0  0  0
 19 20  1  0  0  0
 20  1  1  0  0  0
  1  2  1  0  0  0
  2  3  2  0  0  0
  2  4  1  0  0  0
  4  5  1  0  0  0
  5  6  1  0  0  0
  6  7  1  0  0  0
  6  8  2  0  0  0
  8  9  1  0  0  0
  9 10  1  0  0  0
 10 11  1  0  0  0
 11 12  2  0  0  0
 12 13  1  0  0  0
 13 14  1  0  0  0
 14 15  1  0  0  0
 15 16  1  0  0  0
 16 17  1  0  0  0
 11  1  1  0  0  0
 17 13  1  0  0  0
  9  4  2  0  0  0
 17 10  1  0  0  0
  5 18  1  0  0  0
M  END
> <minimizedAffinity>
-7.35590

$$$$



 20 23  0  0  0  0  0  0  0  0999 V2000
    0.1786   64.4213   82.3673 N   0  0  0  0  0  0  0  0  0  0  0  0
    0.3559   64.7922   83.7077 C   0  0  0  0  0  0  0  0  0  0  0  0
    0.8637   65.8471   84.0776 O   0  0  0  0  0  0  0  0  0  0  0  0
   -0.1003   63.8018   84.6332 C   0  0  0  0  0  0  0  0  0  0  0  0
   -0.0874   63.7846   85.9964 N   0  0  0  0  0  0  0  0  0  0  0  0
   -0.6361   62.5816   86.3909 C   0  0  0  0  0  0  0  0  0  0  0  0
   -0.7814   62.2154   87.8196 C   0  0  0  0  0  0  0  0  0  0  0  0
   -0.9898   61.8509   85.3460 N   0  0  0  0  0  0  0  0  0  0  0  0
   -0.6585   62.6112   84.2723 C   0  0  0  0  0  0  0  0  0  0  0  0
   -0.8208   62.3181   82.9845 N   0  0  0  0  0  0  0  0  0  0  0  0
   -0.3637   63.1847   82.0289 C   0  0  0  0  0  0  0  0  0  0  0  0
   -0.4690   62.7770   80.7881 N   0  0  0  0  0  0  0  0  0  0  0  0
   -1.0650   61.4051   80.9039 C   0  0  0  0  0  0  0  0  0  0  0  0
   -2.4447   61.3663   80.2529 C   0  0  0  0  0  0  0  0  0  0  0  0
   -3.2644   60.4827   81.1801 C   0  0  0  0  0  0  0  0  0  0  0  0
   -2.7952   60.8950   82.5676 C   0  0  0  0  0  0  0  0  0  0  0  0
   -1.2918   61.0991   82.4100 C   0  0  0  0  0  0  0  0  0  0  0  0
    0.2641   64.5181   86.5981 H   0  0  0  0  0  0  0  0  0  0  0  0
   -0.4418   66.2806   80.8736 C   0  0  0  0  0  0  0  0  0  0  0  0
    0.6512   65.3231   81.3261 C   0  0  0  0  0  0  0  0  0  0  0  0
 19 20  1  0  0  0
 20  1  1  0  0  0
  1  2  1  0  0  0
  2  3  2  0  0  0
  2  4  1  0  0  0
  4  5  1  0  0  0
  5  6  1  0  0  0
  6  7  1  0  0  0
  6  8  2  0  0  0
  8  9  1  0  0  0
  9 10  1  0  0  0
 10 11  1  0  0  0
 11 12  2  0  0  0
 12 13  1  0  0  0
 13 14  1  0  0  0
 14 15  1  0  0  0
 15 16  1  0  0  0
 16 17  1  0  0  0
 11  1  1  0  0  0
 17 13  1  0  0  0
  9  4  2  0  0  0
 17 10  1  0  0  0
  5 18  1  0  0  0
M  END
> <minimizedAffinity>
-7.30075

$$$$
