
     RDKit          3D

 53 58  0  0  0  0  0  0  0  0999 V2000
   -2.4860   -3.9218    1.0351 C   0  0  0  0  0  0  0  0  0  0  0  0
   -1.9122   -2.5947    0.9440 N   0  0  0  0  0  0  0  0  0  0  0  0
   -0.5363   -2.4191    1.1437 C   0  0  0  0  0  0  0  0  0  0  0  0
    0.2382   -3.3427    1.3799 O   0  0  0  0  0  0  0  0  0  0  0  0
   -0.1093   -1.0481    1.0467 C   0  0  0  0  0  0  0  0  0  0  0  0
   -0.9625   -0.0195    0.7596 C   0  0  0  0  0  0  0  0  0  0  0  0
   -0.3430    1.1810    0.7264 N   0  0  0  0  0  0  0  0  0  0  0  0
    0.9291    0.9154    0.9831 C   0  0  0  0  0  0  0  0  0  0  0  0
    2.0374    1.9273    1.0357 C   0  0  0  0  0  0  0  0  0  0  0  0
    1.5901    3.3632    0.9840 C   0  0  0  0  0  0  0  0  0  0  0  0
    2.5547    4.4471    0.5732 C   0  0  0  0  0  0  0  0  0  0  0  0
    1.4205    4.0670   -0.3384 C   0  0  0  0  0  0  0  0  0  0  0  0
    1.1169   -0.4464    1.1913 N   0  0  0  0  0  0  0  0  0  0  0  0
    2.3643   -1.0986    1.5687 C   0  0  0  0  0  0  0  0  0  0  0  0
    3.2873   -1.3009    0.3927 C   0  0  0  0  0  0  0  0  0  0  0  0
    2.9494   -2.1831   -0.6445 C   0  0  0  0  0  0  0  0  0  0  0  0
    3.8089   -2.3686   -1.7286 C   0  0  0  0  0  0  0  0  0  0  0  0
    5.0190   -1.6815   -1.7863 C   0  0  0  0  0  0  0  0  0  0  0  0
    5.3740   -0.8122   -0.7575 C   0  0  0  0  0  0  0  0  0  0  0  0
    4.5161   -0.6255    0.3280 C   0  0  0  0  0  0  0  0  0  0  0  0
   -2.2545   -0.2527    0.5448 N   0  0  0  0  0  0  0  0  0  0  0  0
   -2.7459   -1.5199    0.6660 C   0  0  0  0  0  0  0  0  0  0  0  0
   -4.0390   -1.6561    0.5045 N   0  0  0  0  0  0  0  0  0  0  0  0
   -4.5211   -0.2563    0.2558 C   0  0  2  0  0  0  0  0  0  0  0  0
   -5.1146   -0.1382   -1.1454 C   0  0  0  0  0  0  0  0  0  0  0  0
   -4.6417    1.2223   -1.6335 C   0  0  0  0  0  0  0  0  0  0  0  0
   -3.2159    1.3096   -1.1099 C   0  0  0  0  0  0  0  0  0  0  0  0
   -3.2912    0.6932    0.2834 C   0  0  2  0  0  0  0  0  0  0  0  0
   -3.2250   -3.9336    1.8427 H   0  0  0  0  0  0  0  0  0  0  0  0
   -1.7309   -4.6869    1.2311 H   0  0  0  0  0  0  0  0  0  0  0  0
   -2.9961   -4.1554    0.0951 H   0  0  0  0  0  0  0  0  0  0  0  0
    2.7279    1.7287    0.2077 H   0  0  0  0  0  0  0  0  0  0  0  0
    2.6001    1.7944    1.9669 H   0  0  0  0  0  0  0  0  0  0  0  0
    0.8789    3.5945    1.7703 H   0  0  0  0  0  0  0  0  0  0  0  0
    2.4933    5.4007    1.0856 H   0  0  0  0  0  0  0  0  0  0  0  0
    3.5581    4.1695    0.2718 H   0  0  0  0  0  0  0  0  0  0  0  0
    0.5867    4.7530   -0.4364 H   0  0  0  0  0  0  0  0  0  0  0  0
    1.6497    3.5211   -1.2466 H   0  0  0  0  0  0  0  0  0  0  0  0
    2.8322   -0.4767    2.3405 H   0  0  0  0  0  0  0  0  0  0  0  0
    2.1468   -2.0558    2.0496 H   0  0  0  0  0  0  0  0  0  0  0  0
    2.0150   -2.7403   -0.6148 H   0  0  0  0  0  0  0  0  0  0  0  0
    3.5337   -3.0535   -2.5268 H   0  0  0  0  0  0  0  0  0  0  0  0
    5.6871   -1.8278   -2.6309 H   0  0  0  0  0  0  0  0  0  0  0  0
    6.3215   -0.2811   -0.8000 H   0  0  0  0  0  0  0  0  0  0  0  0
    4.8180    0.0541    1.1220 H   0  0  0  0  0  0  0  0  0  0  0  0
   -5.2489    0.0254    1.0253 H   0  0  0  0  0  0  0  0  0  0  0  0
   -6.2064   -0.2122   -1.1344 H   0  0  0  0  0  0  0  0  0  0  0  0
   -4.7359   -0.9275   -1.8063 H   0  0  0  0  0  0  0  0  0  0  0  0
   -4.6904    1.3129   -2.7223 H   0  0  0  0  0  0  0  0  0  0  0  0
   -5.2561    2.0174   -1.1948 H   0  0  0  0  0  0  0  0  0  0  0  0
   -2.5399    0.7486   -1.7673 H   0  0  0  0  0  0  0  0  0  0  0  0
   -2.8582    2.3436   -1.0772 H   0  0  0  0  0  0  0  0  0  0  0  0
   -3.3937    1.4468    1.0724 H   0  0  0  0  0  0  0  0  0  0  0  0
  1  2  1  0
  2  3  1  0
  3  4  2  0
  3  5  1  0
  5  6  2  0
  6  7  1  0
  7  8  2  0
  8  9  1  0
  9 10  1  0
 10 11  1  0
 11 12  1  0
  8 13  1  0
 13 14  1  0
 14 15  1  0
 15 16  2  0
 16 17  1  0
 17 18  2  0
 18 19  1  0
 19 20  2  0
  6 21  1  0
 21 22  1  0
 22 23  2  0
 23 24  1  0
 24 25  1  0
 25 26  1  0
 26 27  1  0
 27 28  1  0
 22  2  1  0
 28 24  1  0
 13  5  1  0
 20 15  1  0
 28 21  1  0
 12 10  1  0
  1 29  1  0
  1 30  1  0
  1 31  1  0
  9 32  1  0
  9 33  1  0
 10 34  1  0
 11 35  1  0
 11 36  1  0
 12 37  1  0
 12 38  1  0
 14 39  1  0
 14 40  1  0
 16 41  1  0
 17 42  1  0
 18 43  1  0
 19 44  1  0
 20 45  1  0
 24 46  1  1
 25 47  1  0
 25 48  1  0
 26 49  1  0
 26 50  1  0
 27 51  1  0
 27 52  1  0
 28 53  1  1
M  END
$$$$
