


 27 30  0  0  0  0  0  0  0  0999 V2000
    0.3764   63.9956   85.6266 C   0  0  0  0  0  0  0  0  0  0  0  0
   -0.1635   62.8991   84.9547 C   0  0  0  0  0  0  0  0  0  0  0  0
   -0.2840   62.9266   83.5603 C   0  0  0  0  0  0  0  0  0  0  0  0
    0.1240   64.0198   82.8057 C   0  0  0  0  0  0  0  0  0  0  0  0
   -0.0316   63.9740   81.4814 N   0  0  0  0  0  0  0  0  0  0  0  0
    0.3629   65.0531   80.7976 C   0  0  0  0  0  0  0  0  0  0  0  0
    0.9155   66.1574   81.3095 N   0  0  0  0  0  0  0  0  0  0  0  0
    1.0745   66.1952   82.6426 C   0  0  0  0  0  0  0  0  0  0  0  0
    0.6785   65.1244   83.4679 C   0  0  0  0  0  0  0  0  0  0  0  0
    0.7932   65.1042   84.8823 C   0  0  0  0  0  0  0  0  0  0  0  0
    0.5342   64.0356   87.1053 C   0  0  0  0  0  0  0  0  0  0  0  0
    1.6006   63.8595   87.6725 O   0  0  0  0  0  0  0  0  0  0  0  0
   -0.6544   64.2903   87.7051 O   0  0  0  0  0  0  0  0  0  0  0  0
   -2.5109   62.7887   87.6415 C   0  0  0  0  0  0  0  0  0  0  0  0
   -1.2323   63.1587   88.3675 C   0  0  0  0  0  0  0  0  0  0  0  0
    1.6531   67.3379   83.2358 N   0  0  0  0  0  0  0  0  0  0  0  0
    1.4119   67.3405   84.2224 H   0  0  0  0  0  0  0  0  0  0  0  0
    3.0879   67.5181   83.0419 C   0  0  0  0  0  0  0  0  0  0  0  0
    3.8527   67.2557   84.3204 C   0  0  0  0  0  0  0  0  0  0  0  0
    4.2097   68.3292   85.1719 C   0  0  0  0  0  0  0  0  0  0  0  0
    4.9108   68.1058   86.3611 C   0  0  0  0  0  0  0  0  0  0  0  0
    5.2425   66.8060   86.6727 C   0  0  0  0  0  0  0  0  0  0  0  0
    4.9044   65.7557   85.8524 C   0  0  0  0  0  0  0  0  0  0  0  0
    4.2129   65.9451   84.6746 C   0  0  0  0  0  0  0  0  0  0  0  0
    5.3276   64.5586   86.3408 O   0  0  0  0  0  0  0  0  0  0  0  0
    5.9806   64.9789   87.5563 C   0  0  0  0  0  0  0  0  0  0  0  0
    5.9208   66.4024   87.7803 O   0  0  0  0  0  0  0  0  0  0  0  0
 14 15  1  0  0  0
 15 13  1  0  0  0
 13 11  1  0  0  0
 11 12  2  0  0  0
 11  1  1  0  0  0
  1  2  1  0  0  0
  2  3  2  0  0  0
  3  4  1  0  0  0
  4  5  2  0  0  0
  5  6  1  0  0  0
  6  7  2  0  0  0
  7  8  1  0  0  0
  8 16  1  0  0  0
 16 18  1  0  0  0
 18 19  1  0  0  0
 19 20  1  0  0  0
 20 21  2  0  0  0
 21 22  1  0  0  0
 22 23  2  0  0  0
 23 24  1  0  0  0
 23 25  1  0  0  0
 25 26  1  0  0  0
 26 27  1  0  0  0
  8  9  2  0  0  0
  9 10  1  0  0  0
 10  1  2  0  0  0
  9  4  1  0  0  0
 24 19  2  0  0  0
 27 22  1  0  0  0
 16 17  1  0  0  0
M  END
> <minimizedAffinity>
-9.34535

$$$$



 27 30  0  0  0  0  0  0  0  0999 V2000
    3.4570   67.4247   84.2669 C   0  0  0  0  0  0  0  0  0  0  0  0
    3.3073   68.6702   83.6575 C   0  0  0  0  0  0  0  0  0  0  0  0
    2.3521   68.8420   82.6486 C   0  0  0  0  0  0  0  0  0  0  0  0
    1.5302   67.8043   82.2260 C   0  0  0  0  0  0  0  0  0  0  0  0
    0.6499   68.0444   81.2526 N   0  0  0  0  0  0  0  0  0  0  0  0
   -0.1105   67.0135   80.8696 C   0  0  0  0  0  0  0  0  0  0  0  0
   -0.0880   65.7788   81.3815 N   0  0  0  0  0  0  0  0  0  0  0  0
    0.7965   65.5449   82.3648 C   0  0  0  0  0  0  0  0  0  0  0  0
    1.6632   66.5497   82.8379 C   0  0  0  0  0  0  0  0  0  0  0  0
    2.6371   66.3691   83.8542 C   0  0  0  0  0  0  0  0  0  0  0  0
    4.4505   67.1701   85.3444 C   0  0  0  0  0  0  0  0  0  0  0  0
    4.8312   68.0284   86.1243 O   0  0  0  0  0  0  0  0  0  0  0  0
    4.8541   65.8762   85.3250 O   0  0  0  0  0  0  0  0  0  0  0  0
    7.1461   65.7587   84.6629 C   0  0  0  0  0  0  0  0  0  0  0  0
    6.1796   65.6669   85.8275 C   0  0  0  0  0  0  0  0  0  0  0  0
    0.8624   64.2581   82.9410 N   0  0  0  0  0  0  0  0  0  0  0  0
    1.3135   64.3385   83.8475 H   0  0  0  0  0  0  0  0  0  0  0  0
   -0.3935   63.5219   83.0389 C   0  0  0  0  0  0  0  0  0  0  0  0
   -0.8184   63.3488   84.4805 C   0  0  0  0  0  0  0  0  0  0  0  0
   -2.0754   62.7756   84.7904 C   0  0  0  0  0  0  0  0  0  0  0  0
   -2.4828   62.6015   86.1168 C   0  0  0  0  0  0  0  0  0  0  0  0
   -1.6192   63.0088   87.1092 C   0  0  0  0  0  0  0  0  0  0  0  0
   -0.3975   63.5697   86.8208 C   0  0  0  0  0  0  0  0  0  0  0  0
    0.0314   63.7532   85.5232 C   0  0  0  0  0  0  0  0  0  0  0  0
    0.2976   63.9042   87.9414 O   0  0  0  0  0  0  0  0  0  0  0  0
   -0.6329   63.4995   88.9666 C   0  0  0  0  0  0  0  0  0  0  0  0
   -1.8468   62.9194   88.4470 O   0  0  0  0  0  0  0  0  0  0  0  0
 14 15  1  0  0  0
 15 13  1  0  0  0
 13 11  1  0  0  0
 11 12  2  0  0  0
 11  1  1  0  0  0
  1  2  1  0  0  0
  2  3  2  0  0  0
  3  4  1  0  0  0
  4  5  2  0  0  0
  5  6  1  0  0  0
  6  7  2  0  0  0
  7  8  1  0  0  0
  8 16  1  0  0  0
 16 18  1  0  0  0
 18 19  1  0  0  0
 19 20  1  0  0  0
 20 21  2  0  0  0
 21 22  1  0  0  0
 22 23  2  0  0  0
 23 24  1  0  0  0
 23 25  1  0  0  0
 25 26  1  0  0  0
 26 27  1  0  0  0
  8  9  2  0  0  0
  9 10  1  0  0  0
 10  1  2  0  0  0
  9  4  1  0  0  0
 24 19  2  0  0  0
 27 22  1  0  0  0
 16 17  1  0  0  0
M  END
> <minimizedAffinity>
-9.32956

$$$$



 27 30  0  0  0  0  0  0  0  0999 V2000
   -1.7011   62.7698   84.4972 C   0  0  0  0  0  0  0  0  0  0  0  0
   -2.7157   62.2647   85.3099 C   0  0  0  0  0  0  0  0  0  0  0  0
   -2.5759   62.3003   86.7023 C   0  0  0  0  0  0  0  0  0  0  0  0
   -1.4491   62.8320   87.3176 C   0  0  0  0  0  0  0  0  0  0  0  0
   -1.3860   62.8221   88.6503 N   0  0  0  0  0  0  0  0  0  0  0  0
   -0.2780   63.3321   89.1979 C   0  0  0  0  0  0  0  0  0  0  0  0
    0.7561   63.8677   88.5417 N   0  0  0  0  0  0  0  0  0  0  0  0
    0.6842   63.8797   87.2006 C   0  0  0  0  0  0  0  0  0  0  0  0
   -0.4263   63.3530   86.5122 C   0  0  0  0  0  0  0  0  0  0  0  0
   -0.5601   63.3097   85.1000 C   0  0  0  0  0  0  0  0  0  0  0  0
   -1.7819   62.7646   83.0118 C   0  0  0  0  0  0  0  0  0  0  0  0
   -2.1902   63.7107   82.3575 O   0  0  0  0  0  0  0  0  0  0  0  0
   -1.3448   61.5818   82.5145 O   0  0  0  0  0  0  0  0  0  0  0  0
    1.0154   61.3152   82.2613 C   0  0  0  0  0  0  0  0  0  0  0  0
   -0.2761   61.7019   81.5675 C   0  0  0  0  0  0  0  0  0  0  0  0
    1.7491   64.4338   86.4580 N   0  0  0  0  0  0  0  0  0  0  0  0
    1.4947   65.3816   86.1963 H   0  0  0  0  0  0  0  0  0  0  0  0
    3.0686   64.3930   87.0795 C   0  0  0  0  0  0  0  0  0  0  0  0
    4.0964   65.1138   86.2354 C   0  0  0  0  0  0  0  0  0  0  0  0
    3.6904   65.8807   85.1165 C   0  0  0  0  0  0  0  0  0  0  0  0
    4.6251   66.5594   84.3282 C   0  0  0  0  0  0  0  0  0  0  0  0
    5.9529   66.4535   84.6780 C   0  0  0  0  0  0  0  0  0  0  0  0
    6.3597   65.7093   85.7601 C   0  0  0  0  0  0  0  0  0  0  0  0
    5.4613   65.0301   86.5558 C   0  0  0  0  0  0  0  0  0  0  0  0
    7.7093   65.7337   85.9291 O   0  0  0  0  0  0  0  0  0  0  0  0
    8.1046   66.5694   84.8218 C   0  0  0  0  0  0  0  0  0  0  0  0
    6.9948   67.0401   84.0299 O   0  0  0  0  0  0  0  0  0  0  0  0
 14 15  1  0  0  0
 15 13  1  0  0  0
 13 11  1  0  0  0
 11 12  2  0  0  0
 11  1  1  0  0  0
  1  2  1  0  0  0
  2  3  2  0  0  0
  3  4  1  0  0  0
  4  5  2  0  0  0
  5  6  1  0  0  0
  6  7  2  0  0  0
  7  8  1  0  0  0
  8 16  1  0  0  0
 16 18  1  0  0  0
 18 19  1  0  0  0
 19 20  1  0  0  0
 20 21  2  0  0  0
 21 22  1  0  0  0
 22 23  2  0  0  0
 23 24  1  0  0  0
 23 25  1  0  0  0
 25 26  1  0  0  0
 26 27  1  0  0  0
  8  9  2  0  0  0
  9 10  1  0  0  0
 10  1  2  0  0  0
  9  4  1  0  0  0
 24 19  2  0  0  0
 27 22  1  0  0  0
 16 17  1  0  0  0
M  END
> <minimizedAffinity>
-9.18950

$$$$



 27 30  0  0  0  0  0  0  0  0999 V2000
    1.9314   66.5020   82.9862 C   0  0  0  0  0  0  0  0  0  0  0  0
    2.0245   67.1852   81.7739 C   0  0  0  0  0  0  0  0  0  0  0  0
    1.3981   66.6690   80.6333 C   0  0  0  0  0  0  0  0  0  0  0  0
    0.6712   65.4851   80.6625 C   0  0  0  0  0  0  0  0  0  0  0  0
    0.1104   65.0534   79.5314 N   0  0  0  0  0  0  0  0  0  0  0  0
   -0.5682   63.9037   79.6041 C   0  0  0  0  0  0  0  0  0  0  0  0
   -0.7556   63.1619   80.7003 N   0  0  0  0  0  0  0  0  0  0  0  0
   -0.1932   63.6046   81.8367 C   0  0  0  0  0  0  0  0  0  0  0  0
    0.5608   64.7939   81.8774 C   0  0  0  0  0  0  0  0  0  0  0  0
    1.2026   65.3089   83.0337 C   0  0  0  0  0  0  0  0  0  0  0  0
    2.5710   66.9912   84.2370 C   0  0  0  0  0  0  0  0  0  0  0  0
    2.4138   68.1194   84.6757 O   0  0  0  0  0  0  0  0  0  0  0  0
    3.3319   66.0184   84.7957 O   0  0  0  0  0  0  0  0  0  0  0  0
    5.4600   65.2500   85.5614 C   0  0  0  0  0  0  0  0  0  0  0  0
    4.7426   66.2098   84.6326 C   0  0  0  0  0  0  0  0  0  0  0  0
   -0.3597   62.8597   83.0240 N   0  0  0  0  0  0  0  0  0  0  0  0
    0.3745   63.1272   83.6727 H   0  0  0  0  0  0  0  0  0  0  0  0
   -1.6731   62.9245   83.6563 C   0  0  0  0  0  0  0  0  0  0  0  0
   -1.5564   62.9571   85.1642 C   0  0  0  0  0  0  0  0  0  0  0  0
   -2.6821   62.6705   85.9738 C   0  0  0  0  0  0  0  0  0  0  0  0
   -2.5921   62.6893   87.3692 C   0  0  0  0  0  0  0  0  0  0  0  0
   -1.3712   62.9979   87.9266 C   0  0  0  0  0  0  0  0  0  0  0  0
   -0.2718   63.2812   87.1511 C   0  0  0  0  0  0  0  0  0  0  0  0
   -0.3301   63.2698   85.7735 C   0  0  0  0  0  0  0  0  0  0  0  0
    0.8308   63.5624   87.8967 O   0  0  0  0  0  0  0  0  0  0  0  0
    0.2947   63.4344   89.2297 C   0  0  0  0  0  0  0  0  0  0  0  0
   -1.0991   63.0648   89.2575 O   0  0  0  0  0  0  0  0  0  0  0  0
 14 15  1  0  0  0
 15 13  1  0  0  0
 13 11  1  0  0  0
 11 12  2  0  0  0
 11  1  1  0  0  0
  1  2  1  0  0  0
  2  3  2  0  0  0
  3  4  1  0  0  0
  4  5  2  0  0  0
  5  6  1  0  0  0
  6  7  2  0  0  0
  7  8  1  0  0  0
  8 16  1  0  0  0
 16 18  1  0  0  0
 18 19  1  0  0  0
 19 20  1  0  0  0
 20 21  2  0  0  0
 21 22  1  0  0  0
 22 23  2  0  0  0
 23 24  1  0  0  0
 23 25  1  0  0  0
 25 26  1  0  0  0
 26 27  1  0  0  0
  8  9  2  0  0  0
  9 10  1  0  0  0
 10  1  2  0  0  0
  9  4  1  0  0  0
 24 19  2  0  0  0
 27 22  1  0  0  0
 16 17  1  0  0  0
M  END
> <minimizedAffinity>
-9.17956

$$$$



 27 30  0  0  0  0  0  0  0  0999 V2000
   -1.2456   63.0146   84.0249 C   0  0  0  0  0  0  0  0  0  0  0  0
   -2.4420   62.5272   84.5504 C   0  0  0  0  0  0  0  0  0  0  0  0
   -2.6291   62.4882   85.9372 C   0  0  0  0  0  0  0  0  0  0  0  0
   -1.6554   62.9273   86.8259 C   0  0  0  0  0  0  0  0  0  0  0  0
   -1.9051   62.8499   88.1343 N   0  0  0  0  0  0  0  0  0  0  0  0
   -0.9348   63.2716   88.9519 C   0  0  0  0  0  0  0  0  0  0  0  0
    0.2453   63.7808   88.5846 N   0  0  0  0  0  0  0  0  0  0  0  0
    0.4885   63.8612   87.2662 C   0  0  0  0  0  0  0  0  0  0  0  0
   -0.4522   63.4296   86.3104 C   0  0  0  0  0  0  0  0  0  0  0  0
   -0.2548   63.4617   84.9054 C   0  0  0  0  0  0  0  0  0  0  0  0
   -0.9781   63.0852   82.5632 C   0  0  0  0  0  0  0  0  0  0  0  0
   -1.8418   63.3160   81.7321 O   0  0  0  0  0  0  0  0  0  0  0  0
    0.3339   62.8601   82.3070 O   0  0  0  0  0  0  0  0  0  0  0  0
    1.6248   60.8724   82.0101 C   0  0  0  0  0  0  0  0  0  0  0  0
    0.5776   61.7809   81.3963 C   0  0  0  0  0  0  0  0  0  0  0  0
    1.7195   64.3912   86.8232 N   0  0  0  0  0  0  0  0  0  0  0  0
    1.6096   65.3939   86.7049 H   0  0  0  0  0  0  0  0  0  0  0  0
    2.8929   64.0799   87.6326 C   0  0  0  0  0  0  0  0  0  0  0  0
    4.1214   64.7976   87.1186 C   0  0  0  0  0  0  0  0  0  0  0  0
    5.2311   65.0135   87.9711 C   0  0  0  0  0  0  0  0  0  0  0  0
    6.3779   65.6691   87.5122 C   0  0  0  0  0  0  0  0  0  0  0  0
    6.3883   66.0980   86.2035 C   0  0  0  0  0  0  0  0  0  0  0  0
    5.3157   65.8971   85.3671 C   0  0  0  0  0  0  0  0  0  0  0  0
    4.1723   65.2536   85.7910 C   0  0  0  0  0  0  0  0  0  0  0  0
    5.5285   66.3988   84.1206 O   0  0  0  0  0  0  0  0  0  0  0  0
    6.8534   66.9482   84.2736 C   0  0  0  0  0  0  0  0  0  0  0  0
    7.4109   66.7510   85.5891 O   0  0  0  0  0  0  0  0  0  0  0  0
 14 15  1  0  0  0
 15 13  1  0  0  0
 13 11  1  0  0  0
 11 12  2  0  0  0
 11  1  1  0  0  0
  1  2  1  0  0  0
  2  3  2  0  0  0
  3  4  1  0  0  0
  4  5  2  0  0  0
  5  6  1  0  0  0
  6  7  2  0  0  0
  7  8  1  0  0  0
  8 16  1  0  0  0
 16 18  1  0  0  0
 18 19  1  0  0  0
 19 20  1  0  0  0
 20 21  2  0  0  0
 21 22  1  0  0  0
 22 23  2  0  0  0
 23 24  1  0  0  0
 23 25  1  0  0  0
 25 26  1  0  0  0
 26 27  1  0  0  0
  8  9  2  0  0  0
  9 10  1  0  0  0
 10  1  2  0  0  0
  9  4  1  0  0  0
 24 19  2  0  0  0
 27 22  1  0  0  0
 16 17  1  0  0  0
M  END
> <minimizedAffinity>
-9.08023

$$$$



 27 30  0  0  0  0  0  0  0  0999 V2000
   -0.4495   63.3513   84.5837 C   0  0  0  0  0  0  0  0  0  0  0  0
    0.3077   64.0563   85.5190 C   0  0  0  0  0  0  0  0  0  0  0  0
    1.0242   65.1916   85.1220 C   0  0  0  0  0  0  0  0  0  0  0  0
    1.0072   65.6543   83.8119 C   0  0  0  0  0  0  0  0  0  0  0  0
    1.7233   66.7387   83.5095 N   0  0  0  0  0  0  0  0  0  0  0  0
    1.6873   67.1398   82.2346 C   0  0  0  0  0  0  0  0  0  0  0  0
    0.9886   66.5742   81.2452 N   0  0  0  0  0  0  0  0  0  0  0  0
    0.2655   65.4863   81.5571 C   0  0  0  0  0  0  0  0  0  0  0  0
    0.2413   64.9608   82.8640 C   0  0  0  0  0  0  0  0  0  0  0  0
   -0.4785   63.8038   83.2604 C   0  0  0  0  0  0  0  0  0  0  0  0
   -1.2349   62.1375   84.9344 C   0  0  0  0  0  0  0  0  0  0  0  0
   -1.8922   61.5047   84.1235 O   0  0  0  0  0  0  0  0  0  0  0  0
   -1.1104   61.8535   86.2539 O   0  0  0  0  0  0  0  0  0  0  0  0
   -2.7957   63.2086   87.2684 C   0  0  0  0  0  0  0  0  0  0  0  0
   -2.3551   61.7907   86.9611 C   0  0  0  0  0  0  0  0  0  0  0  0
   -0.4912   64.8495   80.5500 N   0  0  0  0  0  0  0  0  0  0  0  0
   -1.1425   65.5273   80.1654 H   0  0  0  0  0  0  0  0  0  0  0  0
    0.2606   64.1803   79.4937 C   0  0  0  0  0  0  0  0  0  0  0  0
   -0.3492   62.8394   79.1496 C   0  0  0  0  0  0  0  0  0  0  0  0
   -1.3321   62.2649   79.9916 C   0  0  0  0  0  0  0  0  0  0  0  0
   -1.9120   61.0295   79.6867 C   0  0  0  0  0  0  0  0  0  0  0  0
   -1.4920   60.3919   78.5406 C   0  0  0  0  0  0  0  0  0  0  0  0
   -0.5361   60.9380   77.7169 C   0  0  0  0  0  0  0  0  0  0  0  0
    0.0527   62.1543   77.9912 C   0  0  0  0  0  0  0  0  0  0  0  0
   -0.2633   60.1481   76.6434 O   0  0  0  0  0  0  0  0  0  0  0  0
   -1.1494   59.0377   76.8935 C   0  0  0  0  0  0  0  0  0  0  0  0
   -1.9412   59.1901   78.0894 O   0  0  0  0  0  0  0  0  0  0  0  0
 14 15  1  0  0  0
 15 13  1  0  0  0
 13 11  1  0  0  0
 11 12  2  0  0  0
 11  1  1  0  0  0
  1  2  1  0  0  0
  2  3  2  0  0  0
  3  4  1  0  0  0
  4  5  2  0  0  0
  5  6  1  0  0  0
  6  7  2  0  0  0
  7  8  1  0  0  0
  8 16  1  0  0  0
 16 18  1  0  0  0
 18 19  1  0  0  0
 19 20  1  0  0  0
 20 21  2  0  0  0
 21 22  1  0  0  0
 22 23  2  0  0  0
 23 24  1  0  0  0
 23 25  1  0  0  0
 25 26  1  0  0  0
 26 27  1  0  0  0
  8  9  2  0  0  0
  9 10  1  0  0  0
 10  1  2  0  0  0
  9  4  1  0  0  0
 24 19  2  0  0  0
 27 22  1  0  0  0
 16 17  1  0  0  0
M  END
> <minimizedAffinity>
-9.03272

$$$$



 27 30  0  0  0  0  0  0  0  0999 V2000
    1.3865   66.6093   80.9615 C   0  0  0  0  0  0  0  0  0  0  0  0
    1.7877   66.5497   79.6271 C   0  0  0  0  0  0  0  0  0  0  0  0
    1.2778   65.5500   78.7902 C   0  0  0  0  0  0  0  0  0  0  0  0
    0.3690   64.6012   79.2428 C   0  0  0  0  0  0  0  0  0  0  0  0
   -0.0646   63.6745   78.3863 N   0  0  0  0  0  0  0  0  0  0  0  0
   -0.9277   62.7747   78.8690 C   0  0  0  0  0  0  0  0  0  0  0  0
   -1.4115   62.7292   80.1144 N   0  0  0  0  0  0  0  0  0  0  0  0
   -0.9754   63.6680   80.9701 C   0  0  0  0  0  0  0  0  0  0  0  0
   -0.0507   64.6564   80.5795 C   0  0  0  0  0  0  0  0  0  0  0  0
    0.4714   65.6623   81.4335 C   0  0  0  0  0  0  0  0  0  0  0  0
    1.8869   67.6430   81.9071 C   0  0  0  0  0  0  0  0  0  0  0  0
    2.5391   68.6139   81.5580 O   0  0  0  0  0  0  0  0  0  0  0  0
    1.5168   67.3469   83.1770 O   0  0  0  0  0  0  0  0  0  0  0  0
    3.3620   66.3573   84.3266 C   0  0  0  0  0  0  0  0  0  0  0  0
    2.5259   67.6111   84.1595 C   0  0  0  0  0  0  0  0  0  0  0  0
   -1.4542   63.6662   82.2980 N   0  0  0  0  0  0  0  0  0  0  0  0
   -2.4639   63.7731   82.2719 H   0  0  0  0  0  0  0  0  0  0  0  0
   -1.0638   62.5336   83.1309 C   0  0  0  0  0  0  0  0  0  0  0  0
   -0.6049   62.9892   84.4985 C   0  0  0  0  0  0  0  0  0  0  0  0
    0.1769   64.1618   84.6352 C   0  0  0  0  0  0  0  0  0  0  0  0
    0.6050   64.6023   85.8915 C   0  0  0  0  0  0  0  0  0  0  0  0
    0.2406   63.8546   86.9891 C   0  0  0  0  0  0  0  0  0  0  0  0
   -0.5154   62.7125   86.8688 C   0  0  0  0  0  0  0  0  0  0  0  0
   -0.9523   62.2542   85.6439 C   0  0  0  0  0  0  0  0  0  0  0  0
   -0.7609   62.1236   88.0703 O   0  0  0  0  0  0  0  0  0  0  0  0
   -0.0625   63.0206   88.9580 C   0  0  0  0  0  0  0  0  0  0  0  0
    0.5659   64.1284   88.2810 O   0  0  0  0  0  0  0  0  0  0  0  0
 14 15  1  0  0  0
 15 13  1  0  0  0
 13 11  1  0  0  0
 11 12  2  0  0  0
 11  1  1  0  0  0
  1  2  1  0  0  0
  2  3  2  0  0  0
  3  4  1  0  0  0
  4  5  2  0  0  0
  5  6  1  0  0  0
  6  7  2  0  0  0
  7  8  1  0  0  0
  8 16  1  0  0  0
 16 18  1  0  0  0
 18 19  1  0  0  0
 19 20  1  0  0  0
 20 21  2  0  0  0
 21 22  1  0  0  0
 22 23  2  0  0  0
 23 24  1  0  0  0
 23 25  1  0  0  0
 25 26  1  0  0  0
 26 27  1  0  0  0
  8  9  2  0  0  0
  9 10  1  0  0  0
 10  1  2  0  0  0
  9  4  1  0  0  0
 24 19  2  0  0  0
 27 22  1  0  0  0
 16 17  1  0  0  0
M  END
> <minimizedAffinity>
-8.97584

$$$$



 27 30  0  0  0  0  0  0  0  0999 V2000
   -0.4866   63.3560   84.5248 C   0  0  0  0  0  0  0  0  0  0  0  0
    0.2706   64.0504   85.4679 C   0  0  0  0  0  0  0  0  0  0  0  0
    0.9998   65.1809   85.0804 C   0  0  0  0  0  0  0  0  0  0  0  0
    0.9956   65.6490   83.7721 C   0  0  0  0  0  0  0  0  0  0  0  0
    1.7233   66.7282   83.4789 N   0  0  0  0  0  0  0  0  0  0  0  0
    1.6994   67.1348   82.2054 C   0  0  0  0  0  0  0  0  0  0  0  0
    1.0023   66.5795   81.2091 N   0  0  0  0  0  0  0  0  0  0  0  0
    0.2674   65.4968   81.5118 C   0  0  0  0  0  0  0  0  0  0  0  0
    0.2299   64.9662   82.8163 C   0  0  0  0  0  0  0  0  0  0  0  0
   -0.5029   63.8141   83.2032 C   0  0  0  0  0  0  0  0  0  0  0  0
   -1.2852   62.1479   84.8652 C   0  0  0  0  0  0  0  0  0  0  0  0
   -1.9575   61.5352   84.0513 O   0  0  0  0  0  0  0  0  0  0  0  0
   -1.1534   61.8438   86.1796 O   0  0  0  0  0  0  0  0  0  0  0  0
   -2.7880   63.1838   87.2924 C   0  0  0  0  0  0  0  0  0  0  0  0
   -2.3938   61.7750   86.8937 C   0  0  0  0  0  0  0  0  0  0  0  0
   -0.4883   64.8709   80.4971 N   0  0  0  0  0  0  0  0  0  0  0  0
   -1.0316   65.5839   80.0197 H   0  0  0  0  0  0  0  0  0  0  0  0
    0.2512   64.0457   79.5477 C   0  0  0  0  0  0  0  0  0  0  0  0
   -0.4657   62.7411   79.2784 C   0  0  0  0  0  0  0  0  0  0  0  0
   -0.1025   61.9433   78.1664 C   0  0  0  0  0  0  0  0  0  0  0  0
   -0.7491   60.7312   77.9049 C   0  0  0  0  0  0  0  0  0  0  0  0
   -1.7515   60.3430   78.7658 C   0  0  0  0  0  0  0  0  0  0  0  0
   -2.1153   61.1106   79.8469 C   0  0  0  0  0  0  0  0  0  0  0  0
   -1.4956   62.3094   80.1302 C   0  0  0  0  0  0  0  0  0  0  0  0
   -3.1255   60.5499   80.5651 O   0  0  0  0  0  0  0  0  0  0  0  0
   -3.3623   59.3476   79.8042 C   0  0  0  0  0  0  0  0  0  0  0  0
   -2.4864   59.2029   78.6674 O   0  0  0  0  0  0  0  0  0  0  0  0
 14 15  1  0  0  0
 15 13  1  0  0  0
 13 11  1  0  0  0
 11 12  2  0  0  0
 11  1  1  0  0  0
  1  2  1  0  0  0
  2  3  2  0  0  0
  3  4  1  0  0  0
  4  5  2  0  0  0
  5  6  1  0  0  0
  6  7  2  0  0  0
  7  8  1  0  0  0
  8 16  1  0  0  0
 16 18  1  0  0  0
 18 19  1  0  0  0
 19 20  1  0  0  0
 20 21  2  0  0  0
 21 22  1  0  0  0
 22 23  2  0  0  0
 23 24  1  0  0  0
 23 25  1  0  0  0
 25 26  1  0  0  0
 26 27  1  0  0  0
  8  9  2  0  0  0
  9 10  1  0  0  0
 10  1  2  0  0  0
  9  4  1  0  0  0
 24 19  2  0  0  0
 27 22  1  0  0  0
 16 17  1  0  0  0
M  END
> <minimizedAffinity>
-8.96011

$$$$



 27 30  0  0  0  0  0  0  0  0999 V2000
   -0.6826   63.0867   85.1644 C   0  0  0  0  0  0  0  0  0  0  0  0
   -1.1193   62.4416   84.0076 C   0  0  0  0  0  0  0  0  0  0  0  0
   -0.8077   62.9762   82.7519 C   0  0  0  0  0  0  0  0  0  0  0  0
   -0.0642   64.1415   82.6097 C   0  0  0  0  0  0  0  0  0  0  0  0
    0.1843   64.5929   81.3789 N   0  0  0  0  0  0  0  0  0  0  0  0
    0.8919   65.7239   81.2909 C   0  0  0  0  0  0  0  0  0  0  0  0
    1.3898   66.4287   82.3118 N   0  0  0  0  0  0  0  0  0  0  0  0
    1.1409   65.9662   83.5479 C   0  0  0  0  0  0  0  0  0  0  0  0
    0.3900   64.7941   83.7646 C   0  0  0  0  0  0  0  0  0  0  0  0
    0.0678   64.2606   85.0395 C   0  0  0  0  0  0  0  0  0  0  0  0
   -0.9765   62.5762   86.5304 C   0  0  0  0  0  0  0  0  0  0  0  0
   -1.2143   61.4038   86.7731 O   0  0  0  0  0  0  0  0  0  0  0  0
   -0.9400   63.5852   87.4348 O   0  0  0  0  0  0  0  0  0  0  0  0
    0.5715   62.9190   89.1603 C   0  0  0  0  0  0  0  0  0  0  0  0
   -0.8828   63.1495   88.7987 C   0  0  0  0  0  0  0  0  0  0  0  0
    1.6434   66.6721   84.6622 N   0  0  0  0  0  0  0  0  0  0  0  0
    1.9188   65.9963   85.3687 H   0  0  0  0  0  0  0  0  0  0  0  0
    2.7134   67.6288   84.4003 C   0  0  0  0  0  0  0  0  0  0  0  0
    4.0718   67.0249   84.6806 C   0  0  0  0  0  0  0  0  0  0  0  0
    4.1761   65.7847   85.3558 C   0  0  0  0  0  0  0  0  0  0  0  0
    5.4226   65.2075   85.6182 C   0  0  0  0  0  0  0  0  0  0  0  0
    6.5433   65.8888   85.1981 C   0  0  0  0  0  0  0  0  0  0  0  0
    6.4550   67.0951   84.5445 C   0  0  0  0  0  0  0  0  0  0  0  0
    5.2403   67.6881   84.2714 C   0  0  0  0  0  0  0  0  0  0  0  0
    7.6756   67.6002   84.2199 O   0  0  0  0  0  0  0  0  0  0  0  0
    8.5414   66.5781   84.7551 C   0  0  0  0  0  0  0  0  0  0  0  0
    7.8302   65.4827   85.3671 O   0  0  0  0  0  0  0  0  0  0  0  0
 14 15  1  0  0  0
 15 13  1  0  0  0
 13 11  1  0  0  0
 11 12  2  0  0  0
 11  1  1  0  0  0
  1  2  1  0  0  0
  2  3  2  0  0  0
  3  4  1  0  0  0
  4  5  2  0  0  0
  5  6  1  0  0  0
  6  7  2  0  0  0
  7  8  1  0  0  0
  8 16  1  0  0  0
 16 18  1  0  0  0
 18 19  1  0  0  0
 19 20  1  0  0  0
 20 21  2  0  0  0
 21 22  1  0  0  0
 22 23  2  0  0  0
 23 24  1  0  0  0
 23 25  1  0  0  0
 25 26  1  0  0  0
 26 27  1  0  0  0
  8  9  2  0  0  0
  9 10  1  0  0  0
 10  1  2  0  0  0
  9  4  1  0  0  0
 24 19  2  0  0  0
 27 22  1  0  0  0
 16 17  1  0  0  0
M  END
> <minimizedAffinity>
-8.90288

$$$$
