


 26 28  0  0  0  0  0  0  0  0999 V2000
   -1.5737   62.1411   83.8739 C   0  0  0  0  0  0  0  0  0  0  0  0
   -2.2811   61.1365   83.3722 N   0  0  0  0  0  0  0  0  0  0  0  0
   -1.9873   61.1010   82.0295 C   0  0  0  0  0  0  0  0  0  0  0  0
   -2.4840   60.2091   81.0067 C   0  0  0  0  0  0  0  0  0  0  0  0
   -3.2982   59.3181   81.2357 O   0  0  0  0  0  0  0  0  0  0  0  0
   -1.9425   60.4755   79.7357 N   0  0  0  0  0  0  0  0  0  0  0  0
   -2.3803   59.6392   78.6358 C   0  0  0  0  0  0  0  0  0  0  0  0
   -1.0408   61.5100   79.4044 C   0  0  0  0  0  0  0  0  0  0  0  0
   -0.6614   61.6810   78.2421 O   0  0  0  0  0  0  0  0  0  0  0  0
   -0.5959   62.3400   80.4499 N   0  0  0  0  0  0  0  0  0  0  0  0
   -1.0987   62.0849   81.7069 C   0  0  0  0  0  0  0  0  0  0  0  0
   -0.8358   62.7372   82.8705 N   0  0  0  0  0  0  0  0  0  0  0  0
   -0.2247   63.5278   83.0187 H   0  0  0  0  0  0  0  0  0  0  0  0
   -0.4989   63.3203   85.8590 C   0  0  0  0  0  0  0  0  0  0  0  0
   -0.5930   63.7192   87.2001 C   0  0  0  0  0  0  0  0  0  0  0  0
   -1.7088   63.3824   87.9707 C   0  0  0  0  0  0  0  0  0  0  0  0
   -2.7471   62.6493   87.4109 C   0  0  0  0  0  0  0  0  0  0  0  0
   -2.6730   62.2577   86.0753 C   0  0  0  0  0  0  0  0  0  0  0  0
   -1.5609   62.5863   85.2781 C   0  0  0  0  0  0  0  0  0  0  0  0
    0.5689   63.6228   85.0467 O   0  0  0  0  0  0  0  0  0  0  0  0
    1.0084   65.7586   83.9950 C   0  0  0  0  0  0  0  0  0  0  0  0
    1.2382   64.8747   85.2078 C   0  0  0  0  0  0  0  0  0  0  0  0
    0.3396   63.4276   80.1592 C   0  0  0  0  0  0  0  0  0  0  0  0
   -0.3423   64.6756   79.5662 C   0  0  0  0  0  0  0  0  0  0  0  0
    0.2802   65.0920   78.2326 C   0  0  0  0  0  0  0  0  0  0  0  0
   -0.2609   65.8334   80.5629 C   0  0  0  0  0  0  0  0  0  0  0  0
 21 22  1  0  0  0
 22 20  1  0  0  0
 20 14  1  0  0  0
 14 15  2  0  0  0
 15 16  1  0  0  0
 16 17  2  0  0  0
 17 18  1  0  0  0
 18 19  2  0  0  0
 19  1  1  0  0  0
  1  2  2  0  0  0
  2  3  1  0  0  0
  3  4  1  0  0  0
  4  5  2  0  0  0
  4  6  1  0  0  0
  6  7  1  0  0  0
  6  8  1  0  0  0
  8  9  2  0  0  0
  8 10  1  0  0  0
 10 23  1  0  0  0
 23 24  1  0  0  0
 24 25  1  0  0  0
 24 26  1  0  0  0
 10 11  1  0  0  0
 11 12  1  0  0  0
 19 14  1  0  0  0
 12  1  1  0  0  0
 11  3  2  0  0  0
 12 13  1  0  0  0
M  END
> <minimizedAffinity>
-8.87137

$$$$



 26 28  0  0  0  0  0  0  0  0999 V2000
   -1.4077   61.7906   81.9731 C   0  0  0  0  0  0  0  0  0  0  0  0
   -2.1311   60.8390   81.3966 N   0  0  0  0  0  0  0  0  0  0  0  0
   -1.7456   60.8185   80.0769 C   0  0  0  0  0  0  0  0  0  0  0  0
   -2.2163   59.9798   78.9984 C   0  0  0  0  0  0  0  0  0  0  0  0
   -3.0915   59.1304   79.1462 O   0  0  0  0  0  0  0  0  0  0  0  0
   -1.5728   60.2451   77.7756 N   0  0  0  0  0  0  0  0  0  0  0  0
   -1.9764   59.4604   76.6258 C   0  0  0  0  0  0  0  0  0  0  0  0
   -0.5953   61.2351   77.5357 C   0  0  0  0  0  0  0  0  0  0  0  0
   -0.1261   61.4117   76.4076 O   0  0  0  0  0  0  0  0  0  0  0  0
   -0.1812   62.0144   78.6317 N   0  0  0  0  0  0  0  0  0  0  0  0
   -0.7846   61.7585   79.8435 C   0  0  0  0  0  0  0  0  0  0  0  0
   -0.5696   62.3678   81.0398 N   0  0  0  0  0  0  0  0  0  0  0  0
    0.0713   63.1194   81.2513 H   0  0  0  0  0  0  0  0  0  0  0  0
   -0.4564   62.9500   84.0315 C   0  0  0  0  0  0  0  0  0  0  0  0
   -0.6214   63.3133   85.3759 C   0  0  0  0  0  0  0  0  0  0  0  0
   -1.7603   62.9272   86.0873 C   0  0  0  0  0  0  0  0  0  0  0  0
   -2.7513   62.1797   85.4644 C   0  0  0  0  0  0  0  0  0  0  0  0
   -2.6067   61.8231   84.1248 C   0  0  0  0  0  0  0  0  0  0  0  0
   -1.4701   62.2015   83.3864 C   0  0  0  0  0  0  0  0  0  0  0  0
    0.6374   63.3016   83.2755 O   0  0  0  0  0  0  0  0  0  0  0  0
    0.5993   65.5519   82.3837 C   0  0  0  0  0  0  0  0  0  0  0  0
    1.1936   64.6101   83.4155 C   0  0  0  0  0  0  0  0  0  0  0  0
    0.8299   63.0546   78.4362 C   0  0  0  0  0  0  0  0  0  0  0  0
    0.2473   64.4810   78.4510 C   0  0  0  0  0  0  0  0  0  0  0  0
   -0.5168   64.8035   77.1660 C   0  0  0  0  0  0  0  0  0  0  0  0
    1.3716   65.4977   78.6574 C   0  0  0  0  0  0  0  0  0  0  0  0
 21 22  1  0  0  0
 22 20  1  0  0  0
 20 14  1  0  0  0
 14 15  2  0  0  0
 15 16  1  0  0  0
 16 17  2  0  0  0
 17 18  1  0  0  0
 18 19  2  0  0  0
 19  1  1  0  0  0
  1  2  2  0  0  0
  2  3  1  0  0  0
  3  4  1  0  0  0
  4  5  2  0  0  0
  4  6  1  0  0  0
  6  7  1  0  0  0
  6  8  1  0  0  0
  8  9  2  0  0  0
  8 10  1  0  0  0
 10 23  1  0  0  0
 23 24  1  0  0  0
 24 25  1  0  0  0
 24 26  1  0  0  0
 10 11  1  0  0  0
 11 12  1  0  0  0
 19 14  1  0  0  0
 12  1  1  0  0  0
 11  3  2  0  0  0
 12 13  1  0  0  0
M  END
> <minimizedAffinity>
-8.71006

$$$$



 26 28  0  0  0  0  0  0  0  0999 V2000
   -1.9799   61.7103   82.8854 C   0  0  0  0  0  0  0  0  0  0  0  0
   -2.5434   61.4452   84.0573 N   0  0  0  0  0  0  0  0  0  0  0  0
   -1.8150   62.1412   84.9930 C   0  0  0  0  0  0  0  0  0  0  0  0
   -1.9894   62.2062   86.4260 C   0  0  0  0  0  0  0  0  0  0  0  0
   -2.8705   61.5897   87.0200 O   0  0  0  0  0  0  0  0  0  0  0  0
   -1.0467   63.0388   87.0567 N   0  0  0  0  0  0  0  0  0  0  0  0
   -1.1307   63.1692   88.4977 C   0  0  0  0  0  0  0  0  0  0  0  0
    0.0121   63.7349   86.4340 C   0  0  0  0  0  0  0  0  0  0  0  0
    0.8120   64.4062   87.0924 O   0  0  0  0  0  0  0  0  0  0  0  0
    0.1216   63.6292   85.0351 N   0  0  0  0  0  0  0  0  0  0  0  0
   -0.8033   62.8341   84.3946 C   0  0  0  0  0  0  0  0  0  0  0  0
   -0.9104   62.5650   83.0661 N   0  0  0  0  0  0  0  0  0  0  0  0
   -0.3277   62.9003   82.3122 H   0  0  0  0  0  0  0  0  0  0  0  0
   -2.2408   61.8906   80.3584 C   0  0  0  0  0  0  0  0  0  0  0  0
   -2.6495   61.2914   79.1582 C   0  0  0  0  0  0  0  0  0  0  0  0
   -3.2269   60.0191   79.1535 C   0  0  0  0  0  0  0  0  0  0  0  0
   -3.3977   59.3266   80.3451 C   0  0  0  0  0  0  0  0  0  0  0  0
   -2.9839   59.9045   81.5440 C   0  0  0  0  0  0  0  0  0  0  0  0
   -2.3979   61.1836   81.5747 C   0  0  0  0  0  0  0  0  0  0  0  0
   -1.6627   63.1365   80.4304 O   0  0  0  0  0  0  0  0  0  0  0  0
    0.5588   62.5427   79.6734 C   0  0  0  0  0  0  0  0  0  0  0  0
   -0.6242   63.4803   79.5114 C   0  0  0  0  0  0  0  0  0  0  0  0
    1.2021   64.3315   84.3411 C   0  0  0  0  0  0  0  0  0  0  0  0
    0.7873   65.7187   83.8142 C   0  0  0  0  0  0  0  0  0  0  0  0
    0.6379   65.7347   82.2921 C   0  0  0  0  0  0  0  0  0  0  0  0
    1.8148   66.7661   84.2475 C   0  0  0  0  0  0  0  0  0  0  0  0
 21 22  1  0  0  0
 22 20  1  0  0  0
 20 14  1  0  0  0
 14 15  2  0  0  0
 15 16  1  0  0  0
 16 17  2  0  0  0
 17 18  1  0  0  0
 18 19  2  0  0  0
 19  1  1  0  0  0
  1  2  2  0  0  0
  2  3  1  0  0  0
  3  4  1  0  0  0
  4  5  2  0  0  0
  4  6  1  0  0  0
  6  7  1  0  0  0
  6  8  1  0  0  0
  8  9  2  0  0  0
  8 10  1  0  0  0
 10 23  1  0  0  0
 23 24  1  0  0  0
 24 25  1  0  0  0
 24 26  1  0  0  0
 10 11  1  0  0  0
 11 12  1  0  0  0
 19 14  1  0  0  0
 12  1  1  0  0  0
 11  3  2  0  0  0
 12 13  1  0  0  0
M  END
> <minimizedAffinity>
-8.61141

$$$$



 26 28  0  0  0  0  0  0  0  0999 V2000
    0.9474   65.0256   85.0313 C   0  0  0  0  0  0  0  0  0  0  0  0
    0.4990   65.6142   83.9296 N   0  0  0  0  0  0  0  0  0  0  0  0
    1.4704   66.5145   83.5602 C   0  0  0  0  0  0  0  0  0  0  0  0
    1.4962   67.4246   82.4380 C   0  0  0  0  0  0  0  0  0  0  0  0
    0.5760   67.5133   81.6289 O   0  0  0  0  0  0  0  0  0  0  0  0
    2.6745   68.1914   82.3800 N   0  0  0  0  0  0  0  0  0  0  0  0
    2.7987   69.1417   81.2927 C   0  0  0  0  0  0  0  0  0  0  0  0
    3.7426   68.1653   83.3028 C   0  0  0  0  0  0  0  0  0  0  0  0
    4.7144   68.9164   83.1789 O   0  0  0  0  0  0  0  0  0  0  0  0
    3.6530   67.2532   84.3705 N   0  0  0  0  0  0  0  0  0  0  0  0
    2.5158   66.4782   84.4361 C   0  0  0  0  0  0  0  0  0  0  0  0
    2.1871   65.5370   85.3605 N   0  0  0  0  0  0  0  0  0  0  0  0
    2.7196   65.2402   86.1660 H   0  0  0  0  0  0  0  0  0  0  0  0
   -0.2449   62.7864   85.2575 C   0  0  0  0  0  0  0  0  0  0  0  0
   -0.8716   61.8507   86.0931 C   0  0  0  0  0  0  0  0  0  0  0  0
   -1.0290   62.1023   87.4585 C   0  0  0  0  0  0  0  0  0  0  0  0
   -0.5572   63.2873   88.0079 C   0  0  0  0  0  0  0  0  0  0  0  0
    0.0797   64.2204   87.1916 C   0  0  0  0  0  0  0  0  0  0  0  0
    0.2520   63.9894   85.8142 C   0  0  0  0  0  0  0  0  0  0  0  0
   -0.0553   62.5974   83.9085 O   0  0  0  0  0  0  0  0  0  0  0  0
   -2.0615   63.2361   82.7134 C   0  0  0  0  0  0  0  0  0  0  0  0
   -1.1338   62.1025   83.1128 C   0  0  0  0  0  0  0  0  0  0  0  0
    4.7340   67.1868   85.3551 C   0  0  0  0  0  0  0  0  0  0  0  0
    5.5807   65.9041   85.2446 C   0  0  0  0  0  0  0  0  0  0  0  0
    5.7414   65.2031   86.5943 C   0  0  0  0  0  0  0  0  0  0  0  0
    6.9562   66.2396   84.6650 C   0  0  0  0  0  0  0  0  0  0  0  0
 21 22  1  0  0  0
 22 20  1  0  0  0
 20 14  1  0  0  0
 14 15  2  0  0  0
 15 16  1  0  0  0
 16 17  2  0  0  0
 17 18  1  0  0  0
 18 19  2  0  0  0
 19  1  1  0  0  0
  1  2  2  0  0  0
  2  3  1  0  0  0
  3  4  1  0  0  0
  4  5  2  0  0  0
  4  6  1  0  0  0
  6  7  1  0  0  0
  6  8  1  0  0  0
  8  9  2  0  0  0
  8 10  1  0  0  0
 10 23  1  0  0  0
 23 24  1  0  0  0
 24 25  1  0  0  0
 24 26  1  0  0  0
 10 11  1  0  0  0
 11 12  1  0  0  0
 19 14  1  0  0  0
 12  1  1  0  0  0
 11  3  2  0  0  0
 12 13  1  0  0  0
M  END
> <minimizedAffinity>
-8.58808

$$$$



 26 28  0  0  0  0  0  0  0  0999 V2000
    1.3519   65.6909   84.0085 C   0  0  0  0  0  0  0  0  0  0  0  0
    0.8061   65.0078   83.0102 N   0  0  0  0  0  0  0  0  0  0  0  0
   -0.0444   64.0992   83.5947 C   0  0  0  0  0  0  0  0  0  0  0  0
   -0.8871   63.1029   82.9738 C   0  0  0  0  0  0  0  0  0  0  0  0
   -0.9351   62.9327   81.7580 O   0  0  0  0  0  0  0  0  0  0  0  0
   -1.6319   62.3561   83.9050 N   0  0  0  0  0  0  0  0  0  0  0  0
   -2.5071   61.3245   83.3851 C   0  0  0  0  0  0  0  0  0  0  0  0
   -1.5851   62.4759   85.3109 C   0  0  0  0  0  0  0  0  0  0  0  0
   -2.2525   61.7355   86.0393 O   0  0  0  0  0  0  0  0  0  0  0  0
   -0.7449   63.4685   85.8481 N   0  0  0  0  0  0  0  0  0  0  0  0
   -0.0204   64.2249   84.9530 C   0  0  0  0  0  0  0  0  0  0  0  0
    0.8568   65.2307   85.2126 N   0  0  0  0  0  0  0  0  0  0  0  0
    1.1343   65.6009   86.1106 H   0  0  0  0  0  0  0  0  0  0  0  0
    3.6337   66.7238   84.4698 C   0  0  0  0  0  0  0  0  0  0  0  0
    4.5155   67.7970   84.2767 C   0  0  0  0  0  0  0  0  0  0  0  0
    4.1281   68.9180   83.5381 C   0  0  0  0  0  0  0  0  0  0  0  0
    2.8589   68.9791   82.9777 C   0  0  0  0  0  0  0  0  0  0  0  0
    1.9768   67.9139   83.1504 C   0  0  0  0  0  0  0  0  0  0  0  0
    2.3441   66.7732   83.8882 C   0  0  0  0  0  0  0  0  0  0  0  0
    3.9549   65.5917   85.1816 O   0  0  0  0  0  0  0  0  0  0  0  0
    5.4364   65.2190   87.0597 C   0  0  0  0  0  0  0  0  0  0  0  0
    5.3151   65.3609   85.5530 C   0  0  0  0  0  0  0  0  0  0  0  0
   -0.6602   63.6337   87.3000 C   0  0  0  0  0  0  0  0  0  0  0  0
    0.4758   62.8137   87.9412 C   0  0  0  0  0  0  0  0  0  0  0  0
    0.0787   62.2508   89.3067 C   0  0  0  0  0  0  0  0  0  0  0  0
    1.7273   63.6826   88.0801 C   0  0  0  0  0  0  0  0  0  0  0  0
 21 22  1  0  0  0
 22 20  1  0  0  0
 20 14  1  0  0  0
 14 15  2  0  0  0
 15 16  1  0  0  0
 16 17  2  0  0  0
 17 18  1  0  0  0
 18 19  2  0  0  0
 19  1  1  0  0  0
  1  2  2  0  0  0
  2  3  1  0  0  0
  3  4  1  0  0  0
  4  5  2  0  0  0
  4  6  1  0  0  0
  6  7  1  0  0  0
  6  8  1  0  0  0
  8  9  2  0  0  0
  8 10  1  0  0  0
 10 23  1  0  0  0
 23 24  1  0  0  0
 24 25  1  0  0  0
 24 26  1  0  0  0
 10 11  1  0  0  0
 11 12  1  0  0  0
 19 14  1  0  0  0
 12  1  1  0  0  0
 11  3  2  0  0  0
 12 13  1  0  0  0
M  END
> <minimizedAffinity>
-8.55273

$$$$



 26 28  0  0  0  0  0  0  0  0999 V2000
    0.8728   65.4525   83.7518 C   0  0  0  0  0  0  0  0  0  0  0  0
    1.3505   65.2723   84.9768 N   0  0  0  0  0  0  0  0  0  0  0  0
    0.5649   64.3000   85.5495 C   0  0  0  0  0  0  0  0  0  0  0  0
    0.6393   63.7246   86.8729 C   0  0  0  0  0  0  0  0  0  0  0  0
    1.4708   64.0739   87.7071 O   0  0  0  0  0  0  0  0  0  0  0  0
   -0.3375   62.7372   87.0980 N   0  0  0  0  0  0  0  0  0  0  0  0
   -0.3532   62.0993   88.3993 C   0  0  0  0  0  0  0  0  0  0  0  0
   -1.3435   62.3268   86.1965 C   0  0  0  0  0  0  0  0  0  0  0  0
   -2.1812   61.4777   86.5150 O   0  0  0  0  0  0  0  0  0  0  0  0
   -1.3559   62.9269   84.9239 N   0  0  0  0  0  0  0  0  0  0  0  0
   -0.3959   63.8832   84.6750 C   0  0  0  0  0  0  0  0  0  0  0  0
   -0.1986   64.6073   83.5412 N   0  0  0  0  0  0  0  0  0  0  0  0
   -0.7240   64.5729   82.6791 H   0  0  0  0  0  0  0  0  0  0  0  0
    1.3139   66.1813   81.3517 C   0  0  0  0  0  0  0  0  0  0  0  0
    1.7997   67.1630   80.4760 C   0  0  0  0  0  0  0  0  0  0  0  0
    2.3617   68.3447   80.9659 C   0  0  0  0  0  0  0  0  0  0  0  0
    2.4399   68.5642   82.3350 C   0  0  0  0  0  0  0  0  0  0  0  0
    1.9488   67.6029   83.2167 C   0  0  0  0  0  0  0  0  0  0  0  0
    1.3766   66.4058   82.7480 C   0  0  0  0  0  0  0  0  0  0  0  0
    0.7463   65.0004   80.9338 O   0  0  0  0  0  0  0  0  0  0  0  0
    0.6249   64.0310   78.7187 C   0  0  0  0  0  0  0  0  0  0  0  0
   -0.0098   64.9776   79.7218 C   0  0  0  0  0  0  0  0  0  0  0  0
   -2.3786   62.5365   83.9522 C   0  0  0  0  0  0  0  0  0  0  0  0
   -1.9310   61.3915   83.0234 C   0  0  0  0  0  0  0  0  0  0  0  0
   -1.4687   61.9052   81.6589 C   0  0  0  0  0  0  0  0  0  0  0  0
   -3.0758   60.3928   82.8433 C   0  0  0  0  0  0  0  0  0  0  0  0
 21 22  1  0  0  0
 22 20  1  0  0  0
 20 14  1  0  0  0
 14 15  2  0  0  0
 15 16  1  0  0  0
 16 17  2  0  0  0
 17 18  1  0  0  0
 18 19  2  0  0  0
 19  1  1  0  0  0
  1  2  2  0  0  0
  2  3  1  0  0  0
  3  4  1  0  0  0
  4  5  2  0  0  0
  4  6  1  0  0  0
  6  7  1  0  0  0
  6  8  1  0  0  0
  8  9  2  0  0  0
  8 10  1  0  0  0
 10 23  1  0  0  0
 23 24  1  0  0  0
 24 25  1  0  0  0
 24 26  1  0  0  0
 10 11  1  0  0  0
 11 12  1  0  0  0
 19 14  1  0  0  0
 12  1  1  0  0  0
 11  3  2  0  0  0
 12 13  1  0  0  0
M  END
> <minimizedAffinity>
-8.53764

$$$$



 26 28  0  0  0  0  0  0  0  0999 V2000
   -1.9705   62.2083   82.4523 C   0  0  0  0  0  0  0  0  0  0  0  0
   -2.5216   61.8401   83.6020 N   0  0  0  0  0  0  0  0  0  0  0  0
   -1.7465   62.4013   84.5894 C   0  0  0  0  0  0  0  0  0  0  0  0
   -1.8900   62.3173   86.0248 C   0  0  0  0  0  0  0  0  0  0  0  0
   -2.7842   61.6751   86.5701 O   0  0  0  0  0  0  0  0  0  0  0  0
   -0.9012   63.0388   86.7187 N   0  0  0  0  0  0  0  0  0  0  0  0
   -0.9515   63.0153   88.1669 C   0  0  0  0  0  0  0  0  0  0  0  0
    0.1733   63.7560   86.1493 C   0  0  0  0  0  0  0  0  0  0  0  0
    1.0133   64.3199   86.8568 O   0  0  0  0  0  0  0  0  0  0  0  0
    0.2510   63.7985   84.7449 N   0  0  0  0  0  0  0  0  0  0  0  0
   -0.7187   63.1145   84.0449 C   0  0  0  0  0  0  0  0  0  0  0  0
   -0.8630   62.9956   82.6982 N   0  0  0  0  0  0  0  0  0  0  0  0
   -0.2816   63.3875   81.9710 H   0  0  0  0  0  0  0  0  0  0  0  0
   -1.5663   61.5184   80.0343 C   0  0  0  0  0  0  0  0  0  0  0  0
   -2.1094   61.1603   78.7919 C   0  0  0  0  0  0  0  0  0  0  0  0
   -3.4923   61.1428   78.5933 C   0  0  0  0  0  0  0  0  0  0  0  0
   -4.3503   61.4758   79.6334 C   0  0  0  0  0  0  0  0  0  0  0  0
   -3.8246   61.8206   80.8774 C   0  0  0  0  0  0  0  0  0  0  0  0
   -2.4357   61.8438   81.1029 C   0  0  0  0  0  0  0  0  0  0  0  0
   -0.2163   61.5510   80.2953 O   0  0  0  0  0  0  0  0  0  0  0  0
    0.3532   63.7130   79.3665 C   0  0  0  0  0  0  0  0  0  0  0  0
    0.6560   62.2254   79.3868 C   0  0  0  0  0  0  0  0  0  0  0  0
    1.3460   64.5288   84.1048 C   0  0  0  0  0  0  0  0  0  0  0  0
    0.9661   65.9668   83.7024 C   0  0  0  0  0  0  0  0  0  0  0  0
    0.9066   66.1425   82.1842 C   0  0  0  0  0  0  0  0  0  0  0  0
    1.9686   66.9547   84.3020 C   0  0  0  0  0  0  0  0  0  0  0  0
 21 22  1  0  0  0
 22 20  1  0  0  0
 20 14  1  0  0  0
 14 15  2  0  0  0
 15 16  1  0  0  0
 16 17  2  0  0  0
 17 18  1  0  0  0
 18 19  2  0  0  0
 19  1  1  0  0  0
  1  2  2  0  0  0
  2  3  1  0  0  0
  3  4  1  0  0  0
  4  5  2  0  0  0
  4  6  1  0  0  0
  6  7  1  0  0  0
  6  8  1  0  0  0
  8  9  2  0  0  0
  8 10  1  0  0  0
 10 23  1  0  0  0
 23 24  1  0  0  0
 24 25  1  0  0  0
 24 26  1  0  0  0
 10 11  1  0  0  0
 11 12  1  0  0  0
 19 14  1  0  0  0
 12  1  1  0  0  0
 11  3  2  0  0  0
 12 13  1  0  0  0
M  END
> <minimizedAffinity>
-8.45927

$$$$



 26 28  0  0  0  0  0  0  0  0999 V2000
    1.3863   66.2497   83.7503 C   0  0  0  0  0  0  0  0  0  0  0  0
    1.2801   65.9720   85.0436 N   0  0  0  0  0  0  0  0  0  0  0  0
    0.5477   64.8109   85.1218 C   0  0  0  0  0  0  0  0  0  0  0  0
    0.1322   64.0673   86.2891 C   0  0  0  0  0  0  0  0  0  0  0  0
    0.3967   64.4213   87.4354 O   0  0  0  0  0  0  0  0  0  0  0  0
   -0.6039   62.9113   85.9704 N   0  0  0  0  0  0  0  0  0  0  0  0
   -1.0738   62.0952   87.0721 C   0  0  0  0  0  0  0  0  0  0  0  0
   -0.9755   62.4790   84.6788 C   0  0  0  0  0  0  0  0  0  0  0  0
   -1.6634   61.4670   84.5155 O   0  0  0  0  0  0  0  0  0  0  0  0
   -0.5349   63.2494   83.5869 N   0  0  0  0  0  0  0  0  0  0  0  0
    0.2042   64.3758   83.8751 C   0  0  0  0  0  0  0  0  0  0  0  0
    0.7364   65.2809   83.0114 N   0  0  0  0  0  0  0  0  0  0  0  0
    0.6821   65.2882   82.0027 H   0  0  0  0  0  0  0  0  0  0  0  0
    1.6650   68.0376   81.9581 C   0  0  0  0  0  0  0  0  0  0  0  0
    2.3746   69.1527   81.4893 C   0  0  0  0  0  0  0  0  0  0  0  0
    3.4898   69.6339   82.1800 C   0  0  0  0  0  0  0  0  0  0  0  0
    3.9066   69.0127   83.3501 C   0  0  0  0  0  0  0  0  0  0  0  0
    3.2027   67.9116   83.8348 C   0  0  0  0  0  0  0  0  0  0  0  0
    2.0754   67.4095   83.1584 C   0  0  0  0  0  0  0  0  0  0  0  0
    0.5583   67.5182   81.3280 O   0  0  0  0  0  0  0  0  0  0  0  0
    1.4809   66.1173   79.5824 C   0  0  0  0  0  0  0  0  0  0  0  0
    0.5934   67.3030   79.9161 C   0  0  0  0  0  0  0  0  0  0  0  0
   -0.8932   62.8442   82.2268 C   0  0  0  0  0  0  0  0  0  0  0  0
    0.3218   62.4311   81.3741 C   0  0  0  0  0  0  0  0  0  0  0  0
   -0.0709   62.1088   79.9315 C   0  0  0  0  0  0  0  0  0  0  0  0
    1.0129   61.2224   82.0081 C   0  0  0  0  0  0  0  0  0  0  0  0
 21 22  1  0  0  0
 22 20  1  0  0  0
 20 14  1  0  0  0
 14 15  2  0  0  0
 15 16  1  0  0  0
 16 17  2  0  0  0
 17 18  1  0  0  0
 18 19  2  0  0  0
 19  1  1  0  0  0
  1  2  2  0  0  0
  2  3  1  0  0  0
  3  4  1  0  0  0
  4  5  2  0  0  0
  4  6  1  0  0  0
  6  7  1  0  0  0
  6  8  1  0  0  0
  8  9  2  0  0  0
  8 10  1  0  0  0
 10 23  1  0  0  0
 23 24  1  0  0  0
 24 25  1  0  0  0
 24 26  1  0  0  0
 10 11  1  0  0  0
 11 12  1  0  0  0
 19 14  1  0  0  0
 12  1  1  0  0  0
 11  3  2  0  0  0
 12 13  1  0  0  0
M  END
> <minimizedAffinity>
-8.42285

$$$$



 26 28  0  0  0  0  0  0  0  0999 V2000
    1.0823   65.7411   83.3374 C   0  0  0  0  0  0  0  0  0  0  0  0
    0.4647   65.4059   82.2117 N   0  0  0  0  0  0  0  0  0  0  0  0
   -0.3048   64.3076   82.5154 C   0  0  0  0  0  0  0  0  0  0  0  0
   -1.1752   63.5343   81.6595 C   0  0  0  0  0  0  0  0  0  0  0  0
   -1.3305   63.7820   80.4663 O   0  0  0  0  0  0  0  0  0  0  0  0
   -1.8116   62.4768   82.3351 N   0  0  0  0  0  0  0  0  0  0  0  0
   -2.7042   61.6344   81.5642 C   0  0  0  0  0  0  0  0  0  0  0  0
   -1.6386   62.1174   83.6894 C   0  0  0  0  0  0  0  0  0  0  0  0
   -2.2169   61.1388   84.1711 O   0  0  0  0  0  0  0  0  0  0  0  0
   -0.7783   62.9154   84.4658 N   0  0  0  0  0  0  0  0  0  0  0  0
   -0.1590   63.9685   83.8290 C   0  0  0  0  0  0  0  0  0  0  0  0
    0.7122   64.8747   84.3470 N   0  0  0  0  0  0  0  0  0  0  0  0
    1.0616   64.9348   85.2929 H   0  0  0  0  0  0  0  0  0  0  0  0
    3.1935   66.7721   84.3203 C   0  0  0  0  0  0  0  0  0  0  0  0
    4.0476   67.8810   84.4069 C   0  0  0  0  0  0  0  0  0  0  0  0
    3.7527   69.0666   83.7288 C   0  0  0  0  0  0  0  0  0  0  0  0
    2.6058   69.1580   82.9510 C   0  0  0  0  0  0  0  0  0  0  0  0
    1.7549   68.0592   82.8451 C   0  0  0  0  0  0  0  0  0  0  0  0
    2.0310   66.8537   83.5167 C   0  0  0  0  0  0  0  0  0  0  0  0
    3.4288   65.5769   84.9587 O   0  0  0  0  0  0  0  0  0  0  0  0
    4.7740   64.9865   86.8830 C   0  0  0  0  0  0  0  0  0  0  0  0
    4.7541   65.2630   85.3903 C   0  0  0  0  0  0  0  0  0  0  0  0
   -0.5646   62.5852   85.8757 C   0  0  0  0  0  0  0  0  0  0  0  0
   -1.3054   63.5298   86.8417 C   0  0  0  0  0  0  0  0  0  0  0  0
   -0.4953   63.8072   88.1089 C   0  0  0  0  0  0  0  0  0  0  0  0
   -2.6634   62.9308   87.2125 C   0  0  0  0  0  0  0  0  0  0  0  0
 21 22  1  0  0  0
 22 20  1  0  0  0
 20 14  1  0  0  0
 14 15  2  0  0  0
 15 16  1  0  0  0
 16 17  2  0  0  0
 17 18  1  0  0  0
 18 19  2  0  0  0
 19  1  1  0  0  0
  1  2  2  0  0  0
  2  3  1  0  0  0
  3  4  1  0  0  0
  4  5  2  0  0  0
  4  6  1  0  0  0
  6  7  1  0  0  0
  6  8  1  0  0  0
  8  9  2  0  0  0
  8 10  1  0  0  0
 10 23  1  0  0  0
 23 24  1  0  0  0
 24 25  1  0  0  0
 24 26  1  0  0  0
 10 11  1  0  0  0
 11 12  1  0  0  0
 19 14  1  0  0  0
 12  1  1  0  0  0
 11  3  2  0  0  0
 12 13  1  0  0  0
M  END
> <minimizedAffinity>
-8.42005

$$$$
