


 30 32  0  0  0  0  0  0  0  0999 V2000
    0.3278   62.3982   81.5502 C   0  0  0  0  0  0  0  0  0  0  0  0
    0.3584   61.1829   81.4033 O   0  0  0  0  0  0  0  0  0  0  0  0
   -0.2211   63.3281   80.6943 N   0  0  0  0  0  0  0  0  0  0  0  0
   -0.1611   64.3114   80.9189 H   0  0  0  0  0  0  0  0  0  0  0  0
   -0.8663   63.0832   79.5093 C   0  0  0  0  0  0  0  0  0  0  0  0
   -1.9230   62.3015   79.4664 N   0  0  0  0  0  0  0  0  0  0  0  0
   -2.3993   62.2216   78.1605 C   0  0  0  0  0  0  0  0  0  0  0  0
   -1.6669   62.9437   77.2380 C   0  0  0  0  0  0  0  0  0  0  0  0
   -0.3721   63.7434   78.0211 S   0  0  0  0  0  0  0  0  0  0  0  0
   -3.6116   61.3946   77.8884 C   0  0  0  0  0  0  0  0  0  0  0  0
   -3.4340   59.9771   78.3853 C   0  0  0  0  0  0  0  0  0  0  0  0
   -2.5266   59.2365   78.0069 O   0  0  0  0  0  0  0  0  0  0  0  0
   -4.4036   59.5568   79.2718 N   0  0  0  0  0  0  0  0  0  0  0  0
   -4.1668   58.2833   79.8475 O   0  0  0  0  0  0  0  0  0  0  0  0
   -4.8278   60.2520   79.8869 H   0  0  0  0  0  0  0  0  0  0  0  0
   -3.3490   57.9900   79.3885 H   0  0  0  0  0  0  0  0  0  0  0  0
    0.9646   63.0670   82.7602 C   0  0  0  0  0  0  0  0  0  0  0  0
   -0.6227   63.2566   87.5589 C   0  0  0  0  0  0  0  0  0  0  0  0
   -1.4770   62.7335   86.5847 C   0  0  0  0  0  0  0  0  0  0  0  0
   -1.2654   63.0174   85.2294 C   0  0  0  0  0  0  0  0  0  0  0  0
   -0.1995   63.8320   84.8367 C   0  0  0  0  0  0  0  0  0  0  0  0
    0.6412   64.3489   85.8193 C   0  0  0  0  0  0  0  0  0  0  0  0
    0.4448   64.0663   87.1684 C   0  0  0  0  0  0  0  0  0  0  0  0
    1.7491   65.1480   85.4854 O   0  0  0  0  0  0  0  0  0  0  0  0
    1.8868   65.6726   84.2080 C   0  0  0  0  0  0  0  0  0  0  0  0
    2.9150   66.2380   83.8513 O   0  0  0  0  0  0  0  0  0  0  0  0
    0.6750   65.5488   83.3224 C   0  0  0  0  0  0  0  0  0  0  0  0
    0.0659   64.1486   83.3885 C   0  0  0  0  0  0  0  0  0  0  0  0
    0.2351   62.1780   89.4977 C   0  0  0  0  0  0  0  0  0  0  0  0
   -0.7198   63.0507   88.9072 O   0  0  0  0  0  0  0  0  0  0  0  0
 29 30  1  0  0  0
 30 18  1  0  0  0
 18 19  1  0  0  0
 19 20  2  0  0  0
 20 21  1  0  0  0
 21 22  2  0  0  0
 22 23  1  0  0  0
 22 24  1  0  0  0
 24 25  1  0  0  0
 25 26  2  0  0  0
 25 27  1  0  0  0
 27 28  1  0  0  0
 28 17  1  0  0  0
 17  1  1  0  0  0
  1  2  2  0  0  0
  1  3  1  0  0  0
  3  5  1  0  0  0
  5  6  2  0  0  0
  6  7  1  0  0  0
  7 10  1  0  0  0
 10 11  1  0  0  0
 11 12  2  0  0  0
 11 13  1  0  0  0
 13 14  1  0  0  0
  7  8  2  0  0  0
  8  9  1  0  0  0
 23 18  2  0  0  0
  9  5  1  0  0  0
 28 21  1  0  0  0
  3  4  1  0  0  0
 13 15  1  0  0  0
 14 16  1  0  0  0
M  END
> <minimizedAffinity>
-9.97300

$$$$



 30 32  0  0  0  0  0  0  0  0999 V2000
    0.3232   61.8839   81.9398 C   0  0  0  0  0  0  0  0  0  0  0  0
    0.8741   60.8238   81.6713 O   0  0  0  0  0  0  0  0  0  0  0  0
   -0.9103   62.3165   81.5039 N   0  0  0  0  0  0  0  0  0  0  0  0
   -1.2465   63.2287   81.7794 H   0  0  0  0  0  0  0  0  0  0  0  0
   -1.7866   61.6395   80.6950 C   0  0  0  0  0  0  0  0  0  0  0  0
   -1.6127   61.6063   79.3919 N   0  0  0  0  0  0  0  0  0  0  0  0
   -2.6217   60.8517   78.7993 C   0  0  0  0  0  0  0  0  0  0  0  0
   -3.5522   60.3428   79.6848 C   0  0  0  0  0  0  0  0  0  0  0  0
   -3.1486   60.8059   81.2823 S   0  0  0  0  0  0  0  0  0  0  0  0
   -2.6053   60.6692   77.3181 C   0  0  0  0  0  0  0  0  0  0  0  0
   -1.6890   59.5361   76.9131 C   0  0  0  0  0  0  0  0  0  0  0  0
   -2.0918   58.4062   76.6373 O   0  0  0  0  0  0  0  0  0  0  0  0
   -0.3473   59.8563   76.9193 N   0  0  0  0  0  0  0  0  0  0  0  0
    0.5045   58.8453   76.4077 O   0  0  0  0  0  0  0  0  0  0  0  0
   -0.0803   60.8166   76.7006 H   0  0  0  0  0  0  0  0  0  0  0  0
   -0.1217   58.1104   76.2251 H   0  0  0  0  0  0  0  0  0  0  0  0
    0.9980   62.9283   82.8177 C   0  0  0  0  0  0  0  0  0  0  0  0
   -0.7460   63.1148   87.5619 C   0  0  0  0  0  0  0  0  0  0  0  0
   -1.5313   62.5108   86.5765 C   0  0  0  0  0  0  0  0  0  0  0  0
   -1.2983   62.7780   85.2213 C   0  0  0  0  0  0  0  0  0  0  0  0
   -0.2802   63.6565   84.8398 C   0  0  0  0  0  0  0  0  0  0  0  0
    0.4918   64.2535   85.8333 C   0  0  0  0  0  0  0  0  0  0  0  0
    0.2740   63.9885   87.1828 C   0  0  0  0  0  0  0  0  0  0  0  0
    1.5510   65.1209   85.5122 O   0  0  0  0  0  0  0  0  0  0  0  0
    1.6911   65.6247   84.2266 C   0  0  0  0  0  0  0  0  0  0  0  0
    2.6879   66.2528   83.8861 O   0  0  0  0  0  0  0  0  0  0  0  0
    0.5188   65.3957   83.3094 C   0  0  0  0  0  0  0  0  0  0  0  0
    0.0070   63.9579   83.3925 C   0  0  0  0  0  0  0  0  0  0  0  0
    0.2288   62.3337   89.5863 C   0  0  0  0  0  0  0  0  0  0  0  0
   -0.8700   62.9333   88.9116 O   0  0  0  0  0  0  0  0  0  0  0  0
 29 30  1  0  0  0
 30 18  1  0  0  0
 18 19  1  0  0  0
 19 20  2  0  0  0
 20 21  1  0  0  0
 21 22  2  0  0  0
 22 23  1  0  0  0
 22 24  1  0  0  0
 24 25  1  0  0  0
 25 26  2  0  0  0
 25 27  1  0  0  0
 27 28  1  0  0  0
 28 17  1  0  0  0
 17  1  1  0  0  0
  1  2  2  0  0  0
  1  3  1  0  0  0
  3  5  1  0  0  0
  5  6  2  0  0  0
  6  7  1  0  0  0
  7 10  1  0  0  0
 10 11  1  0  0  0
 11 12  2  0  0  0
 11 13  1  0  0  0
 13 14  1  0  0  0
  7  8  2  0  0  0
  8  9  1  0  0  0
 23 18  2  0  0  0
  9  5  1  0  0  0
 28 21  1  0  0  0
  3  4  1  0  0  0
 13 15  1  0  0  0
 14 16  1  0  0  0
M  END
> <minimizedAffinity>
-9.66511

$$$$



 30 32  0  0  0  0  0  0  0  0999 V2000
   -2.0969   62.7224   81.0754 C   0  0  0  0  0  0  0  0  0  0  0  0
   -3.2222   62.3601   80.7559 O   0  0  0  0  0  0  0  0  0  0  0  0
   -0.9878   62.8125   80.2628 N   0  0  0  0  0  0  0  0  0  0  0  0
   -0.1034   63.1052   80.6543 H   0  0  0  0  0  0  0  0  0  0  0  0
   -0.9194   62.5349   78.9217 C   0  0  0  0  0  0  0  0  0  0  0  0
   -0.7894   61.2976   78.4955 N   0  0  0  0  0  0  0  0  0  0  0  0
   -0.7552   61.2781   77.1036 C   0  0  0  0  0  0  0  0  0  0  0  0
   -0.8452   62.5227   76.5105 C   0  0  0  0  0  0  0  0  0  0  0  0
   -0.9877   63.7314   77.7140 S   0  0  0  0  0  0  0  0  0  0  0  0
   -0.6293   59.9640   76.4074 C   0  0  0  0  0  0  0  0  0  0  0  0
   -1.9151   59.1717   76.4901 C   0  0  0  0  0  0  0  0  0  0  0  0
   -1.9551   57.9420   76.4557 O   0  0  0  0  0  0  0  0  0  0  0  0
   -3.0570   59.9420   76.5631 N   0  0  0  0  0  0  0  0  0  0  0  0
   -4.2512   59.2101   76.7815 O   0  0  0  0  0  0  0  0  0  0  0  0
   -2.9980   60.8479   77.0292 H   0  0  0  0  0  0  0  0  0  0  0  0
   -3.9376   58.2790   76.7640 H   0  0  0  0  0  0  0  0  0  0  0  0
   -1.7656   63.1087   82.5099 C   0  0  0  0  0  0  0  0  0  0  0  0
    1.6064   66.5273   84.0995 C   0  0  0  0  0  0  0  0  0  0  0  0
    1.5980   66.1629   82.7505 C   0  0  0  0  0  0  0  0  0  0  0  0
    0.9874   64.9704   82.3417 C   0  0  0  0  0  0  0  0  0  0  0  0
    0.3836   64.1285   83.2802 C   0  0  0  0  0  0  0  0  0  0  0  0
    0.4032   64.5032   84.6213 C   0  0  0  0  0  0  0  0  0  0  0  0
    1.0001   65.6903   85.0373 C   0  0  0  0  0  0  0  0  0  0  0  0
   -0.2149   63.7151   85.6084 O   0  0  0  0  0  0  0  0  0  0  0  0
   -0.6214   62.4178   85.3294 C   0  0  0  0  0  0  0  0  0  0  0  0
   -1.2984   61.7706   86.1211 O   0  0  0  0  0  0  0  0  0  0  0  0
   -0.1279   61.8504   84.0245 C   0  0  0  0  0  0  0  0  0  0  0  0
   -0.2928   62.8452   82.8759 C   0  0  0  0  0  0  0  0  0  0  0  0
    3.1262   68.3362   83.8224 C   0  0  0  0  0  0  0  0  0  0  0  0
    2.1628   67.6618   84.6221 O   0  0  0  0  0  0  0  0  0  0  0  0
 29 30  1  0  0  0
 30 18  1  0  0  0
 18 19  1  0  0  0
 19 20  2  0  0  0
 20 21  1  0  0  0
 21 22  2  0  0  0
 22 23  1  0  0  0
 22 24  1  0  0  0
 24 25  1  0  0  0
 25 26  2  0  0  0
 25 27  1  0  0  0
 27 28  1  0  0  0
 28 17  1  0  0  0
 17  1  1  0  0  0
  1  2  2  0  0  0
  1  3  1  0  0  0
  3  5  1  0  0  0
  5  6  2  0  0  0
  6  7  1  0  0  0
  7 10  1  0  0  0
 10 11  1  0  0  0
 11 12  2  0  0  0
 11 13  1  0  0  0
 13 14  1  0  0  0
  7  8  2  0  0  0
  8  9  1  0  0  0
 23 18  2  0  0  0
  9  5  1  0  0  0
 28 21  1  0  0  0
  3  4  1  0  0  0
 13 15  1  0  0  0
 14 16  1  0  0  0
M  END
> <minimizedAffinity>
-9.49435

$$$$



 30 32  0  0  0  0  0  0  0  0999 V2000
   -2.6526   61.5709   83.6085 C   0  0  0  0  0  0  0  0  0  0  0  0
   -3.1966   60.4809   83.7328 O   0  0  0  0  0  0  0  0  0  0  0  0
   -2.2945   62.1949   82.4334 N   0  0  0  0  0  0  0  0  0  0  0  0
   -1.8267   63.0901   82.4648 H   0  0  0  0  0  0  0  0  0  0  0  0
   -2.4923   61.7334   81.1574 C   0  0  0  0  0  0  0  0  0  0  0  0
   -1.4800   61.3245   80.4241 N   0  0  0  0  0  0  0  0  0  0  0  0
   -1.9389   60.8967   79.1811 C   0  0  0  0  0  0  0  0  0  0  0  0
   -3.3042   61.0121   79.0033 C   0  0  0  0  0  0  0  0  0  0  0  0
   -4.0227   61.6534   80.4182 S   0  0  0  0  0  0  0  0  0  0  0  0
   -0.9507   60.3724   78.1932 C   0  0  0  0  0  0  0  0  0  0  0  0
   -0.1226   61.4889   77.5971 C   0  0  0  0  0  0  0  0  0  0  0  0
   -0.1654   61.8017   76.4075 O   0  0  0  0  0  0  0  0  0  0  0  0
    0.7276   62.1085   78.4894 N   0  0  0  0  0  0  0  0  0  0  0  0
    1.4017   63.2437   77.9732 O   0  0  0  0  0  0  0  0  0  0  0  0
    0.4405   62.1670   79.4669 H   0  0  0  0  0  0  0  0  0  0  0  0
    1.1107   63.2567   77.0348 H   0  0  0  0  0  0  0  0  0  0  0  0
   -2.2538   62.4010   84.8204 C   0  0  0  0  0  0  0  0  0  0  0  0
    1.5060   65.7551   84.3758 C   0  0  0  0  0  0  0  0  0  0  0  0
    1.3610   64.7687   83.3967 C   0  0  0  0  0  0  0  0  0  0  0  0
    0.6228   63.6083   83.6627 C   0  0  0  0  0  0  0  0  0  0  0  0
    0.0269   63.4218   84.9134 C   0  0  0  0  0  0  0  0  0  0  0  0
    0.1832   64.4119   85.8802 C   0  0  0  0  0  0  0  0  0  0  0  0
    0.9080   65.5728   85.6234 C   0  0  0  0  0  0  0  0  0  0  0  0
   -0.4185   64.2975   87.1460 O   0  0  0  0  0  0  0  0  0  0  0  0
   -0.9524   63.0893   87.5716 C   0  0  0  0  0  0  0  0  0  0  0  0
   -1.6165   63.0049   88.5992 O   0  0  0  0  0  0  0  0  0  0  0  0
   -0.6123   61.8945   86.7201 C   0  0  0  0  0  0  0  0  0  0  0  0
   -0.7838   62.1931   85.2309 C   0  0  0  0  0  0  0  0  0  0  0  0
    2.1886   67.5342   82.9520 C   0  0  0  0  0  0  0  0  0  0  0  0
    2.1945   66.9285   84.2386 O   0  0  0  0  0  0  0  0  0  0  0  0
 29 30  1  0  0  0
 30 18  1  0  0  0
 18 19  1  0  0  0
 19 20  2  0  0  0
 20 21  1  0  0  0
 21 22  2  0  0  0
 22 23  1  0  0  0
 22 24  1  0  0  0
 24 25  1  0  0  0
 25 26  2  0  0  0
 25 27  1  0  0  0
 27 28  1  0  0  0
 28 17  1  0  0  0
 17  1  1  0  0  0
  1  2  2  0  0  0
  1  3  1  0  0  0
  3  5  1  0  0  0
  5  6  2  0  0  0
  6  7  1  0  0  0
  7 10  1  0  0  0
 10 11  1  0  0  0
 11 12  2  0  0  0
 11 13  1  0  0  0
 13 14  1  0  0  0
  7  8  2  0  0  0
  8  9  1  0  0  0
 23 18  2  0  0  0
  9  5  1  0  0  0
 28 21  1  0  0  0
  3  4  1  0  0  0
 13 15  1  0  0  0
 14 16  1  0  0  0
M  END
> <minimizedAffinity>
-9.47459

$$$$



 30 32  0  0  0  0  0  0  0  0999 V2000
   -1.4413   61.2057   81.5865 C   0  0  0  0  0  0  0  0  0  0  0  0
   -0.3146   61.0912   81.1208 O   0  0  0  0  0  0  0  0  0  0  0  0
   -2.6220   61.3413   80.8891 N   0  0  0  0  0  0  0  0  0  0  0  0
   -3.4908   61.4518   81.3932 H   0  0  0  0  0  0  0  0  0  0  0  0
   -2.7822   61.3550   79.5273 C   0  0  0  0  0  0  0  0  0  0  0  0
   -2.3497   62.3674   78.8080 N   0  0  0  0  0  0  0  0  0  0  0  0
   -2.6193   62.1398   77.4611 C   0  0  0  0  0  0  0  0  0  0  0  0
   -3.2726   60.9506   77.2002 C   0  0  0  0  0  0  0  0  0  0  0  0
   -3.5404   60.1015   78.6619 S   0  0  0  0  0  0  0  0  0  0  0  0
   -2.1935   63.1628   76.4613 C   0  0  0  0  0  0  0  0  0  0  0  0
   -0.8216   63.7114   76.7851 C   0  0  0  0  0  0  0  0  0  0  0  0
   -0.5090   64.8906   76.6218 O   0  0  0  0  0  0  0  0  0  0  0  0
    0.0773   62.7696   77.2408 N   0  0  0  0  0  0  0  0  0  0  0  0
    1.3177   63.2986   77.6778 O   0  0  0  0  0  0  0  0  0  0  0  0
   -0.2832   61.9790   77.7761 H   0  0  0  0  0  0  0  0  0  0  0  0
    1.2263   64.2552   77.4727 H   0  0  0  0  0  0  0  0  0  0  0  0
   -1.6778   61.2473   83.0895 C   0  0  0  0  0  0  0  0  0  0  0  0
   -1.4400   62.9646   87.8411 C   0  0  0  0  0  0  0  0  0  0  0  0
   -2.6511   62.4535   87.3671 C   0  0  0  0  0  0  0  0  0  0  0  0
   -2.8843   62.3441   85.9902 C   0  0  0  0  0  0  0  0  0  0  0  0
   -1.9094   62.7502   85.0745 C   0  0  0  0  0  0  0  0  0  0  0  0
   -0.7089   63.2609   85.5619 C   0  0  0  0  0  0  0  0  0  0  0  0
   -0.4637   63.3662   86.9285 C   0  0  0  0  0  0  0  0  0  0  0  0
    0.3228   63.6560   84.6921 O   0  0  0  0  0  0  0  0  0  0  0  0
    0.0860   63.8096   83.3333 C   0  0  0  0  0  0  0  0  0  0  0  0
    0.9998   63.9997   82.5377 O   0  0  0  0  0  0  0  0  0  0  0  0
   -1.3622   63.7833   82.9207 C   0  0  0  0  0  0  0  0  0  0  0  0
   -2.1203   62.6359   83.5878 C   0  0  0  0  0  0  0  0  0  0  0  0
    0.1658   62.5860   89.5547 C   0  0  0  0  0  0  0  0  0  0  0  0
   -1.0912   63.1171   89.1545 O   0  0  0  0  0  0  0  0  0  0  0  0
 29 30  1  0  0  0
 30 18  1  0  0  0
 18 19  1  0  0  0
 19 20  2  0  0  0
 20 21  1  0  0  0
 21 22  2  0  0  0
 22 23  1  0  0  0
 22 24  1  0  0  0
 24 25  1  0  0  0
 25 26  2  0  0  0
 25 27  1  0  0  0
 27 28  1  0  0  0
 28 17  1  0  0  0
 17  1  1  0  0  0
  1  2  2  0  0  0
  1  3  1  0  0  0
  3  5  1  0  0  0
  5  6  2  0  0  0
  6  7  1  0  0  0
  7 10  1  0  0  0
 10 11  1  0  0  0
 11 12  2  0  0  0
 11 13  1  0  0  0
 13 14  1  0  0  0
  7  8  2  0  0  0
  8  9  1  0  0  0
 23 18  2  0  0  0
  9  5  1  0  0  0
 28 21  1  0  0  0
  3  4  1  0  0  0
 13 15  1  0  0  0
 14 16  1  0  0  0
M  END
> <minimizedAffinity>
-9.46919

$$$$



 30 32  0  0  0  0  0  0  0  0999 V2000
    0.4393   64.7716   78.8934 C   0  0  0  0  0  0  0  0  0  0  0  0
    0.1606   65.1675   77.7687 O   0  0  0  0  0  0  0  0  0  0  0  0
    0.0908   63.5665   79.4634 N   0  0  0  0  0  0  0  0  0  0  0  0
    0.3639   63.3659   80.4154 H   0  0  0  0  0  0  0  0  0  0  0  0
   -0.6232   62.5510   78.8810 C   0  0  0  0  0  0  0  0  0  0  0  0
   -1.7848   62.1767   79.3710 N   0  0  0  0  0  0  0  0  0  0  0  0
   -2.3116   61.1427   78.6015 C   0  0  0  0  0  0  0  0  0  0  0  0
   -1.5120   60.7491   77.5458 C   0  0  0  0  0  0  0  0  0  0  0  0
   -0.0873   61.6970   77.5104 S   0  0  0  0  0  0  0  0  0  0  0  0
   -3.6414   60.5768   78.9743 C   0  0  0  0  0  0  0  0  0  0  0  0
   -3.4978   59.4296   79.9495 C   0  0  0  0  0  0  0  0  0  0  0  0
   -3.8172   58.2712   79.6827 O   0  0  0  0  0  0  0  0  0  0  0  0
   -3.0177   59.7918   81.1908 N   0  0  0  0  0  0  0  0  0  0  0  0
   -2.7488   58.7055   82.0610 O   0  0  0  0  0  0  0  0  0  0  0  0
   -2.3693   60.5779   81.2459 H   0  0  0  0  0  0  0  0  0  0  0  0
   -3.0506   57.9315   81.5363 H   0  0  0  0  0  0  0  0  0  0  0  0
    1.2270   65.6374   79.8664 C   0  0  0  0  0  0  0  0  0  0  0  0
    1.0699   64.9346   84.8729 C   0  0  0  0  0  0  0  0  0  0  0  0
    0.1131   64.3058   84.0719 C   0  0  0  0  0  0  0  0  0  0  0  0
   -0.1386   64.7668   82.7733 C   0  0  0  0  0  0  0  0  0  0  0  0
    0.5616   65.8652   82.2660 C   0  0  0  0  0  0  0  0  0  0  0  0
    1.5094   66.4837   83.0774 C   0  0  0  0  0  0  0  0  0  0  0  0
    1.7732   66.0284   84.3665 C   0  0  0  0  0  0  0  0  0  0  0  0
    2.2688   67.5723   82.6130 O   0  0  0  0  0  0  0  0  0  0  0  0
    1.9166   68.2378   81.4471 C   0  0  0  0  0  0  0  0  0  0  0  0
    2.6474   69.0834   80.9423 O   0  0  0  0  0  0  0  0  0  0  0  0
    0.5625   67.8907   80.8866 C   0  0  0  0  0  0  0  0  0  0  0  0
    0.3262   66.3807   80.8707 C   0  0  0  0  0  0  0  0  0  0  0  0
    0.3569   64.1370   86.9975 C   0  0  0  0  0  0  0  0  0  0  0  0
    1.4090   64.5790   86.1490 O   0  0  0  0  0  0  0  0  0  0  0  0
 29 30  1  0  0  0
 30 18  1  0  0  0
 18 19  1  0  0  0
 19 20  2  0  0  0
 20 21  1  0  0  0
 21 22  2  0  0  0
 22 23  1  0  0  0
 22 24  1  0  0  0
 24 25  1  0  0  0
 25 26  2  0  0  0
 25 27  1  0  0  0
 27 28  1  0  0  0
 28 17  1  0  0  0
 17  1  1  0  0  0
  1  2  2  0  0  0
  1  3  1  0  0  0
  3  5  1  0  0  0
  5  6  2  0  0  0
  6  7  1  0  0  0
  7 10  1  0  0  0
 10 11  1  0  0  0
 11 12  2  0  0  0
 11 13  1  0  0  0
 13 14  1  0  0  0
  7  8  2  0  0  0
  8  9  1  0  0  0
 23 18  2  0  0  0
  9  5  1  0  0  0
 28 21  1  0  0  0
  3  4  1  0  0  0
 13 15  1  0  0  0
 14 16  1  0  0  0
M  END
> <minimizedAffinity>
-9.44844

$$$$



 30 32  0  0  0  0  0  0  0  0999 V2000
    0.8374   65.5989   82.4741 C   0  0  0  0  0  0  0  0  0  0  0  0
   -0.0690   65.8474   81.6891 O   0  0  0  0  0  0  0  0  0  0  0  0
    0.8813   64.5812   83.4020 N   0  0  0  0  0  0  0  0  0  0  0  0
    1.6819   64.4952   84.0125 H   0  0  0  0  0  0  0  0  0  0  0  0
   -0.0730   63.6219   83.6244 C   0  0  0  0  0  0  0  0  0  0  0  0
   -0.7555   63.5982   84.7483 N   0  0  0  0  0  0  0  0  0  0  0  0
   -1.6645   62.5437   84.7272 C   0  0  0  0  0  0  0  0  0  0  0  0
   -1.6300   61.7800   83.5764 C   0  0  0  0  0  0  0  0  0  0  0  0
   -0.4511   62.4005   82.5019 S   0  0  0  0  0  0  0  0  0  0  0  0
   -2.5587   62.3438   85.9053 C   0  0  0  0  0  0  0  0  0  0  0  0
   -1.7616   62.1842   87.1808 C   0  0  0  0  0  0  0  0  0  0  0  0
   -1.0519   61.2067   87.4169 O   0  0  0  0  0  0  0  0  0  0  0  0
   -1.9271   63.2084   88.0898 N   0  0  0  0  0  0  0  0  0  0  0  0
   -1.0787   63.1363   89.2232 O   0  0  0  0  0  0  0  0  0  0  0  0
   -2.1125   64.1456   87.7310 H   0  0  0  0  0  0  0  0  0  0  0  0
   -0.6052   62.2870   89.0820 H   0  0  0  0  0  0  0  0  0  0  0  0
    2.0880   66.4640   82.5410 C   0  0  0  0  0  0  0  0  0  0  0  0
    6.3635   66.1568   85.2260 C   0  0  0  0  0  0  0  0  0  0  0  0
    5.3311   65.2539   85.4935 C   0  0  0  0  0  0  0  0  0  0  0  0
    4.0208   65.5334   85.0848 C   0  0  0  0  0  0  0  0  0  0  0  0
    3.7304   66.7219   84.4088 C   0  0  0  0  0  0  0  0  0  0  0  0
    4.7690   67.6136   84.1525 C   0  0  0  0  0  0  0  0  0  0  0  0
    6.0763   67.3418   84.5471 C   0  0  0  0  0  0  0  0  0  0  0  0
    4.5464   68.8104   83.4486 O   0  0  0  0  0  0  0  0  0  0  0  0
    3.2574   69.2744   83.2268 C   0  0  0  0  0  0  0  0  0  0  0  0
    3.0339   70.2259   82.4861 O   0  0  0  0  0  0  0  0  0  0  0  0
    2.1730   68.5688   83.9978 C   0  0  0  0  0  0  0  0  0  0  0  0
    2.3361   67.0500   83.9437 C   0  0  0  0  0  0  0  0  0  0  0  0
    8.6247   66.8128   84.8863 C   0  0  0  0  0  0  0  0  0  0  0  0
    7.6782   65.9985   85.5670 O   0  0  0  0  0  0  0  0  0  0  0  0
 29 30  1  0  0  0
 30 18  1  0  0  0
 18 19  1  0  0  0
 19 20  2  0  0  0
 20 21  1  0  0  0
 21 22  2  0  0  0
 22 23  1  0  0  0
 22 24  1  0  0  0
 24 25  1  0  0  0
 25 26  2  0  0  0
 25 27  1  0  0  0
 27 28  1  0  0  0
 28 17  1  0  0  0
 17  1  1  0  0  0
  1  2  2  0  0  0
  1  3  1  0  0  0
  3  5  1  0  0  0
  5  6  2  0  0  0
  6  7  1  0  0  0
  7 10  1  0  0  0
 10 11  1  0  0  0
 11 12  2  0  0  0
 11 13  1  0  0  0
 13 14  1  0  0  0
  7  8  2  0  0  0
  8  9  1  0  0  0
 23 18  2  0  0  0
  9  5  1  0  0  0
 28 21  1  0  0  0
  3  4  1  0  0  0
 13 15  1  0  0  0
 14 16  1  0  0  0
M  END
> <minimizedAffinity>
-9.33246

$$$$



 30 32  0  0  0  0  0  0  0  0999 V2000
   -0.1452   64.5776   80.8450 C   0  0  0  0  0  0  0  0  0  0  0  0
    0.6212   65.3583   80.2949 O   0  0  0  0  0  0  0  0  0  0  0  0
   -0.9398   63.6259   80.2437 N   0  0  0  0  0  0  0  0  0  0  0  0
   -1.5512   63.0544   80.8099 H   0  0  0  0  0  0  0  0  0  0  0  0
   -1.0212   63.3413   78.9047 C   0  0  0  0  0  0  0  0  0  0  0  0
   -1.4896   62.1850   78.4889 N   0  0  0  0  0  0  0  0  0  0  0  0
   -1.4808   62.1442   77.0971 C   0  0  0  0  0  0  0  0  0  0  0  0
   -0.9828   63.2828   76.4935 C   0  0  0  0  0  0  0  0  0  0  0  0
   -0.5320   64.4239   77.6868 S   0  0  0  0  0  0  0  0  0  0  0  0
   -1.9912   60.9204   76.4121 C   0  0  0  0  0  0  0  0  0  0  0  0
   -2.5910   59.9455   77.4008 C   0  0  0  0  0  0  0  0  0  0  0  0
   -2.0491   58.8879   77.7213 O   0  0  0  0  0  0  0  0  0  0  0  0
   -3.8274   60.3146   77.8884 N   0  0  0  0  0  0  0  0  0  0  0  0
   -4.3308   59.4795   78.9174 O   0  0  0  0  0  0  0  0  0  0  0  0
   -4.0301   61.3103   77.9835 H   0  0  0  0  0  0  0  0  0  0  0  0
   -3.6468   58.7764   78.9758 H   0  0  0  0  0  0  0  0  0  0  0  0
   -0.3452   64.5933   82.3539 C   0  0  0  0  0  0  0  0  0  0  0  0
   -0.4689   63.3780   87.2622 C   0  0  0  0  0  0  0  0  0  0  0  0
    0.3843   64.4012   86.8406 C   0  0  0  0  0  0  0  0  0  0  0  0
    0.7537   64.5068   85.4935 C   0  0  0  0  0  0  0  0  0  0  0  0
    0.2767   63.5859   84.5563 C   0  0  0  0  0  0  0  0  0  0  0  0
   -0.5699   62.5696   84.9921 C   0  0  0  0  0  0  0  0  0  0  0  0
   -0.9499   62.4605   86.3271 C   0  0  0  0  0  0  0  0  0  0  0  0
   -1.1083   61.6323   84.0926 O   0  0  0  0  0  0  0  0  0  0  0  0
   -0.6076   61.5168   82.8034 C   0  0  0  0  0  0  0  0  0  0  0  0
   -1.1600   60.8212   81.9578 O   0  0  0  0  0  0  0  0  0  0  0  0
    0.6793   62.2534   82.5395 C   0  0  0  0  0  0  0  0  0  0  0  0
    0.6427   63.6755   83.0983 C   0  0  0  0  0  0  0  0  0  0  0  0
   -0.0074   62.5205   89.4324 C   0  0  0  0  0  0  0  0  0  0  0  0
   -0.9048   63.1711   88.5416 O   0  0  0  0  0  0  0  0  0  0  0  0
 29 30  1  0  0  0
 30 18  1  0  0  0
 18 19  1  0  0  0
 19 20  2  0  0  0
 20 21  1  0  0  0
 21 22  2  0  0  0
 22 23  1  0  0  0
 22 24  1  0  0  0
 24 25  1  0  0  0
 25 26  2  0  0  0
 25 27  1  0  0  0
 27 28  1  0  0  0
 28 17  1  0  0  0
 17  1  1  0  0  0
  1  2  2  0  0  0
  1  3  1  0  0  0
  3  5  1  0  0  0
  5  6  2  0  0  0
  6  7  1  0  0  0
  7 10  1  0  0  0
 10 11  1  0  0  0
 11 12  2  0  0  0
 11 13  1  0  0  0
 13 14  1  0  0  0
  7  8  2  0  0  0
  8  9  1  0  0  0
 23 18  2  0  0  0
  9  5  1  0  0  0
 28 21  1  0  0  0
  3  4  1  0  0  0
 13 15  1  0  0  0
 14 16  1  0  0  0
M  END
> <minimizedAffinity>
-9.31410

$$$$



 30 32  0  0  0  0  0  0  0  0999 V2000
    0.9079   65.1476   83.1783 C   0  0  0  0  0  0  0  0  0  0  0  0
    0.4452   64.8826   84.2806 O   0  0  0  0  0  0  0  0  0  0  0  0
    0.7708   64.4162   82.0186 N   0  0  0  0  0  0  0  0  0  0  0  0
    1.2239   64.7312   81.1721 H   0  0  0  0  0  0  0  0  0  0  0  0
    0.0692   63.2496   81.8537 C   0  0  0  0  0  0  0  0  0  0  0  0
   -1.0814   63.2395   81.2168 N   0  0  0  0  0  0  0  0  0  0  0  0
   -1.5861   61.9426   81.1730 C   0  0  0  0  0  0  0  0  0  0  0  0
   -0.7974   60.9989   81.8023 C   0  0  0  0  0  0  0  0  0  0  0  0
    0.6016   61.7461   82.4459 S   0  0  0  0  0  0  0  0  0  0  0  0
   -2.8837   61.7010   80.4762 C   0  0  0  0  0  0  0  0  0  0  0  0
   -2.9019   60.3482   79.7998 C   0  0  0  0  0  0  0  0  0  0  0  0
   -2.3736   60.1300   78.7098 O   0  0  0  0  0  0  0  0  0  0  0  0
   -3.6022   59.3767   80.4843 N   0  0  0  0  0  0  0  0  0  0  0  0
   -3.5059   58.0761   79.9288 O   0  0  0  0  0  0  0  0  0  0  0  0
   -3.6227   59.4256   81.5034 H   0  0  0  0  0  0  0  0  0  0  0  0
   -2.9778   58.2300   79.1146 H   0  0  0  0  0  0  0  0  0  0  0  0
    1.7727   66.3804   82.9568 C   0  0  0  0  0  0  0  0  0  0  0  0
    6.2964   66.0597   85.1966 C   0  0  0  0  0  0  0  0  0  0  0  0
    5.2610   65.2347   85.6435 C   0  0  0  0  0  0  0  0  0  0  0  0
    3.9274   65.5493   85.3524 C   0  0  0  0  0  0  0  0  0  0  0  0
    3.6172   66.6958   84.6153 C   0  0  0  0  0  0  0  0  0  0  0  0
    4.6596   67.5102   84.1797 C   0  0  0  0  0  0  0  0  0  0  0  0
    5.9890   67.2023   84.4565 C   0  0  0  0  0  0  0  0  0  0  0  0
    4.4141   68.6592   83.4072 O   0  0  0  0  0  0  0  0  0  0  0  0
    3.1300   69.1709   83.2841 C   0  0  0  0  0  0  0  0  0  0  0  0
    2.8690   70.0730   82.4953 O   0  0  0  0  0  0  0  0  0  0  0  0
    2.1059   68.5837   84.2193 C   0  0  0  0  0  0  0  0  0  0  0  0
    2.1964   67.0589   84.2731 C   0  0  0  0  0  0  0  0  0  0  0  0
    8.5296   66.7630   84.7763 C   0  0  0  0  0  0  0  0  0  0  0  0
    7.6322   65.8602   85.4102 O   0  0  0  0  0  0  0  0  0  0  0  0
 29 30  1  0  0  0
 30 18  1  0  0  0
 18 19  1  0  0  0
 19 20  2  0  0  0
 20 21  1  0  0  0
 21 22  2  0  0  0
 22 23  1  0  0  0
 22 24  1  0  0  0
 24 25  1  0  0  0
 25 26  2  0  0  0
 25 27  1  0  0  0
 27 28  1  0  0  0
 28 17  1  0  0  0
 17  1  1  0  0  0
  1  2  2  0  0  0
  1  3  1  0  0  0
  3  5  1  0  0  0
  5  6  2  0  0  0
  6  7  1  0  0  0
  7 10  1  0  0  0
 10 11  1  0  0  0
 11 12  2  0  0  0
 11 13  1  0  0  0
 13 14  1  0  0  0
  7  8  2  0  0  0
  8  9  1  0  0  0
 23 18  2  0  0  0
  9  5  1  0  0  0
 28 21  1  0  0  0
  3  4  1  0  0  0
 13 15  1  0  0  0
 14 16  1  0  0  0
M  END
> <minimizedAffinity>
-9.24423

$$$$
