
     RDKit          3D

 86 89  0  0  0  0  0  0  0  0999 V2000
   -3.0545   -4.8845    4.2042 C   0  0  0  0  0  0  0  0  0  0  0  0
   -2.3127   -5.7917    3.2342 C   0  0  0  0  0  0  0  0  0  0  0  0
   -1.9083   -5.0780    1.9465 C   0  0  0  0  0  0  0  0  0  0  0  0
   -1.0097   -4.0002    2.2637 O   0  0  0  0  0  0  0  0  0  0  0  0
   -0.4799   -3.4706    1.1123 C   0  0  0  0  0  0  0  0  0  0  0  0
    0.6360   -4.1118    0.5581 C   0  0  0  0  0  0  0  0  0  0  0  0
    1.2169   -3.6216   -0.6106 C   0  0  0  0  0  0  0  0  0  0  0  0
    0.6770   -2.4857   -1.2150 C   0  0  0  0  0  0  0  0  0  0  0  0
    1.4031   -1.8386   -2.6994 S   0  0  0  0  0  0  0  0  0  0  0  0
    0.3967   -1.9219   -3.7343 O   0  0  0  0  0  0  0  0  0  0  0  0
    2.7122   -2.4342   -2.8687 O   0  0  0  0  0  0  0  0  0  0  0  0
    1.6531   -0.1929   -2.3155 N   0  0  0  0  0  0  0  0  0  0  0  0
    2.6194    0.0917   -1.2182 C   0  0  0  0  0  0  0  0  0  0  0  0
    3.8897    0.7367   -1.7668 C   0  0  0  0  0  0  0  0  0  0  0  0
    3.6273    2.1198   -2.4219 C   0  0  0  0  0  0  0  0  0  0  0  0
    3.5390    3.2882   -1.3745 C   0  0  0  0  0  0  0  0  0  0  0  0
    4.7902    3.7348   -0.6124 C   0  0  0  0  0  0  0  0  0  0  0  0
    5.1869    2.7228    0.3015 O   0  0  0  0  0  0  0  0  0  0  0  0
    6.2755    3.1180    1.1189 N   0  0  0  0  0  0  0  0  0  0  0  0
    6.5652    2.2706    1.9608 O   0  0  0  0  0  0  0  0  0  0  0  0
    6.7640    4.2290    0.9070 O   0  0  0  0  0  0  0  0  0  0  0  0
    4.6696    2.4504   -3.5493 C   0  0  0  0  0  0  0  0  0  0  0  0
    6.0601    1.7954   -3.5089 C   0  0  0  0  0  0  0  0  0  0  0  0
    6.6817    2.0167   -2.2551 O   0  0  0  0  0  0  0  0  0  0  0  0
    7.9733    1.4414   -2.1727 N   0  0  0  0  0  0  0  0  0  0  0  0
    8.4976    1.6242   -1.0770 O   0  0  0  0  0  0  0  0  0  0  0  0
    8.3961    0.8549   -3.1690 O   0  0  0  0  0  0  0  0  0  0  0  0
    2.2017    2.0822   -3.0861 C   0  0  0  0  0  0  0  0  0  0  0  0
    1.7951    0.6756   -3.5142 C   0  0  0  0  0  0  0  0  0  0  0  0
   -0.4211   -1.8242   -0.6542 C   0  0  0  0  0  0  0  0  0  0  0  0
   -0.9967   -2.2992    0.5337 C   0  0  0  0  0  0  0  0  0  0  0  0
   -2.1280   -1.5136    1.1177 C   0  0  0  0  0  0  0  0  0  0  0  0
   -2.7926   -0.6872    0.3610 N   0  0  0  0  0  0  0  0  0  0  0  0
   -3.8133    0.0012    1.0173 C   0  0  0  0  0  0  0  0  0  0  0  0
   -4.6873    0.9506    0.4516 C   0  0  0  0  0  0  0  0  0  0  0  0
   -4.7225    1.4221   -0.9644 C   0  0  0  0  0  0  0  0  0  0  0  0
   -3.5792    2.3723   -1.3282 C   0  0  0  0  0  0  0  0  0  0  0  0
   -3.6693    3.7166   -0.6199 C   0  0  0  0  0  0  0  0  0  0  0  0
   -5.5192    1.3443    1.4896 C   0  0  0  0  0  0  0  0  0  0  0  0
   -5.1570    0.6626    2.6321 N   0  0  0  0  0  0  0  0  0  0  0  0
   -5.7980    0.8258    3.9255 C   0  0  0  0  0  0  0  0  0  0  0  0
   -6.8688   -0.2218    4.1742 C   0  0  0  0  0  0  0  0  0  0  0  0
   -4.1049   -0.1653    2.3440 C   0  0  0  0  0  0  0  0  0  0  0  0
   -3.3772   -1.0732    3.1681 C   0  0  0  0  0  0  0  0  0  0  0  0
   -3.5860   -1.2984    4.3551 O   0  0  0  0  0  0  0  0  0  0  0  0
   -2.3782   -1.7078    2.4685 N   0  0  0  0  0  0  0  0  0  0  0  0
   -3.3828   -5.4562    5.0780 H   0  0  0  0  0  0  0  0  0  0  0  0
   -3.9397   -4.4454    3.7334 H   0  0  0  0  0  0  0  0  0  0  0  0
   -2.4120   -4.0736    4.5598 H   0  0  0  0  0  0  0  0  0  0  0  0
   -1.4169   -6.1762    3.7357 H   0  0  0  0  0  0  0  0  0  0  0  0
   -2.9481   -6.6488    2.9855 H   0  0  0  0  0  0  0  0  0  0  0  0
   -1.4241   -5.8060    1.2836 H   0  0  0  0  0  0  0  0  0  0  0  0
   -2.7975   -4.6789    1.4429 H   0  0  0  0  0  0  0  0  0  0  0  0
    1.0504   -4.9965    1.0365 H   0  0  0  0  0  0  0  0  0  0  0  0
    2.0779   -4.1287   -1.0415 H   0  0  0  0  0  0  0  0  0  0  0  0
    2.8874   -0.8234   -0.6799 H   0  0  0  0  0  0  0  0  0  0  0  0
    2.1276    0.7431   -0.4876 H   0  0  0  0  0  0  0  0  0  0  0  0
    4.3036    0.0415   -2.5069 H   0  0  0  0  0  0  0  0  0  0  0  0
    4.6350    0.8027   -0.9721 H   0  0  0  0  0  0  0  0  0  0  0  0
    2.7809    3.0218   -0.6257 H   0  0  0  0  0  0  0  0  0  0  0  0
    3.1562    4.1770   -1.8959 H   0  0  0  0  0  0  0  0  0  0  0  0
    5.5955    3.9910   -1.3072 H   0  0  0  0  0  0  0  0  0  0  0  0
    4.5204    4.6402   -0.0523 H   0  0  0  0  0  0  0  0  0  0  0  0
    4.2461    2.1779   -4.5252 H   0  0  0  0  0  0  0  0  0  0  0  0
    4.8056    3.5392   -3.5877 H   0  0  0  0  0  0  0  0  0  0  0  0
    5.9671    0.7220   -3.7113 H   0  0  0  0  0  0  0  0  0  0  0  0
    6.6630    2.2452   -4.3085 H   0  0  0  0  0  0  0  0  0  0  0  0
    2.1586    2.7623   -3.9459 H   0  0  0  0  0  0  0  0  0  0  0  0
    1.4409    2.4478   -2.3822 H   0  0  0  0  0  0  0  0  0  0  0  0
    0.8269    0.7300   -4.0242 H   0  0  0  0  0  0  0  0  0  0  0  0
    2.5301    0.2591   -4.2121 H   0  0  0  0  0  0  0  0  0  0  0  0
   -0.8157   -0.9319   -1.1394 H   0  0  0  0  0  0  0  0  0  0  0  0
   -5.6845    1.9079   -1.1708 H   0  0  0  0  0  0  0  0  0  0  0  0
   -4.6749    0.5465   -1.6242 H   0  0  0  0  0  0  0  0  0  0  0  0
   -2.6095    1.9116   -1.1061 H   0  0  0  0  0  0  0  0  0  0  0  0
   -3.6057    2.5491   -2.4102 H   0  0  0  0  0  0  0  0  0  0  0  0
   -3.5522    3.6081    0.4625 H   0  0  0  0  0  0  0  0  0  0  0  0
   -4.6304    4.2013   -0.8174 H   0  0  0  0  0  0  0  0  0  0  0  0
   -2.8759    4.3817   -0.9757 H   0  0  0  0  0  0  0  0  0  0  0  0
   -6.3377    2.0527    1.5034 H   0  0  0  0  0  0  0  0  0  0  0  0
   -6.2390    1.8288    3.9522 H   0  0  0  0  0  0  0  0  0  0  0  0
   -5.0232    0.7939    4.6978 H   0  0  0  0  0  0  0  0  0  0  0  0
   -6.4506   -1.2334    4.1551 H   0  0  0  0  0  0  0  0  0  0  0  0
   -7.3344   -0.0638    5.1518 H   0  0  0  0  0  0  0  0  0  0  0  0
   -7.6524   -0.1715    3.4107 H   0  0  0  0  0  0  0  0  0  0  0  0
   -1.8291   -2.3738    2.9956 H   0  0  0  0  0  0  0  0  0  0  0  0
  1  2  1  0
  2  3  1  0
  3  4  1  0
  4  5  1  0
  5  6  1  0
  6  7  2  0
  7  8  1  0
  8  9  1  0
  9 10  2  0
  9 11  2  0
  9 12  1  0
 12 13  1  0
 13 14  1  0
 14 15  1  0
 15 16  1  0
 16 17  1  0
 17 18  1  0
 18 19  1  0
 19 20  2  0
 19 21  1  0
 15 22  1  0
 22 23  1  0
 23 24  1  0
 24 25  1  0
 25 26  2  0
 25 27  1  0
 15 28  1  0
 28 29  1  0
  8 30  2  0
 30 31  1  0
 31 32  1  0
 32 33  2  0
 33 34  1  0
 34 35  1  0
 35 36  1  0
 36 37  1  0
 37 38  1  0
 35 39  2  0
 39 40  1  0
 40 41  1  0
 41 42  1  0
 40 43  1  0
 43 44  1  0
 44 45  2  0
 44 46  1  0
 31  5  2  0
 46 32  1  0
 29 12  1  0
 43 34  2  0
  1 47  1  0
  1 48  1  0
  1 49  1  0
  2 50  1  0
  2 51  1  0
  3 52  1  0
  3 53  1  0
  6 54  1  0
  7 55  1  0
 13 56  1  0
 13 57  1  0
 14 58  1  0
 14 59  1  0
 16 60  1  0
 16 61  1  0
 17 62  1  0
 17 63  1  0
 22 64  1  0
 22 65  1  0
 23 66  1  0
 23 67  1  0
 28 68  1  0
 28 69  1  0
 29 70  1  0
 29 71  1  0
 30 72  1  0
 36 73  1  0
 36 74  1  0
 37 75  1  0
 37 76  1  0
 38 77  1  0
 38 78  1  0
 38 79  1  0
 39 80  1  0
 41 81  1  0
 41 82  1  0
 42 83  1  0
 42 84  1  0
 42 85  1  0
 46 86  1  0
M  CHG  4  19   1  21  -1  25   1  27  -1
M  END
$$$$
