


 36 40  0  0  0  0  0  0  0  0999 V2000
    3.3551   66.2061   84.7615 C   0  0  0  0  0  0  0  0  0  0  0  0
    4.1834   67.1765   84.1808 C   0  0  0  0  0  0  0  0  0  0  0  0
    3.7003   68.0201   83.1738 C   0  0  0  0  0  0  0  0  0  0  0  0
    2.3830   67.8910   82.7317 C   0  0  0  0  0  0  0  0  0  0  0  0
    1.5314   66.9606   83.3241 C   0  0  0  0  0  0  0  0  0  0  0  0
    2.0193   66.1118   84.3290 C   0  0  0  0  0  0  0  0  0  0  0  0
    1.0696   65.1001   84.8714 C   0  0  0  0  0  0  0  0  0  0  0  0
    0.9348   65.0708   86.2467 N   0  0  0  0  0  0  0  0  0  0  0  0
    0.1126   64.2089   86.7203 C   0  0  0  0  0  0  0  0  0  0  0  0
   -0.0811   64.0959   88.0400 O   0  0  0  0  0  0  0  0  0  0  0  0
   -0.6352   63.3427   85.9158 C   0  0  0  0  0  0  0  0  0  0  0  0
   -1.5730   62.3527   86.0782 C   0  0  0  0  0  0  0  0  0  0  0  0
   -2.1661   61.8133   87.3206 C   0  0  0  0  0  0  0  0  0  0  0  0
   -1.9500   61.8658   84.8437 N   0  0  0  0  0  0  0  0  0  0  0  0
   -1.2426   62.5453   83.9545 C   0  0  0  0  0  0  0  0  0  0  0  0
   -0.4321   63.4655   84.5811 N   0  0  0  0  0  0  0  0  0  0  0  0
    0.4181   64.3554   84.0215 N   0  0  0  0  0  0  0  0  0  0  0  0
    0.4972   64.7460   88.4715 H   0  0  0  0  0  0  0  0  0  0  0  0
   -1.2810   62.4069   82.4631 C   0  0  0  0  0  0  0  0  0  0  0  0
   -2.4503   63.2101   81.8628 C   0  0  0  0  0  0  0  0  0  0  0  0
   -3.2460   62.2258   81.0123 C   0  0  0  0  0  0  0  0  0  0  0  0
   -2.9832   60.8796   81.6627 C   0  0  0  0  0  0  0  0  0  0  0  0
   -1.5035   60.9565   82.0082 C   0  0  0  0  0  0  0  0  0  0  0  0
    1.7595   68.9623   81.4529 S   0  0  0  0  0  0  0  0  0  0  0  0
    2.8843   69.7141   80.9373 O   0  0  0  0  0  0  0  0  0  0  0  0
    0.5940   69.6322   81.9888 O   0  0  0  0  0  0  0  0  0  0  0  0
    1.2544   67.8899   80.2490 N   0  0  0  0  0  0  0  0  0  0  0  0
   -0.1879   67.5251   80.1738 C   0  0  0  0  0  0  0  0  0  0  0  0
   -0.4105   66.0195   80.4132 C   0  0  0  0  0  0  0  0  0  0  0  0
    0.3461   65.1239   79.5140 N   0  0  0  0  0  0  0  0  0  0  0  0
   -0.5040   64.5522   78.4724 C   0  0  0  0  0  0  0  0  0  0  0  0
    1.5148   65.8017   78.9150 C   0  0  0  0  0  0  0  0  0  0  0  0
    2.1894   66.7903   79.8831 C   0  0  0  0  0  0  0  0  0  0  0  0
    3.7760   65.3025   85.6990 O   0  0  0  0  0  0  0  0  0  0  0  0
    5.4539   65.5262   87.3714 C   0  0  0  0  0  0  0  0  0  0  0  0
    5.1775   65.1665   85.9226 C   0  0  0  0  0  0  0  0  0  0  0  0
 35 36  1  0  0  0
 36 34  1  0  0  0
 34  1  1  0  0  0
  1  2  1  0  0  0
  2  3  2  0  0  0
  3  4  1  0  0  0
  4 24  1  0  0  0
 24 25  2  0  0  0
 24 26  2  0  0  0
 24 27  1  0  0  0
 27 28  1  0  0  0
 28 29  1  0  0  0
 29 30  1  0  0  0
 30 31  1  0  0  0
 30 32  1  0  0  0
 32 33  1  0  0  0
  4  5  2  0  0  0
  5  6  1  0  0  0
  6  7  1  0  0  0
  7  8  1  0  0  0
  8  9  2  0  0  0
  9 10  1  0  0  0
  9 11  1  0  0  0
 11 12  2  0  0  0
 12 13  1  0  0  0
 12 14  1  0  0  0
 14 15  2  0  0  0
 15 19  1  0  0  0
 19 20  1  0  0  0
 20 21  1  0  0  0
 21 22  1  0  0  0
 22 23  1  0  0  0
 15 16  1  0  0  0
 16 17  1  0  0  0
  6  1  2  0  0  0
 17  7  2  0  0  0
 33 27  1  0  0  0
 16 11  1  0  0  0
 23 19  1  0  0  0
 10 18  1  0  0  0
M  END
> <minimizedAffinity>
-10.60792

$$$$



 36 40  0  0  0  0  0  0  0  0999 V2000
    3.4337   66.7789   84.2585 C   0  0  0  0  0  0  0  0  0  0  0  0
    4.2438   67.9195   84.1708 C   0  0  0  0  0  0  0  0  0  0  0  0
    3.8143   69.0500   83.4660 C   0  0  0  0  0  0  0  0  0  0  0  0
    2.5708   69.0431   82.8327 C   0  0  0  0  0  0  0  0  0  0  0  0
    1.7332   67.9349   82.9421 C   0  0  0  0  0  0  0  0  0  0  0  0
    2.1681   66.8005   83.6437 C   0  0  0  0  0  0  0  0  0  0  0  0
    1.2454   65.6309   83.6651 C   0  0  0  0  0  0  0  0  0  0  0  0
    0.9737   65.0502   82.4407 N   0  0  0  0  0  0  0  0  0  0  0  0
    0.1876   64.0377   82.4522 C   0  0  0  0  0  0  0  0  0  0  0  0
   -0.1443   63.4117   81.3165 O   0  0  0  0  0  0  0  0  0  0  0  0
   -0.3678   63.5140   83.6243 C   0  0  0  0  0  0  0  0  0  0  0  0
   -1.1980   62.4824   83.9884 C   0  0  0  0  0  0  0  0  0  0  0  0
   -1.8597   61.4647   83.1444 C   0  0  0  0  0  0  0  0  0  0  0  0
   -1.3662   62.4854   85.3577 N   0  0  0  0  0  0  0  0  0  0  0  0
   -0.6567   63.5085   85.8079 C   0  0  0  0  0  0  0  0  0  0  0  0
   -0.0252   64.1547   84.7688 N   0  0  0  0  0  0  0  0  0  0  0  0
    0.7999   65.2245   84.8218 N   0  0  0  0  0  0  0  0  0  0  0  0
    0.3031   63.8773   80.5909 H   0  0  0  0  0  0  0  0  0  0  0  0
   -0.4953   63.9481   87.2311 C   0  0  0  0  0  0  0  0  0  0  0  0
    0.9126   63.6120   87.7579 C   0  0  0  0  0  0  0  0  0  0  0  0
    0.7042   62.8096   89.0378 C   0  0  0  0  0  0  0  0  0  0  0  0
   -0.6444   62.1417   88.8391 C   0  0  0  0  0  0  0  0  0  0  0  0
   -1.4697   63.2393   88.1842 C   0  0  0  0  0  0  0  0  0  0  0  0
    2.0154   70.4783   81.9363 S   0  0  0  0  0  0  0  0  0  0  0  0
    1.3434   71.3421   82.8842 O   0  0  0  0  0  0  0  0  0  0  0  0
    1.3406   70.0035   80.7474 O   0  0  0  0  0  0  0  0  0  0  0  0
    3.4524   71.2350   81.4704 N   0  0  0  0  0  0  0  0  0  0  0  0
    3.6422   72.6756   81.7982 C   0  0  0  0  0  0  0  0  0  0  0  0
    3.7777   73.5382   80.5287 C   0  0  0  0  0  0  0  0  0  0  0  0
    4.8511   73.1239   79.6018 N   0  0  0  0  0  0  0  0  0  0  0  0
    6.0166   74.0002   79.6910 C   0  0  0  0  0  0  0  0  0  0  0  0
    5.2454   71.7146   79.8082 C   0  0  0  0  0  0  0  0  0  0  0  0
    4.0540   70.8117   80.1758 C   0  0  0  0  0  0  0  0  0  0  0  0
    3.8144   65.6151   84.8694 O   0  0  0  0  0  0  0  0  0  0  0  0
    5.1196   65.1020   86.7918 C   0  0  0  0  0  0  0  0  0  0  0  0
    5.1596   65.5034   85.3282 C   0  0  0  0  0  0  0  0  0  0  0  0
 35 36  1  0  0  0
 36 34  1  0  0  0
 34  1  1  0  0  0
  1  2  1  0  0  0
  2  3  2  0  0  0
  3  4  1  0  0  0
  4 24  1  0  0  0
 24 25  2  0  0  0
 24 26  2  0  0  0
 24 27  1  0  0  0
 27 28  1  0  0  0
 28 29  1  0  0  0
 29 30  1  0  0  0
 30 31  1  0  0  0
 30 32  1  0  0  0
 32 33  1  0  0  0
  4  5  2  0  0  0
  5  6  1  0  0  0
  6  7  1  0  0  0
  7  8  1  0  0  0
  8  9  2  0  0  0
  9 10  1  0  0  0
  9 11  1  0  0  0
 11 12  2  0  0  0
 12 13  1  0  0  0
 12 14  1  0  0  0
 14 15  2  0  0  0
 15 19  1  0  0  0
 19 20  1  0  0  0
 20 21  1  0  0  0
 21 22  1  0  0  0
 22 23  1  0  0  0
 15 16  1  0  0  0
 16 17  1  0  0  0
  6  1  2  0  0  0
 17  7  2  0  0  0
 33 27  1  0  0  0
 16 11  1  0  0  0
 23 19  1  0  0  0
 10 18  1  0  0  0
M  END
> <minimizedAffinity>
-10.55218

$$$$



 36 40  0  0  0  0  0  0  0  0999 V2000
    2.9826   67.0488   83.9528 C   0  0  0  0  0  0  0  0  0  0  0  0
    3.7292   68.2175   83.7489 C   0  0  0  0  0  0  0  0  0  0  0  0
    3.3552   69.1439   82.7685 C   0  0  0  0  0  0  0  0  0  0  0  0
    2.2331   68.9011   81.9751 C   0  0  0  0  0  0  0  0  0  0  0  0
    1.4540   67.7658   82.1891 C   0  0  0  0  0  0  0  0  0  0  0  0
    1.8342   66.8354   83.1681 C   0  0  0  0  0  0  0  0  0  0  0  0
    0.9891   65.6153   83.2973 C   0  0  0  0  0  0  0  0  0  0  0  0
    0.6918   64.9557   82.1197 N   0  0  0  0  0  0  0  0  0  0  0  0
   -0.0275   63.8998   82.2240 C   0  0  0  0  0  0  0  0  0  0  0  0
   -0.3774   63.1963   81.1402 O   0  0  0  0  0  0  0  0  0  0  0  0
   -0.4880   63.4060   83.4489 C   0  0  0  0  0  0  0  0  0  0  0  0
   -1.2319   62.3470   83.9082 C   0  0  0  0  0  0  0  0  0  0  0  0
   -1.8709   61.2483   83.1526 C   0  0  0  0  0  0  0  0  0  0  0  0
   -1.3293   62.4117   85.2828 N   0  0  0  0  0  0  0  0  0  0  0  0
   -0.6632   63.4978   85.6427 C   0  0  0  0  0  0  0  0  0  0  0  0
   -0.1278   64.1254   84.5401 N   0  0  0  0  0  0  0  0  0  0  0  0
    0.6301   65.2442   84.4952 N   0  0  0  0  0  0  0  0  0  0  0  0
    0.0020   63.6491   80.3693 H   0  0  0  0  0  0  0  0  0  0  0  0
   -0.4568   64.0204   87.0316 C   0  0  0  0  0  0  0  0  0  0  0  0
    0.9669   63.7129   87.5328 C   0  0  0  0  0  0  0  0  0  0  0  0
    0.7986   62.9881   88.8638 C   0  0  0  0  0  0  0  0  0  0  0  0
   -0.5559   62.3127   88.7476 C   0  0  0  0  0  0  0  0  0  0  0  0
   -1.4010   63.3715   88.0551 C   0  0  0  0  0  0  0  0  0  0  0  0
    1.7486   70.0759   80.7274 S   0  0  0  0  0  0  0  0  0  0  0  0
    0.4737   69.6383   80.1987 O   0  0  0  0  0  0  0  0  0  0  0  0
    2.8906   70.2725   79.8606 O   0  0  0  0  0  0  0  0  0  0  0  0
    1.4889   71.4981   81.6019 N   0  0  0  0  0  0  0  0  0  0  0  0
    0.1003   72.0246   81.7172 C   0  0  0  0  0  0  0  0  0  0  0  0
   -0.0414   73.4125   81.0633 C   0  0  0  0  0  0  0  0  0  0  0  0
    0.8922   74.4406   81.5678 N   0  0  0  0  0  0  0  0  0  0  0  0
    0.2332   75.3774   82.4747 C   0  0  0  0  0  0  0  0  0  0  0  0
    2.0777   73.8402   82.2146 C   0  0  0  0  0  0  0  0  0  0  0  0
    2.5425   72.5471   81.5207 C   0  0  0  0  0  0  0  0  0  0  0  0
    3.3257   66.0670   84.8422 O   0  0  0  0  0  0  0  0  0  0  0  0
    4.7858   65.1507   86.4825 C   0  0  0  0  0  0  0  0  0  0  0  0
    4.7043   65.9029   85.1663 C   0  0  0  0  0  0  0  0  0  0  0  0
 35 36  1  0  0  0
 36 34  1  0  0  0
 34  1  1  0  0  0
  1  2  1  0  0  0
  2  3  2  0  0  0
  3  4  1  0  0  0
  4 24  1  0  0  0
 24 25  2  0  0  0
 24 26  2  0  0  0
 24 27  1  0  0  0
 27 28  1  0  0  0
 28 29  1  0  0  0
 29 30  1  0  0  0
 30 31  1  0  0  0
 30 32  1  0  0  0
 32 33  1  0  0  0
  4  5  2  0  0  0
  5  6  1  0  0  0
  6  7  1  0  0  0
  7  8  1  0  0  0
  8  9  2  0  0  0
  9 10  1  0  0  0
  9 11  1  0  0  0
 11 12  2  0  0  0
 12 13  1  0  0  0
 12 14  1  0  0  0
 14 15  2  0  0  0
 15 19  1  0  0  0
 19 20  1  0  0  0
 20 21  1  0  0  0
 21 22  1  0  0  0
 22 23  1  0  0  0
 15 16  1  0  0  0
 16 17  1  0  0  0
  6  1  2  0  0  0
 17  7  2  0  0  0
 33 27  1  0  0  0
 16 11  1  0  0  0
 23 19  1  0  0  0
 10 18  1  0  0  0
M  END
> <minimizedAffinity>
-10.17990

$$$$



 36 40  0  0  0  0  0  0  0  0999 V2000
    3.4594   66.3118   84.7664 C   0  0  0  0  0  0  0  0  0  0  0  0
    4.2865   67.2997   84.2145 C   0  0  0  0  0  0  0  0  0  0  0  0
    3.8020   68.1731   83.2338 C   0  0  0  0  0  0  0  0  0  0  0  0
    2.4843   68.0566   82.7892 C   0  0  0  0  0  0  0  0  0  0  0  0
    1.6339   67.1083   83.3541 C   0  0  0  0  0  0  0  0  0  0  0  0
    2.1232   66.2298   84.3325 C   0  0  0  0  0  0  0  0  0  0  0  0
    1.1746   65.2017   84.8451 C   0  0  0  0  0  0  0  0  0  0  0  0
    1.0241   65.1459   86.2179 N   0  0  0  0  0  0  0  0  0  0  0  0
    0.2027   64.2697   86.6658 C   0  0  0  0  0  0  0  0  0  0  0  0
   -0.0054   64.1310   87.9809 O   0  0  0  0  0  0  0  0  0  0  0  0
   -0.5294   63.4134   85.8369 C   0  0  0  0  0  0  0  0  0  0  0  0
   -1.4619   62.4141   85.9700 C   0  0  0  0  0  0  0  0  0  0  0  0
   -2.0654   61.8476   87.1952 C   0  0  0  0  0  0  0  0  0  0  0  0
   -1.8212   61.9474   84.7225 N   0  0  0  0  0  0  0  0  0  0  0  0
   -1.1084   62.6482   83.8542 C   0  0  0  0  0  0  0  0  0  0  0  0
   -0.3119   63.5622   84.5071 N   0  0  0  0  0  0  0  0  0  0  0  0
    0.5384   64.4683   83.9740 N   0  0  0  0  0  0  0  0  0  0  0  0
    0.5632   64.7770   88.4311 H   0  0  0  0  0  0  0  0  0  0  0  0
   -1.1286   62.5372   82.3603 C   0  0  0  0  0  0  0  0  0  0  0  0
   -2.4406   63.0993   81.7812 C   0  0  0  0  0  0  0  0  0  0  0  0
   -3.0264   61.9927   80.9107 C   0  0  0  0  0  0  0  0  0  0  0  0
   -2.4915   60.7141   81.5299 C   0  0  0  0  0  0  0  0  0  0  0  0
   -1.0557   61.0820   81.8733 C   0  0  0  0  0  0  0  0  0  0  0  0
    1.8590   69.1656   81.5440 S   0  0  0  0  0  0  0  0  0  0  0  0
    0.6971   69.8252   82.1018 O   0  0  0  0  0  0  0  0  0  0  0  0
    1.7730   68.4154   80.3094 O   0  0  0  0  0  0  0  0  0  0  0  0
    3.0855   70.3168   81.3866 N   0  0  0  0  0  0  0  0  0  0  0  0
    2.9097   71.6445   82.0388 C   0  0  0  0  0  0  0  0  0  0  0  0
    2.8766   72.7886   81.0075 C   0  0  0  0  0  0  0  0  0  0  0  0
    4.0499   72.8588   80.1122 N   0  0  0  0  0  0  0  0  0  0  0  0
    4.9650   73.9310   80.4961 C   0  0  0  0  0  0  0  0  0  0  0  0
    4.7660   71.5681   80.0382 C   0  0  0  0  0  0  0  0  0  0  0  0
    3.8163   70.3577   80.0900 C   0  0  0  0  0  0  0  0  0  0  0  0
    3.8817   65.3805   85.6758 O   0  0  0  0  0  0  0  0  0  0  0  0
    5.7092   65.3604   87.1996 C   0  0  0  0  0  0  0  0  0  0  0  0
    5.2788   65.1111   85.7653 C   0  0  0  0  0  0  0  0  0  0  0  0
 35 36  1  0  0  0
 36 34  1  0  0  0
 34  1  1  0  0  0
  1  2  1  0  0  0
  2  3  2  0  0  0
  3  4  1  0  0  0
  4 24  1  0  0  0
 24 25  2  0  0  0
 24 26  2  0  0  0
 24 27  1  0  0  0
 27 28  1  0  0  0
 28 29  1  0  0  0
 29 30  1  0  0  0
 30 31  1  0  0  0
 30 32  1  0  0  0
 32 33  1  0  0  0
  4  5  2  0  0  0
  5  6  1  0  0  0
  6  7  1  0  0  0
  7  8  1  0  0  0
  8  9  2  0  0  0
  9 10  1  0  0  0
  9 11  1  0  0  0
 11 12  2  0  0  0
 12 13  1  0  0  0
 12 14  1  0  0  0
 14 15  2  0  0  0
 15 19  1  0  0  0
 19 20  1  0  0  0
 20 21  1  0  0  0
 21 22  1  0  0  0
 22 23  1  0  0  0
 15 16  1  0  0  0
 16 17  1  0  0  0
  6  1  2  0  0  0
 17  7  2  0  0  0
 33 27  1  0  0  0
 16 11  1  0  0  0
 23 19  1  0  0  0
 10 18  1  0  0  0
M  END
> <minimizedAffinity>
-10.17741

$$$$



 36 40  0  0  0  0  0  0  0  0999 V2000
    0.1874   63.9186   85.0583 C   0  0  0  0  0  0  0  0  0  0  0  0
   -0.4972   62.7006   85.1708 C   0  0  0  0  0  0  0  0  0  0  0  0
   -0.6935   61.8837   84.0512 C   0  0  0  0  0  0  0  0  0  0  0  0
   -0.2135   62.2867   82.8044 C   0  0  0  0  0  0  0  0  0  0  0  0
    0.5051   63.4740   82.6787 C   0  0  0  0  0  0  0  0  0  0  0  0
    0.6954   64.2942   83.8009 C   0  0  0  0  0  0  0  0  0  0  0  0
    1.4181   65.5779   83.5782 C   0  0  0  0  0  0  0  0  0  0  0  0
    0.8198   66.4673   82.7057 N   0  0  0  0  0  0  0  0  0  0  0  0
    1.4313   67.5778   82.5159 C   0  0  0  0  0  0  0  0  0  0  0  0
    0.9375   68.5011   81.6818 O   0  0  0  0  0  0  0  0  0  0  0  0
    2.6309   67.9092   83.1544 C   0  0  0  0  0  0  0  0  0  0  0  0
    3.5091   68.9642   83.1936 C   0  0  0  0  0  0  0  0  0  0  0  0
    3.4612   70.2553   82.4746 C   0  0  0  0  0  0  0  0  0  0  0  0
    4.5413   68.6748   84.0619 N   0  0  0  0  0  0  0  0  0  0  0  0
    4.2927   67.4612   84.5290 C   0  0  0  0  0  0  0  0  0  0  0  0
    3.1222   66.9678   83.9971 N   0  0  0  0  0  0  0  0  0  0  0  0
    2.5234   65.7803   84.2406 N   0  0  0  0  0  0  0  0  0  0  0  0
    0.1152   68.1417   81.3103 H   0  0  0  0  0  0  0  0  0  0  0  0
    5.1073   66.6810   85.5151 C   0  0  0  0  0  0  0  0  0  0  0  0
    6.3582   67.4695   85.9465 C   0  0  0  0  0  0  0  0  0  0  0  0
    7.5466   66.5487   85.6915 C   0  0  0  0  0  0  0  0  0  0  0  0
    7.0810   65.6501   84.5600 C   0  0  0  0  0  0  0  0  0  0  0  0
    5.6351   65.3604   84.9342 C   0  0  0  0  0  0  0  0  0  0  0  0
   -0.4563   61.2521   81.3753 S   0  0  0  0  0  0  0  0  0  0  0  0
   -1.6384   60.4529   81.6206 O   0  0  0  0  0  0  0  0  0  0  0  0
    0.8170   60.6328   81.0761 O   0  0  0  0  0  0  0  0  0  0  0  0
   -0.8183   62.3531   80.1460 N   0  0  0  0  0  0  0  0  0  0  0  0
   -2.1555   62.2840   79.4934 C   0  0  0  0  0  0  0  0  0  0  0  0
   -2.0435   61.9524   77.9930 C   0  0  0  0  0  0  0  0  0  0  0  0
   -1.1882   62.8691   77.2112 N   0  0  0  0  0  0  0  0  0  0  0  0
   -1.9780   63.8031   76.4123 C   0  0  0  0  0  0  0  0  0  0  0  0
   -0.2334   63.6006   78.0700 C   0  0  0  0  0  0  0  0  0  0  0  0
    0.2934   62.7448   79.2361 C   0  0  0  0  0  0  0  0  0  0  0  0
    0.3565   64.7996   86.0917 O   0  0  0  0  0  0  0  0  0  0  0  0
    1.3096   63.6768   87.9607 C   0  0  0  0  0  0  0  0  0  0  0  0
    0.0648   64.3522   87.4135 C   0  0  0  0  0  0  0  0  0  0  0  0
 35 36  1  0  0  0
 36 34  1  0  0  0
 34  1  1  0  0  0
  1  2  1  0  0  0
  2  3  2  0  0  0
  3  4  1  0  0  0
  4 24  1  0  0  0
 24 25  2  0  0  0
 24 26  2  0  0  0
 24 27  1  0  0  0
 27 28  1  0  0  0
 28 29  1  0  0  0
 29 30  1  0  0  0
 30 31  1  0  0  0
 30 32  1  0  0  0
 32 33  1  0  0  0
  4  5  2  0  0  0
  5  6  1  0  0  0
  6  7  1  0  0  0
  7  8  1  0  0  0
  8  9  2  0  0  0
  9 10  1  0  0  0
  9 11  1  0  0  0
 11 12  2  0  0  0
 12 13  1  0  0  0
 12 14  1  0  0  0
 14 15  2  0  0  0
 15 19  1  0  0  0
 19 20  1  0  0  0
 20 21  1  0  0  0
 21 22  1  0  0  0
 22 23  1  0  0  0
 15 16  1  0  0  0
 16 17  1  0  0  0
  6  1  2  0  0  0
 17  7  2  0  0  0
 33 27  1  0  0  0
 16 11  1  0  0  0
 23 19  1  0  0  0
 10 18  1  0  0  0
M  END
> <minimizedAffinity>
-9.98660

$$$$



 36 40  0  0  0  0  0  0  0  0999 V2000
    3.1699   66.9234   84.1602 C   0  0  0  0  0  0  0  0  0  0  0  0
    3.7995   67.9837   83.4937 C   0  0  0  0  0  0  0  0  0  0  0  0
    3.1515   68.6615   82.4544 C   0  0  0  0  0  0  0  0  0  0  0  0
    1.8681   68.2745   82.0664 C   0  0  0  0  0  0  0  0  0  0  0  0
    1.2088   67.2501   82.7430 C   0  0  0  0  0  0  0  0  0  0  0  0
    1.8624   66.5680   83.7802 C   0  0  0  0  0  0  0  0  0  0  0  0
    1.1199   65.4433   84.4152 C   0  0  0  0  0  0  0  0  0  0  0  0
    1.1486   65.4007   85.7964 N   0  0  0  0  0  0  0  0  0  0  0  0
    0.5043   64.4408   86.3503 C   0  0  0  0  0  0  0  0  0  0  0  0
    0.4796   64.3074   87.6821 O   0  0  0  0  0  0  0  0  0  0  0  0
   -0.2126   63.4827   85.6261 C   0  0  0  0  0  0  0  0  0  0  0  0
   -0.9899   62.3800   85.8824 C   0  0  0  0  0  0  0  0  0  0  0  0
   -1.3619   61.7718   87.1778 C   0  0  0  0  0  0  0  0  0  0  0  0
   -1.4401   61.8448   84.6933 N   0  0  0  0  0  0  0  0  0  0  0  0
   -0.9330   62.6077   83.7374 C   0  0  0  0  0  0  0  0  0  0  0  0
   -0.1816   63.6269   84.2785 N   0  0  0  0  0  0  0  0  0  0  0  0
    0.4768   64.6180   83.6363 N   0  0  0  0  0  0  0  0  0  0  0  0
    1.0147   65.0283   88.0526 H   0  0  0  0  0  0  0  0  0  0  0  0
   -1.1241   62.4613   82.2586 C   0  0  0  0  0  0  0  0  0  0  0  0
   -2.4676   63.0678   81.8115 C   0  0  0  0  0  0  0  0  0  0  0  0
   -3.1927   61.9679   81.0436 C   0  0  0  0  0  0  0  0  0  0  0  0
   -2.6466   60.6818   81.6372 C   0  0  0  0  0  0  0  0  0  0  0  0
   -1.1673   60.9928   81.8093 C   0  0  0  0  0  0  0  0  0  0  0  0
    1.0353   69.1333   80.7472 S   0  0  0  0  0  0  0  0  0  0  0  0
   -0.3044   68.5910   80.6612 O   0  0  0  0  0  0  0  0  0  0  0  0
    1.9224   69.1213   79.6038 O   0  0  0  0  0  0  0  0  0  0  0  0
    0.9191   70.7193   81.3180 N   0  0  0  0  0  0  0  0  0  0  0  0
   -0.4309   71.2817   81.6008 C   0  0  0  0  0  0  0  0  0  0  0  0
   -0.7475   72.4903   80.6992 C   0  0  0  0  0  0  0  0  0  0  0  0
    0.2384   73.5893   80.7561 N   0  0  0  0  0  0  0  0  0  0  0  0
   -0.2467   74.7162   81.5493 C   0  0  0  0  0  0  0  0  0  0  0  0
    1.5500   73.1288   81.2581 C   0  0  0  0  0  0  0  0  0  0  0  0
    1.9003   71.7056   80.7876 C   0  0  0  0  0  0  0  0  0  0  0  0
    3.7658   66.1713   85.1358 O   0  0  0  0  0  0  0  0  0  0  0  0
    5.7674   65.2694   86.0536 C   0  0  0  0  0  0  0  0  0  0  0  0
    5.0819   66.5277   85.5521 C   0  0  0  0  0  0  0  0  0  0  0  0
 35 36  1  0  0  0
 36 34  1  0  0  0
 34  1  1  0  0  0
  1  2  1  0  0  0
  2  3  2  0  0  0
  3  4  1  0  0  0
  4 24  1  0  0  0
 24 25  2  0  0  0
 24 26  2  0  0  0
 24 27  1  0  0  0
 27 28  1  0  0  0
 28 29  1  0  0  0
 29 30  1  0  0  0
 30 31  1  0  0  0
 30 32  1  0  0  0
 32 33  1  0  0  0
  4  5  2  0  0  0
  5  6  1  0  0  0
  6  7  1  0  0  0
  7  8  1  0  0  0
  8  9  2  0  0  0
  9 10  1  0  0  0
  9 11  1  0  0  0
 11 12  2  0  0  0
 12 13  1  0  0  0
 12 14  1  0  0  0
 14 15  2  0  0  0
 15 19  1  0  0  0
 19 20  1  0  0  0
 20 21  1  0  0  0
 21 22  1  0  0  0
 22 23  1  0  0  0
 15 16  1  0  0  0
 16 17  1  0  0  0
  6  1  2  0  0  0
 17  7  2  0  0  0
 33 27  1  0  0  0
 16 11  1  0  0  0
 23 19  1  0  0  0
 10 18  1  0  0  0
M  END
> <minimizedAffinity>
-9.95413

$$$$



 36 40  0  0  0  0  0  0  0  0999 V2000
   -0.1770   63.1903   85.6654 C   0  0  0  0  0  0  0  0  0  0  0  0
    0.4932   64.0520   86.5447 C   0  0  0  0  0  0  0  0  0  0  0  0
    1.2688   65.1104   86.0574 C   0  0  0  0  0  0  0  0  0  0  0  0
    1.3880   65.3084   84.6811 C   0  0  0  0  0  0  0  0  0  0  0  0
    0.6969   64.4884   83.7913 C   0  0  0  0  0  0  0  0  0  0  0  0
   -0.0748   63.4243   84.2815 C   0  0  0  0  0  0  0  0  0  0  0  0
   -0.7338   62.5520   83.2693 C   0  0  0  0  0  0  0  0  0  0  0  0
   -1.7310   61.7201   83.7425 N   0  0  0  0  0  0  0  0  0  0  0  0
   -2.3087   60.9730   82.8757 C   0  0  0  0  0  0  0  0  0  0  0  0
   -3.2803   60.1258   83.2365 O   0  0  0  0  0  0  0  0  0  0  0  0
   -1.9832   60.9872   81.5155 C   0  0  0  0  0  0  0  0  0  0  0  0
   -2.3880   60.3611   80.3622 C   0  0  0  0  0  0  0  0  0  0  0  0
   -3.4327   59.3332   80.1667 C   0  0  0  0  0  0  0  0  0  0  0  0
   -1.6545   60.8375   79.2953 N   0  0  0  0  0  0  0  0  0  0  0  0
   -0.8155   61.7281   79.8010 C   0  0  0  0  0  0  0  0  0  0  0  0
   -0.9986   61.8488   81.1605 N   0  0  0  0  0  0  0  0  0  0  0  0
   -0.3541   62.6631   82.0263 N   0  0  0  0  0  0  0  0  0  0  0  0
   -3.3984   60.2166   84.1963 H   0  0  0  0  0  0  0  0  0  0  0  0
    0.1992   62.5452   79.0612 C   0  0  0  0  0  0  0  0  0  0  0  0
   -0.1461   64.0451   79.1233 C   0  0  0  0  0  0  0  0  0  0  0  0
   -0.1769   64.5314   77.6783 C   0  0  0  0  0  0  0  0  0  0  0  0
   -0.5446   63.2937   76.8801 C   0  0  0  0  0  0  0  0  0  0  0  0
    0.2612   62.2002   77.5655 C   0  0  0  0  0  0  0  0  0  0  0  0
    2.3703   66.6544   84.0527 S   0  0  0  0  0  0  0  0  0  0  0  0
    1.7433   67.8837   84.4910 O   0  0  0  0  0  0  0  0  0  0  0  0
    2.6037   66.3925   82.6487 O   0  0  0  0  0  0  0  0  0  0  0  0
    3.8358   66.4945   84.8781 N   0  0  0  0  0  0  0  0  0  0  0  0
    4.8905   67.5258   84.6715 C   0  0  0  0  0  0  0  0  0  0  0  0
    6.1618   66.9257   84.0412 C   0  0  0  0  0  0  0  0  0  0  0  0
    6.7538   65.7932   84.7828 N   0  0  0  0  0  0  0  0  0  0  0  0
    7.9433   66.1936   85.5307 C   0  0  0  0  0  0  0  0  0  0  0  0
    5.7722   65.1462   85.6783 C   0  0  0  0  0  0  0  0  0  0  0  0
    4.3538   65.1133   85.0808 C   0  0  0  0  0  0  0  0  0  0  0  0
   -0.8948   62.0960   86.0651 O   0  0  0  0  0  0  0  0  0  0  0  0
   -2.8188   62.8958   87.2144 C   0  0  0  0  0  0  0  0  0  0  0  0
   -1.5155   62.1288   87.3482 C   0  0  0  0  0  0  0  0  0  0  0  0
 35 36  1  0  0  0
 36 34  1  0  0  0
 34  1  1  0  0  0
  1  2  1  0  0  0
  2  3  2  0  0  0
  3  4  1  0  0  0
  4 24  1  0  0  0
 24 25  2  0  0  0
 24 26  2  0  0  0
 24 27  1  0  0  0
 27 28  1  0  0  0
 28 29  1  0  0  0
 29 30  1  0  0  0
 30 31  1  0  0  0
 30 32  1  0  0  0
 32 33  1  0  0  0
  4  5  2  0  0  0
  5  6  1  0  0  0
  6  7  1  0  0  0
  7  8  1  0  0  0
  8  9  2  0  0  0
  9 10  1  0  0  0
  9 11  1  0  0  0
 11 12  2  0  0  0
 12 13  1  0  0  0
 12 14  1  0  0  0
 14 15  2  0  0  0
 15 19  1  0  0  0
 19 20  1  0  0  0
 20 21  1  0  0  0
 21 22  1  0  0  0
 22 23  1  0  0  0
 15 16  1  0  0  0
 16 17  1  0  0  0
  6  1  2  0  0  0
 17  7  2  0  0  0
 33 27  1  0  0  0
 16 11  1  0  0  0
 23 19  1  0  0  0
 10 18  1  0  0  0
M  END
> <minimizedAffinity>
-9.79235

$$$$



 36 40  0  0  0  0  0  0  0  0999 V2000
    1.1017   66.0707   80.3747 C   0  0  0  0  0  0  0  0  0  0  0  0
    1.5846   67.0413   79.4862 C   0  0  0  0  0  0  0  0  0  0  0  0
    2.1605   68.2247   79.9627 C   0  0  0  0  0  0  0  0  0  0  0  0
    2.2480   68.4506   81.3370 C   0  0  0  0  0  0  0  0  0  0  0  0
    1.8114   67.4807   82.2373 C   0  0  0  0  0  0  0  0  0  0  0  0
    1.2288   66.2980   81.7576 C   0  0  0  0  0  0  0  0  0  0  0  0
    0.7280   65.3354   82.7785 C   0  0  0  0  0  0  0  0  0  0  0  0
    0.9761   65.6662   84.0974 N   0  0  0  0  0  0  0  0  0  0  0  0
    0.5403   64.8472   84.9819 C   0  0  0  0  0  0  0  0  0  0  0  0
    0.7387   65.0738   86.2862 O   0  0  0  0  0  0  0  0  0  0  0  0
   -0.1661   63.6826   84.6638 C   0  0  0  0  0  0  0  0  0  0  0  0
   -0.7624   62.6373   85.3254 C   0  0  0  0  0  0  0  0  0  0  0  0
   -0.8560   62.3737   86.7773 C   0  0  0  0  0  0  0  0  0  0  0  0
   -1.3279   61.7732   84.4107 N   0  0  0  0  0  0  0  0  0  0  0  0
   -1.0667   62.2858   83.2182 C   0  0  0  0  0  0  0  0  0  0  0  0
   -0.3620   63.4625   83.3406 N   0  0  0  0  0  0  0  0  0  0  0  0
    0.0703   64.2889   82.3616 N   0  0  0  0  0  0  0  0  0  0  0  0
    1.2388   65.9031   86.3605 H   0  0  0  0  0  0  0  0  0  0  0  0
   -1.4676   61.7359   81.8835 C   0  0  0  0  0  0  0  0  0  0  0  0
   -2.6409   62.5349   81.2855 C   0  0  0  0  0  0  0  0  0  0  0  0
   -3.7238   61.5128   80.9567 C   0  0  0  0  0  0  0  0  0  0  0  0
   -3.4781   60.3848   81.9425 C   0  0  0  0  0  0  0  0  0  0  0  0
   -1.9603   60.2830   81.9651 C   0  0  0  0  0  0  0  0  0  0  0  0
    2.9820   69.9522   81.9519 S   0  0  0  0  0  0  0  0  0  0  0  0
    4.2428   70.1269   81.2618 O   0  0  0  0  0  0  0  0  0  0  0  0
    2.9211   69.8959   83.3967 O   0  0  0  0  0  0  0  0  0  0  0  0
    1.9251   71.1573   81.4180 N   0  0  0  0  0  0  0  0  0  0  0  0
    2.4261   72.5565   81.3178 C   0  0  0  0  0  0  0  0  0  0  0  0
    1.6675   73.5051   82.2657 C   0  0  0  0  0  0  0  0  0  0  0  0
    0.2001   73.5202   82.0940 N   0  0  0  0  0  0  0  0  0  0  0  0
   -0.2532   74.7129   81.3823 C   0  0  0  0  0  0  0  0  0  0  0  0
   -0.2898   72.2984   81.4221 C   0  0  0  0  0  0  0  0  0  0  0  0
    0.4985   71.0401   81.8281 C   0  0  0  0  0  0  0  0  0  0  0  0
    0.4653   64.9241   79.9835 O   0  0  0  0  0  0  0  0  0  0  0  0
    0.6547   62.9123   78.7270 C   0  0  0  0  0  0  0  0  0  0  0  0
    0.7165   64.4281   78.6707 C   0  0  0  0  0  0  0  0  0  0  0  0
 35 36  1  0  0  0
 36 34  1  0  0  0
 34  1  1  0  0  0
  1  2  1  0  0  0
  2  3  2  0  0  0
  3  4  1  0  0  0
  4 24  1  0  0  0
 24 25  2  0  0  0
 24 26  2  0  0  0
 24 27  1  0  0  0
 27 28  1  0  0  0
 28 29  1  0  0  0
 29 30  1  0  0  0
 30 31  1  0  0  0
 30 32  1  0  0  0
 32 33  1  0  0  0
  4  5  2  0  0  0
  5  6  1  0  0  0
  6  7  1  0  0  0
  7  8  1  0  0  0
  8  9  2  0  0  0
  9 10  1  0  0  0
  9 11  1  0  0  0
 11 12  2  0  0  0
 12 13  1  0  0  0
 12 14  1  0  0  0
 14 15  2  0  0  0
 15 19  1  0  0  0
 19 20  1  0  0  0
 20 21  1  0  0  0
 21 22  1  0  0  0
 22 23  1  0  0  0
 15 16  1  0  0  0
 16 17  1  0  0  0
  6  1  2  0  0  0
 17  7  2  0  0  0
 33 27  1  0  0  0
 16 11  1  0  0  0
 23 19  1  0  0  0
 10 18  1  0  0  0
M  END
> <minimizedAffinity>
-9.64739

$$$$



 36 40  0  0  0  0  0  0  0  0999 V2000
    0.0128   63.5127   84.6809 C   0  0  0  0  0  0  0  0  0  0  0  0
   -0.7529   62.3742   84.9676 C   0  0  0  0  0  0  0  0  0  0  0  0
   -1.6317   61.8443   84.0157 C   0  0  0  0  0  0  0  0  0  0  0  0
   -1.7586   62.4586   82.7692 C   0  0  0  0  0  0  0  0  0  0  0  0
   -0.9766   63.5667   82.4495 C   0  0  0  0  0  0  0  0  0  0  0  0
   -0.1009   64.1000   83.4072 C   0  0  0  0  0  0  0  0  0  0  0  0
    0.6559   65.3224   83.0165 C   0  0  0  0  0  0  0  0  0  0  0  0
    0.1839   65.9997   81.9080 N   0  0  0  0  0  0  0  0  0  0  0  0
    0.8247   67.0576   81.5711 C   0  0  0  0  0  0  0  0  0  0  0  0
    0.4515   67.7779   80.5063 O   0  0  0  0  0  0  0  0  0  0  0  0
    1.9341   67.5367   82.2756 C   0  0  0  0  0  0  0  0  0  0  0  0
    2.8090   68.5929   82.2066 C   0  0  0  0  0  0  0  0  0  0  0  0
    2.8663   69.7051   81.2340 C   0  0  0  0  0  0  0  0  0  0  0  0
    3.7171   68.5096   83.2418 N   0  0  0  0  0  0  0  0  0  0  0  0
    3.3991   67.4153   83.9159 C   0  0  0  0  0  0  0  0  0  0  0  0
    2.3034   66.8005   83.3523 N   0  0  0  0  0  0  0  0  0  0  0  0
    1.6675   65.6787   83.7589 N   0  0  0  0  0  0  0  0  0  0  0  0
   -0.3186   67.3339   80.1151 H   0  0  0  0  0  0  0  0  0  0  0  0
    4.0718   66.8725   85.1396 C   0  0  0  0  0  0  0  0  0  0  0  0
    4.8754   67.9701   85.8623 C   0  0  0  0  0  0  0  0  0  0  0  0
    6.2915   67.4255   86.0150 C   0  0  0  0  0  0  0  0  0  0  0  0
    6.4421   66.4585   84.8545 C   0  0  0  0  0  0  0  0  0  0  0  0
    5.0877   65.7665   84.8158 C   0  0  0  0  0  0  0  0  0  0  0  0
   -2.8722   61.7892   81.5512 S   0  0  0  0  0  0  0  0  0  0  0  0
   -3.7127   62.8765   81.0953 O   0  0  0  0  0  0  0  0  0  0  0  0
   -3.4454   60.5853   82.1136 O   0  0  0  0  0  0  0  0  0  0  0  0
   -1.8508   61.3519   80.2783 N   0  0  0  0  0  0  0  0  0  0  0  0
   -1.2655   62.4260   79.4283 C   0  0  0  0  0  0  0  0  0  0  0  0
   -1.7301   62.3135   77.9636 C   0  0  0  0  0  0  0  0  0  0  0  0
   -1.4635   61.0103   77.3204 N   0  0  0  0  0  0  0  0  0  0  0  0
   -0.3248   61.0759   76.4076 C   0  0  0  0  0  0  0  0  0  0  0  0
   -1.2698   59.9336   78.3141 C   0  0  0  0  0  0  0  0  0  0  0  0
   -2.1743   60.0947   79.5492 C   0  0  0  0  0  0  0  0  0  0  0  0
    0.8388   64.1265   85.5830 O   0  0  0  0  0  0  0  0  0  0  0  0
    1.1698   63.6084   87.8817 C   0  0  0  0  0  0  0  0  0  0  0  0
    0.3317   64.3931   86.8884 C   0  0  0  0  0  0  0  0  0  0  0  0
 35 36  1  0  0  0
 36 34  1  0  0  0
 34  1  1  0  0  0
  1  2  1  0  0  0
  2  3  2  0  0  0
  3  4  1  0  0  0
  4 24  1  0  0  0
 24 25  2  0  0  0
 24 26  2  0  0  0
 24 27  1  0  0  0
 27 28  1  0  0  0
 28 29  1  0  0  0
 29 30  1  0  0  0
 30 31  1  0  0  0
 30 32  1  0  0  0
 32 33  1  0  0  0
  4  5  2  0  0  0
  5  6  1  0  0  0
  6  7  1  0  0  0
  7  8  1  0  0  0
  8  9  2  0  0  0
  9 10  1  0  0  0
  9 11  1  0  0  0
 11 12  2  0  0  0
 12 13  1  0  0  0
 12 14  1  0  0  0
 14 15  2  0  0  0
 15 19  1  0  0  0
 19 20  1  0  0  0
 20 21  1  0  0  0
 21 22  1  0  0  0
 22 23  1  0  0  0
 15 16  1  0  0  0
 16 17  1  0  0  0
  6  1  2  0  0  0
 17  7  2  0  0  0
 33 27  1  0  0  0
 16 11  1  0  0  0
 23 19  1  0  0  0
 10 18  1  0  0  0
M  END
> <minimizedAffinity>
-9.57475

$$$$
