


 42 46  0  0  0  0  0  0  0  0999 V2000
    0.8569   66.0110   82.5158 C   0  0  0  0  0  0  0  0  0  0  0  0
    1.2547   67.1241   81.7710 C   0  0  0  0  0  0  0  0  0  0  0  0
    2.0247   68.1053   82.3959 C   0  0  0  0  0  0  0  0  0  0  0  0
    2.3907   67.9467   83.7187 C   0  0  0  0  0  0  0  0  0  0  0  0
    2.0082   66.8812   84.4629 N   0  0  0  0  0  0  0  0  0  0  0  0
    1.2669   65.9236   83.8479 C   0  0  0  0  0  0  0  0  0  0  0  0
   -0.7266   63.1343   78.9009 C   0  0  0  0  0  0  0  0  0  0  0  0
   -0.6479   63.6540   80.1651 C   0  0  0  0  0  0  0  0  0  0  0  0
    0.1613   64.6934   80.6187 N   0  0  0  0  0  0  0  0  0  0  0  0
    0.0412   64.9435   81.8896 C   0  0  0  0  0  0  0  0  0  0  0  0
   -0.8226   64.2736   82.7534 N   0  0  0  0  0  0  0  0  0  0  0  0
   -1.6468   63.2280   82.3775 C   0  0  0  0  0  0  0  0  0  0  0  0
   -2.3601   62.6508   83.1931 O   0  0  0  0  0  0  0  0  0  0  0  0
   -1.5298   62.9264   80.9682 C   0  0  0  0  0  0  0  0  0  0  0  0
   -2.1646   61.9799   80.2634 N   0  0  0  0  0  0  0  0  0  0  0  0
   -1.6713   62.1365   79.0076 N   0  0  0  0  0  0  0  0  0  0  0  0
   -0.8528   64.4814   83.7400 H   0  0  0  0  0  0  0  0  0  0  0  0
   -0.6831   64.6277   76.9079 C   0  0  0  0  0  0  0  0  0  0  0  0
    0.0063   63.4977   77.6565 C   0  0  0  0  0  0  0  0  0  0  0  0
   -2.1642   61.2597   77.9636 C   0  0  0  0  0  0  0  0  0  0  0  0
   -2.6972   59.9520   78.5344 C   0  0  0  0  0  0  0  0  0  0  0  0
   -1.9859   58.8229   78.0172 O   0  0  0  0  0  0  0  0  0  0  0  0
   -0.9357   59.1909   77.1303 C   0  0  0  0  0  0  0  0  0  0  0  0
    2.5585   69.5199   81.4986 S   0  0  0  0  0  0  0  0  0  0  0  0
    3.9917   69.6452   81.6406 O   0  0  0  0  0  0  0  0  0  0  0  0
    1.9342   69.4453   80.1956 O   0  0  0  0  0  0  0  0  0  0  0  0
    1.8286   70.7981   82.3629 N   0  0  0  0  0  0  0  0  0  0  0  0
    2.7244   71.9714   82.6544 C   0  0  0  0  0  0  0  0  0  0  0  0
    1.9102   73.2475   82.9376 C   0  0  0  0  0  0  0  0  0  0  0  0
    1.1287   73.6703   81.7674 N   0  0  0  0  0  0  0  0  0  0  0  0
    0.5911   72.5328   81.0018 C   0  0  0  0  0  0  0  0  0  0  0  0
    0.4977   71.2190   81.7988 C   0  0  0  0  0  0  0  0  0  0  0  0
    0.1585   74.7280   82.0546 C   0  0  0  0  0  0  0  0  0  0  0  0
    0.7139   76.0032   82.6836 C   0  0  0  0  0  0  0  0  0  0  0  0
    0.8143   64.8693   84.6051 O   0  0  0  0  0  0  0  0  0  0  0  0
    1.5307   64.6899   85.8292 C   0  0  0  0  0  0  0  0  0  0  0  0
    0.6461   64.0313   86.8702 C   0  0  0  0  0  0  0  0  0  0  0  0
   -0.7032   63.7760   86.6225 C   0  0  0  0  0  0  0  0  0  0  0  0
   -1.4779   63.1916   87.6213 C   0  0  0  0  0  0  0  0  0  0  0  0
   -0.8954   62.8868   88.8446 C   0  0  0  0  0  0  0  0  0  0  0  0
    0.4449   63.1826   89.0195 C   0  0  0  0  0  0  0  0  0  0  0  0
    1.2215   63.7492   88.0695 N   0  0  0  0  0  0  0  0  0  0  0  0
 18 19  1  0  0  0
 19  7  1  0  0  0
  7  8  2  0  0  0
  8  9  1  0  0  0
  9 10  2  0  0  0
 10  1  1  0  0  0
  1  2  1  0  0  0
  2  3  2  0  0  0
  3 24  1  0  0  0
 24 25  2  0  0  0
 24 26  2  0  0  0
 24 27  1  0  0  0
 27 28  1  0  0  0
 28 29  1  0  0  0
 29 30  1  0  0  0
 30 33  1  0  0  0
 33 34  1  0  0  0
 30 31  1  0  0  0
 31 32  1  0  0  0
  3  4  1  0  0  0
  4  5  2  0  0  0
  5  6  1  0  0  0
  6 35  1  0  0  0
 35 36  1  0  0  0
 36 37  1  0  0  0
 37 38  2  0  0  0
 38 39  1  0  0  0
 39 40  2  0  0  0
 40 41  1  0  0  0
 41 42  2  0  0  0
 10 11  1  0  0  0
 11 12  1  0  0  0
 12 13  2  0  0  0
 12 14  1  0  0  0
 14 15  2  0  0  0
 15 16  1  0  0  0
 16 20  1  0  0  0
 20 21  1  0  0  0
 21 22  1  0  0  0
 22 23  1  0  0  0
 16  7  1  0  0  0
 14  8  1  0  0  0
  6  1  2  0  0  0
 42 37  1  0  0  0
 32 27  1  0  0  0
 11 17  1  0  0  0
M  END
> <minimizedAffinity>
-10.11999

$$$$



 42 46  0  0  0  0  0  0  0  0999 V2000
    1.0408   65.8667   82.1251 C   0  0  0  0  0  0  0  0  0  0  0  0
    1.6968   67.0038   81.6470 C   0  0  0  0  0  0  0  0  0  0  0  0
    2.2562   67.8892   82.5685 C   0  0  0  0  0  0  0  0  0  0  0  0
    2.1680   67.6145   83.9197 C   0  0  0  0  0  0  0  0  0  0  0  0
    1.5284   66.5240   84.4064 N   0  0  0  0  0  0  0  0  0  0  0  0
    0.9937   65.6596   83.5054 C   0  0  0  0  0  0  0  0  0  0  0  0
   -1.1177   61.7032   80.7624 C   0  0  0  0  0  0  0  0  0  0  0  0
   -0.5543   62.9433   80.6234 C   0  0  0  0  0  0  0  0  0  0  0  0
    0.0090   63.7476   81.6118 N   0  0  0  0  0  0  0  0  0  0  0  0
    0.4356   64.8982   81.1802 C   0  0  0  0  0  0  0  0  0  0  0  0
    0.3762   65.3216   79.8542 N   0  0  0  0  0  0  0  0  0  0  0  0
   -0.1760   64.5831   78.8228 C   0  0  0  0  0  0  0  0  0  0  0  0
   -0.2337   65.0255   77.6791 O   0  0  0  0  0  0  0  0  0  0  0  0
   -0.6623   63.2992   79.2767 C   0  0  0  0  0  0  0  0  0  0  0  0
   -1.2596   62.3350   78.5630 N   0  0  0  0  0  0  0  0  0  0  0  0
   -1.5125   61.3700   79.4847 N   0  0  0  0  0  0  0  0  0  0  0  0
    0.6887   66.2393   79.5759 H   0  0  0  0  0  0  0  0  0  0  0  0
   -2.7289   60.9388   82.5013 C   0  0  0  0  0  0  0  0  0  0  0  0
   -1.3060   60.8546   81.9716 C   0  0  0  0  0  0  0  0  0  0  0  0
   -2.1585   60.1506   79.0404 C   0  0  0  0  0  0  0  0  0  0  0  0
   -1.4401   59.5385   77.8449 C   0  0  0  0  0  0  0  0  0  0  0  0
   -2.3573   59.1786   76.8070 O   0  0  0  0  0  0  0  0  0  0  0  0
   -3.1909   60.2603   76.4072 C   0  0  0  0  0  0  0  0  0  0  0  0
    3.1005   69.3291   82.0163 S   0  0  0  0  0  0  0  0  0  0  0  0
    4.3911   69.3870   82.6651 O   0  0  0  0  0  0  0  0  0  0  0  0
    2.9802   69.3540   80.5747 O   0  0  0  0  0  0  0  0  0  0  0  0
    2.1343   70.5853   82.6501 N   0  0  0  0  0  0  0  0  0  0  0  0
    2.8086   71.9266   82.7517 C   0  0  0  0  0  0  0  0  0  0  0  0
    1.7814   73.0725   82.8120 C   0  0  0  0  0  0  0  0  0  0  0  0
    0.9845   73.1599   81.5806 N   0  0  0  0  0  0  0  0  0  0  0  0
    0.6749   71.8383   81.0089 C   0  0  0  0  0  0  0  0  0  0  0  0
    0.7737   70.6744   82.0116 C   0  0  0  0  0  0  0  0  0  0  0  0
   -0.1597   74.0673   81.6795 C   0  0  0  0  0  0  0  0  0  0  0  0
    0.1098   75.4298   82.3130 C   0  0  0  0  0  0  0  0  0  0  0  0
    0.2840   64.5835   83.9829 O   0  0  0  0  0  0  0  0  0  0  0  0
    0.6610   64.1849   85.3031 C   0  0  0  0  0  0  0  0  0  0  0  0
   -0.5194   63.5679   86.0284 C   0  0  0  0  0  0  0  0  0  0  0  0
   -1.5326   62.9035   85.3364 C   0  0  0  0  0  0  0  0  0  0  0  0
   -2.6074   62.3761   86.0478 C   0  0  0  0  0  0  0  0  0  0  0  0
   -2.6541   62.5328   87.4269 C   0  0  0  0  0  0  0  0  0  0  0  0
   -1.6189   63.2159   88.0402 C   0  0  0  0  0  0  0  0  0  0  0  0
   -0.5637   63.7384   87.3769 N   0  0  0  0  0  0  0  0  0  0  0  0
 18 19  1  0  0  0
 19  7  1  0  0  0
  7  8  2  0  0  0
  8  9  1  0  0  0
  9 10  2  0  0  0
 10  1  1  0  0  0
  1  2  1  0  0  0
  2  3  2  0  0  0
  3 24  1  0  0  0
 24 25  2  0  0  0
 24 26  2  0  0  0
 24 27  1  0  0  0
 27 28  1  0  0  0
 28 29  1  0  0  0
 29 30  1  0  0  0
 30 33  1  0  0  0
 33 34  1  0  0  0
 30 31  1  0  0  0
 31 32  1  0  0  0
  3  4  1  0  0  0
  4  5  2  0  0  0
  5  6  1  0  0  0
  6 35  1  0  0  0
 35 36  1  0  0  0
 36 37  1  0  0  0
 37 38  2  0  0  0
 38 39  1  0  0  0
 39 40  2  0  0  0
 40 41  1  0  0  0
 41 42  2  0  0  0
 10 11  1  0  0  0
 11 12  1  0  0  0
 12 13  2  0  0  0
 12 14  1  0  0  0
 14 15  2  0  0  0
 15 16  1  0  0  0
 16 20  1  0  0  0
 20 21  1  0  0  0
 21 22  1  0  0  0
 22 23  1  0  0  0
 16  7  1  0  0  0
 14  8  1  0  0  0
  6  1  2  0  0  0
 42 37  1  0  0  0
 32 27  1  0  0  0
 11 17  1  0  0  0
M  END
> <minimizedAffinity>
-9.90377

$$$$



 42 46  0  0  0  0  0  0  0  0999 V2000
    0.5979   65.7729   82.3113 C   0  0  0  0  0  0  0  0  0  0  0  0
    0.4941   66.9505   81.5666 C   0  0  0  0  0  0  0  0  0  0  0  0
    1.1185   68.1018   82.0471 C   0  0  0  0  0  0  0  0  0  0  0  0
    1.8359   68.0479   83.2266 C   0  0  0  0  0  0  0  0  0  0  0  0
    1.9416   66.9203   83.9701 N   0  0  0  0  0  0  0  0  0  0  0  0
    1.3405   65.7994   83.4938 C   0  0  0  0  0  0  0  0  0  0  0  0
   -0.4349   62.2019   79.1439 C   0  0  0  0  0  0  0  0  0  0  0  0
   -0.4845   62.9126   80.3131 C   0  0  0  0  0  0  0  0  0  0  0  0
    0.1664   64.1047   80.6232 N   0  0  0  0  0  0  0  0  0  0  0  0
   -0.0473   64.5263   81.8351 C   0  0  0  0  0  0  0  0  0  0  0  0
   -0.8639   63.8883   82.7663 N   0  0  0  0  0  0  0  0  0  0  0  0
   -1.5328   62.6998   82.5335 C   0  0  0  0  0  0  0  0  0  0  0  0
   -2.2093   62.1650   83.4072 O   0  0  0  0  0  0  0  0  0  0  0  0
   -1.3089   62.2065   81.1928 C   0  0  0  0  0  0  0  0  0  0  0  0
   -1.7858   61.0900   80.6257 N   0  0  0  0  0  0  0  0  0  0  0  0
   -1.2533   61.1177   79.3765 N   0  0  0  0  0  0  0  0  0  0  0  0
   -0.9690   64.2372   83.7068 H   0  0  0  0  0  0  0  0  0  0  0  0
   -0.2867   63.6333   77.1109 C   0  0  0  0  0  0  0  0  0  0  0  0
    0.3090   62.4651   77.8810 C   0  0  0  0  0  0  0  0  0  0  0  0
   -1.5812   60.0367   78.4678 C   0  0  0  0  0  0  0  0  0  0  0  0
   -3.0686   60.0102   78.1408 C   0  0  0  0  0  0  0  0  0  0  0  0
   -3.3052   60.2274   76.7462 O   0  0  0  0  0  0  0  0  0  0  0  0
   -3.3800   61.6074   76.4072 C   0  0  0  0  0  0  0  0  0  0  0  0
    1.0252   69.6058   81.1414 S   0  0  0  0  0  0  0  0  0  0  0  0
    0.8011   69.2944   79.7476 O   0  0  0  0  0  0  0  0  0  0  0  0
    0.1299   70.4761   81.8724 O   0  0  0  0  0  0  0  0  0  0  0  0
    2.6085   70.2246   81.2960 N   0  0  0  0  0  0  0  0  0  0  0  0
    3.4507   70.1548   80.0512 C   0  0  0  0  0  0  0  0  0  0  0  0
    4.6113   71.1662   80.0965 C   0  0  0  0  0  0  0  0  0  0  0  0
    4.1285   72.5536   80.1301 N   0  0  0  0  0  0  0  0  0  0  0  0
    2.9011   72.7092   80.9292 C   0  0  0  0  0  0  0  0  0  0  0  0
    2.6602   71.5806   81.9482 C   0  0  0  0  0  0  0  0  0  0  0  0
    5.1741   73.5371   80.4164 C   0  0  0  0  0  0  0  0  0  0  0  0
    4.9113   74.4834   81.5850 C   0  0  0  0  0  0  0  0  0  0  0  0
    1.3813   64.6641   84.2676 O   0  0  0  0  0  0  0  0  0  0  0  0
    1.7298   64.9094   85.6323 C   0  0  0  0  0  0  0  0  0  0  0  0
    0.8451   64.0990   86.5598 C   0  0  0  0  0  0  0  0  0  0  0  0
   -0.4175   63.6587   86.1609 C   0  0  0  0  0  0  0  0  0  0  0  0
   -1.2006   62.9388   87.0598 C   0  0  0  0  0  0  0  0  0  0  0  0
   -0.7143   62.6852   88.3357 C   0  0  0  0  0  0  0  0  0  0  0  0
    0.5413   63.1665   88.6618 C   0  0  0  0  0  0  0  0  0  0  0  0
    1.3236   63.8676   87.8115 N   0  0  0  0  0  0  0  0  0  0  0  0
 18 19  1  0  0  0
 19  7  1  0  0  0
  7  8  2  0  0  0
  8  9  1  0  0  0
  9 10  2  0  0  0
 10  1  1  0  0  0
  1  2  1  0  0  0
  2  3  2  0  0  0
  3 24  1  0  0  0
 24 25  2  0  0  0
 24 26  2  0  0  0
 24 27  1  0  0  0
 27 28  1  0  0  0
 28 29  1  0  0  0
 29 30  1  0  0  0
 30 33  1  0  0  0
 33 34  1  0  0  0
 30 31  1  0  0  0
 31 32  1  0  0  0
  3  4  1  0  0  0
  4  5  2  0  0  0
  5  6  1  0  0  0
  6 35  1  0  0  0
 35 36  1  0  0  0
 36 37  1  0  0  0
 37 38  2  0  0  0
 38 39  1  0  0  0
 39 40  2  0  0  0
 40 41  1  0  0  0
 41 42  2  0  0  0
 10 11  1  0  0  0
 11 12  1  0  0  0
 12 13  2  0  0  0
 12 14  1  0  0  0
 14 15  2  0  0  0
 15 16  1  0  0  0
 16 20  1  0  0  0
 20 21  1  0  0  0
 21 22  1  0  0  0
 22 23  1  0  0  0
 16  7  1  0  0  0
 14  8  1  0  0  0
  6  1  2  0  0  0
 42 37  1  0  0  0
 32 27  1  0  0  0
 11 17  1  0  0  0
M  END
> <minimizedAffinity>
-9.80178

$$$$



 42 46  0  0  0  0  0  0  0  0999 V2000
    0.9177   66.1777   81.4594 C   0  0  0  0  0  0  0  0  0  0  0  0
    1.4241   67.3775   81.9656 C   0  0  0  0  0  0  0  0  0  0  0  0
    2.0441   68.2648   81.0856 C   0  0  0  0  0  0  0  0  0  0  0  0
    2.1249   67.9502   79.7427 C   0  0  0  0  0  0  0  0  0  0  0  0
    1.6503   66.7889   79.2315 N   0  0  0  0  0  0  0  0  0  0  0  0
    1.0387   65.9323   80.0899 C   0  0  0  0  0  0  0  0  0  0  0  0
    0.1226   63.7589   85.6269 C   0  0  0  0  0  0  0  0  0  0  0  0
   -0.0545   64.1224   84.3188 C   0  0  0  0  0  0  0  0  0  0  0  0
    0.6764   65.0479   83.5769 N   0  0  0  0  0  0  0  0  0  0  0  0
    0.2482   65.2085   82.3592 C   0  0  0  0  0  0  0  0  0  0  0  0
   -0.8260   64.5221   81.7971 N   0  0  0  0  0  0  0  0  0  0  0  0
   -1.6022   63.5982   82.4738 C   0  0  0  0  0  0  0  0  0  0  0  0
   -2.5611   63.0521   81.9359 O   0  0  0  0  0  0  0  0  0  0  0  0
   -1.1496   63.4033   83.8333 C   0  0  0  0  0  0  0  0  0  0  0  0
   -1.6618   62.5987   84.7745 N   0  0  0  0  0  0  0  0  0  0  0  0
   -0.8624   62.8211   85.8498 N   0  0  0  0  0  0  0  0  0  0  0  0
   -1.1418   64.7088   80.8575 H   0  0  0  0  0  0  0  0  0  0  0  0
    2.3324   64.8527   85.9796 C   0  0  0  0  0  0  0  0  0  0  0  0
    1.1128   64.2256   86.6366 C   0  0  0  0  0  0  0  0  0  0  0  0
   -1.1343   62.0860   87.0694 C   0  0  0  0  0  0  0  0  0  0  0  0
   -1.8288   62.9582   88.1072 C   0  0  0  0  0  0  0  0  0  0  0  0
   -1.0787   63.0271   89.3241 O   0  0  0  0  0  0  0  0  0  0  0  0
    0.0574   62.1704   89.3217 C   0  0  0  0  0  0  0  0  0  0  0  0
    2.6885   69.7918   81.6722 S   0  0  0  0  0  0  0  0  0  0  0  0
    2.5966   69.8100   83.1149 O   0  0  0  0  0  0  0  0  0  0  0  0
    3.9503   69.9978   80.9950 O   0  0  0  0  0  0  0  0  0  0  0  0
    1.5669   70.9223   81.0577 N   0  0  0  0  0  0  0  0  0  0  0  0
    0.2424   70.9667   81.7701 C   0  0  0  0  0  0  0  0  0  0  0  0
   -0.4816   72.3053   81.5342 C   0  0  0  0  0  0  0  0  0  0  0  0
    0.2678   73.4396   82.0916 N   0  0  0  0  0  0  0  0  0  0  0  0
    1.7253   73.2833   81.9485 C   0  0  0  0  0  0  0  0  0  0  0  0
    2.1523   72.2936   80.8493 C   0  0  0  0  0  0  0  0  0  0  0  0
   -0.2502   74.7473   81.6864 C   0  0  0  0  0  0  0  0  0  0  0  0
   -0.7990   74.8472   80.2655 C   0  0  0  0  0  0  0  0  0  0  0  0
    0.6109   64.7209   79.6009 O   0  0  0  0  0  0  0  0  0  0  0  0
    0.3190   64.7354   78.2015 C   0  0  0  0  0  0  0  0  0  0  0  0
   -0.8256   63.7910   77.8884 C   0  0  0  0  0  0  0  0  0  0  0  0
   -1.4804   63.8239   76.6567 C   0  0  0  0  0  0  0  0  0  0  0  0
   -2.5420   62.9518   76.4287 C   0  0  0  0  0  0  0  0  0  0  0  0
   -2.9335   62.0777   77.4344 C   0  0  0  0  0  0  0  0  0  0  0  0
   -2.2442   62.1139   78.6336 C   0  0  0  0  0  0  0  0  0  0  0  0
   -1.2110   62.9484   78.8838 N   0  0  0  0  0  0  0  0  0  0  0  0
 18 19  1  0  0  0
 19  7  1  0  0  0
  7  8  2  0  0  0
  8  9  1  0  0  0
  9 10  2  0  0  0
 10  1  1  0  0  0
  1  2  1  0  0  0
  2  3  2  0  0  0
  3 24  1  0  0  0
 24 25  2  0  0  0
 24 26  2  0  0  0
 24 27  1  0  0  0
 27 28  1  0  0  0
 28 29  1  0  0  0
 29 30  1  0  0  0
 30 33  1  0  0  0
 33 34  1  0  0  0
 30 31  1  0  0  0
 31 32  1  0  0  0
  3  4  1  0  0  0
  4  5  2  0  0  0
  5  6  1  0  0  0
  6 35  1  0  0  0
 35 36  1  0  0  0
 36 37  1  0  0  0
 37 38  2  0  0  0
 38 39  1  0  0  0
 39 40  2  0  0  0
 40 41  1  0  0  0
 41 42  2  0  0  0
 10 11  1  0  0  0
 11 12  1  0  0  0
 12 13  2  0  0  0
 12 14  1  0  0  0
 14 15  2  0  0  0
 15 16  1  0  0  0
 16 20  1  0  0  0
 20 21  1  0  0  0
 21 22  1  0  0  0
 22 23  1  0  0  0
 16  7  1  0  0  0
 14  8  1  0  0  0
  6  1  2  0  0  0
 42 37  1  0  0  0
 32 27  1  0  0  0
 11 17  1  0  0  0
M  END
> <minimizedAffinity>
-9.25080

$$$$



 42 46  0  0  0  0  0  0  0  0999 V2000
    0.9558   66.5571   81.9200 C   0  0  0  0  0  0  0  0  0  0  0  0
    0.9471   67.8677   81.4358 C   0  0  0  0  0  0  0  0  0  0  0  0
    1.4669   68.8808   82.2418 C   0  0  0  0  0  0  0  0  0  0  0  0
    1.9923   68.5664   83.4803 C   0  0  0  0  0  0  0  0  0  0  0  0
    2.0021   67.3050   83.9742 N   0  0  0  0  0  0  0  0  0  0  0  0
    1.5040   66.3202   83.1824 C   0  0  0  0  0  0  0  0  0  0  0  0
   -0.9383   62.1400   81.0530 C   0  0  0  0  0  0  0  0  0  0  0  0
   -0.4497   63.3873   80.7701 C   0  0  0  0  0  0  0  0  0  0  0  0
    0.0572   64.3340   81.6577 N   0  0  0  0  0  0  0  0  0  0  0  0
    0.4167   65.4502   81.0947 C   0  0  0  0  0  0  0  0  0  0  0  0
    0.3412   65.7118   79.7284 N   0  0  0  0  0  0  0  0  0  0  0  0
   -0.1584   64.8260   78.7903 C   0  0  0  0  0  0  0  0  0  0  0  0
   -0.2346   65.1276   77.6028 O   0  0  0  0  0  0  0  0  0  0  0  0
   -0.5695   63.5765   79.3910 C   0  0  0  0  0  0  0  0  0  0  0  0
   -1.1026   62.5013   78.7949 N   0  0  0  0  0  0  0  0  0  0  0  0
   -1.3033   61.6368   79.8230 N   0  0  0  0  0  0  0  0  0  0  0  0
    0.5997   66.6081   79.3447 H   0  0  0  0  0  0  0  0  0  0  0  0
   -2.5235   61.4387   82.8417 C   0  0  0  0  0  0  0  0  0  0  0  0
   -1.0835   61.4282   82.3530 C   0  0  0  0  0  0  0  0  0  0  0  0
   -1.8716   60.3370   79.5242 C   0  0  0  0  0  0  0  0  0  0  0  0
   -2.8958   60.4175   78.3997 C   0  0  0  0  0  0  0  0  0  0  0  0
   -2.6061   59.4826   77.3555 O   0  0  0  0  0  0  0  0  0  0  0  0
   -1.2676   59.0016   77.4007 C   0  0  0  0  0  0  0  0  0  0  0  0
    1.4876   70.5445   81.6734 S   0  0  0  0  0  0  0  0  0  0  0  0
    0.8664   70.5963   80.3690 O   0  0  0  0  0  0  0  0  0  0  0  0
    1.0121   71.3632   82.7674 O   0  0  0  0  0  0  0  0  0  0  0  0
    3.1565   70.8426   81.4755 N   0  0  0  0  0  0  0  0  0  0  0  0
    3.7225   70.4654   80.1334 C   0  0  0  0  0  0  0  0  0  0  0  0
    5.0333   71.2190   79.8407 C   0  0  0  0  0  0  0  0  0  0  0  0
    4.8228   72.6704   79.7502 N   0  0  0  0  0  0  0  0  0  0  0  0
    3.8164   73.1596   80.7078 C   0  0  0  0  0  0  0  0  0  0  0  0
    3.5730   72.2239   81.9058 C   0  0  0  0  0  0  0  0  0  0  0  0
    6.0630   73.4471   79.7155 C   0  0  0  0  0  0  0  0  0  0  0  0
    7.3247   72.6897   79.3098 C   0  0  0  0  0  0  0  0  0  0  0  0
    1.4452   65.0457   83.6939 O   0  0  0  0  0  0  0  0  0  0  0  0
    1.7394   64.9715   85.0909 C   0  0  0  0  0  0  0  0  0  0  0  0
    0.6177   64.2707   85.8329 C   0  0  0  0  0  0  0  0  0  0  0  0
   -0.3803   63.5723   85.1523 C   0  0  0  0  0  0  0  0  0  0  0  0
   -1.4020   62.9671   85.8800 C   0  0  0  0  0  0  0  0  0  0  0  0
   -1.4126   63.0814   87.2640 C   0  0  0  0  0  0  0  0  0  0  0  0
   -0.3962   63.8019   87.8658 C   0  0  0  0  0  0  0  0  0  0  0  0
    0.6077   64.3998   87.1866 N   0  0  0  0  0  0  0  0  0  0  0  0
 18 19  1  0  0  0
 19  7  1  0  0  0
  7  8  2  0  0  0
  8  9  1  0  0  0
  9 10  2  0  0  0
 10  1  1  0  0  0
  1  2  1  0  0  0
  2  3  2  0  0  0
  3 24  1  0  0  0
 24 25  2  0  0  0
 24 26  2  0  0  0
 24 27  1  0  0  0
 27 28  1  0  0  0
 28 29  1  0  0  0
 29 30  1  0  0  0
 30 33  1  0  0  0
 33 34  1  0  0  0
 30 31  1  0  0  0
 31 32  1  0  0  0
  3  4  1  0  0  0
  4  5  2  0  0  0
  5  6  1  0  0  0
  6 35  1  0  0  0
 35 36  1  0  0  0
 36 37  1  0  0  0
 37 38  2  0  0  0
 38 39  1  0  0  0
 39 40  2  0  0  0
 40 41  1  0  0  0
 41 42  2  0  0  0
 10 11  1  0  0  0
 11 12  1  0  0  0
 12 13  2  0  0  0
 12 14  1  0  0  0
 14 15  2  0  0  0
 15 16  1  0  0  0
 16 20  1  0  0  0
 20 21  1  0  0  0
 21 22  1  0  0  0
 22 23  1  0  0  0
 16  7  1  0  0  0
 14  8  1  0  0  0
  6  1  2  0  0  0
 42 37  1  0  0  0
 32 27  1  0  0  0
 11 17  1  0  0  0
M  END
> <minimizedAffinity>
-9.20878

$$$$



 42 46  0  0  0  0  0  0  0  0999 V2000
    0.8155   66.0857   81.6257 C   0  0  0  0  0  0  0  0  0  0  0  0
    0.7546   65.7071   80.2822 C   0  0  0  0  0  0  0  0  0  0  0  0
    0.2352   64.4518   79.9649 C   0  0  0  0  0  0  0  0  0  0  0  0
   -0.2220   63.6268   80.9745 C   0  0  0  0  0  0  0  0  0  0  0  0
   -0.1635   63.9686   82.2842 N   0  0  0  0  0  0  0  0  0  0  0  0
    0.3338   65.1955   82.5879 C   0  0  0  0  0  0  0  0  0  0  0  0
    1.0195   70.9636   81.7461 C   0  0  0  0  0  0  0  0  0  0  0  0
    1.3922   69.6726   82.0088 C   0  0  0  0  0  0  0  0  0  0  0  0
    0.7961   68.4968   81.5580 N   0  0  0  0  0  0  0  0  0  0  0  0
    1.3568   67.4121   82.0063 C   0  0  0  0  0  0  0  0  0  0  0  0
    2.4686   67.3801   82.8452 N   0  0  0  0  0  0  0  0  0  0  0  0
    3.1061   68.5040   83.3396 C   0  0  0  0  0  0  0  0  0  0  0  0
    4.0603   68.4127   84.1066 O   0  0  0  0  0  0  0  0  0  0  0  0
    2.4995   69.7256   82.8591 C   0  0  0  0  0  0  0  0  0  0  0  0
    2.8440   70.9909   83.1345 N   0  0  0  0  0  0  0  0  0  0  0  0
    1.9399   71.7241   82.4345 N   0  0  0  0  0  0  0  0  0  0  0  0
    2.8449   66.5119   83.1945 H   0  0  0  0  0  0  0  0  0  0  0  0
   -1.2616   71.9623   81.8019 C   0  0  0  0  0  0  0  0  0  0  0  0
   -0.1044   71.5006   80.9300 C   0  0  0  0  0  0  0  0  0  0  0  0
    2.0321   73.1694   82.4999 C   0  0  0  0  0  0  0  0  0  0  0  0
    2.9724   73.7205   81.4359 C   0  0  0  0  0  0  0  0  0  0  0  0
    3.3333   72.7172   80.4813 O   0  0  0  0  0  0  0  0  0  0  0  0
    4.7342   72.6659   80.2371 C   0  0  0  0  0  0  0  0  0  0  0  0
    0.1284   63.9333   78.2884 S   0  0  0  0  0  0  0  0  0  0  0  0
   -0.4086   65.0201   77.5006 O   0  0  0  0  0  0  0  0  0  0  0  0
    1.3977   63.3212   77.9611 O   0  0  0  0  0  0  0  0  0  0  0  0
   -1.0506   62.7012   78.3610 N   0  0  0  0  0  0  0  0  0  0  0  0
   -2.2218   62.8762   77.4327 C   0  0  0  0  0  0  0  0  0  0  0  0
   -2.9350   61.5379   77.1641 C   0  0  0  0  0  0  0  0  0  0  0  0
   -2.0622   60.5812   76.4699 N   0  0  0  0  0  0  0  0  0  0  0  0
   -0.6604   60.6647   76.9140 C   0  0  0  0  0  0  0  0  0  0  0  0
   -0.4708   61.3133   78.2973 C   0  0  0  0  0  0  0  0  0  0  0  0
   -2.6045   59.2231   76.4074 C   0  0  0  0  0  0  0  0  0  0  0  0
   -1.6388   58.0923   76.7521 C   0  0  0  0  0  0  0  0  0  0  0  0
    0.4620   65.5318   83.9146 O   0  0  0  0  0  0  0  0  0  0  0  0
    1.1136   64.5321   84.7019 C   0  0  0  0  0  0  0  0  0  0  0  0
    0.1890   64.0311   85.7946 C   0  0  0  0  0  0  0  0  0  0  0  0
   -0.9055   63.2156   85.5048 C   0  0  0  0  0  0  0  0  0  0  0  0
   -1.7381   62.8031   86.5421 C   0  0  0  0  0  0  0  0  0  0  0  0
   -1.4690   63.2210   87.8389 C   0  0  0  0  0  0  0  0  0  0  0  0
   -0.3732   64.0402   88.0449 C   0  0  0  0  0  0  0  0  0  0  0  0
    0.4521   64.4567   87.0591 N   0  0  0  0  0  0  0  0  0  0  0  0
 18 19  1  0  0  0
 19  7  1  0  0  0
  7  8  2  0  0  0
  8  9  1  0  0  0
  9 10  2  0  0  0
 10  1  1  0  0  0
  1  2  1  0  0  0
  2  3  2  0  0  0
  3 24  1  0  0  0
 24 25  2  0  0  0
 24 26  2  0  0  0
 24 27  1  0  0  0
 27 28  1  0  0  0
 28 29  1  0  0  0
 29 30  1  0  0  0
 30 33  1  0  0  0
 33 34  1  0  0  0
 30 31  1  0  0  0
 31 32  1  0  0  0
  3  4  1  0  0  0
  4  5  2  0  0  0
  5  6  1  0  0  0
  6 35  1  0  0  0
 35 36  1  0  0  0
 36 37  1  0  0  0
 37 38  2  0  0  0
 38 39  1  0  0  0
 39 40  2  0  0  0
 40 41  1  0  0  0
 41 42  2  0  0  0
 10 11  1  0  0  0
 11 12  1  0  0  0
 12 13  2  0  0  0
 12 14  1  0  0  0
 14 15  2  0  0  0
 15 16  1  0  0  0
 16 20  1  0  0  0
 20 21  1  0  0  0
 21 22  1  0  0  0
 22 23  1  0  0  0
 16  7  1  0  0  0
 14  8  1  0  0  0
  6  1  2  0  0  0
 42 37  1  0  0  0
 32 27  1  0  0  0
 11 17  1  0  0  0
M  END
> <minimizedAffinity>
-9.20017

$$$$



 42 46  0  0  0  0  0  0  0  0999 V2000
    1.8500   67.4056   83.1331 C   0  0  0  0  0  0  0  0  0  0  0  0
    1.3266   68.3328   82.2285 C   0  0  0  0  0  0  0  0  0  0  0  0
    1.9852   69.5517   82.0654 C   0  0  0  0  0  0  0  0  0  0  0  0
    3.1406   69.8047   82.7796 C   0  0  0  0  0  0  0  0  0  0  0  0
    3.6604   68.9250   83.6692 N   0  0  0  0  0  0  0  0  0  0  0  0
    3.0216   67.7357   83.8177 C   0  0  0  0  0  0  0  0  0  0  0  0
   -0.2930   63.2274   81.7910 C   0  0  0  0  0  0  0  0  0  0  0  0
    0.1936   64.1875   82.6372 C   0  0  0  0  0  0  0  0  0  0  0  0
    0.7850   65.4050   82.3072 N   0  0  0  0  0  0  0  0  0  0  0  0
    1.1836   66.0969   83.3340 C   0  0  0  0  0  0  0  0  0  0  0  0
    1.0330   65.7061   84.6628 N   0  0  0  0  0  0  0  0  0  0  0  0
    0.4657   64.5102   85.0654 C   0  0  0  0  0  0  0  0  0  0  0  0
    0.3943   64.2037   86.2520 O   0  0  0  0  0  0  0  0  0  0  0  0
    0.0169   63.7188   83.9415 C   0  0  0  0  0  0  0  0  0  0  0  0
   -0.5665   62.5125   83.9523 N   0  0  0  0  0  0  0  0  0  0  0  0
   -0.7589   62.2426   82.6351 N   0  0  0  0  0  0  0  0  0  0  0  0
    1.3918   66.2630   85.4235 H   0  0  0  0  0  0  0  0  0  0  0  0
    0.6767   62.1935   79.7430 C   0  0  0  0  0  0  0  0  0  0  0  0
   -0.3367   63.1791   80.3033 C   0  0  0  0  0  0  0  0  0  0  0  0
   -1.3947   60.9895   82.2783 C   0  0  0  0  0  0  0  0  0  0  0  0
   -2.9080   61.0637   82.4348 C   0  0  0  0  0  0  0  0  0  0  0  0
   -3.5811   60.6962   81.2265 O   0  0  0  0  0  0  0  0  0  0  0  0
   -3.9280   61.8191   80.4242 C   0  0  0  0  0  0  0  0  0  0  0  0
    1.3716   70.7475   80.9319 S   0  0  0  0  0  0  0  0  0  0  0  0
    2.4555   71.1726   80.0748 O   0  0  0  0  0  0  0  0  0  0  0  0
    0.1449   70.2101   80.3847 O   0  0  0  0  0  0  0  0  0  0  0  0
    0.9677   72.0505   81.9577 N   0  0  0  0  0  0  0  0  0  0  0  0
    1.9604   73.1809   81.9830 C   0  0  0  0  0  0  0  0  0  0  0  0
    1.3142   74.4897   82.4740 C   0  0  0  0  0  0  0  0  0  0  0  0
    0.2584   74.9550   81.5642 N   0  0  0  0  0  0  0  0  0  0  0  0
   -0.5205   73.8478   80.9839 C   0  0  0  0  0  0  0  0  0  0  0  0
   -0.4474   72.5338   81.7827 C   0  0  0  0  0  0  0  0  0  0  0  0
   -0.5462   76.0524   82.1035 C   0  0  0  0  0  0  0  0  0  0  0  0
    0.0357   76.7904   83.3064 C   0  0  0  0  0  0  0  0  0  0  0  0
    3.4970   66.8591   84.7639 O   0  0  0  0  0  0  0  0  0  0  0  0
    4.4895   67.4230   85.6245 C   0  0  0  0  0  0  0  0  0  0  0  0
    5.8538   66.8366   85.3169 C   0  0  0  0  0  0  0  0  0  0  0  0
    7.0114   67.6128   85.3830 C   0  0  0  0  0  0  0  0  0  0  0  0
    8.2371   67.0320   85.0667 C   0  0  0  0  0  0  0  0  0  0  0  0
    8.2797   65.6985   84.6812 C   0  0  0  0  0  0  0  0  0  0  0  0
    7.0877   64.9980   84.6261 C   0  0  0  0  0  0  0  0  0  0  0  0
    5.8842   65.5342   84.9270 N   0  0  0  0  0  0  0  0  0  0  0  0
 18 19  1  0  0  0
 19  7  1  0  0  0
  7  8  2  0  0  0
  8  9  1  0  0  0
  9 10  2  0  0  0
 10  1  1  0  0  0
  1  2  1  0  0  0
  2  3  2  0  0  0
  3 24  1  0  0  0
 24 25  2  0  0  0
 24 26  2  0  0  0
 24 27  1  0  0  0
 27 28  1  0  0  0
 28 29  1  0  0  0
 29 30  1  0  0  0
 30 33  1  0  0  0
 33 34  1  0  0  0
 30 31  1  0  0  0
 31 32  1  0  0  0
  3  4  1  0  0  0
  4  5  2  0  0  0
  5  6  1  0  0  0
  6 35  1  0  0  0
 35 36  1  0  0  0
 36 37  1  0  0  0
 37 38  2  0  0  0
 38 39  1  0  0  0
 39 40  2  0  0  0
 40 41  1  0  0  0
 41 42  2  0  0  0
 10 11  1  0  0  0
 11 12  1  0  0  0
 12 13  2  0  0  0
 12 14  1  0  0  0
 14 15  2  0  0  0
 15 16  1  0  0  0
 16 20  1  0  0  0
 20 21  1  0  0  0
 21 22  1  0  0  0
 22 23  1  0  0  0
 16  7  1  0  0  0
 14  8  1  0  0  0
  6  1  2  0  0  0
 42 37  1  0  0  0
 32 27  1  0  0  0
 11 17  1  0  0  0
M  END
> <minimizedAffinity>
-9.14313

$$$$



 42 46  0  0  0  0  0  0  0  0999 V2000
    1.6475   67.1633   82.6513 C   0  0  0  0  0  0  0  0  0  0  0  0
    1.1943   68.2486   81.8973 C   0  0  0  0  0  0  0  0  0  0  0  0
    1.9376   69.4291   81.9122 C   0  0  0  0  0  0  0  0  0  0  0  0
    3.1050   69.4918   82.6485 C   0  0  0  0  0  0  0  0  0  0  0  0
    3.5581   68.4559   83.3948 N   0  0  0  0  0  0  0  0  0  0  0  0
    2.8367   67.3054   83.3698 C   0  0  0  0  0  0  0  0  0  0  0  0
   -0.6099   63.2903   80.7138 C   0  0  0  0  0  0  0  0  0  0  0  0
   -0.1449   64.1282   81.6916 C   0  0  0  0  0  0  0  0  0  0  0  0
    0.5443   65.3293   81.5387 N   0  0  0  0  0  0  0  0  0  0  0  0
    0.8899   65.8893   82.6608 C   0  0  0  0  0  0  0  0  0  0  0  0
    0.5990   65.3819   83.9252 N   0  0  0  0  0  0  0  0  0  0  0  0
   -0.0713   64.1934   84.1543 C   0  0  0  0  0  0  0  0  0  0  0  0
   -0.2660   63.7782   85.2930 O   0  0  0  0  0  0  0  0  0  0  0  0
   -0.4642   63.5475   82.9216 C   0  0  0  0  0  0  0  0  0  0  0  0
   -1.1162   62.3881   82.7599 N   0  0  0  0  0  0  0  0  0  0  0  0
   -1.2062   62.2615   81.4105 N   0  0  0  0  0  0  0  0  0  0  0  0
    0.9209   65.8363   84.7662 H   0  0  0  0  0  0  0  0  0  0  0  0
    0.7154   62.6932   78.6911 C   0  0  0  0  0  0  0  0  0  0  0  0
   -0.5238   63.3904   79.2305 C   0  0  0  0  0  0  0  0  0  0  0  0
   -1.8805   61.0951   80.8753 C   0  0  0  0  0  0  0  0  0  0  0  0
   -3.3617   61.3615   80.6408 C   0  0  0  0  0  0  0  0  0  0  0  0
   -3.6405   61.6058   79.2585 O   0  0  0  0  0  0  0  0  0  0  0  0
   -3.3379   60.4901   78.4287 C   0  0  0  0  0  0  0  0  0  0  0  0
    1.4142   70.8195   80.9720 S   0  0  0  0  0  0  0  0  0  0  0  0
    2.4675   71.1779   80.0490 O   0  0  0  0  0  0  0  0  0  0  0  0
    0.0745   70.5280   80.5100 O   0  0  0  0  0  0  0  0  0  0  0  0
    1.3111   72.0441   82.1566 N   0  0  0  0  0  0  0  0  0  0  0  0
    2.5358   72.9065   82.2984 C   0  0  0  0  0  0  0  0  0  0  0  0
    2.2024   74.2577   82.9579 C   0  0  0  0  0  0  0  0  0  0  0  0
    1.2882   75.0596   82.1332 N   0  0  0  0  0  0  0  0  0  0  0  0
    0.2812   74.2390   81.4389 C   0  0  0  0  0  0  0  0  0  0  0  0
    0.0455   72.8550   82.0706 C   0  0  0  0  0  0  0  0  0  0  0  0
    0.7519   76.2368   82.8181 C   0  0  0  0  0  0  0  0  0  0  0  0
   -0.7594   76.4360   82.7385 C   0  0  0  0  0  0  0  0  0  0  0  0
    3.2454   66.2673   84.1727 O   0  0  0  0  0  0  0  0  0  0  0  0
    4.6504   66.2622   84.4370 C   0  0  0  0  0  0  0  0  0  0  0  0
    4.9178   65.8743   85.8786 C   0  0  0  0  0  0  0  0  0  0  0  0
    6.0560   66.3182   86.5527 C   0  0  0  0  0  0  0  0  0  0  0  0
    6.2671   65.9128   87.8682 C   0  0  0  0  0  0  0  0  0  0  0  0
    5.3484   65.0672   88.4762 C   0  0  0  0  0  0  0  0  0  0  0  0
    4.2515   64.6587   87.7383 C   0  0  0  0  0  0  0  0  0  0  0  0
    4.0202   65.0351   86.4611 N   0  0  0  0  0  0  0  0  0  0  0  0
 18 19  1  0  0  0
 19  7  1  0  0  0
  7  8  2  0  0  0
  8  9  1  0  0  0
  9 10  2  0  0  0
 10  1  1  0  0  0
  1  2  1  0  0  0
  2  3  2  0  0  0
  3 24  1  0  0  0
 24 25  2  0  0  0
 24 26  2  0  0  0
 24 27  1  0  0  0
 27 28  1  0  0  0
 28 29  1  0  0  0
 29 30  1  0  0  0
 30 33  1  0  0  0
 33 34  1  0  0  0
 30 31  1  0  0  0
 31 32  1  0  0  0
  3  4  1  0  0  0
  4  5  2  0  0  0
  5  6  1  0  0  0
  6 35  1  0  0  0
 35 36  1  0  0  0
 36 37  1  0  0  0
 37 38  2  0  0  0
 38 39  1  0  0  0
 39 40  2  0  0  0
 40 41  1  0  0  0
 41 42  2  0  0  0
 10 11  1  0  0  0
 11 12  1  0  0  0
 12 13  2  0  0  0
 12 14  1  0  0  0
 14 15  2  0  0  0
 15 16  1  0  0  0
 16 20  1  0  0  0
 20 21  1  0  0  0
 21 22  1  0  0  0
 22 23  1  0  0  0
 16  7  1  0  0  0
 14  8  1  0  0  0
  6  1  2  0  0  0
 42 37  1  0  0  0
 32 27  1  0  0  0
 11 17  1  0  0  0
M  END
> <minimizedAffinity>
-8.77412

$$$$



 42 46  0  0  0  0  0  0  0  0999 V2000
    1.9183   67.0471   83.0634 C   0  0  0  0  0  0  0  0  0  0  0  0
    1.5430   68.2624   82.4854 C   0  0  0  0  0  0  0  0  0  0  0  0
    2.3812   69.3658   82.6470 C   0  0  0  0  0  0  0  0  0  0  0  0
    3.5622   69.2291   83.3507 C   0  0  0  0  0  0  0  0  0  0  0  0
    3.9413   68.0636   83.9282 N   0  0  0  0  0  0  0  0  0  0  0  0
    3.1273   66.9895   83.7602 C   0  0  0  0  0  0  0  0  0  0  0  0
   -0.5672   63.6027   80.6532 C   0  0  0  0  0  0  0  0  0  0  0  0
   -0.0762   64.2925   81.7291 C   0  0  0  0  0  0  0  0  0  0  0  0
    0.7154   65.4391   81.7270 N   0  0  0  0  0  0  0  0  0  0  0  0
    1.0586   65.8490   82.9129 C   0  0  0  0  0  0  0  0  0  0  0  0
    0.6740   65.2415   84.1062 N   0  0  0  0  0  0  0  0  0  0  0  0
   -0.1009   64.0982   84.1859 C   0  0  0  0  0  0  0  0  0  0  0  0
   -0.3767   63.5866   85.2673 O   0  0  0  0  0  0  0  0  0  0  0  0
   -0.4935   63.6185   82.8795 C   0  0  0  0  0  0  0  0  0  0  0  0
   -1.2315   62.5424   82.5745 N   0  0  0  0  0  0  0  0  0  0  0  0
   -1.2749   62.5632   81.2171 N   0  0  0  0  0  0  0  0  0  0  0  0
    0.9967   65.5778   85.0008 H   0  0  0  0  0  0  0  0  0  0  0  0
    0.7200   63.0190   78.6023 C   0  0  0  0  0  0  0  0  0  0  0  0
   -0.4110   63.8467   79.1925 C   0  0  0  0  0  0  0  0  0  0  0  0
   -2.0199   61.5204   80.5394 C   0  0  0  0  0  0  0  0  0  0  0  0
   -3.5230   61.7220   80.6812 C   0  0  0  0  0  0  0  0  0  0  0  0
   -4.2142   61.3993   79.4704 O   0  0  0  0  0  0  0  0  0  0  0  0
   -3.5694   61.9162   78.3119 C   0  0  0  0  0  0  0  0  0  0  0  0
    1.9579   70.9145   81.9303 S   0  0  0  0  0  0  0  0  0  0  0  0
    1.3147   70.6759   80.6577 O   0  0  0  0  0  0  0  0  0  0  0  0
    1.3121   71.6895   82.9673 O   0  0  0  0  0  0  0  0  0  0  0  0
    3.4880   71.6074   81.6266 N   0  0  0  0  0  0  0  0  0  0  0  0
    4.1256   71.2123   80.3222 C   0  0  0  0  0  0  0  0  0  0  0  0
    5.1895   72.2345   79.8807 C   0  0  0  0  0  0  0  0  0  0  0  0
    4.6033   73.5548   79.6122 N   0  0  0  0  0  0  0  0  0  0  0  0
    3.5091   73.8901   80.5394 C   0  0  0  0  0  0  0  0  0  0  0  0
    3.5281   73.0946   81.8573 C   0  0  0  0  0  0  0  0  0  0  0  0
    5.5946   74.6156   79.4262 C   0  0  0  0  0  0  0  0  0  0  0  0
    6.9024   74.4626   80.1984 C   0  0  0  0  0  0  0  0  0  0  0  0
    3.4628   65.8172   84.3947 O   0  0  0  0  0  0  0  0  0  0  0  0
    4.1483   66.0091   85.6345 C   0  0  0  0  0  0  0  0  0  0  0  0
    5.6398   66.1516   85.3997 C   0  0  0  0  0  0  0  0  0  0  0  0
    6.3359   67.2889   85.8108 C   0  0  0  0  0  0  0  0  0  0  0  0
    7.7007   67.3810   85.5489 C   0  0  0  0  0  0  0  0  0  0  0  0
    8.3362   66.3464   84.8748 C   0  0  0  0  0  0  0  0  0  0  0  0
    7.5757   65.2575   84.4870 C   0  0  0  0  0  0  0  0  0  0  0  0
    6.2508   65.1402   84.7268 N   0  0  0  0  0  0  0  0  0  0  0  0
 18 19  1  0  0  0
 19  7  1  0  0  0
  7  8  2  0  0  0
  8  9  1  0  0  0
  9 10  2  0  0  0
 10  1  1  0  0  0
  1  2  1  0  0  0
  2  3  2  0  0  0
  3 24  1  0  0  0
 24 25  2  0  0  0
 24 26  2  0  0  0
 24 27  1  0  0  0
 27 28  1  0  0  0
 28 29  1  0  0  0
 29 30  1  0  0  0
 30 33  1  0  0  0
 33 34  1  0  0  0
 30 31  1  0  0  0
 31 32  1  0  0  0
  3  4  1  0  0  0
  4  5  2  0  0  0
  5  6  1  0  0  0
  6 35  1  0  0  0
 35 36  1  0  0  0
 36 37  1  0  0  0
 37 38  2  0  0  0
 38 39  1  0  0  0
 39 40  2  0  0  0
 40 41  1  0  0  0
 41 42  2  0  0  0
 10 11  1  0  0  0
 11 12  1  0  0  0
 12 13  2  0  0  0
 12 14  1  0  0  0
 14 15  2  0  0  0
 15 16  1  0  0  0
 16 20  1  0  0  0
 20 21  1  0  0  0
 21 22  1  0  0  0
 22 23  1  0  0  0
 16  7  1  0  0  0
 14  8  1  0  0  0
  6  1  2  0  0  0
 42 37  1  0  0  0
 32 27  1  0  0  0
 11 17  1  0  0  0
M  END
> <minimizedAffinity>
-8.76447

$$$$
