


 30 32  0  0  0  0  0  0  0  0999 V2000
    3.6452   66.4372   84.7161 C   0  0  0  0  0  0  0  0  0  0  0  0
    4.4170   67.5027   84.2345 C   0  0  0  0  0  0  0  0  0  0  0  0
    3.8678   68.4540   83.3702 C   0  0  0  0  0  0  0  0  0  0  0  0
    2.5383   68.3602   82.9809 C   0  0  0  0  0  0  0  0  0  0  0  0
    1.7545   67.3108   83.4532 C   0  0  0  0  0  0  0  0  0  0  0  0
    2.2892   66.3450   84.3293 C   0  0  0  0  0  0  0  0  0  0  0  0
    1.3456   65.2675   84.7924 C   0  0  0  0  0  0  0  0  0  0  0  0
    0.8178   64.4402   83.9266 N   0  0  0  0  0  0  0  0  0  0  0  0
   -0.0138   63.5219   84.4798 C   0  0  0  0  0  0  0  0  0  0  0  0
   -0.3462   63.3785   85.8036 C   0  0  0  0  0  0  0  0  0  0  0  0
   -1.2305   62.2871   85.8675 C   0  0  0  0  0  0  0  0  0  0  0  0
   -1.8860   61.7139   87.0668 C   0  0  0  0  0  0  0  0  0  0  0  0
   -1.4462   61.7654   84.6483 N   0  0  0  0  0  0  0  0  0  0  0  0
   -0.6924   62.5335   83.8237 N   0  0  0  0  0  0  0  0  0  0  0  0
    0.2257   64.2838   86.7539 C   0  0  0  0  0  0  0  0  0  0  0  0
    0.0086   64.2599   87.9594 O   0  0  0  0  0  0  0  0  0  0  0  0
    1.0654   65.2045   86.1563 N   0  0  0  0  0  0  0  0  0  0  0  0
    1.4991   65.8681   86.7851 H   0  0  0  0  0  0  0  0  0  0  0  0
   -0.6715   62.2575   82.4021 C   0  0  0  0  0  0  0  0  0  0  0  0
    0.5012   61.3779   82.0076 C   0  0  0  0  0  0  0  0  0  0  0  0
    1.9529   69.3213   82.1105 N   0  0  0  0  0  0  0  0  0  0  0  0
    2.1039   70.3076   82.3241 H   0  0  0  0  0  0  0  0  0  0  0  0
    1.8960   69.0287   80.4520 S   0  0  0  0  0  0  0  0  0  0  0  0
    0.1662   69.2544   80.0855 C   0  0  0  0  0  0  0  0  0  0  0  0
    2.6529   70.0404   79.7488 O   0  0  0  0  0  0  0  0  0  0  0  0
    2.1927   67.6210   80.2935 O   0  0  0  0  0  0  0  0  0  0  0  0
    4.1305   65.4821   85.5713 O   0  0  0  0  0  0  0  0  0  0  0  0
    5.5203   65.1399   85.5357 C   0  0  0  0  0  0  0  0  0  0  0  0
    5.4163   65.4446   88.0343 C   0  0  0  0  0  0  0  0  0  0  0  0
    6.2290   65.6809   86.7739 C   0  0  0  0  0  0  0  0  0  0  0  0
 29 30  1  0  0  0
 30 28  1  0  0  0
 28 27  1  0  0  0
 27  1  1  0  0  0
  1  2  1  0  0  0
  2  3  2  0  0  0
  3  4  1  0  0  0
  4 21  1  0  0  0
 21 23  1  0  0  0
 23 24  1  0  0  0
 23 25  2  0  0  0
 23 26  2  0  0  0
  4  5  2  0  0  0
  5  6  1  0  0  0
  6  7  1  0  0  0
  7  8  2  0  0  0
  8  9  1  0  0  0
  9 10  2  0  0  0
 10 11  1  0  0  0
 11 12  1  0  0  0
 11 13  2  0  0  0
 13 14  1  0  0  0
 14 19  1  0  0  0
 19 20  1  0  0  0
 10 15  1  0  0  0
 15 16  2  0  0  0
 15 17  1  0  0  0
  6  1  2  0  0  0
 17  7  1  0  0  0
 14  9  1  0  0  0
 21 22  1  0  0  0
 17 18  1  0  0  0
M  END
> <minimizedAffinity>
-9.35331

$$$$



 30 32  0  0  0  0  0  0  0  0999 V2000
    3.3777   66.8110   84.3345 C   0  0  0  0  0  0  0  0  0  0  0  0
    4.0098   67.9088   83.7359 C   0  0  0  0  0  0  0  0  0  0  0  0
    3.3400   68.6994   82.7978 C   0  0  0  0  0  0  0  0  0  0  0  0
    2.0270   68.4108   82.4501 C   0  0  0  0  0  0  0  0  0  0  0  0
    1.3810   67.3265   83.0382 C   0  0  0  0  0  0  0  0  0  0  0  0
    2.0384   66.5211   83.9898 C   0  0  0  0  0  0  0  0  0  0  0  0
    1.2369   65.3893   84.5751 C   0  0  0  0  0  0  0  0  0  0  0  0
    0.5000   64.6363   83.7989 N   0  0  0  0  0  0  0  0  0  0  0  0
   -0.1690   63.6566   84.4573 C   0  0  0  0  0  0  0  0  0  0  0  0
   -0.1534   63.3861   85.8027 C   0  0  0  0  0  0  0  0  0  0  0  0
   -0.9995   62.2782   85.9874 C   0  0  0  0  0  0  0  0  0  0  0  0
   -1.3310   61.5856   87.2550 C   0  0  0  0  0  0  0  0  0  0  0  0
   -1.5228   61.8674   84.8201 N   0  0  0  0  0  0  0  0  0  0  0  0
   -0.9993   62.7212   83.9062 N   0  0  0  0  0  0  0  0  0  0  0  0
    0.6483   64.2097   86.6562 C   0  0  0  0  0  0  0  0  0  0  0  0
    0.7459   64.0710   87.8696 O   0  0  0  0  0  0  0  0  0  0  0  0
    1.3138   65.1960   85.9533 N   0  0  0  0  0  0  0  0  0  0  0  0
    1.8981   65.8062   86.5101 H   0  0  0  0  0  0  0  0  0  0  0  0
   -1.3439   62.5778   82.5069 C   0  0  0  0  0  0  0  0  0  0  0  0
   -2.4951   63.4825   82.1059 C   0  0  0  0  0  0  0  0  0  0  0  0
    1.3200   69.2061   81.5060 N   0  0  0  0  0  0  0  0  0  0  0  0
    0.4126   68.8664   81.1860 H   0  0  0  0  0  0  0  0  0  0  0  0
    1.3690   70.8867   81.6187 S   0  0  0  0  0  0  0  0  0  0  0  0
   -0.2367   71.3557   81.0028 C   0  0  0  0  0  0  0  0  0  0  0  0
    1.4654   71.2831   83.0058 O   0  0  0  0  0  0  0  0  0  0  0  0
    2.3493   71.3149   80.6437 O   0  0  0  0  0  0  0  0  0  0  0  0
    3.9845   66.0083   85.2653 O   0  0  0  0  0  0  0  0  0  0  0  0
    5.1629   66.4676   85.9362 C   0  0  0  0  0  0  0  0  0  0  0  0
    7.2979   66.0943   84.6520 C   0  0  0  0  0  0  0  0  0  0  0  0
    6.3272   65.5186   85.6675 C   0  0  0  0  0  0  0  0  0  0  0  0
 29 30  1  0  0  0
 30 28  1  0  0  0
 28 27  1  0  0  0
 27  1  1  0  0  0
  1  2  1  0  0  0
  2  3  2  0  0  0
  3  4  1  0  0  0
  4 21  1  0  0  0
 21 23  1  0  0  0
 23 24  1  0  0  0
 23 25  2  0  0  0
 23 26  2  0  0  0
  4  5  2  0  0  0
  5  6  1  0  0  0
  6  7  1  0  0  0
  7  8  2  0  0  0
  8  9  1  0  0  0
  9 10  2  0  0  0
 10 11  1  0  0  0
 11 12  1  0  0  0
 11 13  2  0  0  0
 13 14  1  0  0  0
 14 19  1  0  0  0
 19 20  1  0  0  0
 10 15  1  0  0  0
 15 16  2  0  0  0
 15 17  1  0  0  0
  6  1  2  0  0  0
 17  7  1  0  0  0
 14  9  1  0  0  0
 21 22  1  0  0  0
 17 18  1  0  0  0
M  END
> <minimizedAffinity>
-9.25782

$$$$



 30 32  0  0  0  0  0  0  0  0999 V2000
    1.5119   67.4613   82.4963 C   0  0  0  0  0  0  0  0  0  0  0  0
    2.3780   68.5545   82.6284 C   0  0  0  0  0  0  0  0  0  0  0  0
    3.2761   68.6342   83.6965 C   0  0  0  0  0  0  0  0  0  0  0  0
    3.3285   67.6197   84.6432 C   0  0  0  0  0  0  0  0  0  0  0  0
    2.4786   66.5231   84.5256 C   0  0  0  0  0  0  0  0  0  0  0  0
    1.5700   66.4229   83.4528 C   0  0  0  0  0  0  0  0  0  0  0  0
    0.7150   65.1846   83.4148 C   0  0  0  0  0  0  0  0  0  0  0  0
    0.2287   64.6880   84.5237 N   0  0  0  0  0  0  0  0  0  0  0  0
   -0.5216   63.5720   84.3438 C   0  0  0  0  0  0  0  0  0  0  0  0
   -0.8102   62.9344   83.1632 C   0  0  0  0  0  0  0  0  0  0  0  0
   -1.6215   61.8367   83.5011 C   0  0  0  0  0  0  0  0  0  0  0  0
   -2.2091   60.8236   82.5930 C   0  0  0  0  0  0  0  0  0  0  0  0
   -1.8367   61.7822   84.8263 N   0  0  0  0  0  0  0  0  0  0  0  0
   -1.1587   62.8502   85.3140 N   0  0  0  0  0  0  0  0  0  0  0  0
   -0.2771   63.4719   81.9481 C   0  0  0  0  0  0  0  0  0  0  0  0
   -0.4617   62.9964   80.8341 O   0  0  0  0  0  0  0  0  0  0  0  0
    0.4814   64.6059   82.1685 N   0  0  0  0  0  0  0  0  0  0  0  0
    0.8806   65.0283   81.3403 H   0  0  0  0  0  0  0  0  0  0  0  0
   -1.1670   63.1197   86.7369 C   0  0  0  0  0  0  0  0  0  0  0  0
   -2.5536   62.9761   87.3380 C   0  0  0  0  0  0  0  0  0  0  0  0
    4.2407   67.6720   85.7335 N   0  0  0  0  0  0  0  0  0  0  0  0
    3.8599   67.5699   86.6747 H   0  0  0  0  0  0  0  0  0  0  0  0
    5.7692   66.9783   85.5846 S   0  0  0  0  0  0  0  0  0  0  0  0
    5.8040   65.8381   86.9544 C   0  0  0  0  0  0  0  0  0  0  0  0
    5.8481   66.2239   84.3537 O   0  0  0  0  0  0  0  0  0  0  0  0
    6.7094   68.0386   85.8791 O   0  0  0  0  0  0  0  0  0  0  0  0
    0.6183   67.3290   81.4652 O   0  0  0  0  0  0  0  0  0  0  0  0
    1.0324   67.6241   80.1269 C   0  0  0  0  0  0  0  0  0  0  0  0
    1.2724   65.5182   78.7651 C   0  0  0  0  0  0  0  0  0  0  0  0
    1.9884   66.5479   79.6207 C   0  0  0  0  0  0  0  0  0  0  0  0
 29 30  1  0  0  0
 30 28  1  0  0  0
 28 27  1  0  0  0
 27  1  1  0  0  0
  1  2  1  0  0  0
  2  3  2  0  0  0
  3  4  1  0  0  0
  4 21  1  0  0  0
 21 23  1  0  0  0
 23 24  1  0  0  0
 23 25  2  0  0  0
 23 26  2  0  0  0
  4  5  2  0  0  0
  5  6  1  0  0  0
  6  7  1  0  0  0
  7  8  2  0  0  0
  8  9  1  0  0  0
  9 10  2  0  0  0
 10 11  1  0  0  0
 11 12  1  0  0  0
 11 13  2  0  0  0
 13 14  1  0  0  0
 14 19  1  0  0  0
 19 20  1  0  0  0
 10 15  1  0  0  0
 15 16  2  0  0  0
 15 17  1  0  0  0
  6  1  2  0  0  0
 17  7  1  0  0  0
 14  9  1  0  0  0
 21 22  1  0  0  0
 17 18  1  0  0  0
M  END
> <minimizedAffinity>
-9.11294

$$$$



 30 32  0  0  0  0  0  0  0  0999 V2000
   -2.3518   62.1150   83.6302 C   0  0  0  0  0  0  0  0  0  0  0  0
   -3.0972   60.9680   83.3276 C   0  0  0  0  0  0  0  0  0  0  0  0
   -2.9422   60.3135   82.1023 C   0  0  0  0  0  0  0  0  0  0  0  0
   -2.0350   60.7894   81.1651 C   0  0  0  0  0  0  0  0  0  0  0  0
   -1.2819   61.9254   81.4502 C   0  0  0  0  0  0  0  0  0  0  0  0
   -1.4207   62.5957   82.6822 C   0  0  0  0  0  0  0  0  0  0  0  0
   -0.5416   63.7997   82.8906 C   0  0  0  0  0  0  0  0  0  0  0  0
   -0.2613   64.5900   81.8857 N   0  0  0  0  0  0  0  0  0  0  0  0
    0.5410   65.6336   82.2142 C   0  0  0  0  0  0  0  0  0  0  0  0
    1.0693   65.9329   83.4450 C   0  0  0  0  0  0  0  0  0  0  0  0
    1.8227   67.1073   83.2708 C   0  0  0  0  0  0  0  0  0  0  0  0
    2.5983   67.8525   84.2903 C   0  0  0  0  0  0  0  0  0  0  0  0
    1.7734   67.5309   81.9966 N   0  0  0  0  0  0  0  0  0  0  0  0
    0.9855   66.6181   81.3767 N   0  0  0  0  0  0  0  0  0  0  0  0
    0.7685   65.0690   84.5463 C   0  0  0  0  0  0  0  0  0  0  0  0
    1.1779   65.2274   85.6901 O   0  0  0  0  0  0  0  0  0  0  0  0
   -0.0487   64.0179   84.1759 N   0  0  0  0  0  0  0  0  0  0  0  0
   -0.2946   63.3769   84.9192 H   0  0  0  0  0  0  0  0  0  0  0  0
    0.6987   66.7558   79.9639 C   0  0  0  0  0  0  0  0  0  0  0  0
    1.7324   66.0562   79.0998 C   0  0  0  0  0  0  0  0  0  0  0  0
   -1.8511   60.1355   79.9152 N   0  0  0  0  0  0  0  0  0  0  0  0
   -1.3767   59.2320   79.9188 H   0  0  0  0  0  0  0  0  0  0  0  0
   -3.0531   60.2206   78.7372 S   0  0  0  0  0  0  0  0  0  0  0  0
   -2.1408   59.8996   77.2398 C   0  0  0  0  0  0  0  0  0  0  0  0
   -4.0091   59.1538   78.9333 O   0  0  0  0  0  0  0  0  0  0  0  0
   -3.4685   61.6067   78.7029 O   0  0  0  0  0  0  0  0  0  0  0  0
   -2.4582   62.7903   84.8184 O   0  0  0  0  0  0  0  0  0  0  0  0
   -2.7330   62.0662   86.0224 C   0  0  0  0  0  0  0  0  0  0  0  0
   -1.3242   63.3887   87.6390 C   0  0  0  0  0  0  0  0  0  0  0  0
   -2.7340   63.0127   87.2192 C   0  0  0  0  0  0  0  0  0  0  0  0
 29 30  1  0  0  0
 30 28  1  0  0  0
 28 27  1  0  0  0
 27  1  1  0  0  0
  1  2  1  0  0  0
  2  3  2  0  0  0
  3  4  1  0  0  0
  4 21  1  0  0  0
 21 23  1  0  0  0
 23 24  1  0  0  0
 23 25  2  0  0  0
 23 26  2  0  0  0
  4  5  2  0  0  0
  5  6  1  0  0  0
  6  7  1  0  0  0
  7  8  2  0  0  0
  8  9  1  0  0  0
  9 10  2  0  0  0
 10 11  1  0  0  0
 11 12  1  0  0  0
 11 13  2  0  0  0
 13 14  1  0  0  0
 14 19  1  0  0  0
 19 20  1  0  0  0
 10 15  1  0  0  0
 15 16  2  0  0  0
 15 17  1  0  0  0
  6  1  2  0  0  0
 17  7  1  0  0  0
 14  9  1  0  0  0
 21 22  1  0  0  0
 17 18  1  0  0  0
M  END
> <minimizedAffinity>
-8.96181

$$$$



 30 32  0  0  0  0  0  0  0  0999 V2000
    1.9243   66.8027   83.5605 C   0  0  0  0  0  0  0  0  0  0  0  0
    2.1413   67.5775   82.4136 C   0  0  0  0  0  0  0  0  0  0  0  0
    1.4746   67.2935   81.2183 C   0  0  0  0  0  0  0  0  0  0  0  0
    0.5754   66.2374   81.1531 C   0  0  0  0  0  0  0  0  0  0  0  0
    0.3434   65.4593   82.2842 C   0  0  0  0  0  0  0  0  0  0  0  0
    1.0023   65.7336   83.4995 C   0  0  0  0  0  0  0  0  0  0  0  0
    0.6593   64.8409   84.6619 C   0  0  0  0  0  0  0  0  0  0  0  0
   -0.4244   64.1078   84.6296 N   0  0  0  0  0  0  0  0  0  0  0  0
   -0.6113   63.3535   85.7417 C   0  0  0  0  0  0  0  0  0  0  0  0
    0.1884   63.2845   86.8548 C   0  0  0  0  0  0  0  0  0  0  0  0
   -0.4272   62.3634   87.7207 C   0  0  0  0  0  0  0  0  0  0  0  0
    0.0302   61.9256   89.0607 C   0  0  0  0  0  0  0  0  0  0  0  0
   -1.5573   61.8733   87.1839 N   0  0  0  0  0  0  0  0  0  0  0  0
   -1.6439   62.4902   85.9797 N   0  0  0  0  0  0  0  0  0  0  0  0
    1.3728   64.0877   86.8963 C   0  0  0  0  0  0  0  0  0  0  0  0
    2.1655   64.1151   87.8301 O   0  0  0  0  0  0  0  0  0  0  0  0
    1.5309   64.8425   85.7496 N   0  0  0  0  0  0  0  0  0  0  0  0
    2.3558   65.4280   85.7260 H   0  0  0  0  0  0  0  0  0  0  0  0
   -2.7570   62.1990   85.1001 C   0  0  0  0  0  0  0  0  0  0  0  0
   -2.3061   61.5556   83.8011 C   0  0  0  0  0  0  0  0  0  0  0  0
   -0.1235   65.9342   79.9517 N   0  0  0  0  0  0  0  0  0  0  0  0
   -0.6587   66.6842   79.5131 H   0  0  0  0  0  0  0  0  0  0  0  0
    0.5649   64.8943   78.8185 S   0  0  0  0  0  0  0  0  0  0  0  0
   -0.6050   64.9677   77.4755 C   0  0  0  0  0  0  0  0  0  0  0  0
    1.8269   65.4321   78.3615 O   0  0  0  0  0  0  0  0  0  0  0  0
    0.4765   63.5711   79.3985 O   0  0  0  0  0  0  0  0  0  0  0  0
    2.5445   67.0421   84.7593 O   0  0  0  0  0  0  0  0  0  0  0  0
    3.9423   67.3507   84.7843 C   0  0  0  0  0  0  0  0  0  0  0  0
    5.1032   65.4601   85.9778 C   0  0  0  0  0  0  0  0  0  0  0  0
    4.7671   66.0762   84.6315 C   0  0  0  0  0  0  0  0  0  0  0  0
 29 30  1  0  0  0
 30 28  1  0  0  0
 28 27  1  0  0  0
 27  1  1  0  0  0
  1  2  1  0  0  0
  2  3  2  0  0  0
  3  4  1  0  0  0
  4 21  1  0  0  0
 21 23  1  0  0  0
 23 24  1  0  0  0
 23 25  2  0  0  0
 23 26  2  0  0  0
  4  5  2  0  0  0
  5  6  1  0  0  0
  6  7  1  0  0  0
  7  8  2  0  0  0
  8  9  1  0  0  0
  9 10  2  0  0  0
 10 11  1  0  0  0
 11 12  1  0  0  0
 11 13  2  0  0  0
 13 14  1  0  0  0
 14 19  1  0  0  0
 19 20  1  0  0  0
 10 15  1  0  0  0
 15 16  2  0  0  0
 15 17  1  0  0  0
  6  1  2  0  0  0
 17  7  1  0  0  0
 14  9  1  0  0  0
 21 22  1  0  0  0
 17 18  1  0  0  0
M  END
> <minimizedAffinity>
-8.69585

$$$$



 30 32  0  0  0  0  0  0  0  0999 V2000
   -1.3307   62.5707   82.6985 C   0  0  0  0  0  0  0  0  0  0  0  0
   -1.8923   61.3896   82.1960 C   0  0  0  0  0  0  0  0  0  0  0  0
   -1.4649   60.8526   80.9783 C   0  0  0  0  0  0  0  0  0  0  0  0
   -0.4651   61.4822   80.2489 C   0  0  0  0  0  0  0  0  0  0  0  0
    0.1081   62.6544   80.7349 C   0  0  0  0  0  0  0  0  0  0  0  0
   -0.3062   63.2079   81.9630 C   0  0  0  0  0  0  0  0  0  0  0  0
    0.3967   64.4652   82.4003 C   0  0  0  0  0  0  0  0  0  0  0  0
    0.3102   65.5517   81.6759 N   0  0  0  0  0  0  0  0  0  0  0  0
    0.9921   66.6081   82.1856 C   0  0  0  0  0  0  0  0  0  0  0  0
    1.7358   66.6515   83.3382 C   0  0  0  0  0  0  0  0  0  0  0  0
    2.2344   67.9630   83.4314 C   0  0  0  0  0  0  0  0  0  0  0  0
    3.0968   68.5373   84.4910 C   0  0  0  0  0  0  0  0  0  0  0  0
    1.8271   68.7118   82.3928 N   0  0  0  0  0  0  0  0  0  0  0  0
    1.0713   67.8641   81.6523 N   0  0  0  0  0  0  0  0  0  0  0  0
    1.8364   65.4642   84.1318 C   0  0  0  0  0  0  0  0  0  0  0  0
    2.4679   65.3749   85.1779 O   0  0  0  0  0  0  0  0  0  0  0  0
    1.1316   64.4096   83.5833 N   0  0  0  0  0  0  0  0  0  0  0  0
    1.1675   63.5447   84.1073 H   0  0  0  0  0  0  0  0  0  0  0  0
    0.4490   68.3337   80.4318 C   0  0  0  0  0  0  0  0  0  0  0  0
   -0.1042   69.7399   80.5765 C   0  0  0  0  0  0  0  0  0  0  0  0
   -0.0052   60.9504   79.0122 N   0  0  0  0  0  0  0  0  0  0  0  0
    0.0741   59.9362   78.9332 H   0  0  0  0  0  0  0  0  0  0  0  0
   -0.4745   61.6689   77.5620 S   0  0  0  0  0  0  0  0  0  0  0  0
   -0.3520   60.3143   76.4098 C   0  0  0  0  0  0  0  0  0  0  0  0
   -1.8577   62.0820   77.6438 O   0  0  0  0  0  0  0  0  0  0  0  0
    0.5744   62.6115   77.2360 O   0  0  0  0  0  0  0  0  0  0  0  0
   -1.7063   63.1356   83.8897 O   0  0  0  0  0  0  0  0  0  0  0  0
   -1.4696   62.4312   85.1134 C   0  0  0  0  0  0  0  0  0  0  0  0
   -2.5966   62.9880   87.2967 C   0  0  0  0  0  0  0  0  0  0  0  0
   -2.7555   62.3454   85.9303 C   0  0  0  0  0  0  0  0  0  0  0  0
 29 30  1  0  0  0
 30 28  1  0  0  0
 28 27  1  0  0  0
 27  1  1  0  0  0
  1  2  1  0  0  0
  2  3  2  0  0  0
  3  4  1  0  0  0
  4 21  1  0  0  0
 21 23  1  0  0  0
 23 24  1  0  0  0
 23 25  2  0  0  0
 23 26  2  0  0  0
  4  5  2  0  0  0
  5  6  1  0  0  0
  6  7  1  0  0  0
  7  8  2  0  0  0
  8  9  1  0  0  0
  9 10  2  0  0  0
 10 11  1  0  0  0
 11 12  1  0  0  0
 11 13  2  0  0  0
 13 14  1  0  0  0
 14 19  1  0  0  0
 19 20  1  0  0  0
 10 15  1  0  0  0
 15 16  2  0  0  0
 15 17  1  0  0  0
  6  1  2  0  0  0
 17  7  1  0  0  0
 14  9  1  0  0  0
 21 22  1  0  0  0
 17 18  1  0  0  0
M  END
> <minimizedAffinity>
-8.62142

$$$$



 30 32  0  0  0  0  0  0  0  0999 V2000
    3.8990   66.4802   84.5062 C   0  0  0  0  0  0  0  0  0  0  0  0
    4.7744   67.5680   84.3922 C   0  0  0  0  0  0  0  0  0  0  0  0
    4.3263   68.8037   83.9166 C   0  0  0  0  0  0  0  0  0  0  0  0
    2.9963   68.9735   83.5560 C   0  0  0  0  0  0  0  0  0  0  0  0
    2.1105   67.9050   83.6670 C   0  0  0  0  0  0  0  0  0  0  0  0
    2.5427   66.6532   84.1492 C   0  0  0  0  0  0  0  0  0  0  0  0
    1.4951   65.5767   84.2466 C   0  0  0  0  0  0  0  0  0  0  0  0
    1.1134   65.1359   85.4182 N   0  0  0  0  0  0  0  0  0  0  0  0
    0.1660   64.1665   85.3590 C   0  0  0  0  0  0  0  0  0  0  0  0
   -0.4097   63.6211   84.2390 C   0  0  0  0  0  0  0  0  0  0  0  0
   -1.3315   62.6648   84.7007 C   0  0  0  0  0  0  0  0  0  0  0  0
   -2.2185   61.7911   83.8968 C   0  0  0  0  0  0  0  0  0  0  0  0
   -1.3403   62.6080   86.0431 N   0  0  0  0  0  0  0  0  0  0  0  0
   -0.4226   63.5331   86.4176 N   0  0  0  0  0  0  0  0  0  0  0  0
    0.0076   64.0975   82.9550 C   0  0  0  0  0  0  0  0  0  0  0  0
   -0.4288   63.6924   81.8843 O   0  0  0  0  0  0  0  0  0  0  0  0
    0.9725   65.0820   83.0529 N   0  0  0  0  0  0  0  0  0  0  0  0
    1.3014   65.4560   82.1722 H   0  0  0  0  0  0  0  0  0  0  0  0
   -0.1598   63.7581   87.8239 C   0  0  0  0  0  0  0  0  0  0  0  0
   -0.2097   62.4715   88.6279 C   0  0  0  0  0  0  0  0  0  0  0  0
    2.5131   70.2237   83.0791 N   0  0  0  0  0  0  0  0  0  0  0  0
    2.8256   71.0671   83.5609 H   0  0  0  0  0  0  0  0  0  0  0  0
    2.3122   70.4712   81.4244 S   0  0  0  0  0  0  0  0  0  0  0  0
    2.5388   72.2329   81.2735 C   0  0  0  0  0  0  0  0  0  0  0  0
    3.3695   69.8056   80.6965 O   0  0  0  0  0  0  0  0  0  0  0  0
    0.9187   70.1887   81.1537 O   0  0  0  0  0  0  0  0  0  0  0  0
    4.2832   65.2503   84.9737 O   0  0  0  0  0  0  0  0  0  0  0  0
    5.3318   65.1574   85.9440 C   0  0  0  0  0  0  0  0  0  0  0  0
    5.6235   65.5121   88.4211 C   0  0  0  0  0  0  0  0  0  0  0  0
    4.7464   64.9194   87.3329 C   0  0  0  0  0  0  0  0  0  0  0  0
 29 30  1  0  0  0
 30 28  1  0  0  0
 28 27  1  0  0  0
 27  1  1  0  0  0
  1  2  1  0  0  0
  2  3  2  0  0  0
  3  4  1  0  0  0
  4 21  1  0  0  0
 21 23  1  0  0  0
 23 24  1  0  0  0
 23 25  2  0  0  0
 23 26  2  0  0  0
  4  5  2  0  0  0
  5  6  1  0  0  0
  6  7  1  0  0  0
  7  8  2  0  0  0
  8  9  1  0  0  0
  9 10  2  0  0  0
 10 11  1  0  0  0
 11 12  1  0  0  0
 11 13  2  0  0  0
 13 14  1  0  0  0
 14 19  1  0  0  0
 19 20  1  0  0  0
 10 15  1  0  0  0
 15 16  2  0  0  0
 15 17  1  0  0  0
  6  1  2  0  0  0
 17  7  1  0  0  0
 14  9  1  0  0  0
 21 22  1  0  0  0
 17 18  1  0  0  0
M  END
> <minimizedAffinity>
-8.61626

$$$$



 30 32  0  0  0  0  0  0  0  0999 V2000
   -0.7216   63.9985   82.6672 C   0  0  0  0  0  0  0  0  0  0  0  0
   -1.5201   62.9006   83.0131 C   0  0  0  0  0  0  0  0  0  0  0  0
   -1.4346   62.3219   84.2826 C   0  0  0  0  0  0  0  0  0  0  0  0
   -0.5570   62.8362   85.2278 C   0  0  0  0  0  0  0  0  0  0  0  0
    0.2412   63.9301   84.9036 C   0  0  0  0  0  0  0  0  0  0  0  0
    0.1651   64.5300   83.6305 C   0  0  0  0  0  0  0  0  0  0  0  0
    1.0587   65.7188   83.3976 C   0  0  0  0  0  0  0  0  0  0  0  0
    2.1391   65.8795   84.1184 N   0  0  0  0  0  0  0  0  0  0  0  0
    2.8495   66.9918   83.8040 C   0  0  0  0  0  0  0  0  0  0  0  0
    2.5611   67.9302   82.8450 C   0  0  0  0  0  0  0  0  0  0  0  0
    3.5969   68.8794   82.9043 C   0  0  0  0  0  0  0  0  0  0  0  0
    3.7647   70.0985   82.0785 C   0  0  0  0  0  0  0  0  0  0  0  0
    4.4953   68.5587   83.8506 N   0  0  0  0  0  0  0  0  0  0  0  0
    4.0179   67.4055   84.3802 N   0  0  0  0  0  0  0  0  0  0  0  0
    1.3782   67.7605   82.0567 C   0  0  0  0  0  0  0  0  0  0  0  0
    1.0123   68.5261   81.1728 O   0  0  0  0  0  0  0  0  0  0  0  0
    0.6797   66.6198   82.4039 N   0  0  0  0  0  0  0  0  0  0  0  0
   -0.1656   66.4506   81.8743 H   0  0  0  0  0  0  0  0  0  0  0  0
    4.7435   66.7490   85.4479 C   0  0  0  0  0  0  0  0  0  0  0  0
    5.4011   67.7433   86.3878 C   0  0  0  0  0  0  0  0  0  0  0  0
   -0.4586   62.2721   86.5300 N   0  0  0  0  0  0  0  0  0  0  0  0
    0.2619   61.5668   86.6873 H   0  0  0  0  0  0  0  0  0  0  0  0
   -0.7118   63.2394   87.8864 S   0  0  0  0  0  0  0  0  0  0  0  0
    0.1670   62.3499   89.1568 C   0  0  0  0  0  0  0  0  0  0  0  0
   -0.0763   64.5245   87.6984 O   0  0  0  0  0  0  0  0  0  0  0  0
   -2.1248   63.1347   88.1823 O   0  0  0  0  0  0  0  0  0  0  0  0
   -0.7711   64.6089   81.4408 O   0  0  0  0  0  0  0  0  0  0  0  0
   -0.2366   63.9388   80.2941 C   0  0  0  0  0  0  0  0  0  0  0  0
    1.2165   65.5032   78.9571 C   0  0  0  0  0  0  0  0  0  0  0  0
   -0.1668   64.8961   79.1080 C   0  0  0  0  0  0  0  0  0  0  0  0
 29 30  1  0  0  0
 30 28  1  0  0  0
 28 27  1  0  0  0
 27  1  1  0  0  0
  1  2  1  0  0  0
  2  3  2  0  0  0
  3  4  1  0  0  0
  4 21  1  0  0  0
 21 23  1  0  0  0
 23 24  1  0  0  0
 23 25  2  0  0  0
 23 26  2  0  0  0
  4  5  2  0  0  0
  5  6  1  0  0  0
  6  7  1  0  0  0
  7  8  2  0  0  0
  8  9  1  0  0  0
  9 10  2  0  0  0
 10 11  1  0  0  0
 11 12  1  0  0  0
 11 13  2  0  0  0
 13 14  1  0  0  0
 14 19  1  0  0  0
 19 20  1  0  0  0
 10 15  1  0  0  0
 15 16  2  0  0  0
 15 17  1  0  0  0
  6  1  2  0  0  0
 17  7  1  0  0  0
 14  9  1  0  0  0
 21 22  1  0  0  0
 17 18  1  0  0  0
M  END
> <minimizedAffinity>
-8.52249

$$$$



 30 32  0  0  0  0  0  0  0  0999 V2000
   -0.0440   63.6814   84.9902 C   0  0  0  0  0  0  0  0  0  0  0  0
   -0.7522   62.4740   85.0475 C   0  0  0  0  0  0  0  0  0  0  0  0
   -0.9869   61.7237   83.8918 C   0  0  0  0  0  0  0  0  0  0  0  0
   -0.5109   62.1635   82.6638 C   0  0  0  0  0  0  0  0  0  0  0  0
    0.1991   63.3589   82.5882 C   0  0  0  0  0  0  0  0  0  0  0  0
    0.4501   64.1263   83.7434 C   0  0  0  0  0  0  0  0  0  0  0  0
    1.2450   65.3894   83.5468 C   0  0  0  0  0  0  0  0  0  0  0  0
    2.3197   65.6068   84.2613 N   0  0  0  0  0  0  0  0  0  0  0  0
    2.9369   66.7824   83.9824 C   0  0  0  0  0  0  0  0  0  0  0  0
    2.5628   67.7310   83.0638 C   0  0  0  0  0  0  0  0  0  0  0  0
    3.5223   68.7555   83.1484 C   0  0  0  0  0  0  0  0  0  0  0  0
    3.5830   70.0143   82.3687 C   0  0  0  0  0  0  0  0  0  0  0  0
    4.4562   68.4705   84.0714 N   0  0  0  0  0  0  0  0  0  0  0  0
    4.0775   67.2643   84.5611 N   0  0  0  0  0  0  0  0  0  0  0  0
    1.3856   67.4992   82.2827 C   0  0  0  0  0  0  0  0  0  0  0  0
    0.9488   68.2666   81.4333 O   0  0  0  0  0  0  0  0  0  0  0  0
    0.7830   66.2949   82.5932 N   0  0  0  0  0  0  0  0  0  0  0  0
   -0.0540   66.0802   82.0667 H   0  0  0  0  0  0  0  0  0  0  0  0
    4.8670   66.6268   85.5944 C   0  0  0  0  0  0  0  0  0  0  0  0
    5.4875   67.6356   86.5440 C   0  0  0  0  0  0  0  0  0  0  0  0
   -0.7275   61.4132   81.4747 N   0  0  0  0  0  0  0  0  0  0  0  0
   -0.6481   60.3977   81.5346 H   0  0  0  0  0  0  0  0  0  0  0  0
   -1.9134   61.8973   80.3797 S   0  0  0  0  0  0  0  0  0  0  0  0
   -2.3735   60.3558   79.6120 C   0  0  0  0  0  0  0  0  0  0  0  0
   -3.0580   62.4174   81.0938 O   0  0  0  0  0  0  0  0  0  0  0  0
   -1.2245   62.6893   79.3831 O   0  0  0  0  0  0  0  0  0  0  0  0
    0.2213   64.4517   86.0927 O   0  0  0  0  0  0  0  0  0  0  0  0
    0.8978   63.8738   87.2143 C   0  0  0  0  0  0  0  0  0  0  0  0
    0.2318   62.3175   89.0800 C   0  0  0  0  0  0  0  0  0  0  0  0
   -0.0897   63.6073   88.3465 C   0  0  0  0  0  0  0  0  0  0  0  0
 29 30  1  0  0  0
 30 28  1  0  0  0
 28 27  1  0  0  0
 27  1  1  0  0  0
  1  2  1  0  0  0
  2  3  2  0  0  0
  3  4  1  0  0  0
  4 21  1  0  0  0
 21 23  1  0  0  0
 23 24  1  0  0  0
 23 25  2  0  0  0
 23 26  2  0  0  0
  4  5  2  0  0  0
  5  6  1  0  0  0
  6  7  1  0  0  0
  7  8  2  0  0  0
  8  9  1  0  0  0
  9 10  2  0  0  0
 10 11  1  0  0  0
 11 12  1  0  0  0
 11 13  2  0  0  0
 13 14  1  0  0  0
 14 19  1  0  0  0
 19 20  1  0  0  0
 10 15  1  0  0  0
 15 16  2  0  0  0
 15 17  1  0  0  0
  6  1  2  0  0  0
 17  7  1  0  0  0
 14  9  1  0  0  0
 21 22  1  0  0  0
 17 18  1  0  0  0
M  END
> <minimizedAffinity>
-8.51779

$$$$
