


 40 43  0  0  0  0  0  0  0  0999 V2000
    3.1513   66.7796   84.2906 C   0  0  0  0  0  0  0  0  0  0  0  0
    3.9585   67.9216   84.4029 C   0  0  0  0  0  0  0  0  0  0  0  0
    3.6122   69.1077   83.7505 C   0  0  0  0  0  0  0  0  0  0  0  0
    2.4503   69.1607   82.9824 C   0  0  0  0  0  0  0  0  0  0  0  0
    1.6551   68.0240   82.8324 C   0  0  0  0  0  0  0  0  0  0  0  0
    1.9814   66.8269   83.4946 C   0  0  0  0  0  0  0  0  0  0  0  0
    1.0684   65.6856   83.3204 C   0  0  0  0  0  0  0  0  0  0  0  0
    0.4668   65.3319   82.1933 N   0  0  0  0  0  0  0  0  0  0  0  0
   -0.2786   64.2177   82.4984 C   0  0  0  0  0  0  0  0  0  0  0  0
   -1.1396   63.4349   81.6427 C   0  0  0  0  0  0  0  0  0  0  0  0
   -1.3436   63.7151   80.4640 O   0  0  0  0  0  0  0  0  0  0  0  0
   -1.7263   62.3428   82.3058 N   0  0  0  0  0  0  0  0  0  0  0  0
   -2.6189   61.5057   81.5289 C   0  0  0  0  0  0  0  0  0  0  0  0
   -1.6207   62.0395   83.6795 C   0  0  0  0  0  0  0  0  0  0  0  0
   -2.2776   61.1246   84.1848 O   0  0  0  0  0  0  0  0  0  0  0  0
   -0.7429   62.8257   84.4531 N   0  0  0  0  0  0  0  0  0  0  0  0
   -0.1313   63.8838   83.8140 C   0  0  0  0  0  0  0  0  0  0  0  0
    0.7119   64.8170   84.3324 N   0  0  0  0  0  0  0  0  0  0  0  0
    1.0388   64.9016   85.2843 H   0  0  0  0  0  0  0  0  0  0  0  0
   -0.5783   62.5211   85.8763 C   0  0  0  0  0  0  0  0  0  0  0  0
   -1.3326   63.4544   86.8486 C   0  0  0  0  0  0  0  0  0  0  0  0
   -0.5380   63.7676   88.1159 C   0  0  0  0  0  0  0  0  0  0  0  0
   -2.7250   62.9412   87.2142 C   0  0  0  0  0  0  0  0  0  0  0  0
    2.0244   70.6595   82.1186 S   0  0  0  0  0  0  0  0  0  0  0  0
    1.6013   71.6279   83.1063 O   0  0  0  0  0  0  0  0  0  0  0  0
    1.1559   70.2850   81.0213 O   0  0  0  0  0  0  0  0  0  0  0  0
    3.4941   71.1703   81.4621 N   0  0  0  0  0  0  0  0  0  0  0  0
    3.9087   72.5831   81.6656 C   0  0  0  0  0  0  0  0  0  0  0  0
    4.0717   73.3314   80.3277 C   0  0  0  0  0  0  0  0  0  0  0  0
    4.9965   72.7065   79.3570 N   0  0  0  0  0  0  0  0  0  0  0  0
    5.1872   71.2661   79.6440 C   0  0  0  0  0  0  0  0  0  0  0  0
    3.9065   70.5841   80.1580 C   0  0  0  0  0  0  0  0  0  0  0  0
    6.2958   73.3882   79.2740 C   0  0  0  0  0  0  0  0  0  0  0  0
    7.4723   72.5147   79.7372 C   0  0  0  0  0  0  0  0  0  0  0  0
    8.2571   72.1094   78.6180 O   0  0  0  0  0  0  0  0  0  0  0  0
    8.6873   72.9074   78.2647 H   0  0  0  0  0  0  0  0  0  0  0  0
    3.4340   65.5859   84.9123 O   0  0  0  0  0  0  0  0  0  0  0  0
    4.7461   65.4019   85.4486 C   0  0  0  0  0  0  0  0  0  0  0  0
    5.6614   65.5981   87.8031 C   0  0  0  0  0  0  0  0  0  0  0  0
    4.6185   64.9510   86.9026 C   0  0  0  0  0  0  0  0  0  0  0  0
 39 40  1  0  0  0
 40 38  1  0  0  0
 38 37  1  0  0  0
 37  1  1  0  0  0
  1  2  1  0  0  0
  2  3  2  0  0  0
  3  4  1  0  0  0
  4 24  1  0  0  0
 24 25  2  0  0  0
 24 26  2  0  0  0
 24 27  1  0  0  0
 27 28  1  0  0  0
 28 29  1  0  0  0
 29 30  1  0  0  0
 30 33  1  0  0  0
 33 34  1  0  0  0
 34 35  1  0  0  0
 30 31  1  0  0  0
 31 32  1  0  0  0
  4  5  2  0  0  0
  5  6  1  0  0  0
  6  7  1  0  0  0
  7  8  2  0  0  0
  8  9  1  0  0  0
  9 10  1  0  0  0
 10 11  2  0  0  0
 10 12  1  0  0  0
 12 13  1  0  0  0
 12 14  1  0  0  0
 14 15  2  0  0  0
 14 16  1  0  0  0
 16 20  1  0  0  0
 20 21  1  0  0  0
 21 22  1  0  0  0
 21 23  1  0  0  0
 16 17  1  0  0  0
 17 18  1  0  0  0
  6  1  2  0  0  0
 18  7  1  0  0  0
 32 27  1  0  0  0
 17  9  2  0  0  0
 35 36  1  0  0  0
 18 19  1  0  0  0
M  END
> <minimizedAffinity>
-9.72178

$$$$



 40 43  0  0  0  0  0  0  0  0999 V2000
    3.3501   66.9054   84.2327 C   0  0  0  0  0  0  0  0  0  0  0  0
    4.1766   68.0214   84.0333 C   0  0  0  0  0  0  0  0  0  0  0  0
    3.8160   69.0247   83.1301 C   0  0  0  0  0  0  0  0  0  0  0  0
    2.6206   68.9200   82.4211 C   0  0  0  0  0  0  0  0  0  0  0  0
    1.8044   67.7998   82.5820 C   0  0  0  0  0  0  0  0  0  0  0  0
    2.1452   66.7886   83.4983 C   0  0  0  0  0  0  0  0  0  0  0  0
    1.2102   65.6609   83.6417 C   0  0  0  0  0  0  0  0  0  0  0  0
    0.7086   64.9320   82.6546 N   0  0  0  0  0  0  0  0  0  0  0  0
   -0.1056   63.9992   83.2520 C   0  0  0  0  0  0  0  0  0  0  0  0
   -0.9083   62.9654   82.6409 C   0  0  0  0  0  0  0  0  0  0  0  0
   -0.9850   62.8105   81.4246 O   0  0  0  0  0  0  0  0  0  0  0  0
   -1.5990   62.1798   83.5802 N   0  0  0  0  0  0  0  0  0  0  0  0
   -2.4430   61.1232   83.0583 C   0  0  0  0  0  0  0  0  0  0  0  0
   -1.6403   62.3823   84.9758 C   0  0  0  0  0  0  0  0  0  0  0  0
   -2.3784   61.7066   85.6985 O   0  0  0  0  0  0  0  0  0  0  0  0
   -0.8127   63.3901   85.5110 N   0  0  0  0  0  0  0  0  0  0  0  0
   -0.1009   64.1525   84.6086 C   0  0  0  0  0  0  0  0  0  0  0  0
    0.7229   65.2075   84.8512 N   0  0  0  0  0  0  0  0  0  0  0  0
    0.9581   65.6231   85.7411 H   0  0  0  0  0  0  0  0  0  0  0  0
   -0.8002   63.6089   86.9592 C   0  0  0  0  0  0  0  0  0  0  0  0
    0.3275   62.8898   87.7316 C   0  0  0  0  0  0  0  0  0  0  0  0
   -0.1123   62.3917   89.1079 C   0  0  0  0  0  0  0  0  0  0  0  0
    1.5984   63.7293   87.8574 C   0  0  0  0  0  0  0  0  0  0  0  0
    2.1748   70.1780   81.2410 S   0  0  0  0  0  0  0  0  0  0  0  0
    0.7320   70.2804   81.2354 O   0  0  0  0  0  0  0  0  0  0  0  0
    2.9075   69.8966   80.0233 O   0  0  0  0  0  0  0  0  0  0  0  0
    2.8102   71.5925   81.9101 N   0  0  0  0  0  0  0  0  0  0  0  0
    2.0270   72.2937   82.9608 C   0  0  0  0  0  0  0  0  0  0  0  0
    1.6488   73.7261   82.5342 C   0  0  0  0  0  0  0  0  0  0  0  0
    2.7803   74.5919   82.1365 N   0  0  0  0  0  0  0  0  0  0  0  0
    3.9628   73.7894   81.7476 C   0  0  0  0  0  0  0  0  0  0  0  0
    3.5881   72.4895   81.0131 C   0  0  0  0  0  0  0  0  0  0  0  0
    3.1455   75.5761   83.1649 C   0  0  0  0  0  0  0  0  0  0  0  0
    4.5350   75.3327   83.7745 C   0  0  0  0  0  0  0  0  0  0  0  0
    4.5401   75.6960   85.1532 O   0  0  0  0  0  0  0  0  0  0  0  0
    3.9691   75.0611   85.6196 H   0  0  0  0  0  0  0  0  0  0  0  0
    3.6455   65.8888   85.1106 O   0  0  0  0  0  0  0  0  0  0  0  0
    5.0088   65.7156   85.5036 C   0  0  0  0  0  0  0  0  0  0  0  0
    5.5288   65.5741   87.9794 C   0  0  0  0  0  0  0  0  0  0  0  0
    5.0481   64.8252   86.7443 C   0  0  0  0  0  0  0  0  0  0  0  0
 39 40  1  0  0  0
 40 38  1  0  0  0
 38 37  1  0  0  0
 37  1  1  0  0  0
  1  2  1  0  0  0
  2  3  2  0  0  0
  3  4  1  0  0  0
  4 24  1  0  0  0
 24 25  2  0  0  0
 24 26  2  0  0  0
 24 27  1  0  0  0
 27 28  1  0  0  0
 28 29  1  0  0  0
 29 30  1  0  0  0
 30 33  1  0  0  0
 33 34  1  0  0  0
 34 35  1  0  0  0
 30 31  1  0  0  0
 31 32  1  0  0  0
  4  5  2  0  0  0
  5  6  1  0  0  0
  6  7  1  0  0  0
  7  8  2  0  0  0
  8  9  1  0  0  0
  9 10  1  0  0  0
 10 11  2  0  0  0
 10 12  1  0  0  0
 12 13  1  0  0  0
 12 14  1  0  0  0
 14 15  2  0  0  0
 14 16  1  0  0  0
 16 20  1  0  0  0
 20 21  1  0  0  0
 21 22  1  0  0  0
 21 23  1  0  0  0
 16 17  1  0  0  0
 17 18  1  0  0  0
  6  1  2  0  0  0
 18  7  1  0  0  0
 32 27  1  0  0  0
 17  9  2  0  0  0
 35 36  1  0  0  0
 18 19  1  0  0  0
M  END
> <minimizedAffinity>
-9.70625

$$$$



 40 43  0  0  0  0  0  0  0  0999 V2000
    0.9465   65.5356   81.0857 C   0  0  0  0  0  0  0  0  0  0  0  0
    1.3931   66.3849   80.0621 C   0  0  0  0  0  0  0  0  0  0  0  0
    1.9893   67.6124   80.3620 C   0  0  0  0  0  0  0  0  0  0  0  0
    2.1471   67.9980   81.6921 C   0  0  0  0  0  0  0  0  0  0  0  0
    1.6771   67.1808   82.7208 C   0  0  0  0  0  0  0  0  0  0  0  0
    1.0885   65.9354   82.4365 C   0  0  0  0  0  0  0  0  0  0  0  0
    0.6580   65.1128   83.5786 C   0  0  0  0  0  0  0  0  0  0  0  0
    1.2544   65.0447   84.7606 N   0  0  0  0  0  0  0  0  0  0  0  0
    0.5094   64.1632   85.5076 C   0  0  0  0  0  0  0  0  0  0  0  0
    0.7204   63.7127   86.8637 C   0  0  0  0  0  0  0  0  0  0  0  0
    1.6792   64.0687   87.5443 O   0  0  0  0  0  0  0  0  0  0  0  0
   -0.2697   62.8173   87.3047 N   0  0  0  0  0  0  0  0  0  0  0  0
   -0.1337   62.2999   88.6519 C   0  0  0  0  0  0  0  0  0  0  0  0
   -1.3246   62.2858   86.5334 C   0  0  0  0  0  0  0  0  0  0  0  0
   -2.0683   61.4097   86.9845 O   0  0  0  0  0  0  0  0  0  0  0  0
   -1.4914   62.7877   85.2268 N   0  0  0  0  0  0  0  0  0  0  0  0
   -0.5488   63.6924   84.7848 C   0  0  0  0  0  0  0  0  0  0  0  0
   -0.4474   64.2860   83.5651 N   0  0  0  0  0  0  0  0  0  0  0  0
   -1.0473   64.1661   82.7615 H   0  0  0  0  0  0  0  0  0  0  0  0
   -2.5961   62.2870   84.4056 C   0  0  0  0  0  0  0  0  0  0  0  0
   -2.2059   61.7887   82.9968 C   0  0  0  0  0  0  0  0  0  0  0  0
   -2.6704   62.7236   81.8806 C   0  0  0  0  0  0  0  0  0  0  0  0
   -2.6721   60.3607   82.7150 C   0  0  0  0  0  0  0  0  0  0  0  0
    2.8727   69.5786   82.0784 S   0  0  0  0  0  0  0  0  0  0  0  0
    4.1184   69.6773   81.3500 O   0  0  0  0  0  0  0  0  0  0  0  0
    2.8380   69.7208   83.5198 O   0  0  0  0  0  0  0  0  0  0  0  0
    1.7797   70.6874   81.4243 N   0  0  0  0  0  0  0  0  0  0  0  0
    2.2540   72.0671   81.1401 C   0  0  0  0  0  0  0  0  0  0  0  0
    1.4684   73.1209   81.9456 C   0  0  0  0  0  0  0  0  0  0  0  0
   -0.0007   73.0862   81.7771 N   0  0  0  0  0  0  0  0  0  0  0  0
   -0.4560   71.7658   81.2843 C   0  0  0  0  0  0  0  0  0  0  0  0
    0.3609   70.5969   81.8639 C   0  0  0  0  0  0  0  0  0  0  0  0
   -0.5097   74.1590   80.9112 C   0  0  0  0  0  0  0  0  0  0  0  0
   -0.2412   75.5672   81.4648 C   0  0  0  0  0  0  0  0  0  0  0  0
   -0.6591   75.6510   82.8254 O   0  0  0  0  0  0  0  0  0  0  0  0
   -0.0642   75.0819   83.3441 H   0  0  0  0  0  0  0  0  0  0  0  0
    0.3582   64.3139   80.8562 O   0  0  0  0  0  0  0  0  0  0  0  0
    0.0902   63.9410   79.5026 C   0  0  0  0  0  0  0  0  0  0  0  0
    0.6860   61.7727   80.6702 C   0  0  0  0  0  0  0  0  0  0  0  0
    0.3851   62.4509   79.3410 C   0  0  0  0  0  0  0  0  0  0  0  0
 39 40  1  0  0  0
 40 38  1  0  0  0
 38 37  1  0  0  0
 37  1  1  0  0  0
  1  2  1  0  0  0
  2  3  2  0  0  0
  3  4  1  0  0  0
  4 24  1  0  0  0
 24 25  2  0  0  0
 24 26  2  0  0  0
 24 27  1  0  0  0
 27 28  1  0  0  0
 28 29  1  0  0  0
 29 30  1  0  0  0
 30 33  1  0  0  0
 33 34  1  0  0  0
 34 35  1  0  0  0
 30 31  1  0  0  0
 31 32  1  0  0  0
  4  5  2  0  0  0
  5  6  1  0  0  0
  6  7  1  0  0  0
  7  8  2  0  0  0
  8  9  1  0  0  0
  9 10  1  0  0  0
 10 11  2  0  0  0
 10 12  1  0  0  0
 12 13  1  0  0  0
 12 14  1  0  0  0
 14 15  2  0  0  0
 14 16  1  0  0  0
 16 20  1  0  0  0
 20 21  1  0  0  0
 21 22  1  0  0  0
 21 23  1  0  0  0
 16 17  1  0  0  0
 17 18  1  0  0  0
  6  1  2  0  0  0
 18  7  1  0  0  0
 32 27  1  0  0  0
 17  9  2  0  0  0
 35 36  1  0  0  0
 18 19  1  0  0  0
M  END
> <minimizedAffinity>
-9.44928

$$$$



 40 43  0  0  0  0  0  0  0  0999 V2000
    0.8900   65.6365   81.3768 C   0  0  0  0  0  0  0  0  0  0  0  0
    1.3810   66.5044   80.3898 C   0  0  0  0  0  0  0  0  0  0  0  0
    2.1345   67.6285   80.7380 C   0  0  0  0  0  0  0  0  0  0  0  0
    2.4061   67.8904   82.0798 C   0  0  0  0  0  0  0  0  0  0  0  0
    1.8959   67.0565   83.0754 C   0  0  0  0  0  0  0  0  0  0  0  0
    1.1489   65.9128   82.7411 C   0  0  0  0  0  0  0  0  0  0  0  0
    0.6832   65.0604   83.8470 C   0  0  0  0  0  0  0  0  0  0  0  0
    1.2552   64.9437   85.0372 N   0  0  0  0  0  0  0  0  0  0  0  0
    0.4819   64.0506   85.7403 C   0  0  0  0  0  0  0  0  0  0  0  0
    0.6591   63.5524   87.0844 C   0  0  0  0  0  0  0  0  0  0  0  0
    1.6100   63.8700   87.7946 O   0  0  0  0  0  0  0  0  0  0  0  0
   -0.3535   62.6595   87.4767 N   0  0  0  0  0  0  0  0  0  0  0  0
   -0.2520   62.0961   88.8083 C   0  0  0  0  0  0  0  0  0  0  0  0
   -1.4014   62.1710   86.6683 C   0  0  0  0  0  0  0  0  0  0  0  0
   -2.1675   61.2930   87.0759 O   0  0  0  0  0  0  0  0  0  0  0  0
   -1.5346   62.7181   85.3761 N   0  0  0  0  0  0  0  0  0  0  0  0
   -0.5694   63.6212   84.9823 C   0  0  0  0  0  0  0  0  0  0  0  0
   -0.4347   64.2528   83.7851 N   0  0  0  0  0  0  0  0  0  0  0  0
   -1.0207   64.1691   82.9666 H   0  0  0  0  0  0  0  0  0  0  0  0
   -2.6308   62.2630   84.5179 C   0  0  0  0  0  0  0  0  0  0  0  0
   -2.2321   61.8773   83.0766 C   0  0  0  0  0  0  0  0  0  0  0  0
   -2.7669   62.8503   82.0263 C   0  0  0  0  0  0  0  0  0  0  0  0
   -2.6172   60.4443   82.7105 C   0  0  0  0  0  0  0  0  0  0  0  0
    3.3344   69.3425   82.5308 S   0  0  0  0  0  0  0  0  0  0  0  0
    2.3915   70.3392   82.9889 O   0  0  0  0  0  0  0  0  0  0  0  0
    4.2432   69.6220   81.4377 O   0  0  0  0  0  0  0  0  0  0  0  0
    4.2564   68.8302   83.8497 N   0  0  0  0  0  0  0  0  0  0  0  0
    5.3851   67.8946   83.6050 C   0  0  0  0  0  0  0  0  0  0  0  0
    5.1977   66.5611   84.3556 C   0  0  0  0  0  0  0  0  0  0  0  0
    4.9917   66.6756   85.8158 N   0  0  0  0  0  0  0  0  0  0  0  0
    4.5105   68.0258   86.1884 C   0  0  0  0  0  0  0  0  0  0  0  0
    3.5523   68.6283   85.1451 C   0  0  0  0  0  0  0  0  0  0  0  0
    6.1849   66.3236   86.5981 C   0  0  0  0  0  0  0  0  0  0  0  0
    5.8942   65.3403   87.7428 C   0  0  0  0  0  0  0  0  0  0  0  0
    4.5519   64.8670   87.6585 O   0  0  0  0  0  0  0  0  0  0  0  0
    4.4916   64.3151   86.8594 H   0  0  0  0  0  0  0  0  0  0  0  0
    0.1489   64.5120   81.0985 O   0  0  0  0  0  0  0  0  0  0  0  0
    0.0175   64.1151   79.7317 C   0  0  0  0  0  0  0  0  0  0  0  0
    0.6673   61.9987   80.9640 C   0  0  0  0  0  0  0  0  0  0  0  0
    0.2077   62.6019   79.6440 C   0  0  0  0  0  0  0  0  0  0  0  0
 39 40  1  0  0  0
 40 38  1  0  0  0
 38 37  1  0  0  0
 37  1  1  0  0  0
  1  2  1  0  0  0
  2  3  2  0  0  0
  3  4  1  0  0  0
  4 24  1  0  0  0
 24 25  2  0  0  0
 24 26  2  0  0  0
 24 27  1  0  0  0
 27 28  1  0  0  0
 28 29  1  0  0  0
 29 30  1  0  0  0
 30 33  1  0  0  0
 33 34  1  0  0  0
 34 35  1  0  0  0
 30 31  1  0  0  0
 31 32  1  0  0  0
  4  5  2  0  0  0
  5  6  1  0  0  0
  6  7  1  0  0  0
  7  8  2  0  0  0
  8  9  1  0  0  0
  9 10  1  0  0  0
 10 11  2  0  0  0
 10 12  1  0  0  0
 12 13  1  0  0  0
 12 14  1  0  0  0
 14 15  2  0  0  0
 14 16  1  0  0  0
 16 20  1  0  0  0
 20 21  1  0  0  0
 21 22  1  0  0  0
 21 23  1  0  0  0
 16 17  1  0  0  0
 17 18  1  0  0  0
  6  1  2  0  0  0
 18  7  1  0  0  0
 32 27  1  0  0  0
 17  9  2  0  0  0
 35 36  1  0  0  0
 18 19  1  0  0  0
M  END
> <minimizedAffinity>
-9.37093

$$$$



 40 43  0  0  0  0  0  0  0  0999 V2000
    3.8421   67.1265   84.1126 C   0  0  0  0  0  0  0  0  0  0  0  0
    4.6110   68.2069   83.6542 C   0  0  0  0  0  0  0  0  0  0  0  0
    4.0259   69.2351   82.9107 C   0  0  0  0  0  0  0  0  0  0  0  0
    2.6627   69.1914   82.6233 C   0  0  0  0  0  0  0  0  0  0  0  0
    1.8911   68.1068   83.0419 C   0  0  0  0  0  0  0  0  0  0  0  0
    2.4613   67.0715   83.8042 C   0  0  0  0  0  0  0  0  0  0  0  0
    1.5714   65.9849   84.2445 C   0  0  0  0  0  0  0  0  0  0  0  0
    1.2883   65.6678   85.5002 N   0  0  0  0  0  0  0  0  0  0  0  0
    0.4216   64.6028   85.4329 C   0  0  0  0  0  0  0  0  0  0  0  0
   -0.1898   63.8561   86.5076 C   0  0  0  0  0  0  0  0  0  0  0  0
    0.0365   64.0850   87.6933 O   0  0  0  0  0  0  0  0  0  0  0  0
   -1.0457   62.8384   86.0512 N   0  0  0  0  0  0  0  0  0  0  0  0
   -1.6954   62.0256   87.0602 C   0  0  0  0  0  0  0  0  0  0  0  0
   -1.2544   62.4560   84.7094 C   0  0  0  0  0  0  0  0  0  0  0  0
   -1.9345   61.4659   84.4249 O   0  0  0  0  0  0  0  0  0  0  0  0
   -0.6505   63.2430   83.7078 N   0  0  0  0  0  0  0  0  0  0  0  0
    0.1684   64.2678   84.1338 C   0  0  0  0  0  0  0  0  0  0  0  0
    0.9023   65.1355   83.3862 N   0  0  0  0  0  0  0  0  0  0  0  0
    0.9795   65.1808   82.3802 H   0  0  0  0  0  0  0  0  0  0  0  0
   -0.8710   62.9001   82.3011 C   0  0  0  0  0  0  0  0  0  0  0  0
    0.3773   62.4192   81.5292 C   0  0  0  0  0  0  0  0  0  0  0  0
    0.0937   62.1215   80.0572 C   0  0  0  0  0  0  0  0  0  0  0  0
    1.0640   61.2218   82.1852 C   0  0  0  0  0  0  0  0  0  0  0  0
    1.9199   70.4810   81.6440 S   0  0  0  0  0  0  0  0  0  0  0  0
    0.5426   70.6119   82.0661 O   0  0  0  0  0  0  0  0  0  0  0  0
    2.2535   70.2091   80.2606 O   0  0  0  0  0  0  0  0  0  0  0  0
    2.7590   71.8692   82.1138 N   0  0  0  0  0  0  0  0  0  0  0  0
    2.1174   72.7894   83.0888 C   0  0  0  0  0  0  0  0  0  0  0  0
    1.9080   74.1972   82.4965 C   0  0  0  0  0  0  0  0  0  0  0  0
    3.1230   74.8514   81.9638 N   0  0  0  0  0  0  0  0  0  0  0  0
    4.1754   73.8584   81.6473 C   0  0  0  0  0  0  0  0  0  0  0  0
    3.6064   72.5405   81.0913 C   0  0  0  0  0  0  0  0  0  0  0  0
    3.6547   75.8954   82.8510 C   0  0  0  0  0  0  0  0  0  0  0  0
    4.9118   75.4591   83.6196 C   0  0  0  0  0  0  0  0  0  0  0  0
    4.6904   75.5568   85.0247 O   0  0  0  0  0  0  0  0  0  0  0  0
    4.0305   74.8813   85.2592 H   0  0  0  0  0  0  0  0  0  0  0  0
    4.3569   66.0882   84.8530 O   0  0  0  0  0  0  0  0  0  0  0  0
    5.1135   66.4077   86.0229 C   0  0  0  0  0  0  0  0  0  0  0  0
    5.5672   65.4857   88.3389 C   0  0  0  0  0  0  0  0  0  0  0  0
    5.2109   65.1578   86.8957 C   0  0  0  0  0  0  0  0  0  0  0  0
 39 40  1  0  0  0
 40 38  1  0  0  0
 38 37  1  0  0  0
 37  1  1  0  0  0
  1  2  1  0  0  0
  2  3  2  0  0  0
  3  4  1  0  0  0
  4 24  1  0  0  0
 24 25  2  0  0  0
 24 26  2  0  0  0
 24 27  1  0  0  0
 27 28  1  0  0  0
 28 29  1  0  0  0
 29 30  1  0  0  0
 30 33  1  0  0  0
 33 34  1  0  0  0
 34 35  1  0  0  0
 30 31  1  0  0  0
 31 32  1  0  0  0
  4  5  2  0  0  0
  5  6  1  0  0  0
  6  7  1  0  0  0
  7  8  2  0  0  0
  8  9  1  0  0  0
  9 10  1  0  0  0
 10 11  2  0  0  0
 10 12  1  0  0  0
 12 13  1  0  0  0
 12 14  1  0  0  0
 14 15  2  0  0  0
 14 16  1  0  0  0
 16 20  1  0  0  0
 20 21  1  0  0  0
 21 22  1  0  0  0
 21 23  1  0  0  0
 16 17  1  0  0  0
 17 18  1  0  0  0
  6  1  2  0  0  0
 18  7  1  0  0  0
 32 27  1  0  0  0
 17  9  2  0  0  0
 35 36  1  0  0  0
 18 19  1  0  0  0
M  END
> <minimizedAffinity>
-9.31982

$$$$



 40 43  0  0  0  0  0  0  0  0999 V2000
   -0.4519   63.6133   85.4268 C   0  0  0  0  0  0  0  0  0  0  0  0
   -1.2825   62.5062   85.6565 C   0  0  0  0  0  0  0  0  0  0  0  0
   -1.7984   61.7668   84.5890 C   0  0  0  0  0  0  0  0  0  0  0  0
   -1.4825   62.1288   83.2805 C   0  0  0  0  0  0  0  0  0  0  0  0
   -0.6862   63.2477   83.0341 C   0  0  0  0  0  0  0  0  0  0  0  0
   -0.1466   63.9934   84.0975 C   0  0  0  0  0  0  0  0  0  0  0  0
    0.7191   65.1335   83.7551 C   0  0  0  0  0  0  0  0  0  0  0  0
    0.5493   65.9645   82.7362 N   0  0  0  0  0  0  0  0  0  0  0  0
    1.5849   66.8657   82.8093 C   0  0  0  0  0  0  0  0  0  0  0  0
    1.8899   67.9761   81.9372 C   0  0  0  0  0  0  0  0  0  0  0  0
    1.2267   68.2425   80.9380 O   0  0  0  0  0  0  0  0  0  0  0  0
    3.0274   68.6959   82.3428 N   0  0  0  0  0  0  0  0  0  0  0  0
    3.4195   69.8223   81.5190 C   0  0  0  0  0  0  0  0  0  0  0  0
    3.8910   68.3698   83.4096 C   0  0  0  0  0  0  0  0  0  0  0  0
    4.9336   69.0014   83.6044 O   0  0  0  0  0  0  0  0  0  0  0  0
    3.5213   67.2913   84.2387 N   0  0  0  0  0  0  0  0  0  0  0  0
    2.3897   66.5906   83.8772 C   0  0  0  0  0  0  0  0  0  0  0  0
    1.8464   65.4917   84.4668 N   0  0  0  0  0  0  0  0  0  0  0  0
    2.1799   64.9900   85.2775 H   0  0  0  0  0  0  0  0  0  0  0  0
    4.3730   66.9426   85.3781 C   0  0  0  0  0  0  0  0  0  0  0  0
    5.2681   65.6990   85.1844 C   0  0  0  0  0  0  0  0  0  0  0  0
    5.4189   64.8653   86.4564 C   0  0  0  0  0  0  0  0  0  0  0  0
    6.6438   66.0335   84.6087 C   0  0  0  0  0  0  0  0  0  0  0  0
   -2.1680   61.2119   81.9155 S   0  0  0  0  0  0  0  0  0  0  0  0
   -3.5997   61.4180   81.9257 O   0  0  0  0  0  0  0  0  0  0  0  0
   -1.6059   59.8780   81.9749 O   0  0  0  0  0  0  0  0  0  0  0  0
   -1.5251   61.9825   80.5572 N   0  0  0  0  0  0  0  0  0  0  0  0
   -2.4629   62.5799   79.5708 C   0  0  0  0  0  0  0  0  0  0  0  0
   -2.3111   61.9415   78.1758 C   0  0  0  0  0  0  0  0  0  0  0  0
   -0.9469   61.9744   77.6053 N   0  0  0  0  0  0  0  0  0  0  0  0
    0.0758   62.1486   78.6624 C   0  0  0  0  0  0  0  0  0  0  0  0
   -0.2822   61.4152   79.9676 C   0  0  0  0  0  0  0  0  0  0  0  0
   -0.7810   62.9937   76.5598 C   0  0  0  0  0  0  0  0  0  0  0  0
   -0.3861   64.3727   77.1111 C   0  0  0  0  0  0  0  0  0  0  0  0
   -1.2441   65.3806   76.5813 O   0  0  0  0  0  0  0  0  0  0  0  0
   -2.1301   65.2284   76.9536 H   0  0  0  0  0  0  0  0  0  0  0  0
    0.0916   64.3766   86.4334 O   0  0  0  0  0  0  0  0  0  0  0  0
    0.8918   63.7187   87.4182 C   0  0  0  0  0  0  0  0  0  0  0  0
    0.2823   62.1074   89.2762 C   0  0  0  0  0  0  0  0  0  0  0  0
    0.0347   63.4769   88.6593 C   0  0  0  0  0  0  0  0  0  0  0  0
 39 40  1  0  0  0
 40 38  1  0  0  0
 38 37  1  0  0  0
 37  1  1  0  0  0
  1  2  1  0  0  0
  2  3  2  0  0  0
  3  4  1  0  0  0
  4 24  1  0  0  0
 24 25  2  0  0  0
 24 26  2  0  0  0
 24 27  1  0  0  0
 27 28  1  0  0  0
 28 29  1  0  0  0
 29 30  1  0  0  0
 30 33  1  0  0  0
 33 34  1  0  0  0
 34 35  1  0  0  0
 30 31  1  0  0  0
 31 32  1  0  0  0
  4  5  2  0  0  0
  5  6  1  0  0  0
  6  7  1  0  0  0
  7  8  2  0  0  0
  8  9  1  0  0  0
  9 10  1  0  0  0
 10 11  2  0  0  0
 10 12  1  0  0  0
 12 13  1  0  0  0
 12 14  1  0  0  0
 14 15  2  0  0  0
 14 16  1  0  0  0
 16 20  1  0  0  0
 20 21  1  0  0  0
 21 22  1  0  0  0
 21 23  1  0  0  0
 16 17  1  0  0  0
 17 18  1  0  0  0
  6  1  2  0  0  0
 18  7  1  0  0  0
 32 27  1  0  0  0
 17  9  2  0  0  0
 35 36  1  0  0  0
 18 19  1  0  0  0
M  END
> <minimizedAffinity>
-9.26777

$$$$



 40 43  0  0  0  0  0  0  0  0999 V2000
    3.5264   66.6321   84.6900 C   0  0  0  0  0  0  0  0  0  0  0  0
    4.3834   67.6289   84.1997 C   0  0  0  0  0  0  0  0  0  0  0  0
    3.9580   68.5086   83.2010 C   0  0  0  0  0  0  0  0  0  0  0  0
    2.6668   68.3993   82.6873 C   0  0  0  0  0  0  0  0  0  0  0  0
    1.8141   67.3916   83.1392 C   0  0  0  0  0  0  0  0  0  0  0  0
    2.2215   66.5079   84.1547 C   0  0  0  0  0  0  0  0  0  0  0  0
    1.2484   65.5005   84.6069 C   0  0  0  0  0  0  0  0  0  0  0  0
    0.9985   65.1658   85.8651 N   0  0  0  0  0  0  0  0  0  0  0  0
    0.0249   64.1967   85.8103 C   0  0  0  0  0  0  0  0  0  0  0  0
   -0.6044   63.4749   86.8917 C   0  0  0  0  0  0  0  0  0  0  0  0
   -0.2957   63.6344   88.0701 O   0  0  0  0  0  0  0  0  0  0  0  0
   -1.5822   62.5667   86.4494 N   0  0  0  0  0  0  0  0  0  0  0  0
   -2.2596   61.7854   87.4651 C   0  0  0  0  0  0  0  0  0  0  0  0
   -1.8969   62.2587   85.1091 C   0  0  0  0  0  0  0  0  0  0  0  0
   -2.6885   61.3536   84.8298 O   0  0  0  0  0  0  0  0  0  0  0  0
   -1.2672   63.0185   84.1025 N   0  0  0  0  0  0  0  0  0  0  0  0
   -0.3270   63.9387   84.5166 C   0  0  0  0  0  0  0  0  0  0  0  0
    0.4531   64.7560   83.7590 N   0  0  0  0  0  0  0  0  0  0  0  0
    0.4832   64.8317   82.7523 H   0  0  0  0  0  0  0  0  0  0  0  0
   -1.5930   62.7535   82.6993 C   0  0  0  0  0  0  0  0  0  0  0  0
   -0.8920   61.5281   82.0729 C   0  0  0  0  0  0  0  0  0  0  0  0
    0.4315   61.8776   81.3932 C   0  0  0  0  0  0  0  0  0  0  0  0
   -1.7889   60.7511   81.1098 C   0  0  0  0  0  0  0  0  0  0  0  0
    2.1326   69.4945   81.3876 S   0  0  0  0  0  0  0  0  0  0  0  0
    3.3013   70.1889   80.8934 O   0  0  0  0  0  0  0  0  0  0  0  0
    0.9882   70.2257   81.8922 O   0  0  0  0  0  0  0  0  0  0  0  0
    1.5840   68.4443   80.1843 N   0  0  0  0  0  0  0  0  0  0  0  0
    0.1182   68.2958   79.9872 C   0  0  0  0  0  0  0  0  0  0  0  0
   -0.3475   66.8447   80.2193 C   0  0  0  0  0  0  0  0  0  0  0  0
    0.3411   65.8173   79.4081 N   0  0  0  0  0  0  0  0  0  0  0  0
    1.6520   66.3045   78.9203 C   0  0  0  0  0  0  0  0  0  0  0  0
    2.3719   67.2059   79.9396 C   0  0  0  0  0  0  0  0  0  0  0  0
   -0.4712   65.3247   78.2868 C   0  0  0  0  0  0  0  0  0  0  0  0
   -0.4586   63.7939   78.1521 C   0  0  0  0  0  0  0  0  0  0  0  0
    0.5106   63.3910   77.1871 O   0  0  0  0  0  0  0  0  0  0  0  0
    1.3868   63.5974   77.5565 H   0  0  0  0  0  0  0  0  0  0  0  0
    3.8831   65.7411   85.6750 O   0  0  0  0  0  0  0  0  0  0  0  0
    5.1755   65.1356   85.5972 C   0  0  0  0  0  0  0  0  0  0  0  0
    5.3747   65.4449   88.1041 C   0  0  0  0  0  0  0  0  0  0  0  0
    6.0303   65.6638   86.7478 C   0  0  0  0  0  0  0  0  0  0  0  0
 39 40  1  0  0  0
 40 38  1  0  0  0
 38 37  1  0  0  0
 37  1  1  0  0  0
  1  2  1  0  0  0
  2  3  2  0  0  0
  3  4  1  0  0  0
  4 24  1  0  0  0
 24 25  2  0  0  0
 24 26  2  0  0  0
 24 27  1  0  0  0
 27 28  1  0  0  0
 28 29  1  0  0  0
 29 30  1  0  0  0
 30 33  1  0  0  0
 33 34  1  0  0  0
 34 35  1  0  0  0
 30 31  1  0  0  0
 31 32  1  0  0  0
  4  5  2  0  0  0
  5  6  1  0  0  0
  6  7  1  0  0  0
  7  8  2  0  0  0
  8  9  1  0  0  0
  9 10  1  0  0  0
 10 11  2  0  0  0
 10 12  1  0  0  0
 12 13  1  0  0  0
 12 14  1  0  0  0
 14 15  2  0  0  0
 14 16  1  0  0  0
 16 20  1  0  0  0
 20 21  1  0  0  0
 21 22  1  0  0  0
 21 23  1  0  0  0
 16 17  1  0  0  0
 17 18  1  0  0  0
  6  1  2  0  0  0
 18  7  1  0  0  0
 32 27  1  0  0  0
 17  9  2  0  0  0
 35 36  1  0  0  0
 18 19  1  0  0  0
M  END
> <minimizedAffinity>
-9.12112

$$$$



 40 43  0  0  0  0  0  0  0  0999 V2000
    0.6907   65.0992   82.5483 C   0  0  0  0  0  0  0  0  0  0  0  0
    1.2088   66.2422   83.1755 C   0  0  0  0  0  0  0  0  0  0  0  0
    1.3096   67.4523   82.4842 C   0  0  0  0  0  0  0  0  0  0  0  0
    0.8875   67.5284   81.1580 C   0  0  0  0  0  0  0  0  0  0  0  0
    0.4022   66.3924   80.5091 C   0  0  0  0  0  0  0  0  0  0  0  0
    0.2801   65.1707   81.1952 C   0  0  0  0  0  0  0  0  0  0  0  0
   -0.2813   64.0302   80.4533 C   0  0  0  0  0  0  0  0  0  0  0  0
    0.2140   63.5004   79.3436 N   0  0  0  0  0  0  0  0  0  0  0  0
   -0.6277   62.4650   79.0128 C   0  0  0  0  0  0  0  0  0  0  0  0
   -0.5630   61.5620   77.8873 C   0  0  0  0  0  0  0  0  0  0  0  0
    0.2984   61.6423   77.0150 O   0  0  0  0  0  0  0  0  0  0  0  0
   -1.5943   60.6064   77.8904 N   0  0  0  0  0  0  0  0  0  0  0  0
   -1.6188   59.6637   76.7897 C   0  0  0  0  0  0  0  0  0  0  0  0
   -2.6722   60.5377   78.7979 C   0  0  0  0  0  0  0  0  0  0  0  0
   -3.5929   59.7311   78.6374 O   0  0  0  0  0  0  0  0  0  0  0  0
   -2.6611   61.4299   79.8892 N   0  0  0  0  0  0  0  0  0  0  0  0
   -1.6394   62.3557   79.9230 C   0  0  0  0  0  0  0  0  0  0  0  0
   -1.4237   63.3503   80.8257 N   0  0  0  0  0  0  0  0  0  0  0  0
   -1.9792   63.5894   81.6346 H   0  0  0  0  0  0  0  0  0  0  0  0
   -3.7442   61.3674   80.8731 C   0  0  0  0  0  0  0  0  0  0  0  0
   -3.4505   60.5255   82.1342 C   0  0  0  0  0  0  0  0  0  0  0  0
   -2.7268   61.3137   83.2255 C   0  0  0  0  0  0  0  0  0  0  0  0
   -2.6945   59.2326   81.8300 C   0  0  0  0  0  0  0  0  0  0  0  0
    1.0487   69.0593   80.2612 S   0  0  0  0  0  0  0  0  0  0  0  0
   -0.2737   69.4525   79.8265 O   0  0  0  0  0  0  0  0  0  0  0  0
    2.1252   68.8817   79.3081 O   0  0  0  0  0  0  0  0  0  0  0  0
    1.5746   70.1534   81.4353 N   0  0  0  0  0  0  0  0  0  0  0  0
    0.6256   71.1941   81.9103 C   0  0  0  0  0  0  0  0  0  0  0  0
    1.1470   72.6172   81.6285 C   0  0  0  0  0  0  0  0  0  0  0  0
    2.4886   72.9231   82.1712 N   0  0  0  0  0  0  0  0  0  0  0  0
    3.2608   71.6860   82.4296 C   0  0  0  0  0  0  0  0  0  0  0  0
    2.9971   70.5871   81.3844 C   0  0  0  0  0  0  0  0  0  0  0  0
    2.4477   73.7622   83.3770 C   0  0  0  0  0  0  0  0  0  0  0  0
    3.6272   74.7420   83.4772 C   0  0  0  0  0  0  0  0  0  0  0  0
    3.7903   75.1827   84.8234 O   0  0  0  0  0  0  0  0  0  0  0  0
    4.0837   74.4145   85.3435 H   0  0  0  0  0  0  0  0  0  0  0  0
    0.5601   63.8823   83.1755 O   0  0  0  0  0  0  0  0  0  0  0  0
   -0.4794   63.7344   84.1454 C   0  0  0  0  0  0  0  0  0  0  0  0
    0.5723   64.4366   86.3411 C   0  0  0  0  0  0  0  0  0  0  0  0
    0.1447   63.2709   85.4604 C   0  0  0  0  0  0  0  0  0  0  0  0
 39 40  1  0  0  0
 40 38  1  0  0  0
 38 37  1  0  0  0
 37  1  1  0  0  0
  1  2  1  0  0  0
  2  3  2  0  0  0
  3  4  1  0  0  0
  4 24  1  0  0  0
 24 25  2  0  0  0
 24 26  2  0  0  0
 24 27  1  0  0  0
 27 28  1  0  0  0
 28 29  1  0  0  0
 29 30  1  0  0  0
 30 33  1  0  0  0
 33 34  1  0  0  0
 34 35  1  0  0  0
 30 31  1  0  0  0
 31 32  1  0  0  0
  4  5  2  0  0  0
  5  6  1  0  0  0
  6  7  1  0  0  0
  7  8  2  0  0  0
  8  9  1  0  0  0
  9 10  1  0  0  0
 10 11  2  0  0  0
 10 12  1  0  0  0
 12 13  1  0  0  0
 12 14  1  0  0  0
 14 15  2  0  0  0
 14 16  1  0  0  0
 16 20  1  0  0  0
 20 21  1  0  0  0
 21 22  1  0  0  0
 21 23  1  0  0  0
 16 17  1  0  0  0
 17 18  1  0  0  0
  6  1  2  0  0  0
 18  7  1  0  0  0
 32 27  1  0  0  0
 17  9  2  0  0  0
 35 36  1  0  0  0
 18 19  1  0  0  0
M  END
> <minimizedAffinity>
-9.09172

$$$$



 40 43  0  0  0  0  0  0  0  0999 V2000
   -1.1752   63.2737   85.7328 C   0  0  0  0  0  0  0  0  0  0  0  0
   -2.2058   62.3217   85.7408 C   0  0  0  0  0  0  0  0  0  0  0  0
   -2.5706   61.6545   84.5685 C   0  0  0  0  0  0  0  0  0  0  0  0
   -1.9020   61.9330   83.3777 C   0  0  0  0  0  0  0  0  0  0  0  0
   -0.8985   62.9019   83.3456 C   0  0  0  0  0  0  0  0  0  0  0  0
   -0.5089   63.5714   84.5196 C   0  0  0  0  0  0  0  0  0  0  0  0
    0.5870   64.5479   84.4109 C   0  0  0  0  0  0  0  0  0  0  0  0
    1.7574   64.4802   85.0299 N   0  0  0  0  0  0  0  0  0  0  0  0
    2.4584   65.5939   84.6319 C   0  0  0  0  0  0  0  0  0  0  0  0
    3.7837   66.0217   85.0151 C   0  0  0  0  0  0  0  0  0  0  0  0
    4.4750   65.4095   85.8254 O   0  0  0  0  0  0  0  0  0  0  0  0
    4.1808   67.2122   84.3813 N   0  0  0  0  0  0  0  0  0  0  0  0
    5.4939   67.7270   84.7152 C   0  0  0  0  0  0  0  0  0  0  0  0
    3.3895   68.0166   83.5346 C   0  0  0  0  0  0  0  0  0  0  0  0
    3.7954   69.1092   83.1278 O   0  0  0  0  0  0  0  0  0  0  0  0
    2.1161   67.5285   83.1778 N   0  0  0  0  0  0  0  0  0  0  0  0
    1.7192   66.3447   83.7636 C   0  0  0  0  0  0  0  0  0  0  0  0
    0.5354   65.6873   83.6331 N   0  0  0  0  0  0  0  0  0  0  0  0
   -0.2682   65.9535   83.0823 H   0  0  0  0  0  0  0  0  0  0  0  0
    1.2774   68.3174   82.2725 C   0  0  0  0  0  0  0  0  0  0  0  0
    1.2685   67.8538   80.7993 C   0  0  0  0  0  0  0  0  0  0  0  0
    1.9695   68.8334   79.8587 C   0  0  0  0  0  0  0  0  0  0  0  0
   -0.1328   67.5360   80.2787 C   0  0  0  0  0  0  0  0  0  0  0  0
   -2.3885   61.1121   81.8732 S   0  0  0  0  0  0  0  0  0  0  0  0
   -3.8079   61.3279   81.6970 O   0  0  0  0  0  0  0  0  0  0  0  0
   -1.8380   59.7730   81.9230 O   0  0  0  0  0  0  0  0  0  0  0  0
   -1.5633   61.9646   80.6714 N   0  0  0  0  0  0  0  0  0  0  0  0
   -2.3564   62.6697   79.6307 C   0  0  0  0  0  0  0  0  0  0  0  0
   -2.0483   62.1381   78.2168 C   0  0  0  0  0  0  0  0  0  0  0  0
   -0.6234   62.1688   77.8212 N   0  0  0  0  0  0  0  0  0  0  0  0
    0.2641   62.2241   79.0057 C   0  0  0  0  0  0  0  0  0  0  0  0
   -0.2710   61.4030   80.1928 C   0  0  0  0  0  0  0  0  0  0  0  0
   -0.3041   63.2609   76.8912 C   0  0  0  0  0  0  0  0  0  0  0  0
    0.0355   64.5827   77.5977 C   0  0  0  0  0  0  0  0  0  0  0  0
   -0.9891   65.5459   77.3625 O   0  0  0  0  0  0  0  0  0  0  0  0
   -1.7869   65.2354   77.8249 H   0  0  0  0  0  0  0  0  0  0  0  0
   -0.7658   63.9588   86.8528 O   0  0  0  0  0  0  0  0  0  0  0  0
   -1.2351   63.5077   88.1253 C   0  0  0  0  0  0  0  0  0  0  0  0
    1.2859   63.4439   88.3705 C   0  0  0  0  0  0  0  0  0  0  0  0
   -0.0492   62.9531   88.9125 C   0  0  0  0  0  0  0  0  0  0  0  0
 39 40  1  0  0  0
 40 38  1  0  0  0
 38 37  1  0  0  0
 37  1  1  0  0  0
  1  2  1  0  0  0
  2  3  2  0  0  0
  3  4  1  0  0  0
  4 24  1  0  0  0
 24 25  2  0  0  0
 24 26  2  0  0  0
 24 27  1  0  0  0
 27 28  1  0  0  0
 28 29  1  0  0  0
 29 30  1  0  0  0
 30 33  1  0  0  0
 33 34  1  0  0  0
 34 35  1  0  0  0
 30 31  1  0  0  0
 31 32  1  0  0  0
  4  5  2  0  0  0
  5  6  1  0  0  0
  6  7  1  0  0  0
  7  8  2  0  0  0
  8  9  1  0  0  0
  9 10  1  0  0  0
 10 11  2  0  0  0
 10 12  1  0  0  0
 12 13  1  0  0  0
 12 14  1  0  0  0
 14 15  2  0  0  0
 14 16  1  0  0  0
 16 20  1  0  0  0
 20 21  1  0  0  0
 21 22  1  0  0  0
 21 23  1  0  0  0
 16 17  1  0  0  0
 17 18  1  0  0  0
  6  1  2  0  0  0
 18  7  1  0  0  0
 32 27  1  0  0  0
 17  9  2  0  0  0
 35 36  1  0  0  0
 18 19  1  0  0  0
M  END
> <minimizedAffinity>
-9.07743

$$$$
