
     RDKit          3D

 76 79  0  0  0  0  0  0  0  0999 V2000
    1.1677   -3.4649    1.1556 C   0  0  0  0  0  0  0  0  0  0  0  0
    2.5873   -3.1022    0.7420 C   0  0  0  0  0  0  0  0  0  0  0  0
    2.9704   -1.7392    1.2063 C   0  0  0  0  0  0  0  0  0  0  0  0
    2.5346   -0.5067    0.7955 C   0  0  0  0  0  0  0  0  0  0  0  0
    1.5920   -0.2128   -0.1890 N   0  0  0  0  0  0  0  0  0  0  0  0
    1.3561    1.0610   -0.3426 C   0  0  0  0  0  0  0  0  0  0  0  0
    0.3438    1.4840   -1.3579 C   0  0  0  0  0  0  0  0  0  0  0  0
   -0.0620    0.5353   -2.3071 C   0  0  0  0  0  0  0  0  0  0  0  0
   -1.0787    0.8487   -3.2044 C   0  0  0  0  0  0  0  0  0  0  0  0
   -1.6554   -0.3292   -4.3834 S   0  0  0  0  0  0  0  0  0  0  0  0
   -0.5061   -1.0948   -4.8140 O   0  0  0  0  0  0  0  0  0  0  0  0
   -2.4769    0.3902   -5.3332 O   0  0  0  0  0  0  0  0  0  0  0  0
   -2.6660   -1.3378   -3.4834 N   0  0  0  0  0  0  0  0  0  0  0  0
   -2.0323   -2.3907   -2.6425 C   0  0  0  0  0  0  0  0  0  0  0  0
   -3.0556   -3.0477   -1.6976 C   0  0  0  0  0  0  0  0  0  0  0  0
   -3.7321   -2.1098   -0.7761 N   0  0  0  0  0  0  0  0  0  0  0  0
   -3.0815   -2.0045    0.5380 C   0  0  0  0  0  0  0  0  0  0  0  0
   -3.2769   -3.2511    1.3943 C   0  0  0  0  0  0  0  0  0  0  0  0
   -3.8840   -0.7684   -1.3835 C   0  0  0  0  0  0  0  0  0  0  0  0
   -3.9257   -0.7748   -2.9235 C   0  0  0  0  0  0  0  0  0  0  0  0
   -1.6127    2.1209   -3.1874 C   0  0  0  0  0  0  0  0  0  0  0  0
   -1.2281    3.0692   -2.2993 N   0  0  0  0  0  0  0  0  0  0  0  0
   -0.2708    2.7382   -1.3973 C   0  0  0  0  0  0  0  0  0  0  0  0
    0.1151    3.6927   -0.4776 O   0  0  0  0  0  0  0  0  0  0  0  0
   -0.6587    4.9075   -0.4620 C   0  0  1  0  0  0  0  0  0  0  0  0
   -1.9166    4.7108    0.3851 C   0  0  0  0  0  0  0  0  0  0  0  0
    0.2383    6.0015    0.1469 C   0  0  0  0  0  0  0  0  0  0  0  0
   -0.4070    7.2690    0.2577 O   0  0  0  0  0  0  0  0  0  0  0  0
   -0.4484    7.9865   -0.9687 C   0  0  0  0  0  0  0  0  0  0  0  0
    1.9867    2.0643    0.3833 N   0  0  0  0  0  0  0  0  0  0  0  0
    2.9265    1.8558    1.3759 C   0  0  0  0  0  0  0  0  0  0  0  0
    3.4314    2.7891    1.9929 O   0  0  0  0  0  0  0  0  0  0  0  0
    3.1975    0.4489    1.5685 C   0  0  0  0  0  0  0  0  0  0  0  0
    4.0383   -0.1255    2.4382 N   0  0  0  0  0  0  0  0  0  0  0  0
    3.8857   -1.4555    2.1995 N   0  0  0  0  0  0  0  0  0  0  0  0
    4.7129   -2.3776    2.9638 C   0  0  0  0  0  0  0  0  0  0  0  0
    4.0123   -2.8682    4.2269 C   0  0  0  0  0  0  0  0  0  0  0  0
    3.1381   -3.9714    3.9635 O   0  0  0  0  0  0  0  0  0  0  0  0
    3.8018   -5.2287    3.9903 C   0  0  0  0  0  0  0  0  0  0  0  0
    0.9274   -4.4820    0.8301 H   0  0  0  0  0  0  0  0  0  0  0  0
    1.0422   -3.4156    2.2420 H   0  0  0  0  0  0  0  0  0  0  0  0
    0.4351   -2.7875    0.7041 H   0  0  0  0  0  0  0  0  0  0  0  0
    2.6608   -3.1392   -0.3519 H   0  0  0  0  0  0  0  0  0  0  0  0
    3.2744   -3.8652    1.1184 H   0  0  0  0  0  0  0  0  0  0  0  0
    0.4080   -0.4456   -2.3401 H   0  0  0  0  0  0  0  0  0  0  0  0
   -1.6161   -3.1590   -3.3033 H   0  0  0  0  0  0  0  0  0  0  0  0
   -1.2192   -1.9752   -2.0434 H   0  0  0  0  0  0  0  0  0  0  0  0
   -2.5729   -3.8717   -1.1626 H   0  0  0  0  0  0  0  0  0  0  0  0
   -3.8367   -3.5188   -2.3090 H   0  0  0  0  0  0  0  0  0  0  0  0
   -2.0122   -1.7829    0.4340 H   0  0  0  0  0  0  0  0  0  0  0  0
   -3.5276   -1.1696    1.0940 H   0  0  0  0  0  0  0  0  0  0  0  0
   -4.3391   -3.4993    1.4912 H   0  0  0  0  0  0  0  0  0  0  0  0
   -2.8819   -3.0754    2.4005 H   0  0  0  0  0  0  0  0  0  0  0  0
   -2.7550   -4.1212    0.9865 H   0  0  0  0  0  0  0  0  0  0  0  0
   -3.0561   -0.1161   -1.0751 H   0  0  0  0  0  0  0  0  0  0  0  0
   -4.8070   -0.3177   -1.0011 H   0  0  0  0  0  0  0  0  0  0  0  0
   -4.7654   -1.3803   -3.2849 H   0  0  0  0  0  0  0  0  0  0  0  0
   -4.0993    0.2441   -3.2839 H   0  0  0  0  0  0  0  0  0  0  0  0
   -2.3834    2.4361   -3.8873 H   0  0  0  0  0  0  0  0  0  0  0  0
   -0.9350    5.2259   -1.4733 H   0  0  0  0  0  0  0  0  0  0  0  0
   -1.6549    4.3996    1.4026 H   0  0  0  0  0  0  0  0  0  0  0  0
   -2.5518    3.9209   -0.0282 H   0  0  0  0  0  0  0  0  0  0  0  0
   -2.5100    5.6283    0.4405 H   0  0  0  0  0  0  0  0  0  0  0  0
    0.5362    5.7003    1.1588 H   0  0  0  0  0  0  0  0  0  0  0  0
    1.1739    6.0950   -0.4190 H   0  0  0  0  0  0  0  0  0  0  0  0
    0.5618    8.1406   -1.3598 H   0  0  0  0  0  0  0  0  0  0  0  0
   -1.0644    7.4657   -1.7063 H   0  0  0  0  0  0  0  0  0  0  0  0
   -0.8982    8.9645   -0.7764 H   0  0  0  0  0  0  0  0  0  0  0  0
    1.7416    3.0350    0.2386 H   0  0  0  0  0  0  0  0  0  0  0  0
    5.6202   -1.8255    3.2370 H   0  0  0  0  0  0  0  0  0  0  0  0
    5.0109   -3.1910    2.2973 H   0  0  0  0  0  0  0  0  0  0  0  0
    3.4029   -2.0709    4.6668 H   0  0  0  0  0  0  0  0  0  0  0  0
    4.7518   -3.1616    4.9815 H   0  0  0  0  0  0  0  0  0  0  0  0
    3.0705   -6.0061    3.7532 H   0  0  0  0  0  0  0  0  0  0  0  0
    4.2054   -5.4245    4.9883 H   0  0  0  0  0  0  0  0  0  0  0  0
    4.6022   -5.2665    3.2465 H   0  0  0  0  0  0  0  0  0  0  0  0
  1  2  1  0
  2  3  1  0
  3  4  2  0
  4  5  1  0
  5  6  2  0
  6  7  1  0
  7  8  1  0
  8  9  2  0
  9 10  1  0
 10 11  2  0
 10 12  2  0
 10 13  1  0
 13 14  1  0
 14 15  1  0
 15 16  1  0
 16 17  1  0
 17 18  1  0
 16 19  1  0
 19 20  1  0
  9 21  1  0
 21 22  2  0
 22 23  1  0
 23 24  1  0
 24 25  1  0
 25 26  1  0
 25 27  1  0
 27 28  1  0
 28 29  1  0
  6 30  1  0
 30 31  1  0
 31 32  2  0
 31 33  1  0
 33 34  2  0
 34 35  1  0
 35 36  1  0
 36 37  1  0
 37 38  1  0
 38 39  1  0
 35  3  1  0
 33  4  1  0
 23  7  2  0
 20 13  1  0
  1 40  1  0
  1 41  1  0
  1 42  1  0
  2 43  1  0
  2 44  1  0
  8 45  1  0
 14 46  1  0
 14 47  1  0
 15 48  1  0
 15 49  1  0
 17 50  1  0
 17 51  1  0
 18 52  1  0
 18 53  1  0
 18 54  1  0
 19 55  1  0
 19 56  1  0
 20 57  1  0
 20 58  1  0
 21 59  1  0
 25 60  1  6
 26 61  1  0
 26 62  1  0
 26 63  1  0
 27 64  1  0
 27 65  1  0
 29 66  1  0
 29 67  1  0
 29 68  1  0
 30 69  1  0
 36 70  1  0
 36 71  1  0
 37 72  1  0
 37 73  1  0
 39 74  1  0
 39 75  1  0
 39 76  1  0
M  END
$$$$
