


 36 38  0  0  0  0  0  0  0  0999 V2000
    1.8608   65.8210   84.4812 C   0  0  0  0  0  0  0  0  0  0  0  0
    1.3823   66.6348   83.4435 C   0  0  0  0  0  0  0  0  0  0  0  0
    2.2417   67.5395   82.8155 C   0  0  0  0  0  0  0  0  0  0  0  0
    3.5866   67.6219   83.1816 C   0  0  0  0  0  0  0  0  0  0  0  0
    4.0656   66.8240   84.2196 C   0  0  0  0  0  0  0  0  0  0  0  0
    3.2021   65.9454   84.8857 C   0  0  0  0  0  0  0  0  0  0  0  0
   -0.8485   63.3876   85.0760 C   0  0  0  0  0  0  0  0  0  0  0  0
    0.0657   64.1962   84.4307 N   0  0  0  0  0  0  0  0  0  0  0  0
    0.8898   64.8983   85.1396 C   0  0  0  0  0  0  0  0  0  0  0  0
    0.9105   64.8251   86.5048 N   0  0  0  0  0  0  0  0  0  0  0  0
    0.0772   64.0175   87.2211 C   0  0  0  0  0  0  0  0  0  0  0  0
    0.1320   63.9834   88.4467 O   0  0  0  0  0  0  0  0  0  0  0  0
   -0.8885   63.2192   86.4151 C   0  0  0  0  0  0  0  0  0  0  0  0
   -2.0638   62.1043   87.3436 Br  0  0  0  0  0  0  0  0  0  0  0  0
    1.5602   65.3892   87.0398 H   0  0  0  0  0  0  0  0  0  0  0  0
   -1.7877   62.6721   84.1207 C   0  0  0  0  0  0  0  0  0  0  0  0
   -1.8850   63.2741   82.7093 C   0  0  0  0  0  0  0  0  0  0  0  0
   -1.8655   62.2775   81.5420 C   0  0  0  0  0  0  0  0  0  0  0  0
   -0.8701   61.1164   81.6014 C   0  0  0  0  0  0  0  0  0  0  0  0
    0.5611   61.4889   81.2092 C   0  0  0  0  0  0  0  0  0  0  0  0
    1.6128   60.9818   82.2025 C   0  0  0  0  0  0  0  0  0  0  0  0
    3.6636   59.5015   82.5365 C   0  0  0  0  0  0  0  0  0  0  0  0
    2.8858   60.3973   81.5853 C   0  0  0  0  0  0  0  0  0  0  0  0
    1.6429   68.5744   81.5005 S   0  0  0  0  0  0  0  0  0  0  0  0
    0.3289   68.1138   81.1078 O   0  0  0  0  0  0  0  0  0  0  0  0
    2.7180   68.6997   80.5395 O   0  0  0  0  0  0  0  0  0  0  0  0
    1.4548   70.0737   82.2867 N   0  0  0  0  0  0  0  0  0  0  0  0
    0.3157   70.9273   81.8155 C   0  0  0  0  0  0  0  0  0  0  0  0
    0.7949   72.1767   81.0546 C   0  0  0  0  0  0  0  0  0  0  0  0
    1.7208   73.0460   81.8078 N   0  0  0  0  0  0  0  0  0  0  0  0
    1.0433   74.1926   82.4055 C   0  0  0  0  0  0  0  0  0  0  0  0
    2.4730   72.2891   82.8277 C   0  0  0  0  0  0  0  0  0  0  0  0
    2.7415   70.8342   82.4089 C   0  0  0  0  0  0  0  0  0  0  0  0
    3.6819   65.1725   85.9143 O   0  0  0  0  0  0  0  0  0  0  0  0
    5.1140   65.2163   85.9962 C   0  0  0  0  0  0  0  0  0  0  0  0
    5.4898   65.4966   87.4391 C   0  0  0  0  0  0  0  0  0  0  0  0
 22 23  1  0  0  0
 23 21  1  0  0  0
 21 20  1  0  0  0
 20 19  1  0  0  0
 19 18  1  0  0  0
 18 17  1  0  0  0
 17 16  1  0  0  0
 16  7  1  0  0  0
  7  8  1  0  0  0
  8  9  2  0  0  0
  9  1  1  0  0  0
  1  2  1  0  0  0
  2  3  2  0  0  0
  3 24  1  0  0  0
 24 25  2  0  0  0
 24 26  2  0  0  0
 24 27  1  0  0  0
 27 28  1  0  0  0
 28 29  1  0  0  0
 29 30  1  0  0  0
 30 31  1  0  0  0
 30 32  1  0  0  0
 32 33  1  0  0  0
  3  4  1  0  0  0
  4  5  2  0  0  0
  5  6  1  0  0  0
  6 34  1  0  0  0
 34 35  1  0  0  0
 35 36  1  0  0  0
  9 10  1  0  0  0
 10 11  1  0  0  0
 11 12  2  0  0  0
 11 13  1  0  0  0
 13 14  1  0  0  0
 13  7  2  0  0  0
  6  1  2  0  0  0
 33 27  1  0  0  0
 10 15  1  0  0  0
M  END
> <minimizedAffinity>
-9.54693

$$$$



 36 38  0  0  0  0  0  0  0  0999 V2000
    1.9709   65.7952   84.5200 C   0  0  0  0  0  0  0  0  0  0  0  0
    1.5267   66.6280   83.4820 C   0  0  0  0  0  0  0  0  0  0  0  0
    2.4098   67.5344   82.8904 C   0  0  0  0  0  0  0  0  0  0  0  0
    3.7451   67.6001   83.2931 C   0  0  0  0  0  0  0  0  0  0  0  0
    4.1898   66.7832   84.3317 C   0  0  0  0  0  0  0  0  0  0  0  0
    3.3019   65.9024   84.9617 C   0  0  0  0  0  0  0  0  0  0  0  0
   -0.7204   63.3175   85.0034 C   0  0  0  0  0  0  0  0  0  0  0  0
    0.2201   64.1264   84.3976 N   0  0  0  0  0  0  0  0  0  0  0  0
    0.9752   64.8714   85.1389 C   0  0  0  0  0  0  0  0  0  0  0  0
    0.8987   64.8437   86.5037 N   0  0  0  0  0  0  0  0  0  0  0  0
    0.0338   64.0401   87.1861 C   0  0  0  0  0  0  0  0  0  0  0  0
    0.0006   64.0477   88.4130 O   0  0  0  0  0  0  0  0  0  0  0  0
   -0.8534   63.1924   86.3412 C   0  0  0  0  0  0  0  0  0  0  0  0
   -2.0680   62.0804   87.2213 Br  0  0  0  0  0  0  0  0  0  0  0  0
    1.4956   65.4408   87.0639 H   0  0  0  0  0  0  0  0  0  0  0  0
   -1.5722   62.5482   84.0087 C   0  0  0  0  0  0  0  0  0  0  0  0
   -1.9674   63.3178   82.7377 C   0  0  0  0  0  0  0  0  0  0  0  0
   -1.7622   62.5825   81.4059 C   0  0  0  0  0  0  0  0  0  0  0  0
   -0.8268   61.3712   81.3875 C   0  0  0  0  0  0  0  0  0  0  0  0
    0.6504   61.7152   81.1855 C   0  0  0  0  0  0  0  0  0  0  0  0
    1.5811   60.9850   82.1603 C   0  0  0  0  0  0  0  0  0  0  0  0
    3.6767   59.5813   82.5432 C   0  0  0  0  0  0  0  0  0  0  0  0
    2.8287   60.3495   81.5417 C   0  0  0  0  0  0  0  0  0  0  0  0
    1.8545   68.5933   81.5753 S   0  0  0  0  0  0  0  0  0  0  0  0
    0.6096   69.2141   81.9724 O   0  0  0  0  0  0  0  0  0  0  0  0
    1.9622   67.8334   80.3480 O   0  0  0  0  0  0  0  0  0  0  0  0
    3.0561   69.8005   81.5607 N   0  0  0  0  0  0  0  0  0  0  0  0
    2.7296   71.0651   82.2972 C   0  0  0  0  0  0  0  0  0  0  0  0
    2.5076   72.2561   81.3475 C   0  0  0  0  0  0  0  0  0  0  0  0
    3.6365   72.5473   80.4413 N   0  0  0  0  0  0  0  0  0  0  0  0
    4.4720   73.6405   80.9291 C   0  0  0  0  0  0  0  0  0  0  0  0
    4.4479   71.3433   80.1751 C   0  0  0  0  0  0  0  0  0  0  0  0
    3.6154   70.0508   80.1920 C   0  0  0  0  0  0  0  0  0  0  0  0
    3.7478   65.1107   85.9912 O   0  0  0  0  0  0  0  0  0  0  0  0
    5.1768   65.1493   86.1182 C   0  0  0  0  0  0  0  0  0  0  0  0
    5.5075   65.4747   87.5627 C   0  0  0  0  0  0  0  0  0  0  0  0
 22 23  1  0  0  0
 23 21  1  0  0  0
 21 20  1  0  0  0
 20 19  1  0  0  0
 19 18  1  0  0  0
 18 17  1  0  0  0
 17 16  1  0  0  0
 16  7  1  0  0  0
  7  8  1  0  0  0
  8  9  2  0  0  0
  9  1  1  0  0  0
  1  2  1  0  0  0
  2  3  2  0  0  0
  3 24  1  0  0  0
 24 25  2  0  0  0
 24 26  2  0  0  0
 24 27  1  0  0  0
 27 28  1  0  0  0
 28 29  1  0  0  0
 29 30  1  0  0  0
 30 31  1  0  0  0
 30 32  1  0  0  0
 32 33  1  0  0  0
  3  4  1  0  0  0
  4  5  2  0  0  0
  5  6  1  0  0  0
  6 34  1  0  0  0
 34 35  1  0  0  0
 35 36  1  0  0  0
  9 10  1  0  0  0
 10 11  1  0  0  0
 11 12  2  0  0  0
 11 13  1  0  0  0
 13 14  1  0  0  0
 13  7  2  0  0  0
  6  1  2  0  0  0
 33 27  1  0  0  0
 10 15  1  0  0  0
M  END
> <minimizedAffinity>
-9.53390

$$$$



 36 38  0  0  0  0  0  0  0  0999 V2000
    1.9415   66.1308   84.2559 C   0  0  0  0  0  0  0  0  0  0  0  0
    1.3798   66.9882   83.2980 C   0  0  0  0  0  0  0  0  0  0  0  0
    2.1737   67.9579   82.6809 C   0  0  0  0  0  0  0  0  0  0  0  0
    3.5340   68.0645   82.9772 C   0  0  0  0  0  0  0  0  0  0  0  0
    4.0956   67.2230   83.9363 C   0  0  0  0  0  0  0  0  0  0  0  0
    3.2990   66.2769   84.5933 C   0  0  0  0  0  0  0  0  0  0  0  0
   -0.6332   63.5534   84.8425 C   0  0  0  0  0  0  0  0  0  0  0  0
    0.2186   64.4297   84.2001 N   0  0  0  0  0  0  0  0  0  0  0  0
    1.0385   65.1375   84.9083 C   0  0  0  0  0  0  0  0  0  0  0  0
    1.1161   65.0067   86.2671 N   0  0  0  0  0  0  0  0  0  0  0  0
    0.3478   64.1321   86.9774 C   0  0  0  0  0  0  0  0  0  0  0  0
    0.4523   64.0480   88.1974 O   0  0  0  0  0  0  0  0  0  0  0  0
   -0.6130   63.3261   86.1732 C   0  0  0  0  0  0  0  0  0  0  0  0
   -1.7009   62.1200   87.0944 Br  0  0  0  0  0  0  0  0  0  0  0  0
    1.7611   65.5764   86.8021 H   0  0  0  0  0  0  0  0  0  0  0  0
   -1.5770   62.8376   83.8920 C   0  0  0  0  0  0  0  0  0  0  0  0
   -1.6585   63.4212   82.4719 C   0  0  0  0  0  0  0  0  0  0  0  0
   -1.8389   62.4106   81.3306 C   0  0  0  0  0  0  0  0  0  0  0  0
   -0.8534   61.2432   81.2384 C   0  0  0  0  0  0  0  0  0  0  0  0
    0.6135   61.6612   81.1177 C   0  0  0  0  0  0  0  0  0  0  0  0
    1.5287   60.9578   82.1263 C   0  0  0  0  0  0  0  0  0  0  0  0
    3.6065   59.5378   82.5444 C   0  0  0  0  0  0  0  0  0  0  0  0
    2.8524   60.4280   81.5693 C   0  0  0  0  0  0  0  0  0  0  0  0
    1.4694   69.0484   81.4669 S   0  0  0  0  0  0  0  0  0  0  0  0
    2.4972   69.9558   81.0049 O   0  0  0  0  0  0  0  0  0  0  0  0
    0.2203   69.5359   82.0120 O   0  0  0  0  0  0  0  0  0  0  0  0
    1.1113   67.9764   80.1925 N   0  0  0  0  0  0  0  0  0  0  0  0
   -0.3024   67.4812   80.1247 C   0  0  0  0  0  0  0  0  0  0  0  0
   -0.4187   65.9887   80.4831 C   0  0  0  0  0  0  0  0  0  0  0  0
    0.4094   65.0853   79.6595 N   0  0  0  0  0  0  0  0  0  0  0  0
   -0.3560   64.4507   78.5907 C   0  0  0  0  0  0  0  0  0  0  0  0
    1.5970   65.7748   79.1182 C   0  0  0  0  0  0  0  0  0  0  0  0
    2.1214   66.8768   80.0534 C   0  0  0  0  0  0  0  0  0  0  0  0
    3.8601   65.4609   85.5445 O   0  0  0  0  0  0  0  0  0  0  0  0
    5.2813   65.3447   85.3818 C   0  0  0  0  0  0  0  0  0  0  0  0
    5.9234   65.5394   86.7427 C   0  0  0  0  0  0  0  0  0  0  0  0
 22 23  1  0  0  0
 23 21  1  0  0  0
 21 20  1  0  0  0
 20 19  1  0  0  0
 19 18  1  0  0  0
 18 17  1  0  0  0
 17 16  1  0  0  0
 16  7  1  0  0  0
  7  8  1  0  0  0
  8  9  2  0  0  0
  9  1  1  0  0  0
  1  2  1  0  0  0
  2  3  2  0  0  0
  3 24  1  0  0  0
 24 25  2  0  0  0
 24 26  2  0  0  0
 24 27  1  0  0  0
 27 28  1  0  0  0
 28 29  1  0  0  0
 29 30  1  0  0  0
 30 31  1  0  0  0
 30 32  1  0  0  0
 32 33  1  0  0  0
  3  4  1  0  0  0
  4  5  2  0  0  0
  5  6  1  0  0  0
  6 34  1  0  0  0
 34 35  1  0  0  0
 35 36  1  0  0  0
  9 10  1  0  0  0
 10 11  1  0  0  0
 11 12  2  0  0  0
 11 13  1  0  0  0
 13 14  1  0  0  0
 13  7  2  0  0  0
  6  1  2  0  0  0
 33 27  1  0  0  0
 10 15  1  0  0  0
M  END
> <minimizedAffinity>
-9.52242

$$$$



 36 38  0  0  0  0  0  0  0  0999 V2000
    2.2224   66.3893   84.2325 C   0  0  0  0  0  0  0  0  0  0  0  0
    1.7543   67.3565   83.3305 C   0  0  0  0  0  0  0  0  0  0  0  0
    2.6121   68.3644   82.8833 C   0  0  0  0  0  0  0  0  0  0  0  0
    3.9460   68.4038   83.2938 C   0  0  0  0  0  0  0  0  0  0  0  0
    4.4143   67.4522   84.1987 C   0  0  0  0  0  0  0  0  0  0  0  0
    3.5511   66.4638   84.6877 C   0  0  0  0  0  0  0  0  0  0  0  0
   -0.3190   63.7156   84.3252 C   0  0  0  0  0  0  0  0  0  0  0  0
    0.6030   64.6288   83.8540 N   0  0  0  0  0  0  0  0  0  0  0  0
    1.2526   65.3572   84.7037 C   0  0  0  0  0  0  0  0  0  0  0  0
    1.0852   65.2138   86.0531 N   0  0  0  0  0  0  0  0  0  0  0  0
    0.2329   64.3044   86.6064 C   0  0  0  0  0  0  0  0  0  0  0  0
    0.1154   64.2101   87.8245 O   0  0  0  0  0  0  0  0  0  0  0  0
   -0.5342   63.4739   85.6360 C   0  0  0  0  0  0  0  0  0  0  0  0
   -1.7268   62.2196   86.3366 Br  0  0  0  0  0  0  0  0  0  0  0  0
    1.5999   65.7998   86.6998 H   0  0  0  0  0  0  0  0  0  0  0  0
   -1.0458   62.9776   83.2145 C   0  0  0  0  0  0  0  0  0  0  0  0
   -0.4499   61.6161   82.8207 C   0  0  0  0  0  0  0  0  0  0  0  0
    0.6101   61.6331   81.7106 C   0  0  0  0  0  0  0  0  0  0  0  0
    0.1382   61.4996   80.2607 C   0  0  0  0  0  0  0  0  0  0  0  0
    0.5039   62.6845   79.3643 C   0  0  0  0  0  0  0  0  0  0  0  0
   -0.3412   63.9339   79.6374 C   0  0  0  0  0  0  0  0  0  0  0  0
   -0.5307   66.2377   80.7170 C   0  0  0  0  0  0  0  0  0  0  0  0
    0.3917   65.1028   80.3006 C   0  0  0  0  0  0  0  0  0  0  0  0
    2.0265   69.5939   81.7412 S   0  0  0  0  0  0  0  0  0  0  0  0
    0.9998   70.3800   82.3902 O   0  0  0  0  0  0  0  0  0  0  0  0
    1.7801   68.9189   80.4847 O   0  0  0  0  0  0  0  0  0  0  0  0
    3.3988   70.5850   81.5525 N   0  0  0  0  0  0  0  0  0  0  0  0
    3.2804   71.9833   82.0809 C   0  0  0  0  0  0  0  0  0  0  0  0
    3.2310   73.0329   80.9561 C   0  0  0  0  0  0  0  0  0  0  0  0
    4.3788   73.0036   80.0277 N   0  0  0  0  0  0  0  0  0  0  0  0
    5.3788   74.0173   80.3491 C   0  0  0  0  0  0  0  0  0  0  0  0
    4.9920   71.6626   79.9595 C   0  0  0  0  0  0  0  0  0  0  0  0
    3.9713   70.5318   80.1675 C   0  0  0  0  0  0  0  0  0  0  0  0
    4.0199   65.5385   85.5873 O   0  0  0  0  0  0  0  0  0  0  0  0
    5.4481   65.5918   85.7178 C   0  0  0  0  0  0  0  0  0  0  0  0
    5.7815   65.5777   87.1978 C   0  0  0  0  0  0  0  0  0  0  0  0
 22 23  1  0  0  0
 23 21  1  0  0  0
 21 20  1  0  0  0
 20 19  1  0  0  0
 19 18  1  0  0  0
 18 17  1  0  0  0
 17 16  1  0  0  0
 16  7  1  0  0  0
  7  8  1  0  0  0
  8  9  2  0  0  0
  9  1  1  0  0  0
  1  2  1  0  0  0
  2  3  2  0  0  0
  3 24  1  0  0  0
 24 25  2  0  0  0
 24 26  2  0  0  0
 24 27  1  0  0  0
 27 28  1  0  0  0
 28 29  1  0  0  0
 29 30  1  0  0  0
 30 31  1  0  0  0
 30 32  1  0  0  0
 32 33  1  0  0  0
  3  4  1  0  0  0
  4  5  2  0  0  0
  5  6  1  0  0  0
  6 34  1  0  0  0
 34 35  1  0  0  0
 35 36  1  0  0  0
  9 10  1  0  0  0
 10 11  1  0  0  0
 11 12  2  0  0  0
 11 13  1  0  0  0
 13 14  1  0  0  0
 13  7  2  0  0  0
  6  1  2  0  0  0
 33 27  1  0  0  0
 10 15  1  0  0  0
M  END
> <minimizedAffinity>
-9.25857

$$$$



 36 38  0  0  0  0  0  0  0  0999 V2000
    2.0819   66.3809   84.1963 C   0  0  0  0  0  0  0  0  0  0  0  0
    1.5578   67.2900   83.2653 C   0  0  0  0  0  0  0  0  0  0  0  0
    2.3640   68.3138   82.7620 C   0  0  0  0  0  0  0  0  0  0  0  0
    3.7019   68.4259   83.1455 C   0  0  0  0  0  0  0  0  0  0  0  0
    4.2256   67.5325   84.0789 C   0  0  0  0  0  0  0  0  0  0  0  0
    3.4138   66.5296   84.6232 C   0  0  0  0  0  0  0  0  0  0  0  0
   -0.3691   63.6337   84.4446 C   0  0  0  0  0  0  0  0  0  0  0  0
    0.5036   64.5652   83.9184 N   0  0  0  0  0  0  0  0  0  0  0  0
    1.1652   65.3291   84.7267 C   0  0  0  0  0  0  0  0  0  0  0  0
    1.0588   65.2067   86.0843 N   0  0  0  0  0  0  0  0  0  0  0  0
    0.2590   64.2827   86.6895 C   0  0  0  0  0  0  0  0  0  0  0  0
    0.1955   64.2084   87.9129 O   0  0  0  0  0  0  0  0  0  0  0  0
   -0.5217   63.4109   85.7675 C   0  0  0  0  0  0  0  0  0  0  0  0
   -1.6445   62.1348   86.5403 Br  0  0  0  0  0  0  0  0  0  0  0  0
    1.5816   65.8204   86.6980 H   0  0  0  0  0  0  0  0  0  0  0  0
   -1.1184   62.8528   83.3791 C   0  0  0  0  0  0  0  0  0  0  0  0
   -0.4737   61.5237   82.9529 C   0  0  0  0  0  0  0  0  0  0  0  0
    0.6325   61.6135   81.8924 C   0  0  0  0  0  0  0  0  0  0  0  0
    0.2238   61.9069   80.4469 C   0  0  0  0  0  0  0  0  0  0  0  0
   -1.0205   61.1517   79.9751 C   0  0  0  0  0  0  0  0  0  0  0  0
   -2.1870   62.0759   79.6079 C   0  0  0  0  0  0  0  0  0  0  0  0
   -3.5351   60.6574   81.2447 C   0  0  0  0  0  0  0  0  0  0  0  0
   -3.4203   61.9837   80.5099 C   0  0  0  0  0  0  0  0  0  0  0  0
    1.7071   69.4700   81.5827 S   0  0  0  0  0  0  0  0  0  0  0  0
    2.7645   70.3690   81.1743 O   0  0  0  0  0  0  0  0  0  0  0  0
    0.4616   69.9666   82.1278 O   0  0  0  0  0  0  0  0  0  0  0  0
    1.3439   68.4598   80.2603 N   0  0  0  0  0  0  0  0  0  0  0  0
   -0.1047   68.1263   80.0633 C   0  0  0  0  0  0  0  0  0  0  0  0
   -0.4151   66.6520   80.3788 C   0  0  0  0  0  0  0  0  0  0  0  0
    0.3761   65.6716   79.6086 N   0  0  0  0  0  0  0  0  0  0  0  0
   -0.3599   65.1391   78.4660 C   0  0  0  0  0  0  0  0  0  0  0  0
    1.6746   66.2306   79.1839 C   0  0  0  0  0  0  0  0  0  0  0  0
    2.2349   67.2561   80.1832 C   0  0  0  0  0  0  0  0  0  0  0  0
    3.9369   65.6622   85.5503 O   0  0  0  0  0  0  0  0  0  0  0  0
    5.3517   65.4877   85.3843 C   0  0  0  0  0  0  0  0  0  0  0  0
    5.9831   65.4638   86.7637 C   0  0  0  0  0  0  0  0  0  0  0  0
 22 23  1  0  0  0
 23 21  1  0  0  0
 21 20  1  0  0  0
 20 19  1  0  0  0
 19 18  1  0  0  0
 18 17  1  0  0  0
 17 16  1  0  0  0
 16  7  1  0  0  0
  7  8  1  0  0  0
  8  9  2  0  0  0
  9  1  1  0  0  0
  1  2  1  0  0  0
  2  3  2  0  0  0
  3 24  1  0  0  0
 24 25  2  0  0  0
 24 26  2  0  0  0
 24 27  1  0  0  0
 27 28  1  0  0  0
 28 29  1  0  0  0
 29 30  1  0  0  0
 30 31  1  0  0  0
 30 32  1  0  0  0
 32 33  1  0  0  0
  3  4  1  0  0  0
  4  5  2  0  0  0
  5  6  1  0  0  0
  6 34  1  0  0  0
 34 35  1  0  0  0
 35 36  1  0  0  0
  9 10  1  0  0  0
 10 11  1  0  0  0
 11 12  2  0  0  0
 11 13  1  0  0  0
 13 14  1  0  0  0
 13  7  2  0  0  0
  6  1  2  0  0  0
 33 27  1  0  0  0
 10 15  1  0  0  0
M  END
> <minimizedAffinity>
-9.16330

$$$$



 36 38  0  0  0  0  0  0  0  0999 V2000
    1.8985   65.8055   84.4007 C   0  0  0  0  0  0  0  0  0  0  0  0
    1.4418   66.5939   83.3340 C   0  0  0  0  0  0  0  0  0  0  0  0
    2.3111   67.4918   82.7098 C   0  0  0  0  0  0  0  0  0  0  0  0
    3.6452   67.5920   83.1092 C   0  0  0  0  0  0  0  0  0  0  0  0
    4.1023   66.8196   84.1760 C   0  0  0  0  0  0  0  0  0  0  0  0
    3.2278   65.9485   84.8376 C   0  0  0  0  0  0  0  0  0  0  0  0
   -0.8076   63.3637   84.9753 C   0  0  0  0  0  0  0  0  0  0  0  0
    0.1176   64.1656   84.3374 N   0  0  0  0  0  0  0  0  0  0  0  0
    0.9170   64.8894   85.0527 C   0  0  0  0  0  0  0  0  0  0  0  0
    0.9013   64.8458   86.4192 N   0  0  0  0  0  0  0  0  0  0  0  0
    0.0550   64.0471   87.1303 C   0  0  0  0  0  0  0  0  0  0  0  0
    0.0769   64.0399   88.3574 O   0  0  0  0  0  0  0  0  0  0  0  0
   -0.8826   63.2239   86.3161 C   0  0  0  0  0  0  0  0  0  0  0  0
   -2.0742   62.1198   87.2367 Br  0  0  0  0  0  0  0  0  0  0  0  0
    1.5320   65.4266   86.9591 H   0  0  0  0  0  0  0  0  0  0  0  0
   -1.7152   62.6202   84.0108 C   0  0  0  0  0  0  0  0  0  0  0  0
   -2.0175   63.3461   82.6896 C   0  0  0  0  0  0  0  0  0  0  0  0
   -2.2988   62.4541   81.4724 C   0  0  0  0  0  0  0  0  0  0  0  0
   -1.1744   61.5462   80.9684 C   0  0  0  0  0  0  0  0  0  0  0  0
    0.1179   62.2808   80.6058 C   0  0  0  0  0  0  0  0  0  0  0  0
    0.0146   63.0806   79.3022 C   0  0  0  0  0  0  0  0  0  0  0  0
   -0.2838   65.3946   80.3343 C   0  0  0  0  0  0  0  0  0  0  0  0
    0.5078   64.5283   79.3672 C   0  0  0  0  0  0  0  0  0  0  0  0
    1.7399   68.4946   81.3581 S   0  0  0  0  0  0  0  0  0  0  0  0
    0.3432   68.8075   81.5690 O   0  0  0  0  0  0  0  0  0  0  0  0
    2.1964   67.8600   80.1399 O   0  0  0  0  0  0  0  0  0  0  0  0
    2.6329   69.9283   81.5780 N   0  0  0  0  0  0  0  0  0  0  0  0
    1.8572   71.1236   82.0448 C   0  0  0  0  0  0  0  0  0  0  0  0
    1.7249   72.1999   80.9524 C   0  0  0  0  0  0  0  0  0  0  0  0
    3.0053   72.6874   80.4018 N   0  0  0  0  0  0  0  0  0  0  0  0
    3.4210   73.9525   81.0000 C   0  0  0  0  0  0  0  0  0  0  0  0
    4.0719   71.6739   80.5200 C   0  0  0  0  0  0  0  0  0  0  0  0
    3.5375   70.2356   80.4220 C   0  0  0  0  0  0  0  0  0  0  0  0
    3.6857   65.2009   85.8944 O   0  0  0  0  0  0  0  0  0  0  0  0
    5.1003   65.3502   86.0849 C   0  0  0  0  0  0  0  0  0  0  0  0
    5.3718   65.3504   87.5777 C   0  0  0  0  0  0  0  0  0  0  0  0
 22 23  1  0  0  0
 23 21  1  0  0  0
 21 20  1  0  0  0
 20 19  1  0  0  0
 19 18  1  0  0  0
 18 17  1  0  0  0
 17 16  1  0  0  0
 16  7  1  0  0  0
  7  8  1  0  0  0
  8  9  2  0  0  0
  9  1  1  0  0  0
  1  2  1  0  0  0
  2  3  2  0  0  0
  3 24  1  0  0  0
 24 25  2  0  0  0
 24 26  2  0  0  0
 24 27  1  0  0  0
 27 28  1  0  0  0
 28 29  1  0  0  0
 29 30  1  0  0  0
 30 31  1  0  0  0
 30 32  1  0  0  0
 32 33  1  0  0  0
  3  4  1  0  0  0
  4  5  2  0  0  0
  5  6  1  0  0  0
  6 34  1  0  0  0
 34 35  1  0  0  0
 35 36  1  0  0  0
  9 10  1  0  0  0
 10 11  1  0  0  0
 11 12  2  0  0  0
 11 13  1  0  0  0
 13 14  1  0  0  0
 13  7  2  0  0  0
  6  1  2  0  0  0
 33 27  1  0  0  0
 10 15  1  0  0  0
M  END
> <minimizedAffinity>
-9.06768

$$$$



 36 38  0  0  0  0  0  0  0  0999 V2000
    1.8738   65.7502   84.4842 C   0  0  0  0  0  0  0  0  0  0  0  0
    1.4225   66.5270   83.4067 C   0  0  0  0  0  0  0  0  0  0  0  0
    2.2953   67.4170   82.7763 C   0  0  0  0  0  0  0  0  0  0  0  0
    3.6278   67.5204   83.1803 C   0  0  0  0  0  0  0  0  0  0  0  0
    4.0795   66.7595   84.2576 C   0  0  0  0  0  0  0  0  0  0  0  0
    3.2013   65.8968   84.9251 C   0  0  0  0  0  0  0  0  0  0  0  0
   -0.8459   63.3274   85.0750 C   0  0  0  0  0  0  0  0  0  0  0  0
    0.0823   64.1214   84.4316 N   0  0  0  0  0  0  0  0  0  0  0  0
    0.8886   64.8424   85.1422 C   0  0  0  0  0  0  0  0  0  0  0  0
    0.8770   64.8030   86.5088 N   0  0  0  0  0  0  0  0  0  0  0  0
    0.0280   64.0119   87.2251 C   0  0  0  0  0  0  0  0  0  0  0  0
    0.0538   64.0084   88.4521 O   0  0  0  0  0  0  0  0  0  0  0  0
   -0.9174   63.1922   86.4165 C   0  0  0  0  0  0  0  0  0  0  0  0
   -2.1130   62.0986   87.3443 Br  0  0  0  0  0  0  0  0  0  0  0  0
    1.5132   65.3814   87.0448 H   0  0  0  0  0  0  0  0  0  0  0  0
   -1.7614   62.5868   84.1157 C   0  0  0  0  0  0  0  0  0  0  0  0
   -1.3704   62.6644   82.6308 C   0  0  0  0  0  0  0  0  0  0  0  0
   -0.6667   61.4312   82.0474 C   0  0  0  0  0  0  0  0  0  0  0  0
    0.5880   61.6508   81.1989 C   0  0  0  0  0  0  0  0  0  0  0  0
    0.3189   61.8156   79.7017 C   0  0  0  0  0  0  0  0  0  0  0  0
   -1.0155   61.2073   79.2556 C   0  0  0  0  0  0  0  0  0  0  0  0
   -3.4806   61.7860   78.9434 C   0  0  0  0  0  0  0  0  0  0  0  0
   -2.0385   62.1913   78.6823 C   0  0  0  0  0  0  0  0  0  0  0  0
    1.7309   68.4051   81.4110 S   0  0  0  0  0  0  0  0  0  0  0  0
    0.3432   68.7510   81.6296 O   0  0  0  0  0  0  0  0  0  0  0  0
    2.1617   67.7378   80.2009 O   0  0  0  0  0  0  0  0  0  0  0  0
    2.6554   69.8240   81.5940 N   0  0  0  0  0  0  0  0  0  0  0  0
    1.9120   71.0404   82.0586 C   0  0  0  0  0  0  0  0  0  0  0  0
    1.7795   72.1042   80.9539 C   0  0  0  0  0  0  0  0  0  0  0  0
    3.0583   72.5591   80.3726 N   0  0  0  0  0  0  0  0  0  0  0  0
    3.5097   73.8238   80.9451 C   0  0  0  0  0  0  0  0  0  0  0  0
    4.1073   71.5267   80.4848 C   0  0  0  0  0  0  0  0  0  0  0  0
    3.5435   70.0978   80.4170 C   0  0  0  0  0  0  0  0  0  0  0  0
    3.6539   65.1606   85.9922 O   0  0  0  0  0  0  0  0  0  0  0  0
    5.0861   65.1722   86.0838 C   0  0  0  0  0  0  0  0  0  0  0  0
    5.4583   65.4603   87.5262 C   0  0  0  0  0  0  0  0  0  0  0  0
 22 23  1  0  0  0
 23 21  1  0  0  0
 21 20  1  0  0  0
 20 19  1  0  0  0
 19 18  1  0  0  0
 18 17  1  0  0  0
 17 16  1  0  0  0
 16  7  1  0  0  0
  7  8  1  0  0  0
  8  9  2  0  0  0
  9  1  1  0  0  0
  1  2  1  0  0  0
  2  3  2  0  0  0
  3 24  1  0  0  0
 24 25  2  0  0  0
 24 26  2  0  0  0
 24 27  1  0  0  0
 27 28  1  0  0  0
 28 29  1  0  0  0
 29 30  1  0  0  0
 30 31  1  0  0  0
 30 32  1  0  0  0
 32 33  1  0  0  0
  3  4  1  0  0  0
  4  5  2  0  0  0
  5  6  1  0  0  0
  6 34  1  0  0  0
 34 35  1  0  0  0
 35 36  1  0  0  0
  9 10  1  0  0  0
 10 11  1  0  0  0
 11 12  2  0  0  0
 11 13  1  0  0  0
 13 14  1  0  0  0
 13  7  2  0  0  0
  6  1  2  0  0  0
 33 27  1  0  0  0
 10 15  1  0  0  0
M  END
> <minimizedAffinity>
-9.04619

$$$$



 36 38  0  0  0  0  0  0  0  0999 V2000
    1.8599   65.8472   84.4704 C   0  0  0  0  0  0  0  0  0  0  0  0
    1.3856   66.6691   83.4371 C   0  0  0  0  0  0  0  0  0  0  0  0
    2.2473   67.5794   82.8204 C   0  0  0  0  0  0  0  0  0  0  0  0
    3.5904   67.6596   83.1932 C   0  0  0  0  0  0  0  0  0  0  0  0
    4.0652   66.8536   84.2270 C   0  0  0  0  0  0  0  0  0  0  0  0
    3.1993   65.9691   84.8820 C   0  0  0  0  0  0  0  0  0  0  0  0
   -0.8257   63.3795   85.0304 C   0  0  0  0  0  0  0  0  0  0  0  0
    0.0924   64.1932   84.3972 N   0  0  0  0  0  0  0  0  0  0  0  0
    0.8865   64.9186   85.1169 C   0  0  0  0  0  0  0  0  0  0  0  0
    0.8725   64.8654   86.4830 N   0  0  0  0  0  0  0  0  0  0  0  0
    0.0334   64.0549   87.1893 C   0  0  0  0  0  0  0  0  0  0  0  0
    0.0566   64.0393   88.4163 O   0  0  0  0  0  0  0  0  0  0  0  0
   -0.8982   63.2297   86.3703 C   0  0  0  0  0  0  0  0  0  0  0  0
   -2.0799   62.1096   87.2843 Br  0  0  0  0  0  0  0  0  0  0  0  0
    1.4990   65.4475   87.0264 H   0  0  0  0  0  0  0  0  0  0  0  0
   -1.7281   62.6353   84.0616 C   0  0  0  0  0  0  0  0  0  0  0  0
   -1.9024   63.2885   82.6808 C   0  0  0  0  0  0  0  0  0  0  0  0
   -2.6456   62.4586   81.6247 C   0  0  0  0  0  0  0  0  0  0  0  0
   -1.8517   61.4108   80.8410 C   0  0  0  0  0  0  0  0  0  0  0  0
   -0.3835   61.2894   81.2543 C   0  0  0  0  0  0  0  0  0  0  0  0
    0.5866   61.8771   80.2232 C   0  0  0  0  0  0  0  0  0  0  0  0
    0.9441   63.1969   78.0694 C   0  0  0  0  0  0  0  0  0  0  0  0
   -0.0577   62.5244   78.9947 C   0  0  0  0  0  0  0  0  0  0  0  0
    1.6538   68.6246   81.5111 S   0  0  0  0  0  0  0  0  0  0  0  0
    0.3262   68.1899   81.1346 O   0  0  0  0  0  0  0  0  0  0  0  0
    2.7197   68.7272   80.5373 O   0  0  0  0  0  0  0  0  0  0  0  0
    1.5051   70.1282   82.2974 N   0  0  0  0  0  0  0  0  0  0  0  0
    0.3824   71.0072   81.8333 C   0  0  0  0  0  0  0  0  0  0  0  0
    0.8846   72.2449   81.0682 C   0  0  0  0  0  0  0  0  0  0  0  0
    1.8351   73.0935   81.8143 N   0  0  0  0  0  0  0  0  0  0  0  0
    1.1879   74.2555   82.4157 C   0  0  0  0  0  0  0  0  0  0  0  0
    2.5769   72.3203   82.8296 C   0  0  0  0  0  0  0  0  0  0  0  0
    2.8095   70.8594   82.4102 C   0  0  0  0  0  0  0  0  0  0  0  0
    3.6749   65.1882   85.9064 O   0  0  0  0  0  0  0  0  0  0  0  0
    5.1069   65.2284   85.9921 C   0  0  0  0  0  0  0  0  0  0  0  0
    5.4815   65.4069   87.4515 C   0  0  0  0  0  0  0  0  0  0  0  0
 22 23  1  0  0  0
 23 21  1  0  0  0
 21 20  1  0  0  0
 20 19  1  0  0  0
 19 18  1  0  0  0
 18 17  1  0  0  0
 17 16  1  0  0  0
 16  7  1  0  0  0
  7  8  1  0  0  0
  8  9  2  0  0  0
  9  1  1  0  0  0
  1  2  1  0  0  0
  2  3  2  0  0  0
  3 24  1  0  0  0
 24 25  2  0  0  0
 24 26  2  0  0  0
 24 27  1  0  0  0
 27 28  1  0  0  0
 28 29  1  0  0  0
 29 30  1  0  0  0
 30 31  1  0  0  0
 30 32  1  0  0  0
 32 33  1  0  0  0
  3  4  1  0  0  0
  4  5  2  0  0  0
  5  6  1  0  0  0
  6 34  1  0  0  0
 34 35  1  0  0  0
 35 36  1  0  0  0
  9 10  1  0  0  0
 10 11  1  0  0  0
 11 12  2  0  0  0
 11 13  1  0  0  0
 13 14  1  0  0  0
 13  7  2  0  0  0
  6  1  2  0  0  0
 33 27  1  0  0  0
 10 15  1  0  0  0
M  END
> <minimizedAffinity>
-9.01374

$$$$



 36 38  0  0  0  0  0  0  0  0999 V2000
    1.2649   64.7598   84.6679 C   0  0  0  0  0  0  0  0  0  0  0  0
    0.8272   64.6375   83.3407 C   0  0  0  0  0  0  0  0  0  0  0  0
   -0.3102   63.8805   83.0496 C   0  0  0  0  0  0  0  0  0  0  0  0
   -1.0439   63.2697   84.0685 C   0  0  0  0  0  0  0  0  0  0  0  0
   -0.6078   63.3780   85.3882 C   0  0  0  0  0  0  0  0  0  0  0  0
    0.5560   64.0975   85.6863 C   0  0  0  0  0  0  0  0  0  0  0  0
    3.8819   67.3572   84.5256 C   0  0  0  0  0  0  0  0  0  0  0  0
    2.7022   66.6749   84.3051 N   0  0  0  0  0  0  0  0  0  0  0  0
    2.5058   65.5512   84.9162 C   0  0  0  0  0  0  0  0  0  0  0  0
    3.4119   65.0468   85.8072 N   0  0  0  0  0  0  0  0  0  0  0  0
    4.5795   65.6773   86.1213 C   0  0  0  0  0  0  0  0  0  0  0  0
    5.3634   65.1872   86.9285 O   0  0  0  0  0  0  0  0  0  0  0  0
    4.8240   66.9626   85.4087 C   0  0  0  0  0  0  0  0  0  0  0  0
    6.4138   67.8647   85.7896 Br  0  0  0  0  0  0  0  0  0  0  0  0
    3.2401   64.1614   86.2691 H   0  0  0  0  0  0  0  0  0  0  0  0
    3.9992   68.6249   83.6973 C   0  0  0  0  0  0  0  0  0  0  0  0
    2.6790   69.3636   83.4229 C   0  0  0  0  0  0  0  0  0  0  0  0
    2.6180   70.1899   82.1307 C   0  0  0  0  0  0  0  0  0  0  0  0
    1.3070   70.9038   81.7924 C   0  0  0  0  0  0  0  0  0  0  0  0
    0.1536   69.9684   81.4240 C   0  0  0  0  0  0  0  0  0  0  0  0
    0.5405   68.9098   80.3851 C   0  0  0  0  0  0  0  0  0  0  0  0
    1.9127   66.7733   80.6326 C   0  0  0  0  0  0  0  0  0  0  0  0
    0.5831   67.4650   80.8891 C   0  0  0  0  0  0  0  0  0  0  0  0
   -0.8707   63.7201   81.3706 S   0  0  0  0  0  0  0  0  0  0  0  0
    0.2777   63.5174   80.5143 O   0  0  0  0  0  0  0  0  0  0  0  0
   -1.8086   64.7971   81.1344 O   0  0  0  0  0  0  0  0  0  0  0  0
   -1.7426   62.2580   81.4259 N   0  0  0  0  0  0  0  0  0  0  0  0
   -1.0849   61.0730   80.7842 C   0  0  0  0  0  0  0  0  0  0  0  0
   -1.7954   60.6375   79.4900 C   0  0  0  0  0  0  0  0  0  0  0  0
   -3.2294   60.3213   79.6444 N   0  0  0  0  0  0  0  0  0  0  0  0
   -3.4725   58.8862   79.7561 C   0  0  0  0  0  0  0  0  0  0  0  0
   -3.8294   61.0466   80.7814 C   0  0  0  0  0  0  0  0  0  0  0  0
   -3.1776   62.4184   81.0209 C   0  0  0  0  0  0  0  0  0  0  0  0
    0.9827   64.1882   86.9883 O   0  0  0  0  0  0  0  0  0  0  0  0
   -0.0698   63.8982   87.9198 C   0  0  0  0  0  0  0  0  0  0  0  0
    0.4722   62.9201   88.9453 C   0  0  0  0  0  0  0  0  0  0  0  0
 22 23  1  0  0  0
 23 21  1  0  0  0
 21 20  1  0  0  0
 20 19  1  0  0  0
 19 18  1  0  0  0
 18 17  1  0  0  0
 17 16  1  0  0  0
 16  7  1  0  0  0
  7  8  1  0  0  0
  8  9  2  0  0  0
  9  1  1  0  0  0
  1  2  1  0  0  0
  2  3  2  0  0  0
  3 24  1  0  0  0
 24 25  2  0  0  0
 24 26  2  0  0  0
 24 27  1  0  0  0
 27 28  1  0  0  0
 28 29  1  0  0  0
 29 30  1  0  0  0
 30 31  1  0  0  0
 30 32  1  0  0  0
 32 33  1  0  0  0
  3  4  1  0  0  0
  4  5  2  0  0  0
  5  6  1  0  0  0
  6 34  1  0  0  0
 34 35  1  0  0  0
 35 36  1  0  0  0
  9 10  1  0  0  0
 10 11  1  0  0  0
 11 12  2  0  0  0
 11 13  1  0  0  0
 13 14  1  0  0  0
 13  7  2  0  0  0
  6  1  2  0  0  0
 33 27  1  0  0  0
 10 15  1  0  0  0
M  END
> <minimizedAffinity>
-8.97467

$$$$
