
     RDKit          3D

 50 52  0  0  0  0  0  0  0  0999 V2000
   -0.0956   -4.6796    1.4668 C   0  0  0  0  0  0  0  0  0  0  0  0
   -0.0745   -3.2815    2.0577 C   0  0  0  0  0  0  0  0  0  0  0  0
    1.0446   -2.4314    1.4654 C   0  0  0  0  0  0  0  0  0  0  0  0
    0.9703   -1.1311    2.0655 O   0  0  0  0  0  0  0  0  0  0  0  0
    1.7443   -0.2337    1.3813 C   0  0  0  0  0  0  0  0  0  0  0  0
    3.1200   -0.2195    1.6066 C   0  0  0  0  0  0  0  0  0  0  0  0
    3.9182    0.7475    0.9892 C   0  0  0  0  0  0  0  0  0  0  0  0
    3.3498    1.7217    0.1574 C   0  0  0  0  0  0  0  0  0  0  0  0
    4.2248    2.6661   -0.4186 N   0  0  0  0  0  0  0  0  0  0  0  0
    3.8823    3.7682   -1.1816 C   0  0  0  0  0  0  0  0  0  0  0  0
    5.0882    4.5436   -1.6504 C   0  0  0  0  0  0  0  0  0  0  0  0
    2.7477    4.1465   -1.4506 O   0  0  0  0  0  0  0  0  0  0  0  0
    1.9696    1.7072   -0.0584 C   0  0  0  0  0  0  0  0  0  0  0  0
    1.1652    0.7377    0.5604 C   0  0  0  0  0  0  0  0  0  0  0  0
   -0.2926    0.7560    0.3075 C   0  0  0  0  0  0  0  0  0  0  0  0
   -0.9125   -0.3058   -0.1299 N   0  0  0  0  0  0  0  0  0  0  0  0
   -2.2429   -0.1135   -0.3094 C   0  0  0  0  0  0  0  0  0  0  0  0
   -2.9644    1.0325   -0.0855 C   0  0  0  0  0  0  0  0  0  0  0  0
   -4.2954    0.7248   -0.4208 C   0  0  0  0  0  0  0  0  0  0  0  0
   -5.4790    1.6143   -0.3587 C   0  0  0  0  0  0  0  0  0  0  0  0
   -4.4106   -0.5478   -0.8378 N   0  0  0  0  0  0  0  0  0  0  0  0
   -3.1465   -1.0337   -0.7602 N   0  0  0  0  0  0  0  0  0  0  0  0
   -2.8763   -2.4044   -1.1405 C   0  0  0  0  0  0  0  0  0  0  0  0
   -2.5393   -2.5336   -2.6148 C   0  0  0  0  0  0  0  0  0  0  0  0
   -2.2775    2.1938    0.3975 C   0  0  0  0  0  0  0  0  0  0  0  0
   -2.8144    3.2659    0.6504 O   0  0  0  0  0  0  0  0  0  0  0  0
   -0.9213    1.9764    0.5581 N   0  0  0  0  0  0  0  0  0  0  0  0
   -0.2525   -4.6454    0.3840 H   0  0  0  0  0  0  0  0  0  0  0  0
   -0.9070   -5.2660    1.9089 H   0  0  0  0  0  0  0  0  0  0  0  0
    0.8465   -5.2018    1.6614 H   0  0  0  0  0  0  0  0  0  0  0  0
    0.0453   -3.3389    3.1462 H   0  0  0  0  0  0  0  0  0  0  0  0
   -1.0400   -2.7907    1.8870 H   0  0  0  0  0  0  0  0  0  0  0  0
    2.0161   -2.8861    1.6942 H   0  0  0  0  0  0  0  0  0  0  0  0
    0.9287   -2.3694    0.3757 H   0  0  0  0  0  0  0  0  0  0  0  0
    3.5709   -0.9468    2.2765 H   0  0  0  0  0  0  0  0  0  0  0  0
    4.9880    0.7350    1.1836 H   0  0  0  0  0  0  0  0  0  0  0  0
    5.2091    2.5455   -0.2131 H   0  0  0  0  0  0  0  0  0  0  0  0
    4.8478    5.0543   -2.5873 H   0  0  0  0  0  0  0  0  0  0  0  0
    5.9369    3.8790   -1.8363 H   0  0  0  0  0  0  0  0  0  0  0  0
    5.3603    5.2815   -0.8914 H   0  0  0  0  0  0  0  0  0  0  0  0
    1.4987    2.4232   -0.7246 H   0  0  0  0  0  0  0  0  0  0  0  0
   -5.6398    1.9643    0.6659 H   0  0  0  0  0  0  0  0  0  0  0  0
   -6.3878    1.0987   -0.6861 H   0  0  0  0  0  0  0  0  0  0  0  0
   -5.3349    2.4869   -1.0038 H   0  0  0  0  0  0  0  0  0  0  0  0
   -3.7623   -2.9997   -0.8933 H   0  0  0  0  0  0  0  0  0  0  0  0
   -2.0494   -2.7709   -0.5237 H   0  0  0  0  0  0  0  0  0  0  0  0
   -1.6492   -1.9485   -2.8693 H   0  0  0  0  0  0  0  0  0  0  0  0
   -3.3636   -2.1763   -3.2411 H   0  0  0  0  0  0  0  0  0  0  0  0
   -2.3446   -3.5798   -2.8699 H   0  0  0  0  0  0  0  0  0  0  0  0
   -0.3993    2.7654    0.9098 H   0  0  0  0  0  0  0  0  0  0  0  0
  1  2  1  0
  2  3  1  0
  3  4  1  0
  4  5  1  0
  5  6  1  0
  6  7  2  0
  7  8  1  0
  8  9  1  0
  9 10  1  0
 10 11  1  0
 10 12  2  0
  8 13  2  0
 13 14  1  0
 14 15  1  0
 15 16  2  0
 16 17  1  0
 17 18  2  0
 18 19  1  0
 19 20  1  0
 19 21  2  0
 21 22  1  0
 22 23  1  0
 23 24  1  0
 18 25  1  0
 25 26  2  0
 25 27  1  0
 14  5  2  0
 27 15  1  0
 22 17  1  0
  1 28  1  0
  1 29  1  0
  1 30  1  0
  2 31  1  0
  2 32  1  0
  3 33  1  0
  3 34  1  0
  6 35  1  0
  7 36  1  0
  9 37  1  0
 11 38  1  0
 11 39  1  0
 11 40  1  0
 13 41  1  0
 20 42  1  0
 20 43  1  0
 20 44  1  0
 23 45  1  0
 23 46  1  0
 24 47  1  0
 24 48  1  0
 24 49  1  0
 27 50  1  0
M  END
$$$$
