


 32 35  0  0  0  0  0  0  0  0999 V2000
   -0.3613   63.1276   84.9779 N   0  0  0  0  0  0  0  0  0  0  0  0
    0.2677   64.3744   85.0755 C   0  0  0  0  0  0  0  0  0  0  0  0
    0.4319   64.9754   86.1334 O   0  0  0  0  0  0  0  0  0  0  0  0
    0.6696   64.8966   83.8158 C   0  0  0  0  0  0  0  0  0  0  0  0
    0.4086   64.2671   82.6391 C   0  0  0  0  0  0  0  0  0  0  0  0
    0.8598   64.9764   81.5732 N   0  0  0  0  0  0  0  0  0  0  0  0
    1.4107   66.0587   82.0824 C   0  0  0  0  0  0  0  0  0  0  0  0
    1.3546   66.0335   83.4657 N   0  0  0  0  0  0  0  0  0  0  0  0
   -0.2559   63.0647   82.5869 N   0  0  0  0  0  0  0  0  0  0  0  0
   -0.6934   62.4747   83.7743 C   0  0  0  0  0  0  0  0  0  0  0  0
   -1.3515   61.4299   83.7701 O   0  0  0  0  0  0  0  0  0  0  0  0
   -2.2522   62.8961   86.5485 C   0  0  0  0  0  0  0  0  0  0  0  0
   -0.8157   62.5133   86.2201 C   0  0  0  0  0  0  0  0  0  0  0  0
    1.9804   67.0763   81.3965 N   0  0  0  0  0  0  0  0  0  0  0  0
    2.6166   67.7101   81.8667 H   0  0  0  0  0  0  0  0  0  0  0  0
    1.2098   67.7070   80.3240 C   0  0  0  0  0  0  0  0  0  0  0  0
    1.9877   68.9134   79.7838 C   0  0  0  0  0  0  0  0  0  0  0  0
    1.4519   70.0956   80.5762 C   0  0  0  0  0  0  0  0  0  0  0  0
   -0.0333   69.7946   80.6672 C   0  0  0  0  0  0  0  0  0  0  0  0
   -0.1095   68.2830   80.8670 C   0  0  0  0  0  0  0  0  0  0  0  0
   -0.5743   62.4417   81.3073 C   0  0  0  0  0  0  0  0  0  0  0  0
    0.5507   61.5420   80.8192 C   0  0  0  0  0  0  0  0  0  0  0  0
    1.9289   67.0018   84.3856 C   0  0  0  0  0  0  0  0  0  0  0  0
    3.4021   66.7594   84.6128 C   0  0  0  0  0  0  0  0  0  0  0  0
    4.3677   67.6693   84.1546 C   0  0  0  0  0  0  0  0  0  0  0  0
    5.7344   67.4429   84.3691 C   0  0  0  0  0  0  0  0  0  0  0  0
    6.1613   66.3026   85.0504 C   0  0  0  0  0  0  0  0  0  0  0  0
    5.1974   65.4010   85.5096 C   0  0  0  0  0  0  0  0  0  0  0  0
    5.5713   64.2948   86.1712 F   0  0  0  0  0  0  0  0  0  0  0  0
    3.8365   65.6186   85.2982 C   0  0  0  0  0  0  0  0  0  0  0  0
    7.4618   65.9752   85.3213 O   0  0  0  0  0  0  0  0  0  0  0  0
    8.4706   66.8035   84.7592 C   0  0  0  0  0  0  0  0  0  0  0  0
 12 13  1  0  0  0
 13  1  1  0  0  0
  1  2  1  0  0  0
  2  3  2  0  0  0
  2  4  1  0  0  0
  4  5  2  0  0  0
  5  6  1  0  0  0
  6  7  2  0  0  0
  7 14  1  0  0  0
 14 16  1  0  0  0
 16 17  1  0  0  0
 17 18  1  0  0  0
 18 19  1  0  0  0
 19 20  1  0  0  0
  7  8  1  0  0  0
  8 23  1  0  0  0
 23 24  1  0  0  0
 24 25  1  0  0  0
 25 26  2  0  0  0
 26 27  1  0  0  0
 27 31  1  0  0  0
 31 32  1  0  0  0
 27 28  2  0  0  0
 28 29  1  0  0  0
 28 30  1  0  0  0
  5  9  1  0  0  0
  9 21  1  0  0  0
 21 22  1  0  0  0
  9 10  1  0  0  0
 10 11  2  0  0  0
 10  1  1  0  0  0
  8  4  1  0  0  0
 30 24  2  0  0  0
 20 16  1  0  0  0
 14 15  1  0  0  0
M  END
> <minimizedAffinity>
-9.34991

$$$$



 32 35  0  0  0  0  0  0  0  0999 V2000
   -0.9681   62.8975   85.5869 N   0  0  0  0  0  0  0  0  0  0  0  0
   -1.7472   62.6463   84.4514 C   0  0  0  0  0  0  0  0  0  0  0  0
   -2.7096   61.8840   84.4387 O   0  0  0  0  0  0  0  0  0  0  0  0
   -1.2904   63.3386   83.2970 C   0  0  0  0  0  0  0  0  0  0  0  0
   -0.1733   64.1141   83.2957 C   0  0  0  0  0  0  0  0  0  0  0  0
    0.0771   64.6413   82.0702 N   0  0  0  0  0  0  0  0  0  0  0  0
   -0.8901   64.1967   81.2950 C   0  0  0  0  0  0  0  0  0  0  0  0
   -1.7818   63.4225   82.0180 N   0  0  0  0  0  0  0  0  0  0  0  0
    0.5905   64.2946   84.4246 N   0  0  0  0  0  0  0  0  0  0  0  0
    0.2222   63.6512   85.6077 C   0  0  0  0  0  0  0  0  0  0  0  0
    0.9147   63.7312   86.6269 O   0  0  0  0  0  0  0  0  0  0  0  0
   -2.3904   63.0260   87.6010 C   0  0  0  0  0  0  0  0  0  0  0  0
   -1.3563   62.2253   86.8216 C   0  0  0  0  0  0  0  0  0  0  0  0
   -1.0473   64.4441   79.9741 N   0  0  0  0  0  0  0  0  0  0  0  0
   -1.9140   64.1939   79.5118 H   0  0  0  0  0  0  0  0  0  0  0  0
    0.1279   64.3527   79.1067 C   0  0  0  0  0  0  0  0  0  0  0  0
   -0.2442   64.8316   77.6980 C   0  0  0  0  0  0  0  0  0  0  0  0
   -0.6286   63.5617   76.9551 C   0  0  0  0  0  0  0  0  0  0  0  0
    0.3924   62.5562   77.4563 C   0  0  0  0  0  0  0  0  0  0  0  0
    0.5669   62.8880   78.9362 C   0  0  0  0  0  0  0  0  0  0  0  0
    1.8161   65.0837   84.3794 C   0  0  0  0  0  0  0  0  0  0  0  0
    1.5281   66.5767   84.3432 C   0  0  0  0  0  0  0  0  0  0  0  0
   -3.0188   62.8284   81.5378 C   0  0  0  0  0  0  0  0  0  0  0  0
   -2.7821   61.8954   80.3741 C   0  0  0  0  0  0  0  0  0  0  0  0
   -1.9029   60.8065   80.4825 C   0  0  0  0  0  0  0  0  0  0  0  0
   -1.6870   59.9407   79.4014 C   0  0  0  0  0  0  0  0  0  0  0  0
   -2.3504   60.1456   78.1912 C   0  0  0  0  0  0  0  0  0  0  0  0
   -3.2287   61.2276   78.0877 C   0  0  0  0  0  0  0  0  0  0  0  0
   -3.8861   61.4537   76.9397 F   0  0  0  0  0  0  0  0  0  0  0  0
   -3.4469   62.0941   79.1581 C   0  0  0  0  0  0  0  0  0  0  0  0
   -2.2237   59.3706   77.0708 O   0  0  0  0  0  0  0  0  0  0  0  0
   -0.9098   59.1602   76.5718 C   0  0  0  0  0  0  0  0  0  0  0  0
 12 13  1  0  0  0
 13  1  1  0  0  0
  1  2  1  0  0  0
  2  3  2  0  0  0
  2  4  1  0  0  0
  4  5  2  0  0  0
  5  6  1  0  0  0
  6  7  2  0  0  0
  7 14  1  0  0  0
 14 16  1  0  0  0
 16 17  1  0  0  0
 17 18  1  0  0  0
 18 19  1  0  0  0
 19 20  1  0  0  0
  7  8  1  0  0  0
  8 23  1  0  0  0
 23 24  1  0  0  0
 24 25  1  0  0  0
 25 26  2  0  0  0
 26 27  1  0  0  0
 27 31  1  0  0  0
 31 32  1  0  0  0
 27 28  2  0  0  0
 28 29  1  0  0  0
 28 30  1  0  0  0
  5  9  1  0  0  0
  9 21  1  0  0  0
 21 22  1  0  0  0
  9 10  1  0  0  0
 10 11  2  0  0  0
 10  1  1  0  0  0
  8  4  1  0  0  0
 30 24  2  0  0  0
 20 16  1  0  0  0
 14 15  1  0  0  0
M  END
> <minimizedAffinity>
-8.97379

$$$$



 32 35  0  0  0  0  0  0  0  0999 V2000
   -0.2090   63.4843   83.1131 N   0  0  0  0  0  0  0  0  0  0  0  0
    0.3576   64.6221   83.6998 C   0  0  0  0  0  0  0  0  0  0  0  0
    0.4198   64.8061   84.9121 O   0  0  0  0  0  0  0  0  0  0  0  0
    0.8262   65.5667   82.7464 C   0  0  0  0  0  0  0  0  0  0  0  0
    0.6775   65.3972   81.4054 C   0  0  0  0  0  0  0  0  0  0  0  0
    1.1733   66.4478   80.7030 N   0  0  0  0  0  0  0  0  0  0  0  0
    1.6395   67.2833   81.6079 C   0  0  0  0  0  0  0  0  0  0  0  0
    1.4854   66.7632   82.8818 N   0  0  0  0  0  0  0  0  0  0  0  0
    0.0702   64.2841   80.8738 N   0  0  0  0  0  0  0  0  0  0  0  0
   -0.4257   63.3016   81.7329 C   0  0  0  0  0  0  0  0  0  0  0  0
   -1.0366   62.3186   81.3027 O   0  0  0  0  0  0  0  0  0  0  0  0
   -2.1766   62.7168   84.3919 C   0  0  0  0  0  0  0  0  0  0  0  0
   -0.7247   62.4591   84.0131 C   0  0  0  0  0  0  0  0  0  0  0  0
    2.2131   68.4871   81.3787 N   0  0  0  0  0  0  0  0  0  0  0  0
    2.8124   68.9043   82.0818 H   0  0  0  0  0  0  0  0  0  0  0  0
    1.4742   69.4668   80.5811 C   0  0  0  0  0  0  0  0  0  0  0  0
    2.1025   70.8528   80.7728 C   0  0  0  0  0  0  0  0  0  0  0  0
    1.2989   71.4804   81.9011 C   0  0  0  0  0  0  0  0  0  0  0  0
   -0.1192   71.0348   81.5927 C   0  0  0  0  0  0  0  0  0  0  0  0
    0.0275   69.6019   81.0870 C   0  0  0  0  0  0  0  0  0  0  0  0
   -0.1287   64.1568   79.4347 C   0  0  0  0  0  0  0  0  0  0  0  0
    0.9717   63.3352   78.7808 C   0  0  0  0  0  0  0  0  0  0  0  0
    1.9504   67.3454   84.1302 C   0  0  0  0  0  0  0  0  0  0  0  0
    3.3992   67.0162   84.4012 C   0  0  0  0  0  0  0  0  0  0  0  0
    4.4246   67.9110   84.0570 C   0  0  0  0  0  0  0  0  0  0  0  0
    5.7684   67.6038   84.3120 C   0  0  0  0  0  0  0  0  0  0  0  0
    6.1120   66.3962   84.9204 C   0  0  0  0  0  0  0  0  0  0  0  0
    5.0887   65.5096   85.2662 C   0  0  0  0  0  0  0  0  0  0  0  0
    5.3819   64.3399   85.8554 F   0  0  0  0  0  0  0  0  0  0  0  0
    3.7501   65.8074   85.0139 C   0  0  0  0  0  0  0  0  0  0  0  0
    7.3827   65.9874   85.2209 O   0  0  0  0  0  0  0  0  0  0  0  0
    8.4510   66.8234   84.7972 C   0  0  0  0  0  0  0  0  0  0  0  0
 12 13  1  0  0  0
 13  1  1  0  0  0
  1  2  1  0  0  0
  2  3  2  0  0  0
  2  4  1  0  0  0
  4  5  2  0  0  0
  5  6  1  0  0  0
  6  7  2  0  0  0
  7 14  1  0  0  0
 14 16  1  0  0  0
 16 17  1  0  0  0
 17 18  1  0  0  0
 18 19  1  0  0  0
 19 20  1  0  0  0
  7  8  1  0  0  0
  8 23  1  0  0  0
 23 24  1  0  0  0
 24 25  1  0  0  0
 25 26  2  0  0  0
 26 27  1  0  0  0
 27 31  1  0  0  0
 31 32  1  0  0  0
 27 28  2  0  0  0
 28 29  1  0  0  0
 28 30  1  0  0  0
  5  9  1  0  0  0
  9 21  1  0  0  0
 21 22  1  0  0  0
  9 10  1  0  0  0
 10 11  2  0  0  0
 10  1  1  0  0  0
  8  4  1  0  0  0
 30 24  2  0  0  0
 20 16  1  0  0  0
 14 15  1  0  0  0
M  END
> <minimizedAffinity>
-8.92795

$$$$



 32 35  0  0  0  0  0  0  0  0999 V2000
   -1.1746   63.5641   82.2599 N   0  0  0  0  0  0  0  0  0  0  0  0
   -0.1176   64.4178   81.9230 C   0  0  0  0  0  0  0  0  0  0  0  0
    0.2015   64.6866   80.7683 O   0  0  0  0  0  0  0  0  0  0  0  0
    0.5776   64.9193   83.0570 C   0  0  0  0  0  0  0  0  0  0  0  0
    0.2747   64.5509   84.3305 C   0  0  0  0  0  0  0  0  0  0  0  0
    1.0986   65.1351   85.2374 N   0  0  0  0  0  0  0  0  0  0  0  0
    1.9244   65.8784   84.5304 C   0  0  0  0  0  0  0  0  0  0  0  0
    1.6147   65.8099   83.1826 N   0  0  0  0  0  0  0  0  0  0  0  0
   -0.7429   63.6703   84.6124 N   0  0  0  0  0  0  0  0  0  0  0  0
   -1.4810   63.1215   83.5620 C   0  0  0  0  0  0  0  0  0  0  0  0
   -2.3588   62.2770   83.7641 O   0  0  0  0  0  0  0  0  0  0  0  0
   -1.3272   61.6995   80.6488 C   0  0  0  0  0  0  0  0  0  0  0  0
   -1.9447   62.9936   81.1606 C   0  0  0  0  0  0  0  0  0  0  0  0
    2.9405   66.6352   85.0052 N   0  0  0  0  0  0  0  0  0  0  0  0
    2.8588   67.6456   85.0117 H   0  0  0  0  0  0  0  0  0  0  0  0
    4.3103   66.1585   84.8101 C   0  0  0  0  0  0  0  0  0  0  0  0
    4.8095   65.5085   86.1065 C   0  0  0  0  0  0  0  0  0  0  0  0
    5.5295   66.6295   86.8398 C   0  0  0  0  0  0  0  0  0  0  0  0
    6.2489   67.3575   85.7186 C   0  0  0  0  0  0  0  0  0  0  0  0
    5.2657   67.3363   84.5508 C   0  0  0  0  0  0  0  0  0  0  0  0
   -1.0068   63.2473   85.9829 C   0  0  0  0  0  0  0  0  0  0  0  0
   -0.4108   61.8796   86.2789 C   0  0  0  0  0  0  0  0  0  0  0  0
    2.2389   66.5520   82.0994 C   0  0  0  0  0  0  0  0  0  0  0  0
    1.6959   67.9571   81.9917 C   0  0  0  0  0  0  0  0  0  0  0  0
    0.5494   68.2371   81.2317 C   0  0  0  0  0  0  0  0  0  0  0  0
    0.0462   69.5419   81.1355 C   0  0  0  0  0  0  0  0  0  0  0  0
    0.6787   70.5920   81.8019 C   0  0  0  0  0  0  0  0  0  0  0  0
    1.8171   70.3093   82.5616 C   0  0  0  0  0  0  0  0  0  0  0  0
    2.4497   71.2941   83.2183 F   0  0  0  0  0  0  0  0  0  0  0  0
    2.3245   69.0144   82.6602 C   0  0  0  0  0  0  0  0  0  0  0  0
    0.2820   71.9013   81.7857 O   0  0  0  0  0  0  0  0  0  0  0  0
   -1.0770   72.1641   81.4638 C   0  0  0  0  0  0  0  0  0  0  0  0
 12 13  1  0  0  0
 13  1  1  0  0  0
  1  2  1  0  0  0
  2  3  2  0  0  0
  2  4  1  0  0  0
  4  5  2  0  0  0
  5  6  1  0  0  0
  6  7  2  0  0  0
  7 14  1  0  0  0
 14 16  1  0  0  0
 16 17  1  0  0  0
 17 18  1  0  0  0
 18 19  1  0  0  0
 19 20  1  0  0  0
  7  8  1  0  0  0
  8 23  1  0  0  0
 23 24  1  0  0  0
 24 25  1  0  0  0
 25 26  2  0  0  0
 26 27  1  0  0  0
 27 31  1  0  0  0
 31 32  1  0  0  0
 27 28  2  0  0  0
 28 29  1  0  0  0
 28 30  1  0  0  0
  5  9  1  0  0  0
  9 21  1  0  0  0
 21 22  1  0  0  0
  9 10  1  0  0  0
 10 11  2  0  0  0
 10  1  1  0  0  0
  8  4  1  0  0  0
 30 24  2  0  0  0
 20 16  1  0  0  0
 14 15  1  0  0  0
M  END
> <minimizedAffinity>
-8.89889

$$$$



 32 35  0  0  0  0  0  0  0  0999 V2000
   -0.4528   63.0406   85.1616 N   0  0  0  0  0  0  0  0  0  0  0  0
    0.2208   64.2618   85.2829 C   0  0  0  0  0  0  0  0  0  0  0  0
    0.4112   64.8332   86.3528 O   0  0  0  0  0  0  0  0  0  0  0  0
    0.6353   64.7967   84.0328 C   0  0  0  0  0  0  0  0  0  0  0  0
    0.3466   64.2029   82.8440 C   0  0  0  0  0  0  0  0  0  0  0  0
    0.8178   64.9188   81.7914 N   0  0  0  0  0  0  0  0  0  0  0  0
    1.4094   65.9694   82.3210 C   0  0  0  0  0  0  0  0  0  0  0  0
    1.3588   65.9160   83.7037 N   0  0  0  0  0  0  0  0  0  0  0  0
   -0.3608   63.0263   82.7693 N   0  0  0  0  0  0  0  0  0  0  0  0
   -0.8135   62.4264   83.9459 C   0  0  0  0  0  0  0  0  0  0  0  0
   -1.5085   61.4061   83.9226 O   0  0  0  0  0  0  0  0  0  0  0  0
   -2.3232   62.8832   86.7656 C   0  0  0  0  0  0  0  0  0  0  0  0
   -0.9231   62.4157   86.3926 C   0  0  0  0  0  0  0  0  0  0  0  0
    2.0119   66.9809   81.6543 N   0  0  0  0  0  0  0  0  0  0  0  0
    2.9219   67.3129   81.9531 H   0  0  0  0  0  0  0  0  0  0  0  0
    1.1695   68.0249   81.0693 C   0  0  0  0  0  0  0  0  0  0  0  0
    1.7815   68.4833   79.7398 C   0  0  0  0  0  0  0  0  0  0  0  0
    2.6414   69.6812   80.1115 C   0  0  0  0  0  0  0  0  0  0  0  0
    1.7923   70.3970   81.1465 C   0  0  0  0  0  0  0  0  0  0  0  0
    1.1531   69.2769   81.9634 C   0  0  0  0  0  0  0  0  0  0  0  0
   -0.7071   62.4432   81.4782 C   0  0  0  0  0  0  0  0  0  0  0  0
    0.4113   61.5685   80.9328 C   0  0  0  0  0  0  0  0  0  0  0  0
    1.9715   66.8429   84.6413 C   0  0  0  0  0  0  0  0  0  0  0  0
    3.4322   66.5332   84.8677 C   0  0  0  0  0  0  0  0  0  0  0  0
    3.8303   65.4546   85.6731 C   0  0  0  0  0  0  0  0  0  0  0  0
    5.1868   65.1680   85.8796 C   0  0  0  0  0  0  0  0  0  0  0  0
    6.1721   65.9534   85.2803 C   0  0  0  0  0  0  0  0  0  0  0  0
    5.7727   67.0235   84.4753 C   0  0  0  0  0  0  0  0  0  0  0  0
    6.6930   67.7987   83.8807 F   0  0  0  0  0  0  0  0  0  0  0  0
    4.4254   67.3158   84.2670 C   0  0  0  0  0  0  0  0  0  0  0  0
    7.5224   65.7717   85.4050 O   0  0  0  0  0  0  0  0  0  0  0  0
    8.2082   65.2141   84.2921 C   0  0  0  0  0  0  0  0  0  0  0  0
 12 13  1  0  0  0
 13  1  1  0  0  0
  1  2  1  0  0  0
  2  3  2  0  0  0
  2  4  1  0  0  0
  4  5  2  0  0  0
  5  6  1  0  0  0
  6  7  2  0  0  0
  7 14  1  0  0  0
 14 16  1  0  0  0
 16 17  1  0  0  0
 17 18  1  0  0  0
 18 19  1  0  0  0
 19 20  1  0  0  0
  7  8  1  0  0  0
  8 23  1  0  0  0
 23 24  1  0  0  0
 24 25  1  0  0  0
 25 26  2  0  0  0
 26 27  1  0  0  0
 27 31  1  0  0  0
 31 32  1  0  0  0
 27 28  2  0  0  0
 28 29  1  0  0  0
 28 30  1  0  0  0
  5  9  1  0  0  0
  9 21  1  0  0  0
 21 22  1  0  0  0
  9 10  1  0  0  0
 10 11  2  0  0  0
 10  1  1  0  0  0
  8  4  1  0  0  0
 30 24  2  0  0  0
 20 16  1  0  0  0
 14 15  1  0  0  0
M  END
> <minimizedAffinity>
-8.85948

$$$$



 32 35  0  0  0  0  0  0  0  0999 V2000
   -1.2098   63.2468   82.4308 N   0  0  0  0  0  0  0  0  0  0  0  0
   -0.1865   64.1076   82.0166 C   0  0  0  0  0  0  0  0  0  0  0  0
    0.1287   64.2781   80.8423 O   0  0  0  0  0  0  0  0  0  0  0  0
    0.4801   64.7435   83.0993 C   0  0  0  0  0  0  0  0  0  0  0  0
    0.1843   64.4859   84.4013 C   0  0  0  0  0  0  0  0  0  0  0  0
    0.9775   65.1877   85.2504 N   0  0  0  0  0  0  0  0  0  0  0  0
    1.7767   65.8937   84.4777 C   0  0  0  0  0  0  0  0  0  0  0  0
    1.4788   65.6842   83.1418 N   0  0  0  0  0  0  0  0  0  0  0  0
   -0.7981   63.5948   84.7635 N   0  0  0  0  0  0  0  0  0  0  0  0
   -1.5062   62.9181   83.7685 C   0  0  0  0  0  0  0  0  0  0  0  0
   -2.3499   62.0610   84.0481 O   0  0  0  0  0  0  0  0  0  0  0  0
   -1.2833   61.2251   81.0155 C   0  0  0  0  0  0  0  0  0  0  0  0
   -1.9486   62.5426   81.3891 C   0  0  0  0  0  0  0  0  0  0  0  0
    2.7577   66.7339   84.8806 N   0  0  0  0  0  0  0  0  0  0  0  0
    2.6054   67.7359   84.8617 H   0  0  0  0  0  0  0  0  0  0  0  0
    4.1473   66.3469   84.6334 C   0  0  0  0  0  0  0  0  0  0  0  0
    4.7069   65.6470   85.8781 C   0  0  0  0  0  0  0  0  0  0  0  0
    5.3793   66.7589   86.6681 C   0  0  0  0  0  0  0  0  0  0  0  0
    6.0355   67.5935   85.5829 C   0  0  0  0  0  0  0  0  0  0  0  0
    5.0318   67.5896   84.4326 C   0  0  0  0  0  0  0  0  0  0  0  0
   -1.0534   63.2939   86.1675 C   0  0  0  0  0  0  0  0  0  0  0  0
   -0.4923   61.9380   86.5678 C   0  0  0  0  0  0  0  0  0  0  0  0
    2.0791   66.3448   81.9942 C   0  0  0  0  0  0  0  0  0  0  0  0
    1.3803   67.6413   81.6602 C   0  0  0  0  0  0  0  0  0  0  0  0
    1.6346   68.8131   82.3900 C   0  0  0  0  0  0  0  0  0  0  0  0
    0.9863   70.0158   82.0762 C   0  0  0  0  0  0  0  0  0  0  0  0
    0.0734   70.0700   81.0225 C   0  0  0  0  0  0  0  0  0  0  0  0
   -0.1741   68.9030   80.2948 C   0  0  0  0  0  0  0  0  0  0  0  0
   -1.0441   68.9186   79.2729 F   0  0  0  0  0  0  0  0  0  0  0  0
    0.4654   67.7028   80.6024 C   0  0  0  0  0  0  0  0  0  0  0  0
   -0.6171   71.1811   80.6216 O   0  0  0  0  0  0  0  0  0  0  0  0
   -1.0162   72.0974   81.6319 C   0  0  0  0  0  0  0  0  0  0  0  0
 12 13  1  0  0  0
 13  1  1  0  0  0
  1  2  1  0  0  0
  2  3  2  0  0  0
  2  4  1  0  0  0
  4  5  2  0  0  0
  5  6  1  0  0  0
  6  7  2  0  0  0
  7 14  1  0  0  0
 14 16  1  0  0  0
 16 17  1  0  0  0
 17 18  1  0  0  0
 18 19  1  0  0  0
 19 20  1  0  0  0
  7  8  1  0  0  0
  8 23  1  0  0  0
 23 24  1  0  0  0
 24 25  1  0  0  0
 25 26  2  0  0  0
 26 27  1  0  0  0
 27 31  1  0  0  0
 31 32  1  0  0  0
 27 28  2  0  0  0
 28 29  1  0  0  0
 28 30  1  0  0  0
  5  9  1  0  0  0
  9 21  1  0  0  0
 21 22  1  0  0  0
  9 10  1  0  0  0
 10 11  2  0  0  0
 10  1  1  0  0  0
  8  4  1  0  0  0
 30 24  2  0  0  0
 20 16  1  0  0  0
 14 15  1  0  0  0
M  END
> <minimizedAffinity>
-8.83908

$$$$



 32 35  0  0  0  0  0  0  0  0999 V2000
    0.0927   65.0638   80.3069 N   0  0  0  0  0  0  0  0  0  0  0  0
    1.0229   66.0852   80.5330 C   0  0  0  0  0  0  0  0  0  0  0  0
    1.5711   66.7201   79.6365 O   0  0  0  0  0  0  0  0  0  0  0  0
    1.2987   66.2933   81.9119 C   0  0  0  0  0  0  0  0  0  0  0  0
    0.7539   65.5300   82.8966 C   0  0  0  0  0  0  0  0  0  0  0  0
    1.1946   65.8982   84.1266 N   0  0  0  0  0  0  0  0  0  0  0  0
    2.0207   66.9017   83.9152 C   0  0  0  0  0  0  0  0  0  0  0  0
    2.0847   67.2088   82.5665 N   0  0  0  0  0  0  0  0  0  0  0  0
   -0.1198   64.5038   82.6249 N   0  0  0  0  0  0  0  0  0  0  0  0
   -0.4489   64.2213   81.2978 C   0  0  0  0  0  0  0  0  0  0  0  0
   -1.1763   63.2678   81.0036 O   0  0  0  0  0  0  0  0  0  0  0  0
    0.7230   63.7838   78.2919 C   0  0  0  0  0  0  0  0  0  0  0  0
   -0.2502   64.7721   78.9197 C   0  0  0  0  0  0  0  0  0  0  0  0
    2.7222   67.5834   84.8499 N   0  0  0  0  0  0  0  0  0  0  0  0
    2.3674   68.4631   85.2074 H   0  0  0  0  0  0  0  0  0  0  0  0
    4.1835   67.5137   84.8080 C   0  0  0  0  0  0  0  0  0  0  0  0
    4.6189   66.0439   84.7575 C   0  0  0  0  0  0  0  0  0  0  0  0
    4.8540   65.6681   86.2122 C   0  0  0  0  0  0  0  0  0  0  0  0
    5.5161   66.9114   86.7784 C   0  0  0  0  0  0  0  0  0  0  0  0
    4.7934   68.0749   86.1042 C   0  0  0  0  0  0  0  0  0  0  0  0
   -0.6423   63.6637   83.6964 C   0  0  0  0  0  0  0  0  0  0  0  0
    0.1997   62.4133   83.8984 C   0  0  0  0  0  0  0  0  0  0  0  0
    2.8162   68.3029   81.9489 C   0  0  0  0  0  0  0  0  0  0  0  0
    2.0283   69.5912   81.9699 C   0  0  0  0  0  0  0  0  0  0  0  0
    0.8186   69.7150   81.2686 C   0  0  0  0  0  0  0  0  0  0  0  0
    0.0881   70.9112   81.2919 C   0  0  0  0  0  0  0  0  0  0  0  0
    0.5525   72.0063   82.0212 C   0  0  0  0  0  0  0  0  0  0  0  0
    1.7546   71.8785   82.7221 C   0  0  0  0  0  0  0  0  0  0  0  0
    2.2303   72.9103   83.4365 F   0  0  0  0  0  0  0  0  0  0  0  0
    2.4875   70.6925   82.7020 C   0  0  0  0  0  0  0  0  0  0  0  0
   -0.0706   73.2203   82.1213 O   0  0  0  0  0  0  0  0  0  0  0  0
   -0.1367   74.0153   80.9452 C   0  0  0  0  0  0  0  0  0  0  0  0
 12 13  1  0  0  0
 13  1  1  0  0  0
  1  2  1  0  0  0
  2  3  2  0  0  0
  2  4  1  0  0  0
  4  5  2  0  0  0
  5  6  1  0  0  0
  6  7  2  0  0  0
  7 14  1  0  0  0
 14 16  1  0  0  0
 16 17  1  0  0  0
 17 18  1  0  0  0
 18 19  1  0  0  0
 19 20  1  0  0  0
  7  8  1  0  0  0
  8 23  1  0  0  0
 23 24  1  0  0  0
 24 25  1  0  0  0
 25 26  2  0  0  0
 26 27  1  0  0  0
 27 31  1  0  0  0
 31 32  1  0  0  0
 27 28  2  0  0  0
 28 29  1  0  0  0
 28 30  1  0  0  0
  5  9  1  0  0  0
  9 21  1  0  0  0
 21 22  1  0  0  0
  9 10  1  0  0  0
 10 11  2  0  0  0
 10  1  1  0  0  0
  8  4  1  0  0  0
 30 24  2  0  0  0
 20 16  1  0  0  0
 14 15  1  0  0  0
M  END
> <minimizedAffinity>
-8.78377

$$$$



 32 35  0  0  0  0  0  0  0  0999 V2000
    0.6028   65.6319   80.4017 N   0  0  0  0  0  0  0  0  0  0  0  0
    1.1623   66.2277   81.5382 C   0  0  0  0  0  0  0  0  0  0  0  0
    1.9105   67.2005   81.5009 O   0  0  0  0  0  0  0  0  0  0  0  0
    0.8046   65.5697   82.7464 C   0  0  0  0  0  0  0  0  0  0  0  0
    0.0457   64.4417   82.7754 C   0  0  0  0  0  0  0  0  0  0  0  0
   -0.1313   63.9815   84.0402 N   0  0  0  0  0  0  0  0  0  0  0  0
    0.5185   64.8269   84.8130 C   0  0  0  0  0  0  0  0  0  0  0  0
    1.0773   65.8477   84.0628 N   0  0  0  0  0  0  0  0  0  0  0  0
   -0.4437   63.8623   81.6287 N   0  0  0  0  0  0  0  0  0  0  0  0
   -0.1420   64.4359   80.3920 C   0  0  0  0  0  0  0  0  0  0  0  0
   -0.5040   63.9126   79.3339 O   0  0  0  0  0  0  0  0  0  0  0  0
    2.2400   65.7215   78.5558 C   0  0  0  0  0  0  0  0  0  0  0  0
    0.9185   66.2343   79.1116 C   0  0  0  0  0  0  0  0  0  0  0  0
    0.6413   64.7629   86.1589 N   0  0  0  0  0  0  0  0  0  0  0  0
    1.2527   65.4107   86.6428 H   0  0  0  0  0  0  0  0  0  0  0  0
    0.5487   63.4517   86.8023 C   0  0  0  0  0  0  0  0  0  0  0  0
   -0.8934   62.9391   86.7014 C   0  0  0  0  0  0  0  0  0  0  0  0
   -1.5465   63.3868   87.9996 C   0  0  0  0  0  0  0  0  0  0  0  0
   -0.4500   63.1584   89.0244 C   0  0  0  0  0  0  0  0  0  0  0  0
    0.8371   63.5624   88.3095 C   0  0  0  0  0  0  0  0  0  0  0  0
   -1.2049   62.6197   81.6854 C   0  0  0  0  0  0  0  0  0  0  0  0
   -0.2977   61.3989   81.6945 C   0  0  0  0  0  0  0  0  0  0  0  0
    1.7939   67.0113   84.5591 C   0  0  0  0  0  0  0  0  0  0  0  0
    3.2763   66.7504   84.6830 C   0  0  0  0  0  0  0  0  0  0  0  0
    4.2186   67.6417   84.1460 C   0  0  0  0  0  0  0  0  0  0  0  0
    5.5940   67.3983   84.2646 C   0  0  0  0  0  0  0  0  0  0  0  0
    6.0535   66.2595   84.9270 C   0  0  0  0  0  0  0  0  0  0  0  0
    5.1132   65.3766   85.4647 C   0  0  0  0  0  0  0  0  0  0  0  0
    5.5189   64.2725   86.1108 F   0  0  0  0  0  0  0  0  0  0  0  0
    3.7436   65.6111   85.3488 C   0  0  0  0  0  0  0  0  0  0  0  0
    7.3657   65.9167   85.1078 O   0  0  0  0  0  0  0  0  0  0  0  0
    8.3447   66.8801   84.7430 C   0  0  0  0  0  0  0  0  0  0  0  0
 12 13  1  0  0  0
 13  1  1  0  0  0
  1  2  1  0  0  0
  2  3  2  0  0  0
  2  4  1  0  0  0
  4  5  2  0  0  0
  5  6  1  0  0  0
  6  7  2  0  0  0
  7 14  1  0  0  0
 14 16  1  0  0  0
 16 17  1  0  0  0
 17 18  1  0  0  0
 18 19  1  0  0  0
 19 20  1  0  0  0
  7  8  1  0  0  0
  8 23  1  0  0  0
 23 24  1  0  0  0
 24 25  1  0  0  0
 25 26  2  0  0  0
 26 27  1  0  0  0
 27 31  1  0  0  0
 31 32  1  0  0  0
 27 28  2  0  0  0
 28 29  1  0  0  0
 28 30  1  0  0  0
  5  9  1  0  0  0
  9 21  1  0  0  0
 21 22  1  0  0  0
  9 10  1  0  0  0
 10 11  2  0  0  0
 10  1  1  0  0  0
  8  4  1  0  0  0
 30 24  2  0  0  0
 20 16  1  0  0  0
 14 15  1  0  0  0
M  END
> <minimizedAffinity>
-8.67028

$$$$



 32 35  0  0  0  0  0  0  0  0999 V2000
    0.5321   64.1691   79.9736 N   0  0  0  0  0  0  0  0  0  0  0  0
    0.8079   65.0506   81.0255 C   0  0  0  0  0  0  0  0  0  0  0  0
    1.2894   66.1693   80.8703 O   0  0  0  0  0  0  0  0  0  0  0  0
    0.5060   64.5060   82.3034 C   0  0  0  0  0  0  0  0  0  0  0  0
    0.0538   63.2352   82.4756 C   0  0  0  0  0  0  0  0  0  0  0  0
   -0.1291   62.9350   83.7868 N   0  0  0  0  0  0  0  0  0  0  0  0
    0.2079   64.0250   84.4444 C   0  0  0  0  0  0  0  0  0  0  0  0
    0.5668   65.0355   83.5685 N   0  0  0  0  0  0  0  0  0  0  0  0
   -0.1575   62.3863   81.4150 N   0  0  0  0  0  0  0  0  0  0  0  0
    0.1144   62.8314   80.1199 C   0  0  0  0  0  0  0  0  0  0  0  0
    0.0028   62.0824   79.1447 O   0  0  0  0  0  0  0  0  0  0  0  0
   -0.4292   65.1898   77.9413 C   0  0  0  0  0  0  0  0  0  0  0  0
    0.8158   64.6376   78.6219 C   0  0  0  0  0  0  0  0  0  0  0  0
    0.2067   64.1933   85.7869 N   0  0  0  0  0  0  0  0  0  0  0  0
    0.7785   64.9173   86.2069 H   0  0  0  0  0  0  0  0  0  0  0  0
    0.0412   63.0113   86.6339 C   0  0  0  0  0  0  0  0  0  0  0  0
   -1.4261   62.5657   86.6000 C   0  0  0  0  0  0  0  0  0  0  0  0
   -2.0588   63.2530   87.7999 C   0  0  0  0  0  0  0  0  0  0  0  0
   -0.9798   63.1376   88.8616 C   0  0  0  0  0  0  0  0  0  0  0  0
    0.3297   63.3511   88.1065 C   0  0  0  0  0  0  0  0  0  0  0  0
   -0.5862   61.0096   81.6336 C   0  0  0  0  0  0  0  0  0  0  0  0
   -2.1013   60.8903   81.6937 C   0  0  0  0  0  0  0  0  0  0  0  0
    0.9166   66.4060   83.9047 C   0  0  0  0  0  0  0  0  0  0  0  0
    2.3980   66.5661   84.1503 C   0  0  0  0  0  0  0  0  0  0  0  0
    3.1231   65.6056   84.8728 C   0  0  0  0  0  0  0  0  0  0  0  0
    4.4987   65.7556   85.0973 C   0  0  0  0  0  0  0  0  0  0  0  0
    5.1766   66.8687   84.5991 C   0  0  0  0  0  0  0  0  0  0  0  0
    4.4531   67.8208   83.8761 C   0  0  0  0  0  0  0  0  0  0  0  0
    5.0728   68.9028   83.3797 F   0  0  0  0  0  0  0  0  0  0  0  0
    3.0844   67.6793   83.6507 C   0  0  0  0  0  0  0  0  0  0  0  0
    6.5124   67.1230   84.7508 O   0  0  0  0  0  0  0  0  0  0  0  0
    7.3873   66.0035   84.7812 C   0  0  0  0  0  0  0  0  0  0  0  0
 12 13  1  0  0  0
 13  1  1  0  0  0
  1  2  1  0  0  0
  2  3  2  0  0  0
  2  4  1  0  0  0
  4  5  2  0  0  0
  5  6  1  0  0  0
  6  7  2  0  0  0
  7 14  1  0  0  0
 14 16  1  0  0  0
 16 17  1  0  0  0
 17 18  1  0  0  0
 18 19  1  0  0  0
 19 20  1  0  0  0
  7  8  1  0  0  0
  8 23  1  0  0  0
 23 24  1  0  0  0
 24 25  1  0  0  0
 25 26  2  0  0  0
 26 27  1  0  0  0
 27 31  1  0  0  0
 31 32  1  0  0  0
 27 28  2  0  0  0
 28 29  1  0  0  0
 28 30  1  0  0  0
  5  9  1  0  0  0
  9 21  1  0  0  0
 21 22  1  0  0  0
  9 10  1  0  0  0
 10 11  2  0  0  0
 10  1  1  0  0  0
  8  4  1  0  0  0
 30 24  2  0  0  0
 20 16  1  0  0  0
 14 15  1  0  0  0
M  END
> <minimizedAffinity>
-8.52511

$$$$
