


 37 40  0  0  0  0  0  0  0  0999 V2000
    1.3268   66.6081   82.8311 N   0  0  0  0  0  0  0  0  0  0  0  0
    0.9753   65.2974   82.5000 C   0  0  0  0  0  0  0  0  0  0  0  0
    1.1220   64.3543   83.2709 O   0  0  0  0  0  0  0  0  0  0  0  0
    0.3326   65.0732   81.0891 C   0  0  0  0  0  0  0  0  0  0  0  0
   -0.0367   66.1071   80.3792 N   0  0  0  0  0  0  0  0  0  0  0  0
    0.2074   67.4035   80.8399 C   0  0  0  0  0  0  0  0  0  0  0  0
   -0.2210   68.4811   80.0759 C   0  0  0  0  0  0  0  0  0  0  0  0
   -0.0315   69.7831   80.3974 N   0  0  0  0  0  0  0  0  0  0  0  0
    0.6262   70.0582   81.5466 C   0  0  0  0  0  0  0  0  0  0  0  0
    1.1031   69.0349   82.3698 C   0  0  0  0  0  0  0  0  0  0  0  0
    0.8914   67.6923   82.0196 C   0  0  0  0  0  0  0  0  0  0  0  0
    0.1358   63.7847   80.5632 N   0  0  0  0  0  0  0  0  0  0  0  0
   -0.7724   62.8112   81.1944 C   0  0  0  0  0  0  0  0  0  0  0  0
   -0.5376   61.3617   80.7094 C   0  0  0  0  0  0  0  0  0  0  0  0
   -0.4603   61.1811   79.2444 N   0  0  0  0  0  0  0  0  0  0  0  0
    0.5774   62.1060   78.7474 C   0  0  0  0  0  0  0  0  0  0  0  0
    0.3624   63.5856   79.1146 C   0  0  0  0  0  0  0  0  0  0  0  0
   -1.7864   61.3519   78.6139 C   0  0  0  0  0  0  0  0  0  0  0  0
   -2.6177   60.0611   78.3302 C   0  0  0  0  0  0  0  0  0  0  0  0
   -3.2376   60.1540   76.9281 C   0  0  0  0  0  0  0  0  0  0  0  0
   -3.7263   59.8409   79.3609 C   0  0  0  0  0  0  0  0  0  0  0  0
   -1.7665   58.9061   78.3334 O   0  0  0  0  0  0  0  0  0  0  0  0
   -1.1469   58.9875   77.5889 H   0  0  0  0  0  0  0  0  0  0  0  0
    0.8006   71.4909   81.8510 C   0  0  0  0  0  0  0  0  0  0  0  0
   -0.1002   72.4845   81.4386 C   0  0  0  0  0  0  0  0  0  0  0  0
    0.1209   73.8240   81.7651 C   0  0  0  0  0  0  0  0  0  0  0  0
    1.2473   74.1488   82.4994 C   0  0  0  0  0  0  0  0  0  0  0  0
    2.1484   73.2396   82.9151 N   0  0  0  0  0  0  0  0  0  0  0  0
    1.9058   71.9461   82.5769 C   0  0  0  0  0  0  0  0  0  0  0  0
    1.4199   75.4851   82.7978 O   0  0  0  0  0  0  0  0  0  0  0  0
    0.3502   76.3007   82.3303 C   0  0  0  0  0  0  0  0  0  0  0  0
    1.9832   66.8274   84.1165 C   0  0  0  0  0  0  0  0  0  0  0  0
    3.5090   66.7350   84.0305 C   0  0  0  0  0  0  0  0  0  0  0  0
    3.9448   65.6200   84.8102 O   0  0  0  0  0  0  0  0  0  0  0  0
    5.1048   65.9020   85.5934 C   0  0  0  0  0  0  0  0  0  0  0  0
    5.5710   65.5656   88.0462 C   0  0  0  0  0  0  0  0  0  0  0  0
    5.2626   64.8877   86.7225 C   0  0  0  0  0  0  0  0  0  0  0  0
 36 37  1  0  0  0
 37 35  1  0  0  0
 35 34  1  0  0  0
 34 33  1  0  0  0
 33 32  1  0  0  0
 32  1  1  0  0  0
  1  2  1  0  0  0
  2  3  2  0  0  0
  2  4  1  0  0  0
  4 12  1  0  0  0
 12 13  1  0  0  0
 13 14  1  0  0  0
 14 15  1  0  0  0
 15 18  1  0  0  0
 18 19  1  0  0  0
 19 20  1  0  0  0
 19 21  1  0  0  0
 19 22  1  0  0  0
 15 16  1  0  0  0
 16 17  1  0  0  0
  4  5  2  0  0  0
  5  6  1  0  0  0
  6  7  1  0  0  0
  7  8  2  0  0  0
  8  9  1  0  0  0
  9 24  1  0  0  0
 24 25  2  0  0  0
 25 26  1  0  0  0
 26 27  2  0  0  0
 27 30  1  0  0  0
 30 31  1  0  0  0
 27 28  1  0  0  0
 28 29  2  0  0  0
  9 10  2  0  0  0
 10 11  1  0  0  0
 11  1  1  0  0  0
 17 12  1  0  0  0
 11  6  2  0  0  0
 29 24  1  0  0  0
 22 23  1  0  0  0
M  END
> <minimizedAffinity>
-8.82923

$$$$



 37 40  0  0  0  0  0  0  0  0999 V2000
    1.3872   66.2322   83.0130 N   0  0  0  0  0  0  0  0  0  0  0  0
    0.8953   64.9673   82.6827 C   0  0  0  0  0  0  0  0  0  0  0  0
    0.9664   64.0066   83.4424 O   0  0  0  0  0  0  0  0  0  0  0  0
    0.1948   64.8234   81.2890 C   0  0  0  0  0  0  0  0  0  0  0  0
   -0.0868   65.8965   80.5971 N   0  0  0  0  0  0  0  0  0  0  0  0
    0.3004   67.1568   81.0599 C   0  0  0  0  0  0  0  0  0  0  0  0
   -0.0370   68.2798   80.3159 C   0  0  0  0  0  0  0  0  0  0  0  0
    0.2927   69.5526   80.6412 N   0  0  0  0  0  0  0  0  0  0  0  0
    1.0062   69.7482   81.7733 C   0  0  0  0  0  0  0  0  0  0  0  0
    1.3989   68.6737   82.5754 C   0  0  0  0  0  0  0  0  0  0  0  0
    1.0422   67.3630   82.2218 C   0  0  0  0  0  0  0  0  0  0  0  0
   -0.1463   63.5668   80.7597 N   0  0  0  0  0  0  0  0  0  0  0  0
   -1.2910   62.7886   81.2647 C   0  0  0  0  0  0  0  0  0  0  0  0
   -1.2455   61.3017   80.8421 C   0  0  0  0  0  0  0  0  0  0  0  0
   -0.9923   61.0510   79.4076 N   0  0  0  0  0  0  0  0  0  0  0  0
    0.2509   61.7649   79.0552 C   0  0  0  0  0  0  0  0  0  0  0  0
    0.2468   63.2732   79.3637 C   0  0  0  0  0  0  0  0  0  0  0  0
   -2.1644   61.4191   78.5854 C   0  0  0  0  0  0  0  0  0  0  0  0
   -2.7848   60.3071   77.6818 C   0  0  0  0  0  0  0  0  0  0  0  0
   -1.6939   59.2962   77.2991 C   0  0  0  0  0  0  0  0  0  0  0  0
   -3.4199   60.8732   76.4105 C   0  0  0  0  0  0  0  0  0  0  0  0
   -3.7917   59.5809   78.4011 O   0  0  0  0  0  0  0  0  0  0  0  0
   -3.3580   59.1115   79.1334 H   0  0  0  0  0  0  0  0  0  0  0  0
    1.3336   71.1527   82.0828 C   0  0  0  0  0  0  0  0  0  0  0  0
    0.5313   72.2371   81.6967 C   0  0  0  0  0  0  0  0  0  0  0  0
    0.8961   73.5439   82.0266 C   0  0  0  0  0  0  0  0  0  0  0  0
    2.0653   73.7449   82.7379 C   0  0  0  0  0  0  0  0  0  0  0  0
    2.8766   72.7444   83.1279 N   0  0  0  0  0  0  0  0  0  0  0  0
    2.4950   71.4857   82.7869 C   0  0  0  0  0  0  0  0  0  0  0  0
    2.3809   75.0538   83.0409 O   0  0  0  0  0  0  0  0  0  0  0  0
    3.5014   75.1668   83.9124 C   0  0  0  0  0  0  0  0  0  0  0  0
    2.0974   66.3711   84.2809 C   0  0  0  0  0  0  0  0  0  0  0  0
    3.6154   66.2395   84.1317 C   0  0  0  0  0  0  0  0  0  0  0  0
    4.1858   66.0281   85.4244 O   0  0  0  0  0  0  0  0  0  0  0  0
    5.3376   65.1847   85.3986 C   0  0  0  0  0  0  0  0  0  0  0  0
    7.6507   65.8916   84.6940 C   0  0  0  0  0  0  0  0  0  0  0  0
    6.5936   65.9616   85.7823 C   0  0  0  0  0  0  0  0  0  0  0  0
 36 37  1  0  0  0
 37 35  1  0  0  0
 35 34  1  0  0  0
 34 33  1  0  0  0
 33 32  1  0  0  0
 32  1  1  0  0  0
  1  2  1  0  0  0
  2  3  2  0  0  0
  2  4  1  0  0  0
  4 12  1  0  0  0
 12 13  1  0  0  0
 13 14  1  0  0  0
 14 15  1  0  0  0
 15 18  1  0  0  0
 18 19  1  0  0  0
 19 20  1  0  0  0
 19 21  1  0  0  0
 19 22  1  0  0  0
 15 16  1  0  0  0
 16 17  1  0  0  0
  4  5  2  0  0  0
  5  6  1  0  0  0
  6  7  1  0  0  0
  7  8  2  0  0  0
  8  9  1  0  0  0
  9 24  1  0  0  0
 24 25  2  0  0  0
 25 26  1  0  0  0
 26 27  2  0  0  0
 27 30  1  0  0  0
 30 31  1  0  0  0
 27 28  1  0  0  0
 28 29  2  0  0  0
  9 10  2  0  0  0
 10 11  1  0  0  0
 11  1  1  0  0  0
 17 12  1  0  0  0
 11  6  2  0  0  0
 29 24  1  0  0  0
 22 23  1  0  0  0
M  END
> <minimizedAffinity>
-8.72935

$$$$



 37 40  0  0  0  0  0  0  0  0999 V2000
    1.3514   66.1227   83.3419 N   0  0  0  0  0  0  0  0  0  0  0  0
    0.6246   64.9399   83.1874 C   0  0  0  0  0  0  0  0  0  0  0  0
    0.4609   64.1358   84.0994 O   0  0  0  0  0  0  0  0  0  0  0  0
   -0.0259   64.6884   81.7847 C   0  0  0  0  0  0  0  0  0  0  0  0
   -0.0478   65.6542   80.9037 N   0  0  0  0  0  0  0  0  0  0  0  0
    0.5696   66.8767   81.1806 C   0  0  0  0  0  0  0  0  0  0  0  0
    0.5058   67.8922   80.2356 C   0  0  0  0  0  0  0  0  0  0  0  0
    1.0759   69.1134   80.3706 N   0  0  0  0  0  0  0  0  0  0  0  0
    1.7617   69.3654   81.5086 C   0  0  0  0  0  0  0  0  0  0  0  0
    1.8870   68.3963   82.5073 C   0  0  0  0  0  0  0  0  0  0  0  0
    1.2840   67.1388   82.3485 C   0  0  0  0  0  0  0  0  0  0  0  0
   -0.5944   63.4485   81.4456 N   0  0  0  0  0  0  0  0  0  0  0  0
   -2.0516   63.2309   81.4377 C   0  0  0  0  0  0  0  0  0  0  0  0
   -2.4399   61.7339   81.4381 C   0  0  0  0  0  0  0  0  0  0  0  0
   -1.7466   60.8922   80.4403 N   0  0  0  0  0  0  0  0  0  0  0  0
   -0.2971   61.0881   80.6395 C   0  0  0  0  0  0  0  0  0  0  0  0
    0.1803   62.5496   80.5617 C   0  0  0  0  0  0  0  0  0  0  0  0
   -2.2221   61.1843   79.0715 C   0  0  0  0  0  0  0  0  0  0  0  0
   -2.1441   60.0299   78.0231 C   0  0  0  0  0  0  0  0  0  0  0  0
   -0.8309   60.1468   77.2355 C   0  0  0  0  0  0  0  0  0  0  0  0
   -3.3229   60.0443   77.0482 C   0  0  0  0  0  0  0  0  0  0  0  0
   -2.1226   58.7554   78.6818 O   0  0  0  0  0  0  0  0  0  0  0  0
   -1.3004   58.6974   79.1969 H   0  0  0  0  0  0  0  0  0  0  0  0
    2.3575   70.7112   81.6061 C   0  0  0  0  0  0  0  0  0  0  0  0
    2.2696   71.5148   82.7528 C   0  0  0  0  0  0  0  0  0  0  0  0
    2.8614   72.7793   82.7817 C   0  0  0  0  0  0  0  0  0  0  0  0
    3.5316   73.2219   81.6555 C   0  0  0  0  0  0  0  0  0  0  0  0
    3.6415   72.4978   80.5262 N   0  0  0  0  0  0  0  0  0  0  0  0
    3.0507   71.2743   80.5299 C   0  0  0  0  0  0  0  0  0  0  0  0
    4.1004   74.4768   81.7346 O   0  0  0  0  0  0  0  0  0  0  0  0
    4.4285   74.8541   83.0680 C   0  0  0  0  0  0  0  0  0  0  0  0
    2.0161   66.3450   84.6225 C   0  0  0  0  0  0  0  0  0  0  0  0
    3.4832   65.9074   84.6168 C   0  0  0  0  0  0  0  0  0  0  0  0
    4.3042   67.0554   84.8390 O   0  0  0  0  0  0  0  0  0  0  0  0
    5.4182   66.7920   85.6924 C   0  0  0  0  0  0  0  0  0  0  0  0
    7.4963   65.7787   84.6918 C   0  0  0  0  0  0  0  0  0  0  0  0
    6.1260   65.5027   85.2859 C   0  0  0  0  0  0  0  0  0  0  0  0
 36 37  1  0  0  0
 37 35  1  0  0  0
 35 34  1  0  0  0
 34 33  1  0  0  0
 33 32  1  0  0  0
 32  1  1  0  0  0
  1  2  1  0  0  0
  2  3  2  0  0  0
  2  4  1  0  0  0
  4 12  1  0  0  0
 12 13  1  0  0  0
 13 14  1  0  0  0
 14 15  1  0  0  0
 15 18  1  0  0  0
 18 19  1  0  0  0
 19 20  1  0  0  0
 19 21  1  0  0  0
 19 22  1  0  0  0
 15 16  1  0  0  0
 16 17  1  0  0  0
  4  5  2  0  0  0
  5  6  1  0  0  0
  6  7  1  0  0  0
  7  8  2  0  0  0
  8  9  1  0  0  0
  9 24  1  0  0  0
 24 25  2  0  0  0
 25 26  1  0  0  0
 26 27  2  0  0  0
 27 30  1  0  0  0
 30 31  1  0  0  0
 27 28  1  0  0  0
 28 29  2  0  0  0
  9 10  2  0  0  0
 10 11  1  0  0  0
 11  1  1  0  0  0
 17 12  1  0  0  0
 11  6  2  0  0  0
 29 24  1  0  0  0
 22 23  1  0  0  0
M  END
> <minimizedAffinity>
-8.64387

$$$$



 37 40  0  0  0  0  0  0  0  0999 V2000
    1.3793   66.7664   82.8423 N   0  0  0  0  0  0  0  0  0  0  0  0
    0.8943   65.5254   82.4233 C   0  0  0  0  0  0  0  0  0  0  0  0
    0.9146   64.5277   83.1371 O   0  0  0  0  0  0  0  0  0  0  0  0
    0.2698   65.4587   80.9882 C   0  0  0  0  0  0  0  0  0  0  0  0
    0.0366   66.5677   80.3363 N   0  0  0  0  0  0  0  0  0  0  0  0
    0.4098   67.7990   80.8815 C   0  0  0  0  0  0  0  0  0  0  0  0
    0.1242   68.9612   80.1771 C   0  0  0  0  0  0  0  0  0  0  0  0
    0.4476   70.2124   80.5826 N   0  0  0  0  0  0  0  0  0  0  0  0
    1.0999   70.3435   81.7601 C   0  0  0  0  0  0  0  0  0  0  0  0
    1.4379   69.2262   82.5279 C   0  0  0  0  0  0  0  0  0  0  0  0
    1.0888   67.9389   82.0908 C   0  0  0  0  0  0  0  0  0  0  0  0
   -0.0537   64.2338   80.3794 N   0  0  0  0  0  0  0  0  0  0  0  0
   -1.0613   63.3197   80.9452 C   0  0  0  0  0  0  0  0  0  0  0  0
   -0.9722   61.8882   80.3671 C   0  0  0  0  0  0  0  0  0  0  0  0
   -0.9028   61.7958   78.8935 N   0  0  0  0  0  0  0  0  0  0  0  0
    0.2276   62.6397   78.4586 C   0  0  0  0  0  0  0  0  0  0  0  0
    0.1621   64.1066   78.9211 C   0  0  0  0  0  0  0  0  0  0  0  0
   -2.1998   62.1419   78.2744 C   0  0  0  0  0  0  0  0  0  0  0  0
   -3.0494   60.9714   77.6864 C   0  0  0  0  0  0  0  0  0  0  0  0
   -3.7450   60.2227   78.8328 C   0  0  0  0  0  0  0  0  0  0  0  0
   -2.2058   59.9859   76.8757 C   0  0  0  0  0  0  0  0  0  0  0  0
   -4.0845   61.4824   76.8342 O   0  0  0  0  0  0  0  0  0  0  0  0
   -4.6968   62.0005   77.3831 H   0  0  0  0  0  0  0  0  0  0  0  0
    1.4231   71.7270   82.1563 C   0  0  0  0  0  0  0  0  0  0  0  0
    2.6077   72.0856   82.8171 C   0  0  0  0  0  0  0  0  0  0  0  0
    2.8553   73.4164   83.1600 C   0  0  0  0  0  0  0  0  0  0  0  0
    1.9069   74.3702   82.8373 C   0  0  0  0  0  0  0  0  0  0  0  0
    0.7507   74.0832   82.2110 N   0  0  0  0  0  0  0  0  0  0  0  0
    0.5389   72.7786   81.8956 C   0  0  0  0  0  0  0  0  0  0  0  0
    2.1991   75.6705   83.1956 O   0  0  0  0  0  0  0  0  0  0  0  0
    1.1443   76.5790   82.8954 C   0  0  0  0  0  0  0  0  0  0  0  0
    2.0203   66.8342   84.1522 C   0  0  0  0  0  0  0  0  0  0  0  0
    3.5354   66.6246   84.0862 C   0  0  0  0  0  0  0  0  0  0  0  0
    3.8873   65.5501   84.9595 O   0  0  0  0  0  0  0  0  0  0  0  0
    5.1241   65.7625   85.6406 C   0  0  0  0  0  0  0  0  0  0  0  0
    5.6226   65.6041   88.1050 C   0  0  0  0  0  0  0  0  0  0  0  0
    5.2499   64.8376   86.8478 C   0  0  0  0  0  0  0  0  0  0  0  0
 36 37  1  0  0  0
 37 35  1  0  0  0
 35 34  1  0  0  0
 34 33  1  0  0  0
 33 32  1  0  0  0
 32  1  1  0  0  0
  1  2  1  0  0  0
  2  3  2  0  0  0
  2  4  1  0  0  0
  4 12  1  0  0  0
 12 13  1  0  0  0
 13 14  1  0  0  0
 14 15  1  0  0  0
 15 18  1  0  0  0
 18 19  1  0  0  0
 19 20  1  0  0  0
 19 21  1  0  0  0
 19 22  1  0  0  0
 15 16  1  0  0  0
 16 17  1  0  0  0
  4  5  2  0  0  0
  5  6  1  0  0  0
  6  7  1  0  0  0
  7  8  2  0  0  0
  8  9  1  0  0  0
  9 24  1  0  0  0
 24 25  2  0  0  0
 25 26  1  0  0  0
 26 27  2  0  0  0
 27 30  1  0  0  0
 30 31  1  0  0  0
 27 28  1  0  0  0
 28 29  2  0  0  0
  9 10  2  0  0  0
 10 11  1  0  0  0
 11  1  1  0  0  0
 17 12  1  0  0  0
 11  6  2  0  0  0
 29 24  1  0  0  0
 22 23  1  0  0  0
M  END
> <minimizedAffinity>
-8.63509

$$$$



 37 40  0  0  0  0  0  0  0  0999 V2000
    1.9995   66.7137   83.5068 N   0  0  0  0  0  0  0  0  0  0  0  0
    1.1529   65.6122   83.6518 C   0  0  0  0  0  0  0  0  0  0  0  0
    0.9736   65.0478   84.7262 O   0  0  0  0  0  0  0  0  0  0  0  0
    0.3884   65.1352   82.3704 C   0  0  0  0  0  0  0  0  0  0  0  0
    0.4009   65.8835   81.2984 N   0  0  0  0  0  0  0  0  0  0  0  0
    1.1511   67.0620   81.2686 C   0  0  0  0  0  0  0  0  0  0  0  0
    1.1227   67.8492   80.1250 C   0  0  0  0  0  0  0  0  0  0  0  0
    1.8162   69.0008   79.9594 N   0  0  0  0  0  0  0  0  0  0  0  0
    2.5980   69.4171   80.9814 C   0  0  0  0  0  0  0  0  0  0  0  0
    2.6955   68.6798   82.1642 C   0  0  0  0  0  0  0  0  0  0  0  0
    1.9643   67.4914   82.3161 C   0  0  0  0  0  0  0  0  0  0  0  0
   -0.3191   63.9211   82.3413 N   0  0  0  0  0  0  0  0  0  0  0  0
   -1.7587   63.8604   82.0335 C   0  0  0  0  0  0  0  0  0  0  0  0
   -2.4097   62.5195   82.4455 C   0  0  0  0  0  0  0  0  0  0  0  0
   -1.6961   61.3006   82.0097 N   0  0  0  0  0  0  0  0  0  0  0  0
   -0.3069   61.4139   82.4959 C   0  0  0  0  0  0  0  0  0  0  0  0
    0.4390   62.6844   82.0490 C   0  0  0  0  0  0  0  0  0  0  0  0
   -1.8203   61.1013   80.5502 C   0  0  0  0  0  0  0  0  0  0  0  0
   -3.1148   60.4008   80.0292 C   0  0  0  0  0  0  0  0  0  0  0  0
   -2.8103   59.6944   78.7000 C   0  0  0  0  0  0  0  0  0  0  0  0
   -4.2708   61.3823   79.8284 C   0  0  0  0  0  0  0  0  0  0  0  0
   -3.5418   59.3875   80.9510 O   0  0  0  0  0  0  0  0  0  0  0  0
   -2.8601   58.6951   80.9731 H   0  0  0  0  0  0  0  0  0  0  0  0
    3.3266   70.6786   80.7504 C   0  0  0  0  0  0  0  0  0  0  0  0
    4.4936   70.7673   79.9766 C   0  0  0  0  0  0  0  0  0  0  0  0
    5.1327   71.9951   79.7926 C   0  0  0  0  0  0  0  0  0  0  0  0
    4.5925   73.1186   80.3920 C   0  0  0  0  0  0  0  0  0  0  0  0
    3.4806   73.0918   81.1501 N   0  0  0  0  0  0  0  0  0  0  0  0
    2.8860   71.8809   81.3127 C   0  0  0  0  0  0  0  0  0  0  0  0
    5.2596   74.3077   80.1787 O   0  0  0  0  0  0  0  0  0  0  0  0
    5.8011   74.4122   78.8658 C   0  0  0  0  0  0  0  0  0  0  0  0
    2.7671   67.1343   84.6752 C   0  0  0  0  0  0  0  0  0  0  0  0
    4.2424   66.7332   84.5956 C   0  0  0  0  0  0  0  0  0  0  0  0
    4.4394   65.5549   85.3792 O   0  0  0  0  0  0  0  0  0  0  0  0
    5.8116   65.1753   85.4867 C   0  0  0  0  0  0  0  0  0  0  0  0
    8.1713   65.8123   84.8760 C   0  0  0  0  0  0  0  0  0  0  0  0
    6.6960   66.0691   84.6222 C   0  0  0  0  0  0  0  0  0  0  0  0
 36 37  1  0  0  0
 37 35  1  0  0  0
 35 34  1  0  0  0
 34 33  1  0  0  0
 33 32  1  0  0  0
 32  1  1  0  0  0
  1  2  1  0  0  0
  2  3  2  0  0  0
  2  4  1  0  0  0
  4 12  1  0  0  0
 12 13  1  0  0  0
 13 14  1  0  0  0
 14 15  1  0  0  0
 15 18  1  0  0  0
 18 19  1  0  0  0
 19 20  1  0  0  0
 19 21  1  0  0  0
 19 22  1  0  0  0
 15 16  1  0  0  0
 16 17  1  0  0  0
  4  5  2  0  0  0
  5  6  1  0  0  0
  6  7  1  0  0  0
  7  8  2  0  0  0
  8  9  1  0  0  0
  9 24  1  0  0  0
 24 25  2  0  0  0
 25 26  1  0  0  0
 26 27  2  0  0  0
 27 30  1  0  0  0
 30 31  1  0  0  0
 27 28  1  0  0  0
 28 29  2  0  0  0
  9 10  2  0  0  0
 10 11  1  0  0  0
 11  1  1  0  0  0
 17 12  1  0  0  0
 11  6  2  0  0  0
 29 24  1  0  0  0
 22 23  1  0  0  0
M  END
> <minimizedAffinity>
-8.53697

$$$$



 37 40  0  0  0  0  0  0  0  0999 V2000
    2.2992   67.8335   83.3197 N   0  0  0  0  0  0  0  0  0  0  0  0
    1.8771   66.5270   83.0631 C   0  0  0  0  0  0  0  0  0  0  0  0
    2.1715   65.5791   83.7840 O   0  0  0  0  0  0  0  0  0  0  0  0
    0.9567   66.3145   81.8134 C   0  0  0  0  0  0  0  0  0  0  0  0
    0.4576   67.3545   81.1982 N   0  0  0  0  0  0  0  0  0  0  0  0
    0.8012   68.6468   81.6036 C   0  0  0  0  0  0  0  0  0  0  0  0
    0.2334   69.7312   80.9477 C   0  0  0  0  0  0  0  0  0  0  0  0
    0.4951   71.0302   81.2281 N   0  0  0  0  0  0  0  0  0  0  0  0
    1.3768   71.2950   82.2188 C   0  0  0  0  0  0  0  0  0  0  0  0
    2.0045   70.2642   82.9229 C   0  0  0  0  0  0  0  0  0  0  0  0
    1.7150   68.9249   82.6187 C   0  0  0  0  0  0  0  0  0  0  0  0
    0.6461   65.0300   81.3345 N   0  0  0  0  0  0  0  0  0  0  0  0
    0.1200   63.9719   82.2145 C   0  0  0  0  0  0  0  0  0  0  0  0
    0.2310   62.5591   81.5953 C   0  0  0  0  0  0  0  0  0  0  0  0
   -0.2644   62.4267   80.2090 N   0  0  0  0  0  0  0  0  0  0  0  0
    0.4362   63.4427   79.3990 C   0  0  0  0  0  0  0  0  0  0  0  0
    0.2952   64.8902   79.9038 C   0  0  0  0  0  0  0  0  0  0  0  0
   -1.7392   62.5125   80.1578 C   0  0  0  0  0  0  0  0  0  0  0  0
   -2.5137   61.2572   79.6457 C   0  0  0  0  0  0  0  0  0  0  0  0
   -2.1091   60.9685   78.1926 C   0  0  0  0  0  0  0  0  0  0  0  0
   -4.0312   61.4339   79.7238 C   0  0  0  0  0  0  0  0  0  0  0  0
   -2.1569   60.0999   80.4151 O   0  0  0  0  0  0  0  0  0  0  0  0
   -1.2170   59.9110   80.2551 H   0  0  0  0  0  0  0  0  0  0  0  0
    1.6211   72.7248   82.4860 C   0  0  0  0  0  0  0  0  0  0  0  0
    2.7492   73.2021   83.1702 C   0  0  0  0  0  0  0  0  0  0  0  0
    2.9234   74.5707   83.3858 C   0  0  0  0  0  0  0  0  0  0  0  0
    1.9590   75.4428   82.9138 C   0  0  0  0  0  0  0  0  0  0  0  0
    0.8542   75.0415   82.2580 N   0  0  0  0  0  0  0  0  0  0  0  0
    0.7132   73.7033   82.0690 C   0  0  0  0  0  0  0  0  0  0  0  0
    2.1778   76.7847   83.1503 O   0  0  0  0  0  0  0  0  0  0  0  0
    2.7061   77.0404   84.4478 C   0  0  0  0  0  0  0  0  0  0  0  0
    3.2072   68.0418   84.4437 C   0  0  0  0  0  0  0  0  0  0  0  0
    4.6572   68.2649   84.0058 C   0  0  0  0  0  0  0  0  0  0  0  0
    5.5252   67.7522   85.0181 O   0  0  0  0  0  0  0  0  0  0  0  0
    5.0007   66.5984   85.6755 C   0  0  0  0  0  0  0  0  0  0  0  0
    7.2191   65.7286   84.8576 C   0  0  0  0  0  0  0  0  0  0  0  0
    5.8315   65.3598   85.3528 C   0  0  0  0  0  0  0  0  0  0  0  0
 36 37  1  0  0  0
 37 35  1  0  0  0
 35 34  1  0  0  0
 34 33  1  0  0  0
 33 32  1  0  0  0
 32  1  1  0  0  0
  1  2  1  0  0  0
  2  3  2  0  0  0
  2  4  1  0  0  0
  4 12  1  0  0  0
 12 13  1  0  0  0
 13 14  1  0  0  0
 14 15  1  0  0  0
 15 18  1  0  0  0
 18 19  1  0  0  0
 19 20  1  0  0  0
 19 21  1  0  0  0
 19 22  1  0  0  0
 15 16  1  0  0  0
 16 17  1  0  0  0
  4  5  2  0  0  0
  5  6  1  0  0  0
  6  7  1  0  0  0
  7  8  2  0  0  0
  8  9  1  0  0  0
  9 24  1  0  0  0
 24 25  2  0  0  0
 25 26  1  0  0  0
 26 27  2  0  0  0
 27 30  1  0  0  0
 30 31  1  0  0  0
 27 28  1  0  0  0
 28 29  2  0  0  0
  9 10  2  0  0  0
 10 11  1  0  0  0
 11  1  1  0  0  0
 17 12  1  0  0  0
 11  6  2  0  0  0
 29 24  1  0  0  0
 22 23  1  0  0  0
M  END
> <minimizedAffinity>
-8.28162

$$$$



 37 40  0  0  0  0  0  0  0  0999 V2000
    3.4508   67.1221   83.9517 N   0  0  0  0  0  0  0  0  0  0  0  0
    2.7813   65.9361   84.2620 C   0  0  0  0  0  0  0  0  0  0  0  0
    3.1571   65.1714   85.1447 O   0  0  0  0  0  0  0  0  0  0  0  0
    1.4770   65.6281   83.4509 C   0  0  0  0  0  0  0  0  0  0  0  0
    0.9592   66.5562   82.6895 N   0  0  0  0  0  0  0  0  0  0  0  0
    1.6029   67.7873   82.5399 C   0  0  0  0  0  0  0  0  0  0  0  0
    1.0141   68.7626   81.7458 C   0  0  0  0  0  0  0  0  0  0  0  0
    1.5408   69.9866   81.5032 N   0  0  0  0  0  0  0  0  0  0  0  0
    2.7306   70.2840   82.0733 C   0  0  0  0  0  0  0  0  0  0  0  0
    3.3992   69.3571   82.8772 C   0  0  0  0  0  0  0  0  0  0  0  0
    2.8326   68.0959   83.1191 C   0  0  0  0  0  0  0  0  0  0  0  0
    0.8408   64.3768   83.5224 N   0  0  0  0  0  0  0  0  0  0  0  0
   -0.1452   64.0581   84.5698 C   0  0  0  0  0  0  0  0  0  0  0  0
   -0.4095   62.5408   84.7105 C   0  0  0  0  0  0  0  0  0  0  0  0
   -0.6842   61.8191   83.4503 N   0  0  0  0  0  0  0  0  0  0  0  0
    0.4382   62.1028   82.5343 C   0  0  0  0  0  0  0  0  0  0  0  0
    0.7051   63.5962   82.2727 C   0  0  0  0  0  0  0  0  0  0  0  0
   -2.0165   62.1683   82.9135 C   0  0  0  0  0  0  0  0  0  0  0  0
   -2.8706   61.0116   82.3047 C   0  0  0  0  0  0  0  0  0  0  0  0
   -1.9448   60.0236   81.5801 C   0  0  0  0  0  0  0  0  0  0  0  0
   -3.9328   61.5202   81.3284 C   0  0  0  0  0  0  0  0  0  0  0  0
   -3.5322   60.2766   83.3443 O   0  0  0  0  0  0  0  0  0  0  0  0
   -2.8513   59.8426   83.8852 H   0  0  0  0  0  0  0  0  0  0  0  0
    3.2559   71.6308   81.7807 C   0  0  0  0  0  0  0  0  0  0  0  0
    3.1858   72.7016   82.6846 C   0  0  0  0  0  0  0  0  0  0  0  0
    3.7079   73.9519   82.3471 C   0  0  0  0  0  0  0  0  0  0  0  0
    4.2911   74.1114   81.1030 C   0  0  0  0  0  0  0  0  0  0  0  0
    4.3797   73.1228   80.1940 N   0  0  0  0  0  0  0  0  0  0  0  0
    3.8581   71.9204   80.5522 C   0  0  0  0  0  0  0  0  0  0  0  0
    4.7936   75.3647   80.8179 O   0  0  0  0  0  0  0  0  0  0  0  0
    5.4704   75.4195   79.5662 C   0  0  0  0  0  0  0  0  0  0  0  0
    4.7012   67.3958   84.6539 C   0  0  0  0  0  0  0  0  0  0  0  0
    4.4867   68.0536   86.0196 C   0  0  0  0  0  0  0  0  0  0  0  0
    5.4916   67.5808   86.9184 O   0  0  0  0  0  0  0  0  0  0  0  0
    6.1504   66.4024   86.4539 C   0  0  0  0  0  0  0  0  0  0  0  0
    5.6592   65.5760   88.7825 C   0  0  0  0  0  0  0  0  0  0  0  0
    5.7894   65.1972   87.3175 C   0  0  0  0  0  0  0  0  0  0  0  0
 36 37  1  0  0  0
 37 35  1  0  0  0
 35 34  1  0  0  0
 34 33  1  0  0  0
 33 32  1  0  0  0
 32  1  1  0  0  0
  1  2  1  0  0  0
  2  3  2  0  0  0
  2  4  1  0  0  0
  4 12  1  0  0  0
 12 13  1  0  0  0
 13 14  1  0  0  0
 14 15  1  0  0  0
 15 18  1  0  0  0
 18 19  1  0  0  0
 19 20  1  0  0  0
 19 21  1  0  0  0
 19 22  1  0  0  0
 15 16  1  0  0  0
 16 17  1  0  0  0
  4  5  2  0  0  0
  5  6  1  0  0  0
  6  7  1  0  0  0
  7  8  2  0  0  0
  8  9  1  0  0  0
  9 24  1  0  0  0
 24 25  2  0  0  0
 25 26  1  0  0  0
 26 27  2  0  0  0
 27 30  1  0  0  0
 30 31  1  0  0  0
 27 28  1  0  0  0
 28 29  2  0  0  0
  9 10  2  0  0  0
 10 11  1  0  0  0
 11  1  1  0  0  0
 17 12  1  0  0  0
 11  6  2  0  0  0
 29 24  1  0  0  0
 22 23  1  0  0  0
M  END
> <minimizedAffinity>
-8.18118

$$$$



 37 40  0  0  0  0  0  0  0  0999 V2000
    1.0853   65.7313   82.5111 N   0  0  0  0  0  0  0  0  0  0  0  0
    1.5490   67.0267   82.7519 C   0  0  0  0  0  0  0  0  0  0  0  0
    2.2214   67.3206   83.7351 O   0  0  0  0  0  0  0  0  0  0  0  0
    1.2071   68.1113   81.6745 C   0  0  0  0  0  0  0  0  0  0  0  0
    0.7034   67.7406   80.5264 N   0  0  0  0  0  0  0  0  0  0  0  0
    0.4016   66.3971   80.2885 C   0  0  0  0  0  0  0  0  0  0  0  0
   -0.1071   66.0308   79.0494 C   0  0  0  0  0  0  0  0  0  0  0  0
   -0.4578   64.7708   78.6973 N   0  0  0  0  0  0  0  0  0  0  0  0
   -0.3049   63.7939   79.6201 C   0  0  0  0  0  0  0  0  0  0  0  0
    0.1884   64.0756   80.8966 C   0  0  0  0  0  0  0  0  0  0  0  0
    0.5501   65.3880   81.2385 C   0  0  0  0  0  0  0  0  0  0  0  0
    1.4320   69.4793   81.9060 N   0  0  0  0  0  0  0  0  0  0  0  0
    2.7786   70.0193   82.1628 C   0  0  0  0  0  0  0  0  0  0  0  0
    2.7544   71.4367   82.7808 C   0  0  0  0  0  0  0  0  0  0  0  0
    1.8826   72.4173   82.1002 N   0  0  0  0  0  0  0  0  0  0  0  0
    0.5338   71.8219   82.0280 C   0  0  0  0  0  0  0  0  0  0  0  0
    0.4641   70.4457   81.3415 C   0  0  0  0  0  0  0  0  0  0  0  0
    2.4465   72.8179   80.7938 C   0  0  0  0  0  0  0  0  0  0  0  0
    2.2808   74.3109   80.3681 C   0  0  0  0  0  0  0  0  0  0  0  0
    2.3824   75.2077   81.6107 C   0  0  0  0  0  0  0  0  0  0  0  0
    0.9501   74.5734   79.6609 C   0  0  0  0  0  0  0  0  0  0  0  0
    3.3424   74.7010   79.4852 O   0  0  0  0  0  0  0  0  0  0  0  0
    4.1765   74.6615   79.9826 H   0  0  0  0  0  0  0  0  0  0  0  0
   -0.6969   62.4408   79.1831 C   0  0  0  0  0  0  0  0  0  0  0  0
   -1.5829   61.6227   79.9003 C   0  0  0  0  0  0  0  0  0  0  0  0
   -1.9171   60.3519   79.4280 C   0  0  0  0  0  0  0  0  0  0  0  0
   -1.3536   59.9175   78.2418 C   0  0  0  0  0  0  0  0  0  0  0  0
   -0.4932   60.6556   77.5163 N   0  0  0  0  0  0  0  0  0  0  0  0
   -0.1856   61.8851   78.0060 C   0  0  0  0  0  0  0  0  0  0  0  0
   -1.7168   58.6557   77.8167 O   0  0  0  0  0  0  0  0  0  0  0  0
   -1.5982   58.4896   76.4074 C   0  0  0  0  0  0  0  0  0  0  0  0
    1.3412   64.7211   83.5335 C   0  0  0  0  0  0  0  0  0  0  0  0
    0.2376   64.6511   84.5922 C   0  0  0  0  0  0  0  0  0  0  0  0
   -0.1679   63.2893   84.7414 O   0  0  0  0  0  0  0  0  0  0  0  0
   -0.7575   63.0154   86.0126 C   0  0  0  0  0  0  0  0  0  0  0  0
   -0.5445   63.3609   88.4990 C   0  0  0  0  0  0  0  0  0  0  0  0
   -0.0188   63.7493   87.1280 C   0  0  0  0  0  0  0  0  0  0  0  0
 36 37  1  0  0  0
 37 35  1  0  0  0
 35 34  1  0  0  0
 34 33  1  0  0  0
 33 32  1  0  0  0
 32  1  1  0  0  0
  1  2  1  0  0  0
  2  3  2  0  0  0
  2  4  1  0  0  0
  4 12  1  0  0  0
 12 13  1  0  0  0
 13 14  1  0  0  0
 14 15  1  0  0  0
 15 18  1  0  0  0
 18 19  1  0  0  0
 19 20  1  0  0  0
 19 21  1  0  0  0
 19 22  1  0  0  0
 15 16  1  0  0  0
 16 17  1  0  0  0
  4  5  2  0  0  0
  5  6  1  0  0  0
  6  7  1  0  0  0
  7  8  2  0  0  0
  8  9  1  0  0  0
  9 24  1  0  0  0
 24 25  2  0  0  0
 25 26  1  0  0  0
 26 27  2  0  0  0
 27 30  1  0  0  0
 30 31  1  0  0  0
 27 28  1  0  0  0
 28 29  2  0  0  0
  9 10  2  0  0  0
 10 11  1  0  0  0
 11  1  1  0  0  0
 17 12  1  0  0  0
 11  6  2  0  0  0
 29 24  1  0  0  0
 22 23  1  0  0  0
M  END
> <minimizedAffinity>
-8.06858

$$$$



 37 40  0  0  0  0  0  0  0  0999 V2000
    1.7631   66.3555   83.3154 N   0  0  0  0  0  0  0  0  0  0  0  0
    2.4672   67.5496   83.1439 C   0  0  0  0  0  0  0  0  0  0  0  0
    3.3982   67.8831   83.8699 O   0  0  0  0  0  0  0  0  0  0  0  0
    2.0431   68.4526   81.9361 C   0  0  0  0  0  0  0  0  0  0  0  0
    1.2209   67.9789   81.0367 N   0  0  0  0  0  0  0  0  0  0  0  0
    0.6649   66.7060   81.1889 C   0  0  0  0  0  0  0  0  0  0  0  0
   -0.1838   66.2200   80.2031 C   0  0  0  0  0  0  0  0  0  0  0  0
   -0.8016   65.0152   80.2374 N   0  0  0  0  0  0  0  0  0  0  0  0
   -0.5798   64.2245   81.3119 C   0  0  0  0  0  0  0  0  0  0  0  0
    0.2503   64.6397   82.3563 C   0  0  0  0  0  0  0  0  0  0  0  0
    0.8843   65.8905   82.2979 C   0  0  0  0  0  0  0  0  0  0  0  0
    2.5277   69.7636   81.7879 N   0  0  0  0  0  0  0  0  0  0  0  0
    3.0907   70.2517   80.5169 C   0  0  0  0  0  0  0  0  0  0  0  0
    3.9174   71.5485   80.6795 C   0  0  0  0  0  0  0  0  0  0  0  0
    3.2685   72.6291   81.4514 N   0  0  0  0  0  0  0  0  0  0  0  0
    2.8755   72.0562   82.7539 C   0  0  0  0  0  0  0  0  0  0  0  0
    1.9732   70.8114   82.6734 C   0  0  0  0  0  0  0  0  0  0  0  0
    2.1576   73.2377   80.6894 C   0  0  0  0  0  0  0  0  0  0  0  0
    1.7997   74.7241   81.0062 C   0  0  0  0  0  0  0  0  0  0  0  0
    0.5799   74.7654   81.9383 C   0  0  0  0  0  0  0  0  0  0  0  0
    1.5010   75.5356   79.7443 C   0  0  0  0  0  0  0  0  0  0  0  0
    2.8790   75.3615   81.7042 O   0  0  0  0  0  0  0  0  0  0  0  0
    2.9770   74.9261   82.5676 H   0  0  0  0  0  0  0  0  0  0  0  0
   -1.2725   62.9224   81.2959 C   0  0  0  0  0  0  0  0  0  0  0  0
   -2.1667   62.5096   82.2953 C   0  0  0  0  0  0  0  0  0  0  0  0
   -2.7941   61.2646   82.2174 C   0  0  0  0  0  0  0  0  0  0  0  0
   -2.5123   60.4481   81.1371 C   0  0  0  0  0  0  0  0  0  0  0  0
   -1.6586   60.7886   80.1538 N   0  0  0  0  0  0  0  0  0  0  0  0
   -1.0617   62.0044   80.2622 C   0  0  0  0  0  0  0  0  0  0  0  0
   -3.1588   59.2292   81.1050 O   0  0  0  0  0  0  0  0  0  0  0  0
   -3.5400   58.8379   79.7900 C   0  0  0  0  0  0  0  0  0  0  0  0
    2.1028   65.5308   84.4712 C   0  0  0  0  0  0  0  0  0  0  0  0
    0.9441   65.3849   85.4610 C   0  0  0  0  0  0  0  0  0  0  0  0
    1.2193   64.2839   86.3290 O   0  0  0  0  0  0  0  0  0  0  0  0
    0.0397   63.6290   86.7960 C   0  0  0  0  0  0  0  0  0  0  0  0
   -2.1849   62.7126   86.0488 C   0  0  0  0  0  0  0  0  0  0  0  0
   -0.7650   63.0561   85.6330 C   0  0  0  0  0  0  0  0  0  0  0  0
 36 37  1  0  0  0
 37 35  1  0  0  0
 35 34  1  0  0  0
 34 33  1  0  0  0
 33 32  1  0  0  0
 32  1  1  0  0  0
  1  2  1  0  0  0
  2  3  2  0  0  0
  2  4  1  0  0  0
  4 12  1  0  0  0
 12 13  1  0  0  0
 13 14  1  0  0  0
 14 15  1  0  0  0
 15 18  1  0  0  0
 18 19  1  0  0  0
 19 20  1  0  0  0
 19 21  1  0  0  0
 19 22  1  0  0  0
 15 16  1  0  0  0
 16 17  1  0  0  0
  4  5  2  0  0  0
  5  6  1  0  0  0
  6  7  1  0  0  0
  7  8  2  0  0  0
  8  9  1  0  0  0
  9 24  1  0  0  0
 24 25  2  0  0  0
 25 26  1  0  0  0
 26 27  2  0  0  0
 27 30  1  0  0  0
 30 31  1  0  0  0
 27 28  1  0  0  0
 28 29  2  0  0  0
  9 10  2  0  0  0
 10 11  1  0  0  0
 11  1  1  0  0  0
 17 12  1  0  0  0
 11  6  2  0  0  0
 29 24  1  0  0  0
 22 23  1  0  0  0
M  END
> <minimizedAffinity>
-7.92858

$$$$
