


 29 33  0  0  0  0  0  0  0  0999 V2000
    0.9175   65.3026   80.3961 N   0  0  0  0  0  0  0  0  0  0  0  0
    0.1623   64.2730   80.8954 C   0  0  0  0  0  0  0  0  0  0  0  0
   -0.3351   63.3534   80.2623 O   0  0  0  0  0  0  0  0  0  0  0  0
   -0.0390   64.5310   82.3749 C   0  0  0  0  0  0  0  0  0  0  0  0
    0.0606   63.3148   83.2889 C   0  0  0  0  0  0  0  0  0  0  0  0
    0.1923   63.8251   84.6873 C   0  0  0  0  0  0  0  0  0  0  0  0
    0.7103   65.0854   84.9444 C   0  0  0  0  0  0  0  0  0  0  0  0
    0.6677   65.2845   86.2995 N   0  0  0  0  0  0  0  0  0  0  0  0
    0.1533   64.1672   86.9227 C   0  0  0  0  0  0  0  0  0  0  0  0
   -0.0622   63.9179   88.2834 C   0  0  0  0  0  0  0  0  0  0  0  0
   -0.6085   62.6807   88.6376 C   0  0  0  0  0  0  0  0  0  0  0  0
   -0.9268   61.7321   87.6685 C   0  0  0  0  0  0  0  0  0  0  0  0
   -0.7059   61.9952   86.3118 C   0  0  0  0  0  0  0  0  0  0  0  0
   -0.1544   63.2333   85.9296 C   0  0  0  0  0  0  0  0  0  0  0  0
    1.2318   66.0911   83.9425 C   0  0  0  0  0  0  0  0  0  0  0  0
    1.0152   65.5111   82.6092 N   0  0  0  0  0  0  0  0  0  0  0  0
    1.4087   66.0835   81.4109 C   0  0  0  0  0  0  0  0  0  0  0  0
    2.0924   67.0861   81.2850 O   0  0  0  0  0  0  0  0  0  0  0  0
    0.9796   66.1163   86.7836 H   0  0  0  0  0  0  0  0  0  0  0  0
    2.6974   66.4035   84.2188 C   0  0  0  0  0  0  0  0  0  0  0  0
    3.5659   65.3786   84.6522 C   0  0  0  0  0  0  0  0  0  0  0  0
    4.9115   65.6369   84.9206 C   0  0  0  0  0  0  0  0  0  0  0  0
    5.4076   66.9271   84.7718 C   0  0  0  0  0  0  0  0  0  0  0  0
    7.0642   67.2492   85.1055 Cl  0  0  0  0  0  0  0  0  0  0  0  0
    4.5695   67.9623   84.3694 C   0  0  0  0  0  0  0  0  0  0  0  0
    3.2210   67.7035   84.1018 C   0  0  0  0  0  0  0  0  0  0  0  0
    2.2332   69.0562   83.6714 Cl  0  0  0  0  0  0  0  0  0  0  0  0
    0.0544   65.2854   78.0989 C   0  0  0  0  0  0  0  0  0  0  0  0
    1.2648   65.4685   79.0008 C   0  0  0  0  0  0  0  0  0  0  0  0
 28 29  1  0  0  0
 29  1  1  0  0  0
  1  2  1  0  0  0
  2  3  2  0  0  0
  2  4  1  0  0  0
  4  5  1  0  0  0
  5  6  1  0  0  0
  6  7  2  0  0  0
  7  8  1  0  0  0
  8  9  1  0  0  0
  9 10  2  0  0  0
 10 11  1  0  0  0
 11 12  2  0  0  0
 12 13  1  0  0  0
 13 14  2  0  0  0
  7 15  1  0  0  0
 15 20  1  0  0  0
 20 21  1  0  0  0
 21 22  2  0  0  0
 22 23  1  0  0  0
 23 24  1  0  0  0
 23 25  2  0  0  0
 25 26  1  0  0  0
 26 27  1  0  0  0
 15 16  1  0  0  0
 16 17  1  0  0  0
 17 18  2  0  0  0
 17  1  1  0  0  0
 16  4  1  0  0  0
 14  6  1  0  0  0
 26 20  2  0  0  0
 14  9  1  0  0  0
  8 19  1  0  0  0
M  END
> <minimizedAffinity>
-11.04783

$$$$



 29 33  0  0  0  0  0  0  0  0999 V2000
    1.4528   66.6562   81.3041 N   0  0  0  0  0  0  0  0  0  0  0  0
    1.6098   66.9355   82.6372 C   0  0  0  0  0  0  0  0  0  0  0  0
    1.9108   68.0123   83.1310 O   0  0  0  0  0  0  0  0  0  0  0  0
    1.4441   65.6356   83.3980 C   0  0  0  0  0  0  0  0  0  0  0  0
    0.6543   65.7147   84.6997 C   0  0  0  0  0  0  0  0  0  0  0  0
    0.3068   64.3144   85.0891 C   0  0  0  0  0  0  0  0  0  0  0  0
    0.2195   63.3074   84.1398 C   0  0  0  0  0  0  0  0  0  0  0  0
   -0.0713   62.1404   84.7966 N   0  0  0  0  0  0  0  0  0  0  0  0
   -0.1957   62.3804   86.1487 C   0  0  0  0  0  0  0  0  0  0  0  0
   -0.4939   61.4972   87.1931 C   0  0  0  0  0  0  0  0  0  0  0  0
   -0.5533   62.0205   88.4883 C   0  0  0  0  0  0  0  0  0  0  0  0
   -0.3225   63.3732   88.7276 C   0  0  0  0  0  0  0  0  0  0  0  0
   -0.0253   64.2445   87.6735 C   0  0  0  0  0  0  0  0  0  0  0  0
    0.0381   63.7420   86.3594 C   0  0  0  0  0  0  0  0  0  0  0  0
    0.4093   63.4294   82.6444 C   0  0  0  0  0  0  0  0  0  0  0  0
    0.7882   64.8247   82.3787 N   0  0  0  0  0  0  0  0  0  0  0  0
    0.9956   65.3756   81.1250 C   0  0  0  0  0  0  0  0  0  0  0  0
    0.7825   64.8274   80.0561 O   0  0  0  0  0  0  0  0  0  0  0  0
   -0.1951   61.2347   84.3631 H   0  0  0  0  0  0  0  0  0  0  0  0
   -0.8611   63.0137   81.9130 C   0  0  0  0  0  0  0  0  0  0  0  0
   -2.1114   63.5179   82.3319 C   0  0  0  0  0  0  0  0  0  0  0  0
   -3.2928   63.1486   81.6860 C   0  0  0  0  0  0  0  0  0  0  0  0
   -3.2444   62.2592   80.6185 C   0  0  0  0  0  0  0  0  0  0  0  0
   -4.6989   61.7993   79.8232 Cl  0  0  0  0  0  0  0  0  0  0  0  0
   -2.0292   61.7272   80.1990 C   0  0  0  0  0  0  0  0  0  0  0  0
   -0.8457   62.0964   80.8472 C   0  0  0  0  0  0  0  0  0  0  0  0
    0.6128   61.3398   80.3078 Cl  0  0  0  0  0  0  0  0  0  0  0  0
    0.4038   68.5311   80.1182 C   0  0  0  0  0  0  0  0  0  0  0  0
    1.6148   67.6192   80.2358 C   0  0  0  0  0  0  0  0  0  0  0  0
 28 29  1  0  0  0
 29  1  1  0  0  0
  1  2  1  0  0  0
  2  3  2  0  0  0
  2  4  1  0  0  0
  4  5  1  0  0  0
  5  6  1  0  0  0
  6  7  2  0  0  0
  7  8  1  0  0  0
  8  9  1  0  0  0
  9 10  2  0  0  0
 10 11  1  0  0  0
 11 12  2  0  0  0
 12 13  1  0  0  0
 13 14  2  0  0  0
  7 15  1  0  0  0
 15 20  1  0  0  0
 20 21  1  0  0  0
 21 22  2  0  0  0
 22 23  1  0  0  0
 23 24  1  0  0  0
 23 25  2  0  0  0
 25 26  1  0  0  0
 26 27  1  0  0  0
 15 16  1  0  0  0
 16 17  1  0  0  0
 17 18  2  0  0  0
 17  1  1  0  0  0
 16  4  1  0  0  0
 14  6  1  0  0  0
 26 20  2  0  0  0
 14  9  1  0  0  0
  8 19  1  0  0  0
M  END
> <minimizedAffinity>
-10.72717

$$$$



 29 33  0  0  0  0  0  0  0  0999 V2000
   -1.2009   61.4151   79.4861 N   0  0  0  0  0  0  0  0  0  0  0  0
   -0.9815   62.6156   78.8613 C   0  0  0  0  0  0  0  0  0  0  0  0
   -1.3423   62.9352   77.7380 O   0  0  0  0  0  0  0  0  0  0  0  0
   -0.1129   63.4542   79.7769 C   0  0  0  0  0  0  0  0  0  0  0  0
   -0.4726   64.9324   79.8766 C   0  0  0  0  0  0  0  0  0  0  0  0
    0.2471   65.4810   81.0658 C   0  0  0  0  0  0  0  0  0  0  0  0
    0.6251   64.6590   82.1167 C   0  0  0  0  0  0  0  0  0  0  0  0
    1.2942   65.4315   83.0296 N   0  0  0  0  0  0  0  0  0  0  0  0
    1.3347   66.7404   82.5977 C   0  0  0  0  0  0  0  0  0  0  0  0
    1.8989   67.8686   83.2049 C   0  0  0  0  0  0  0  0  0  0  0  0
    1.7944   69.0888   82.5305 C   0  0  0  0  0  0  0  0  0  0  0  0
    1.1517   69.1754   81.2977 C   0  0  0  0  0  0  0  0  0  0  0  0
    0.5923   68.0389   80.7026 C   0  0  0  0  0  0  0  0  0  0  0  0
    0.6824   66.7985   81.3631 C   0  0  0  0  0  0  0  0  0  0  0  0
    0.3716   63.1755   82.2657 C   0  0  0  0  0  0  0  0  0  0  0  0
   -0.2956   62.7346   81.0321 N   0  0  0  0  0  0  0  0  0  0  0  0
   -0.7591   61.4532   80.7839 C   0  0  0  0  0  0  0  0  0  0  0  0
   -0.7924   60.5343   81.5858 O   0  0  0  0  0  0  0  0  0  0  0  0
    1.6896   65.1049   83.9016 H   0  0  0  0  0  0  0  0  0  0  0  0
   -0.4574   62.9021   83.5146 C   0  0  0  0  0  0  0  0  0  0  0  0
    0.1560   62.3486   84.6592 C   0  0  0  0  0  0  0  0  0  0  0  0
   -0.5798   62.0800   85.8150 C   0  0  0  0  0  0  0  0  0  0  0  0
   -1.9435   62.3491   85.8407 C   0  0  0  0  0  0  0  0  0  0  0  0
   -2.8535   62.0156   87.2621 Cl  0  0  0  0  0  0  0  0  0  0  0  0
   -2.5798   62.8722   84.7194 C   0  0  0  0  0  0  0  0  0  0  0  0
   -1.8427   63.1400   83.5609 C   0  0  0  0  0  0  0  0  0  0  0  0
   -2.7201   63.7264   82.1910 Cl  0  0  0  0  0  0  0  0  0  0  0  0
   -3.4151   60.4042   79.1736 C   0  0  0  0  0  0  0  0  0  0  0  0
   -1.9221   60.3031   78.9044 C   0  0  0  0  0  0  0  0  0  0  0  0
 28 29  1  0  0  0
 29  1  1  0  0  0
  1  2  1  0  0  0
  2  3  2  0  0  0
  2  4  1  0  0  0
  4  5  1  0  0  0
  5  6  1  0  0  0
  6  7  2  0  0  0
  7  8  1  0  0  0
  8  9  1  0  0  0
  9 10  2  0  0  0
 10 11  1  0  0  0
 11 12  2  0  0  0
 12 13  1  0  0  0
 13 14  2  0  0  0
  7 15  1  0  0  0
 15 20  1  0  0  0
 20 21  1  0  0  0
 21 22  2  0  0  0
 22 23  1  0  0  0
 23 24  1  0  0  0
 23 25  2  0  0  0
 25 26  1  0  0  0
 26 27  1  0  0  0
 15 16  1  0  0  0
 16 17  1  0  0  0
 17 18  2  0  0  0
 17  1  1  0  0  0
 16  4  1  0  0  0
 14  6  1  0  0  0
 26 20  2  0  0  0
 14  9  1  0  0  0
  8 19  1  0  0  0
M  END
> <minimizedAffinity>
-10.37020

$$$$



 29 33  0  0  0  0  0  0  0  0999 V2000
   -1.2635   62.7248   77.7368 N   0  0  0  0  0  0  0  0  0  0  0  0
   -1.0498   64.0406   77.4167 C   0  0  0  0  0  0  0  0  0  0  0  0
   -1.4227   64.6204   76.4073 O   0  0  0  0  0  0  0  0  0  0  0  0
   -0.1703   64.6359   78.4976 C   0  0  0  0  0  0  0  0  0  0  0  0
   -0.5274   66.0461   78.9538 C   0  0  0  0  0  0  0  0  0  0  0  0
    0.2060   66.2938   80.2321 C   0  0  0  0  0  0  0  0  0  0  0  0
    0.5947   65.2438   81.0502 C   0  0  0  0  0  0  0  0  0  0  0  0
    1.2747   65.7752   82.1147 N   0  0  0  0  0  0  0  0  0  0  0  0
    1.3117   67.1496   82.0099 C   0  0  0  0  0  0  0  0  0  0  0  0
    1.8838   68.0996   82.8644 C   0  0  0  0  0  0  0  0  0  0  0  0
    1.7731   69.4460   82.5044 C   0  0  0  0  0  0  0  0  0  0  0  0
    1.1168   69.8255   81.3358 C   0  0  0  0  0  0  0  0  0  0  0  0
    0.5497   68.8646   80.4910 C   0  0  0  0  0  0  0  0  0  0  0  0
    0.6459   67.5018   80.8327 C   0  0  0  0  0  0  0  0  0  0  0  0
    0.3414   63.7676   80.8408 C   0  0  0  0  0  0  0  0  0  0  0  0
   -0.3398   63.6352   79.5448 N   0  0  0  0  0  0  0  0  0  0  0  0
   -0.8073   62.4504   79.0008 C   0  0  0  0  0  0  0  0  0  0  0  0
   -0.8327   61.3655   79.5584 O   0  0  0  0  0  0  0  0  0  0  0  0
    1.6794   65.2491   82.8782 H   0  0  0  0  0  0  0  0  0  0  0  0
   -0.4739   63.2004   81.9963 C   0  0  0  0  0  0  0  0  0  0  0  0
   -1.6895   63.8143   82.3680 C   0  0  0  0  0  0  0  0  0  0  0  0
   -2.4537   63.3216   83.4275 C   0  0  0  0  0  0  0  0  0  0  0  0
   -2.0084   62.2144   84.1406 C   0  0  0  0  0  0  0  0  0  0  0  0
   -2.9460   61.6075   85.4492 Cl  0  0  0  0  0  0  0  0  0  0  0  0
   -0.8023   61.6034   83.8126 C   0  0  0  0  0  0  0  0  0  0  0  0
   -0.0361   62.0980   82.7517 C   0  0  0  0  0  0  0  0  0  0  0  0
    1.4806   61.3232   82.4516 Cl  0  0  0  0  0  0  0  0  0  0  0  0
   -3.4834   61.8231   77.2066 C   0  0  0  0  0  0  0  0  0  0  0  0
   -1.9922   61.7841   76.9127 C   0  0  0  0  0  0  0  0  0  0  0  0
 28 29  1  0  0  0
 29  1  1  0  0  0
  1  2  1  0  0  0
  2  3  2  0  0  0
  2  4  1  0  0  0
  4  5  1  0  0  0
  5  6  1  0  0  0
  6  7  2  0  0  0
  7  8  1  0  0  0
  8  9  1  0  0  0
  9 10  2  0  0  0
 10 11  1  0  0  0
 11 12  2  0  0  0
 12 13  1  0  0  0
 13 14  2  0  0  0
  7 15  1  0  0  0
 15 20  1  0  0  0
 20 21  1  0  0  0
 21 22  2  0  0  0
 22 23  1  0  0  0
 23 24  1  0  0  0
 23 25  2  0  0  0
 25 26  1  0  0  0
 26 27  1  0  0  0
 15 16  1  0  0  0
 16 17  1  0  0  0
 17 18  2  0  0  0
 17  1  1  0  0  0
 16  4  1  0  0  0
 14  6  1  0  0  0
 26 20  2  0  0  0
 14  9  1  0  0  0
  8 19  1  0  0  0
M  END
> <minimizedAffinity>
-10.09145

$$$$



 29 33  0  0  0  0  0  0  0  0999 V2000
   -0.3542   62.7974   85.6401 N   0  0  0  0  0  0  0  0  0  0  0  0
    0.4700   63.8835   85.7839 C   0  0  0  0  0  0  0  0  0  0  0  0
    1.2214   64.1159   86.7195 O   0  0  0  0  0  0  0  0  0  0  0  0
    0.2095   64.8116   84.6148 C   0  0  0  0  0  0  0  0  0  0  0  0
    1.4363   65.4671   83.9907 C   0  0  0  0  0  0  0  0  0  0  0  0
    1.0113   66.0316   82.6739 C   0  0  0  0  0  0  0  0  0  0  0  0
   -0.0750   65.5102   81.9877 C   0  0  0  0  0  0  0  0  0  0  0  0
   -0.2426   66.2522   80.8479 N   0  0  0  0  0  0  0  0  0  0  0  0
    0.7293   67.2276   80.7750 C   0  0  0  0  0  0  0  0  0  0  0  0
    0.9535   68.1993   79.7924 C   0  0  0  0  0  0  0  0  0  0  0  0
    2.0266   69.0757   79.9797 C   0  0  0  0  0  0  0  0  0  0  0  0
    2.8414   68.9833   81.1056 C   0  0  0  0  0  0  0  0  0  0  0  0
    2.6052   68.0067   82.0799 C   0  0  0  0  0  0  0  0  0  0  0  0
    1.5318   67.1105   81.9132 C   0  0  0  0  0  0  0  0  0  0  0  0
   -0.9470   64.3419   82.3904 C   0  0  0  0  0  0  0  0  0  0  0  0
   -0.4737   63.8957   83.7087 N   0  0  0  0  0  0  0  0  0  0  0  0
   -0.9627   62.8067   84.4110 C   0  0  0  0  0  0  0  0  0  0  0  0
   -1.7686   61.9893   83.9975 O   0  0  0  0  0  0  0  0  0  0  0  0
   -0.9586   66.1054   80.1484 H   0  0  0  0  0  0  0  0  0  0  0  0
   -0.8807   63.2430   81.3369 C   0  0  0  0  0  0  0  0  0  0  0  0
    0.3651   62.8658   80.7908 C   0  0  0  0  0  0  0  0  0  0  0  0
    0.4557   61.8679   79.8185 C   0  0  0  0  0  0  0  0  0  0  0  0
   -0.6996   61.2396   79.3675 C   0  0  0  0  0  0  0  0  0  0  0  0
   -0.5914   60.0123   78.1668 Cl  0  0  0  0  0  0  0  0  0  0  0  0
   -1.9438   61.6074   79.8700 C   0  0  0  0  0  0  0  0  0  0  0  0
   -2.0344   62.6083   80.8432 C   0  0  0  0  0  0  0  0  0  0  0  0
   -3.6219   63.0519   81.3665 Cl  0  0  0  0  0  0  0  0  0  0  0  0
   -1.5330   62.0016   87.6399 C   0  0  0  0  0  0  0  0  0  0  0  0
   -0.4660   61.7155   86.5951 C   0  0  0  0  0  0  0  0  0  0  0  0
 28 29  1  0  0  0
 29  1  1  0  0  0
  1  2  1  0  0  0
  2  3  2  0  0  0
  2  4  1  0  0  0
  4  5  1  0  0  0
  5  6  1  0  0  0
  6  7  2  0  0  0
  7  8  1  0  0  0
  8  9  1  0  0  0
  9 10  2  0  0  0
 10 11  1  0  0  0
 11 12  2  0  0  0
 12 13  1  0  0  0
 13 14  2  0  0  0
  7 15  1  0  0  0
 15 20  1  0  0  0
 20 21  1  0  0  0
 21 22  2  0  0  0
 22 23  1  0  0  0
 23 24  1  0  0  0
 23 25  2  0  0  0
 25 26  1  0  0  0
 26 27  1  0  0  0
 15 16  1  0  0  0
 16 17  1  0  0  0
 17 18  2  0  0  0
 17  1  1  0  0  0
 16  4  1  0  0  0
 14  6  1  0  0  0
 26 20  2  0  0  0
 14  9  1  0  0  0
  8 19  1  0  0  0
M  END
> <minimizedAffinity>
-9.95874

$$$$



 29 33  0  0  0  0  0  0  0  0999 V2000
   -0.5746   63.4941   86.0984 N   0  0  0  0  0  0  0  0  0  0  0  0
   -1.2413   62.4079   85.5931 C   0  0  0  0  0  0  0  0  0  0  0  0
   -2.0675   61.7187   86.1730 O   0  0  0  0  0  0  0  0  0  0  0  0
   -0.6941   62.1422   84.2052 C   0  0  0  0  0  0  0  0  0  0  0  0
   -1.7171   61.7617   83.1409 C   0  0  0  0  0  0  0  0  0  0  0  0
   -1.0428   61.8974   81.8142 C   0  0  0  0  0  0  0  0  0  0  0  0
    0.0360   62.7516   81.6428 C   0  0  0  0  0  0  0  0  0  0  0  0
    0.4608   62.6306   80.3456 N   0  0  0  0  0  0  0  0  0  0  0  0
   -0.3382   61.7316   79.6714 C   0  0  0  0  0  0  0  0  0  0  0  0
   -0.2844   61.3072   78.3383 C   0  0  0  0  0  0  0  0  0  0  0  0
   -1.2317   60.3689   77.9175 C   0  0  0  0  0  0  0  0  0  0  0  0
   -2.1933   59.8753   78.7962 C   0  0  0  0  0  0  0  0  0  0  0  0
   -2.2349   60.3088   80.1262 C   0  0  0  0  0  0  0  0  0  0  0  0
   -1.2929   61.2551   80.5739 C   0  0  0  0  0  0  0  0  0  0  0  0
    0.6650   63.6627   82.6732 C   0  0  0  0  0  0  0  0  0  0  0  0
   -0.0394   63.4181   83.9401 N   0  0  0  0  0  0  0  0  0  0  0  0
    0.1861   64.0940   85.1277 C   0  0  0  0  0  0  0  0  0  0  0  0
    0.9103   65.0649   85.2744 O   0  0  0  0  0  0  0  0  0  0  0  0
    1.2337   63.1330   79.9287 H   0  0  0  0  0  0  0  0  0  0  0  0
    0.5776   65.1150   82.2206 C   0  0  0  0  0  0  0  0  0  0  0  0
   -0.4860   65.5308   81.3907 C   0  0  0  0  0  0  0  0  0  0  0  0
   -0.5876   66.8530   80.9540 C   0  0  0  0  0  0  0  0  0  0  0  0
    0.3797   67.7782   81.3299 C   0  0  0  0  0  0  0  0  0  0  0  0
    0.2592   69.4072   80.7900 Cl  0  0  0  0  0  0  0  0  0  0  0  0
    1.4524   67.3917   82.1272 C   0  0  0  0  0  0  0  0  0  0  0  0
    1.5547   66.0665   82.5636 C   0  0  0  0  0  0  0  0  0  0  0  0
    2.9518   65.6532   83.4952 Cl  0  0  0  0  0  0  0  0  0  0  0  0
    0.1162   63.2847   88.4439 C   0  0  0  0  0  0  0  0  0  0  0  0
   -0.7512   64.0207   87.4351 C   0  0  0  0  0  0  0  0  0  0  0  0
 28 29  1  0  0  0
 29  1  1  0  0  0
  1  2  1  0  0  0
  2  3  2  0  0  0
  2  4  1  0  0  0
  4  5  1  0  0  0
  5  6  1  0  0  0
  6  7  2  0  0  0
  7  8  1  0  0  0
  8  9  1  0  0  0
  9 10  2  0  0  0
 10 11  1  0  0  0
 11 12  2  0  0  0
 12 13  1  0  0  0
 13 14  2  0  0  0
  7 15  1  0  0  0
 15 20  1  0  0  0
 20 21  1  0  0  0
 21 22  2  0  0  0
 22 23  1  0  0  0
 23 24  1  0  0  0
 23 25  2  0  0  0
 25 26  1  0  0  0
 26 27  1  0  0  0
 15 16  1  0  0  0
 16 17  1  0  0  0
 17 18  2  0  0  0
 17  1  1  0  0  0
 16  4  1  0  0  0
 14  6  1  0  0  0
 26 20  2  0  0  0
 14  9  1  0  0  0
  8 19  1  0  0  0
M  END
> <minimizedAffinity>
-9.62400

$$$$



 29 33  0  0  0  0  0  0  0  0999 V2000
    3.5960   67.6490   84.6372 N   0  0  0  0  0  0  0  0  0  0  0  0
    3.1020   66.3810   84.4707 C   0  0  0  0  0  0  0  0  0  0  0  0
    3.0382   65.5012   85.3168 O   0  0  0  0  0  0  0  0  0  0  0  0
    2.7374   66.2219   83.0086 C   0  0  0  0  0  0  0  0  0  0  0  0
    1.4390   65.4781   82.7167 C   0  0  0  0  0  0  0  0  0  0  0  0
    1.0921   65.7429   81.2875 C   0  0  0  0  0  0  0  0  0  0  0  0
    1.5451   66.8821   80.6394 C   0  0  0  0  0  0  0  0  0  0  0  0
    1.1040   66.8267   79.3431 N   0  0  0  0  0  0  0  0  0  0  0  0
    0.3561   65.6846   79.1496 C   0  0  0  0  0  0  0  0  0  0  0  0
   -0.2957   65.2229   77.9998 C   0  0  0  0  0  0  0  0  0  0  0  0
   -0.9881   64.0115   78.0889 C   0  0  0  0  0  0  0  0  0  0  0  0
   -1.0255   63.2915   79.2807 C   0  0  0  0  0  0  0  0  0  0  0  0
   -0.3691   63.7654   80.4223 C   0  0  0  0  0  0  0  0  0  0  0  0
    0.3334   64.9843   80.3588 C   0  0  0  0  0  0  0  0  0  0  0  0
    2.3805   68.0024   81.2173 C   0  0  0  0  0  0  0  0  0  0  0  0
    2.6995   67.6216   82.6009 N   0  0  0  0  0  0  0  0  0  0  0  0
    3.3985   68.4013   83.5075 C   0  0  0  0  0  0  0  0  0  0  0  0
    3.7493   69.5576   83.3389 O   0  0  0  0  0  0  0  0  0  0  0  0
    1.2804   67.5221   78.6299 H   0  0  0  0  0  0  0  0  0  0  0  0
    1.6288   69.3248   81.1279 C   0  0  0  0  0  0  0  0  0  0  0  0
    0.2765   69.3940   81.5270 C   0  0  0  0  0  0  0  0  0  0  0  0
   -0.4398   70.5899   81.4488 C   0  0  0  0  0  0  0  0  0  0  0  0
    0.1810   71.7332   80.9586 C   0  0  0  0  0  0  0  0  0  0  0  0
   -0.7003   73.2072   80.8574 Cl  0  0  0  0  0  0  0  0  0  0  0  0
    1.5057   71.6893   80.5352 C   0  0  0  0  0  0  0  0  0  0  0  0
    2.2228   70.4906   80.6124 C   0  0  0  0  0  0  0  0  0  0  0  0
    3.8418   70.5048   80.0046 Cl  0  0  0  0  0  0  0  0  0  0  0  0
    5.5957   67.8035   86.0512 C   0  0  0  0  0  0  0  0  0  0  0  0
    4.1301   68.1691   85.8779 C   0  0  0  0  0  0  0  0  0  0  0  0
 28 29  1  0  0  0
 29  1  1  0  0  0
  1  2  1  0  0  0
  2  3  2  0  0  0
  2  4  1  0  0  0
  4  5  1  0  0  0
  5  6  1  0  0  0
  6  7  2  0  0  0
  7  8  1  0  0  0
  8  9  1  0  0  0
  9 10  2  0  0  0
 10 11  1  0  0  0
 11 12  2  0  0  0
 12 13  1  0  0  0
 13 14  2  0  0  0
  7 15  1  0  0  0
 15 20  1  0  0  0
 20 21  1  0  0  0
 21 22  2  0  0  0
 22 23  1  0  0  0
 23 24  1  0  0  0
 23 25  2  0  0  0
 25 26  1  0  0  0
 26 27  1  0  0  0
 15 16  1  0  0  0
 16 17  1  0  0  0
 17 18  2  0  0  0
 17  1  1  0  0  0
 16  4  1  0  0  0
 14  6  1  0  0  0
 26 20  2  0  0  0
 14  9  1  0  0  0
  8 19  1  0  0  0
M  END
> <minimizedAffinity>
-9.49455

$$$$



 29 33  0  0  0  0  0  0  0  0999 V2000
    5.1284   67.1030   85.2251 N   0  0  0  0  0  0  0  0  0  0  0  0
    4.4295   66.0693   85.7931 C   0  0  0  0  0  0  0  0  0  0  0  0
    4.6030   65.5886   86.9035 O   0  0  0  0  0  0  0  0  0  0  0  0
    3.4583   65.5494   84.7527 C   0  0  0  0  0  0  0  0  0  0  0  0
    2.0652   65.1873   85.2552 C   0  0  0  0  0  0  0  0  0  0  0  0
    1.1862   65.0507   84.0543 C   0  0  0  0  0  0  0  0  0  0  0  0
    1.4827   65.7093   82.8706 C   0  0  0  0  0  0  0  0  0  0  0  0
    0.5291   65.3609   81.9503 N   0  0  0  0  0  0  0  0  0  0  0  0
   -0.3894   64.5081   82.5251 C   0  0  0  0  0  0  0  0  0  0  0  0
   -1.5287   63.9115   81.9719 C   0  0  0  0  0  0  0  0  0  0  0  0
   -2.2876   63.0747   82.7957 C   0  0  0  0  0  0  0  0  0  0  0  0
   -1.9199   62.8442   84.1193 C   0  0  0  0  0  0  0  0  0  0  0  0
   -0.7781   63.4475   84.6588 C   0  0  0  0  0  0  0  0  0  0  0  0
    0.0017   64.2965   83.8500 C   0  0  0  0  0  0  0  0  0  0  0  0
    2.6398   66.6447   82.5994 C   0  0  0  0  0  0  0  0  0  0  0  0
    3.4573   66.6713   83.8209 N   0  0  0  0  0  0  0  0  0  0  0  0
    4.5821   67.4552   84.0174 C   0  0  0  0  0  0  0  0  0  0  0  0
    4.9940   68.3211   83.2630 O   0  0  0  0  0  0  0  0  0  0  0  0
    0.4855   65.6872   80.9937 H   0  0  0  0  0  0  0  0  0  0  0  0
    2.1254   68.0234   82.2038 C   0  0  0  0  0  0  0  0  0  0  0  0
    1.9092   69.0050   83.1949 C   0  0  0  0  0  0  0  0  0  0  0  0
    1.4312   70.2741   82.8631 C   0  0  0  0  0  0  0  0  0  0  0  0
    1.1497   70.5782   81.5360 C   0  0  0  0  0  0  0  0  0  0  0  0
    0.5568   72.1398   81.1246 Cl  0  0  0  0  0  0  0  0  0  0  0  0
    1.3300   69.6229   80.5406 C   0  0  0  0  0  0  0  0  0  0  0  0
    1.8078   68.3509   80.8736 C   0  0  0  0  0  0  0  0  0  0  0  0
    1.9408   67.2018   79.5880 Cl  0  0  0  0  0  0  0  0  0  0  0  0
    7.5668   67.3141   85.4031 C   0  0  0  0  0  0  0  0  0  0  0  0
    6.2099   67.8183   85.8684 C   0  0  0  0  0  0  0  0  0  0  0  0
 28 29  1  0  0  0
 29  1  1  0  0  0
  1  2  1  0  0  0
  2  3  2  0  0  0
  2  4  1  0  0  0
  4  5  1  0  0  0
  5  6  1  0  0  0
  6  7  2  0  0  0
  7  8  1  0  0  0
  8  9  1  0  0  0
  9 10  2  0  0  0
 10 11  1  0  0  0
 11 12  2  0  0  0
 12 13  1  0  0  0
 13 14  2  0  0  0
  7 15  1  0  0  0
 15 20  1  0  0  0
 20 21  1  0  0  0
 21 22  2  0  0  0
 22 23  1  0  0  0
 23 24  1  0  0  0
 23 25  2  0  0  0
 25 26  1  0  0  0
 26 27  1  0  0  0
 15 16  1  0  0  0
 16 17  1  0  0  0
 17 18  2  0  0  0
 17  1  1  0  0  0
 16  4  1  0  0  0
 14  6  1  0  0  0
 26 20  2  0  0  0
 14  9  1  0  0  0
  8 19  1  0  0  0
M  END
> <minimizedAffinity>
-9.45443

$$$$



 29 33  0  0  0  0  0  0  0  0999 V2000
   -0.9145   73.9023   80.2140 N   0  0  0  0  0  0  0  0  0  0  0  0
   -1.3160   72.5917   80.2419 C   0  0  0  0  0  0  0  0  0  0  0  0
   -2.2305   72.0904   79.6043 O   0  0  0  0  0  0  0  0  0  0  0  0
   -0.4848   71.8824   81.2917 C   0  0  0  0  0  0  0  0  0  0  0  0
   -0.0030   70.4810   80.9336 C   0  0  0  0  0  0  0  0  0  0  0  0
    1.0645   70.1188   81.9146 C   0  0  0  0  0  0  0  0  0  0  0  0
    1.8039   71.0967   82.5625 C   0  0  0  0  0  0  0  0  0  0  0  0
    2.6669   70.4662   83.4202 N   0  0  0  0  0  0  0  0  0  0  0  0
    2.5136   69.0995   83.3205 C   0  0  0  0  0  0  0  0  0  0  0  0
    3.1840   68.0701   83.9919 C   0  0  0  0  0  0  0  0  0  0  0  0
    2.8172   66.7543   83.6933 C   0  0  0  0  0  0  0  0  0  0  0  0
    1.8192   66.4808   82.7610 C   0  0  0  0  0  0  0  0  0  0  0  0
    1.1574   67.5204   82.0975 C   0  0  0  0  0  0  0  0  0  0  0  0
    1.5102   68.8543   82.3791 C   0  0  0  0  0  0  0  0  0  0  0  0
    1.7043   72.5959   82.3894 C   0  0  0  0  0  0  0  0  0  0  0  0
    0.6040   72.8403   81.4457 N   0  0  0  0  0  0  0  0  0  0  0  0
    0.2189   74.0810   80.9652 C   0  0  0  0  0  0  0  0  0  0  0  0
    0.8011   75.1362   81.1551 O   0  0  0  0  0  0  0  0  0  0  0  0
    3.3332   70.9238   84.0286 H   0  0  0  0  0  0  0  0  0  0  0  0
    3.0332   73.1631   81.9057 C   0  0  0  0  0  0  0  0  0  0  0  0
    3.6221   72.6657   80.7231 C   0  0  0  0  0  0  0  0  0  0  0  0
    4.8427   73.1607   80.2600 C   0  0  0  0  0  0  0  0  0  0  0  0
    5.5004   74.1524   80.9788 C   0  0  0  0  0  0  0  0  0  0  0  0
    7.0065   74.7615   80.4126 Cl  0  0  0  0  0  0  0  0  0  0  0  0
    4.9559   74.6448   82.1607 C   0  0  0  0  0  0  0  0  0  0  0  0
    3.7335   74.1478   82.6252 C   0  0  0  0  0  0  0  0  0  0  0  0
    3.1589   74.7647   84.1352 Cl  0  0  0  0  0  0  0  0  0  0  0  0
   -0.9157   74.9647   78.0019 C   0  0  0  0  0  0  0  0  0  0  0  0
   -1.5197   74.9324   79.3968 C   0  0  0  0  0  0  0  0  0  0  0  0
 28 29  1  0  0  0
 29  1  1  0  0  0
  1  2  1  0  0  0
  2  3  2  0  0  0
  2  4  1  0  0  0
  4  5  1  0  0  0
  5  6  1  0  0  0
  6  7  2  0  0  0
  7  8  1  0  0  0
  8  9  1  0  0  0
  9 10  2  0  0  0
 10 11  1  0  0  0
 11 12  2  0  0  0
 12 13  1  0  0  0
 13 14  2  0  0  0
  7 15  1  0  0  0
 15 20  1  0  0  0
 20 21  1  0  0  0
 21 22  2  0  0  0
 22 23  1  0  0  0
 23 24  1  0  0  0
 23 25  2  0  0  0
 25 26  1  0  0  0
 26 27  1  0  0  0
 15 16  1  0  0  0
 16 17  1  0  0  0
 17 18  2  0  0  0
 17  1  1  0  0  0
 16  4  1  0  0  0
 14  6  1  0  0  0
 26 20  2  0  0  0
 14  9  1  0  0  0
  8 19  1  0  0  0
M  END
> <minimizedAffinity>
-9.35631

$$$$
