


 29 32  0  0  0  0  0  0  0  0999 V2000
    3.7827   66.5636   84.6347 C   0  0  0  0  0  0  0  0  0  0  0  0
    4.6155   67.5962   84.1919 C   0  0  0  0  0  0  0  0  0  0  0  0
    4.1019   68.6617   83.4441 C   0  0  0  0  0  0  0  0  0  0  0  0
    2.7448   68.7279   83.1160 C   0  0  0  0  0  0  0  0  0  0  0  0
    1.9127   67.6867   83.5437 C   0  0  0  0  0  0  0  0  0  0  0  0
    2.4122   66.6024   84.2971 C   0  0  0  0  0  0  0  0  0  0  0  0
    1.4156   65.5439   84.6899 C   0  0  0  0  0  0  0  0  0  0  0  0
    0.6371   65.0025   83.7881 N   0  0  0  0  0  0  0  0  0  0  0  0
   -0.2060   64.0607   84.2808 C   0  0  0  0  0  0  0  0  0  0  0  0
   -0.3212   63.6348   85.5806 C   0  0  0  0  0  0  0  0  0  0  0  0
   -1.3282   62.6535   85.5817 C   0  0  0  0  0  0  0  0  0  0  0  0
   -1.8420   61.8760   86.7338 C   0  0  0  0  0  0  0  0  0  0  0  0
   -1.8247   62.4667   84.3470 N   0  0  0  0  0  0  0  0  0  0  0  0
   -1.1242   63.3351   83.5763 N   0  0  0  0  0  0  0  0  0  0  0  0
   -1.4008   63.4063   82.1641 C   0  0  0  0  0  0  0  0  0  0  0  0
    0.5272   64.2249   86.5715 C   0  0  0  0  0  0  0  0  0  0  0  0
    0.5138   63.9372   87.7626 O   0  0  0  0  0  0  0  0  0  0  0  0
    1.3762   65.1727   86.0333 N   0  0  0  0  0  0  0  0  0  0  0  0
    1.9894   65.6332   86.6929 H   0  0  0  0  0  0  0  0  0  0  0  0
    2.2501   69.8602   82.3343 C   0  0  0  0  0  0  0  0  0  0  0  0
    3.0457   70.8305   81.7546 C   0  0  0  0  0  0  0  0  0  0  0  0
    2.0766   71.9763   80.9239 S   0  0  0  0  0  0  0  0  0  0  0  0
    0.6732   71.1001   81.3814 C   0  0  0  0  0  0  0  0  0  0  0  0
   -0.6722   71.5740   80.9587 C   0  0  0  0  0  0  0  0  0  0  0  0
    0.8897   70.0222   82.1033 N   0  0  0  0  0  0  0  0  0  0  0  0
    4.2242   65.4971   85.3733 O   0  0  0  0  0  0  0  0  0  0  0  0
    5.6178   65.1806   85.4170 C   0  0  0  0  0  0  0  0  0  0  0  0
    5.3105   65.4195   87.9203 C   0  0  0  0  0  0  0  0  0  0  0  0
    6.2495   65.6167   86.7380 C   0  0  0  0  0  0  0  0  0  0  0  0
 28 29  1  0  0  0
 29 27  1  0  0  0
 27 26  1  0  0  0
 26  1  1  0  0  0
  1  2  1  0  0  0
  2  3  2  0  0  0
  3  4  1  0  0  0
  4 20  1  0  0  0
 20 21  2  0  0  0
 21 22  1  0  0  0
 22 23  1  0  0  0
 23 24  1  0  0  0
 23 25  2  0  0  0
  4  5  2  0  0  0
  5  6  1  0  0  0
  6  7  1  0  0  0
  7  8  2  0  0  0
  8  9  1  0  0  0
  9 10  2  0  0  0
 10 11  1  0  0  0
 11 12  1  0  0  0
 11 13  2  0  0  0
 13 14  1  0  0  0
 14 15  1  0  0  0
 10 16  1  0  0  0
 16 17  2  0  0  0
 16 18  1  0  0  0
  6  1  2  0  0  0
 18  7  1  0  0  0
 25 20  1  0  0  0
 14  9  1  0  0  0
 18 19  1  0  0  0
M  END
> <minimizedAffinity>
-9.95837

$$$$



 29 32  0  0  0  0  0  0  0  0999 V2000
    3.7193   66.5352   84.4164 C   0  0  0  0  0  0  0  0  0  0  0  0
    4.3973   67.6227   83.8564 C   0  0  0  0  0  0  0  0  0  0  0  0
    3.6967   68.6615   83.2332 C   0  0  0  0  0  0  0  0  0  0  0  0
    2.3016   68.6456   83.1498 C   0  0  0  0  0  0  0  0  0  0  0  0
    1.6221   67.5497   83.6946 C   0  0  0  0  0  0  0  0  0  0  0  0
    2.3109   66.4912   84.3253 C   0  0  0  0  0  0  0  0  0  0  0  0
    1.4648   65.3680   84.8642 C   0  0  0  0  0  0  0  0  0  0  0  0
    0.5744   64.7871   84.1011 N   0  0  0  0  0  0  0  0  0  0  0  0
   -0.1105   63.7891   84.7140 C   0  0  0  0  0  0  0  0  0  0  0  0
    0.0301   63.3445   86.0049 C   0  0  0  0  0  0  0  0  0  0  0  0
   -0.8998   62.3014   86.1616 C   0  0  0  0  0  0  0  0  0  0  0  0
   -1.1554   61.4820   87.3695 C   0  0  0  0  0  0  0  0  0  0  0  0
   -1.5928   62.0953   85.0289 N   0  0  0  0  0  0  0  0  0  0  0  0
   -1.0923   63.0136   84.1658 N   0  0  0  0  0  0  0  0  0  0  0  0
   -1.6162   63.0807   82.8252 C   0  0  0  0  0  0  0  0  0  0  0  0
    1.0018   63.9776   86.8445 C   0  0  0  0  0  0  0  0  0  0  0  0
    1.2149   63.6782   88.0135 O   0  0  0  0  0  0  0  0  0  0  0  0
    1.6841   64.9823   86.1860 N   0  0  0  0  0  0  0  0  0  0  0  0
    2.3744   65.4744   86.7378 H   0  0  0  0  0  0  0  0  0  0  0  0
    1.6095   69.7526   82.4914 C   0  0  0  0  0  0  0  0  0  0  0  0
    0.6383   69.6127   81.5180 C   0  0  0  0  0  0  0  0  0  0  0  0
    0.0786   71.1525   81.0103 S   0  0  0  0  0  0  0  0  0  0  0  0
    1.1540   71.8948   82.1234 C   0  0  0  0  0  0  0  0  0  0  0  0
    1.2069   73.3775   82.2330 C   0  0  0  0  0  0  0  0  0  0  0  0
    1.8885   71.0691   82.8365 N   0  0  0  0  0  0  0  0  0  0  0  0
    4.3475   65.4909   85.0431 O   0  0  0  0  0  0  0  0  0  0  0  0
    5.7459   65.5622   85.3320 C   0  0  0  0  0  0  0  0  0  0  0  0
    5.1670   65.2410   87.7773 C   0  0  0  0  0  0  0  0  0  0  0  0
    5.9981   66.0207   86.7674 C   0  0  0  0  0  0  0  0  0  0  0  0
 28 29  1  0  0  0
 29 27  1  0  0  0
 27 26  1  0  0  0
 26  1  1  0  0  0
  1  2  1  0  0  0
  2  3  2  0  0  0
  3  4  1  0  0  0
  4 20  1  0  0  0
 20 21  2  0  0  0
 21 22  1  0  0  0
 22 23  1  0  0  0
 23 24  1  0  0  0
 23 25  2  0  0  0
  4  5  2  0  0  0
  5  6  1  0  0  0
  6  7  1  0  0  0
  7  8  2  0  0  0
  8  9  1  0  0  0
  9 10  2  0  0  0
 10 11  1  0  0  0
 11 12  1  0  0  0
 11 13  2  0  0  0
 13 14  1  0  0  0
 14 15  1  0  0  0
 10 16  1  0  0  0
 16 17  2  0  0  0
 16 18  1  0  0  0
  6  1  2  0  0  0
 18  7  1  0  0  0
 25 20  1  0  0  0
 14  9  1  0  0  0
 18 19  1  0  0  0
M  END
> <minimizedAffinity>
-9.87710

$$$$



 29 32  0  0  0  0  0  0  0  0999 V2000
    0.0196   63.3750   85.0943 C   0  0  0  0  0  0  0  0  0  0  0  0
    0.6745   64.3232   85.8868 C   0  0  0  0  0  0  0  0  0  0  0  0
    1.2204   65.4796   85.3184 C   0  0  0  0  0  0  0  0  0  0  0  0
    1.1299   65.7233   83.9451 C   0  0  0  0  0  0  0  0  0  0  0  0
    0.4897   64.7673   83.1478 C   0  0  0  0  0  0  0  0  0  0  0  0
   -0.0654   63.5936   83.7020 C   0  0  0  0  0  0  0  0  0  0  0  0
   -0.7208   62.6417   82.7364 C   0  0  0  0  0  0  0  0  0  0  0  0
   -0.3537   62.6179   81.4805 N   0  0  0  0  0  0  0  0  0  0  0  0
   -1.0230   61.7095   80.7273 C   0  0  0  0  0  0  0  0  0  0  0  0
   -2.0095   60.8460   81.1337 C   0  0  0  0  0  0  0  0  0  0  0  0
   -2.3827   60.1151   79.9919 C   0  0  0  0  0  0  0  0  0  0  0  0
   -3.4097   59.0521   79.8855 C   0  0  0  0  0  0  0  0  0  0  0  0
   -1.6694   60.4950   78.9183 N   0  0  0  0  0  0  0  0  0  0  0  0
   -0.8507   61.4654   79.3944 N   0  0  0  0  0  0  0  0  0  0  0  0
    0.0726   62.1122   78.4971 C   0  0  0  0  0  0  0  0  0  0  0  0
   -2.4160   60.8689   82.5063 C   0  0  0  0  0  0  0  0  0  0  0  0
   -3.2888   60.1561   82.9877 O   0  0  0  0  0  0  0  0  0  0  0  0
   -1.7092   61.7992   83.2437 N   0  0  0  0  0  0  0  0  0  0  0  0
   -1.9664   61.8683   84.2195 H   0  0  0  0  0  0  0  0  0  0  0  0
    1.7128   66.9455   83.3933 C   0  0  0  0  0  0  0  0  0  0  0  0
    2.4554   67.8633   84.1119 C   0  0  0  0  0  0  0  0  0  0  0  0
    2.9567   69.1501   83.0946 S   0  0  0  0  0  0  0  0  0  0  0  0
    2.1643   68.3949   81.7725 C   0  0  0  0  0  0  0  0  0  0  0  0
    2.1922   69.0279   80.4264 C   0  0  0  0  0  0  0  0  0  0  0  0
    1.5620   67.2586   82.0482 N   0  0  0  0  0  0  0  0  0  0  0  0
   -0.5389   62.2266   85.5915 O   0  0  0  0  0  0  0  0  0  0  0  0
   -0.7964   62.1005   86.9923 C   0  0  0  0  0  0  0  0  0  0  0  0
   -3.0330   63.2902   86.9966 C   0  0  0  0  0  0  0  0  0  0  0  0
   -2.2931   61.9896   87.2784 C   0  0  0  0  0  0  0  0  0  0  0  0
 28 29  1  0  0  0
 29 27  1  0  0  0
 27 26  1  0  0  0
 26  1  1  0  0  0
  1  2  1  0  0  0
  2  3  2  0  0  0
  3  4  1  0  0  0
  4 20  1  0  0  0
 20 21  2  0  0  0
 21 22  1  0  0  0
 22 23  1  0  0  0
 23 24  1  0  0  0
 23 25  2  0  0  0
  4  5  2  0  0  0
  5  6  1  0  0  0
  6  7  1  0  0  0
  7  8  2  0  0  0
  8  9  1  0  0  0
  9 10  2  0  0  0
 10 11  1  0  0  0
 11 12  1  0  0  0
 11 13  2  0  0  0
 13 14  1  0  0  0
 14 15  1  0  0  0
 10 16  1  0  0  0
 16 17  2  0  0  0
 16 18  1  0  0  0
  6  1  2  0  0  0
 18  7  1  0  0  0
 25 20  1  0  0  0
 14  9  1  0  0  0
 18 19  1  0  0  0
M  END
> <minimizedAffinity>
-9.67629

$$$$



 29 32  0  0  0  0  0  0  0  0999 V2000
    1.6928   66.6360   83.2993 C   0  0  0  0  0  0  0  0  0  0  0  0
    1.9447   67.2229   82.0551 C   0  0  0  0  0  0  0  0  0  0  0  0
    1.5000   66.6190   80.8736 C   0  0  0  0  0  0  0  0  0  0  0  0
    0.7928   65.4136   80.8985 C   0  0  0  0  0  0  0  0  0  0  0  0
    0.5545   64.8159   82.1417 C   0  0  0  0  0  0  0  0  0  0  0  0
    0.9968   65.4083   83.3443 C   0  0  0  0  0  0  0  0  0  0  0  0
    0.6831   64.6618   84.6140 C   0  0  0  0  0  0  0  0  0  0  0  0
   -0.4372   63.9950   84.7286 N   0  0  0  0  0  0  0  0  0  0  0  0
   -0.5856   63.3666   85.9217 C   0  0  0  0  0  0  0  0  0  0  0  0
    0.2871   63.3603   86.9812 C   0  0  0  0  0  0  0  0  0  0  0  0
   -0.3159   62.5736   87.9785 C   0  0  0  0  0  0  0  0  0  0  0  0
    0.2106   62.2473   89.3247 C   0  0  0  0  0  0  0  0  0  0  0  0
   -1.5081   62.1052   87.5719 N   0  0  0  0  0  0  0  0  0  0  0  0
   -1.6464   62.6028   86.3182 N   0  0  0  0  0  0  0  0  0  0  0  0
   -2.8354   62.2958   85.5646 C   0  0  0  0  0  0  0  0  0  0  0  0
    1.5135   64.0894   86.8617 C   0  0  0  0  0  0  0  0  0  0  0  0
    2.3670   64.1676   87.7375 O   0  0  0  0  0  0  0  0  0  0  0  0
    1.6336   64.7093   85.6329 N   0  0  0  0  0  0  0  0  0  0  0  0
    2.4768   65.2520   85.4992 H   0  0  0  0  0  0  0  0  0  0  0  0
    0.3452   64.8182   79.6403 C   0  0  0  0  0  0  0  0  0  0  0  0
   -0.1363   65.5270   78.5558 C   0  0  0  0  0  0  0  0  0  0  0  0
   -0.5488   64.4561   77.2809 S   0  0  0  0  0  0  0  0  0  0  0  0
   -0.0501   63.1311   78.2514 C   0  0  0  0  0  0  0  0  0  0  0  0
   -0.1395   61.7438   77.7215 C   0  0  0  0  0  0  0  0  0  0  0  0
    0.3984   63.4434   79.4477 N   0  0  0  0  0  0  0  0  0  0  0  0
    2.0976   67.1799   84.4902 O   0  0  0  0  0  0  0  0  0  0  0  0
    3.4234   67.6963   84.6309 C   0  0  0  0  0  0  0  0  0  0  0  0
    5.0030   66.1612   85.8824 C   0  0  0  0  0  0  0  0  0  0  0  0
    4.4699   66.5886   84.5216 C   0  0  0  0  0  0  0  0  0  0  0  0
 28 29  1  0  0  0
 29 27  1  0  0  0
 27 26  1  0  0  0
 26  1  1  0  0  0
  1  2  1  0  0  0
  2  3  2  0  0  0
  3  4  1  0  0  0
  4 20  1  0  0  0
 20 21  2  0  0  0
 21 22  1  0  0  0
 22 23  1  0  0  0
 23 24  1  0  0  0
 23 25  2  0  0  0
  4  5  2  0  0  0
  5  6  1  0  0  0
  6  7  1  0  0  0
  7  8  2  0  0  0
  8  9  1  0  0  0
  9 10  2  0  0  0
 10 11  1  0  0  0
 11 12  1  0  0  0
 11 13  2  0  0  0
 13 14  1  0  0  0
 14 15  1  0  0  0
 10 16  1  0  0  0
 16 17  2  0  0  0
 16 18  1  0  0  0
  6  1  2  0  0  0
 18  7  1  0  0  0
 25 20  1  0  0  0
 14  9  1  0  0  0
 18 19  1  0  0  0
M  END
> <minimizedAffinity>
-9.65266

$$$$



 29 32  0  0  0  0  0  0  0  0999 V2000
    0.6139   66.4766   81.6845 C   0  0  0  0  0  0  0  0  0  0  0  0
    1.4570   67.5896   81.7631 C   0  0  0  0  0  0  0  0  0  0  0  0
    2.4469   67.6718   82.7489 C   0  0  0  0  0  0  0  0  0  0  0  0
    2.6239   66.6482   83.6841 C   0  0  0  0  0  0  0  0  0  0  0  0
    1.7699   65.5411   83.6176 C   0  0  0  0  0  0  0  0  0  0  0  0
    0.7641   65.4407   82.6321 C   0  0  0  0  0  0  0  0  0  0  0  0
   -0.0926   64.2028   82.6727 C   0  0  0  0  0  0  0  0  0  0  0  0
   -0.7843   63.9131   83.7452 N   0  0  0  0  0  0  0  0  0  0  0  0
   -1.5142   62.7744   83.6400 C   0  0  0  0  0  0  0  0  0  0  0  0
   -1.5969   61.9269   82.5633 C   0  0  0  0  0  0  0  0  0  0  0  0
   -2.4749   60.8969   82.9443 C   0  0  0  0  0  0  0  0  0  0  0  0
   -2.9062   59.7251   82.1463 C   0  0  0  0  0  0  0  0  0  0  0  0
   -2.9258   61.0823   84.1966 N   0  0  0  0  0  0  0  0  0  0  0  0
   -2.3256   62.2310   84.5951 N   0  0  0  0  0  0  0  0  0  0  0  0
   -2.5861   62.7411   85.9172 C   0  0  0  0  0  0  0  0  0  0  0  0
   -0.8410   62.2384   81.3879 C   0  0  0  0  0  0  0  0  0  0  0  0
   -0.8240   61.5585   80.3686 O   0  0  0  0  0  0  0  0  0  0  0  0
   -0.1169   63.4066   81.5283 N   0  0  0  0  0  0  0  0  0  0  0  0
    0.4484   63.6674   80.7311 H   0  0  0  0  0  0  0  0  0  0  0  0
    3.6717   66.7742   84.6961 C   0  0  0  0  0  0  0  0  0  0  0  0
    4.3005   67.9553   85.0423 C   0  0  0  0  0  0  0  0  0  0  0  0
    5.4632   67.6723   86.2712 S   0  0  0  0  0  0  0  0  0  0  0  0
    5.0436   66.0079   86.2653 C   0  0  0  0  0  0  0  0  0  0  0  0
    5.7311   65.0626   87.1857 C   0  0  0  0  0  0  0  0  0  0  0  0
    4.1016   65.6651   85.4138 N   0  0  0  0  0  0  0  0  0  0  0  0
   -0.3698   66.3354   80.7408 O   0  0  0  0  0  0  0  0  0  0  0  0
   -0.0655   66.5061   79.3542 C   0  0  0  0  0  0  0  0  0  0  0  0
    0.2885   64.4055   77.9832 C   0  0  0  0  0  0  0  0  0  0  0  0
    0.9373   65.4608   78.8686 C   0  0  0  0  0  0  0  0  0  0  0  0
 28 29  1  0  0  0
 29 27  1  0  0  0
 27 26  1  0  0  0
 26  1  1  0  0  0
  1  2  1  0  0  0
  2  3  2  0  0  0
  3  4  1  0  0  0
  4 20  1  0  0  0
 20 21  2  0  0  0
 21 22  1  0  0  0
 22 23  1  0  0  0
 23 24  1  0  0  0
 23 25  2  0  0  0
  4  5  2  0  0  0
  5  6  1  0  0  0
  6  7  1  0  0  0
  7  8  2  0  0  0
  8  9  1  0  0  0
  9 10  2  0  0  0
 10 11  1  0  0  0
 11 12  1  0  0  0
 11 13  2  0  0  0
 13 14  1  0  0  0
 14 15  1  0  0  0
 10 16  1  0  0  0
 16 17  2  0  0  0
 16 18  1  0  0  0
  6  1  2  0  0  0
 18  7  1  0  0  0
 25 20  1  0  0  0
 14  9  1  0  0  0
 18 19  1  0  0  0
M  END
> <minimizedAffinity>
-9.63140

$$$$



 29 32  0  0  0  0  0  0  0  0999 V2000
    0.2790   64.0916   84.5877 C   0  0  0  0  0  0  0  0  0  0  0  0
    0.9573   65.1431   85.2124 C   0  0  0  0  0  0  0  0  0  0  0  0
    1.4162   66.2399   84.4743 C   0  0  0  0  0  0  0  0  0  0  0  0
    1.2129   66.3196   83.0938 C   0  0  0  0  0  0  0  0  0  0  0  0
    0.5492   65.2602   82.4640 C   0  0  0  0  0  0  0  0  0  0  0  0
    0.0806   64.1443   83.1907 C   0  0  0  0  0  0  0  0  0  0  0  0
   -0.6112   63.0690   82.3951 C   0  0  0  0  0  0  0  0  0  0  0  0
   -0.3211   62.8924   81.1313 N   0  0  0  0  0  0  0  0  0  0  0  0
   -1.0147   61.8867   80.5413 C   0  0  0  0  0  0  0  0  0  0  0  0
   -1.9552   61.0672   81.1141 C   0  0  0  0  0  0  0  0  0  0  0  0
   -2.3811   60.1930   80.0985 C   0  0  0  0  0  0  0  0  0  0  0  0
   -3.3887   59.1104   80.1910 C   0  0  0  0  0  0  0  0  0  0  0  0
   -1.7433   60.4448   78.9427 N   0  0  0  0  0  0  0  0  0  0  0  0
   -0.9188   61.4791   79.2411 N   0  0  0  0  0  0  0  0  0  0  0  0
   -0.0667   62.0210   78.2134 C   0  0  0  0  0  0  0  0  0  0  0  0
   -2.2774   61.2571   82.4961 C   0  0  0  0  0  0  0  0  0  0  0  0
   -3.1031   60.5981   83.1171 O   0  0  0  0  0  0  0  0  0  0  0  0
   -1.5478   62.2829   83.0652 N   0  0  0  0  0  0  0  0  0  0  0  0
   -1.7463   62.4708   84.0391 H   0  0  0  0  0  0  0  0  0  0  0  0
    1.7075   67.4847   82.3617 C   0  0  0  0  0  0  0  0  0  0  0  0
    1.8079   67.5717   80.9860 C   0  0  0  0  0  0  0  0  0  0  0  0
    2.4295   69.1041   80.5306 S   0  0  0  0  0  0  0  0  0  0  0  0
    2.5109   69.5476   82.1868 C   0  0  0  0  0  0  0  0  0  0  0  0
    3.0127   70.8935   82.5742 C   0  0  0  0  0  0  0  0  0  0  0  0
    2.1055   68.6310   83.0384 N   0  0  0  0  0  0  0  0  0  0  0  0
   -0.1982   62.9940   85.2553 O   0  0  0  0  0  0  0  0  0  0  0  0
   -0.2617   62.9930   86.6837 C   0  0  0  0  0  0  0  0  0  0  0  0
   -2.7755   62.7880   86.4455 C   0  0  0  0  0  0  0  0  0  0  0  0
   -1.5335   62.3121   87.1867 C   0  0  0  0  0  0  0  0  0  0  0  0
 28 29  1  0  0  0
 29 27  1  0  0  0
 27 26  1  0  0  0
 26  1  1  0  0  0
  1  2  1  0  0  0
  2  3  2  0  0  0
  3  4  1  0  0  0
  4 20  1  0  0  0
 20 21  2  0  0  0
 21 22  1  0  0  0
 22 23  1  0  0  0
 23 24  1  0  0  0
 23 25  2  0  0  0
  4  5  2  0  0  0
  5  6  1  0  0  0
  6  7  1  0  0  0
  7  8  2  0  0  0
  8  9  1  0  0  0
  9 10  2  0  0  0
 10 11  1  0  0  0
 11 12  1  0  0  0
 11 13  2  0  0  0
 13 14  1  0  0  0
 14 15  1  0  0  0
 10 16  1  0  0  0
 16 17  2  0  0  0
 16 18  1  0  0  0
  6  1  2  0  0  0
 18  7  1  0  0  0
 25 20  1  0  0  0
 14  9  1  0  0  0
 18 19  1  0  0  0
M  END
> <minimizedAffinity>
-9.38937

$$$$



 29 32  0  0  0  0  0  0  0  0999 V2000
    3.5684   66.6002   84.3984 C   0  0  0  0  0  0  0  0  0  0  0  0
    4.3617   67.7478   84.2995 C   0  0  0  0  0  0  0  0  0  0  0  0
    3.8541   68.9248   83.7378 C   0  0  0  0  0  0  0  0  0  0  0  0
    2.5429   68.9912   83.2584 C   0  0  0  0  0  0  0  0  0  0  0  0
    1.7528   67.8387   83.3409 C   0  0  0  0  0  0  0  0  0  0  0  0
    2.2472   66.6414   83.9021 C   0  0  0  0  0  0  0  0  0  0  0  0
    1.2996   65.4711   83.9258 C   0  0  0  0  0  0  0  0  0  0  0  0
    0.8989   64.9687   85.0658 N   0  0  0  0  0  0  0  0  0  0  0  0
    0.0439   63.9232   84.9378 C   0  0  0  0  0  0  0  0  0  0  0  0
   -0.4250   63.3597   83.7773 C   0  0  0  0  0  0  0  0  0  0  0  0
   -1.2765   62.3115   84.1690 C   0  0  0  0  0  0  0  0  0  0  0  0
   -2.0390   61.3838   83.3008 C   0  0  0  0  0  0  0  0  0  0  0  0
   -1.3442   62.2162   85.5077 N   0  0  0  0  0  0  0  0  0  0  0  0
   -0.5319   63.2081   85.9492 N   0  0  0  0  0  0  0  0  0  0  0  0
   -0.3620   63.4022   87.3668 C   0  0  0  0  0  0  0  0  0  0  0  0
    0.0114   63.9045   82.5272 C   0  0  0  0  0  0  0  0  0  0  0  0
   -0.3277   63.4854   81.4269 O   0  0  0  0  0  0  0  0  0  0  0  0
    0.8738   64.9706   82.6960 N   0  0  0  0  0  0  0  0  0  0  0  0
    1.2256   65.3858   81.8434 H   0  0  0  0  0  0  0  0  0  0  0  0
    2.0526   70.2418   82.6807 C   0  0  0  0  0  0  0  0  0  0  0  0
    2.7544   71.4323   82.6578 C   0  0  0  0  0  0  0  0  0  0  0  0
    1.8287   72.6537   81.8873 S   0  0  0  0  0  0  0  0  0  0  0  0
    0.5692   71.5165   81.6291 C   0  0  0  0  0  0  0  0  0  0  0  0
   -0.6800   71.9324   80.9363 C   0  0  0  0  0  0  0  0  0  0  0  0
    0.8027   70.3023   82.0773 N   0  0  0  0  0  0  0  0  0  0  0  0
    4.0056   65.4205   84.9416 O   0  0  0  0  0  0  0  0  0  0  0  0
    5.1541   65.4032   85.7931 C   0  0  0  0  0  0  0  0  0  0  0  0
    5.5584   65.5324   88.2907 C   0  0  0  0  0  0  0  0  0  0  0  0
    4.8248   64.8163   87.1647 C   0  0  0  0  0  0  0  0  0  0  0  0
 28 29  1  0  0  0
 29 27  1  0  0  0
 27 26  1  0  0  0
 26  1  1  0  0  0
  1  2  1  0  0  0
  2  3  2  0  0  0
  3  4  1  0  0  0
  4 20  1  0  0  0
 20 21  2  0  0  0
 21 22  1  0  0  0
 22 23  1  0  0  0
 23 24  1  0  0  0
 23 25  2  0  0  0
  4  5  2  0  0  0
  5  6  1  0  0  0
  6  7  1  0  0  0
  7  8  2  0  0  0
  8  9  1  0  0  0
  9 10  2  0  0  0
 10 11  1  0  0  0
 11 12  1  0  0  0
 11 13  2  0  0  0
 13 14  1  0  0  0
 14 15  1  0  0  0
 10 16  1  0  0  0
 16 17  2  0  0  0
 16 18  1  0  0  0
  6  1  2  0  0  0
 18  7  1  0  0  0
 25 20  1  0  0  0
 14  9  1  0  0  0
 18 19  1  0  0  0
M  END
> <minimizedAffinity>
-9.31490

$$$$



 29 32  0  0  0  0  0  0  0  0999 V2000
    3.6843   67.4256   83.8849 C   0  0  0  0  0  0  0  0  0  0  0  0
    4.3844   68.5707   83.4915 C   0  0  0  0  0  0  0  0  0  0  0  0
    3.7248   69.6368   82.8697 C   0  0  0  0  0  0  0  0  0  0  0  0
    2.3499   69.5917   82.6218 C   0  0  0  0  0  0  0  0  0  0  0  0
    1.6505   68.4395   82.9994 C   0  0  0  0  0  0  0  0  0  0  0  0
    2.2982   67.3528   83.6258 C   0  0  0  0  0  0  0  0  0  0  0  0
    1.4350   66.1695   83.9760 C   0  0  0  0  0  0  0  0  0  0  0  0
    0.7308   65.5689   83.0509 N   0  0  0  0  0  0  0  0  0  0  0  0
    0.0054   64.5166   83.5059 C   0  0  0  0  0  0  0  0  0  0  0  0
   -0.0627   64.0368   84.7901 C   0  0  0  0  0  0  0  0  0  0  0  0
   -0.9441   62.9420   84.7512 C   0  0  0  0  0  0  0  0  0  0  0  0
   -1.3650   62.0703   85.8732 C   0  0  0  0  0  0  0  0  0  0  0  0
   -1.4097   62.7381   83.5072 N   0  0  0  0  0  0  0  0  0  0  0  0
   -0.8159   63.7097   82.7709 N   0  0  0  0  0  0  0  0  0  0  0  0
   -1.0937   63.7943   81.3596 C   0  0  0  0  0  0  0  0  0  0  0  0
    0.7046   64.6912   85.8065 C   0  0  0  0  0  0  0  0  0  0  0  0
    0.7214   64.3643   86.9873 O   0  0  0  0  0  0  0  0  0  0  0  0
    1.4353   65.7517   85.3062 N   0  0  0  0  0  0  0  0  0  0  0  0
    1.9860   66.2603   85.9853 H   0  0  0  0  0  0  0  0  0  0  0  0
    1.7005   70.7288   81.9712 C   0  0  0  0  0  0  0  0  0  0  0  0
    2.3214   71.9237   81.6599 C   0  0  0  0  0  0  0  0  0  0  0  0
    1.2125   72.9906   80.9020 S   0  0  0  0  0  0  0  0  0  0  0  0
   -0.0080   71.7904   81.0300 C   0  0  0  0  0  0  0  0  0  0  0  0
   -1.3776   72.0624   80.5168 C   0  0  0  0  0  0  0  0  0  0  0  0
    0.3649   70.6625   81.5946 N   0  0  0  0  0  0  0  0  0  0  0  0
    4.2718   66.3519   84.5014 O   0  0  0  0  0  0  0  0  0  0  0  0
    5.3757   66.5479   85.3887 C   0  0  0  0  0  0  0  0  0  0  0  0
    7.7379   65.8813   84.7617 C   0  0  0  0  0  0  0  0  0  0  0  0
    6.3878   65.4083   85.2831 C   0  0  0  0  0  0  0  0  0  0  0  0
 28 29  1  0  0  0
 29 27  1  0  0  0
 27 26  1  0  0  0
 26  1  1  0  0  0
  1  2  1  0  0  0
  2  3  2  0  0  0
  3  4  1  0  0  0
  4 20  1  0  0  0
 20 21  2  0  0  0
 21 22  1  0  0  0
 22 23  1  0  0  0
 23 24  1  0  0  0
 23 25  2  0  0  0
  4  5  2  0  0  0
  5  6  1  0  0  0
  6  7  1  0  0  0
  7  8  2  0  0  0
  8  9  1  0  0  0
  9 10  2  0  0  0
 10 11  1  0  0  0
 11 12  1  0  0  0
 11 13  2  0  0  0
 13 14  1  0  0  0
 14 15  1  0  0  0
 10 16  1  0  0  0
 16 17  2  0  0  0
 16 18  1  0  0  0
  6  1  2  0  0  0
 18  7  1  0  0  0
 25 20  1  0  0  0
 14  9  1  0  0  0
 18 19  1  0  0  0
M  END
> <minimizedAffinity>
-9.26426

$$$$



 29 32  0  0  0  0  0  0  0  0999 V2000
    0.9044   65.5609   81.9090 C   0  0  0  0  0  0  0  0  0  0  0  0
    1.3390   66.2051   83.0717 C   0  0  0  0  0  0  0  0  0  0  0  0
    1.0603   65.6711   84.3349 C   0  0  0  0  0  0  0  0  0  0  0  0
    0.3405   64.4812   84.4749 C   0  0  0  0  0  0  0  0  0  0  0  0
   -0.1100   63.8438   83.3130 C   0  0  0  0  0  0  0  0  0  0  0  0
    0.1590   64.3678   82.0300 C   0  0  0  0  0  0  0  0  0  0  0  0
   -0.3868   63.5911   80.8609 C   0  0  0  0  0  0  0  0  0  0  0  0
   -1.5860   63.0699   80.9163 N   0  0  0  0  0  0  0  0  0  0  0  0
   -1.9502   62.4033   79.7923 C   0  0  0  0  0  0  0  0  0  0  0  0
   -1.2157   62.2263   78.6463 C   0  0  0  0  0  0  0  0  0  0  0  0
   -2.0234   61.4707   77.7782 C   0  0  0  0  0  0  0  0  0  0  0  0
   -1.7022   61.0046   76.4086 C   0  0  0  0  0  0  0  0  0  0  0  0
   -3.2082   61.1844   78.3441 N   0  0  0  0  0  0  0  0  0  0  0  0
   -3.1361   61.7637   79.5679 N   0  0  0  0  0  0  0  0  0  0  0  0
   -4.2568   61.6546   80.4670 C   0  0  0  0  0  0  0  0  0  0  0  0
    0.0974   62.7932   78.5810 C   0  0  0  0  0  0  0  0  0  0  0  0
    0.8519   62.6973   77.6202 O   0  0  0  0  0  0  0  0  0  0  0  0
    0.4312   63.4697   79.7384 N   0  0  0  0  0  0  0  0  0  0  0  0
    1.3562   63.8789   79.7527 H   0  0  0  0  0  0  0  0  0  0  0  0
    0.0732   63.9576   85.8138 C   0  0  0  0  0  0  0  0  0  0  0  0
    0.9412   64.0442   86.8859 C   0  0  0  0  0  0  0  0  0  0  0  0
    0.2477   63.3118   88.2733 S   0  0  0  0  0  0  0  0  0  0  0  0
   -1.1570   62.9421   87.3588 C   0  0  0  0  0  0  0  0  0  0  0  0
   -2.2964   62.2302   87.9977 C   0  0  0  0  0  0  0  0  0  0  0  0
   -1.1325   63.3308   86.1025 N   0  0  0  0  0  0  0  0  0  0  0  0
    1.1492   66.0305   80.6450 O   0  0  0  0  0  0  0  0  0  0  0  0
    1.9057   67.2292   80.4577 C   0  0  0  0  0  0  0  0  0  0  0  0
    0.5214   69.2268   81.1728 C   0  0  0  0  0  0  0  0  0  0  0  0
    1.0173   68.3864   80.0039 C   0  0  0  0  0  0  0  0  0  0  0  0
 28 29  1  0  0  0
 29 27  1  0  0  0
 27 26  1  0  0  0
 26  1  1  0  0  0
  1  2  1  0  0  0
  2  3  2  0  0  0
  3  4  1  0  0  0
  4 20  1  0  0  0
 20 21  2  0  0  0
 21 22  1  0  0  0
 22 23  1  0  0  0
 23 24  1  0  0  0
 23 25  2  0  0  0
  4  5  2  0  0  0
  5  6  1  0  0  0
  6  7  1  0  0  0
  7  8  2  0  0  0
  8  9  1  0  0  0
  9 10  2  0  0  0
 10 11  1  0  0  0
 11 12  1  0  0  0
 11 13  2  0  0  0
 13 14  1  0  0  0
 14 15  1  0  0  0
 10 16  1  0  0  0
 16 17  2  0  0  0
 16 18  1  0  0  0
  6  1  2  0  0  0
 18  7  1  0  0  0
 25 20  1  0  0  0
 14  9  1  0  0  0
 18 19  1  0  0  0
M  END
> <minimizedAffinity>
-9.20164

$$$$
