
     RDKit          3D

 72 75  0  0  0  0  0  0  0  0999 V2000
   -2.4691    7.0309   -0.6449 C   0  0  0  0  0  0  0  0  0  0  0  0
   -2.6748    5.5545   -0.3582 C   0  0  0  0  0  0  0  0  0  0  0  0
   -1.6440    4.6872   -1.0748 C   0  0  0  0  0  0  0  0  0  0  0  0
   -1.9226    3.3239   -0.7433 O   0  0  0  0  0  0  0  0  0  0  0  0
   -1.0845    2.3498   -1.2256 C   0  0  0  0  0  0  0  0  0  0  0  0
   -0.0254    2.6177   -2.1073 C   0  0  0  0  0  0  0  0  0  0  0  0
    0.8014    1.5898   -2.5648 C   0  0  0  0  0  0  0  0  0  0  0  0
    0.5734    0.2823   -2.1418 C   0  0  0  0  0  0  0  0  0  0  0  0
    1.6228   -1.0148   -2.7514 S   0  0  0  0  0  0  0  0  0  0  0  0
    1.1059   -2.2861   -2.2934 O   0  0  0  0  0  0  0  0  0  0  0  0
    1.8392   -0.7529   -4.1587 O   0  0  0  0  0  0  0  0  0  0  0  0
    3.0882   -0.7226   -1.9246 N   0  0  0  0  0  0  0  0  0  0  0  0
    3.0553   -0.9314   -0.4577 C   0  0  0  0  0  0  0  0  0  0  0  0
    4.2490   -0.2070    0.1647 C   0  0  0  0  0  0  0  0  0  0  0  0
    5.5613   -0.4307   -0.6126 C   0  0  0  0  0  0  0  0  0  0  0  0
    6.7743   -0.5591    0.3167 C   0  0  0  0  0  0  0  0  0  0  0  0
    7.0360   -2.0688    1.2186 P   0  0  0  0  0  0  0  0  0  0  0  0
    8.0239   -2.0409    2.3345 O   0  0  0  0  0  0  0  0  0  0  0  0
    7.4135   -3.1845    0.1340 O   0  0  0  0  0  0  0  0  0  0  0  0
    5.6044   -2.5914    1.7075 O   0  0  0  0  0  0  0  0  0  0  0  0
    5.4259   -1.5864   -1.6059 C   0  0  0  0  0  0  0  0  0  0  0  0
    4.2674   -1.3608   -2.5810 C   0  0  0  0  0  0  0  0  0  0  0  0
   -0.4826   -0.0105   -1.2785 C   0  0  0  0  0  0  0  0  0  0  0  0
   -1.3185    1.0185   -0.8057 C   0  0  0  0  0  0  0  0  0  0  0  0
   -2.4168    0.6117    0.1429 C   0  0  0  0  0  0  0  0  0  0  0  0
   -2.4193   -0.5950    0.6427 N   0  0  0  0  0  0  0  0  0  0  0  0
   -3.4879   -0.8560    1.5009 C   0  0  0  0  0  0  0  0  0  0  0  0
   -3.8156   -2.0293    2.1993 C   0  0  0  0  0  0  0  0  0  0  0  0
   -3.0947   -3.3332    2.2103 C   0  0  0  0  0  0  0  0  0  0  0  0
   -3.2913   -4.1535    0.9332 C   0  0  0  0  0  0  0  0  0  0  0  0
   -4.7169   -4.6593    0.7606 C   0  0  0  0  0  0  0  0  0  0  0  0
   -4.9353   -1.8498    2.9265 N   0  0  0  0  0  0  0  0  0  0  0  0
   -5.2977   -0.5697    2.6626 N   0  0  0  0  0  0  0  0  0  0  0  0
   -6.4823   -0.0164    3.2730 C   0  0  0  0  0  0  0  0  0  0  0  0
   -4.4480    0.0594    1.8084 C   0  0  0  0  0  0  0  0  0  0  0  0
   -4.4501    1.3723    1.2790 C   0  0  0  0  0  0  0  0  0  0  0  0
   -5.2722    2.2463    1.5271 O   0  0  0  0  0  0  0  0  0  0  0  0
   -3.3862    1.5678    0.4288 N   0  0  0  0  0  0  0  0  0  0  0  0
   -2.5586    7.2386   -1.7159 H   0  0  0  0  0  0  0  0  0  0  0  0
   -1.4799    7.3609   -0.3122 H   0  0  0  0  0  0  0  0  0  0  0  0
   -3.2209    7.6278   -0.1192 H   0  0  0  0  0  0  0  0  0  0  0  0
   -3.6842    5.2528   -0.6628 H   0  0  0  0  0  0  0  0  0  0  0  0
   -2.6198    5.3734    0.7220 H   0  0  0  0  0  0  0  0  0  0  0  0
   -1.7330    4.8342   -2.1576 H   0  0  0  0  0  0  0  0  0  0  0  0
   -0.6376    4.9601   -0.7358 H   0  0  0  0  0  0  0  0  0  0  0  0
    0.1857    3.6208   -2.4657 H   0  0  0  0  0  0  0  0  0  0  0  0
    1.6169    1.8117   -3.2513 H   0  0  0  0  0  0  0  0  0  0  0  0
    2.1411   -0.5234   -0.0178 H   0  0  0  0  0  0  0  0  0  0  0  0
    3.0844   -2.0025   -0.2260 H   0  0  0  0  0  0  0  0  0  0  0  0
    4.0434    0.8720    0.1796 H   0  0  0  0  0  0  0  0  0  0  0  0
    4.3367   -0.5018    1.2152 H   0  0  0  0  0  0  0  0  0  0  0  0
    5.7286    0.4812   -1.2048 H   0  0  0  0  0  0  0  0  0  0  0  0
    6.7318    0.2576    1.0479 H   0  0  0  0  0  0  0  0  0  0  0  0
    7.6826   -0.3820   -0.2724 H   0  0  0  0  0  0  0  0  0  0  0  0
    7.7820   -3.9938    0.5349 H   0  0  0  0  0  0  0  0  0  0  0  0
    5.6693   -3.3067    2.3679 H   0  0  0  0  0  0  0  0  0  0  0  0
    6.3548   -1.7229   -2.1718 H   0  0  0  0  0  0  0  0  0  0  0  0
    5.2455   -2.5244   -1.0683 H   0  0  0  0  0  0  0  0  0  0  0  0
    4.5989   -0.6915   -3.3835 H   0  0  0  0  0  0  0  0  0  0  0  0
    3.9940   -2.3215   -3.0318 H   0  0  0  0  0  0  0  0  0  0  0  0
   -0.6546   -1.0420   -0.9732 H   0  0  0  0  0  0  0  0  0  0  0  0
   -2.0227   -3.1359    2.3382 H   0  0  0  0  0  0  0  0  0  0  0  0
   -3.4013   -3.9270    3.0806 H   0  0  0  0  0  0  0  0  0  0  0  0
   -3.0074   -3.5660    0.0519 H   0  0  0  0  0  0  0  0  0  0  0  0
   -2.6187   -5.0189    0.9683 H   0  0  0  0  0  0  0  0  0  0  0  0
   -5.4225   -3.8331    0.6306 H   0  0  0  0  0  0  0  0  0  0  0  0
   -4.7841   -5.2974   -0.1263 H   0  0  0  0  0  0  0  0  0  0  0  0
   -5.0315   -5.2498    1.6269 H   0  0  0  0  0  0  0  0  0  0  0  0
   -7.1689    0.2905    2.4802 H   0  0  0  0  0  0  0  0  0  0  0  0
   -6.9576   -0.7749    3.9005 H   0  0  0  0  0  0  0  0  0  0  0  0
   -6.1881    0.8394    3.8852 H   0  0  0  0  0  0  0  0  0  0  0  0
   -3.3101    2.4923    0.0253 H   0  0  0  0  0  0  0  0  0  0  0  0
  1  2  1  0
  2  3  1  0
  3  4  1  0
  4  5  1  0
  5  6  1  0
  6  7  2  0
  7  8  1  0
  8  9  1  0
  9 10  2  0
  9 11  2  0
  9 12  1  0
 12 13  1  0
 13 14  1  0
 14 15  1  0
 15 16  1  0
 16 17  1  0
 17 18  2  0
 17 19  1  0
 17 20  1  0
 15 21  1  0
 21 22  1  0
  8 23  2  0
 23 24  1  0
 24 25  1  0
 25 26  2  0
 26 27  1  0
 27 28  1  0
 28 29  1  0
 29 30  1  0
 30 31  1  0
 28 32  2  0
 32 33  1  0
 33 34  1  0
 33 35  1  0
 35 36  1  0
 36 37  2  0
 36 38  1  0
 24  5  2  0
 38 25  1  0
 22 12  1  0
 35 27  2  0
  1 39  1  0
  1 40  1  0
  1 41  1  0
  2 42  1  0
  2 43  1  0
  3 44  1  0
  3 45  1  0
  6 46  1  0
  7 47  1  0
 13 48  1  0
 13 49  1  0
 14 50  1  0
 14 51  1  0
 15 52  1  0
 16 53  1  0
 16 54  1  0
 19 55  1  0
 20 56  1  0
 21 57  1  0
 21 58  1  0
 22 59  1  0
 22 60  1  0
 23 61  1  0
 29 62  1  0
 29 63  1  0
 30 64  1  0
 30 65  1  0
 31 66  1  0
 31 67  1  0
 31 68  1  0
 34 69  1  0
 34 70  1  0
 34 71  1  0
 38 72  1  0
M  END
$$$$
