
     RDKit          3D

 54 56  0  0  0  0  0  0  0  0999 V2000
   -5.7689   -0.4538   -4.1906 C   0  0  0  0  0  0  0  0  0  0  0  0
   -4.9623   -0.8570   -2.9696 C   0  0  0  0  0  0  0  0  0  0  0  0
   -3.4890   -0.4872   -3.1139 C   0  0  0  0  0  0  0  0  0  0  0  0
   -2.8204   -0.9052   -1.9207 O   0  0  0  0  0  0  0  0  0  0  0  0
   -1.4702   -0.6839   -1.8146 C   0  0  0  0  0  0  0  0  0  0  0  0
   -0.7136   -0.0565   -2.8177 C   0  0  0  0  0  0  0  0  0  0  0  0
    0.6588    0.1498   -2.6576 C   0  0  0  0  0  0  0  0  0  0  0  0
    1.2837   -0.2760   -1.4890 C   0  0  0  0  0  0  0  0  0  0  0  0
    3.0257   -0.0173   -1.2620 S   0  0  0  0  0  0  0  0  0  0  0  0
    3.4821    0.9031   -2.2823 O   0  0  0  0  0  0  0  0  0  0  0  0
    3.6247   -1.3229   -1.0959 O   0  0  0  0  0  0  0  0  0  0  0  0
    3.0900    0.8038    0.2268 N   0  0  0  0  0  0  0  0  0  0  0  0
    2.4931    2.1786    0.2475 C   0  0  0  0  0  0  0  0  0  0  0  0
    3.5696    3.2758    0.3367 C   0  0  0  0  0  0  0  0  0  0  0  0
    4.4552    3.1745    1.5140 N   0  0  0  0  0  0  0  0  0  0  0  0
    4.0419    4.0681    2.5925 C   0  0  0  0  0  0  0  0  0  0  0  0
    4.5576    1.7826    2.0007 C   0  0  0  0  0  0  0  0  0  0  0  0
    4.4424    0.7434    0.8720 C   0  0  0  0  0  0  0  0  0  0  0  0
    0.5533   -0.9050   -0.4793 C   0  0  0  0  0  0  0  0  0  0  0  0
   -0.8294   -1.1125   -0.6278 C   0  0  0  0  0  0  0  0  0  0  0  0
   -1.5347   -1.7836    0.5167 C   0  0  0  0  0  0  0  0  0  0  0  0
   -0.9075   -2.0411    1.6213 N   0  0  0  0  0  0  0  0  0  0  0  0
   -1.5879   -2.6648    2.6497 C   0  0  0  0  0  0  0  0  0  0  0  0
   -0.7073   -2.9044    3.8520 C   0  0  0  0  0  0  0  0  0  0  0  0
   -2.8875   -3.0199    2.5893 C   0  0  0  0  0  0  0  0  0  0  0  0
   -3.8642   -3.8588    3.9410 Br  0  0  0  0  0  0  0  0  0  0  0  0
   -3.6060   -2.7077    1.3226 C   0  0  0  0  0  0  0  0  0  0  0  0
   -4.7942   -2.9528    1.1351 O   0  0  0  0  0  0  0  0  0  0  0  0
   -2.8523   -2.1128    0.3540 N   0  0  0  0  0  0  0  0  0  0  0  0
   -5.3955   -0.9539   -5.0900 H   0  0  0  0  0  0  0  0  0  0  0  0
   -6.8197   -0.7307   -4.0596 H   0  0  0  0  0  0  0  0  0  0  0  0
   -5.7203    0.6276   -4.3532 H   0  0  0  0  0  0  0  0  0  0  0  0
   -5.3756   -0.3766   -2.0745 H   0  0  0  0  0  0  0  0  0  0  0  0
   -5.0552   -1.9368   -2.8014 H   0  0  0  0  0  0  0  0  0  0  0  0
   -3.3952    0.5983   -3.2361 H   0  0  0  0  0  0  0  0  0  0  0  0
   -3.0660   -1.0052   -3.9827 H   0  0  0  0  0  0  0  0  0  0  0  0
   -1.1617    0.2871   -3.7454 H   0  0  0  0  0  0  0  0  0  0  0  0
    1.2279    0.6354   -3.4484 H   0  0  0  0  0  0  0  0  0  0  0  0
    1.8192    2.2356    1.1110 H   0  0  0  0  0  0  0  0  0  0  0  0
    1.8729    2.3547   -0.6374 H   0  0  0  0  0  0  0  0  0  0  0  0
    4.2069    3.2079   -0.5544 H   0  0  0  0  0  0  0  0  0  0  0  0
    3.0947    4.2633    0.2834 H   0  0  0  0  0  0  0  0  0  0  0  0
    3.0286    3.8478    2.9469 H   0  0  0  0  0  0  0  0  0  0  0  0
    4.0710    5.1113    2.2588 H   0  0  0  0  0  0  0  0  0  0  0  0
    4.7303    3.9913    3.4414 H   0  0  0  0  0  0  0  0  0  0  0  0
    5.5207    1.6589    2.5089 H   0  0  0  0  0  0  0  0  0  0  0  0
    3.7707    1.5716    2.7380 H   0  0  0  0  0  0  0  0  0  0  0  0
    4.5782   -0.2581    1.2951 H   0  0  0  0  0  0  0  0  0  0  0  0
    5.2300    0.9149    0.1283 H   0  0  0  0  0  0  0  0  0  0  0  0
    1.0690   -1.2347    0.4221 H   0  0  0  0  0  0  0  0  0  0  0  0
   -1.2086   -3.4011    4.6851 H   0  0  0  0  0  0  0  0  0  0  0  0
   -0.3218   -1.9497    4.2267 H   0  0  0  0  0  0  0  0  0  0  0  0
    0.1473   -3.5288    3.5685 H   0  0  0  0  0  0  0  0  0  0  0  0
   -3.3304   -1.8870   -0.5092 H   0  0  0  0  0  0  0  0  0  0  0  0
  1  2  1  0
  2  3  1  0
  3  4  1  0
  4  5  1  0
  5  6  1  0
  6  7  2  0
  7  8  1  0
  8  9  1  0
  9 10  2  0
  9 11  2  0
  9 12  1  0
 12 13  1  0
 13 14  1  0
 14 15  1  0
 15 16  1  0
 15 17  1  0
 17 18  1  0
  8 19  2  0
 19 20  1  0
 20 21  1  0
 21 22  2  0
 22 23  1  0
 23 24  1  0
 23 25  2  0
 25 26  1  0
 25 27  1  0
 27 28  2  0
 27 29  1  0
 20  5  2  0
 29 21  1  0
 18 12  1  0
  1 30  1  0
  1 31  1  0
  1 32  1  0
  2 33  1  0
  2 34  1  0
  3 35  1  0
  3 36  1  0
  6 37  1  0
  7 38  1  0
 13 39  1  0
 13 40  1  0
 14 41  1  0
 14 42  1  0
 16 43  1  0
 16 44  1  0
 16 45  1  0
 17 46  1  0
 17 47  1  0
 18 48  1  0
 18 49  1  0
 19 50  1  0
 24 51  1  0
 24 52  1  0
 24 53  1  0
 29 54  1  0
M  END
$$$$
