
     RDKit          3D

 62 65  0  0  0  0  0  0  0  0999 V2000
    7.9466    1.5470   -0.4696 C   0  0  0  0  0  0  0  0  0  0  0  0
    6.9731    1.9909    0.6236 C   0  0  0  0  0  0  0  0  0  0  0  0
    7.5069    1.6128    2.0063 C   0  0  0  0  0  0  0  0  0  0  0  0
    5.5475    1.4610    0.3783 C   0  0  0  0  0  0  0  0  0  0  0  0
    5.5181   -0.0007    0.3586 N   0  0  0  0  0  0  0  0  0  0  0  0
    4.2593   -0.5718    0.0529 C   0  0  0  0  0  0  0  0  0  0  0  0
    3.2202    0.2415   -0.2036 N   0  0  0  0  0  0  0  0  0  0  0  0
    2.0330   -0.3113   -0.4848 C   0  0  0  0  0  0  0  0  0  0  0  0
    1.0111    0.6035   -0.7289 N   0  0  0  0  0  0  0  0  0  0  0  0
   -0.3217    0.4890   -1.1369 C   0  0  0  0  0  0  0  0  0  0  0  0
   -0.9508   -0.7310   -1.4156 C   0  0  0  0  0  0  0  0  0  0  0  0
   -2.2978   -0.7875   -1.7928 C   0  0  0  0  0  0  0  0  0  0  0  0
   -3.0365    0.3907   -1.8792 C   0  0  0  0  0  0  0  0  0  0  0  0
   -4.7486    0.3464   -2.3436 S   0  0  0  0  0  0  0  0  0  0  0  0
   -5.1491   -1.0351   -2.5100 O   0  0  0  0  0  0  0  0  0  0  0  0
   -4.9297    1.3177   -3.4012 O   0  0  0  0  0  0  0  0  0  0  0  0
   -5.5233    0.9351   -0.9435 N   0  0  0  0  0  0  0  0  0  0  0  0
   -5.4173    0.0667    0.2751 C   0  0  0  0  0  0  0  0  0  0  0  0
   -6.7516   -0.6231    0.6137 C   0  0  0  0  0  0  0  0  0  0  0  0
   -7.8819    0.3002    0.8415 N   0  0  0  0  0  0  0  0  0  0  0  0
   -8.1111    0.5488    2.2619 C   0  0  0  0  0  0  0  0  0  0  0  0
   -7.7001    1.5722    0.1112 C   0  0  0  0  0  0  0  0  0  0  0  0
   -6.9241    1.4021   -1.2064 C   0  0  0  0  0  0  0  0  0  0  0  0
   -2.4399    1.6207   -1.6064 C   0  0  0  0  0  0  0  0  0  0  0  0
   -1.0933    1.6615   -1.2333 C   0  0  0  0  0  0  0  0  0  0  0  0
    1.8213   -1.6303   -0.5147 N   0  0  0  0  0  0  0  0  0  0  0  0
    2.8549   -2.4423   -0.2821 C   0  0  0  0  0  0  0  0  0  0  0  0
    2.6484   -3.8163   -0.3324 C   0  0  0  0  0  0  0  0  0  0  0  0
    3.6833   -4.7296   -0.1124 C   0  0  0  0  0  0  0  0  0  0  0  0
    4.9625   -4.2666    0.1613 C   0  0  0  0  0  0  0  0  0  0  0  0
    5.1922   -2.8941    0.2198 C   0  0  0  0  0  0  0  0  0  0  0  0
    4.1366   -1.9693    0.0072 C   0  0  0  0  0  0  0  0  0  0  0  0
    8.0982    0.4626   -0.4622 H   0  0  0  0  0  0  0  0  0  0  0  0
    8.9241    2.0210   -0.3299 H   0  0  0  0  0  0  0  0  0  0  0  0
    7.5760    1.8329   -1.4596 H   0  0  0  0  0  0  0  0  0  0  0  0
    6.9158    3.0869    0.5868 H   0  0  0  0  0  0  0  0  0  0  0  0
    6.8072    1.9186    2.7910 H   0  0  0  0  0  0  0  0  0  0  0  0
    8.4620    2.1138    2.1980 H   0  0  0  0  0  0  0  0  0  0  0  0
    7.6754    0.5351    2.0985 H   0  0  0  0  0  0  0  0  0  0  0  0
    5.1966    1.8589   -0.5828 H   0  0  0  0  0  0  0  0  0  0  0  0
    4.8833    1.8422    1.1647 H   0  0  0  0  0  0  0  0  0  0  0  0
    5.8326   -0.3977    1.2399 H   0  0  0  0  0  0  0  0  0  0  0  0
    1.3978    1.5347   -0.6811 H   0  0  0  0  0  0  0  0  0  0  0  0
   -0.4028   -1.6668   -1.3553 H   0  0  0  0  0  0  0  0  0  0  0  0
   -2.7515   -1.7510   -2.0133 H   0  0  0  0  0  0  0  0  0  0  0  0
   -4.6416   -0.6958    0.1548 H   0  0  0  0  0  0  0  0  0  0  0  0
   -5.0959    0.7030    1.1087 H   0  0  0  0  0  0  0  0  0  0  0  0
   -7.0284   -1.2724   -0.2270 H   0  0  0  0  0  0  0  0  0  0  0  0
   -6.6126   -1.2951    1.4697 H   0  0  0  0  0  0  0  0  0  0  0  0
   -8.9692    1.2155    2.4025 H   0  0  0  0  0  0  0  0  0  0  0  0
   -7.2390    0.9991    2.7494 H   0  0  0  0  0  0  0  0  0  0  0  0
   -8.3518   -0.3854    2.7811 H   0  0  0  0  0  0  0  0  0  0  0  0
   -7.1596    2.3006    0.7315 H   0  0  0  0  0  0  0  0  0  0  0  0
   -8.6873    1.9973   -0.1029 H   0  0  0  0  0  0  0  0  0  0  0  0
   -7.4498    0.6936   -1.8579 H   0  0  0  0  0  0  0  0  0  0  0  0
   -6.8745    2.3702   -1.7173 H   0  0  0  0  0  0  0  0  0  0  0  0
   -3.0136    2.5416   -1.6807 H   0  0  0  0  0  0  0  0  0  0  0  0
   -0.6453    2.6289   -1.0167 H   0  0  0  0  0  0  0  0  0  0  0  0
    1.6507   -4.1888   -0.5552 H   0  0  0  0  0  0  0  0  0  0  0  0
    3.4852   -5.7971   -0.1645 H   0  0  0  0  0  0  0  0  0  0  0  0
    5.7781   -4.9668    0.3217 H   0  0  0  0  0  0  0  0  0  0  0  0
    6.2015   -2.5387    0.4148 H   0  0  0  0  0  0  0  0  0  0  0  0
  1  2  1  0
  2  3  1  0
  2  4  1  0
  4  5  1  0
  5  6  1  0
  6  7  1  0
  7  8  2  0
  8  9  1  0
  9 10  1  0
 10 11  1  0
 11 12  2  0
 12 13  1  0
 13 14  1  0
 14 15  2  0
 14 16  2  0
 14 17  1  0
 17 18  1  0
 18 19  1  0
 19 20  1  0
 20 21  1  0
 20 22  1  0
 22 23  1  0
 13 24  2  0
 24 25  1  0
  8 26  1  0
 26 27  2  0
 27 28  1  0
 28 29  2  0
 29 30  1  0
 30 31  2  0
 31 32  1  0
 32  6  2  0
 25 10  2  0
 32 27  1  0
 23 17  1  0
  1 33  1  0
  1 34  1  0
  1 35  1  0
  2 36  1  0
  3 37  1  0
  3 38  1  0
  3 39  1  0
  4 40  1  0
  4 41  1  0
  5 42  1  0
  9 43  1  0
 11 44  1  0
 12 45  1  0
 18 46  1  0
 18 47  1  0
 19 48  1  0
 19 49  1  0
 21 50  1  0
 21 51  1  0
 21 52  1  0
 22 53  1  0
 22 54  1  0
 23 55  1  0
 23 56  1  0
 24 57  1  0
 25 58  1  0
 28 59  1  0
 29 60  1  0
 30 61  1  0
 31 62  1  0
M  END
$$$$
