
     RDKit          3D

 67 71  0  0  0  0  0  0  0  0999 V2000
    0.3096    3.5138   -4.8252 C   0  0  0  0  0  0  0  0  0  0  0  0
    0.8769    3.6891   -3.4286 C   0  0  0  0  0  0  0  0  0  0  0  0
    1.0590    2.3856   -2.8584 O   0  0  0  0  0  0  0  0  0  0  0  0
    1.2848    2.4657   -1.5100 C   0  0  0  0  0  0  0  0  0  0  0  0
    2.5368    2.8909   -1.0533 C   0  0  0  0  0  0  0  0  0  0  0  0
    2.8326    2.8573    0.3111 C   0  0  0  0  0  0  0  0  0  0  0  0
    1.8781    2.3774    1.2142 C   0  0  0  0  0  0  0  0  0  0  0  0
    2.2545    2.3060    2.9521 S   0  0  0  0  0  0  0  0  0  0  0  0
    1.0235    2.5883    3.6583 O   0  0  0  0  0  0  0  0  0  0  0  0
    3.4372    3.1148    3.1587 O   0  0  0  0  0  0  0  0  0  0  0  0
    2.6704    0.6978    3.2095 N   0  0  0  0  0  0  0  0  0  0  0  0
    1.6244   -0.3390    3.3864 C   0  0  0  0  0  0  0  0  0  0  0  0
    1.4416   -1.2118    2.1299 C   0  0  0  0  0  0  0  0  0  0  0  0
    2.7087   -1.7583    1.6199 N   0  0  0  0  0  0  0  0  0  0  0  0
    2.5250   -2.6273    0.4461 C   0  0  0  0  0  0  0  0  0  0  0  0
    1.9525   -1.9966   -0.8355 C   0  0  0  0  0  0  0  0  0  0  0  0
    1.8484   -2.9939   -1.8479 O   0  0  0  0  0  0  0  0  0  0  0  0
    3.6965   -0.6901    1.3960 C   0  0  0  0  0  0  0  0  0  0  0  0
    3.9386    0.1620    2.6582 C   0  0  0  0  0  0  0  0  0  0  0  0
    0.6146    1.9828    0.7708 C   0  0  0  0  0  0  0  0  0  0  0  0
    0.3273    2.0029   -0.5993 C   0  0  0  0  0  0  0  0  0  0  0  0
   -0.9814    1.4599   -1.0395 C   0  0  0  0  0  0  0  0  0  0  0  0
   -1.6938    2.2492   -1.9258 N   0  0  0  0  0  0  0  0  0  0  0  0
   -2.8329    1.7998   -2.3238 C   0  0  0  0  0  0  0  0  0  0  0  0
   -3.6193    2.4696   -3.1890 O   0  0  0  0  0  0  0  0  0  0  0  0
   -3.3378    0.5689   -1.8752 C   0  0  0  0  0  0  0  0  0  0  0  0
   -4.4515   -0.0639   -2.1405 N   0  0  0  0  0  0  0  0  0  0  0  0
   -4.4059   -1.2345   -1.4034 N   0  0  0  0  0  0  0  0  0  0  0  0
   -3.2623   -1.2641   -0.7322 C   0  0  0  0  0  0  0  0  0  0  0  0
   -2.7556   -2.3197    0.1946 C   0  0  0  0  0  0  0  0  0  0  0  0
   -3.1102   -1.9913    1.6567 C   0  0  0  0  0  0  0  0  0  0  0  0
   -3.8021   -3.2321    2.2095 C   0  0  0  0  0  0  0  0  0  0  0  0
   -4.4448   -3.8663    0.9893 C   0  0  0  0  0  0  0  0  0  0  0  0
   -3.3759   -3.6980   -0.0803 C   0  0  0  0  0  0  0  0  0  0  0  0
   -2.5641   -0.1145   -1.0051 N   0  0  0  0  0  0  0  0  0  0  0  0
   -1.3646    0.3114   -0.5471 N   0  0  0  0  0  0  0  0  0  0  0  0
   -0.6476    2.9834   -4.7895 H   0  0  0  0  0  0  0  0  0  0  0  0
    0.9846    2.9119   -5.4426 H   0  0  0  0  0  0  0  0  0  0  0  0
    0.1583    4.4828   -5.3089 H   0  0  0  0  0  0  0  0  0  0  0  0
    1.8413    4.2060   -3.4913 H   0  0  0  0  0  0  0  0  0  0  0  0
    0.1841    4.2895   -2.8259 H   0  0  0  0  0  0  0  0  0  0  0  0
    3.2943    3.2228   -1.7593 H   0  0  0  0  0  0  0  0  0  0  0  0
    3.8099    3.1895    0.6572 H   0  0  0  0  0  0  0  0  0  0  0  0
    0.6647    0.1066    3.6656 H   0  0  0  0  0  0  0  0  0  0  0  0
    1.9248   -0.9704    4.2322 H   0  0  0  0  0  0  0  0  0  0  0  0
    0.7644   -2.0357    2.3861 H   0  0  0  0  0  0  0  0  0  0  0  0
    0.9434   -0.6218    1.3577 H   0  0  0  0  0  0  0  0  0  0  0  0
    1.8848   -3.4730    0.7319 H   0  0  0  0  0  0  0  0  0  0  0  0
    3.4868   -3.0982    0.2021 H   0  0  0  0  0  0  0  0  0  0  0  0
    2.6029   -1.2020   -1.2120 H   0  0  0  0  0  0  0  0  0  0  0  0
    0.9521   -1.5902   -0.6661 H   0  0  0  0  0  0  0  0  0  0  0  0
    1.5110   -2.5535   -2.6473 H   0  0  0  0  0  0  0  0  0  0  0  0
    4.6543   -1.1332    1.0981 H   0  0  0  0  0  0  0  0  0  0  0  0
    3.3755   -0.0360    0.5794 H   0  0  0  0  0  0  0  0  0  0  0  0
    4.6423    0.9682    2.4279 H   0  0  0  0  0  0  0  0  0  0  0  0
    4.4133   -0.4489    3.4362 H   0  0  0  0  0  0  0  0  0  0  0  0
   -0.1350    1.6412    1.4818 H   0  0  0  0  0  0  0  0  0  0  0  0
   -4.4402    1.9746   -3.3679 H   0  0  0  0  0  0  0  0  0  0  0  0
   -1.6670   -2.3995    0.0801 H   0  0  0  0  0  0  0  0  0  0  0  0
   -2.2151   -1.7501    2.2407 H   0  0  0  0  0  0  0  0  0  0  0  0
   -3.7849   -1.1292    1.7304 H   0  0  0  0  0  0  0  0  0  0  0  0
   -3.0594   -3.9131    2.6423 H   0  0  0  0  0  0  0  0  0  0  0  0
   -4.5317   -2.9882    2.9870 H   0  0  0  0  0  0  0  0  0  0  0  0
   -5.3555   -3.3239    0.7101 H   0  0  0  0  0  0  0  0  0  0  0  0
   -4.7050   -4.9156    1.1546 H   0  0  0  0  0  0  0  0  0  0  0  0
   -3.7803   -3.8184   -1.0903 H   0  0  0  0  0  0  0  0  0  0  0  0
   -2.6094   -4.4715    0.0584 H   0  0  0  0  0  0  0  0  0  0  0  0
  1  2  1  0
  2  3  1  0
  3  4  1  0
  4  5  1  0
  5  6  2  0
  6  7  1  0
  7  8  1  0
  8  9  2  0
  8 10  2  0
  8 11  1  0
 11 12  1  0
 12 13  1  0
 13 14  1  0
 14 15  1  0
 15 16  1  0
 16 17  1  0
 14 18  1  0
 18 19  1  0
  7 20  2  0
 20 21  1  0
 21 22  1  0
 22 23  1  0
 23 24  2  0
 24 25  1  0
 24 26  1  0
 26 27  2  0
 27 28  1  0
 28 29  2  0
 29 30  1  0
 30 31  1  0
 31 32  1  0
 32 33  1  0
 33 34  1  0
 29 35  1  0
 35 36  1  0
 21  4  2  0
 36 22  2  0
 19 11  1  0
 35 26  1  0
 34 30  1  0
  1 37  1  0
  1 38  1  0
  1 39  1  0
  2 40  1  0
  2 41  1  0
  5 42  1  0
  6 43  1  0
 12 44  1  0
 12 45  1  0
 13 46  1  0
 13 47  1  0
 15 48  1  0
 15 49  1  0
 16 50  1  0
 16 51  1  0
 17 52  1  0
 18 53  1  0
 18 54  1  0
 19 55  1  0
 19 56  1  0
 20 57  1  0
 25 58  1  0
 30 59  1  0
 31 60  1  0
 31 61  1  0
 32 62  1  0
 32 63  1  0
 33 64  1  0
 33 65  1  0
 34 66  1  0
 34 67  1  0
M  END
$$$$
