


 35 38  0  0  0  0  0  0  0  0999 V2000
   -0.2001   63.0373   85.5077 C   0  0  0  0  0  0  0  0  0  0  0  0
    0.3944   63.9406   86.4006 C   0  0  0  0  0  0  0  0  0  0  0  0
    0.9862   65.1212   85.9428 C   0  0  0  0  0  0  0  0  0  0  0  0
    0.9944   65.4290   84.5825 C   0  0  0  0  0  0  0  0  0  0  0  0
    0.4042   64.5293   83.6859 C   0  0  0  0  0  0  0  0  0  0  0  0
   -0.1958   63.3325   84.1266 C   0  0  0  0  0  0  0  0  0  0  0  0
   -0.7933   62.4445   83.0622 C   0  0  0  0  0  0  0  0  0  0  0  0
   -0.3580   62.5255   81.8324 N   0  0  0  0  0  0  0  0  0  0  0  0
   -0.9859   61.6532   80.9430 C   0  0  0  0  0  0  0  0  0  0  0  0
   -0.7736   61.4623   79.5681 C   0  0  0  0  0  0  0  0  0  0  0  0
   -1.5978   60.5105   79.0889 N   0  0  0  0  0  0  0  0  0  0  0  0
   -2.3128   60.1189   80.1733 N   0  0  0  0  0  0  0  0  0  0  0  0
   -3.3149   59.0891   80.0412 C   0  0  0  0  0  0  0  0  0  0  0  0
   -1.9700   60.7853   81.3070 C   0  0  0  0  0  0  0  0  0  0  0  0
   -2.4512   60.6893   82.6347 C   0  0  0  0  0  0  0  0  0  0  0  0
   -3.3308   59.9317   83.0273 O   0  0  0  0  0  0  0  0  0  0  0  0
   -1.7984   61.5703   83.4653 N   0  0  0  0  0  0  0  0  0  0  0  0
   -2.0861   61.5570   84.4349 H   0  0  0  0  0  0  0  0  0  0  0  0
    0.1962   62.1550   78.6772 C   0  0  0  0  0  0  0  0  0  0  0  0
   -0.1808   62.0356   77.2084 C   0  0  0  0  0  0  0  0  0  0  0  0
   -0.7924   61.8656   85.9100 O   0  0  0  0  0  0  0  0  0  0  0  0
   -2.7598   62.5127   87.0843 C   0  0  0  0  0  0  0  0  0  0  0  0
   -1.4112   61.8245   87.1975 C   0  0  0  0  0  0  0  0  0  0  0  0
    1.6445   66.6959   84.0825 C   0  0  0  0  0  0  0  0  0  0  0  0
    3.1678   66.5794   83.9738 C   0  0  0  0  0  0  0  0  0  0  0  0
    3.9196   67.8711   84.2876 C   0  0  0  0  0  0  0  0  0  0  0  0
    5.3465   67.3882   84.5060 C   0  0  0  0  0  0  0  0  0  0  0  0
    5.2039   66.0422   85.2280 C   0  0  0  0  0  0  0  0  0  0  0  0
    3.7521   65.5913   84.9902 C   0  0  0  0  0  0  0  0  0  0  0  0
    5.5107   66.1290   86.7170 C   0  0  0  0  0  0  0  0  0  0  0  0
    5.5911   67.1750   87.3562 O   0  0  0  0  0  0  0  0  0  0  0  0
    5.6955   64.9005   87.3166 N   0  0  0  0  0  0  0  0  0  0  0  0
    6.1170   64.9601   88.6679 O   0  0  0  0  0  0  0  0  0  0  0  0
    6.0237   64.0989   86.7886 H   0  0  0  0  0  0  0  0  0  0  0  0
    6.1123   65.9270   88.8481 H   0  0  0  0  0  0  0  0  0  0  0  0
 22 23  1  0  0  0
 23 21  1  0  0  0
 21  1  1  0  0  0
  1  2  1  0  0  0
  2  3  2  0  0  0
  3  4  1  0  0  0
  4 24  1  0  0  0
 24 25  1  0  0  0
 25 26  1  0  0  0
 26 27  1  0  0  0
 27 28  1  0  0  0
 28 30  1  0  0  0
 30 31  2  0  0  0
 30 32  1  0  0  0
 32 33  1  0  0  0
 28 29  1  0  0  0
  4  5  2  0  0  0
  5  6  1  0  0  0
  6  7  1  0  0  0
  7  8  2  0  0  0
  8  9  1  0  0  0
  9 10  1  0  0  0
 10 19  1  0  0  0
 19 20  1  0  0  0
 10 11  2  0  0  0
 11 12  1  0  0  0
 12 13  1  0  0  0
 12 14  1  0  0  0
 14 15  1  0  0  0
 15 16  2  0  0  0
 15 17  1  0  0  0
  6  1  2  0  0  0
 17  7  1  0  0  0
 29 25  1  0  0  0
 14  9  2  0  0  0
 32 34  1  0  0  0
 33 35  1  0  0  0
 17 18  1  0  0  0
M  END
> <minimizedAffinity>
-11.63367

$$$$



 35 38  0  0  0  0  0  0  0  0999 V2000
    0.6140   66.0024   80.5797 C   0  0  0  0  0  0  0  0  0  0  0  0
    1.3900   67.1670   80.4889 C   0  0  0  0  0  0  0  0  0  0  0  0
    2.0738   67.6649   81.6016 C   0  0  0  0  0  0  0  0  0  0  0  0
    2.0016   67.0088   82.8302 C   0  0  0  0  0  0  0  0  0  0  0  0
    1.2260   65.8465   82.9274 C   0  0  0  0  0  0  0  0  0  0  0  0
    0.5270   65.3291   81.8181 C   0  0  0  0  0  0  0  0  0  0  0  0
   -0.2772   64.0733   82.0522 C   0  0  0  0  0  0  0  0  0  0  0  0
   -0.8680   63.8883   83.2034 N   0  0  0  0  0  0  0  0  0  0  0  0
   -1.5816   62.6932   83.2963 C   0  0  0  0  0  0  0  0  0  0  0  0
   -2.3339   62.1744   84.3624 C   0  0  0  0  0  0  0  0  0  0  0  0
   -2.8675   60.9828   84.0303 N   0  0  0  0  0  0  0  0  0  0  0  0
   -2.4417   60.7751   82.7591 N   0  0  0  0  0  0  0  0  0  0  0  0
   -2.8259   59.5737   82.0584 C   0  0  0  0  0  0  0  0  0  0  0  0
   -1.6660   61.7853   82.2850 C   0  0  0  0  0  0  0  0  0  0  0  0
   -1.0295   61.9731   81.0347 C   0  0  0  0  0  0  0  0  0  0  0  0
   -1.0661   61.1982   80.0860 O   0  0  0  0  0  0  0  0  0  0  0  0
   -0.3422   63.1642   81.0005 N   0  0  0  0  0  0  0  0  0  0  0  0
    0.1371   63.3714   80.1342 H   0  0  0  0  0  0  0  0  0  0  0  0
   -2.5730   62.7735   85.7034 C   0  0  0  0  0  0  0  0  0  0  0  0
   -1.4924   62.3974   86.7056 C   0  0  0  0  0  0  0  0  0  0  0  0
   -0.0756   65.4763   79.5152 O   0  0  0  0  0  0  0  0  0  0  0  0
   -0.1375   64.1423   77.5442 C   0  0  0  0  0  0  0  0  0  0  0  0
    0.6434   65.1931   78.3132 C   0  0  0  0  0  0  0  0  0  0  0  0
    2.7270   67.5506   84.0377 C   0  0  0  0  0  0  0  0  0  0  0  0
    4.0698   66.8566   84.2853 C   0  0  0  0  0  0  0  0  0  0  0  0
    5.0335   67.6506   85.1645 C   0  0  0  0  0  0  0  0  0  0  0  0
    6.0599   66.6038   85.5733 C   0  0  0  0  0  0  0  0  0  0  0  0
    5.2528   65.3158   85.7797 C   0  0  0  0  0  0  0  0  0  0  0  0
    3.9137   65.5403   85.0559 C   0  0  0  0  0  0  0  0  0  0  0  0
    5.0291   64.9812   87.2484 C   0  0  0  0  0  0  0  0  0  0  0  0
    4.0132   64.4602   87.7017 O   0  0  0  0  0  0  0  0  0  0  0  0
    6.0924   65.3167   88.0606 N   0  0  0  0  0  0  0  0  0  0  0  0
    5.8550   65.1429   89.4465 O   0  0  0  0  0  0  0  0  0  0  0  0
    6.7294   66.0669   87.8143 H   0  0  0  0  0  0  0  0  0  0  0  0
    4.9532   64.7504   89.4586 H   0  0  0  0  0  0  0  0  0  0  0  0
 22 23  1  0  0  0
 23 21  1  0  0  0
 21  1  1  0  0  0
  1  2  1  0  0  0
  2  3  2  0  0  0
  3  4  1  0  0  0
  4 24  1  0  0  0
 24 25  1  0  0  0
 25 26  1  0  0  0
 26 27  1  0  0  0
 27 28  1  0  0  0
 28 30  1  0  0  0
 30 31  2  0  0  0
 30 32  1  0  0  0
 32 33  1  0  0  0
 28 29  1  0  0  0
  4  5  2  0  0  0
  5  6  1  0  0  0
  6  7  1  0  0  0
  7  8  2  0  0  0
  8  9  1  0  0  0
  9 10  1  0  0  0
 10 19  1  0  0  0
 19 20  1  0  0  0
 10 11  2  0  0  0
 11 12  1  0  0  0
 12 13  1  0  0  0
 12 14  1  0  0  0
 14 15  1  0  0  0
 15 16  2  0  0  0
 15 17  1  0  0  0
  6  1  2  0  0  0
 17  7  1  0  0  0
 29 25  1  0  0  0
 14  9  2  0  0  0
 32 34  1  0  0  0
 33 35  1  0  0  0
 17 18  1  0  0  0
M  END
> <minimizedAffinity>
-11.32105

$$$$



 35 38  0  0  0  0  0  0  0  0999 V2000
   -0.1780   63.5353   85.7678 C   0  0  0  0  0  0  0  0  0  0  0  0
   -1.2862   62.6771   85.7211 C   0  0  0  0  0  0  0  0  0  0  0  0
   -2.0412   62.5395   84.5529 C   0  0  0  0  0  0  0  0  0  0  0  0
   -1.7044   63.2529   83.4028 C   0  0  0  0  0  0  0  0  0  0  0  0
   -0.6000   64.1133   83.4444 C   0  0  0  0  0  0  0  0  0  0  0  0
    0.1732   64.2682   84.6128 C   0  0  0  0  0  0  0  0  0  0  0  0
    1.3349   65.2286   84.5317 C   0  0  0  0  0  0  0  0  0  0  0  0
    1.2339   66.3062   83.7989 N   0  0  0  0  0  0  0  0  0  0  0  0
    2.3711   67.1141   83.8071 C   0  0  0  0  0  0  0  0  0  0  0  0
    2.6148   68.3323   83.1526 C   0  0  0  0  0  0  0  0  0  0  0  0
    3.8523   68.7833   83.4360 N   0  0  0  0  0  0  0  0  0  0  0  0
    4.3637   67.8398   84.2659 N   0  0  0  0  0  0  0  0  0  0  0  0
    5.7005   67.9888   84.7881 C   0  0  0  0  0  0  0  0  0  0  0  0
    3.4988   66.8208   84.5118 C   0  0  0  0  0  0  0  0  0  0  0  0
    3.6213   65.6564   85.3074 C   0  0  0  0  0  0  0  0  0  0  0  0
    4.6045   65.3351   85.9643 O   0  0  0  0  0  0  0  0  0  0  0  0
    2.4736   64.8995   85.2611 N   0  0  0  0  0  0  0  0  0  0  0  0
    2.4837   64.0502   85.8104 H   0  0  0  0  0  0  0  0  0  0  0  0
    1.7066   69.0992   82.2576 C   0  0  0  0  0  0  0  0  0  0  0  0
    1.8998   68.7398   80.7923 C   0  0  0  0  0  0  0  0  0  0  0  0
    0.5927   63.7039   86.8917 O   0  0  0  0  0  0  0  0  0  0  0  0
    0.4416   62.5840   88.9872 C   0  0  0  0  0  0  0  0  0  0  0  0
   -0.0605   63.7552   88.1617 C   0  0  0  0  0  0  0  0  0  0  0  0
   -2.5251   63.1178   82.1435 C   0  0  0  0  0  0  0  0  0  0  0  0
   -1.6843   62.7235   80.9255 C   0  0  0  0  0  0  0  0  0  0  0  0
   -0.5894   61.7014   81.2234 C   0  0  0  0  0  0  0  0  0  0  0  0
   -0.2080   61.1998   79.8379 C   0  0  0  0  0  0  0  0  0  0  0  0
   -1.5284   61.1426   79.0591 C   0  0  0  0  0  0  0  0  0  0  0  0
   -2.5157   62.0242   79.8434 C   0  0  0  0  0  0  0  0  0  0  0  0
   -2.0673   59.7269   78.9027 C   0  0  0  0  0  0  0  0  0  0  0  0
   -1.8891   59.0138   77.9184 O   0  0  0  0  0  0  0  0  0  0  0  0
   -2.7945   59.2883   79.9898 N   0  0  0  0  0  0  0  0  0  0  0  0
   -3.4211   58.0300   79.8126 O   0  0  0  0  0  0  0  0  0  0  0  0
   -3.2794   59.9391   80.5985 H   0  0  0  0  0  0  0  0  0  0  0  0
   -3.1042   57.7600   78.9215 H   0  0  0  0  0  0  0  0  0  0  0  0
 22 23  1  0  0  0
 23 21  1  0  0  0
 21  1  1  0  0  0
  1  2  1  0  0  0
  2  3  2  0  0  0
  3  4  1  0  0  0
  4 24  1  0  0  0
 24 25  1  0  0  0
 25 26  1  0  0  0
 26 27  1  0  0  0
 27 28  1  0  0  0
 28 30  1  0  0  0
 30 31  2  0  0  0
 30 32  1  0  0  0
 32 33  1  0  0  0
 28 29  1  0  0  0
  4  5  2  0  0  0
  5  6  1  0  0  0
  6  7  1  0  0  0
  7  8  2  0  0  0
  8  9  1  0  0  0
  9 10  1  0  0  0
 10 19  1  0  0  0
 19 20  1  0  0  0
 10 11  2  0  0  0
 11 12  1  0  0  0
 12 13  1  0  0  0
 12 14  1  0  0  0
 14 15  1  0  0  0
 15 16  2  0  0  0
 15 17  1  0  0  0
  6  1  2  0  0  0
 17  7  1  0  0  0
 29 25  1  0  0  0
 14  9  2  0  0  0
 32 34  1  0  0  0
 33 35  1  0  0  0
 17 18  1  0  0  0
M  END
> <minimizedAffinity>
-11.16263

$$$$



 35 38  0  0  0  0  0  0  0  0999 V2000
    0.1791   64.1737   80.2314 C   0  0  0  0  0  0  0  0  0  0  0  0
   -0.1254   62.8048   80.2425 C   0  0  0  0  0  0  0  0  0  0  0  0
   -0.3653   62.1304   81.4430 C   0  0  0  0  0  0  0  0  0  0  0  0
   -0.3105   62.8086   82.6604 C   0  0  0  0  0  0  0  0  0  0  0  0
   -0.0045   64.1754   82.6556 C   0  0  0  0  0  0  0  0  0  0  0  0
    0.2429   64.8736   81.4564 C   0  0  0  0  0  0  0  0  0  0  0  0
    0.5666   66.3424   81.5844 C   0  0  0  0  0  0  0  0  0  0  0  0
    1.3661   66.7486   82.5353 N   0  0  0  0  0  0  0  0  0  0  0  0
    1.5895   68.1256   82.5478 C   0  0  0  0  0  0  0  0  0  0  0  0
    2.3847   68.9009   83.4070 C   0  0  0  0  0  0  0  0  0  0  0  0
    2.3231   70.2023   83.0642 N   0  0  0  0  0  0  0  0  0  0  0  0
    1.4904   70.2209   81.9933 N   0  0  0  0  0  0  0  0  0  0  0  0
    1.1828   71.4712   81.3422 C   0  0  0  0  0  0  0  0  0  0  0  0
    1.0307   68.9877   81.6541 C   0  0  0  0  0  0  0  0  0  0  0  0
    0.1621   68.5608   80.6212 C   0  0  0  0  0  0  0  0  0  0  0  0
   -0.3717   69.2824   79.7869 O   0  0  0  0  0  0  0  0  0  0  0  0
   -0.0219   67.1980   80.6578 N   0  0  0  0  0  0  0  0  0  0  0  0
   -0.6295   66.8163   79.9448 H   0  0  0  0  0  0  0  0  0  0  0  0
    3.2156   68.4502   84.5561 C   0  0  0  0  0  0  0  0  0  0  0  0
    4.5971   67.9840   84.1229 C   0  0  0  0  0  0  0  0  0  0  0  0
    0.4229   64.8781   79.0783 O   0  0  0  0  0  0  0  0  0  0  0  0
   -0.8774   64.8070   77.0853 C   0  0  0  0  0  0  0  0  0  0  0  0
    0.2987   64.1979   77.8277 C   0  0  0  0  0  0  0  0  0  0  0  0
   -0.5552   62.0814   83.9600 C   0  0  0  0  0  0  0  0  0  0  0  0
   -1.0713   63.0032   85.0690 C   0  0  0  0  0  0  0  0  0  0  0  0
   -1.9191   62.2991   86.1261 C   0  0  0  0  0  0  0  0  0  0  0  0
   -1.9429   63.3060   87.2673 C   0  0  0  0  0  0  0  0  0  0  0  0
   -0.5417   63.9301   87.2752 C   0  0  0  0  0  0  0  0  0  0  0  0
    0.0655   63.6136   85.8974 C   0  0  0  0  0  0  0  0  0  0  0  0
    0.3417   63.3976   88.3955 C   0  0  0  0  0  0  0  0  0  0  0  0
    1.5429   63.6281   88.5105 O   0  0  0  0  0  0  0  0  0  0  0  0
   -0.3329   62.6108   89.3059 N   0  0  0  0  0  0  0  0  0  0  0  0
    0.4920   61.9923   90.2777 O   0  0  0  0  0  0  0  0  0  0  0  0
   -1.1658   62.0947   89.0432 H   0  0  0  0  0  0  0  0  0  0  0  0
    1.3800   62.3571   90.0638 H   0  0  0  0  0  0  0  0  0  0  0  0
 22 23  1  0  0  0
 23 21  1  0  0  0
 21  1  1  0  0  0
  1  2  1  0  0  0
  2  3  2  0  0  0
  3  4  1  0  0  0
  4 24  1  0  0  0
 24 25  1  0  0  0
 25 26  1  0  0  0
 26 27  1  0  0  0
 27 28  1  0  0  0
 28 30  1  0  0  0
 30 31  2  0  0  0
 30 32  1  0  0  0
 32 33  1  0  0  0
 28 29  1  0  0  0
  4  5  2  0  0  0
  5  6  1  0  0  0
  6  7  1  0  0  0
  7  8  2  0  0  0
  8  9  1  0  0  0
  9 10  1  0  0  0
 10 19  1  0  0  0
 19 20  1  0  0  0
 10 11  2  0  0  0
 11 12  1  0  0  0
 12 13  1  0  0  0
 12 14  1  0  0  0
 14 15  1  0  0  0
 15 16  2  0  0  0
 15 17  1  0  0  0
  6  1  2  0  0  0
 17  7  1  0  0  0
 29 25  1  0  0  0
 14  9  2  0  0  0
 32 34  1  0  0  0
 33 35  1  0  0  0
 17 18  1  0  0  0
M  END
> <minimizedAffinity>
-10.84949

$$$$



 35 38  0  0  0  0  0  0  0  0999 V2000
    3.2710   66.4713   84.4978 C   0  0  0  0  0  0  0  0  0  0  0  0
    3.8672   67.4908   83.7416 C   0  0  0  0  0  0  0  0  0  0  0  0
    3.1378   68.1922   82.7773 C   0  0  0  0  0  0  0  0  0  0  0  0
    1.7947   67.8942   82.5486 C   0  0  0  0  0  0  0  0  0  0  0  0
    1.1947   66.8752   83.2993 C   0  0  0  0  0  0  0  0  0  0  0  0
    1.9129   66.1545   84.2748 C   0  0  0  0  0  0  0  0  0  0  0  0
    1.1553   65.0777   85.0132 C   0  0  0  0  0  0  0  0  0  0  0  0
    0.1575   64.4703   84.4268 N   0  0  0  0  0  0  0  0  0  0  0  0
   -0.4600   63.4947   85.2097 C   0  0  0  0  0  0  0  0  0  0  0  0
   -1.5412   62.6505   84.9092 C   0  0  0  0  0  0  0  0  0  0  0  0
   -1.8195   61.8467   85.9538 N   0  0  0  0  0  0  0  0  0  0  0  0
   -0.9058   62.1996   86.8925 N   0  0  0  0  0  0  0  0  0  0  0  0
   -0.8961   61.5353   88.1733 C   0  0  0  0  0  0  0  0  0  0  0  0
   -0.0705   63.1884   86.4780 C   0  0  0  0  0  0  0  0  0  0  0  0
    1.0070   63.8399   87.1246 C   0  0  0  0  0  0  0  0  0  0  0  0
    1.4074   63.6121   88.2602 O   0  0  0  0  0  0  0  0  0  0  0  0
    1.5760   64.7896   86.3081 N   0  0  0  0  0  0  0  0  0  0  0  0
    2.3583   65.2965   86.7009 H   0  0  0  0  0  0  0  0  0  0  0  0
   -2.3316   62.5723   83.6509 C   0  0  0  0  0  0  0  0  0  0  0  0
   -2.4181   61.1535   83.1096 C   0  0  0  0  0  0  0  0  0  0  0  0
    3.9467   65.7548   85.4546 O   0  0  0  0  0  0  0  0  0  0  0  0
    5.4717   65.5084   87.2662 C   0  0  0  0  0  0  0  0  0  0  0  0
    5.1044   66.3424   86.0518 C   0  0  0  0  0  0  0  0  0  0  0  0
    1.0072   68.6395   81.4988 C   0  0  0  0  0  0  0  0  0  0  0  0
    0.7788   67.8136   80.2293 C   0  0  0  0  0  0  0  0  0  0  0  0
    1.9579   66.9253   79.8383 C   0  0  0  0  0  0  0  0  0  0  0  0
    1.3364   65.9557   78.8432 C   0  0  0  0  0  0  0  0  0  0  0  0
   -0.0689   65.6728   79.3895 C   0  0  0  0  0  0  0  0  0  0  0  0
   -0.3671   66.8069   80.3856 C   0  0  0  0  0  0  0  0  0  0  0  0
   -0.1839   64.3117   80.0628 C   0  0  0  0  0  0  0  0  0  0  0  0
   -0.8941   63.3913   79.6660 O   0  0  0  0  0  0  0  0  0  0  0  0
    0.5998   64.1843   81.1909 N   0  0  0  0  0  0  0  0  0  0  0  0
    0.4066   62.9798   81.9114 O   0  0  0  0  0  0  0  0  0  0  0  0
    0.8616   64.9918   81.7463 H   0  0  0  0  0  0  0  0  0  0  0  0
   -0.2389   62.4976   81.3473 H   0  0  0  0  0  0  0  0  0  0  0  0
 22 23  1  0  0  0
 23 21  1  0  0  0
 21  1  1  0  0  0
  1  2  1  0  0  0
  2  3  2  0  0  0
  3  4  1  0  0  0
  4 24  1  0  0  0
 24 25  1  0  0  0
 25 26  1  0  0  0
 26 27  1  0  0  0
 27 28  1  0  0  0
 28 30  1  0  0  0
 30 31  2  0  0  0
 30 32  1  0  0  0
 32 33  1  0  0  0
 28 29  1  0  0  0
  4  5  2  0  0  0
  5  6  1  0  0  0
  6  7  1  0  0  0
  7  8  2  0  0  0
  8  9  1  0  0  0
  9 10  1  0  0  0
 10 19  1  0  0  0
 19 20  1  0  0  0
 10 11  2  0  0  0
 11 12  1  0  0  0
 12 13  1  0  0  0
 12 14  1  0  0  0
 14 15  1  0  0  0
 15 16  2  0  0  0
 15 17  1  0  0  0
  6  1  2  0  0  0
 17  7  1  0  0  0
 29 25  1  0  0  0
 14  9  2  0  0  0
 32 34  1  0  0  0
 33 35  1  0  0  0
 17 18  1  0  0  0
M  END
> <minimizedAffinity>
-10.84550

$$$$



 35 38  0  0  0  0  0  0  0  0999 V2000
   -0.2889   62.9325   85.6222 C   0  0  0  0  0  0  0  0  0  0  0  0
    0.3563   63.7476   86.5635 C   0  0  0  0  0  0  0  0  0  0  0  0
    1.2353   64.7566   86.1596 C   0  0  0  0  0  0  0  0  0  0  0  0
    1.4874   64.9774   84.8058 C   0  0  0  0  0  0  0  0  0  0  0  0
    0.8476   64.1646   83.8614 C   0  0  0  0  0  0  0  0  0  0  0  0
   -0.0405   63.1405   84.2476 C   0  0  0  0  0  0  0  0  0  0  0  0
   -0.6627   62.3310   83.1358 C   0  0  0  0  0  0  0  0  0  0  0  0
   -0.1990   62.4395   81.9186 N   0  0  0  0  0  0  0  0  0  0  0  0
   -0.8542   61.6400   80.9817 C   0  0  0  0  0  0  0  0  0  0  0  0
   -0.6247   61.4952   79.6040 C   0  0  0  0  0  0  0  0  0  0  0  0
   -1.4884   60.6100   79.0700 N   0  0  0  0  0  0  0  0  0  0  0  0
   -2.2450   60.2127   80.1237 N   0  0  0  0  0  0  0  0  0  0  0  0
   -3.2974   59.2448   79.9300 C   0  0  0  0  0  0  0  0  0  0  0  0
   -1.8901   60.8120   81.2908 C   0  0  0  0  0  0  0  0  0  0  0  0
   -2.4025   60.6870   82.6043 C   0  0  0  0  0  0  0  0  0  0  0  0
   -3.3288   59.9622   82.9484 O   0  0  0  0  0  0  0  0  0  0  0  0
   -1.7208   61.4963   83.4832 N   0  0  0  0  0  0  0  0  0  0  0  0
   -2.0282   61.4583   84.4461 H   0  0  0  0  0  0  0  0  0  0  0  0
    0.3983   62.1710   78.7609 C   0  0  0  0  0  0  0  0  0  0  0  0
   -0.2197   62.9151   77.5870 C   0  0  0  0  0  0  0  0  0  0  0  0
   -1.1592   61.9292   85.9708 O   0  0  0  0  0  0  0  0  0  0  0  0
   -2.9451   63.0090   87.1165 C   0  0  0  0  0  0  0  0  0  0  0  0
   -1.8116   62.0064   87.2399 C   0  0  0  0  0  0  0  0  0  0  0  0
    2.4464   66.0564   84.3659 C   0  0  0  0  0  0  0  0  0  0  0  0
    1.7464   67.2233   83.6628 C   0  0  0  0  0  0  0  0  0  0  0  0
    2.6792   68.3630   83.2590 C   0  0  0  0  0  0  0  0  0  0  0  0
    1.8411   69.1495   82.2612 C   0  0  0  0  0  0  0  0  0  0  0  0
    1.0610   68.0885   81.4745 C   0  0  0  0  0  0  0  0  0  0  0  0
    1.1191   66.8087   82.3266 C   0  0  0  0  0  0  0  0  0  0  0  0
    1.6272   67.8426   80.0823 C   0  0  0  0  0  0  0  0  0  0  0  0
    2.0555   68.7186   79.3352 O   0  0  0  0  0  0  0  0  0  0  0  0
    1.6256   66.5141   79.7109 N   0  0  0  0  0  0  0  0  0  0  0  0
    2.0183   66.2750   78.3707 O   0  0  0  0  0  0  0  0  0  0  0  0
    0.9539   65.8586   80.0960 H   0  0  0  0  0  0  0  0  0  0  0  0
    2.2567   67.1761   78.0567 H   0  0  0  0  0  0  0  0  0  0  0  0
 22 23  1  0  0  0
 23 21  1  0  0  0
 21  1  1  0  0  0
  1  2  1  0  0  0
  2  3  2  0  0  0
  3  4  1  0  0  0
  4 24  1  0  0  0
 24 25  1  0  0  0
 25 26  1  0  0  0
 26 27  1  0  0  0
 27 28  1  0  0  0
 28 30  1  0  0  0
 30 31  2  0  0  0
 30 32  1  0  0  0
 32 33  1  0  0  0
 28 29  1  0  0  0
  4  5  2  0  0  0
  5  6  1  0  0  0
  6  7  1  0  0  0
  7  8  2  0  0  0
  8  9  1  0  0  0
  9 10  1  0  0  0
 10 19  1  0  0  0
 19 20  1  0  0  0
 10 11  2  0  0  0
 11 12  1  0  0  0
 12 13  1  0  0  0
 12 14  1  0  0  0
 14 15  1  0  0  0
 15 16  2  0  0  0
 15 17  1  0  0  0
  6  1  2  0  0  0
 17  7  1  0  0  0
 29 25  1  0  0  0
 14  9  2  0  0  0
 32 34  1  0  0  0
 33 35  1  0  0  0
 17 18  1  0  0  0
M  END
> <minimizedAffinity>
-10.81788

$$$$



 35 38  0  0  0  0  0  0  0  0999 V2000
    0.1227   63.8175   85.1526 C   0  0  0  0  0  0  0  0  0  0  0  0
   -0.5995   62.6174   85.2225 C   0  0  0  0  0  0  0  0  0  0  0  0
   -0.7217   61.7848   84.1064 C   0  0  0  0  0  0  0  0  0  0  0  0
   -0.1219   62.1296   82.8955 C   0  0  0  0  0  0  0  0  0  0  0  0
    0.5987   63.3283   82.8192 C   0  0  0  0  0  0  0  0  0  0  0  0
    0.7321   64.1830   83.9321 C   0  0  0  0  0  0  0  0  0  0  0  0
    1.5291   65.4474   83.7211 C   0  0  0  0  0  0  0  0  0  0  0  0
    2.6939   65.5822   84.2985 N   0  0  0  0  0  0  0  0  0  0  0  0
    3.3332   66.7917   84.0249 C   0  0  0  0  0  0  0  0  0  0  0  0
    4.5798   67.2697   84.4600 C   0  0  0  0  0  0  0  0  0  0  0  0
    4.8201   68.4952   83.9547 N   0  0  0  0  0  0  0  0  0  0  0  0
    3.7194   68.7646   83.2088 N   0  0  0  0  0  0  0  0  0  0  0  0
    3.6194   70.0171   82.4995 C   0  0  0  0  0  0  0  0  0  0  0  0
    2.8039   67.7603   83.2276 C   0  0  0  0  0  0  0  0  0  0  0  0
    1.5430   67.6272   82.5983 C   0  0  0  0  0  0  0  0  0  0  0  0
    1.0116   68.4579   81.8707 O   0  0  0  0  0  0  0  0  0  0  0  0
    0.9600   66.4191   82.9031 N   0  0  0  0  0  0  0  0  0  0  0  0
    0.0549   66.2488   82.4849 H   0  0  0  0  0  0  0  0  0  0  0  0
    5.5688   66.5997   85.3473 C   0  0  0  0  0  0  0  0  0  0  0  0
    6.9312   66.4528   84.6872 C   0  0  0  0  0  0  0  0  0  0  0  0
    0.2694   64.6674   86.2210 O   0  0  0  0  0  0  0  0  0  0  0  0
    1.1555   63.5424   88.1230 C   0  0  0  0  0  0  0  0  0  0  0  0
   -0.0795   64.1897   87.5219 C   0  0  0  0  0  0  0  0  0  0  0  0
   -0.2629   61.2404   81.6842 C   0  0  0  0  0  0  0  0  0  0  0  0
   -0.9761   61.9323   80.5187 C   0  0  0  0  0  0  0  0  0  0  0  0
   -0.4006   61.5985   79.1441 C   0  0  0  0  0  0  0  0  0  0  0  0
   -1.4997   62.0571   78.1962 C   0  0  0  0  0  0  0  0  0  0  0  0
   -2.8114   61.7067   78.9100 C   0  0  0  0  0  0  0  0  0  0  0  0
   -2.4404   61.4965   80.3884 C   0  0  0  0  0  0  0  0  0  0  0  0
   -3.4897   60.4694   78.3372 C   0  0  0  0  0  0  0  0  0  0  0  0
   -3.3746   60.0806   77.1776 O   0  0  0  0  0  0  0  0  0  0  0  0
   -4.2691   59.7920   79.2518 N   0  0  0  0  0  0  0  0  0  0  0  0
   -5.0184   58.7188   78.7093 O   0  0  0  0  0  0  0  0  0  0  0  0
   -4.6917   60.2684   80.0415 H   0  0  0  0  0  0  0  0  0  0  0  0
   -4.7212   58.7065   77.7718 H   0  0  0  0  0  0  0  0  0  0  0  0
 22 23  1  0  0  0
 23 21  1  0  0  0
 21  1  1  0  0  0
  1  2  1  0  0  0
  2  3  2  0  0  0
  3  4  1  0  0  0
  4 24  1  0  0  0
 24 25  1  0  0  0
 25 26  1  0  0  0
 26 27  1  0  0  0
 27 28  1  0  0  0
 28 30  1  0  0  0
 30 31  2  0  0  0
 30 32  1  0  0  0
 32 33  1  0  0  0
 28 29  1  0  0  0
  4  5  2  0  0  0
  5  6  1  0  0  0
  6  7  1  0  0  0
  7  8  2  0  0  0
  8  9  1  0  0  0
  9 10  1  0  0  0
 10 19  1  0  0  0
 19 20  1  0  0  0
 10 11  2  0  0  0
 11 12  1  0  0  0
 12 13  1  0  0  0
 12 14  1  0  0  0
 14 15  1  0  0  0
 15 16  2  0  0  0
 15 17  1  0  0  0
  6  1  2  0  0  0
 17  7  1  0  0  0
 29 25  1  0  0  0
 14  9  2  0  0  0
 32 34  1  0  0  0
 33 35  1  0  0  0
 17 18  1  0  0  0
M  END
> <minimizedAffinity>
-10.75497

$$$$



 35 38  0  0  0  0  0  0  0  0999 V2000
   -0.2715   63.7196   85.6443 C   0  0  0  0  0  0  0  0  0  0  0  0
   -1.3775   62.8599   85.5780 C   0  0  0  0  0  0  0  0  0  0  0  0
   -2.0411   62.6325   84.3690 C   0  0  0  0  0  0  0  0  0  0  0  0
   -1.6128   63.2556   83.1970 C   0  0  0  0  0  0  0  0  0  0  0  0
   -0.5101   64.1171   83.2577 C   0  0  0  0  0  0  0  0  0  0  0  0
    0.1715   64.3617   84.4670 C   0  0  0  0  0  0  0  0  0  0  0  0
    1.3413   65.3135   84.4025 C   0  0  0  0  0  0  0  0  0  0  0  0
    1.2617   66.3876   83.6620 N   0  0  0  0  0  0  0  0  0  0  0  0
    2.4043   67.1877   83.6871 C   0  0  0  0  0  0  0  0  0  0  0  0
    2.6688   68.4004   83.0306 C   0  0  0  0  0  0  0  0  0  0  0  0
    3.9039   68.8444   83.3347 N   0  0  0  0  0  0  0  0  0  0  0  0
    4.3930   67.9021   84.1793 N   0  0  0  0  0  0  0  0  0  0  0  0
    5.7207   68.0447   84.7257 C   0  0  0  0  0  0  0  0  0  0  0  0
    3.5164   66.8905   84.4145 C   0  0  0  0  0  0  0  0  0  0  0  0
    3.6157   65.7299   85.2187 C   0  0  0  0  0  0  0  0  0  0  0  0
    4.5842   65.4054   85.8958 O   0  0  0  0  0  0  0  0  0  0  0  0
    2.4638   64.9807   85.1550 N   0  0  0  0  0  0  0  0  0  0  0  0
    2.4576   64.1345   85.7091 H   0  0  0  0  0  0  0  0  0  0  0  0
    1.7830   69.1685   82.1144 C   0  0  0  0  0  0  0  0  0  0  0  0
    2.0581   68.8599   80.6506 C   0  0  0  0  0  0  0  0  0  0  0  0
    0.4112   63.9744   86.8081 O   0  0  0  0  0  0  0  0  0  0  0  0
    0.4806   62.8446   88.9025 C   0  0  0  0  0  0  0  0  0  0  0  0
   -0.2859   63.8385   88.0481 C   0  0  0  0  0  0  0  0  0  0  0  0
   -2.3348   63.0237   81.8922 C   0  0  0  0  0  0  0  0  0  0  0  0
   -2.2562   61.5689   81.4197 C   0  0  0  0  0  0  0  0  0  0  0  0
   -3.6041   60.8531   81.3662 C   0  0  0  0  0  0  0  0  0  0  0  0
   -3.3051   59.6312   80.5093 C   0  0  0  0  0  0  0  0  0  0  0  0
   -2.3249   60.1274   79.4387 C   0  0  0  0  0  0  0  0  0  0  0  0
   -1.7514   61.4498   79.9768 C   0  0  0  0  0  0  0  0  0  0  0  0
   -2.9799   60.3305   78.0790 C   0  0  0  0  0  0  0  0  0  0  0  0
   -2.8890   59.5511   77.1339 O   0  0  0  0  0  0  0  0  0  0  0  0
   -3.7119   61.4960   77.9858 N   0  0  0  0  0  0  0  0  0  0  0  0
   -4.2158   61.7752   76.6914 O   0  0  0  0  0  0  0  0  0  0  0  0
   -3.4910   62.3057   78.5558 H   0  0  0  0  0  0  0  0  0  0  0  0
   -3.9375   60.9819   76.1809 H   0  0  0  0  0  0  0  0  0  0  0  0
 22 23  1  0  0  0
 23 21  1  0  0  0
 21  1  1  0  0  0
  1  2  1  0  0  0
  2  3  2  0  0  0
  3  4  1  0  0  0
  4 24  1  0  0  0
 24 25  1  0  0  0
 25 26  1  0  0  0
 26 27  1  0  0  0
 27 28  1  0  0  0
 28 30  1  0  0  0
 30 31  2  0  0  0
 30 32  1  0  0  0
 32 33  1  0  0  0
 28 29  1  0  0  0
  4  5  2  0  0  0
  5  6  1  0  0  0
  6  7  1  0  0  0
  7  8  2  0  0  0
  8  9  1  0  0  0
  9 10  1  0  0  0
 10 19  1  0  0  0
 19 20  1  0  0  0
 10 11  2  0  0  0
 11 12  1  0  0  0
 12 13  1  0  0  0
 12 14  1  0  0  0
 14 15  1  0  0  0
 15 16  2  0  0  0
 15 17  1  0  0  0
  6  1  2  0  0  0
 17  7  1  0  0  0
 29 25  1  0  0  0
 14  9  2  0  0  0
 32 34  1  0  0  0
 33 35  1  0  0  0
 17 18  1  0  0  0
M  END
> <minimizedAffinity>
-10.74579

$$$$



 35 38  0  0  0  0  0  0  0  0999 V2000
   -0.3592   63.3570   85.1537 C   0  0  0  0  0  0  0  0  0  0  0  0
    0.3413   64.1913   86.0368 C   0  0  0  0  0  0  0  0  0  0  0  0
    1.2564   65.1352   85.5623 C   0  0  0  0  0  0  0  0  0  0  0  0
    1.4903   65.2706   84.1941 C   0  0  0  0  0  0  0  0  0  0  0  0
    0.7953   64.4383   83.3074 C   0  0  0  0  0  0  0  0  0  0  0  0
   -0.1300   63.4787   83.7654 C   0  0  0  0  0  0  0  0  0  0  0  0
   -0.8107   62.6397   82.7112 C   0  0  0  0  0  0  0  0  0  0  0  0
   -0.6861   62.9591   81.4499 N   0  0  0  0  0  0  0  0  0  0  0  0
   -1.3585   62.1072   80.5734 C   0  0  0  0  0  0  0  0  0  0  0  0
   -1.4395   62.1387   79.1718 C   0  0  0  0  0  0  0  0  0  0  0  0
   -2.1945   61.1196   78.7176 N   0  0  0  0  0  0  0  0  0  0  0  0
   -2.5733   60.4642   79.8435 N   0  0  0  0  0  0  0  0  0  0  0  0
   -3.4077   59.2910   79.7473 C   0  0  0  0  0  0  0  0  0  0  0  0
   -2.0872   61.0308   80.9792 C   0  0  0  0  0  0  0  0  0  0  0  0
   -2.2312   60.6756   82.3418 C   0  0  0  0  0  0  0  0  0  0  0  0
   -2.8700   59.7225   82.7724 O   0  0  0  0  0  0  0  0  0  0  0  0
   -1.5497   61.5483   83.1579 N   0  0  0  0  0  0  0  0  0  0  0  0
   -1.6024   61.3562   84.1496 H   0  0  0  0  0  0  0  0  0  0  0  0
   -0.8180   63.1098   78.2312 C   0  0  0  0  0  0  0  0  0  0  0  0
    0.6906   62.9398   78.1377 C   0  0  0  0  0  0  0  0  0  0  0  0
   -1.2665   62.4153   85.5725 O   0  0  0  0  0  0  0  0  0  0  0  0
   -2.7728   62.9471   87.3378 C   0  0  0  0  0  0  0  0  0  0  0  0
   -1.4737   62.2491   86.9766 C   0  0  0  0  0  0  0  0  0  0  0  0
    2.4877   66.2789   83.6782 C   0  0  0  0  0  0  0  0  0  0  0  0
    1.8551   67.6413   83.3788 C   0  0  0  0  0  0  0  0  0  0  0  0
    2.7852   68.8297   83.6125 C   0  0  0  0  0  0  0  0  0  0  0  0
    2.0821   69.9604   82.8750 C   0  0  0  0  0  0  0  0  0  0  0  0
    1.4907   69.3078   81.6190 C   0  0  0  0  0  0  0  0  0  0  0  0
    1.4719   67.7956   81.9022 C   0  0  0  0  0  0  0  0  0  0  0  0
    2.2849   69.6161   80.3567 C   0  0  0  0  0  0  0  0  0  0  0  0
    2.1554   69.0279   79.2861 O   0  0  0  0  0  0  0  0  0  0  0  0
    3.1913   70.6445   80.5105 N   0  0  0  0  0  0  0  0  0  0  0  0
    4.0371   70.8583   79.3941 O   0  0  0  0  0  0  0  0  0  0  0  0
    3.5942   70.8629   81.4156 H   0  0  0  0  0  0  0  0  0  0  0  0
    3.6928   70.2085   78.7409 H   0  0  0  0  0  0  0  0  0  0  0  0
 22 23  1  0  0  0
 23 21  1  0  0  0
 21  1  1  0  0  0
  1  2  1  0  0  0
  2  3  2  0  0  0
  3  4  1  0  0  0
  4 24  1  0  0  0
 24 25  1  0  0  0
 25 26  1  0  0  0
 26 27  1  0  0  0
 27 28  1  0  0  0
 28 30  1  0  0  0
 30 31  2  0  0  0
 30 32  1  0  0  0
 32 33  1  0  0  0
 28 29  1  0  0  0
  4  5  2  0  0  0
  5  6  1  0  0  0
  6  7  1  0  0  0
  7  8  2  0  0  0
  8  9  1  0  0  0
  9 10  1  0  0  0
 10 19  1  0  0  0
 19 20  1  0  0  0
 10 11  2  0  0  0
 11 12  1  0  0  0
 12 13  1  0  0  0
 12 14  1  0  0  0
 14 15  1  0  0  0
 15 16  2  0  0  0
 15 17  1  0  0  0
  6  1  2  0  0  0
 17  7  1  0  0  0
 29 25  1  0  0  0
 14  9  2  0  0  0
 32 34  1  0  0  0
 33 35  1  0  0  0
 17 18  1  0  0  0
M  END
> <minimizedAffinity>
-10.72948

$$$$
