


 43 46  0  0  0  0  0  0  0  0999 V2000
    3.8550   66.8637   84.7078 C   0  0  0  0  0  0  0  0  0  0  0  0
    4.6348   67.9405   84.2576 C   0  0  0  0  0  0  0  0  0  0  0  0
    4.1477   68.8271   83.2926 C   0  0  0  0  0  0  0  0  0  0  0  0
    2.8809   68.6259   82.7528 C   0  0  0  0  0  0  0  0  0  0  0  0
    2.0950   67.5525   83.1709 C   0  0  0  0  0  0  0  0  0  0  0  0
    2.5668   66.6691   84.1572 C   0  0  0  0  0  0  0  0  0  0  0  0
    1.6209   65.5803   84.5837 C   0  0  0  0  0  0  0  0  0  0  0  0
    0.8570   65.0147   83.6918 N   0  0  0  0  0  0  0  0  0  0  0  0
    0.0115   64.0245   84.1913 C   0  0  0  0  0  0  0  0  0  0  0  0
   -0.9254   63.2745   83.4545 C   0  0  0  0  0  0  0  0  0  0  0  0
   -1.5708   62.4402   84.3783 C   0  0  0  0  0  0  0  0  0  0  0  0
   -0.9734   62.6706   85.6191 N   0  0  0  0  0  0  0  0  0  0  0  0
   -0.0326   63.6632   85.5052 C   0  0  0  0  0  0  0  0  0  0  0  0
    0.7970   64.2902   86.4845 C   0  0  0  0  0  0  0  0  0  0  0  0
    0.7955   64.0584   87.6888 O   0  0  0  0  0  0  0  0  0  0  0  0
    1.6222   65.2366   85.9263 N   0  0  0  0  0  0  0  0  0  0  0  0
    2.2124   65.7436   86.5719 H   0  0  0  0  0  0  0  0  0  0  0  0
   -2.6586   61.5067   84.1600 C   0  0  0  0  0  0  0  0  0  0  0  0
   -2.6300   60.6220   83.2137 N   0  0  0  0  0  0  0  0  0  0  0  0
   -3.8141   59.8735   83.2434 O   0  0  0  0  0  0  0  0  0  0  0  0
   -3.6796   59.2468   82.5076 H   0  0  0  0  0  0  0  0  0  0  0  0
   -1.2822   61.9681   86.8573 C   0  0  0  0  0  0  0  0  0  0  0  0
   -2.3716   62.6602   87.6570 C   0  0  0  0  0  0  0  0  0  0  0  0
   -1.1598   63.4005   81.9794 C   0  0  0  0  0  0  0  0  0  0  0  0
   -0.1305   62.6211   81.1591 C   0  0  0  0  0  0  0  0  0  0  0  0
   -0.8026   61.6995   80.1541 C   0  0  0  0  0  0  0  0  0  0  0  0
    2.2373   69.7684   81.5550 S   0  0  0  0  0  0  0  0  0  0  0  0
    3.3774   70.3250   80.8611 O   0  0  0  0  0  0  0  0  0  0  0  0
    1.2689   70.6140   82.2218 O   0  0  0  0  0  0  0  0  0  0  0  0
    1.3767   68.7639   80.4826 N   0  0  0  0  0  0  0  0  0  0  0  0
    2.0869   67.5593   79.9711 C   0  0  0  0  0  0  0  0  0  0  0  0
    1.3849   66.2679   80.3743 C   0  0  0  0  0  0  0  0  0  0  0  0
   -0.0685   66.2090   79.8705 C   0  0  0  0  0  0  0  0  0  0  0  0
   -0.6996   67.6150   79.8481 C   0  0  0  0  0  0  0  0  0  0  0  0
   -0.0426   68.5443   80.8609 C   0  0  0  0  0  0  0  0  0  0  0  0
   -0.2109   65.5595   78.4765 C   0  0  0  0  0  0  0  0  0  0  0  0
    0.8477   64.5106   78.1462 C   0  0  0  0  0  0  0  0  0  0  0  0
    0.3668   63.6366   77.1365 O   0  0  0  0  0  0  0  0  0  0  0  0
    1.0865   63.0169   76.9267 H   0  0  0  0  0  0  0  0  0  0  0  0
    4.2713   65.9701   85.6602 O   0  0  0  0  0  0  0  0  0  0  0  0
    5.4336   65.1688   85.4356 C   0  0  0  0  0  0  0  0  0  0  0  0
    7.8070   65.9167   84.9605 C   0  0  0  0  0  0  0  0  0  0  0  0
    6.6900   65.8365   85.9921 C   0  0  0  0  0  0  0  0  0  0  0  0
 42 43  1  0  0  0
 43 41  1  0  0  0
 41 40  1  0  0  0
 40  1  1  0  0  0
  1  2  1  0  0  0
  2  3  2  0  0  0
  3  4  1  0  0  0
  4 27  1  0  0  0
 27 28  2  0  0  0
 27 29  2  0  0  0
 27 30  1  0  0  0
 30 31  1  0  0  0
 31 32  1  0  0  0
 32 33  1  0  0  0
 33 36  1  0  0  0
 36 37  1  0  0  0
 37 38  1  0  0  0
 33 34  1  0  0  0
 34 35  1  0  0  0
  4  5  2  0  0  0
  5  6  1  0  0  0
  6  7  1  0  0  0
  7  8  2  0  0  0
  8  9  1  0  0  0
  9 10  1  0  0  0
 10 24  1  0  0  0
 24 25  1  0  0  0
 25 26  1  0  0  0
 10 11  2  0  0  0
 11 18  1  0  0  0
 18 19  2  0  0  0
 19 20  1  0  0  0
 11 12  1  0  0  0
 12 22  1  0  0  0
 22 23  1  0  0  0
 12 13  1  0  0  0
 13 14  1  0  0  0
 14 15  2  0  0  0
 14 16  1  0  0  0
  6  1  2  0  0  0
 16  7  1  0  0  0
 35 30  1  0  0  0
 13  9  2  0  0  0
 38 39  1  0  0  0
 20 21  1  0  0  0
 16 17  1  0  0  0
M  END
> <minimizedAffinity>
-10.65324

$$$$



 43 46  0  0  0  0  0  0  0  0999 V2000
    3.8503   66.8800   84.6188 C   0  0  0  0  0  0  0  0  0  0  0  0
    4.6464   67.9572   84.1993 C   0  0  0  0  0  0  0  0  0  0  0  0
    4.1618   68.8956   83.2832 C   0  0  0  0  0  0  0  0  0  0  0  0
    2.8804   68.7468   82.7612 C   0  0  0  0  0  0  0  0  0  0  0  0
    2.0777   67.6745   83.1489 C   0  0  0  0  0  0  0  0  0  0  0  0
    2.5475   66.7387   84.0867 C   0  0  0  0  0  0  0  0  0  0  0  0
    1.5846   65.6544   84.4854 C   0  0  0  0  0  0  0  0  0  0  0  0
    0.8538   65.0831   83.5697 N   0  0  0  0  0  0  0  0  0  0  0  0
   -0.0114   64.0978   84.0444 C   0  0  0  0  0  0  0  0  0  0  0  0
   -0.9211   63.3435   83.2785 C   0  0  0  0  0  0  0  0  0  0  0  0
   -1.6020   62.5169   84.1835 C   0  0  0  0  0  0  0  0  0  0  0  0
   -1.0512   62.7557   85.4441 N   0  0  0  0  0  0  0  0  0  0  0  0
   -0.1053   63.7463   85.3583 C   0  0  0  0  0  0  0  0  0  0  0  0
    0.6880   64.3795   86.3634 C   0  0  0  0  0  0  0  0  0  0  0  0
    0.6410   64.1566   87.5684 O   0  0  0  0  0  0  0  0  0  0  0  0
    1.5350   65.3206   85.8296 N   0  0  0  0  0  0  0  0  0  0  0  0
    2.1013   65.8316   86.4932 H   0  0  0  0  0  0  0  0  0  0  0  0
   -2.6824   61.5832   83.9314 C   0  0  0  0  0  0  0  0  0  0  0  0
   -2.5231   60.5230   83.2037 N   0  0  0  0  0  0  0  0  0  0  0  0
   -3.7350   59.8233   83.1330 O   0  0  0  0  0  0  0  0  0  0  0  0
   -3.4975   59.0563   82.5785 H   0  0  0  0  0  0  0  0  0  0  0  0
   -1.4074   62.0628   86.6750 C   0  0  0  0  0  0  0  0  0  0  0  0
   -2.5417   62.7484   87.4155 C   0  0  0  0  0  0  0  0  0  0  0  0
   -1.0999   63.4589   81.7947 C   0  0  0  0  0  0  0  0  0  0  0  0
    0.1101   62.9320   81.0213 C   0  0  0  0  0  0  0  0  0  0  0  0
    0.4932   61.5322   81.4742 C   0  0  0  0  0  0  0  0  0  0  0  0
    2.2410   69.9543   81.6267 S   0  0  0  0  0  0  0  0  0  0  0  0
    0.8039   69.9521   81.7878 O   0  0  0  0  0  0  0  0  0  0  0  0
    2.8595   69.7253   80.3373 O   0  0  0  0  0  0  0  0  0  0  0  0
    2.8604   71.4213   82.2302 N   0  0  0  0  0  0  0  0  0  0  0  0
    3.8529   72.1343   81.3797 C   0  0  0  0  0  0  0  0  0  0  0  0
    3.3607   73.5152   80.9626 C   0  0  0  0  0  0  0  0  0  0  0  0
    3.0422   74.4136   82.1713 C   0  0  0  0  0  0  0  0  0  0  0  0
    2.5065   73.5784   83.3507 C   0  0  0  0  0  0  0  0  0  0  0  0
    1.8442   72.2913   82.8754 C   0  0  0  0  0  0  0  0  0  0  0  0
    4.2455   75.2583   82.6445 C   0  0  0  0  0  0  0  0  0  0  0  0
    4.0424   75.9741   83.9773 C   0  0  0  0  0  0  0  0  0  0  0  0
    4.9890   75.5092   84.9272 O   0  0  0  0  0  0  0  0  0  0  0  0
    4.8530   76.0219   85.7425 H   0  0  0  0  0  0  0  0  0  0  0  0
    4.2638   65.9368   85.5234 O   0  0  0  0  0  0  0  0  0  0  0  0
    5.4281   65.1502   85.2611 C   0  0  0  0  0  0  0  0  0  0  0  0
    7.7951   65.9994   84.9532 C   0  0  0  0  0  0  0  0  0  0  0  0
    6.6649   65.7372   85.9393 C   0  0  0  0  0  0  0  0  0  0  0  0
 42 43  1  0  0  0
 43 41  1  0  0  0
 41 40  1  0  0  0
 40  1  1  0  0  0
  1  2  1  0  0  0
  2  3  2  0  0  0
  3  4  1  0  0  0
  4 27  1  0  0  0
 27 28  2  0  0  0
 27 29  2  0  0  0
 27 30  1  0  0  0
 30 31  1  0  0  0
 31 32  1  0  0  0
 32 33  1  0  0  0
 33 36  1  0  0  0
 36 37  1  0  0  0
 37 38  1  0  0  0
 33 34  1  0  0  0
 34 35  1  0  0  0
  4  5  2  0  0  0
  5  6  1  0  0  0
  6  7  1  0  0  0
  7  8  2  0  0  0
  8  9  1  0  0  0
  9 10  1  0  0  0
 10 24  1  0  0  0
 24 25  1  0  0  0
 25 26  1  0  0  0
 10 11  2  0  0  0
 11 18  1  0  0  0
 18 19  2  0  0  0
 19 20  1  0  0  0
 11 12  1  0  0  0
 12 22  1  0  0  0
 22 23  1  0  0  0
 12 13  1  0  0  0
 13 14  1  0  0  0
 14 15  2  0  0  0
 14 16  1  0  0  0
  6  1  2  0  0  0
 16  7  1  0  0  0
 35 30  1  0  0  0
 13  9  2  0  0  0
 38 39  1  0  0  0
 20 21  1  0  0  0
 16 17  1  0  0  0
M  END
> <minimizedAffinity>
-10.18034

$$$$



 43 46  0  0  0  0  0  0  0  0999 V2000
    3.4919   67.3931   84.1387 C   0  0  0  0  0  0  0  0  0  0  0  0
    4.2127   68.4839   83.6279 C   0  0  0  0  0  0  0  0  0  0  0  0
    3.7306   69.2186   82.5405 C   0  0  0  0  0  0  0  0  0  0  0  0
    2.5306   68.8491   81.9404 C   0  0  0  0  0  0  0  0  0  0  0  0
    1.8060   67.7578   82.4185 C   0  0  0  0  0  0  0  0  0  0  0  0
    2.2710   67.0271   83.5256 C   0  0  0  0  0  0  0  0  0  0  0  0
    1.3880   65.9070   84.0028 C   0  0  0  0  0  0  0  0  0  0  0  0
    0.7025   65.2210   83.1318 N   0  0  0  0  0  0  0  0  0  0  0  0
   -0.0904   64.2119   83.6775 C   0  0  0  0  0  0  0  0  0  0  0  0
   -0.9415   63.3415   82.9695 C   0  0  0  0  0  0  0  0  0  0  0  0
   -1.5630   62.5341   83.9328 C   0  0  0  0  0  0  0  0  0  0  0  0
   -1.0338   62.9008   85.1717 N   0  0  0  0  0  0  0  0  0  0  0  0
   -0.1617   63.9485   85.0134 C   0  0  0  0  0  0  0  0  0  0  0  0
    0.5814   64.7069   85.9688 C   0  0  0  0  0  0  0  0  0  0  0  0
    0.5477   64.5671   87.1868 O   0  0  0  0  0  0  0  0  0  0  0  0
    1.3595   65.6665   85.3674 N   0  0  0  0  0  0  0  0  0  0  0  0
    1.8858   66.2628   85.9915 H   0  0  0  0  0  0  0  0  0  0  0  0
   -2.5725   61.5093   83.7504 C   0  0  0  0  0  0  0  0  0  0  0  0
   -2.3658   60.4584   83.0212 N   0  0  0  0  0  0  0  0  0  0  0  0
   -3.5155   59.6576   83.0262 O   0  0  0  0  0  0  0  0  0  0  0  0
   -3.2461   58.9074   82.4635 H   0  0  0  0  0  0  0  0  0  0  0  0
   -1.3419   62.2729   86.4496 C   0  0  0  0  0  0  0  0  0  0  0  0
   -2.5478   62.9010   87.1252 C   0  0  0  0  0  0  0  0  0  0  0  0
   -1.1246   63.3382   81.4818 C   0  0  0  0  0  0  0  0  0  0  0  0
   -0.0501   62.5177   80.7662 C   0  0  0  0  0  0  0  0  0  0  0  0
   -0.6651   61.4225   79.9098 C   0  0  0  0  0  0  0  0  0  0  0  0
    1.8901   69.7991   80.5834 S   0  0  0  0  0  0  0  0  0  0  0  0
    0.7697   69.0557   80.0513 O   0  0  0  0  0  0  0  0  0  0  0  0
    3.0062   70.1898   79.7473 O   0  0  0  0  0  0  0  0  0  0  0  0
    1.3063   71.2098   81.3377 N   0  0  0  0  0  0  0  0  0  0  0  0
    2.1983   72.4019   81.3197 C   0  0  0  0  0  0  0  0  0  0  0  0
    1.5671   73.5767   80.5817 C   0  0  0  0  0  0  0  0  0  0  0  0
    0.2223   74.0020   81.1985 C   0  0  0  0  0  0  0  0  0  0  0  0
   -0.5276   72.7847   81.7741 C   0  0  0  0  0  0  0  0  0  0  0  0
   -0.1275   71.4926   81.0731 C   0  0  0  0  0  0  0  0  0  0  0  0
    0.3613   75.0841   82.2916 C   0  0  0  0  0  0  0  0  0  0  0  0
   -0.7316   76.1497   82.2821 C   0  0  0  0  0  0  0  0  0  0  0  0
   -1.1948   76.3818   83.6036 O   0  0  0  0  0  0  0  0  0  0  0  0
   -1.8536   77.0958   83.5555 H   0  0  0  0  0  0  0  0  0  0  0  0
    3.9052   66.6438   85.2094 O   0  0  0  0  0  0  0  0  0  0  0  0
    5.2685   66.6906   85.6368 C   0  0  0  0  0  0  0  0  0  0  0  0
    7.4479   65.7508   84.7506 C   0  0  0  0  0  0  0  0  0  0  0  0
    6.0315   65.4367   85.2127 C   0  0  0  0  0  0  0  0  0  0  0  0
 42 43  1  0  0  0
 43 41  1  0  0  0
 41 40  1  0  0  0
 40  1  1  0  0  0
  1  2  1  0  0  0
  2  3  2  0  0  0
  3  4  1  0  0  0
  4 27  1  0  0  0
 27 28  2  0  0  0
 27 29  2  0  0  0
 27 30  1  0  0  0
 30 31  1  0  0  0
 31 32  1  0  0  0
 32 33  1  0  0  0
 33 36  1  0  0  0
 36 37  1  0  0  0
 37 38  1  0  0  0
 33 34  1  0  0  0
 34 35  1  0  0  0
  4  5  2  0  0  0
  5  6  1  0  0  0
  6  7  1  0  0  0
  7  8  2  0  0  0
  8  9  1  0  0  0
  9 10  1  0  0  0
 10 24  1  0  0  0
 24 25  1  0  0  0
 25 26  1  0  0  0
 10 11  2  0  0  0
 11 18  1  0  0  0
 18 19  2  0  0  0
 19 20  1  0  0  0
 11 12  1  0  0  0
 12 22  1  0  0  0
 22 23  1  0  0  0
 12 13  1  0  0  0
 13 14  1  0  0  0
 14 15  2  0  0  0
 14 16  1  0  0  0
  6  1  2  0  0  0
 16  7  1  0  0  0
 35 30  1  0  0  0
 13  9  2  0  0  0
 38 39  1  0  0  0
 20 21  1  0  0  0
 16 17  1  0  0  0
M  END
> <minimizedAffinity>
-10.09741

$$$$



 43 46  0  0  0  0  0  0  0  0999 V2000
    0.0210   63.9505   84.2750 C   0  0  0  0  0  0  0  0  0  0  0  0
    0.5449   64.4751   85.4669 C   0  0  0  0  0  0  0  0  0  0  0  0
    1.3976   65.5830   85.4513 C   0  0  0  0  0  0  0  0  0  0  0  0
    1.7516   66.1595   84.2353 C   0  0  0  0  0  0  0  0  0  0  0  0
    1.2585   65.6445   83.0369 C   0  0  0  0  0  0  0  0  0  0  0  0
    0.3823   64.5454   83.0438 C   0  0  0  0  0  0  0  0  0  0  0  0
   -0.1421   64.1033   81.7053 C   0  0  0  0  0  0  0  0  0  0  0  0
   -1.1438   63.2706   81.6570 N   0  0  0  0  0  0  0  0  0  0  0  0
   -1.5475   62.9176   80.3697 C   0  0  0  0  0  0  0  0  0  0  0  0
   -2.5832   62.0249   80.0329 C   0  0  0  0  0  0  0  0  0  0  0  0
   -2.5931   61.9487   78.6329 C   0  0  0  0  0  0  0  0  0  0  0  0
   -1.6114   62.8281   78.1720 N   0  0  0  0  0  0  0  0  0  0  0  0
   -0.9534   63.3902   79.2371 C   0  0  0  0  0  0  0  0  0  0  0  0
    0.1510   64.2945   79.2900 C   0  0  0  0  0  0  0  0  0  0  0  0
    0.7696   64.7372   78.3281 O   0  0  0  0  0  0  0  0  0  0  0  0
    0.4833   64.6218   80.5825 N   0  0  0  0  0  0  0  0  0  0  0  0
    1.2813   65.2330   80.6917 H   0  0  0  0  0  0  0  0  0  0  0  0
   -3.4233   61.1313   77.7696 C   0  0  0  0  0  0  0  0  0  0  0  0
   -3.4251   59.8374   77.8365 N   0  0  0  0  0  0  0  0  0  0  0  0
   -4.3134   59.3254   76.8816 O   0  0  0  0  0  0  0  0  0  0  0  0
   -4.2393   58.3633   77.0268 H   0  0  0  0  0  0  0  0  0  0  0  0
   -1.3202   63.1244   76.7759 C   0  0  0  0  0  0  0  0  0  0  0  0
   -1.6597   64.5576   76.4072 C   0  0  0  0  0  0  0  0  0  0  0  0
   -3.4564   61.3085   81.0185 C   0  0  0  0  0  0  0  0  0  0  0  0
   -2.6531   60.6896   82.1636 C   0  0  0  0  0  0  0  0  0  0  0  0
   -2.9448   59.2046   82.3084 C   0  0  0  0  0  0  0  0  0  0  0  0
    2.8029   67.5907   84.2068 S   0  0  0  0  0  0  0  0  0  0  0  0
    2.4215   68.4058   85.3388 O   0  0  0  0  0  0  0  0  0  0  0  0
    2.8007   68.1180   82.8580 O   0  0  0  0  0  0  0  0  0  0  0  0
    4.3510   66.9417   84.4926 N   0  0  0  0  0  0  0  0  0  0  0  0
    5.3845   67.8728   85.0237 C   0  0  0  0  0  0  0  0  0  0  0  0
    5.8982   67.4366   86.3908 C   0  0  0  0  0  0  0  0  0  0  0  0
    6.5051   66.0222   86.3649 C   0  0  0  0  0  0  0  0  0  0  0  0
    5.7730   65.1288   85.3443 C   0  0  0  0  0  0  0  0  0  0  0  0
    4.3403   65.5928   85.1142 C   0  0  0  0  0  0  0  0  0  0  0  0
    8.0204   66.0079   86.0665 C   0  0  0  0  0  0  0  0  0  0  0  0
    8.3834   65.7966   84.5990 C   0  0  0  0  0  0  0  0  0  0  0  0
    8.6401   67.0465   83.9775 O   0  0  0  0  0  0  0  0  0  0  0  0
    8.9102   66.8615   83.0616 H   0  0  0  0  0  0  0  0  0  0  0  0
   -0.8294   62.8766   84.2269 O   0  0  0  0  0  0  0  0  0  0  0  0
   -1.2235   62.2164   85.4319 C   0  0  0  0  0  0  0  0  0  0  0  0
   -2.7472   62.9759   87.3081 C   0  0  0  0  0  0  0  0  0  0  0  0
   -2.6472   62.5944   85.8374 C   0  0  0  0  0  0  0  0  0  0  0  0
 42 43  1  0  0  0
 43 41  1  0  0  0
 41 40  1  0  0  0
 40  1  1  0  0  0
  1  2  1  0  0  0
  2  3  2  0  0  0
  3  4  1  0  0  0
  4 27  1  0  0  0
 27 28  2  0  0  0
 27 29  2  0  0  0
 27 30  1  0  0  0
 30 31  1  0  0  0
 31 32  1  0  0  0
 32 33  1  0  0  0
 33 36  1  0  0  0
 36 37  1  0  0  0
 37 38  1  0  0  0
 33 34  1  0  0  0
 34 35  1  0  0  0
  4  5  2  0  0  0
  5  6  1  0  0  0
  6  7  1  0  0  0
  7  8  2  0  0  0
  8  9  1  0  0  0
  9 10  1  0  0  0
 10 24  1  0  0  0
 24 25  1  0  0  0
 25 26  1  0  0  0
 10 11  2  0  0  0
 11 18  1  0  0  0
 18 19  2  0  0  0
 19 20  1  0  0  0
 11 12  1  0  0  0
 12 22  1  0  0  0
 22 23  1  0  0  0
 12 13  1  0  0  0
 13 14  1  0  0  0
 14 15  2  0  0  0
 14 16  1  0  0  0
  6  1  2  0  0  0
 16  7  1  0  0  0
 35 30  1  0  0  0
 13  9  2  0  0  0
 38 39  1  0  0  0
 20 21  1  0  0  0
 16 17  1  0  0  0
M  END
> <minimizedAffinity>
-9.23226

$$$$



 43 46  0  0  0  0  0  0  0  0999 V2000
    1.3736   65.8355   83.4940 C   0  0  0  0  0  0  0  0  0  0  0  0
    2.0885   67.0030   83.8041 C   0  0  0  0  0  0  0  0  0  0  0  0
    2.0805   68.1021   82.9401 C   0  0  0  0  0  0  0  0  0  0  0  0
    1.3731   68.0294   81.7438 C   0  0  0  0  0  0  0  0  0  0  0  0
    0.6704   66.8735   81.4054 C   0  0  0  0  0  0  0  0  0  0  0  0
    0.6536   65.7718   82.2783 C   0  0  0  0  0  0  0  0  0  0  0  0
   -0.1823   64.5967   81.8515 C   0  0  0  0  0  0  0  0  0  0  0  0
   -0.0407   64.1178   80.6475 N   0  0  0  0  0  0  0  0  0  0  0  0
   -0.8677   63.0354   80.3491 C   0  0  0  0  0  0  0  0  0  0  0  0
   -0.9340   62.3463   79.1228 C   0  0  0  0  0  0  0  0  0  0  0  0
   -1.9309   61.3722   79.2757 C   0  0  0  0  0  0  0  0  0  0  0  0
   -2.3916   61.4665   80.5904 N   0  0  0  0  0  0  0  0  0  0  0  0
   -1.7637   62.5059   81.2298 C   0  0  0  0  0  0  0  0  0  0  0  0
   -1.9265   63.0371   82.5457 C   0  0  0  0  0  0  0  0  0  0  0  0
   -2.7321   62.6519   83.3863 O   0  0  0  0  0  0  0  0  0  0  0  0
   -1.0680   64.0829   82.7855 N   0  0  0  0  0  0  0  0  0  0  0  0
   -1.1560   64.5277   83.6892 H   0  0  0  0  0  0  0  0  0  0  0  0
   -2.4409   60.4278   78.3007 C   0  0  0  0  0  0  0  0  0  0  0  0
   -3.4898   60.6762   77.5819 N   0  0  0  0  0  0  0  0  0  0  0  0
   -3.7449   59.5842   76.7418 O   0  0  0  0  0  0  0  0  0  0  0  0
   -4.5350   59.8814   76.2523 H   0  0  0  0  0  0  0  0  0  0  0  0
   -3.3822   60.5972   81.2108 C   0  0  0  0  0  0  0  0  0  0  0  0
   -2.7459   59.5124   82.0614 C   0  0  0  0  0  0  0  0  0  0  0  0
   -0.0961   62.6512   77.9178 C   0  0  0  0  0  0  0  0  0  0  0  0
   -0.8764   63.4137   76.8457 C   0  0  0  0  0  0  0  0  0  0  0  0
   -0.8624   64.9113   77.1072 C   0  0  0  0  0  0  0  0  0  0  0  0
    1.3246   69.4336   80.6575 S   0  0  0  0  0  0  0  0  0  0  0  0
   -0.0720   69.7289   80.4264 O   0  0  0  0  0  0  0  0  0  0  0  0
    2.2372   69.1807   79.5618 O   0  0  0  0  0  0  0  0  0  0  0  0
    2.0017   70.6789   81.6012 N   0  0  0  0  0  0  0  0  0  0  0  0
    3.3371   71.1895   81.1851 C   0  0  0  0  0  0  0  0  0  0  0  0
    3.2949   72.6688   80.8201 C   0  0  0  0  0  0  0  0  0  0  0  0
    2.7951   73.5452   81.9827 C   0  0  0  0  0  0  0  0  0  0  0  0
    1.7524   72.7908   82.8307 C   0  0  0  0  0  0  0  0  0  0  0  0
    1.0309   71.7227   82.0185 C   0  0  0  0  0  0  0  0  0  0  0  0
    3.9283   74.0582   82.8982 C   0  0  0  0  0  0  0  0  0  0  0  0
    3.4617   74.8752   84.1002 C   0  0  0  0  0  0  0  0  0  0  0  0
    4.5824   75.3234   84.8470 O   0  0  0  0  0  0  0  0  0  0  0  0
    4.2420   75.8743   85.5727 H   0  0  0  0  0  0  0  0  0  0  0  0
    1.3317   64.7321   84.3061 O   0  0  0  0  0  0  0  0  0  0  0  0
    0.7877   64.8292   85.6243 C   0  0  0  0  0  0  0  0  0  0  0  0
   -0.9048   63.6053   87.0583 C   0  0  0  0  0  0  0  0  0  0  0  0
    0.2925   63.4740   86.1269 C   0  0  0  0  0  0  0  0  0  0  0  0
 42 43  1  0  0  0
 43 41  1  0  0  0
 41 40  1  0  0  0
 40  1  1  0  0  0
  1  2  1  0  0  0
  2  3  2  0  0  0
  3  4  1  0  0  0
  4 27  1  0  0  0
 27 28  2  0  0  0
 27 29  2  0  0  0
 27 30  1  0  0  0
 30 31  1  0  0  0
 31 32  1  0  0  0
 32 33  1  0  0  0
 33 36  1  0  0  0
 36 37  1  0  0  0
 37 38  1  0  0  0
 33 34  1  0  0  0
 34 35  1  0  0  0
  4  5  2  0  0  0
  5  6  1  0  0  0
  6  7  1  0  0  0
  7  8  2  0  0  0
  8  9  1  0  0  0
  9 10  1  0  0  0
 10 24  1  0  0  0
 24 25  1  0  0  0
 25 26  1  0  0  0
 10 11  2  0  0  0
 11 18  1  0  0  0
 18 19  2  0  0  0
 19 20  1  0  0  0
 11 12  1  0  0  0
 12 22  1  0  0  0
 22 23  1  0  0  0
 12 13  1  0  0  0
 13 14  1  0  0  0
 14 15  2  0  0  0
 14 16  1  0  0  0
  6  1  2  0  0  0
 16  7  1  0  0  0
 35 30  1  0  0  0
 13  9  2  0  0  0
 38 39  1  0  0  0
 20 21  1  0  0  0
 16 17  1  0  0  0
M  END
> <minimizedAffinity>
-9.17827

$$$$



 43 46  0  0  0  0  0  0  0  0999 V2000
    1.2252   66.1656   83.1634 C   0  0  0  0  0  0  0  0  0  0  0  0
    1.8448   67.2434   83.8150 C   0  0  0  0  0  0  0  0  0  0  0  0
    2.3228   68.3414   83.0935 C   0  0  0  0  0  0  0  0  0  0  0  0
    2.2043   68.3557   81.7070 C   0  0  0  0  0  0  0  0  0  0  0  0
    1.6091   67.2881   81.0358 C   0  0  0  0  0  0  0  0  0  0  0  0
    1.1049   66.1902   81.7544 C   0  0  0  0  0  0  0  0  0  0  0  0
    0.4271   65.1190   80.9450 C   0  0  0  0  0  0  0  0  0  0  0  0
    0.0571   64.0154   81.5317 N   0  0  0  0  0  0  0  0  0  0  0  0
   -0.5534   63.0845   80.6918 C   0  0  0  0  0  0  0  0  0  0  0  0
   -1.0262   61.8099   81.0591 C   0  0  0  0  0  0  0  0  0  0  0  0
   -1.5144   61.2210   79.8840 C   0  0  0  0  0  0  0  0  0  0  0  0
   -1.3727   62.1674   78.8672 N   0  0  0  0  0  0  0  0  0  0  0  0
   -0.7540   63.2893   79.3589 C   0  0  0  0  0  0  0  0  0  0  0  0
   -0.3391   64.4942   78.7137 C   0  0  0  0  0  0  0  0  0  0  0  0
   -0.4420   64.7465   77.5179 O   0  0  0  0  0  0  0  0  0  0  0  0
    0.2311   65.3782   79.5977 N   0  0  0  0  0  0  0  0  0  0  0  0
    0.5787   66.2395   79.1982 H   0  0  0  0  0  0  0  0  0  0  0  0
   -2.0615   59.8925   79.6884 C   0  0  0  0  0  0  0  0  0  0  0  0
   -3.2109   59.5409   80.1723 N   0  0  0  0  0  0  0  0  0  0  0  0
   -3.4691   58.2070   79.8302 O   0  0  0  0  0  0  0  0  0  0  0  0
   -4.3456   58.0576   80.2322 H   0  0  0  0  0  0  0  0  0  0  0  0
   -1.8159   62.0098   77.4885 C   0  0  0  0  0  0  0  0  0  0  0  0
   -3.3082   62.2417   77.3322 C   0  0  0  0  0  0  0  0  0  0  0  0
   -0.9723   61.2380   82.4437 C   0  0  0  0  0  0  0  0  0  0  0  0
   -2.3296   61.2905   83.1469 C   0  0  0  0  0  0  0  0  0  0  0  0
   -2.4221   62.4798   84.0893 C   0  0  0  0  0  0  0  0  0  0  0  0
    2.7731   69.7627   80.7844 S   0  0  0  0  0  0  0  0  0  0  0  0
    2.4111   69.5255   79.4046 O   0  0  0  0  0  0  0  0  0  0  0  0
    4.1427   70.0266   81.1741 O   0  0  0  0  0  0  0  0  0  0  0  0
    1.8209   71.0369   81.3921 N   0  0  0  0  0  0  0  0  0  0  0  0
    2.4088   72.4037   81.3355 C   0  0  0  0  0  0  0  0  0  0  0  0
    1.5788   73.3475   80.4734 C   0  0  0  0  0  0  0  0  0  0  0  0
    0.1292   73.4772   80.9748 C   0  0  0  0  0  0  0  0  0  0  0  0
   -0.3574   72.1536   81.5968 C   0  0  0  0  0  0  0  0  0  0  0  0
    0.3849   70.9537   81.0220 C   0  0  0  0  0  0  0  0  0  0  0  0
   -0.0714   74.6255   81.9879 C   0  0  0  0  0  0  0  0  0  0  0  0
    0.8297   75.8381   81.7699 C   0  0  0  0  0  0  0  0  0  0  0  0
    1.7713   75.9396   82.8270 O   0  0  0  0  0  0  0  0  0  0  0  0
    2.3501   76.6946   82.6243 H   0  0  0  0  0  0  0  0  0  0  0  0
    0.7249   65.0691   83.8163 O   0  0  0  0  0  0  0  0  0  0  0  0
    0.9591   64.8963   85.2157 C   0  0  0  0  0  0  0  0  0  0  0  0
   -0.1634   63.9700   87.2895 C   0  0  0  0  0  0  0  0  0  0  0  0
    0.0816   63.7892   85.7977 C   0  0  0  0  0  0  0  0  0  0  0  0
 42 43  1  0  0  0
 43 41  1  0  0  0
 41 40  1  0  0  0
 40  1  1  0  0  0
  1  2  1  0  0  0
  2  3  2  0  0  0
  3  4  1  0  0  0
  4 27  1  0  0  0
 27 28  2  0  0  0
 27 29  2  0  0  0
 27 30  1  0  0  0
 30 31  1  0  0  0
 31 32  1  0  0  0
 32 33  1  0  0  0
 33 36  1  0  0  0
 36 37  1  0  0  0
 37 38  1  0  0  0
 33 34  1  0  0  0
 34 35  1  0  0  0
  4  5  2  0  0  0
  5  6  1  0  0  0
  6  7  1  0  0  0
  7  8  2  0  0  0
  8  9  1  0  0  0
  9 10  1  0  0  0
 10 24  1  0  0  0
 24 25  1  0  0  0
 25 26  1  0  0  0
 10 11  2  0  0  0
 11 18  1  0  0  0
 18 19  2  0  0  0
 19 20  1  0  0  0
 11 12  1  0  0  0
 12 22  1  0  0  0
 22 23  1  0  0  0
 12 13  1  0  0  0
 13 14  1  0  0  0
 14 15  2  0  0  0
 14 16  1  0  0  0
  6  1  2  0  0  0
 16  7  1  0  0  0
 35 30  1  0  0  0
 13  9  2  0  0  0
 38 39  1  0  0  0
 20 21  1  0  0  0
 16 17  1  0  0  0
M  END
> <minimizedAffinity>
-9.03333

$$$$



 43 46  0  0  0  0  0  0  0  0999 V2000
    3.6689   67.1422   84.0903 C   0  0  0  0  0  0  0  0  0  0  0  0
    4.4114   68.3202   83.9137 C   0  0  0  0  0  0  0  0  0  0  0  0
    3.9207   69.3690   83.1301 C   0  0  0  0  0  0  0  0  0  0  0  0
    2.6891   69.2340   82.4964 C   0  0  0  0  0  0  0  0  0  0  0  0
    1.9417   68.0658   82.6419 C   0  0  0  0  0  0  0  0  0  0  0  0
    2.4161   67.0152   83.4462 C   0  0  0  0  0  0  0  0  0  0  0  0
    1.5094   65.8237   83.5886 C   0  0  0  0  0  0  0  0  0  0  0  0
    1.0825   65.4860   84.7730 N   0  0  0  0  0  0  0  0  0  0  0  0
    0.2557   64.3633   84.7969 C   0  0  0  0  0  0  0  0  0  0  0  0
   -0.3223   63.7741   85.9379 C   0  0  0  0  0  0  0  0  0  0  0  0
   -1.0293   62.6522   85.4823 C   0  0  0  0  0  0  0  0  0  0  0  0
   -0.9026   62.6303   84.0919 N   0  0  0  0  0  0  0  0  0  0  0  0
   -0.0888   63.6568   83.6829 C   0  0  0  0  0  0  0  0  0  0  0  0
    0.3874   64.0206   82.3862 C   0  0  0  0  0  0  0  0  0  0  0  0
    0.1627   63.4224   81.3395 O   0  0  0  0  0  0  0  0  0  0  0  0
    1.1744   65.1462   82.4270 N   0  0  0  0  0  0  0  0  0  0  0  0
    1.5730   65.4381   81.5449 H   0  0  0  0  0  0  0  0  0  0  0  0
   -1.7603   61.6615   86.2483 C   0  0  0  0  0  0  0  0  0  0  0  0
   -3.0344   61.7571   86.4633 N   0  0  0  0  0  0  0  0  0  0  0  0
   -3.4573   60.6663   87.2342 O   0  0  0  0  0  0  0  0  0  0  0  0
   -4.4138   60.8367   87.3244 H   0  0  0  0  0  0  0  0  0  0  0  0
   -1.5373   61.6756   83.1933 C   0  0  0  0  0  0  0  0  0  0  0  0
   -2.7941   62.2355   82.5511 C   0  0  0  0  0  0  0  0  0  0  0  0
   -0.1617   64.2765   87.3410 C   0  0  0  0  0  0  0  0  0  0  0  0
    0.9266   63.5224   88.1069 C   0  0  0  0  0  0  0  0  0  0  0  0
    0.3292   62.5922   89.1505 C   0  0  0  0  0  0  0  0  0  0  0  0
    2.0390   70.5751   81.5304 S   0  0  0  0  0  0  0  0  0  0  0  0
    0.6415   70.6974   81.8814 O   0  0  0  0  0  0  0  0  0  0  0  0
    2.4620   70.3819   80.1588 O   0  0  0  0  0  0  0  0  0  0  0  0
    2.8781   71.9296   82.1313 N   0  0  0  0  0  0  0  0  0  0  0  0
    3.7466   72.6648   81.1709 C   0  0  0  0  0  0  0  0  0  0  0  0
    3.2981   74.1096   80.9853 C   0  0  0  0  0  0  0  0  0  0  0  0
    3.2876   74.8947   82.3093 C   0  0  0  0  0  0  0  0  0  0  0  0
    2.9183   73.9755   83.4902 C   0  0  0  0  0  0  0  0  0  0  0  0
    2.0760   72.7888   83.0393 C   0  0  0  0  0  0  0  0  0  0  0  0
    4.6230   75.6090   82.6121 C   0  0  0  0  0  0  0  0  0  0  0  0
    5.1427   75.4214   84.0350 C   0  0  0  0  0  0  0  0  0  0  0  0
    4.9496   76.6120   84.7832 O   0  0  0  0  0  0  0  0  0  0  0  0
    5.2514   76.4329   85.6904 H   0  0  0  0  0  0  0  0  0  0  0  0
    4.0899   66.0865   84.8565 O   0  0  0  0  0  0  0  0  0  0  0  0
    5.1807   66.2477   85.7661 C   0  0  0  0  0  0  0  0  0  0  0  0
    7.4577   66.0641   84.6705 C   0  0  0  0  0  0  0  0  0  0  0  0
    6.3478   65.3286   85.4091 C   0  0  0  0  0  0  0  0  0  0  0  0
 42 43  1  0  0  0
 43 41  1  0  0  0
 41 40  1  0  0  0
 40  1  1  0  0  0
  1  2  1  0  0  0
  2  3  2  0  0  0
  3  4  1  0  0  0
  4 27  1  0  0  0
 27 28  2  0  0  0
 27 29  2  0  0  0
 27 30  1  0  0  0
 30 31  1  0  0  0
 31 32  1  0  0  0
 32 33  1  0  0  0
 33 36  1  0  0  0
 36 37  1  0  0  0
 37 38  1  0  0  0
 33 34  1  0  0  0
 34 35  1  0  0  0
  4  5  2  0  0  0
  5  6  1  0  0  0
  6  7  1  0  0  0
  7  8  2  0  0  0
  8  9  1  0  0  0
  9 10  1  0  0  0
 10 24  1  0  0  0
 24 25  1  0  0  0
 25 26  1  0  0  0
 10 11  2  0  0  0
 11 18  1  0  0  0
 18 19  2  0  0  0
 19 20  1  0  0  0
 11 12  1  0  0  0
 12 22  1  0  0  0
 22 23  1  0  0  0
 12 13  1  0  0  0
 13 14  1  0  0  0
 14 15  2  0  0  0
 14 16  1  0  0  0
  6  1  2  0  0  0
 16  7  1  0  0  0
 35 30  1  0  0  0
 13  9  2  0  0  0
 38 39  1  0  0  0
 20 21  1  0  0  0
 16 17  1  0  0  0
M  END
> <minimizedAffinity>
-8.99838

$$$$



 43 46  0  0  0  0  0  0  0  0999 V2000
    0.6034   65.0440   83.4451 C   0  0  0  0  0  0  0  0  0  0  0  0
    1.1912   65.9628   84.3286 C   0  0  0  0  0  0  0  0  0  0  0  0
    1.8356   67.1080   83.8514 C   0  0  0  0  0  0  0  0  0  0  0  0
    1.9166   67.3287   82.4798 C   0  0  0  0  0  0  0  0  0  0  0  0
    1.3564   66.4207   81.5818 C   0  0  0  0  0  0  0  0  0  0  0  0
    0.6865   65.2782   82.0527 C   0  0  0  0  0  0  0  0  0  0  0  0
    0.0642   64.3932   81.0080 C   0  0  0  0  0  0  0  0  0  0  0  0
   -1.0374   63.7550   81.2878 N   0  0  0  0  0  0  0  0  0  0  0  0
   -1.5268   62.9554   80.2553 C   0  0  0  0  0  0  0  0  0  0  0  0
   -2.6798   62.1479   80.2971 C   0  0  0  0  0  0  0  0  0  0  0  0
   -2.7472   61.4991   79.0560 C   0  0  0  0  0  0  0  0  0  0  0  0
   -1.6768   61.9706   78.2934 N   0  0  0  0  0  0  0  0  0  0  0  0
   -0.9159   62.8326   79.0427 C   0  0  0  0  0  0  0  0  0  0  0  0
    0.2969   63.5236   78.7396 C   0  0  0  0  0  0  0  0  0  0  0  0
    0.9341   63.4415   77.6950 O   0  0  0  0  0  0  0  0  0  0  0  0
    0.7124   64.3115   79.7858 N   0  0  0  0  0  0  0  0  0  0  0  0
    1.5857   64.8023   79.6490 H   0  0  0  0  0  0  0  0  0  0  0  0
   -3.7046   60.5138   78.5924 C   0  0  0  0  0  0  0  0  0  0  0  0
   -3.9167   59.4047   79.2279 N   0  0  0  0  0  0  0  0  0  0  0  0
   -4.8824   58.6556   78.5427 O   0  0  0  0  0  0  0  0  0  0  0  0
   -4.9651   57.8628   79.1056 H   0  0  0  0  0  0  0  0  0  0  0  0
   -1.3976   61.6192   76.9076 C   0  0  0  0  0  0  0  0  0  0  0  0
   -0.4859   60.4106   76.7913 C   0  0  0  0  0  0  0  0  0  0  0  0
   -3.6037   62.0270   81.4713 C   0  0  0  0  0  0  0  0  0  0  0  0
   -2.9557   61.2943   82.6472 C   0  0  0  0  0  0  0  0  0  0  0  0
   -2.8737   59.7976   82.3929 C   0  0  0  0  0  0  0  0  0  0  0  0
    2.6988   68.7997   81.8645 S   0  0  0  0  0  0  0  0  0  0  0  0
    2.9584   68.5729   80.4601 O   0  0  0  0  0  0  0  0  0  0  0  0
    3.7597   69.1574   82.7833 O   0  0  0  0  0  0  0  0  0  0  0  0
    1.4808   69.9801   82.0157 N   0  0  0  0  0  0  0  0  0  0  0  0
    1.9257   71.3799   82.2598 C   0  0  0  0  0  0  0  0  0  0  0  0
    1.4923   72.3205   81.1415 C   0  0  0  0  0  0  0  0  0  0  0  0
   -0.0347   72.3369   80.9483 C   0  0  0  0  0  0  0  0  0  0  0  0
   -0.6424   70.9544   81.2564 C   0  0  0  0  0  0  0  0  0  0  0  0
    0.3678   69.8341   81.0432 C   0  0  0  0  0  0  0  0  0  0  0  0
   -0.7506   73.4130   81.7938 C   0  0  0  0  0  0  0  0  0  0  0  0
   -0.2451   74.8374   81.5809 C   0  0  0  0  0  0  0  0  0  0  0  0
   -0.3891   75.5876   82.7772 O   0  0  0  0  0  0  0  0  0  0  0  0
   -0.0147   76.4695   82.6097 H   0  0  0  0  0  0  0  0  0  0  0  0
   -0.0531   63.9118   83.8523 O   0  0  0  0  0  0  0  0  0  0  0  0
    0.0008   63.5018   85.2206 C   0  0  0  0  0  0  0  0  0  0  0  0
   -2.2755   62.6722   85.9615 C   0  0  0  0  0  0  0  0  0  0  0  0
   -0.8858   62.2839   85.4755 C   0  0  0  0  0  0  0  0  0  0  0  0
 42 43  1  0  0  0
 43 41  1  0  0  0
 41 40  1  0  0  0
 40  1  1  0  0  0
  1  2  1  0  0  0
  2  3  2  0  0  0
  3  4  1  0  0  0
  4 27  1  0  0  0
 27 28  2  0  0  0
 27 29  2  0  0  0
 27 30  1  0  0  0
 30 31  1  0  0  0
 31 32  1  0  0  0
 32 33  1  0  0  0
 33 36  1  0  0  0
 36 37  1  0  0  0
 37 38  1  0  0  0
 33 34  1  0  0  0
 34 35  1  0  0  0
  4  5  2  0  0  0
  5  6  1  0  0  0
  6  7  1  0  0  0
  7  8  2  0  0  0
  8  9  1  0  0  0
  9 10  1  0  0  0
 10 24  1  0  0  0
 24 25  1  0  0  0
 25 26  1  0  0  0
 10 11  2  0  0  0
 11 18  1  0  0  0
 18 19  2  0  0  0
 19 20  1  0  0  0
 11 12  1  0  0  0
 12 22  1  0  0  0
 22 23  1  0  0  0
 12 13  1  0  0  0
 13 14  1  0  0  0
 14 15  2  0  0  0
 14 16  1  0  0  0
  6  1  2  0  0  0
 16  7  1  0  0  0
 35 30  1  0  0  0
 13  9  2  0  0  0
 38 39  1  0  0  0
 20 21  1  0  0  0
 16 17  1  0  0  0
M  END
> <minimizedAffinity>
-8.86925

$$$$



 43 46  0  0  0  0  0  0  0  0999 V2000
    3.5117   67.4987   83.8369 C   0  0  0  0  0  0  0  0  0  0  0  0
    4.2951   68.6341   83.5772 C   0  0  0  0  0  0  0  0  0  0  0  0
    3.9931   69.4878   82.5121 C   0  0  0  0  0  0  0  0  0  0  0  0
    2.9147   69.1952   81.6825 C   0  0  0  0  0  0  0  0  0  0  0  0
    2.1330   68.0630   81.9095 C   0  0  0  0  0  0  0  0  0  0  0  0
    2.4149   67.2111   82.9916 C   0  0  0  0  0  0  0  0  0  0  0  0
    1.4776   66.0515   83.1880 C   0  0  0  0  0  0  0  0  0  0  0  0
    1.1598   65.6871   84.3985 N   0  0  0  0  0  0  0  0  0  0  0  0
    0.2927   64.5973   84.4711 C   0  0  0  0  0  0  0  0  0  0  0  0
   -0.1904   63.9893   85.6459 C   0  0  0  0  0  0  0  0  0  0  0  0
   -0.9872   62.9134   85.2294 C   0  0  0  0  0  0  0  0  0  0  0  0
   -1.0042   62.9381   83.8334 N   0  0  0  0  0  0  0  0  0  0  0  0
   -0.1934   63.9465   83.3761 C   0  0  0  0  0  0  0  0  0  0  0  0
    0.1629   64.3390   82.0498 C   0  0  0  0  0  0  0  0  0  0  0  0
   -0.1927   63.7891   81.0129 O   0  0  0  0  0  0  0  0  0  0  0  0
    0.9972   65.4309   82.0457 N   0  0  0  0  0  0  0  0  0  0  0  0
    1.3158   65.7395   81.1371 H   0  0  0  0  0  0  0  0  0  0  0  0
   -1.6777   61.9243   86.0341 C   0  0  0  0  0  0  0  0  0  0  0  0
   -2.9705   61.8561   86.0852 N   0  0  0  0  0  0  0  0  0  0  0  0
   -3.3459   60.8147   86.9440 O   0  0  0  0  0  0  0  0  0  0  0  0
   -4.3199   60.8518   86.8989 H   0  0  0  0  0  0  0  0  0  0  0  0
   -1.7674   62.0427   82.9745 C   0  0  0  0  0  0  0  0  0  0  0  0
   -0.9302   60.8863   82.4577 C   0  0  0  0  0  0  0  0  0  0  0  0
    0.1339   64.4330   87.0405 C   0  0  0  0  0  0  0  0  0  0  0  0
    1.0856   63.4685   87.7502 C   0  0  0  0  0  0  0  0  0  0  0  0
    0.4506   62.8791   88.9995 C   0  0  0  0  0  0  0  0  0  0  0  0
    2.4990   70.2938   80.3504 S   0  0  0  0  0  0  0  0  0  0  0  0
    1.5793   69.5767   79.4954 O   0  0  0  0  0  0  0  0  0  0  0  0
    3.7306   70.8559   79.8361 O   0  0  0  0  0  0  0  0  0  0  0  0
    1.6577   71.5514   81.1317 N   0  0  0  0  0  0  0  0  0  0  0  0
    2.1929   72.9300   80.9575 C   0  0  0  0  0  0  0  0  0  0  0  0
    1.1886   73.8507   80.2743 C   0  0  0  0  0  0  0  0  0  0  0  0
   -0.1361   73.9529   81.0516 C   0  0  0  0  0  0  0  0  0  0  0  0
   -0.4614   72.6232   81.7599 C   0  0  0  0  0  0  0  0  0  0  0  0
    0.1791   71.4357   81.0523 C   0  0  0  0  0  0  0  0  0  0  0  0
   -0.1580   75.1029   82.0823 C   0  0  0  0  0  0  0  0  0  0  0  0
    0.7238   76.2978   81.7291 C   0  0  0  0  0  0  0  0  0  0  0  0
    0.0032   77.2086   80.9132 O   0  0  0  0  0  0  0  0  0  0  0  0
    0.5850   77.9712   80.7515 H   0  0  0  0  0  0  0  0  0  0  0  0
    3.7490   66.6328   84.8727 O   0  0  0  0  0  0  0  0  0  0  0  0
    4.9464   66.7460   85.6452 C   0  0  0  0  0  0  0  0  0  0  0  0
    7.0430   65.9541   84.4638 C   0  0  0  0  0  0  0  0  0  0  0  0
    5.8925   65.5748   85.3862 C   0  0  0  0  0  0  0  0  0  0  0  0
 42 43  1  0  0  0
 43 41  1  0  0  0
 41 40  1  0  0  0
 40  1  1  0  0  0
  1  2  1  0  0  0
  2  3  2  0  0  0
  3  4  1  0  0  0
  4 27  1  0  0  0
 27 28  2  0  0  0
 27 29  2  0  0  0
 27 30  1  0  0  0
 30 31  1  0  0  0
 31 32  1  0  0  0
 32 33  1  0  0  0
 33 36  1  0  0  0
 36 37  1  0  0  0
 37 38  1  0  0  0
 33 34  1  0  0  0
 34 35  1  0  0  0
  4  5  2  0  0  0
  5  6  1  0  0  0
  6  7  1  0  0  0
  7  8  2  0  0  0
  8  9  1  0  0  0
  9 10  1  0  0  0
 10 24  1  0  0  0
 24 25  1  0  0  0
 25 26  1  0  0  0
 10 11  2  0  0  0
 11 18  1  0  0  0
 18 19  2  0  0  0
 19 20  1  0  0  0
 11 12  1  0  0  0
 12 22  1  0  0  0
 22 23  1  0  0  0
 12 13  1  0  0  0
 13 14  1  0  0  0
 14 15  2  0  0  0
 14 16  1  0  0  0
  6  1  2  0  0  0
 16  7  1  0  0  0
 35 30  1  0  0  0
 13  9  2  0  0  0
 38 39  1  0  0  0
 20 21  1  0  0  0
 16 17  1  0  0  0
M  END
> <minimizedAffinity>
-8.84115

$$$$
