


 22 24  0  0  0  0  0  0  0  0999 V2000
    0.6577   64.5109   85.2157 C   0  0  0  0  0  0  0  0  0  0  0  0
   -0.2905   63.7191   84.7766 N   0  0  0  0  0  0  0  0  0  0  0  0
   -0.8293   62.9427   85.7452 C   0  0  0  0  0  0  0  0  0  0  0  0
   -1.8231   62.0234   85.6094 N   0  0  0  0  0  0  0  0  0  0  0  0
   -2.1049   61.4347   86.7924 N   0  0  0  0  0  0  0  0  0  0  0  0
   -1.2956   61.9648   87.7111 N   0  0  0  0  0  0  0  0  0  0  0  0
   -0.5159   62.8846   87.0794 C   0  0  0  0  0  0  0  0  0  0  0  0
    0.5218   63.7476   87.5702 C   0  0  0  0  0  0  0  0  0  0  0  0
    0.9198   63.8061   88.7283 O   0  0  0  0  0  0  0  0  0  0  0  0
    1.0504   64.5373   86.5579 N   0  0  0  0  0  0  0  0  0  0  0  0
   -2.3352   61.7528   84.7798 H   0  0  0  0  0  0  0  0  0  0  0  0
    1.7959   65.1600   86.8419 H   0  0  0  0  0  0  0  0  0  0  0  0
    2.6888   65.9137   84.4633 C   0  0  0  0  0  0  0  0  0  0  0  0
    3.2446   66.7920   83.5210 C   0  0  0  0  0  0  0  0  0  0  0  0
    2.5141   67.1996   82.4022 C   0  0  0  0  0  0  0  0  0  0  0  0
    1.2187   66.7373   82.2096 C   0  0  0  0  0  0  0  0  0  0  0  0
    0.6500   65.8676   83.1390 C   0  0  0  0  0  0  0  0  0  0  0  0
    1.3683   65.4468   84.2745 C   0  0  0  0  0  0  0  0  0  0  0  0
    3.3654   65.4800   85.5762 O   0  0  0  0  0  0  0  0  0  0  0  0
    4.7423   65.8397   85.7171 C   0  0  0  0  0  0  0  0  0  0  0  0
    5.5723   65.5270   88.0912 C   0  0  0  0  0  0  0  0  0  0  0  0
    5.3950   64.8900   86.7199 C   0  0  0  0  0  0  0  0  0  0  0  0
 21 22  1  0  0  0
 22 20  1  0  0  0
 20 19  1  0  0  0
 19 13  1  0  0  0
 13 14  2  0  0  0
 14 15  1  0  0  0
 15 16  2  0  0  0
 16 17  1  0  0  0
 17 18  2  0  0  0
 18  1  1  0  0  0
  1  2  2  0  0  0
  2  3  1  0  0  0
  3  4  1  0  0  0
  4  5  1  0  0  0
  5  6  2  0  0  0
  6  7  1  0  0  0
  7  8  1  0  0  0
  8  9  2  0  0  0
  8 10  1  0  0  0
 18 13  1  0  0  0
 10  1  1  0  0  0
  7  3  2  0  0  0
  4 11  1  0  0  0
 10 12  1  0  0  0
M  END
> <minimizedAffinity>
-8.59642

$$$$



 22 24  0  0  0  0  0  0  0  0999 V2000
   -2.0381   61.9531   83.7701 C   0  0  0  0  0  0  0  0  0  0  0  0
   -2.5470   60.7525   83.6345 N   0  0  0  0  0  0  0  0  0  0  0  0
   -2.7082   60.3834   82.3426 C   0  0  0  0  0  0  0  0  0  0  0  0
   -3.2097   59.2079   81.8758 N   0  0  0  0  0  0  0  0  0  0  0  0
   -3.2241   59.1883   80.5250 N   0  0  0  0  0  0  0  0  0  0  0  0
   -2.7325   60.3529   80.0983 N   0  0  0  0  0  0  0  0  0  0  0  0
   -2.4160   61.0856   81.2010 C   0  0  0  0  0  0  0  0  0  0  0  0
   -1.8586   62.4020   81.3388 C   0  0  0  0  0  0  0  0  0  0  0  0
   -1.5539   63.1532   80.4190 O   0  0  0  0  0  0  0  0  0  0  0  0
   -1.6971   62.7508   82.6729 N   0  0  0  0  0  0  0  0  0  0  0  0
   -3.5483   58.4068   82.3927 H   0  0  0  0  0  0  0  0  0  0  0  0
   -1.3175   63.6752   82.8337 H   0  0  0  0  0  0  0  0  0  0  0  0
   -0.6448   63.2796   85.4900 C   0  0  0  0  0  0  0  0  0  0  0  0
   -0.5167   63.7571   86.8030 C   0  0  0  0  0  0  0  0  0  0  0  0
   -1.5050   63.5045   87.7575 C   0  0  0  0  0  0  0  0  0  0  0  0
   -2.6335   62.7711   87.4149 C   0  0  0  0  0  0  0  0  0  0  0  0
   -2.7739   62.2857   86.1155 C   0  0  0  0  0  0  0  0  0  0  0  0
   -1.7883   62.5268   85.1395 C   0  0  0  0  0  0  0  0  0  0  0  0
    0.2948   63.5036   84.5145 O   0  0  0  0  0  0  0  0  0  0  0  0
    0.9480   64.7753   84.4798 C   0  0  0  0  0  0  0  0  0  0  0  0
    1.4757   66.7078   82.9274 C   0  0  0  0  0  0  0  0  0  0  0  0
    0.6782   65.4260   83.1243 C   0  0  0  0  0  0  0  0  0  0  0  0
 21 22  1  0  0  0
 22 20  1  0  0  0
 20 19  1  0  0  0
 19 13  1  0  0  0
 13 14  2  0  0  0
 14 15  1  0  0  0
 15 16  2  0  0  0
 16 17  1  0  0  0
 17 18  2  0  0  0
 18  1  1  0  0  0
  1  2  2  0  0  0
  2  3  1  0  0  0
  3  4  1  0  0  0
  4  5  1  0  0  0
  5  6  2  0  0  0
  6  7  1  0  0  0
  7  8  1  0  0  0
  8  9  2  0  0  0
  8 10  1  0  0  0
 18 13  1  0  0  0
 10  1  1  0  0  0
  7  3  2  0  0  0
  4 11  1  0  0  0
 10 12  1  0  0  0
M  END
> <minimizedAffinity>
-8.55848

$$$$



 22 24  0  0  0  0  0  0  0  0999 V2000
   -1.0374   61.9994   84.2315 C   0  0  0  0  0  0  0  0  0  0  0  0
   -2.2166   61.4505   84.0669 N   0  0  0  0  0  0  0  0  0  0  0  0
   -2.4033   60.9484   82.8242 C   0  0  0  0  0  0  0  0  0  0  0  0
   -3.5123   60.3232   82.3440 N   0  0  0  0  0  0  0  0  0  0  0  0
   -3.3425   59.9553   81.0552 N   0  0  0  0  0  0  0  0  0  0  0  0
   -2.1202   60.3389   80.6825 N   0  0  0  0  0  0  0  0  0  0  0  0
   -1.5425   60.9444   81.7561 C   0  0  0  0  0  0  0  0  0  0  0  0
   -0.2486   61.5438   81.9261 C   0  0  0  0  0  0  0  0  0  0  0  0
    0.6235   61.6258   81.0683 O   0  0  0  0  0  0  0  0  0  0  0  0
   -0.0819   62.0427   83.2110 N   0  0  0  0  0  0  0  0  0  0  0  0
   -4.3854   60.1198   82.8129 H   0  0  0  0  0  0  0  0  0  0  0  0
    0.8093   62.4886   83.3879 H   0  0  0  0  0  0  0  0  0  0  0  0
   -0.0324   63.8683   85.7000 C   0  0  0  0  0  0  0  0  0  0  0  0
    0.2839   64.3299   86.9865 C   0  0  0  0  0  0  0  0  0  0  0  0
   -0.0170   63.5660   88.1167 C   0  0  0  0  0  0  0  0  0  0  0  0
   -0.6364   62.3307   87.9782 C   0  0  0  0  0  0  0  0  0  0  0  0
   -0.9534   61.8555   86.7064 C   0  0  0  0  0  0  0  0  0  0  0  0
   -0.6563   62.6084   85.5546 C   0  0  0  0  0  0  0  0  0  0  0  0
    0.2380   64.5814   84.5587 O   0  0  0  0  0  0  0  0  0  0  0  0
    1.1410   65.6869   84.6464 C   0  0  0  0  0  0  0  0  0  0  0  0
    0.5411   65.5183   82.1899 C   0  0  0  0  0  0  0  0  0  0  0  0
    1.3462   66.2622   83.2463 C   0  0  0  0  0  0  0  0  0  0  0  0
 21 22  1  0  0  0
 22 20  1  0  0  0
 20 19  1  0  0  0
 19 13  1  0  0  0
 13 14  2  0  0  0
 14 15  1  0  0  0
 15 16  2  0  0  0
 16 17  1  0  0  0
 17 18  2  0  0  0
 18  1  1  0  0  0
  1  2  2  0  0  0
  2  3  1  0  0  0
  3  4  1  0  0  0
  4  5  1  0  0  0
  5  6  2  0  0  0
  6  7  1  0  0  0
  7  8  1  0  0  0
  8  9  2  0  0  0
  8 10  1  0  0  0
 18 13  1  0  0  0
 10  1  1  0  0  0
  7  3  2  0  0  0
  4 11  1  0  0  0
 10 12  1  0  0  0
M  END
> <minimizedAffinity>
-8.50280

$$$$



 22 24  0  0  0  0  0  0  0  0999 V2000
   -0.7850   63.2071   83.2370 C   0  0  0  0  0  0  0  0  0  0  0  0
   -0.7744   62.4903   82.1393 N   0  0  0  0  0  0  0  0  0  0  0  0
   -1.6222   61.4364   82.1812 C   0  0  0  0  0  0  0  0  0  0  0  0
   -1.8379   60.5106   81.2079 N   0  0  0  0  0  0  0  0  0  0  0  0
   -2.7551   59.5991   81.5993 N   0  0  0  0  0  0  0  0  0  0  0  0
   -3.1455   59.9223   82.8335 N   0  0  0  0  0  0  0  0  0  0  0  0
   -2.4590   61.0412   83.1938 C   0  0  0  0  0  0  0  0  0  0  0  0
   -2.4776   61.8194   84.4007 C   0  0  0  0  0  0  0  0  0  0  0  0
   -3.1612   61.5910   85.3924 O   0  0  0  0  0  0  0  0  0  0  0  0
   -1.6053   62.8971   84.3266 N   0  0  0  0  0  0  0  0  0  0  0  0
   -1.4164   60.4363   80.2911 H   0  0  0  0  0  0  0  0  0  0  0  0
   -1.5664   63.4776   85.1547 H   0  0  0  0  0  0  0  0  0  0  0  0
    0.8060   64.7679   84.5378 C   0  0  0  0  0  0  0  0  0  0  0  0
    1.5921   65.9300   84.5421 C   0  0  0  0  0  0  0  0  0  0  0  0
    1.6865   66.7361   83.4052 C   0  0  0  0  0  0  0  0  0  0  0  0
    0.9968   66.3942   82.2492 C   0  0  0  0  0  0  0  0  0  0  0  0
    0.2078   65.2450   82.2298 C   0  0  0  0  0  0  0  0  0  0  0  0
    0.0970   64.4205   83.3656 C   0  0  0  0  0  0  0  0  0  0  0  0
    0.6832   63.9403   85.6261 O   0  0  0  0  0  0  0  0  0  0  0  0
    0.3578   64.5244   86.8902 C   0  0  0  0  0  0  0  0  0  0  0  0
    0.2993   63.0034   88.9166 C   0  0  0  0  0  0  0  0  0  0  0  0
   -0.4568   63.5164   87.6988 C   0  0  0  0  0  0  0  0  0  0  0  0
 21 22  1  0  0  0
 22 20  1  0  0  0
 20 19  1  0  0  0
 19 13  1  0  0  0
 13 14  2  0  0  0
 14 15  1  0  0  0
 15 16  2  0  0  0
 16 17  1  0  0  0
 17 18  2  0  0  0
 18  1  1  0  0  0
  1  2  2  0  0  0
  2  3  1  0  0  0
  3  4  1  0  0  0
  4  5  1  0  0  0
  5  6  2  0  0  0
  6  7  1  0  0  0
  7  8  1  0  0  0
  8  9  2  0  0  0
  8 10  1  0  0  0
 18 13  1  0  0  0
 10  1  1  0  0  0
  7  3  2  0  0  0
  4 11  1  0  0  0
 10 12  1  0  0  0
M  END
> <minimizedAffinity>
-8.32826

$$$$



 22 24  0  0  0  0  0  0  0  0999 V2000
   -0.5551   62.6350   81.6658 C   0  0  0  0  0  0  0  0  0  0  0  0
    0.0904   62.3598   80.5584 N   0  0  0  0  0  0  0  0  0  0  0  0
   -0.5387   61.4429   79.7871 C   0  0  0  0  0  0  0  0  0  0  0  0
   -0.1264   60.9497   78.5880 N   0  0  0  0  0  0  0  0  0  0  0  0
   -1.0080   60.0468   78.1053 N   0  0  0  0  0  0  0  0  0  0  0  0
   -2.0037   59.9422   78.9872 N   0  0  0  0  0  0  0  0  0  0  0  0
   -1.7239   60.7906   80.0142 C   0  0  0  0  0  0  0  0  0  0  0  0
   -2.4384   61.0847   81.2248 C   0  0  0  0  0  0  0  0  0  0  0  0
   -3.5006   60.5810   81.5726 O   0  0  0  0  0  0  0  0  0  0  0  0
   -1.7748   62.0330   81.9917 N   0  0  0  0  0  0  0  0  0  0  0  0
    0.7073   61.1694   78.0585 H   0  0  0  0  0  0  0  0  0  0  0  0
   -2.2260   62.2733   82.8651 H   0  0  0  0  0  0  0  0  0  0  0  0
    0.0724   63.4273   84.0402 C   0  0  0  0  0  0  0  0  0  0  0  0
    0.6023   64.4386   84.8557 C   0  0  0  0  0  0  0  0  0  0  0  0
    1.0621   65.6370   84.3046 C   0  0  0  0  0  0  0  0  0  0  0  0
    0.9980   65.8430   82.9327 C   0  0  0  0  0  0  0  0  0  0  0  0
    0.4701   64.8499   82.1088 C   0  0  0  0  0  0  0  0  0  0  0  0
   -0.0010   63.6362   82.6443 C   0  0  0  0  0  0  0  0  0  0  0  0
   -0.3885   62.2311   84.5311 O   0  0  0  0  0  0  0  0  0  0  0  0
   -0.8270   62.1788   85.8912 C   0  0  0  0  0  0  0  0  0  0  0  0
   -2.7516   63.0644   87.2822 C   0  0  0  0  0  0  0  0  0  0  0  0
   -2.3198   62.5002   85.9358 C   0  0  0  0  0  0  0  0  0  0  0  0
 21 22  1  0  0  0
 22 20  1  0  0  0
 20 19  1  0  0  0
 19 13  1  0  0  0
 13 14  2  0  0  0
 14 15  1  0  0  0
 15 16  2  0  0  0
 16 17  1  0  0  0
 17 18  2  0  0  0
 18  1  1  0  0  0
  1  2  2  0  0  0
  2  3  1  0  0  0
  3  4  1  0  0  0
  4  5  1  0  0  0
  5  6  2  0  0  0
  6  7  1  0  0  0
  7  8  1  0  0  0
  8  9  2  0  0  0
  8 10  1  0  0  0
 18 13  1  0  0  0
 10  1  1  0  0  0
  7  3  2  0  0  0
  4 11  1  0  0  0
 10 12  1  0  0  0
M  END
> <minimizedAffinity>
-8.32093

$$$$



 22 24  0  0  0  0  0  0  0  0999 V2000
   -1.2007   62.4876   80.8881 C   0  0  0  0  0  0  0  0  0  0  0  0
   -0.4893   61.6953   80.1233 N   0  0  0  0  0  0  0  0  0  0  0  0
   -1.2422   60.8411   79.3919 C   0  0  0  0  0  0  0  0  0  0  0  0
   -0.8046   59.9007   78.5115 N   0  0  0  0  0  0  0  0  0  0  0  0
   -1.8409   59.2284   77.9642 N   0  0  0  0  0  0  0  0  0  0  0  0
   -2.9649   59.7244   78.4844 N   0  0  0  0  0  0  0  0  0  0  0  0
   -2.6070   60.7077   79.3550 C   0  0  0  0  0  0  0  0  0  0  0  0
   -3.3953   61.5706   80.1895 C   0  0  0  0  0  0  0  0  0  0  0  0
   -4.6184   61.5675   80.2739 O   0  0  0  0  0  0  0  0  0  0  0  0
   -2.5983   62.4404   80.9216 N   0  0  0  0  0  0  0  0  0  0  0  0
    0.1425   59.6675   78.2429 H   0  0  0  0  0  0  0  0  0  0  0  0
   -3.0986   63.0675   81.5385 H   0  0  0  0  0  0  0  0  0  0  0  0
   -0.4351   63.4006   83.1770 C   0  0  0  0  0  0  0  0  0  0  0  0
    0.2108   64.4171   83.8967 C   0  0  0  0  0  0  0  0  0  0  0  0
    0.7667   65.5181   83.2409 C   0  0  0  0  0  0  0  0  0  0  0  0
    0.6843   65.6202   81.8583 C   0  0  0  0  0  0  0  0  0  0  0  0
    0.0419   64.6209   81.1287 C   0  0  0  0  0  0  0  0  0  0  0  0
   -0.5272   63.5046   81.7706 C   0  0  0  0  0  0  0  0  0  0  0  0
   -0.9937   62.2972   83.7728 O   0  0  0  0  0  0  0  0  0  0  0  0
   -1.1007   62.2762   85.1987 C   0  0  0  0  0  0  0  0  0  0  0  0
   -2.7025   62.9546   87.0418 C   0  0  0  0  0  0  0  0  0  0  0  0
   -2.5546   62.5442   85.5832 C   0  0  0  0  0  0  0  0  0  0  0  0
 21 22  1  0  0  0
 22 20  1  0  0  0
 20 19  1  0  0  0
 19 13  1  0  0  0
 13 14  2  0  0  0
 14 15  1  0  0  0
 15 16  2  0  0  0
 16 17  1  0  0  0
 17 18  2  0  0  0
 18  1  1  0  0  0
  1  2  2  0  0  0
  2  3  1  0  0  0
  3  4  1  0  0  0
  4  5  1  0  0  0
  5  6  2  0  0  0
  6  7  1  0  0  0
  7  8  1  0  0  0
  8  9  2  0  0  0
  8 10  1  0  0  0
 18 13  1  0  0  0
 10  1  1  0  0  0
  7  3  2  0  0  0
  4 11  1  0  0  0
 10 12  1  0  0  0
M  END
> <minimizedAffinity>
-8.25598

$$$$



 22 24  0  0  0  0  0  0  0  0999 V2000
    0.2423   64.2172   85.2926 C   0  0  0  0  0  0  0  0  0  0  0  0
    0.9423   64.3278   86.3957 N   0  0  0  0  0  0  0  0  0  0  0  0
    0.4944   63.5324   87.3946 C   0  0  0  0  0  0  0  0  0  0  0  0
    1.0020   63.4206   88.6520 N   0  0  0  0  0  0  0  0  0  0  0  0
    0.2979   62.5283   89.3824 N   0  0  0  0  0  0  0  0  0  0  0  0
   -0.6772   62.0505   88.6070 N   0  0  0  0  0  0  0  0  0  0  0  0
   -0.5627   62.6582   87.3943 C   0  0  0  0  0  0  0  0  0  0  0  0
   -1.3361   62.5301   86.1911 C   0  0  0  0  0  0  0  0  0  0  0  0
   -2.3101   61.8016   86.0371 O   0  0  0  0  0  0  0  0  0  0  0  0
   -0.8500   63.3506   85.1820 N   0  0  0  0  0  0  0  0  0  0  0  0
    1.7907   63.8984   89.0682 H   0  0  0  0  0  0  0  0  0  0  0  0
   -1.3631   63.3120   84.3105 H   0  0  0  0  0  0  0  0  0  0  0  0
    0.2113   64.6996   82.7578 C   0  0  0  0  0  0  0  0  0  0  0  0
    0.6123   65.5290   81.6996 C   0  0  0  0  0  0  0  0  0  0  0  0
    1.3791   66.6725   81.9356 C   0  0  0  0  0  0  0  0  0  0  0  0
    1.7572   67.0030   83.2305 C   0  0  0  0  0  0  0  0  0  0  0  0
    1.3707   66.1869   84.2927 C   0  0  0  0  0  0  0  0  0  0  0  0
    0.6003   65.0287   84.0761 C   0  0  0  0  0  0  0  0  0  0  0  0
   -0.5453   63.5681   82.5799 O   0  0  0  0  0  0  0  0  0  0  0  0
   -0.3053   62.7659   81.4206 C   0  0  0  0  0  0  0  0  0  0  0  0
    1.4408   61.0703   82.1273 C   0  0  0  0  0  0  0  0  0  0  0  0
   -0.0366   61.3300   81.8674 C   0  0  0  0  0  0  0  0  0  0  0  0
 21 22  1  0  0  0
 22 20  1  0  0  0
 20 19  1  0  0  0
 19 13  1  0  0  0
 13 14  2  0  0  0
 14 15  1  0  0  0
 15 16  2  0  0  0
 16 17  1  0  0  0
 17 18  2  0  0  0
 18  1  1  0  0  0
  1  2  2  0  0  0
  2  3  1  0  0  0
  3  4  1  0  0  0
  4  5  1  0  0  0
  5  6  2  0  0  0
  6  7  1  0  0  0
  7  8  1  0  0  0
  8  9  2  0  0  0
  8 10  1  0  0  0
 18 13  1  0  0  0
 10  1  1  0  0  0
  7  3  2  0  0  0
  4 11  1  0  0  0
 10 12  1  0  0  0
M  END
> <minimizedAffinity>
-8.21862

$$$$



 22 24  0  0  0  0  0  0  0  0999 V2000
    0.4331   64.3621   85.4880 C   0  0  0  0  0  0  0  0  0  0  0  0
   -0.6768   63.9700   86.0653 N   0  0  0  0  0  0  0  0  0  0  0  0
   -0.5082   63.6116   87.3592 C   0  0  0  0  0  0  0  0  0  0  0  0
   -1.4591   63.1623   88.2225 N   0  0  0  0  0  0  0  0  0  0  0  0
   -0.9274   62.8983   89.4361 N   0  0  0  0  0  0  0  0  0  0  0  0
    0.3769   63.1725   89.3747 N   0  0  0  0  0  0  0  0  0  0  0  0
    0.6387   63.6078   88.1118 C   0  0  0  0  0  0  0  0  0  0  0  0
    1.8599   64.0351   87.4885 C   0  0  0  0  0  0  0  0  0  0  0  0
    2.9622   64.0796   88.0233 O   0  0  0  0  0  0  0  0  0  0  0  0
    1.6560   64.4038   86.1656 N   0  0  0  0  0  0  0  0  0  0  0  0
   -2.4476   63.0149   88.0651 H   0  0  0  0  0  0  0  0  0  0  0  0
    2.4852   64.7043   85.6692 H   0  0  0  0  0  0  0  0  0  0  0  0
    1.0403   65.9841   83.5750 C   0  0  0  0  0  0  0  0  0  0  0  0
    0.9669   66.2924   82.2083 C   0  0  0  0  0  0  0  0  0  0  0  0
    0.3103   65.4420   81.3156 C   0  0  0  0  0  0  0  0  0  0  0  0
   -0.2829   64.2732   81.7748 C   0  0  0  0  0  0  0  0  0  0  0  0
   -0.2227   63.9544   83.1307 C   0  0  0  0  0  0  0  0  0  0  0  0
    0.4317   64.7992   84.0473 C   0  0  0  0  0  0  0  0  0  0  0  0
    1.6765   66.7833   84.4920 O   0  0  0  0  0  0  0  0  0  0  0  0
    2.9030   67.4118   84.1101 C   0  0  0  0  0  0  0  0  0  0  0  0
    5.2136   67.1294   85.1124 C   0  0  0  0  0  0  0  0  0  0  0  0
    4.0546   66.4498   84.3966 C   0  0  0  0  0  0  0  0  0  0  0  0
 21 22  1  0  0  0
 22 20  1  0  0  0
 20 19  1  0  0  0
 19 13  1  0  0  0
 13 14  2  0  0  0
 14 15  1  0  0  0
 15 16  2  0  0  0
 16 17  1  0  0  0
 17 18  2  0  0  0
 18  1  1  0  0  0
  1  2  2  0  0  0
  2  3  1  0  0  0
  3  4  1  0  0  0
  4  5  1  0  0  0
  5  6  2  0  0  0
  6  7  1  0  0  0
  7  8  1  0  0  0
  8  9  2  0  0  0
  8 10  1  0  0  0
 18 13  1  0  0  0
 10  1  1  0  0  0
  7  3  2  0  0  0
  4 11  1  0  0  0
 10 12  1  0  0  0
M  END
> <minimizedAffinity>
-8.21321

$$$$



 22 24  0  0  0  0  0  0  0  0999 V2000
   -1.0566   62.1766   81.1300 C   0  0  0  0  0  0  0  0  0  0  0  0
   -2.0196   61.4352   81.6218 N   0  0  0  0  0  0  0  0  0  0  0  0
   -2.4548   60.4853   80.7619 C   0  0  0  0  0  0  0  0  0  0  0  0
   -3.4366   59.5674   80.9730 N   0  0  0  0  0  0  0  0  0  0  0  0
   -3.6033   58.7768   79.8902 N   0  0  0  0  0  0  0  0  0  0  0  0
   -2.7312   59.1735   78.9616 N   0  0  0  0  0  0  0  0  0  0  0  0
   -2.0281   60.2141   79.4867 C   0  0  0  0  0  0  0  0  0  0  0  0
   -0.9740   61.0209   78.9385 C   0  0  0  0  0  0  0  0  0  0  0  0
   -0.4923   60.9084   77.8168 O   0  0  0  0  0  0  0  0  0  0  0  0
   -0.5422   61.9806   79.8441 N   0  0  0  0  0  0  0  0  0  0  0  0
   -4.0128   59.4240   81.7922 H   0  0  0  0  0  0  0  0  0  0  0  0
    0.1942   62.5888   79.5092 H   0  0  0  0  0  0  0  0  0  0  0  0
   -0.1893   63.1952   83.3366 C   0  0  0  0  0  0  0  0  0  0  0  0
    0.3726   64.2975   83.9982 C   0  0  0  0  0  0  0  0  0  0  0  0
    0.6823   65.4692   83.3037 C   0  0  0  0  0  0  0  0  0  0  0  0
    0.4343   65.5573   81.9400 C   0  0  0  0  0  0  0  0  0  0  0  0
   -0.1278   64.4725   81.2685 C   0  0  0  0  0  0  0  0  0  0  0  0
   -0.4498   63.2836   81.9504 C   0  0  0  0  0  0  0  0  0  0  0  0
   -0.5078   62.0206   83.9717 O   0  0  0  0  0  0  0  0  0  0  0  0
   -0.8958   62.0756   85.3470 C   0  0  0  0  0  0  0  0  0  0  0  0
   -2.7884   62.9369   86.7959 C   0  0  0  0  0  0  0  0  0  0  0  0
   -2.3814   62.4231   85.4218 C   0  0  0  0  0  0  0  0  0  0  0  0
 21 22  1  0  0  0
 22 20  1  0  0  0
 20 19  1  0  0  0
 19 13  1  0  0  0
 13 14  2  0  0  0
 14 15  1  0  0  0
 15 16  2  0  0  0
 16 17  1  0  0  0
 17 18  2  0  0  0
 18  1  1  0  0  0
  1  2  2  0  0  0
  2  3  1  0  0  0
  3  4  1  0  0  0
  4  5  1  0  0  0
  5  6  2  0  0  0
  6  7  1  0  0  0
  7  8  1  0  0  0
  8  9  2  0  0  0
  8 10  1  0  0  0
 18 13  1  0  0  0
 10  1  1  0  0  0
  7  3  2  0  0  0
  4 11  1  0  0  0
 10 12  1  0  0  0
M  END
> <minimizedAffinity>
-8.00943

$$$$
