


 37 41  0  0  0  0  0  0  0  0999 V2000
   -1.0191   63.1696   80.9948 C   0  0  0  0  0  0  0  0  0  0  0  0
   -1.1033   62.8795   82.3148 N   0  0  0  0  0  0  0  0  0  0  0  0
   -1.7508   61.7603   82.7389 C   0  0  0  0  0  0  0  0  0  0  0  0
   -2.3068   60.9234   81.7595 C   0  0  0  0  0  0  0  0  0  0  0  0
   -2.9932   59.7271   81.8316 N   0  0  0  0  0  0  0  0  0  0  0  0
   -3.2569   59.4165   80.5788 C   0  0  0  0  0  0  0  0  0  0  0  0
   -2.7661   60.3517   79.7101 N   0  0  0  0  0  0  0  0  0  0  0  0
   -2.8693   60.3272   78.2756 C   0  0  0  0  0  0  0  0  0  0  0  0
   -2.1499   61.3232   80.4469 C   0  0  0  0  0  0  0  0  0  0  0  0
   -1.5281   62.4216   80.0007 N   0  0  0  0  0  0  0  0  0  0  0  0
   -0.3363   64.3563   80.7297 N   0  0  0  0  0  0  0  0  0  0  0  0
   -0.4764   64.5904   79.7570 H   0  0  0  0  0  0  0  0  0  0  0  0
    2.1791   66.9660   82.8849 C   0  0  0  0  0  0  0  0  0  0  0  0
    1.3048   66.1347   83.5846 C   0  0  0  0  0  0  0  0  0  0  0  0
    0.4667   65.2600   82.8830 C   0  0  0  0  0  0  0  0  0  0  0  0
    0.4714   65.2118   81.4841 C   0  0  0  0  0  0  0  0  0  0  0  0
    1.3376   66.0860   80.8030 C   0  0  0  0  0  0  0  0  0  0  0  0
    2.1805   66.9646   81.4909 C   0  0  0  0  0  0  0  0  0  0  0  0
    3.2357   68.0916   83.7743 S   0  0  0  0  0  0  0  0  0  0  0  0
    2.4983   68.5517   84.9323 O   0  0  0  0  0  0  0  0  0  0  0  0
    3.7772   69.0272   82.8108 O   0  0  0  0  0  0  0  0  0  0  0  0
    5.7220   65.5381   87.9281 C   0  0  0  0  0  0  0  0  0  0  0  0
    6.0917   65.9150   86.5662 N   0  0  0  0  0  0  0  0  0  0  0  0
    5.9081   67.3666   86.3585 C   0  0  0  0  0  0  0  0  0  0  0  0
    5.7126   67.7535   84.8809 C   0  0  0  0  0  0  0  0  0  0  0  0
    4.4989   67.1039   84.3108 N   0  0  0  0  0  0  0  0  0  0  0  0
    4.1298   65.8139   84.9554 C   0  0  0  0  0  0  0  0  0  0  0  0
    5.3677   65.1187   85.5538 C   0  0  0  0  0  0  0  0  0  0  0  0
   -1.8626   61.4675   84.1013 N   0  0  0  0  0  0  0  0  0  0  0  0
   -0.9560   61.1908   84.4747 H   0  0  0  0  0  0  0  0  0  0  0  0
   -2.5573   62.4718   84.8828 C   0  0  0  0  0  0  0  0  0  0  0  0
   -1.6930   62.8754   86.0551 C   0  0  0  0  0  0  0  0  0  0  0  0
   -2.1699   62.7692   87.3695 C   0  0  0  0  0  0  0  0  0  0  0  0
   -1.3674   63.1516   88.4461 C   0  0  0  0  0  0  0  0  0  0  0  0
   -0.0847   63.6482   88.2202 C   0  0  0  0  0  0  0  0  0  0  0  0
    0.3969   63.7667   86.9180 C   0  0  0  0  0  0  0  0  0  0  0  0
   -0.4033   63.3844   85.8406 C   0  0  0  0  0  0  0  0  0  0  0  0
 22 23  1  0  0  0
 23 24  1  0  0  0
 24 25  1  0  0  0
 25 26  1  0  0  0
 26 19  1  0  0  0
 19 20  2  0  0  0
 19 21  2  0  0  0
 19 13  1  0  0  0
 13 14  1  0  0  0
 14 15  2  0  0  0
 15 16  1  0  0  0
 16 11  1  0  0  0
 11  1  1  0  0  0
  1  2  2  0  0  0
  2  3  1  0  0  0
  3 29  1  0  0  0
 29 31  1  0  0  0
 31 32  1  0  0  0
 32 33  2  0  0  0
 33 34  1  0  0  0
 34 35  2  0  0  0
 35 36  1  0  0  0
 36 37  2  0  0  0
  3  4  2  0  0  0
  4  5  1  0  0  0
  5  6  2  0  0  0
  6  7  1  0  0  0
  7  8  1  0  0  0
  7  9  1  0  0  0
  9 10  2  0  0  0
 16 17  2  0  0  0
 17 18  1  0  0  0
 26 27  1  0  0  0
 27 28  1  0  0  0
 28 23  1  0  0  0
 18 13  2  0  0  0
 10  1  1  0  0  0
 37 32  1  0  0  0
  9  4  1  0  0  0
 11 12  1  0  0  0
 29 30  1  0  0  0
M  END
> <minimizedAffinity>
-11.57693

$$$$



 37 41  0  0  0  0  0  0  0  0999 V2000
   -1.1290   63.1802   79.5328 C   0  0  0  0  0  0  0  0  0  0  0  0
   -1.1439   63.0704   80.8824 N   0  0  0  0  0  0  0  0  0  0  0  0
   -1.7701   62.0240   81.4861 C   0  0  0  0  0  0  0  0  0  0  0  0
   -2.3785   61.0683   80.6583 C   0  0  0  0  0  0  0  0  0  0  0  0
   -3.0623   59.8986   80.9261 N   0  0  0  0  0  0  0  0  0  0  0  0
   -3.3922   59.4251   79.7418 C   0  0  0  0  0  0  0  0  0  0  0  0
   -2.9463   60.2310   78.7311 N   0  0  0  0  0  0  0  0  0  0  0  0
   -3.1251   60.0153   77.3201 C   0  0  0  0  0  0  0  0  0  0  0  0
   -2.2904   61.2871   79.2975 C   0  0  0  0  0  0  0  0  0  0  0  0
   -1.6911   62.3102   78.6760 N   0  0  0  0  0  0  0  0  0  0  0  0
   -0.4590   64.3145   79.0754 N   0  0  0  0  0  0  0  0  0  0  0  0
   -0.3293   64.2236   78.0777 H   0  0  0  0  0  0  0  0  0  0  0  0
    1.2353   67.7111   80.9128 C   0  0  0  0  0  0  0  0  0  0  0  0
   -0.1518   67.5665   80.9021 C   0  0  0  0  0  0  0  0  0  0  0  0
   -0.7286   66.4421   80.2998 C   0  0  0  0  0  0  0  0  0  0  0  0
    0.0582   65.4603   79.6863 C   0  0  0  0  0  0  0  0  0  0  0  0
    1.4520   65.6490   79.6808 C   0  0  0  0  0  0  0  0  0  0  0  0
    2.0417   66.7669   80.2791 C   0  0  0  0  0  0  0  0  0  0  0  0
    1.9716   69.1486   81.6649 S   0  0  0  0  0  0  0  0  0  0  0  0
    0.9264   70.1388   81.8176 O   0  0  0  0  0  0  0  0  0  0  0  0
    3.1837   69.4462   80.9307 O   0  0  0  0  0  0  0  0  0  0  0  0
    5.1856   65.9652   84.7459 C   0  0  0  0  0  0  0  0  0  0  0  0
    3.9260   66.6774   84.9455 N   0  0  0  0  0  0  0  0  0  0  0  0
    2.9302   66.2702   83.9323 C   0  0  0  0  0  0  0  0  0  0  0  0
    1.8322   67.3235   83.6956 C   0  0  0  0  0  0  0  0  0  0  0  0
    2.4127   68.6046   83.2038 N   0  0  0  0  0  0  0  0  0  0  0  0
    3.8140   68.8538   83.6398 C   0  0  0  0  0  0  0  0  0  0  0  0
    4.1149   68.1426   84.9730 C   0  0  0  0  0  0  0  0  0  0  0  0
   -1.8103   61.9175   82.8795 N   0  0  0  0  0  0  0  0  0  0  0  0
   -1.9818   60.9507   83.1511 H   0  0  0  0  0  0  0  0  0  0  0  0
   -0.7040   62.5521   83.5688 C   0  0  0  0  0  0  0  0  0  0  0  0
   -1.1024   62.8280   85.0003 C   0  0  0  0  0  0  0  0  0  0  0  0
   -0.1734   63.3367   85.9193 C   0  0  0  0  0  0  0  0  0  0  0  0
   -0.5481   63.5814   87.2419 C   0  0  0  0  0  0  0  0  0  0  0  0
   -1.8510   63.3155   87.6599 C   0  0  0  0  0  0  0  0  0  0  0  0
   -2.7807   62.8015   86.7580 C   0  0  0  0  0  0  0  0  0  0  0  0
   -2.4084   62.5569   85.4356 C   0  0  0  0  0  0  0  0  0  0  0  0
 22 23  1  0  0  0
 23 24  1  0  0  0
 24 25  1  0  0  0
 25 26  1  0  0  0
 26 19  1  0  0  0
 19 20  2  0  0  0
 19 21  2  0  0  0
 19 13  1  0  0  0
 13 14  1  0  0  0
 14 15  2  0  0  0
 15 16  1  0  0  0
 16 11  1  0  0  0
 11  1  1  0  0  0
  1  2  2  0  0  0
  2  3  1  0  0  0
  3 29  1  0  0  0
 29 31  1  0  0  0
 31 32  1  0  0  0
 32 33  2  0  0  0
 33 34  1  0  0  0
 34 35  2  0  0  0
 35 36  1  0  0  0
 36 37  2  0  0  0
  3  4  2  0  0  0
  4  5  1  0  0  0
  5  6  2  0  0  0
  6  7  1  0  0  0
  7  8  1  0  0  0
  7  9  1  0  0  0
  9 10  2  0  0  0
 16 17  2  0  0  0
 17 18  1  0  0  0
 26 27  1  0  0  0
 27 28  1  0  0  0
 28 23  1  0  0  0
 18 13  2  0  0  0
 10  1  1  0  0  0
 37 32  1  0  0  0
  9  4  1  0  0  0
 11 12  1  0  0  0
 29 30  1  0  0  0
M  END
> <minimizedAffinity>
-10.70903

$$$$



 37 41  0  0  0  0  0  0  0  0999 V2000
   -0.3882   63.8601   79.4519 C   0  0  0  0  0  0  0  0  0  0  0  0
   -0.1471   63.1085   80.5522 N   0  0  0  0  0  0  0  0  0  0  0  0
   -0.7187   61.8817   80.6927 C   0  0  0  0  0  0  0  0  0  0  0  0
   -1.5460   61.4297   79.6535 C   0  0  0  0  0  0  0  0  0  0  0  0
   -2.2487   60.2564   79.4604 N   0  0  0  0  0  0  0  0  0  0  0  0
   -2.8377   60.4075   78.2918 C   0  0  0  0  0  0  0  0  0  0  0  0
   -2.5396   61.6162   77.7259 N   0  0  0  0  0  0  0  0  0  0  0  0
   -3.0062   62.1072   76.4568 C   0  0  0  0  0  0  0  0  0  0  0  0
   -1.7096   62.2843   78.5810 C   0  0  0  0  0  0  0  0  0  0  0  0
   -1.1695   63.4985   78.4195 N   0  0  0  0  0  0  0  0  0  0  0  0
    0.2614   65.0940   79.4692 N   0  0  0  0  0  0  0  0  0  0  0  0
    0.2111   65.4902   78.5412 H   0  0  0  0  0  0  0  0  0  0  0  0
    2.2237   67.2691   82.5025 C   0  0  0  0  0  0  0  0  0  0  0  0
    2.6134   67.4522   81.1760 C   0  0  0  0  0  0  0  0  0  0  0  0
    1.9683   66.7404   80.1578 C   0  0  0  0  0  0  0  0  0  0  0  0
    0.9457   65.8278   80.4421 C   0  0  0  0  0  0  0  0  0  0  0  0
    0.5970   65.6367   81.7913 C   0  0  0  0  0  0  0  0  0  0  0  0
    1.2324   66.3413   82.8185 C   0  0  0  0  0  0  0  0  0  0  0  0
    3.0533   68.1619   83.8021 S   0  0  0  0  0  0  0  0  0  0  0  0
    2.1402   68.2396   84.9231 O   0  0  0  0  0  0  0  0  0  0  0  0
    3.6177   69.3575   83.2116 O   0  0  0  0  0  0  0  0  0  0  0  0
    5.8772   65.6197   87.7416 C   0  0  0  0  0  0  0  0  0  0  0  0
    6.1110   65.9450   86.3369 N   0  0  0  0  0  0  0  0  0  0  0  0
    5.9609   67.3969   86.1056 C   0  0  0  0  0  0  0  0  0  0  0  0
    5.6211   67.7521   84.6463 C   0  0  0  0  0  0  0  0  0  0  0  0
    4.3290   67.1379   84.2301 N   0  0  0  0  0  0  0  0  0  0  0  0
    3.9835   65.8817   84.9499 C   0  0  0  0  0  0  0  0  0  0  0  0
    5.2518   65.1525   85.4330 C   0  0  0  0  0  0  0  0  0  0  0  0
   -0.4936   61.1109   81.8372 N   0  0  0  0  0  0  0  0  0  0  0  0
   -0.1890   60.1751   81.5737 H   0  0  0  0  0  0  0  0  0  0  0  0
    0.3247   61.7508   82.8485 C   0  0  0  0  0  0  0  0  0  0  0  0
   -0.5490   62.1525   84.0144 C   0  0  0  0  0  0  0  0  0  0  0  0
   -0.0174   62.8655   85.0985 C   0  0  0  0  0  0  0  0  0  0  0  0
   -0.8302   63.2258   86.1750 C   0  0  0  0  0  0  0  0  0  0  0  0
   -2.1787   62.8731   86.1815 C   0  0  0  0  0  0  0  0  0  0  0  0
   -2.7165   62.1568   85.1140 C   0  0  0  0  0  0  0  0  0  0  0  0
   -1.9060   61.7963   84.0367 C   0  0  0  0  0  0  0  0  0  0  0  0
 22 23  1  0  0  0
 23 24  1  0  0  0
 24 25  1  0  0  0
 25 26  1  0  0  0
 26 19  1  0  0  0
 19 20  2  0  0  0
 19 21  2  0  0  0
 19 13  1  0  0  0
 13 14  1  0  0  0
 14 15  2  0  0  0
 15 16  1  0  0  0
 16 11  1  0  0  0
 11  1  1  0  0  0
  1  2  2  0  0  0
  2  3  1  0  0  0
  3 29  1  0  0  0
 29 31  1  0  0  0
 31 32  1  0  0  0
 32 33  2  0  0  0
 33 34  1  0  0  0
 34 35  2  0  0  0
 35 36  1  0  0  0
 36 37  2  0  0  0
  3  4  2  0  0  0
  4  5  1  0  0  0
  5  6  2  0  0  0
  6  7  1  0  0  0
  7  8  1  0  0  0
  7  9  1  0  0  0
  9 10  2  0  0  0
 16 17  2  0  0  0
 17 18  1  0  0  0
 26 27  1  0  0  0
 27 28  1  0  0  0
 28 23  1  0  0  0
 18 13  2  0  0  0
 10  1  1  0  0  0
 37 32  1  0  0  0
  9  4  1  0  0  0
 11 12  1  0  0  0
 29 30  1  0  0  0
M  END
> <minimizedAffinity>
-10.55278

$$$$



 37 41  0  0  0  0  0  0  0  0999 V2000
    1.5710   66.3146   79.9272 C   0  0  0  0  0  0  0  0  0  0  0  0
    1.2666   65.7239   81.1070 N   0  0  0  0  0  0  0  0  0  0  0  0
    1.4134   66.3995   82.2790 C   0  0  0  0  0  0  0  0  0  0  0  0
    1.8737   67.7232   82.2102 C   0  0  0  0  0  0  0  0  0  0  0  0
    2.1089   68.6829   83.1752 N   0  0  0  0  0  0  0  0  0  0  0  0
    2.5275   69.7366   82.5043 C   0  0  0  0  0  0  0  0  0  0  0  0
    2.5638   69.4993   81.1580 N   0  0  0  0  0  0  0  0  0  0  0  0
    2.9656   70.4266   80.1345 C   0  0  0  0  0  0  0  0  0  0  0  0
    2.1443   68.2161   80.9488 C   0  0  0  0  0  0  0  0  0  0  0  0
    2.0195   67.5734   79.7811 N   0  0  0  0  0  0  0  0  0  0  0  0
    1.3782   65.4834   78.8241 N   0  0  0  0  0  0  0  0  0  0  0  0
    2.0932   65.6935   78.1419 H   0  0  0  0  0  0  0  0  0  0  0  0
   -1.5416   62.6355   77.7533 C   0  0  0  0  0  0  0  0  0  0  0  0
   -0.4853   62.2473   78.5771 C   0  0  0  0  0  0  0  0  0  0  0  0
    0.4892   63.1827   78.9445 C   0  0  0  0  0  0  0  0  0  0  0  0
    0.4395   64.5045   78.4867 C   0  0  0  0  0  0  0  0  0  0  0  0
   -0.6171   64.8596   77.6289 C   0  0  0  0  0  0  0  0  0  0  0  0
   -1.5978   63.9358   77.2541 C   0  0  0  0  0  0  0  0  0  0  0  0
   -2.7749   61.4435   77.2712 S   0  0  0  0  0  0  0  0  0  0  0  0
   -2.0765   60.2550   76.8285 O   0  0  0  0  0  0  0  0  0  0  0  0
   -3.7176   62.1236   76.4077 O   0  0  0  0  0  0  0  0  0  0  0  0
   -2.4529   60.5946   82.6687 C   0  0  0  0  0  0  0  0  0  0  0  0
   -3.4381   60.3146   81.6272 N   0  0  0  0  0  0  0  0  0  0  0  0
   -2.8328   59.5235   80.5355 C   0  0  0  0  0  0  0  0  0  0  0  0
   -3.5715   59.6689   79.1922 C   0  0  0  0  0  0  0  0  0  0  0  0
   -3.5622   61.0832   78.7236 N   0  0  0  0  0  0  0  0  0  0  0  0
   -3.4786   62.0933   79.8138 C   0  0  0  0  0  0  0  0  0  0  0  0
   -4.0790   61.5470   81.1233 C   0  0  0  0  0  0  0  0  0  0  0  0
    1.1244   65.7876   83.5023 N   0  0  0  0  0  0  0  0  0  0  0  0
    0.6089   66.4306   84.1013 H   0  0  0  0  0  0  0  0  0  0  0  0
    0.5441   64.4632   83.3962 C   0  0  0  0  0  0  0  0  0  0  0  0
    0.0300   64.0355   84.7515 C   0  0  0  0  0  0  0  0  0  0  0  0
    0.6153   64.5234   85.9287 C   0  0  0  0  0  0  0  0  0  0  0  0
    0.1390   64.1169   87.1766 C   0  0  0  0  0  0  0  0  0  0  0  0
   -0.9214   63.2161   87.2605 C   0  0  0  0  0  0  0  0  0  0  0  0
   -1.5054   62.7174   86.0977 C   0  0  0  0  0  0  0  0  0  0  0  0
   -1.0313   63.1230   84.8495 C   0  0  0  0  0  0  0  0  0  0  0  0
 22 23  1  0  0  0
 23 24  1  0  0  0
 24 25  1  0  0  0
 25 26  1  0  0  0
 26 19  1  0  0  0
 19 20  2  0  0  0
 19 21  2  0  0  0
 19 13  1  0  0  0
 13 14  1  0  0  0
 14 15  2  0  0  0
 15 16  1  0  0  0
 16 11  1  0  0  0
 11  1  1  0  0  0
  1  2  2  0  0  0
  2  3  1  0  0  0
  3 29  1  0  0  0
 29 31  1  0  0  0
 31 32  1  0  0  0
 32 33  2  0  0  0
 33 34  1  0  0  0
 34 35  2  0  0  0
 35 36  1  0  0  0
 36 37  2  0  0  0
  3  4  2  0  0  0
  4  5  1  0  0  0
  5  6  2  0  0  0
  6  7  1  0  0  0
  7  8  1  0  0  0
  7  9  1  0  0  0
  9 10  2  0  0  0
 16 17  2  0  0  0
 17 18  1  0  0  0
 26 27  1  0  0  0
 27 28  1  0  0  0
 28 23  1  0  0  0
 18 13  2  0  0  0
 10  1  1  0  0  0
 37 32  1  0  0  0
  9  4  1  0  0  0
 11 12  1  0  0  0
 29 30  1  0  0  0
M  END
> <minimizedAffinity>
-10.55247

$$$$



 37 41  0  0  0  0  0  0  0  0999 V2000
    0.3968   64.0852   84.8052 C   0  0  0  0  0  0  0  0  0  0  0  0
   -0.2970   63.5616   83.7669 N   0  0  0  0  0  0  0  0  0  0  0  0
   -1.3952   62.7887   83.9863 C   0  0  0  0  0  0  0  0  0  0  0  0
   -1.7804   62.5738   85.3183 C   0  0  0  0  0  0  0  0  0  0  0  0
   -2.8297   61.8796   85.8881 N   0  0  0  0  0  0  0  0  0  0  0  0
   -2.6726   62.0414   87.1860 C   0  0  0  0  0  0  0  0  0  0  0  0
   -1.5790   62.8109   87.4726 N   0  0  0  0  0  0  0  0  0  0  0  0
   -1.1163   63.1899   88.7808 C   0  0  0  0  0  0  0  0  0  0  0  0
   -0.9963   63.1657   86.2890 C   0  0  0  0  0  0  0  0  0  0  0  0
    0.0933   63.9213   86.1044 N   0  0  0  0  0  0  0  0  0  0  0  0
    1.5011   64.8400   84.4106 N   0  0  0  0  0  0  0  0  0  0  0  0
    2.3257   64.4378   84.8335 H   0  0  0  0  0  0  0  0  0  0  0  0
    2.0542   68.3612   82.1571 C   0  0  0  0  0  0  0  0  0  0  0  0
    1.5481   67.2248   81.5266 C   0  0  0  0  0  0  0  0  0  0  0  0
    1.3550   66.0498   82.2627 C   0  0  0  0  0  0  0  0  0  0  0  0
    1.6775   65.9811   83.6231 C   0  0  0  0  0  0  0  0  0  0  0  0
    2.2190   67.1312   84.2251 C   0  0  0  0  0  0  0  0  0  0  0  0
    2.4168   68.3118   83.5022 C   0  0  0  0  0  0  0  0  0  0  0  0
    2.3157   69.8535   81.2196 S   0  0  0  0  0  0  0  0  0  0  0  0
    1.9651   69.5661   79.8445 O   0  0  0  0  0  0  0  0  0  0  0  0
    3.6276   70.3575   81.5684 O   0  0  0  0  0  0  0  0  0  0  0  0
   -0.3500   74.6160   80.8088 C   0  0  0  0  0  0  0  0  0  0  0  0
   -0.1326   73.6319   81.8661 N   0  0  0  0  0  0  0  0  0  0  0  0
    1.3121   73.4035   82.0772 C   0  0  0  0  0  0  0  0  0  0  0  0
    1.6291   72.0376   82.7136 C   0  0  0  0  0  0  0  0  0  0  0  0
    1.1625   70.9190   81.8470 N   0  0  0  0  0  0  0  0  0  0  0  0
    0.0005   71.2550   80.9794 C   0  0  0  0  0  0  0  0  0  0  0  0
   -0.8568   72.3702   81.6078 C   0  0  0  0  0  0  0  0  0  0  0  0
   -2.1018   62.2248   82.9199 N   0  0  0  0  0  0  0  0  0  0  0  0
   -2.8814   62.8271   82.6600 H   0  0  0  0  0  0  0  0  0  0  0  0
   -1.2783   61.7889   81.8092 C   0  0  0  0  0  0  0  0  0  0  0  0
   -2.0851   61.8613   80.5333 C   0  0  0  0  0  0  0  0  0  0  0  0
   -1.4896   62.2611   79.3284 C   0  0  0  0  0  0  0  0  0  0  0  0
   -2.2443   62.3327   78.1559 C   0  0  0  0  0  0  0  0  0  0  0  0
   -3.6005   62.0113   78.1769 C   0  0  0  0  0  0  0  0  0  0  0  0
   -4.2055   61.6212   79.3701 C   0  0  0  0  0  0  0  0  0  0  0  0
   -3.4528   61.5484   80.5428 C   0  0  0  0  0  0  0  0  0  0  0  0
 22 23  1  0  0  0
 23 24  1  0  0  0
 24 25  1  0  0  0
 25 26  1  0  0  0
 26 19  1  0  0  0
 19 20  2  0  0  0
 19 21  2  0  0  0
 19 13  1  0  0  0
 13 14  1  0  0  0
 14 15  2  0  0  0
 15 16  1  0  0  0
 16 11  1  0  0  0
 11  1  1  0  0  0
  1  2  2  0  0  0
  2  3  1  0  0  0
  3 29  1  0  0  0
 29 31  1  0  0  0
 31 32  1  0  0  0
 32 33  2  0  0  0
 33 34  1  0  0  0
 34 35  2  0  0  0
 35 36  1  0  0  0
 36 37  2  0  0  0
  3  4  2  0  0  0
  4  5  1  0  0  0
  5  6  2  0  0  0
  6  7  1  0  0  0
  7  8  1  0  0  0
  7  9  1  0  0  0
  9 10  2  0  0  0
 16 17  2  0  0  0
 17 18  1  0  0  0
 26 27  1  0  0  0
 27 28  1  0  0  0
 28 23  1  0  0  0
 18 13  2  0  0  0
 10  1  1  0  0  0
 37 32  1  0  0  0
  9  4  1  0  0  0
 11 12  1  0  0  0
 29 30  1  0  0  0
M  END
> <minimizedAffinity>
-10.32143

$$$$



 37 41  0  0  0  0  0  0  0  0999 V2000
    1.4670   68.3393   80.3554 C   0  0  0  0  0  0  0  0  0  0  0  0
    2.3967   68.1983   81.3297 N   0  0  0  0  0  0  0  0  0  0  0  0
    2.5859   69.1783   82.2546 C   0  0  0  0  0  0  0  0  0  0  0  0
    1.7750   70.3198   82.1640 C   0  0  0  0  0  0  0  0  0  0  0  0
    1.6839   71.4654   82.9299 N   0  0  0  0  0  0  0  0  0  0  0  0
    0.7336   72.1760   82.3575 C   0  0  0  0  0  0  0  0  0  0  0  0
    0.2085   71.5370   81.2684 N   0  0  0  0  0  0  0  0  0  0  0  0
   -0.8435   72.0210   80.4151 C   0  0  0  0  0  0  0  0  0  0  0  0
    0.8595   70.3439   81.1303 C   0  0  0  0  0  0  0  0  0  0  0  0
    0.6577   69.4015   80.2011 N   0  0  0  0  0  0  0  0  0  0  0  0
    1.4088   67.2535   79.4822 N   0  0  0  0  0  0  0  0  0  0  0  0
    1.9231   67.4928   78.6463 H   0  0  0  0  0  0  0  0  0  0  0  0
   -0.4858   63.4943   79.7304 C   0  0  0  0  0  0  0  0  0  0  0  0
    0.4380   63.7223   78.7109 C   0  0  0  0  0  0  0  0  0  0  0  0
    1.0782   64.9638   78.6182 C   0  0  0  0  0  0  0  0  0  0  0  0
    0.7979   65.9970   79.5201 C   0  0  0  0  0  0  0  0  0  0  0  0
   -0.1636   65.7514   80.5168 C   0  0  0  0  0  0  0  0  0  0  0  0
   -0.8104   64.5160   80.6215 C   0  0  0  0  0  0  0  0  0  0  0  0
   -1.3138   61.9206   79.8416 S   0  0  0  0  0  0  0  0  0  0  0  0
   -0.5588   60.9785   79.0424 O   0  0  0  0  0  0  0  0  0  0  0  0
   -2.7209   62.1552   79.5927 O   0  0  0  0  0  0  0  0  0  0  0  0
   -0.3414   63.4892   84.9943 C   0  0  0  0  0  0  0  0  0  0  0  0
   -0.3203   62.2208   84.2701 N   0  0  0  0  0  0  0  0  0  0  0  0
    0.5787   62.3031   83.1000 C   0  0  0  0  0  0  0  0  0  0  0  0
    0.2423   61.2827   81.9970 C   0  0  0  0  0  0  0  0  0  0  0  0
   -1.1343   61.4961   81.4684 N   0  0  0  0  0  0  0  0  0  0  0  0
   -2.0802   62.1078   82.4415 C   0  0  0  0  0  0  0  0  0  0  0  0
   -1.6771   61.7753   83.8908 C   0  0  0  0  0  0  0  0  0  0  0  0
    3.5607   69.0498   83.2485 N   0  0  0  0  0  0  0  0  0  0  0  0
    3.8543   69.9706   83.5709 H   0  0  0  0  0  0  0  0  0  0  0  0
    3.2289   68.1162   84.3068 C   0  0  0  0  0  0  0  0  0  0  0  0
    4.4331   67.2524   84.6035 C   0  0  0  0  0  0  0  0  0  0  0  0
    5.7297   67.7060   84.3219 C   0  0  0  0  0  0  0  0  0  0  0  0
    6.8360   66.8983   84.5921 C   0  0  0  0  0  0  0  0  0  0  0  0
    6.6577   65.6291   85.1402 C   0  0  0  0  0  0  0  0  0  0  0  0
    5.3734   65.1638   85.4162 C   0  0  0  0  0  0  0  0  0  0  0  0
    4.2665   65.9698   85.1475 C   0  0  0  0  0  0  0  0  0  0  0  0
 22 23  1  0  0  0
 23 24  1  0  0  0
 24 25  1  0  0  0
 25 26  1  0  0  0
 26 19  1  0  0  0
 19 20  2  0  0  0
 19 21  2  0  0  0
 19 13  1  0  0  0
 13 14  1  0  0  0
 14 15  2  0  0  0
 15 16  1  0  0  0
 16 11  1  0  0  0
 11  1  1  0  0  0
  1  2  2  0  0  0
  2  3  1  0  0  0
  3 29  1  0  0  0
 29 31  1  0  0  0
 31 32  1  0  0  0
 32 33  2  0  0  0
 33 34  1  0  0  0
 34 35  2  0  0  0
 35 36  1  0  0  0
 36 37  2  0  0  0
  3  4  2  0  0  0
  4  5  1  0  0  0
  5  6  2  0  0  0
  6  7  1  0  0  0
  7  8  1  0  0  0
  7  9  1  0  0  0
  9 10  2  0  0  0
 16 17  2  0  0  0
 17 18  1  0  0  0
 26 27  1  0  0  0
 27 28  1  0  0  0
 28 23  1  0  0  0
 18 13  2  0  0  0
 10  1  1  0  0  0
 37 32  1  0  0  0
  9  4  1  0  0  0
 11 12  1  0  0  0
 29 30  1  0  0  0
M  END
> <minimizedAffinity>
-10.30238

$$$$



 37 41  0  0  0  0  0  0  0  0999 V2000
   -0.7385   63.4878   80.0185 C   0  0  0  0  0  0  0  0  0  0  0  0
   -1.0931   63.5891   81.3214 N   0  0  0  0  0  0  0  0  0  0  0  0
   -1.9917   62.7237   81.8648 C   0  0  0  0  0  0  0  0  0  0  0  0
   -2.5161   61.7254   81.0297 C   0  0  0  0  0  0  0  0  0  0  0  0
   -3.4072   60.6938   81.2511 N   0  0  0  0  0  0  0  0  0  0  0  0
   -3.5084   60.0834   80.0880 C   0  0  0  0  0  0  0  0  0  0  0  0
   -2.7199   60.6700   79.1370 N   0  0  0  0  0  0  0  0  0  0  0  0
   -2.5840   60.2612   77.7646 C   0  0  0  0  0  0  0  0  0  0  0  0
   -2.0726   61.7214   79.7218 C   0  0  0  0  0  0  0  0  0  0  0  0
   -1.1989   62.5641   79.1572 N   0  0  0  0  0  0  0  0  0  0  0  0
    0.1798   64.4571   79.6161 N   0  0  0  0  0  0  0  0  0  0  0  0
    0.4612   64.2509   78.6680 H   0  0  0  0  0  0  0  0  0  0  0  0
    2.0326   67.8245   81.3512 C   0  0  0  0  0  0  0  0  0  0  0  0
    1.3232   66.9445   82.1680 C   0  0  0  0  0  0  0  0  0  0  0  0
    0.7064   65.8199   81.6070 C   0  0  0  0  0  0  0  0  0  0  0  0
    0.7690   65.5647   80.2321 C   0  0  0  0  0  0  0  0  0  0  0  0
    1.4611   66.4873   79.4271 C   0  0  0  0  0  0  0  0  0  0  0  0
    2.0823   67.6145   79.9739 C   0  0  0  0  0  0  0  0  0  0  0  0
    2.8055   69.2650   82.0597 S   0  0  0  0  0  0  0  0  0  0  0  0
    3.6257   69.8657   81.0288 O   0  0  0  0  0  0  0  0  0  0  0  0
    3.3726   68.8683   83.3317 O   0  0  0  0  0  0  0  0  0  0  0  0
   -0.3540   73.4138   80.3983 C   0  0  0  0  0  0  0  0  0  0  0  0
   -0.0903   72.7512   81.6730 N   0  0  0  0  0  0  0  0  0  0  0  0
    1.3557   72.7630   81.9778 C   0  0  0  0  0  0  0  0  0  0  0  0
    1.7868   71.6432   82.9429 C   0  0  0  0  0  0  0  0  0  0  0  0
    1.5032   70.2984   82.3676 N   0  0  0  0  0  0  0  0  0  0  0  0
    0.3649   70.2658   81.4089 C   0  0  0  0  0  0  0  0  0  0  0  0
   -0.6498   71.3842   81.7144 C   0  0  0  0  0  0  0  0  0  0  0  0
   -2.3807   62.8377   83.2027 N   0  0  0  0  0  0  0  0  0  0  0  0
   -3.3953   62.7831   83.2774 H   0  0  0  0  0  0  0  0  0  0  0  0
   -1.6598   61.9768   84.1198 C   0  0  0  0  0  0  0  0  0  0  0  0
   -0.9883   62.8253   85.1748 C   0  0  0  0  0  0  0  0  0  0  0  0
    0.0079   63.7490   84.8271 C   0  0  0  0  0  0  0  0  0  0  0  0
    0.6285   64.5233   85.8093 C   0  0  0  0  0  0  0  0  0  0  0  0
    0.2643   64.3788   87.1470 C   0  0  0  0  0  0  0  0  0  0  0  0
   -0.7181   63.4579   87.5059 C   0  0  0  0  0  0  0  0  0  0  0  0
   -1.3400   62.6835   86.5257 C   0  0  0  0  0  0  0  0  0  0  0  0
 22 23  1  0  0  0
 23 24  1  0  0  0
 24 25  1  0  0  0
 25 26  1  0  0  0
 26 19  1  0  0  0
 19 20  2  0  0  0
 19 21  2  0  0  0
 19 13  1  0  0  0
 13 14  1  0  0  0
 14 15  2  0  0  0
 15 16  1  0  0  0
 16 11  1  0  0  0
 11  1  1  0  0  0
  1  2  2  0  0  0
  2  3  1  0  0  0
  3 29  1  0  0  0
 29 31  1  0  0  0
 31 32  1  0  0  0
 32 33  2  0  0  0
 33 34  1  0  0  0
 34 35  2  0  0  0
 35 36  1  0  0  0
 36 37  2  0  0  0
  3  4  2  0  0  0
  4  5  1  0  0  0
  5  6  2  0  0  0
  6  7  1  0  0  0
  7  8  1  0  0  0
  7  9  1  0  0  0
  9 10  2  0  0  0
 16 17  2  0  0  0
 17 18  1  0  0  0
 26 27  1  0  0  0
 27 28  1  0  0  0
 28 23  1  0  0  0
 18 13  2  0  0  0
 10  1  1  0  0  0
 37 32  1  0  0  0
  9  4  1  0  0  0
 11 12  1  0  0  0
 29 30  1  0  0  0
M  END
> <minimizedAffinity>
-10.25290

$$$$



 37 41  0  0  0  0  0  0  0  0999 V2000
    1.8668   65.6916   84.6526 C   0  0  0  0  0  0  0  0  0  0  0  0
    1.5517   66.7979   83.9382 N   0  0  0  0  0  0  0  0  0  0  0  0
    2.4970   67.7364   83.6603 C   0  0  0  0  0  0  0  0  0  0  0  0
    3.7991   67.5025   84.1278 C   0  0  0  0  0  0  0  0  0  0  0  0
    4.9771   68.2137   84.0098 N   0  0  0  0  0  0  0  0  0  0  0  0
    5.8709   67.4900   84.6524 C   0  0  0  0  0  0  0  0  0  0  0  0
    5.3231   66.3481   85.1683 N   0  0  0  0  0  0  0  0  0  0  0  0
    6.0092   65.3322   85.9209 C   0  0  0  0  0  0  0  0  0  0  0  0
    3.9972   66.3354   84.8392 C   0  0  0  0  0  0  0  0  0  0  0  0
    3.0866   65.4001   85.1364 N   0  0  0  0  0  0  0  0  0  0  0  0
    0.7837   64.8384   84.8613 N   0  0  0  0  0  0  0  0  0  0  0  0
    0.5300   64.8835   85.8382 H   0  0  0  0  0  0  0  0  0  0  0  0
   -1.4876   62.3386   82.3363 C   0  0  0  0  0  0  0  0  0  0  0  0
   -0.9046   61.7966   83.4815 C   0  0  0  0  0  0  0  0  0  0  0  0
   -0.1515   62.6150   84.3316 C   0  0  0  0  0  0  0  0  0  0  0  0
    0.0482   63.9713   84.0485 C   0  0  0  0  0  0  0  0  0  0  0  0
   -0.5215   64.4834   82.8689 C   0  0  0  0  0  0  0  0  0  0  0  0
   -1.2766   63.6777   82.0109 C   0  0  0  0  0  0  0  0  0  0  0  0
   -2.4336   61.2962   81.2442 S   0  0  0  0  0  0  0  0  0  0  0  0
   -3.6565   62.0028   80.9252 O   0  0  0  0  0  0  0  0  0  0  0  0
   -2.4646   59.9727   81.8309 O   0  0  0  0  0  0  0  0  0  0  0  0
   -0.5428   63.7957   76.7571 C   0  0  0  0  0  0  0  0  0  0  0  0
   -0.6356   62.4127   77.2181 N   0  0  0  0  0  0  0  0  0  0  0  0
   -2.0320   62.0687   77.5581 C   0  0  0  0  0  0  0  0  0  0  0  0
   -2.1492   60.9002   78.5542 C   0  0  0  0  0  0  0  0  0  0  0  0
   -1.4841   61.2266   79.8469 N   0  0  0  0  0  0  0  0  0  0  0  0
   -0.3627   62.1991   79.7349 C   0  0  0  0  0  0  0  0  0  0  0  0
    0.2870   62.1381   78.3392 C   0  0  0  0  0  0  0  0  0  0  0  0
    2.1730   68.8926   82.9442 N   0  0  0  0  0  0  0  0  0  0  0  0
    2.5226   69.7155   83.4327 H   0  0  0  0  0  0  0  0  0  0  0  0
    2.4993   68.8435   81.5325 C   0  0  0  0  0  0  0  0  0  0  0  0
    1.5338   67.9164   80.8308 C   0  0  0  0  0  0  0  0  0  0  0  0
    1.9859   66.7406   80.2147 C   0  0  0  0  0  0  0  0  0  0  0  0
    1.0880   65.8939   79.5620 C   0  0  0  0  0  0  0  0  0  0  0  0
   -0.2674   66.2156   79.5137 C   0  0  0  0  0  0  0  0  0  0  0  0
   -0.7273   67.3858   80.1147 C   0  0  0  0  0  0  0  0  0  0  0  0
    0.1684   68.2332   80.7681 C   0  0  0  0  0  0  0  0  0  0  0  0
 22 23  1  0  0  0
 23 24  1  0  0  0
 24 25  1  0  0  0
 25 26  1  0  0  0
 26 19  1  0  0  0
 19 20  2  0  0  0
 19 21  2  0  0  0
 19 13  1  0  0  0
 13 14  1  0  0  0
 14 15  2  0  0  0
 15 16  1  0  0  0
 16 11  1  0  0  0
 11  1  1  0  0  0
  1  2  2  0  0  0
  2  3  1  0  0  0
  3 29  1  0  0  0
 29 31  1  0  0  0
 31 32  1  0  0  0
 32 33  2  0  0  0
 33 34  1  0  0  0
 34 35  2  0  0  0
 35 36  1  0  0  0
 36 37  2  0  0  0
  3  4  2  0  0  0
  4  5  1  0  0  0
  5  6  2  0  0  0
  6  7  1  0  0  0
  7  8  1  0  0  0
  7  9  1  0  0  0
  9 10  2  0  0  0
 16 17  2  0  0  0
 17 18  1  0  0  0
 26 27  1  0  0  0
 27 28  1  0  0  0
 28 23  1  0  0  0
 18 13  2  0  0  0
 10  1  1  0  0  0
 37 32  1  0  0  0
  9  4  1  0  0  0
 11 12  1  0  0  0
 29 30  1  0  0  0
M  END
> <minimizedAffinity>
-10.16475

$$$$



 37 41  0  0  0  0  0  0  0  0999 V2000
    0.9391   64.7546   85.2116 C   0  0  0  0  0  0  0  0  0  0  0  0
    0.5190   64.1614   84.0691 N   0  0  0  0  0  0  0  0  0  0  0  0
   -0.3871   63.1470   84.1071 C   0  0  0  0  0  0  0  0  0  0  0  0
   -0.8720   62.7584   85.3652 C   0  0  0  0  0  0  0  0  0  0  0  0
   -1.7923   61.8073   85.7598 N   0  0  0  0  0  0  0  0  0  0  0  0
   -1.8375   61.9095   87.0725 C   0  0  0  0  0  0  0  0  0  0  0  0
   -0.9970   62.8843   87.5346 N   0  0  0  0  0  0  0  0  0  0  0  0
   -0.7994   63.2660   88.9073 C   0  0  0  0  0  0  0  0  0  0  0  0
   -0.3724   63.4431   86.4557 C   0  0  0  0  0  0  0  0  0  0  0  0
    0.5251   64.4363   86.4502 N   0  0  0  0  0  0  0  0  0  0  0  0
    1.8768   65.7650   85.0002 N   0  0  0  0  0  0  0  0  0  0  0  0
    2.5499   65.7333   85.7529 H   0  0  0  0  0  0  0  0  0  0  0  0
    2.4043   68.8699   82.1959 C   0  0  0  0  0  0  0  0  0  0  0  0
    1.8457   67.6633   81.7750 C   0  0  0  0  0  0  0  0  0  0  0  0
    1.6604   66.6249   82.6954 C   0  0  0  0  0  0  0  0  0  0  0  0
    2.0423   66.7623   84.0351 C   0  0  0  0  0  0  0  0  0  0  0  0
    2.6353   67.9768   84.4243 C   0  0  0  0  0  0  0  0  0  0  0  0
    2.8260   69.0226   83.5159 C   0  0  0  0  0  0  0  0  0  0  0  0
    2.6558   70.1878   81.0236 S   0  0  0  0  0  0  0  0  0  0  0  0
    2.2512   69.6927   79.7246 O   0  0  0  0  0  0  0  0  0  0  0  0
    3.9873   70.7124   81.2438 O   0  0  0  0  0  0  0  0  0  0  0  0
   -1.2224   73.7965   79.6478 C   0  0  0  0  0  0  0  0  0  0  0  0
   -0.3779   73.5706   80.8180 N   0  0  0  0  0  0  0  0  0  0  0  0
    1.0502   73.5678   80.4381 C   0  0  0  0  0  0  0  0  0  0  0  0
    1.9448   72.7967   81.4261 C   0  0  0  0  0  0  0  0  0  0  0  0
    1.5432   71.3643   81.5103 N   0  0  0  0  0  0  0  0  0  0  0  0
    0.1068   71.1086   81.2152 C   0  0  0  0  0  0  0  0  0  0  0  0
   -0.7555   72.3416   81.5464 C   0  0  0  0  0  0  0  0  0  0  0  0
   -0.8066   62.5138   82.9335 N   0  0  0  0  0  0  0  0  0  0  0  0
   -1.3046   61.6541   83.1592 H   0  0  0  0  0  0  0  0  0  0  0  0
   -1.4880   63.3768   81.9886 C   0  0  0  0  0  0  0  0  0  0  0  0
   -0.6545   63.4961   80.7335 C   0  0  0  0  0  0  0  0  0  0  0  0
   -0.3178   64.7533   80.2114 C   0  0  0  0  0  0  0  0  0  0  0  0
    0.4460   64.8541   79.0470 C   0  0  0  0  0  0  0  0  0  0  0  0
    0.8757   63.7018   78.3909 C   0  0  0  0  0  0  0  0  0  0  0  0
    0.5399   62.4469   78.8952 C   0  0  0  0  0  0  0  0  0  0  0  0
   -0.2229   62.3439   80.0591 C   0  0  0  0  0  0  0  0  0  0  0  0
 22 23  1  0  0  0
 23 24  1  0  0  0
 24 25  1  0  0  0
 25 26  1  0  0  0
 26 19  1  0  0  0
 19 20  2  0  0  0
 19 21  2  0  0  0
 19 13  1  0  0  0
 13 14  1  0  0  0
 14 15  2  0  0  0
 15 16  1  0  0  0
 16 11  1  0  0  0
 11  1  1  0  0  0
  1  2  2  0  0  0
  2  3  1  0  0  0
  3 29  1  0  0  0
 29 31  1  0  0  0
 31 32  1  0  0  0
 32 33  2  0  0  0
 33 34  1  0  0  0
 34 35  2  0  0  0
 35 36  1  0  0  0
 36 37  2  0  0  0
  3  4  2  0  0  0
  4  5  1  0  0  0
  5  6  2  0  0  0
  6  7  1  0  0  0
  7  8  1  0  0  0
  7  9  1  0  0  0
  9 10  2  0  0  0
 16 17  2  0  0  0
 17 18  1  0  0  0
 26 27  1  0  0  0
 27 28  1  0  0  0
 28 23  1  0  0  0
 18 13  2  0  0  0
 10  1  1  0  0  0
 37 32  1  0  0  0
  9  4  1  0  0  0
 11 12  1  0  0  0
 29 30  1  0  0  0
M  END
> <minimizedAffinity>
-10.16385

$$$$
