


 36 40  0  0  0  0  0  0  0  0999 V2000
    0.5287   65.2077   81.5175 C   0  0  0  0  0  0  0  0  0  0  0  0
    0.0315   64.2811   80.6693 N   0  0  0  0  0  0  0  0  0  0  0  0
    0.2299   64.4647   79.3545 C   0  0  0  0  0  0  0  0  0  0  0  0
    0.8925   65.5253   78.8682 N   0  0  0  0  0  0  0  0  0  0  0  0
    1.3681   66.4325   79.7514 C   0  0  0  0  0  0  0  0  0  0  0  0
    1.2114   66.3344   81.1134 C   0  0  0  0  0  0  0  0  0  0  0  0
   -0.2352   63.5138   78.4777 N   0  0  0  0  0  0  0  0  0  0  0  0
    0.7248   62.6646   77.7921 C   0  0  0  0  0  0  0  0  0  0  0  0
   -0.1622   61.6506   77.0674 C   0  0  0  0  0  0  0  0  0  0  0  0
   -1.3746   61.5484   77.9565 C   0  0  0  0  0  0  0  0  0  0  0  0
   -2.6465   60.9173   77.4332 C   0  0  0  0  0  0  0  0  0  0  0  0
   -1.8331   60.1990   78.4695 C   0  0  0  0  0  0  0  0  0  0  0  0
   -1.4298   62.7696   78.8549 C   0  0  0  0  0  0  0  0  0  0  0  0
    1.7828   67.3871   81.9841 C   0  0  0  0  0  0  0  0  0  0  0  0
    1.4664   68.5583   81.7978 O   0  0  0  0  0  0  0  0  0  0  0  0
    2.6552   66.9971   82.9736 N   0  0  0  0  0  0  0  0  0  0  0  0
    2.9594   66.0294   83.0018 H   0  0  0  0  0  0  0  0  0  0  0  0
    3.4241   67.9440   83.7464 C   0  0  0  0  0  0  0  0  0  0  0  0
    4.1318   67.2414   84.8773 C   0  0  0  0  0  0  0  0  0  0  0  0
    4.0595   65.8454   85.0111 C   0  0  0  0  0  0  0  0  0  0  0  0
    4.7419   65.2014   86.0445 C   0  0  0  0  0  0  0  0  0  0  0  0
    5.5035   65.9486   86.9351 C   0  0  0  0  0  0  0  0  0  0  0  0
    6.1592   65.3283   87.9247 F   0  0  0  0  0  0  0  0  0  0  0  0
    5.5987   67.3293   86.8118 C   0  0  0  0  0  0  0  0  0  0  0  0
    4.9164   67.9761   85.7811 C   0  0  0  0  0  0  0  0  0  0  0  0
    0.3230   65.0164   82.8691 O   0  0  0  0  0  0  0  0  0  0  0  0
   -0.2936   63.7724   83.1955 C   0  0  0  0  0  0  0  0  0  0  0  0
   -0.3865   63.5254   87.5235 C   0  0  0  0  0  0  0  0  0  0  0  0
    0.6537   64.1938   86.8705 C   0  0  0  0  0  0  0  0  0  0  0  0
    0.6757   64.2845   85.4734 C   0  0  0  0  0  0  0  0  0  0  0  0
   -0.3444   63.7143   84.7025 C   0  0  0  0  0  0  0  0  0  0  0  0
   -1.3802   63.0324   85.3529 C   0  0  0  0  0  0  0  0  0  0  0  0
   -1.4034   62.9450   86.7489 C   0  0  0  0  0  0  0  0  0  0  0  0
   -2.7218   62.0984   87.4823 Cl  0  0  0  0  0  0  0  0  0  0  0  0
    0.2533   62.3320   89.4924 C   0  0  0  0  0  0  0  0  0  0  0  0
   -0.4852   63.3820   88.8826 O   0  0  0  0  0  0  0  0  0  0  0  0
 35 36  1  0  0  0
 36 28  1  0  0  0
 28 29  1  0  0  0
 29 30  2  0  0  0
 30 31  1  0  0  0
 31 27  1  0  0  0
 27 26  1  0  0  0
 26  1  1  0  0  0
  1  2  2  0  0  0
  2  3  1  0  0  0
  3  7  1  0  0  0
  7  8  1  0  0  0
  8  9  1  0  0  0
  9 10  1  0  0  0
 10 11  1  0  0  0
 11 12  1  0  0  0
 10 13  1  0  0  0
  3  4  2  0  0  0
  4  5  1  0  0  0
  5  6  2  0  0  0
  6 14  1  0  0  0
 14 15  2  0  0  0
 14 16  1  0  0  0
 16 18  1  0  0  0
 18 19  1  0  0  0
 19 20  1  0  0  0
 20 21  2  0  0  0
 21 22  1  0  0  0
 22 23  1  0  0  0
 22 24  2  0  0  0
 24 25  1  0  0  0
 31 32  2  0  0  0
 32 33  1  0  0  0
 33 34  1  0  0  0
 33 28  2  0  0  0
  6  1  1  0  0  0
 25 19  2  0  0  0
 13  7  1  0  0  0
 12 10  1  0  0  0
 16 17  1  0  0  0
M  END
> <minimizedAffinity>
-10.91610

$$$$



 36 40  0  0  0  0  0  0  0  0999 V2000
    0.2304   64.8621   81.6925 C   0  0  0  0  0  0  0  0  0  0  0  0
   -0.4953   64.0553   80.8877 N   0  0  0  0  0  0  0  0  0  0  0  0
   -1.1854   63.0561   81.4597 C   0  0  0  0  0  0  0  0  0  0  0  0
   -1.1714   62.8382   82.7836 N   0  0  0  0  0  0  0  0  0  0  0  0
   -0.4268   63.6652   83.5524 C   0  0  0  0  0  0  0  0  0  0  0  0
    0.3165   64.7110   83.0594 C   0  0  0  0  0  0  0  0  0  0  0  0
   -1.9599   62.2478   80.6623 N   0  0  0  0  0  0  0  0  0  0  0  0
   -3.3967   62.2191   80.8803 C   0  0  0  0  0  0  0  0  0  0  0  0
   -3.9088   61.3692   79.7160 C   0  0  0  0  0  0  0  0  0  0  0  0
   -2.9061   61.6337   78.6226 C   0  0  0  0  0  0  0  0  0  0  0  0
   -2.8439   60.7233   77.4156 C   0  0  0  0  0  0  0  0  0  0  0  0
   -3.3683   62.1211   77.2650 C   0  0  0  0  0  0  0  0  0  0  0  0
   -1.6356   62.1835   79.2432 C   0  0  0  0  0  0  0  0  0  0  0  0
    1.0885   65.5551   83.9998 C   0  0  0  0  0  0  0  0  0  0  0  0
    0.7489   65.6074   85.1781 O   0  0  0  0  0  0  0  0  0  0  0  0
    2.1642   66.2521   83.5005 N   0  0  0  0  0  0  0  0  0  0  0  0
    2.3227   66.2520   82.4983 H   0  0  0  0  0  0  0  0  0  0  0  0
    2.8628   67.2547   84.2699 C   0  0  0  0  0  0  0  0  0  0  0  0
    4.2758   66.8080   84.5477 C   0  0  0  0  0  0  0  0  0  0  0  0
    5.3654   67.6308   84.2197 C   0  0  0  0  0  0  0  0  0  0  0  0
    6.6683   67.2207   84.5074 C   0  0  0  0  0  0  0  0  0  0  0  0
    6.8815   65.9972   85.1310 C   0  0  0  0  0  0  0  0  0  0  0  0
    8.1324   65.6067   85.4079 F   0  0  0  0  0  0  0  0  0  0  0  0
    5.8161   65.1745   85.4757 C   0  0  0  0  0  0  0  0  0  0  0  0
    4.5129   65.5807   85.1879 C   0  0  0  0  0  0  0  0  0  0  0  0
    0.9392   65.8886   81.1013 O   0  0  0  0  0  0  0  0  0  0  0  0
    0.1311   66.8170   80.3808 C   0  0  0  0  0  0  0  0  0  0  0  0
    1.8953   70.7000   81.1622 C   0  0  0  0  0  0  0  0  0  0  0  0
    2.7017   69.6014   80.8489 C   0  0  0  0  0  0  0  0  0  0  0  0
    2.1300   68.3511   80.5836 C   0  0  0  0  0  0  0  0  0  0  0  0
    0.7415   68.1760   80.6204 C   0  0  0  0  0  0  0  0  0  0  0  0
   -0.0678   69.2710   80.9474 C   0  0  0  0  0  0  0  0  0  0  0  0
    0.5037   70.5207   81.2091 C   0  0  0  0  0  0  0  0  0  0  0  0
   -0.5602   71.8298   81.5928 Cl  0  0  0  0  0  0  0  0  0  0  0  0
    2.8959   72.1893   82.7405 C   0  0  0  0  0  0  0  0  0  0  0  0
    2.3676   71.9554   81.4420 O   0  0  0  0  0  0  0  0  0  0  0  0
 35 36  1  0  0  0
 36 28  1  0  0  0
 28 29  1  0  0  0
 29 30  2  0  0  0
 30 31  1  0  0  0
 31 27  1  0  0  0
 27 26  1  0  0  0
 26  1  1  0  0  0
  1  2  2  0  0  0
  2  3  1  0  0  0
  3  7  1  0  0  0
  7  8  1  0  0  0
  8  9  1  0  0  0
  9 10  1  0  0  0
 10 11  1  0  0  0
 11 12  1  0  0  0
 10 13  1  0  0  0
  3  4  2  0  0  0
  4  5  1  0  0  0
  5  6  2  0  0  0
  6 14  1  0  0  0
 14 15  2  0  0  0
 14 16  1  0  0  0
 16 18  1  0  0  0
 18 19  1  0  0  0
 19 20  1  0  0  0
 20 21  2  0  0  0
 21 22  1  0  0  0
 22 23  1  0  0  0
 22 24  2  0  0  0
 24 25  1  0  0  0
 31 32  2  0  0  0
 32 33  1  0  0  0
 33 34  1  0  0  0
 33 28  2  0  0  0
  6  1  1  0  0  0
 25 19  2  0  0  0
 13  7  1  0  0  0
 12 10  1  0  0  0
 16 17  1  0  0  0
M  END
> <minimizedAffinity>
-10.25807

$$$$



 36 40  0  0  0  0  0  0  0  0999 V2000
    0.7221   65.3475   81.2579 C   0  0  0  0  0  0  0  0  0  0  0  0
    0.1238   64.7125   80.2264 N   0  0  0  0  0  0  0  0  0  0  0  0
   -0.6499   63.6522   80.5071 C   0  0  0  0  0  0  0  0  0  0  0  0
   -0.8388   63.2113   81.7602 N   0  0  0  0  0  0  0  0  0  0  0  0
   -0.2161   63.8717   82.7631 C   0  0  0  0  0  0  0  0  0  0  0  0
    0.5983   64.9629   82.5753 C   0  0  0  0  0  0  0  0  0  0  0  0
   -1.2976   63.0160   79.4752 N   0  0  0  0  0  0  0  0  0  0  0  0
   -0.8779   63.2897   78.1107 C   0  0  0  0  0  0  0  0  0  0  0  0
   -1.6904   62.2875   77.2887 C   0  0  0  0  0  0  0  0  0  0  0  0
   -1.8778   61.1298   78.2349 C   0  0  0  0  0  0  0  0  0  0  0  0
   -2.9203   60.0730   77.9415 C   0  0  0  0  0  0  0  0  0  0  0  0
   -1.4638   59.7324   77.8224 C   0  0  0  0  0  0  0  0  0  0  0  0
   -1.6430   61.6118   79.6541 C   0  0  0  0  0  0  0  0  0  0  0  0
    1.2220   65.6100   83.7522 C   0  0  0  0  0  0  0  0  0  0  0  0
    0.6599   65.5460   84.8415 O   0  0  0  0  0  0  0  0  0  0  0  0
    2.4182   66.2632   83.5658 N   0  0  0  0  0  0  0  0  0  0  0  0
    2.7716   66.3733   82.6210 H   0  0  0  0  0  0  0  0  0  0  0  0
    3.0141   67.0949   84.5848 C   0  0  0  0  0  0  0  0  0  0  0  0
    4.4556   66.7070   84.7972 C   0  0  0  0  0  0  0  0  0  0  0  0
    4.7869   65.5237   85.4768 C   0  0  0  0  0  0  0  0  0  0  0  0
    6.1239   65.1587   85.6430 C   0  0  0  0  0  0  0  0  0  0  0  0
    7.1267   65.9676   85.1220 C   0  0  0  0  0  0  0  0  0  0  0  0
    8.4089   65.6142   85.2808 F   0  0  0  0  0  0  0  0  0  0  0  0
    6.8192   67.1354   84.4347 C   0  0  0  0  0  0  0  0  0  0  0  0
    5.4840   67.5039   84.2686 C   0  0  0  0  0  0  0  0  0  0  0  0
    1.5175   66.4374   80.9660 O   0  0  0  0  0  0  0  0  0  0  0  0
    0.8725   67.4369   80.1791 C   0  0  0  0  0  0  0  0  0  0  0  0
    1.4007   71.1360   82.3786 C   0  0  0  0  0  0  0  0  0  0  0  0
    2.4302   70.1918   82.3154 C   0  0  0  0  0  0  0  0  0  0  0  0
    2.2633   69.0037   81.5938 C   0  0  0  0  0  0  0  0  0  0  0  0
    1.0669   68.7390   80.9165 C   0  0  0  0  0  0  0  0  0  0  0  0
    0.0292   69.6763   80.9894 C   0  0  0  0  0  0  0  0  0  0  0  0
    0.1976   70.8648   81.7078 C   0  0  0  0  0  0  0  0  0  0  0  0
   -1.1235   71.9811   81.7417 Cl  0  0  0  0  0  0  0  0  0  0  0  0
    2.7123   73.0162   83.0532 C   0  0  0  0  0  0  0  0  0  0  0  0
    1.4735   72.3197   83.0651 O   0  0  0  0  0  0  0  0  0  0  0  0
 35 36  1  0  0  0
 36 28  1  0  0  0
 28 29  1  0  0  0
 29 30  2  0  0  0
 30 31  1  0  0  0
 31 27  1  0  0  0
 27 26  1  0  0  0
 26  1  1  0  0  0
  1  2  2  0  0  0
  2  3  1  0  0  0
  3  7  1  0  0  0
  7  8  1  0  0  0
  8  9  1  0  0  0
  9 10  1  0  0  0
 10 11  1  0  0  0
 11 12  1  0  0  0
 10 13  1  0  0  0
  3  4  2  0  0  0
  4  5  1  0  0  0
  5  6  2  0  0  0
  6 14  1  0  0  0
 14 15  2  0  0  0
 14 16  1  0  0  0
 16 18  1  0  0  0
 18 19  1  0  0  0
 19 20  1  0  0  0
 20 21  2  0  0  0
 21 22  1  0  0  0
 22 23  1  0  0  0
 22 24  2  0  0  0
 24 25  1  0  0  0
 31 32  2  0  0  0
 32 33  1  0  0  0
 33 34  1  0  0  0
 33 28  2  0  0  0
  6  1  1  0  0  0
 25 19  2  0  0  0
 13  7  1  0  0  0
 12 10  1  0  0  0
 16 17  1  0  0  0
M  END
> <minimizedAffinity>
-10.21044

$$$$



 36 40  0  0  0  0  0  0  0  0999 V2000
    1.0799   67.5325   81.5891 C   0  0  0  0  0  0  0  0  0  0  0  0
    1.1184   68.7303   82.2127 N   0  0  0  0  0  0  0  0  0  0  0  0
    1.5275   69.7935   81.5028 C   0  0  0  0  0  0  0  0  0  0  0  0
    1.8962   69.7005   80.2161 N   0  0  0  0  0  0  0  0  0  0  0  0
    1.8491   68.4815   79.6317 C   0  0  0  0  0  0  0  0  0  0  0  0
    1.4495   67.3352   80.2764 C   0  0  0  0  0  0  0  0  0  0  0  0
    1.5374   71.0274   82.1083 N   0  0  0  0  0  0  0  0  0  0  0  0
    2.7631   71.4873   82.7400 C   0  0  0  0  0  0  0  0  0  0  0  0
    2.4345   72.9300   83.1287 C   0  0  0  0  0  0  0  0  0  0  0  0
    1.4384   73.3559   82.0813 C   0  0  0  0  0  0  0  0  0  0  0  0
    0.5964   74.5947   82.2963 C   0  0  0  0  0  0  0  0  0  0  0  0
    1.6817   74.6052   81.2601 C   0  0  0  0  0  0  0  0  0  0  0  0
    0.8431   72.1183   81.4368 C   0  0  0  0  0  0  0  0  0  0  0  0
    1.4318   66.0559   79.5310 C   0  0  0  0  0  0  0  0  0  0  0  0
    2.2804   65.8512   78.6681 O   0  0  0  0  0  0  0  0  0  0  0  0
    0.4498   65.1449   79.8441 N   0  0  0  0  0  0  0  0  0  0  0  0
   -0.2849   65.4217   80.4870 H   0  0  0  0  0  0  0  0  0  0  0  0
    0.2111   63.9601   79.0539 C   0  0  0  0  0  0  0  0  0  0  0  0
   -0.3920   62.8753   79.9099 C   0  0  0  0  0  0  0  0  0  0  0  0
    0.4271   62.0081   80.6508 C   0  0  0  0  0  0  0  0  0  0  0  0
   -0.1417   61.0256   81.4629 C   0  0  0  0  0  0  0  0  0  0  0  0
   -1.5248   60.9169   81.5434 C   0  0  0  0  0  0  0  0  0  0  0  0
   -2.0684   59.9747   82.3250 F   0  0  0  0  0  0  0  0  0  0  0  0
   -2.3527   61.7739   80.8287 C   0  0  0  0  0  0  0  0  0  0  0  0
   -1.7874   62.7557   80.0147 C   0  0  0  0  0  0  0  0  0  0  0  0
    0.6589   66.4409   82.3218 O   0  0  0  0  0  0  0  0  0  0  0  0
    1.3626   66.2544   83.5483 C   0  0  0  0  0  0  0  0  0  0  0  0
   -0.6161   62.9542   85.5469 C   0  0  0  0  0  0  0  0  0  0  0  0
   -0.8514   63.2108   84.1926 C   0  0  0  0  0  0  0  0  0  0  0  0
   -0.2017   64.2686   83.5449 C   0  0  0  0  0  0  0  0  0  0  0  0
    0.7000   65.0863   84.2365 C   0  0  0  0  0  0  0  0  0  0  0  0
    0.9272   64.8404   85.5962 C   0  0  0  0  0  0  0  0  0  0  0  0
    0.2803   63.7814   86.2420 C   0  0  0  0  0  0  0  0  0  0  0  0
    0.6211   63.5305   87.9194 Cl  0  0  0  0  0  0  0  0  0  0  0  0
   -2.5045   62.1926   86.7976 C   0  0  0  0  0  0  0  0  0  0  0  0
   -1.2112   61.9479   86.2615 O   0  0  0  0  0  0  0  0  0  0  0  0
 35 36  1  0  0  0
 36 28  1  0  0  0
 28 29  1  0  0  0
 29 30  2  0  0  0
 30 31  1  0  0  0
 31 27  1  0  0  0
 27 26  1  0  0  0
 26  1  1  0  0  0
  1  2  2  0  0  0
  2  3  1  0  0  0
  3  7  1  0  0  0
  7  8  1  0  0  0
  8  9  1  0  0  0
  9 10  1  0  0  0
 10 11  1  0  0  0
 11 12  1  0  0  0
 10 13  1  0  0  0
  3  4  2  0  0  0
  4  5  1  0  0  0
  5  6  2  0  0  0
  6 14  1  0  0  0
 14 15  2  0  0  0
 14 16  1  0  0  0
 16 18  1  0  0  0
 18 19  1  0  0  0
 19 20  1  0  0  0
 20 21  2  0  0  0
 21 22  1  0  0  0
 22 23  1  0  0  0
 22 24  2  0  0  0
 24 25  1  0  0  0
 31 32  2  0  0  0
 32 33  1  0  0  0
 33 34  1  0  0  0
 33 28  2  0  0  0
  6  1  1  0  0  0
 25 19  2  0  0  0
 13  7  1  0  0  0
 12 10  1  0  0  0
 16 17  1  0  0  0
M  END
> <minimizedAffinity>
-9.94250

$$$$



 36 40  0  0  0  0  0  0  0  0999 V2000
    1.0511   67.1192   81.6851 C   0  0  0  0  0  0  0  0  0  0  0  0
    1.3320   68.4304   81.5210 N   0  0  0  0  0  0  0  0  0  0  0  0
    0.5401   69.1436   80.7048 C   0  0  0  0  0  0  0  0  0  0  0  0
   -0.5008   68.5994   80.0564 N   0  0  0  0  0  0  0  0  0  0  0  0
   -0.7432   67.2819   80.2435 C   0  0  0  0  0  0  0  0  0  0  0  0
    0.0128   66.4690   81.0540 C   0  0  0  0  0  0  0  0  0  0  0  0
    0.7865   70.4874   80.5545 N   0  0  0  0  0  0  0  0  0  0  0  0
   -0.2074   71.4382   81.0245 C   0  0  0  0  0  0  0  0  0  0  0  0
    0.4912   72.7878   80.8490 C   0  0  0  0  0  0  0  0  0  0  0  0
    1.9497   72.4519   81.0244 C   0  0  0  0  0  0  0  0  0  0  0  0
    3.0118   73.4360   80.5848 C   0  0  0  0  0  0  0  0  0  0  0  0
    2.7856   73.1919   82.0480 C   0  0  0  0  0  0  0  0  0  0  0  0
    2.1400   70.9619   80.8112 C   0  0  0  0  0  0  0  0  0  0  0  0
   -0.3527   65.0403   81.1873 C   0  0  0  0  0  0  0  0  0  0  0  0
   -0.6542   64.4009   80.1838 O   0  0  0  0  0  0  0  0  0  0  0  0
   -0.3386   64.4897   82.4478 N   0  0  0  0  0  0  0  0  0  0  0  0
   -0.1888   65.0998   83.2447 H   0  0  0  0  0  0  0  0  0  0  0  0
   -0.8659   63.1743   82.7250 C   0  0  0  0  0  0  0  0  0  0  0  0
   -1.1698   63.0337   84.1951 C   0  0  0  0  0  0  0  0  0  0  0  0
   -0.2601   63.4908   85.1622 C   0  0  0  0  0  0  0  0  0  0  0  0
   -0.5635   63.3824   86.5204 C   0  0  0  0  0  0  0  0  0  0  0  0
   -1.7771   62.8293   86.9112 C   0  0  0  0  0  0  0  0  0  0  0  0
   -2.0670   62.7282   88.2149 F   0  0  0  0  0  0  0  0  0  0  0  0
   -2.6964   62.3834   85.9695 C   0  0  0  0  0  0  0  0  0  0  0  0
   -2.3954   62.4886   84.6114 C   0  0  0  0  0  0  0  0  0  0  0  0
    1.8673   66.3883   82.5249 O   0  0  0  0  0  0  0  0  0  0  0  0
    1.7877   66.7721   83.8962 C   0  0  0  0  0  0  0  0  0  0  0  0
    5.9063   66.9614   85.2386 C   0  0  0  0  0  0  0  0  0  0  0  0
    5.4025   67.9157   84.3493 C   0  0  0  0  0  0  0  0  0  0  0  0
    4.0687   67.8613   83.9269 C   0  0  0  0  0  0  0  0  0  0  0  0
    3.2112   66.8561   84.3897 C   0  0  0  0  0  0  0  0  0  0  0  0
    3.7165   65.8910   85.2695 C   0  0  0  0  0  0  0  0  0  0  0  0
    5.0483   65.9477   85.6938 C   0  0  0  0  0  0  0  0  0  0  0  0
    5.5977   64.7289   86.7918 Cl  0  0  0  0  0  0  0  0  0  0  0  0
    8.1696   66.2738   84.8996 C   0  0  0  0  0  0  0  0  0  0  0  0
    7.1967   66.9332   85.6985 O   0  0  0  0  0  0  0  0  0  0  0  0
 35 36  1  0  0  0
 36 28  1  0  0  0
 28 29  1  0  0  0
 29 30  2  0  0  0
 30 31  1  0  0  0
 31 27  1  0  0  0
 27 26  1  0  0  0
 26  1  1  0  0  0
  1  2  2  0  0  0
  2  3  1  0  0  0
  3  7  1  0  0  0
  7  8  1  0  0  0
  8  9  1  0  0  0
  9 10  1  0  0  0
 10 11  1  0  0  0
 11 12  1  0  0  0
 10 13  1  0  0  0
  3  4  2  0  0  0
  4  5  1  0  0  0
  5  6  2  0  0  0
  6 14  1  0  0  0
 14 15  2  0  0  0
 14 16  1  0  0  0
 16 18  1  0  0  0
 18 19  1  0  0  0
 19 20  1  0  0  0
 20 21  2  0  0  0
 21 22  1  0  0  0
 22 23  1  0  0  0
 22 24  2  0  0  0
 24 25  1  0  0  0
 31 32  2  0  0  0
 32 33  1  0  0  0
 33 34  1  0  0  0
 33 28  2  0  0  0
  6  1  1  0  0  0
 25 19  2  0  0  0
 13  7  1  0  0  0
 12 10  1  0  0  0
 16 17  1  0  0  0
M  END
> <minimizedAffinity>
-9.76565

$$$$



 36 40  0  0  0  0  0  0  0  0999 V2000
    1.1182   68.1580   82.0162 C   0  0  0  0  0  0  0  0  0  0  0  0
    1.0250   69.4851   81.7817 N   0  0  0  0  0  0  0  0  0  0  0  0
    0.2748   69.8869   80.7436 C   0  0  0  0  0  0  0  0  0  0  0  0
   -0.3697   69.0226   79.9449 N   0  0  0  0  0  0  0  0  0  0  0  0
   -0.2445   67.7023   80.2109 C   0  0  0  0  0  0  0  0  0  0  0  0
    0.5037   67.1946   81.2461 C   0  0  0  0  0  0  0  0  0  0  0  0
    0.1367   71.2345   80.5114 N   0  0  0  0  0  0  0  0  0  0  0  0
   -1.1850   71.8306   80.6139 C   0  0  0  0  0  0  0  0  0  0  0  0
   -0.9044   73.3274   80.4685 C   0  0  0  0  0  0  0  0  0  0  0  0
    0.4840   73.4792   81.0342 C   0  0  0  0  0  0  0  0  0  0  0  0
    1.2782   74.7388   80.7645 C   0  0  0  0  0  0  0  0  0  0  0  0
    0.7511   74.4745   82.1444 C   0  0  0  0  0  0  0  0  0  0  0  0
    1.1635   72.1228   81.0402 C   0  0  0  0  0  0  0  0  0  0  0  0
    0.5613   65.7283   81.4446 C   0  0  0  0  0  0  0  0  0  0  0  0
    0.6110   64.9906   80.4648 O   0  0  0  0  0  0  0  0  0  0  0  0
    0.5543   65.2554   82.7363 N   0  0  0  0  0  0  0  0  0  0  0  0
    0.3998   65.9115   83.4949 H   0  0  0  0  0  0  0  0  0  0  0  0
    0.4046   63.8533   83.0477 C   0  0  0  0  0  0  0  0  0  0  0  0
    0.0472   63.6775   84.5018 C   0  0  0  0  0  0  0  0  0  0  0  0
   -0.7622   62.6076   84.9169 C   0  0  0  0  0  0  0  0  0  0  0  0
   -1.0636   62.4368   86.2690 C   0  0  0  0  0  0  0  0  0  0  0  0
   -0.5489   63.3256   87.2052 C   0  0  0  0  0  0  0  0  0  0  0  0
   -0.8377   63.1585   88.5024 F   0  0  0  0  0  0  0  0  0  0  0  0
    0.2648   64.3827   86.8164 C   0  0  0  0  0  0  0  0  0  0  0  0
    0.5664   64.5572   85.4655 C   0  0  0  0  0  0  0  0  0  0  0  0
    1.8906   67.7478   83.0844 O   0  0  0  0  0  0  0  0  0  0  0  0
    3.1909   68.3325   83.1232 C   0  0  0  0  0  0  0  0  0  0  0  0
    5.5044   65.9221   85.8870 C   0  0  0  0  0  0  0  0  0  0  0  0
    4.1694   65.6085   85.6137 C   0  0  0  0  0  0  0  0  0  0  0  0
    3.4273   66.3795   84.7109 C   0  0  0  0  0  0  0  0  0  0  0  0
    4.0066   67.4750   84.0594 C   0  0  0  0  0  0  0  0  0  0  0  0
    5.3391   67.7999   84.3415 C   0  0  0  0  0  0  0  0  0  0  0  0
    6.0812   67.0272   85.2411 C   0  0  0  0  0  0  0  0  0  0  0  0
    7.7254   67.4812   85.5293 Cl  0  0  0  0  0  0  0  0  0  0  0  0
    5.9733   65.2810   88.1407 C   0  0  0  0  0  0  0  0  0  0  0  0
    6.3022   65.2290   86.7591 O   0  0  0  0  0  0  0  0  0  0  0  0
 35 36  1  0  0  0
 36 28  1  0  0  0
 28 29  1  0  0  0
 29 30  2  0  0  0
 30 31  1  0  0  0
 31 27  1  0  0  0
 27 26  1  0  0  0
 26  1  1  0  0  0
  1  2  2  0  0  0
  2  3  1  0  0  0
  3  7  1  0  0  0
  7  8  1  0  0  0
  8  9  1  0  0  0
  9 10  1  0  0  0
 10 11  1  0  0  0
 11 12  1  0  0  0
 10 13  1  0  0  0
  3  4  2  0  0  0
  4  5  1  0  0  0
  5  6  2  0  0  0
  6 14  1  0  0  0
 14 15  2  0  0  0
 14 16  1  0  0  0
 16 18  1  0  0  0
 18 19  1  0  0  0
 19 20  1  0  0  0
 20 21  2  0  0  0
 21 22  1  0  0  0
 22 23  1  0  0  0
 22 24  2  0  0  0
 24 25  1  0  0  0
 31 32  2  0  0  0
 32 33  1  0  0  0
 33 34  1  0  0  0
 33 28  2  0  0  0
  6  1  1  0  0  0
 25 19  2  0  0  0
 13  7  1  0  0  0
 12 10  1  0  0  0
 16 17  1  0  0  0
M  END
> <minimizedAffinity>
-9.75367

$$$$



 36 40  0  0  0  0  0  0  0  0999 V2000
    0.1707   64.9019   80.8800 C   0  0  0  0  0  0  0  0  0  0  0  0
   -0.4730   63.8329   80.3623 N   0  0  0  0  0  0  0  0  0  0  0  0
   -0.5837   63.7544   79.0269 C   0  0  0  0  0  0  0  0  0  0  0  0
   -0.0856   64.6928   78.2075 N   0  0  0  0  0  0  0  0  0  0  0  0
    0.5457   65.7500   78.7672 C   0  0  0  0  0  0  0  0  0  0  0  0
    0.7047   65.9211   80.1217 C   0  0  0  0  0  0  0  0  0  0  0  0
   -1.2018   62.6556   78.4793 N   0  0  0  0  0  0  0  0  0  0  0  0
   -2.0296   62.8343   77.2979 C   0  0  0  0  0  0  0  0  0  0  0  0
   -2.3823   61.4000   76.8995 C   0  0  0  0  0  0  0  0  0  0  0  0
   -1.1948   60.6032   77.3745 C   0  0  0  0  0  0  0  0  0  0  0  0
   -1.2903   59.0975   77.4900 C   0  0  0  0  0  0  0  0  0  0  0  0
   -0.4427   59.7073   76.4123 C   0  0  0  0  0  0  0  0  0  0  0  0
   -0.4440   61.4128   78.4150 C   0  0  0  0  0  0  0  0  0  0  0  0
    1.4213   67.1175   80.6196 C   0  0  0  0  0  0  0  0  0  0  0  0
    2.3450   67.5831   79.9589 O   0  0  0  0  0  0  0  0  0  0  0  0
    1.0131   67.6570   81.8173 N   0  0  0  0  0  0  0  0  0  0  0  0
    0.3191   67.1591   82.3651 H   0  0  0  0  0  0  0  0  0  0  0  0
    1.7585   68.6911   82.4958 C   0  0  0  0  0  0  0  0  0  0  0  0
    1.1543   70.0425   82.2096 C   0  0  0  0  0  0  0  0  0  0  0  0
   -0.0852   70.1503   81.5585 C   0  0  0  0  0  0  0  0  0  0  0  0
   -0.6499   71.4051   81.3240 C   0  0  0  0  0  0  0  0  0  0  0  0
    0.0163   72.5484   81.7487 C   0  0  0  0  0  0  0  0  0  0  0  0
   -0.5285   73.7514   81.5245 F   0  0  0  0  0  0  0  0  0  0  0  0
    1.2371   72.4624   82.4065 C   0  0  0  0  0  0  0  0  0  0  0  0
    1.8051   71.2099   82.6407 C   0  0  0  0  0  0  0  0  0  0  0  0
    0.2829   64.9801   82.2537 O   0  0  0  0  0  0  0  0  0  0  0  0
    0.7887   63.7958   82.8666 C   0  0  0  0  0  0  0  0  0  0  0  0
   -0.7297   63.6937   86.9267 C   0  0  0  0  0  0  0  0  0  0  0  0
    0.4049   64.4469   86.6094 C   0  0  0  0  0  0  0  0  0  0  0  0
    0.8865   64.4898   85.2954 C   0  0  0  0  0  0  0  0  0  0  0  0
    0.2401   63.7859   84.2723 C   0  0  0  0  0  0  0  0  0  0  0  0
   -0.8882   63.0197   84.5895 C   0  0  0  0  0  0  0  0  0  0  0  0
   -1.3709   62.9798   85.9019 C   0  0  0  0  0  0  0  0  0  0  0  0
   -2.7773   62.0225   86.2154 Cl  0  0  0  0  0  0  0  0  0  0  0  0
   -0.5065   62.9056   89.1715 C   0  0  0  0  0  0  0  0  0  0  0  0
   -1.2658   63.5888   88.1833 O   0  0  0  0  0  0  0  0  0  0  0  0
 35 36  1  0  0  0
 36 28  1  0  0  0
 28 29  1  0  0  0
 29 30  2  0  0  0
 30 31  1  0  0  0
 31 27  1  0  0  0
 27 26  1  0  0  0
 26  1  1  0  0  0
  1  2  2  0  0  0
  2  3  1  0  0  0
  3  7  1  0  0  0
  7  8  1  0  0  0
  8  9  1  0  0  0
  9 10  1  0  0  0
 10 11  1  0  0  0
 11 12  1  0  0  0
 10 13  1  0  0  0
  3  4  2  0  0  0
  4  5  1  0  0  0
  5  6  2  0  0  0
  6 14  1  0  0  0
 14 15  2  0  0  0
 14 16  1  0  0  0
 16 18  1  0  0  0
 18 19  1  0  0  0
 19 20  1  0  0  0
 20 21  2  0  0  0
 21 22  1  0  0  0
 22 23  1  0  0  0
 22 24  2  0  0  0
 24 25  1  0  0  0
 31 32  2  0  0  0
 32 33  1  0  0  0
 33 34  1  0  0  0
 33 28  2  0  0  0
  6  1  1  0  0  0
 25 19  2  0  0  0
 13  7  1  0  0  0
 12 10  1  0  0  0
 16 17  1  0  0  0
M  END
> <minimizedAffinity>
-9.75116

$$$$



 36 40  0  0  0  0  0  0  0  0999 V2000
    1.4584   67.3956   82.3035 C   0  0  0  0  0  0  0  0  0  0  0  0
    1.1243   68.4723   81.5591 N   0  0  0  0  0  0  0  0  0  0  0  0
    1.4403   69.6865   82.0362 C   0  0  0  0  0  0  0  0  0  0  0  0
    2.0638   69.8574   83.2119 N   0  0  0  0  0  0  0  0  0  0  0  0
    2.3745   68.7533   83.9288 C   0  0  0  0  0  0  0  0  0  0  0  0
    2.0882   67.4704   83.5269 C   0  0  0  0  0  0  0  0  0  0  0  0
    1.1429   70.7923   81.2759 N   0  0  0  0  0  0  0  0  0  0  0  0
   -0.2397   71.2333   81.1928 C   0  0  0  0  0  0  0  0  0  0  0  0
   -0.1386   72.5542   80.4278 C   0  0  0  0  0  0  0  0  0  0  0  0
    1.2243   73.0738   80.8062 C   0  0  0  0  0  0  0  0  0  0  0  0
    1.8628   74.1832   79.9992 C   0  0  0  0  0  0  0  0  0  0  0  0
    1.3761   74.4630   81.3908 C   0  0  0  0  0  0  0  0  0  0  0  0
    2.0595   71.9234   81.3359 C   0  0  0  0  0  0  0  0  0  0  0  0
    2.4837   66.3366   84.3934 C   0  0  0  0  0  0  0  0  0  0  0  0
    3.6565   65.9749   84.4120 O   0  0  0  0  0  0  0  0  0  0  0  0
    1.5034   65.7325   85.1460 N   0  0  0  0  0  0  0  0  0  0  0  0
    0.5377   66.0076   85.0002 H   0  0  0  0  0  0  0  0  0  0  0  0
    1.7279   64.5018   85.8672 C   0  0  0  0  0  0  0  0  0  0  0  0
    0.4135   63.9071   86.3054 C   0  0  0  0  0  0  0  0  0  0  0  0
   -0.4605   63.3313   85.3691 C   0  0  0  0  0  0  0  0  0  0  0  0
   -1.6619   62.7575   85.7883 C   0  0  0  0  0  0  0  0  0  0  0  0
   -1.9842   62.7488   87.1402 C   0  0  0  0  0  0  0  0  0  0  0  0
   -3.1365   62.1956   87.5404 F   0  0  0  0  0  0  0  0  0  0  0  0
   -1.1268   63.3013   88.0837 C   0  0  0  0  0  0  0  0  0  0  0  0
    0.0738   63.8773   87.6677 C   0  0  0  0  0  0  0  0  0  0  0  0
    1.1319   66.1482   81.8105 O   0  0  0  0  0  0  0  0  0  0  0  0
   -0.2220   66.0272   81.3786 C   0  0  0  0  0  0  0  0  0  0  0  0
   -1.3156   61.8950   82.1065 C   0  0  0  0  0  0  0  0  0  0  0  0
   -2.2984   62.8844   82.0046 C   0  0  0  0  0  0  0  0  0  0  0  0
   -1.9449   64.2162   81.7563 C   0  0  0  0  0  0  0  0  0  0  0  0
   -0.6032   64.5838   81.5989 C   0  0  0  0  0  0  0  0  0  0  0  0
    0.3841   63.5976   81.7141 C   0  0  0  0  0  0  0  0  0  0  0  0
    0.0302   62.2665   81.9590 C   0  0  0  0  0  0  0  0  0  0  0  0
    1.3038   61.1015   82.0752 Cl  0  0  0  0  0  0  0  0  0  0  0  0
   -2.9270   60.1561   82.4063 C   0  0  0  0  0  0  0  0  0  0  0  0
   -1.5688   60.5713   82.3539 O   0  0  0  0  0  0  0  0  0  0  0  0
 35 36  1  0  0  0
 36 28  1  0  0  0
 28 29  1  0  0  0
 29 30  2  0  0  0
 30 31  1  0  0  0
 31 27  1  0  0  0
 27 26  1  0  0  0
 26  1  1  0  0  0
  1  2  2  0  0  0
  2  3  1  0  0  0
  3  7  1  0  0  0
  7  8  1  0  0  0
  8  9  1  0  0  0
  9 10  1  0  0  0
 10 11  1  0  0  0
 11 12  1  0  0  0
 10 13  1  0  0  0
  3  4  2  0  0  0
  4  5  1  0  0  0
  5  6  2  0  0  0
  6 14  1  0  0  0
 14 15  2  0  0  0
 14 16  1  0  0  0
 16 18  1  0  0  0
 18 19  1  0  0  0
 19 20  1  0  0  0
 20 21  2  0  0  0
 21 22  1  0  0  0
 22 23  1  0  0  0
 22 24  2  0  0  0
 24 25  1  0  0  0
 31 32  2  0  0  0
 32 33  1  0  0  0
 33 34  1  0  0  0
 33 28  2  0  0  0
  6  1  1  0  0  0
 25 19  2  0  0  0
 13  7  1  0  0  0
 12 10  1  0  0  0
 16 17  1  0  0  0
M  END
> <minimizedAffinity>
-9.65557

$$$$



 36 40  0  0  0  0  0  0  0  0999 V2000
   -0.0021   64.8249   82.1710 C   0  0  0  0  0  0  0  0  0  0  0  0
   -0.4131   64.0730   83.2154 N   0  0  0  0  0  0  0  0  0  0  0  0
   -0.0178   64.4388   84.4449 C   0  0  0  0  0  0  0  0  0  0  0  0
    0.7629   65.5084   84.6609 N   0  0  0  0  0  0  0  0  0  0  0  0
    1.1574   66.2301   83.5870 C   0  0  0  0  0  0  0  0  0  0  0  0
    0.8091   65.9324   82.2911 C   0  0  0  0  0  0  0  0  0  0  0  0
   -0.4566   63.7088   85.5237 N   0  0  0  0  0  0  0  0  0  0  0  0
   -0.4285   62.2577   85.4451 C   0  0  0  0  0  0  0  0  0  0  0  0
   -0.8115   61.8246   86.8614 C   0  0  0  0  0  0  0  0  0  0  0  0
   -0.2983   62.9502   87.7219 C   0  0  0  0  0  0  0  0  0  0  0  0
   -0.7747   63.0885   89.1515 C   0  0  0  0  0  0  0  0  0  0  0  0
    0.6375   62.6618   88.8775 C   0  0  0  0  0  0  0  0  0  0  0  0
   -0.0898   64.1769   86.8539 C   0  0  0  0  0  0  0  0  0  0  0  0
    1.2958   66.8005   81.1947 C   0  0  0  0  0  0  0  0  0  0  0  0
    2.2963   66.4699   80.5652 O   0  0  0  0  0  0  0  0  0  0  0  0
    0.5943   67.9540   80.9308 N   0  0  0  0  0  0  0  0  0  0  0  0
   -0.1557   68.2231   81.5591 H   0  0  0  0  0  0  0  0  0  0  0  0
    1.0841   68.9699   80.0291 C   0  0  0  0  0  0  0  0  0  0  0  0
    1.7478   70.0795   80.8048 C   0  0  0  0  0  0  0  0  0  0  0  0
    1.1641   70.5818   81.9791 C   0  0  0  0  0  0  0  0  0  0  0  0
    1.8008   71.5892   82.7059 C   0  0  0  0  0  0  0  0  0  0  0  0
    3.0225   72.0855   82.2672 C   0  0  0  0  0  0  0  0  0  0  0  0
    3.6327   73.0505   82.9674 F   0  0  0  0  0  0  0  0  0  0  0  0
    3.6230   71.5924   81.1153 C   0  0  0  0  0  0  0  0  0  0  0  0
    2.9884   70.5869   80.3856 C   0  0  0  0  0  0  0  0  0  0  0  0
   -0.4099   64.4461   80.9077 O   0  0  0  0  0  0  0  0  0  0  0  0
    0.4203   63.4601   80.2973 C   0  0  0  0  0  0  0  0  0  0  0  0
   -2.2862   60.6316   78.4330 C   0  0  0  0  0  0  0  0  0  0  0  0
   -0.9324   60.6580   78.0840 C   0  0  0  0  0  0  0  0  0  0  0  0
   -0.0567   61.5628   78.6963 C   0  0  0  0  0  0  0  0  0  0  0  0
   -0.5157   62.4542   79.6734 C   0  0  0  0  0  0  0  0  0  0  0  0
   -1.8735   62.4395   80.0151 C   0  0  0  0  0  0  0  0  0  0  0  0
   -2.7474   61.5331   79.4054 C   0  0  0  0  0  0  0  0  0  0  0  0
   -4.4083   61.5645   79.8883 Cl  0  0  0  0  0  0  0  0  0  0  0  0
   -3.4641   59.8984   76.4875 C   0  0  0  0  0  0  0  0  0  0  0  0
   -3.2139   59.7871   77.8820 O   0  0  0  0  0  0  0  0  0  0  0  0
 35 36  1  0  0  0
 36 28  1  0  0  0
 28 29  1  0  0  0
 29 30  2  0  0  0
 30 31  1  0  0  0
 31 27  1  0  0  0
 27 26  1  0  0  0
 26  1  1  0  0  0
  1  2  2  0  0  0
  2  3  1  0  0  0
  3  7  1  0  0  0
  7  8  1  0  0  0
  8  9  1  0  0  0
  9 10  1  0  0  0
 10 11  1  0  0  0
 11 12  1  0  0  0
 10 13  1  0  0  0
  3  4  2  0  0  0
  4  5  1  0  0  0
  5  6  2  0  0  0
  6 14  1  0  0  0
 14 15  2  0  0  0
 14 16  1  0  0  0
 16 18  1  0  0  0
 18 19  1  0  0  0
 19 20  1  0  0  0
 20 21  2  0  0  0
 21 22  1  0  0  0
 22 23  1  0  0  0
 22 24  2  0  0  0
 24 25  1  0  0  0
 31 32  2  0  0  0
 32 33  1  0  0  0
 33 34  1  0  0  0
 33 28  2  0  0  0
  6  1  1  0  0  0
 25 19  2  0  0  0
 13  7  1  0  0  0
 12 10  1  0  0  0
 16 17  1  0  0  0
M  END
> <minimizedAffinity>
-9.62589

$$$$
