
     RDKit          3D

 76 79  0  0  0  0  0  0  0  0999 V2000
    1.2396   -3.5278    0.8333 C   0  0  0  0  0  0  0  0  0  0  0  0
    2.4809   -3.3213   -0.0236 C   0  0  0  0  0  0  0  0  0  0  0  0
    3.1351   -2.0114    0.2524 C   0  0  0  0  0  0  0  0  0  0  0  0
    2.7239   -0.7361   -0.0344 C   0  0  0  0  0  0  0  0  0  0  0  0
    1.5515   -0.3348   -0.6733 N   0  0  0  0  0  0  0  0  0  0  0  0
    1.4160    0.9580   -0.7834 C   0  0  0  0  0  0  0  0  0  0  0  0
    0.1807    1.4936   -1.4338 C   0  0  0  0  0  0  0  0  0  0  0  0
   -0.6132    0.5981   -2.1638 C   0  0  0  0  0  0  0  0  0  0  0  0
   -1.8256    1.0269   -2.6963 C   0  0  0  0  0  0  0  0  0  0  0  0
   -2.8782   -0.0763   -3.5831 S   0  0  0  0  0  0  0  0  0  0  0  0
   -2.0213   -0.9605   -4.3419 O   0  0  0  0  0  0  0  0  0  0  0  0
   -3.8863    0.7335   -4.2331 O   0  0  0  0  0  0  0  0  0  0  0  0
   -3.6364   -0.9718   -2.3706 N   0  0  0  0  0  0  0  0  0  0  0  0
   -2.8785   -2.0945   -1.7523 C   0  0  0  0  0  0  0  0  0  0  0  0
   -3.6044   -2.6465   -0.5112 C   0  0  0  0  0  0  0  0  0  0  0  0
   -3.8446   -1.6499    0.5546 N   0  0  0  0  0  0  0  0  0  0  0  0
   -2.8004   -1.6321    1.5892 C   0  0  0  0  0  0  0  0  0  0  0  0
   -2.8463   -2.8587    2.4940 C   0  0  0  0  0  0  0  0  0  0  0  0
   -4.0373   -0.2935   -0.0054 C   0  0  0  0  0  0  0  0  0  0  0  0
   -4.5771   -0.2785   -1.4482 C   0  0  0  0  0  0  0  0  0  0  0  0
   -2.1838    2.3522   -2.5549 C   0  0  0  0  0  0  0  0  0  0  0  0
   -1.4308    3.2509   -1.8750 N   0  0  0  0  0  0  0  0  0  0  0  0
   -0.2695    2.8116   -1.3271 C   0  0  0  0  0  0  0  0  0  0  0  0
    0.4870    3.7106   -0.6031 O   0  0  0  0  0  0  0  0  0  0  0  0
    0.0210    5.0721   -0.6206 C   0  0  2  0  0  0  0  0  0  0  0  0
    1.2405    5.9490   -0.3306 C   0  0  0  0  0  0  0  0  0  0  0  0
   -1.0636    5.2871    0.4508 C   0  0  0  0  0  0  0  0  0  0  0  0
   -1.5491    6.6298    0.4921 O   0  0  0  0  0  0  0  0  0  0  0  0
   -2.5008    6.9036   -0.5287 C   0  0  0  0  0  0  0  0  0  0  0  0
    2.3497    1.8823   -0.3292 N   0  0  0  0  0  0  0  0  0  0  0  0
    3.5306    1.5657    0.3173 C   0  0  0  0  0  0  0  0  0  0  0  0
    4.3037    2.4330    0.7131 O   0  0  0  0  0  0  0  0  0  0  0  0
    3.6977    0.1363    0.4559 C   0  0  0  0  0  0  0  0  0  0  0  0
    4.7072   -0.5321    1.0281 N   0  0  0  0  0  0  0  0  0  0  0  0
    4.3459   -1.8358    0.8911 N   0  0  0  0  0  0  0  0  0  0  0  0
    5.2721   -2.8476    1.3779 C   0  0  0  0  0  0  0  0  0  0  0  0
    4.9667   -3.2650    2.8130 C   0  0  0  0  0  0  0  0  0  0  0  0
    3.9425   -4.2638    2.8766 O   0  0  0  0  0  0  0  0  0  0  0  0
    4.4425   -5.5866    2.7275 C   0  0  0  0  0  0  0  0  0  0  0  0
    0.8010   -4.5105    0.6328 H   0  0  0  0  0  0  0  0  0  0  0  0
    1.4757   -3.4709    1.9007 H   0  0  0  0  0  0  0  0  0  0  0  0
    0.4769   -2.7715    0.6196 H   0  0  0  0  0  0  0  0  0  0  0  0
    2.1946   -3.3603   -1.0817 H   0  0  0  0  0  0  0  0  0  0  0  0
    3.1675   -4.1574    0.1361 H   0  0  0  0  0  0  0  0  0  0  0  0
   -0.2896   -0.4306   -2.3096 H   0  0  0  0  0  0  0  0  0  0  0  0
   -2.7812   -2.8970   -2.4916 H   0  0  0  0  0  0  0  0  0  0  0  0
   -1.8768   -1.7741   -1.4581 H   0  0  0  0  0  0  0  0  0  0  0  0
   -3.0636   -3.5225   -0.1392 H   0  0  0  0  0  0  0  0  0  0  0  0
   -4.5861   -3.0250   -0.8258 H   0  0  0  0  0  0  0  0  0  0  0  0
   -1.8033   -1.5297    1.1437 H   0  0  0  0  0  0  0  0  0  0  0  0
   -2.9514   -0.7590    2.2373 H   0  0  0  0  0  0  0  0  0  0  0  0
   -3.8418   -2.9877    2.9316 H   0  0  0  0  0  0  0  0  0  0  0  0
   -2.1329   -2.7397    3.3164 H   0  0  0  0  0  0  0  0  0  0  0  0
   -2.5812   -3.7770    1.9628 H   0  0  0  0  0  0  0  0  0  0  0  0
   -3.0878    0.2584    0.0010 H   0  0  0  0  0  0  0  0  0  0  0  0
   -4.7310    0.2538    0.6431 H   0  0  0  0  0  0  0  0  0  0  0  0
   -5.5492   -0.7829   -1.5025 H   0  0  0  0  0  0  0  0  0  0  0  0
   -4.7459    0.7573   -1.7591 H   0  0  0  0  0  0  0  0  0  0  0  0
   -3.1017    2.7529   -2.9795 H   0  0  0  0  0  0  0  0  0  0  0  0
   -0.3302    5.3585   -1.6193 H   0  0  0  0  0  0  0  0  0  0  0  0
    2.0245    5.7652   -1.0736 H   0  0  0  0  0  0  0  0  0  0  0  0
    1.6735    5.7084    0.6468 H   0  0  0  0  0  0  0  0  0  0  0  0
    0.9866    7.0130   -0.3514 H   0  0  0  0  0  0  0  0  0  0  0  0
   -1.9004    4.5885    0.3370 H   0  0  0  0  0  0  0  0  0  0  0  0
   -0.6377    5.0676    1.4375 H   0  0  0  0  0  0  0  0  0  0  0  0
   -2.0465    6.8262   -1.5198 H   0  0  0  0  0  0  0  0  0  0  0  0
   -3.3555    6.2249   -0.4505 H   0  0  0  0  0  0  0  0  0  0  0  0
   -2.8589    7.9280   -0.3946 H   0  0  0  0  0  0  0  0  0  0  0  0
    2.1768    2.8758   -0.4167 H   0  0  0  0  0  0  0  0  0  0  0  0
    6.2722   -2.4002    1.3296 H   0  0  0  0  0  0  0  0  0  0  0  0
    5.2521   -3.6851    0.6759 H   0  0  0  0  0  0  0  0  0  0  0  0
    4.6191   -2.4079    3.4005 H   0  0  0  0  0  0  0  0  0  0  0  0
    5.8741   -3.6422    3.2998 H   0  0  0  0  0  0  0  0  0  0  0  0
    3.5959   -6.2777    2.7606 H   0  0  0  0  0  0  0  0  0  0  0  0
    5.1224   -5.8312    3.5492 H   0  0  0  0  0  0  0  0  0  0  0  0
    4.9527   -5.7082    1.7681 H   0  0  0  0  0  0  0  0  0  0  0  0
  1  2  1  0
  2  3  1  0
  3  4  2  0
  4  5  1  0
  5  6  2  0
  6  7  1  0
  7  8  1  0
  8  9  2  0
  9 10  1  0
 10 11  2  0
 10 12  2  0
 10 13  1  0
 13 14  1  0
 14 15  1  0
 15 16  1  0
 16 17  1  0
 17 18  1  0
 16 19  1  0
 19 20  1  0
  9 21  1  0
 21 22  2  0
 22 23  1  0
 23 24  1  0
 24 25  1  0
 25 26  1  0
 25 27  1  0
 27 28  1  0
 28 29  1  0
  6 30  1  0
 30 31  1  0
 31 32  2  0
 31 33  1  0
 33 34  2  0
 34 35  1  0
 35 36  1  0
 36 37  1  0
 37 38  1  0
 38 39  1  0
 35  3  1  0
 33  4  1  0
 23  7  2  0
 20 13  1  0
  1 40  1  0
  1 41  1  0
  1 42  1  0
  2 43  1  0
  2 44  1  0
  8 45  1  0
 14 46  1  0
 14 47  1  0
 15 48  1  0
 15 49  1  0
 17 50  1  0
 17 51  1  0
 18 52  1  0
 18 53  1  0
 18 54  1  0
 19 55  1  0
 19 56  1  0
 20 57  1  0
 20 58  1  0
 21 59  1  0
 25 60  1  6
 26 61  1  0
 26 62  1  0
 26 63  1  0
 27 64  1  0
 27 65  1  0
 29 66  1  0
 29 67  1  0
 29 68  1  0
 30 69  1  0
 36 70  1  0
 36 71  1  0
 37 72  1  0
 37 73  1  0
 39 74  1  0
 39 75  1  0
 39 76  1  0
M  END
$$$$
