


 34 38  0  0  0  0  0  0  0  0999 V2000
   -1.1463   63.0941   83.3881 C   0  0  0  0  0  0  0  0  0  0  0  0
   -0.4426   63.9016   84.1237 N   0  0  0  0  0  0  0  0  0  0  0  0
    0.3676   64.8308   83.4666 C   0  0  0  0  0  0  0  0  0  0  0  0
    1.1870   65.7407   84.3507 C   0  0  0  0  0  0  0  0  0  0  0  0
    1.1186   65.6459   85.5772 O   0  0  0  0  0  0  0  0  0  0  0  0
    1.9897   66.6687   83.7064 N   0  0  0  0  0  0  0  0  0  0  0  0
    2.0803   66.7965   82.3466 N   0  0  0  0  0  0  0  0  0  0  0  0
    1.3754   66.0036   81.6054 C   0  0  0  0  0  0  0  0  0  0  0  0
    1.5367   66.1984   80.1154 C   0  0  0  0  0  0  0  0  0  0  0  0
    0.4535   64.9537   82.1223 C   0  0  0  0  0  0  0  0  0  0  0  0
   -0.3381   64.0845   81.3119 C   0  0  0  0  0  0  0  0  0  0  0  0
   -0.5991   63.8418   79.9807 C   0  0  0  0  0  0  0  0  0  0  0  0
   -1.5505   62.7805   79.9440 C   0  0  0  0  0  0  0  0  0  0  0  0
   -1.8555   62.3902   81.1911 N   0  0  0  0  0  0  0  0  0  0  0  0
   -1.1140   63.1743   81.9938 N   0  0  0  0  0  0  0  0  0  0  0  0
   -2.1630   62.1447   78.7702 C   0  0  0  0  0  0  0  0  0  0  0  0
   -2.2633   62.8437   77.5563 C   0  0  0  0  0  0  0  0  0  0  0  0
   -2.8459   62.2519   76.4323 C   0  0  0  0  0  0  0  0  0  0  0  0
   -3.3358   60.9510   76.5053 C   0  0  0  0  0  0  0  0  0  0  0  0
   -3.2424   60.2416   77.7002 C   0  0  0  0  0  0  0  0  0  0  0  0
   -2.6598   60.8335   78.8258 C   0  0  0  0  0  0  0  0  0  0  0  0
   -2.0574   62.0562   83.9807 C   0  0  0  0  0  0  0  0  0  0  0  0
   -2.6897   62.5773   85.2657 C   0  0  0  0  0  0  0  0  0  0  0  0
   -1.8740   62.1930   86.4737 C   0  0  0  0  0  0  0  0  0  0  0  0
   -0.9585   61.3829   86.4825 O   0  0  0  0  0  0  0  0  0  0  0  0
   -1.2853   63.2850   88.4589 C   0  0  0  0  0  0  0  0  0  0  0  0
   -2.3208   62.8838   87.5608 O   0  0  0  0  0  0  0  0  0  0  0  0
    2.8623   67.5324   84.4971 C   0  0  0  0  0  0  0  0  0  0  0  0
    4.2452   66.9446   84.6627 C   0  0  0  0  0  0  0  0  0  0  0  0
    4.4204   65.7020   85.2888 C   0  0  0  0  0  0  0  0  0  0  0  0
    5.6987   65.1669   85.4555 C   0  0  0  0  0  0  0  0  0  0  0  0
    6.8141   65.8713   85.0058 C   0  0  0  0  0  0  0  0  0  0  0  0
    6.6533   67.1133   84.3941 C   0  0  0  0  0  0  0  0  0  0  0  0
    5.3758   67.6497   84.2260 C   0  0  0  0  0  0  0  0  0  0  0  0
 26 27  1  0  0  0
 27 24  1  0  0  0
 24 25  2  0  0  0
 24 23  1  0  0  0
 23 22  1  0  0  0
 22  1  1  0  0  0
  1  2  2  0  0  0
  2  3  1  0  0  0
  3  4  1  0  0  0
  4  5  2  0  0  0
  4  6  1  0  0  0
  6 28  1  0  0  0
 28 29  1  0  0  0
 29 30  2  0  0  0
 30 31  1  0  0  0
 31 32  2  0  0  0
 32 33  1  0  0  0
 33 34  2  0  0  0
  6  7  1  0  0  0
  7  8  2  0  0  0
  8  9  1  0  0  0
  8 10  1  0  0  0
 10 11  1  0  0  0
 11 12  2  0  0  0
 12 13  1  0  0  0
 13 16  1  0  0  0
 16 17  2  0  0  0
 17 18  1  0  0  0
 18 19  2  0  0  0
 19 20  1  0  0  0
 20 21  2  0  0  0
 13 14  2  0  0  0
 14 15  1  0  0  0
 15  1  1  0  0  0
 10  3  2  0  0  0
 15 11  1  0  0  0
 34 29  1  0  0  0
 21 16  1  0  0  0
M  END
> <minimizedAffinity>
-10.77648

$$$$



 34 38  0  0  0  0  0  0  0  0999 V2000
    0.3248   64.4764   84.5768 C   0  0  0  0  0  0  0  0  0  0  0  0
    1.0614   65.5343   84.7403 N   0  0  0  0  0  0  0  0  0  0  0  0
    1.4104   66.2592   83.5982 C   0  0  0  0  0  0  0  0  0  0  0  0
    2.2830   67.4715   83.8214 C   0  0  0  0  0  0  0  0  0  0  0  0
    2.6454   67.7785   84.9583 O   0  0  0  0  0  0  0  0  0  0  0  0
    2.6297   68.1988   82.6938 N   0  0  0  0  0  0  0  0  0  0  0  0
    2.2373   67.8810   81.4216 N   0  0  0  0  0  0  0  0  0  0  0  0
    1.4950   66.8349   81.2495 C   0  0  0  0  0  0  0  0  0  0  0  0
    1.1115   66.5432   79.8170 C   0  0  0  0  0  0  0  0  0  0  0  0
    1.0197   65.9415   82.3428 C   0  0  0  0  0  0  0  0  0  0  0  0
    0.1893   64.7939   82.1632 C   0  0  0  0  0  0  0  0  0  0  0  0
   -0.4461   64.1083   81.1505 C   0  0  0  0  0  0  0  0  0  0  0  0
   -1.1300   63.0204   81.7684 C   0  0  0  0  0  0  0  0  0  0  0  0
   -0.9218   63.0369   83.0939 N   0  0  0  0  0  0  0  0  0  0  0  0
   -0.1235   64.0978   83.3091 N   0  0  0  0  0  0  0  0  0  0  0  0
   -1.9611   61.9879   81.1356 C   0  0  0  0  0  0  0  0  0  0  0  0
   -2.3017   60.8214   81.8395 C   0  0  0  0  0  0  0  0  0  0  0  0
   -3.0896   59.8299   81.2488 C   0  0  0  0  0  0  0  0  0  0  0  0
   -3.5502   59.9911   79.9451 C   0  0  0  0  0  0  0  0  0  0  0  0
   -3.2246   61.1426   79.2327 C   0  0  0  0  0  0  0  0  0  0  0  0
   -2.4355   62.1354   79.8232 C   0  0  0  0  0  0  0  0  0  0  0  0
   -0.1176   63.6201   85.7297 C   0  0  0  0  0  0  0  0  0  0  0  0
    0.0077   64.3885   87.0398 C   0  0  0  0  0  0  0  0  0  0  0  0
   -0.7896   63.7334   88.1386 C   0  0  0  0  0  0  0  0  0  0  0  0
   -1.9764   63.4464   88.0790 O   0  0  0  0  0  0  0  0  0  0  0  0
    0.3849   62.1489   89.3996 C   0  0  0  0  0  0  0  0  0  0  0  0
    0.0168   63.5167   89.2163 O   0  0  0  0  0  0  0  0  0  0  0  0
    3.5294   69.3412   82.8271 C   0  0  0  0  0  0  0  0  0  0  0  0
    2.9316   70.6055   82.2531 C   0  0  0  0  0  0  0  0  0  0  0  0
    3.5692   71.2817   81.2028 C   0  0  0  0  0  0  0  0  0  0  0  0
    3.0251   72.4574   80.6836 C   0  0  0  0  0  0  0  0  0  0  0  0
    1.8437   72.9730   81.2137 C   0  0  0  0  0  0  0  0  0  0  0  0
    1.2082   72.3171   82.2666 C   0  0  0  0  0  0  0  0  0  0  0  0
    1.7505   71.1409   82.7866 C   0  0  0  0  0  0  0  0  0  0  0  0
 26 27  1  0  0  0
 27 24  1  0  0  0
 24 25  2  0  0  0
 24 23  1  0  0  0
 23 22  1  0  0  0
 22  1  1  0  0  0
  1  2  2  0  0  0
  2  3  1  0  0  0
  3  4  1  0  0  0
  4  5  2  0  0  0
  4  6  1  0  0  0
  6 28  1  0  0  0
 28 29  1  0  0  0
 29 30  2  0  0  0
 30 31  1  0  0  0
 31 32  2  0  0  0
 32 33  1  0  0  0
 33 34  2  0  0  0
  6  7  1  0  0  0
  7  8  2  0  0  0
  8  9  1  0  0  0
  8 10  1  0  0  0
 10 11  1  0  0  0
 11 12  2  0  0  0
 12 13  1  0  0  0
 13 16  1  0  0  0
 16 17  2  0  0  0
 17 18  1  0  0  0
 18 19  2  0  0  0
 19 20  1  0  0  0
 20 21  2  0  0  0
 13 14  2  0  0  0
 14 15  1  0  0  0
 15  1  1  0  0  0
 10  3  2  0  0  0
 15 11  1  0  0  0
 34 29  1  0  0  0
 21 16  1  0  0  0
M  END
> <minimizedAffinity>
-10.36815

$$$$



 34 38  0  0  0  0  0  0  0  0999 V2000
    0.1111   65.0958   81.6125 C   0  0  0  0  0  0  0  0  0  0  0  0
    0.6113   66.0147   80.8419 N   0  0  0  0  0  0  0  0  0  0  0  0
    1.4127   66.9905   81.4395 C   0  0  0  0  0  0  0  0  0  0  0  0
    1.9618   68.0545   80.5190 C   0  0  0  0  0  0  0  0  0  0  0  0
    1.7025   68.0320   79.3147 O   0  0  0  0  0  0  0  0  0  0  0  0
    2.7619   69.0237   81.1034 N   0  0  0  0  0  0  0  0  0  0  0  0
    3.0676   69.0686   82.4368 N   0  0  0  0  0  0  0  0  0  0  0  0
    2.5825   68.1518   83.2109 C   0  0  0  0  0  0  0  0  0  0  0  0
    2.9557   68.2744   84.6703 C   0  0  0  0  0  0  0  0  0  0  0  0
    1.7125   67.0306   82.7579 C   0  0  0  0  0  0  0  0  0  0  0  0
    1.1848   66.0074   83.6026 C   0  0  0  0  0  0  0  0  0  0  0  0
    1.2128   65.6229   84.9257 C   0  0  0  0  0  0  0  0  0  0  0  0
    0.4219   64.4402   85.0179 C   0  0  0  0  0  0  0  0  0  0  0  0
   -0.0688   64.1174   83.8115 N   0  0  0  0  0  0  0  0  0  0  0  0
    0.3900   65.0708   82.9811 N   0  0  0  0  0  0  0  0  0  0  0  0
    0.1311   63.6277   86.2065 C   0  0  0  0  0  0  0  0  0  0  0  0
    0.7416   63.9251   87.4358 C   0  0  0  0  0  0  0  0  0  0  0  0
    0.4759   63.1590   88.5740 C   0  0  0  0  0  0  0  0  0  0  0  0
   -0.4059   62.0845   88.4999 C   0  0  0  0  0  0  0  0  0  0  0  0
   -1.0227   61.7765   87.2898 C   0  0  0  0  0  0  0  0  0  0  0  0
   -0.7568   62.5427   86.1500 C   0  0  0  0  0  0  0  0  0  0  0  0
   -0.7613   63.9921   81.0840 C   0  0  0  0  0  0  0  0  0  0  0  0
    0.0656   63.0091   80.2641 C   0  0  0  0  0  0  0  0  0  0  0  0
   -0.3814   61.5884   80.4968 C   0  0  0  0  0  0  0  0  0  0  0  0
   -0.9085   60.8655   79.6637 O   0  0  0  0  0  0  0  0  0  0  0  0
    1.2785   61.1102   82.0767 C   0  0  0  0  0  0  0  0  0  0  0  0
   -0.1143   61.2346   81.7860 O   0  0  0  0  0  0  0  0  0  0  0  0
    3.2682   70.1228   80.2860 C   0  0  0  0  0  0  0  0  0  0  0  0
    2.7354   71.4621   80.7417 C   0  0  0  0  0  0  0  0  0  0  0  0
    3.6148   72.5050   81.0670 C   0  0  0  0  0  0  0  0  0  0  0  0
    3.1230   73.7364   81.5025 C   0  0  0  0  0  0  0  0  0  0  0  0
    1.7489   73.9351   81.6249 C   0  0  0  0  0  0  0  0  0  0  0  0
    0.8657   72.9016   81.3173 C   0  0  0  0  0  0  0  0  0  0  0  0
    1.3557   71.6698   80.8810 C   0  0  0  0  0  0  0  0  0  0  0  0
 26 27  1  0  0  0
 27 24  1  0  0  0
 24 25  2  0  0  0
 24 23  1  0  0  0
 23 22  1  0  0  0
 22  1  1  0  0  0
  1  2  2  0  0  0
  2  3  1  0  0  0
  3  4  1  0  0  0
  4  5  2  0  0  0
  4  6  1  0  0  0
  6 28  1  0  0  0
 28 29  1  0  0  0
 29 30  2  0  0  0
 30 31  1  0  0  0
 31 32  2  0  0  0
 32 33  1  0  0  0
 33 34  2  0  0  0
  6  7  1  0  0  0
  7  8  2  0  0  0
  8  9  1  0  0  0
  8 10  1  0  0  0
 10 11  1  0  0  0
 11 12  2  0  0  0
 12 13  1  0  0  0
 13 16  1  0  0  0
 16 17  2  0  0  0
 17 18  1  0  0  0
 18 19  2  0  0  0
 19 20  1  0  0  0
 20 21  2  0  0  0
 13 14  2  0  0  0
 14 15  1  0  0  0
 15  1  1  0  0  0
 10  3  2  0  0  0
 15 11  1  0  0  0
 34 29  1  0  0  0
 21 16  1  0  0  0
M  END
> <minimizedAffinity>
-10.35563

$$$$



 34 38  0  0  0  0  0  0  0  0999 V2000
    0.4136   64.4150   84.4938 C   0  0  0  0  0  0  0  0  0  0  0  0
    1.0702   65.5306   84.6061 N   0  0  0  0  0  0  0  0  0  0  0  0
    1.3402   66.2402   83.4334 C   0  0  0  0  0  0  0  0  0  0  0  0
    2.1219   67.5220   83.5973 C   0  0  0  0  0  0  0  0  0  0  0  0
    2.4820   67.8944   84.7152 O   0  0  0  0  0  0  0  0  0  0  0  0
    2.3896   68.2343   82.4390 N   0  0  0  0  0  0  0  0  0  0  0  0
    1.9977   67.8442   81.1869 N   0  0  0  0  0  0  0  0  0  0  0  0
    1.3342   66.7395   81.0658 C   0  0  0  0  0  0  0  0  0  0  0  0
    0.9461   66.3706   79.6526 C   0  0  0  0  0  0  0  0  0  0  0  0
    0.9503   65.8508   82.1981 C   0  0  0  0  0  0  0  0  0  0  0  0
    0.2066   64.6381   82.0747 C   0  0  0  0  0  0  0  0  0  0  0  0
   -0.3943   63.8720   81.0995 C   0  0  0  0  0  0  0  0  0  0  0  0
   -0.9808   62.7573   81.7677 C   0  0  0  0  0  0  0  0  0  0  0  0
   -0.7484   62.8351   83.0870 N   0  0  0  0  0  0  0  0  0  0  0  0
   -0.0295   63.9602   83.2495 N   0  0  0  0  0  0  0  0  0  0  0  0
   -1.7429   61.6438   81.1877 C   0  0  0  0  0  0  0  0  0  0  0  0
   -1.8191   61.4860   79.7943 C   0  0  0  0  0  0  0  0  0  0  0  0
   -2.5427   60.4327   79.2288 C   0  0  0  0  0  0  0  0  0  0  0  0
   -3.1999   59.5200   80.0490 C   0  0  0  0  0  0  0  0  0  0  0  0
   -3.1332   59.6592   81.4332 C   0  0  0  0  0  0  0  0  0  0  0  0
   -2.4094   60.7137   81.9999 C   0  0  0  0  0  0  0  0  0  0  0  0
    0.0607   63.5677   85.6837 C   0  0  0  0  0  0  0  0  0  0  0  0
    0.0710   64.4082   86.9549 C   0  0  0  0  0  0  0  0  0  0  0  0
   -0.7654   63.7755   88.0378 C   0  0  0  0  0  0  0  0  0  0  0  0
   -1.9515   63.4945   87.9444 O   0  0  0  0  0  0  0  0  0  0  0  0
    0.3528   62.2042   89.3647 C   0  0  0  0  0  0  0  0  0  0  0  0
    0.0045   63.5717   89.1443 O   0  0  0  0  0  0  0  0  0  0  0  0
    3.2019   69.4455   82.5148 C   0  0  0  0  0  0  0  0  0  0  0  0
    2.3624   70.6994   82.4238 C   0  0  0  0  0  0  0  0  0  0  0  0
    1.0426   70.6402   81.9535 C   0  0  0  0  0  0  0  0  0  0  0  0
    0.2730   71.8004   81.8550 C   0  0  0  0  0  0  0  0  0  0  0  0
    0.8170   73.0313   82.2175 C   0  0  0  0  0  0  0  0  0  0  0  0
    2.1320   73.1044   82.6736 C   0  0  0  0  0  0  0  0  0  0  0  0
    2.9029   71.9452   82.7734 C   0  0  0  0  0  0  0  0  0  0  0  0
 26 27  1  0  0  0
 27 24  1  0  0  0
 24 25  2  0  0  0
 24 23  1  0  0  0
 23 22  1  0  0  0
 22  1  1  0  0  0
  1  2  2  0  0  0
  2  3  1  0  0  0
  3  4  1  0  0  0
  4  5  2  0  0  0
  4  6  1  0  0  0
  6 28  1  0  0  0
 28 29  1  0  0  0
 29 30  2  0  0  0
 30 31  1  0  0  0
 31 32  2  0  0  0
 32 33  1  0  0  0
 33 34  2  0  0  0
  6  7  1  0  0  0
  7  8  2  0  0  0
  8  9  1  0  0  0
  8 10  1  0  0  0
 10 11  1  0  0  0
 11 12  2  0  0  0
 12 13  1  0  0  0
 13 16  1  0  0  0
 16 17  2  0  0  0
 17 18  1  0  0  0
 18 19  2  0  0  0
 19 20  1  0  0  0
 20 21  2  0  0  0
 13 14  2  0  0  0
 14 15  1  0  0  0
 15  1  1  0  0  0
 10  3  2  0  0  0
 15 11  1  0  0  0
 34 29  1  0  0  0
 21 16  1  0  0  0
M  END
> <minimizedAffinity>
-10.32161

$$$$



 34 38  0  0  0  0  0  0  0  0999 V2000
   -0.7149   63.5194   83.0784 C   0  0  0  0  0  0  0  0  0  0  0  0
   -0.0403   64.4818   83.6326 N   0  0  0  0  0  0  0  0  0  0  0  0
    0.6590   65.3477   82.7883 C   0  0  0  0  0  0  0  0  0  0  0  0
    1.4483   66.4428   83.4654 C   0  0  0  0  0  0  0  0  0  0  0  0
    1.4510   66.5417   84.6936 O   0  0  0  0  0  0  0  0  0  0  0  0
    2.1410   67.3090   82.6344 N   0  0  0  0  0  0  0  0  0  0  0  0
    2.1510   67.2227   81.2684 N   0  0  0  0  0  0  0  0  0  0  0  0
    1.4737   66.2737   80.7065 C   0  0  0  0  0  0  0  0  0  0  0  0
    1.5421   66.2374   79.1972 C   0  0  0  0  0  0  0  0  0  0  0  0
    0.6655   65.2587   81.4386 C   0  0  0  0  0  0  0  0  0  0  0  0
   -0.0956   64.2174   80.8259 C   0  0  0  0  0  0  0  0  0  0  0  0
   -0.4048   63.7464   79.5682 C   0  0  0  0  0  0  0  0  0  0  0  0
   -1.2700   62.6292   79.7584 C   0  0  0  0  0  0  0  0  0  0  0  0
   -1.4785   62.4240   81.0679 N   0  0  0  0  0  0  0  0  0  0  0  0
   -0.7609   63.3767   81.6895 N   0  0  0  0  0  0  0  0  0  0  0  0
   -1.8900   61.7718   78.7396 C   0  0  0  0  0  0  0  0  0  0  0  0
   -1.4515   60.4494   78.5629 C   0  0  0  0  0  0  0  0  0  0  0  0
   -2.0307   59.6235   77.5957 C   0  0  0  0  0  0  0  0  0  0  0  0
   -3.0586   60.1077   76.7916 C   0  0  0  0  0  0  0  0  0  0  0  0
   -3.5082   61.4158   76.9545 C   0  0  0  0  0  0  0  0  0  0  0  0
   -2.9285   62.2432   77.9221 C   0  0  0  0  0  0  0  0  0  0  0  0
   -1.5093   62.5292   83.8826 C   0  0  0  0  0  0  0  0  0  0  0  0
   -0.8337   62.2720   85.2242 C   0  0  0  0  0  0  0  0  0  0  0  0
   -1.8165   62.3767   86.3624 C   0  0  0  0  0  0  0  0  0  0  0  0
   -2.7438   61.6080   86.5715 O   0  0  0  0  0  0  0  0  0  0  0  0
   -0.1174   63.7361   87.2258 C   0  0  0  0  0  0  0  0  0  0  0  0
   -1.5165   63.4689   87.1212 O   0  0  0  0  0  0  0  0  0  0  0  0
    2.9821   68.3473   83.2234 C   0  0  0  0  0  0  0  0  0  0  0  0
    2.8657   69.6606   82.4837 C   0  0  0  0  0  0  0  0  0  0  0  0
    3.8568   70.0554   81.5735 C   0  0  0  0  0  0  0  0  0  0  0  0
    3.7568   71.2751   80.9024 C   0  0  0  0  0  0  0  0  0  0  0  0
    2.6704   72.1153   81.1402 C   0  0  0  0  0  0  0  0  0  0  0  0
    1.6861   71.7396   82.0527 C   0  0  0  0  0  0  0  0  0  0  0  0
    1.7841   70.5200   82.7242 C   0  0  0  0  0  0  0  0  0  0  0  0
 26 27  1  0  0  0
 27 24  1  0  0  0
 24 25  2  0  0  0
 24 23  1  0  0  0
 23 22  1  0  0  0
 22  1  1  0  0  0
  1  2  2  0  0  0
  2  3  1  0  0  0
  3  4  1  0  0  0
  4  5  2  0  0  0
  4  6  1  0  0  0
  6 28  1  0  0  0
 28 29  1  0  0  0
 29 30  2  0  0  0
 30 31  1  0  0  0
 31 32  2  0  0  0
 32 33  1  0  0  0
 33 34  2  0  0  0
  6  7  1  0  0  0
  7  8  2  0  0  0
  8  9  1  0  0  0
  8 10  1  0  0  0
 10 11  1  0  0  0
 11 12  2  0  0  0
 12 13  1  0  0  0
 13 16  1  0  0  0
 16 17  2  0  0  0
 17 18  1  0  0  0
 18 19  2  0  0  0
 19 20  1  0  0  0
 20 21  2  0  0  0
 13 14  2  0  0  0
 14 15  1  0  0  0
 15  1  1  0  0  0
 10  3  2  0  0  0
 15 11  1  0  0  0
 34 29  1  0  0  0
 21 16  1  0  0  0
M  END
> <minimizedAffinity>
-10.15205

$$$$



 34 38  0  0  0  0  0  0  0  0999 V2000
   -0.9070   63.2391   85.3955 C   0  0  0  0  0  0  0  0  0  0  0  0
   -1.6634   62.3619   84.8067 N   0  0  0  0  0  0  0  0  0  0  0  0
   -1.5434   62.2345   83.4207 C   0  0  0  0  0  0  0  0  0  0  0  0
   -2.4506   61.2203   82.7655 C   0  0  0  0  0  0  0  0  0  0  0  0
   -3.2369   60.5568   83.4435 O   0  0  0  0  0  0  0  0  0  0  0  0
   -2.3342   61.0844   81.3912 N   0  0  0  0  0  0  0  0  0  0  0  0
   -1.4667   61.8063   80.6167 N   0  0  0  0  0  0  0  0  0  0  0  0
   -0.7018   62.6752   81.1953 C   0  0  0  0  0  0  0  0  0  0  0  0
    0.2204   63.4395   80.2736 C   0  0  0  0  0  0  0  0  0  0  0  0
   -0.6841   62.9498   82.6594 C   0  0  0  0  0  0  0  0  0  0  0  0
    0.1662   63.8964   83.3073 C   0  0  0  0  0  0  0  0  0  0  0  0
    1.1596   64.7989   82.9945 C   0  0  0  0  0  0  0  0  0  0  0  0
    1.5595   65.3995   84.2243 C   0  0  0  0  0  0  0  0  0  0  0  0
    0.8446   64.8923   85.2401 N   0  0  0  0  0  0  0  0  0  0  0  0
    0.0110   64.0032   84.6711 N   0  0  0  0  0  0  0  0  0  0  0  0
    2.5878   66.4244   84.4469 C   0  0  0  0  0  0  0  0  0  0  0  0
    3.7860   66.0966   85.1021 C   0  0  0  0  0  0  0  0  0  0  0  0
    4.7718   67.0622   85.3227 C   0  0  0  0  0  0  0  0  0  0  0  0
    4.5745   68.3704   84.8898 C   0  0  0  0  0  0  0  0  0  0  0  0
    3.3935   68.7131   84.2359 C   0  0  0  0  0  0  0  0  0  0  0  0
    2.4061   67.7471   84.0151 C   0  0  0  0  0  0  0  0  0  0  0  0
   -0.9436   63.4627   86.8812 C   0  0  0  0  0  0  0  0  0  0  0  0
   -0.4824   62.2106   87.6174 C   0  0  0  0  0  0  0  0  0  0  0  0
    0.2791   62.5601   88.8705 C   0  0  0  0  0  0  0  0  0  0  0  0
    0.3170   61.8847   89.8888 O   0  0  0  0  0  0  0  0  0  0  0  0
    2.1571   63.6528   87.9991 C   0  0  0  0  0  0  0  0  0  0  0  0
    0.9148   63.7536   88.6965 O   0  0  0  0  0  0  0  0  0  0  0  0
   -3.2298   60.1739   80.6831 C   0  0  0  0  0  0  0  0  0  0  0  0
   -3.0078   60.2067   79.1881 C   0  0  0  0  0  0  0  0  0  0  0  0
   -3.7177   61.1085   78.3824 C   0  0  0  0  0  0  0  0  0  0  0  0
   -3.5239   61.1277   77.0003 C   0  0  0  0  0  0  0  0  0  0  0  0
   -2.6254   60.2411   76.4094 C   0  0  0  0  0  0  0  0  0  0  0  0
   -1.9241   59.3311   77.1985 C   0  0  0  0  0  0  0  0  0  0  0  0
   -2.1162   59.3109   78.5808 C   0  0  0  0  0  0  0  0  0  0  0  0
 26 27  1  0  0  0
 27 24  1  0  0  0
 24 25  2  0  0  0
 24 23  1  0  0  0
 23 22  1  0  0  0
 22  1  1  0  0  0
  1  2  2  0  0  0
  2  3  1  0  0  0
  3  4  1  0  0  0
  4  5  2  0  0  0
  4  6  1  0  0  0
  6 28  1  0  0  0
 28 29  1  0  0  0
 29 30  2  0  0  0
 30 31  1  0  0  0
 31 32  2  0  0  0
 32 33  1  0  0  0
 33 34  2  0  0  0
  6  7  1  0  0  0
  7  8  2  0  0  0
  8  9  1  0  0  0
  8 10  1  0  0  0
 10 11  1  0  0  0
 11 12  2  0  0  0
 12 13  1  0  0  0
 13 16  1  0  0  0
 16 17  2  0  0  0
 17 18  1  0  0  0
 18 19  2  0  0  0
 19 20  1  0  0  0
 20 21  2  0  0  0
 13 14  2  0  0  0
 14 15  1  0  0  0
 15  1  1  0  0  0
 10  3  2  0  0  0
 15 11  1  0  0  0
 34 29  1  0  0  0
 21 16  1  0  0  0
M  END
> <minimizedAffinity>
-10.12209

$$$$



 34 38  0  0  0  0  0  0  0  0999 V2000
    0.3546   65.8113   81.1202 C   0  0  0  0  0  0  0  0  0  0  0  0
    0.9291   66.7748   80.4644 N   0  0  0  0  0  0  0  0  0  0  0  0
    1.7398   67.6527   81.1878 C   0  0  0  0  0  0  0  0  0  0  0  0
    2.3764   68.7723   80.3991 C   0  0  0  0  0  0  0  0  0  0  0  0
    2.1753   68.8747   79.1878 O   0  0  0  0  0  0  0  0  0  0  0  0
    3.1862   69.6449   81.1088 N   0  0  0  0  0  0  0  0  0  0  0  0
    3.4282   69.5505   82.4526 N   0  0  0  0  0  0  0  0  0  0  0  0
    2.8687   68.5881   83.1128 C   0  0  0  0  0  0  0  0  0  0  0  0
    3.1751   68.5561   84.5925 C   0  0  0  0  0  0  0  0  0  0  0  0
    1.9765   67.5551   82.5160 C   0  0  0  0  0  0  0  0  0  0  0  0
    1.3667   66.4823   83.2344 C   0  0  0  0  0  0  0  0  0  0  0  0
    1.3144   65.9745   84.5145 C   0  0  0  0  0  0  0  0  0  0  0  0
    0.4720   64.8255   84.4575 C   0  0  0  0  0  0  0  0  0  0  0  0
    0.0277   64.6401   83.2051 N   0  0  0  0  0  0  0  0  0  0  0  0
    0.5652   65.6453   82.4912 N   0  0  0  0  0  0  0  0  0  0  0  0
    0.0904   63.9192   85.5486 C   0  0  0  0  0  0  0  0  0  0  0  0
   -0.7001   62.7882   85.2876 C   0  0  0  0  0  0  0  0  0  0  0  0
   -1.0725   61.9189   86.3164 C   0  0  0  0  0  0  0  0  0  0  0  0
   -0.6584   62.1671   87.6220 C   0  0  0  0  0  0  0  0  0  0  0  0
    0.1283   63.2825   87.8991 C   0  0  0  0  0  0  0  0  0  0  0  0
    0.5010   64.1534   86.8698 C   0  0  0  0  0  0  0  0  0  0  0  0
   -0.5357   64.8030   80.4500 C   0  0  0  0  0  0  0  0  0  0  0  0
    0.2835   63.8919   79.5437 C   0  0  0  0  0  0  0  0  0  0  0  0
    0.0304   64.1939   78.0887 C   0  0  0  0  0  0  0  0  0  0  0  0
   -0.5354   65.1887   77.6590 O   0  0  0  0  0  0  0  0  0  0  0  0
    0.0419   61.8868   77.6920 C   0  0  0  0  0  0  0  0  0  0  0  0
    0.5238   63.1796   77.3228 O   0  0  0  0  0  0  0  0  0  0  0  0
    3.7764   70.7916   80.4239 C   0  0  0  0  0  0  0  0  0  0  0  0
    3.1869   72.1010   80.8964 C   0  0  0  0  0  0  0  0  0  0  0  0
    3.9881   73.0477   81.5510 C   0  0  0  0  0  0  0  0  0  0  0  0
    3.4399   74.2499   82.0009 C   0  0  0  0  0  0  0  0  0  0  0  0
    2.0850   74.5141   81.8085 C   0  0  0  0  0  0  0  0  0  0  0  0
    1.2759   73.5749   81.1712 C   0  0  0  0  0  0  0  0  0  0  0  0
    1.8225   72.3726   80.7201 C   0  0  0  0  0  0  0  0  0  0  0  0
 26 27  1  0  0  0
 27 24  1  0  0  0
 24 25  2  0  0  0
 24 23  1  0  0  0
 23 22  1  0  0  0
 22  1  1  0  0  0
  1  2  2  0  0  0
  2  3  1  0  0  0
  3  4  1  0  0  0
  4  5  2  0  0  0
  4  6  1  0  0  0
  6 28  1  0  0  0
 28 29  1  0  0  0
 29 30  2  0  0  0
 30 31  1  0  0  0
 31 32  2  0  0  0
 32 33  1  0  0  0
 33 34  2  0  0  0
  6  7  1  0  0  0
  7  8  2  0  0  0
  8  9  1  0  0  0
  8 10  1  0  0  0
 10 11  1  0  0  0
 11 12  2  0  0  0
 12 13  1  0  0  0
 13 16  1  0  0  0
 16 17  2  0  0  0
 17 18  1  0  0  0
 18 19  2  0  0  0
 19 20  1  0  0  0
 20 21  2  0  0  0
 13 14  2  0  0  0
 14 15  1  0  0  0
 15  1  1  0  0  0
 10  3  2  0  0  0
 15 11  1  0  0  0
 34 29  1  0  0  0
 21 16  1  0  0  0
M  END
> <minimizedAffinity>
-10.12114

$$$$



 34 38  0  0  0  0  0  0  0  0999 V2000
    1.0050   65.9407   82.5773 C   0  0  0  0  0  0  0  0  0  0  0  0
    0.8964   65.8074   81.2894 N   0  0  0  0  0  0  0  0  0  0  0  0
    0.3356   64.6213   80.8094 C   0  0  0  0  0  0  0  0  0  0  0  0
    0.2422   64.4904   79.3078 C   0  0  0  0  0  0  0  0  0  0  0  0
    0.6426   65.3976   78.5764 O   0  0  0  0  0  0  0  0  0  0  0  0
   -0.3175   63.3186   78.8237 N   0  0  0  0  0  0  0  0  0  0  0  0
   -0.7728   62.2984   79.6146 N   0  0  0  0  0  0  0  0  0  0  0  0
   -0.6783   62.4262   80.8991 C   0  0  0  0  0  0  0  0  0  0  0  0
   -1.1921   61.2550   81.7044 C   0  0  0  0  0  0  0  0  0  0  0  0
   -0.1134   63.6160   81.5951 C   0  0  0  0  0  0  0  0  0  0  0  0
   -0.0185   63.7708   83.0114 C   0  0  0  0  0  0  0  0  0  0  0  0
   -0.3318   63.0833   84.1640 C   0  0  0  0  0  0  0  0  0  0  0  0
    0.0677   63.9160   85.2504 C   0  0  0  0  0  0  0  0  0  0  0  0
    0.6019   65.0560   84.7864 N   0  0  0  0  0  0  0  0  0  0  0  0
    0.5505   64.9463   83.4469 N   0  0  0  0  0  0  0  0  0  0  0  0
   -0.0477   63.6537   86.6910 C   0  0  0  0  0  0  0  0  0  0  0  0
   -1.2846   63.2924   87.2494 C   0  0  0  0  0  0  0  0  0  0  0  0
   -1.4092   63.0425   88.6187 C   0  0  0  0  0  0  0  0  0  0  0  0
   -0.2978   63.1488   89.4500 C   0  0  0  0  0  0  0  0  0  0  0  0
    0.9375   63.5034   88.9132 C   0  0  0  0  0  0  0  0  0  0  0  0
    1.0629   63.7542   87.5427 C   0  0  0  0  0  0  0  0  0  0  0  0
    1.5873   67.1728   83.2108 C   0  0  0  0  0  0  0  0  0  0  0  0
    2.7906   67.6610   82.4130 C   0  0  0  0  0  0  0  0  0  0  0  0
    2.7500   69.1552   82.2181 C   0  0  0  0  0  0  0  0  0  0  0  0
    3.4269   69.9687   82.8301 O   0  0  0  0  0  0  0  0  0  0  0  0
    2.4039   69.7287   79.9750 C   0  0  0  0  0  0  0  0  0  0  0  0
    1.8332   69.4621   81.2568 O   0  0  0  0  0  0  0  0  0  0  0  0
   -0.3740   63.0942   77.3819 C   0  0  0  0  0  0  0  0  0  0  0  0
   -1.2114   61.8866   77.0270 C   0  0  0  0  0  0  0  0  0  0  0  0
   -2.6109   61.9722   77.0045 C   0  0  0  0  0  0  0  0  0  0  0  0
   -3.3841   60.8530   76.6921 C   0  0  0  0  0  0  0  0  0  0  0  0
   -2.7671   59.6361   76.4072 C   0  0  0  0  0  0  0  0  0  0  0  0
   -1.3773   59.5356   76.4396 C   0  0  0  0  0  0  0  0  0  0  0  0
   -0.6025   60.6539   76.7512 C   0  0  0  0  0  0  0  0  0  0  0  0
 26 27  1  0  0  0
 27 24  1  0  0  0
 24 25  2  0  0  0
 24 23  1  0  0  0
 23 22  1  0  0  0
 22  1  1  0  0  0
  1  2  2  0  0  0
  2  3  1  0  0  0
  3  4  1  0  0  0
  4  5  2  0  0  0
  4  6  1  0  0  0
  6 28  1  0  0  0
 28 29  1  0  0  0
 29 30  2  0  0  0
 30 31  1  0  0  0
 31 32  2  0  0  0
 32 33  1  0  0  0
 33 34  2  0  0  0
  6  7  1  0  0  0
  7  8  2  0  0  0
  8  9  1  0  0  0
  8 10  1  0  0  0
 10 11  1  0  0  0
 11 12  2  0  0  0
 12 13  1  0  0  0
 13 16  1  0  0  0
 16 17  2  0  0  0
 17 18  1  0  0  0
 18 19  2  0  0  0
 19 20  1  0  0  0
 20 21  2  0  0  0
 13 14  2  0  0  0
 14 15  1  0  0  0
 15  1  1  0  0  0
 10  3  2  0  0  0
 15 11  1  0  0  0
 34 29  1  0  0  0
 21 16  1  0  0  0
M  END
> <minimizedAffinity>
-9.89075

$$$$



 34 38  0  0  0  0  0  0  0  0999 V2000
    2.9227   66.6053   84.0815 C   0  0  0  0  0  0  0  0  0  0  0  0
    2.1934   65.5318   84.1443 N   0  0  0  0  0  0  0  0  0  0  0  0
    1.1659   65.3953   83.2076 C   0  0  0  0  0  0  0  0  0  0  0  0
    0.3250   64.1459   83.3209 C   0  0  0  0  0  0  0  0  0  0  0  0
    0.5607   63.3127   84.1975 O   0  0  0  0  0  0  0  0  0  0  0  0
   -0.6934   64.0008   82.3922 N   0  0  0  0  0  0  0  0  0  0  0  0
   -0.9729   64.9093   81.4073 N   0  0  0  0  0  0  0  0  0  0  0  0
   -0.2455   65.9770   81.3302 C   0  0  0  0  0  0  0  0  0  0  0  0
   -0.6214   66.9365   80.2247 C   0  0  0  0  0  0  0  0  0  0  0  0
    0.8937   66.2958   82.2357 C   0  0  0  0  0  0  0  0  0  0  0  0
    1.7099   67.4642   82.1487 C   0  0  0  0  0  0  0  0  0  0  0  0
    1.8388   68.5972   81.3748 C   0  0  0  0  0  0  0  0  0  0  0  0
    2.9396   69.3277   81.9110 C   0  0  0  0  0  0  0  0  0  0  0  0
    3.4579   68.6761   82.9632 N   0  0  0  0  0  0  0  0  0  0  0  0
    2.7038   67.5703   83.0954 N   0  0  0  0  0  0  0  0  0  0  0  0
    3.4968   70.6063   81.4505 C   0  0  0  0  0  0  0  0  0  0  0  0
    3.1452   71.8053   82.0917 C   0  0  0  0  0  0  0  0  0  0  0  0
    3.6658   73.0292   81.6626 C   0  0  0  0  0  0  0  0  0  0  0  0
    4.5474   73.0719   80.5861 C   0  0  0  0  0  0  0  0  0  0  0  0
    4.9094   71.8925   79.9398 C   0  0  0  0  0  0  0  0  0  0  0  0
    4.3883   70.6671   80.3686 C   0  0  0  0  0  0  0  0  0  0  0  0
    4.0588   66.8608   85.0315 C   0  0  0  0  0  0  0  0  0  0  0  0
    5.2700   66.0189   84.6484 C   0  0  0  0  0  0  0  0  0  0  0  0
    5.8919   65.3698   85.8585 C   0  0  0  0  0  0  0  0  0  0  0  0
    5.3768   64.4920   86.5357 O   0  0  0  0  0  0  0  0  0  0  0  0
    7.9730   65.9286   84.9437 C   0  0  0  0  0  0  0  0  0  0  0  0
    7.1182   65.9197   86.0878 O   0  0  0  0  0  0  0  0  0  0  0  0
   -1.5904   62.8523   82.4866 C   0  0  0  0  0  0  0  0  0  0  0  0
   -1.7861   62.1727   81.1505 C   0  0  0  0  0  0  0  0  0  0  0  0
   -0.7045   61.5681   80.4938 C   0  0  0  0  0  0  0  0  0  0  0  0
   -0.8825   60.9543   79.2530 C   0  0  0  0  0  0  0  0  0  0  0  0
   -2.1404   60.9458   78.6529 C   0  0  0  0  0  0  0  0  0  0  0  0
   -3.2200   61.5552   79.2898 C   0  0  0  0  0  0  0  0  0  0  0  0
   -3.0441   62.1689   80.5309 C   0  0  0  0  0  0  0  0  0  0  0  0
 26 27  1  0  0  0
 27 24  1  0  0  0
 24 25  2  0  0  0
 24 23  1  0  0  0
 23 22  1  0  0  0
 22  1  1  0  0  0
  1  2  2  0  0  0
  2  3  1  0  0  0
  3  4  1  0  0  0
  4  5  2  0  0  0
  4  6  1  0  0  0
  6 28  1  0  0  0
 28 29  1  0  0  0
 29 30  2  0  0  0
 30 31  1  0  0  0
 31 32  2  0  0  0
 32 33  1  0  0  0
 33 34  2  0  0  0
  6  7  1  0  0  0
  7  8  2  0  0  0
  8  9  1  0  0  0
  8 10  1  0  0  0
 10 11  1  0  0  0
 11 12  2  0  0  0
 12 13  1  0  0  0
 13 16  1  0  0  0
 16 17  2  0  0  0
 17 18  1  0  0  0
 18 19  2  0  0  0
 19 20  1  0  0  0
 20 21  2  0  0  0
 13 14  2  0  0  0
 14 15  1  0  0  0
 15  1  1  0  0  0
 10  3  2  0  0  0
 15 11  1  0  0  0
 34 29  1  0  0  0
 21 16  1  0  0  0
M  END
> <minimizedAffinity>
-9.73182

$$$$
