
     RDKit          3D

 58 64  0  0  0  0  0  0  0  0999 V2000
   -0.5203   -0.3188   -1.6951 O   0  0  0  0  0  0  0  0  0  0  0  0
    0.3862   -0.2883   -0.8623 C   0  0  0  0  0  0  0  0  0  0  0  0
    1.7690   -0.4625   -1.2829 C   0  0  0  0  0  0  0  0  0  0  0  0
    2.2848   -0.9631   -2.4636 C   0  0  0  0  0  0  0  0  0  0  0  0
    3.6945   -0.8672   -2.3699 C   0  0  0  0  0  0  0  0  0  0  0  0
    3.9739   -0.2995   -1.1413 C   0  0  0  0  0  0  0  0  0  0  0  0
    5.2011    0.0627   -0.4371 C   0  0  0  0  0  0  0  0  0  0  0  0
    6.4426    0.0305   -1.0667 C   0  0  0  0  0  0  0  0  0  0  0  0
    7.5766    0.3816   -0.3367 C   0  0  0  0  0  0  0  0  0  0  0  0
    7.4412    0.7521    0.9952 C   0  0  0  0  0  0  0  0  0  0  0  0
    6.1715    0.7551    1.5458 C   0  0  0  0  0  0  0  0  0  0  0  0
    5.0559    0.4177    0.8639 N   0  0  0  0  0  0  0  0  0  0  0  0
    2.7992   -0.0345   -0.4926 O   0  0  0  0  0  0  0  0  0  0  0  0
    0.1427   -0.0427    0.5079 N   0  0  0  0  0  0  0  0  0  0  0  0
    0.7830   -0.9751    1.4727 C   0  0  0  0  0  0  0  0  0  0  0  0
    0.0779   -2.3618    1.5000 C   0  0  0  0  0  0  0  0  0  0  0  0
   -1.3942   -2.2323    1.2503 C   0  0  0  0  0  0  0  0  0  0  0  0
   -1.9753   -1.0135    0.9359 C   0  0  0  0  0  0  0  0  0  0  0  0
   -3.2756   -1.2478    0.5868 N   0  0  0  0  0  0  0  0  0  0  0  0
   -3.5809   -2.5788    0.7823 C   0  0  0  0  0  0  0  0  0  0  0  0
   -4.7907   -3.2595    0.6002 C   0  0  0  0  0  0  0  0  0  0  0  0
   -4.8043   -4.6357    0.8466 C   0  0  0  0  0  0  0  0  0  0  0  0
   -3.6507   -5.3048    1.2495 C   0  0  0  0  0  0  0  0  0  0  0  0
   -2.4464   -4.6122    1.4205 C   0  0  0  0  0  0  0  0  0  0  0  0
   -2.4101   -3.2229    1.1922 C   0  0  0  0  0  0  0  0  0  0  0  0
   -1.2334    0.2988    0.9238 C   0  0  0  0  0  0  0  0  0  0  0  0
   -1.9319    1.5339    0.3584 C   0  0  0  0  0  0  0  0  0  0  0  0
   -3.1776    1.9264    0.9261 C   0  0  0  0  0  0  0  0  0  0  0  0
   -3.8681    3.0627    0.4923 C   0  0  0  0  0  0  0  0  0  0  0  0
   -3.2863    3.8277   -0.4906 C   0  0  0  0  0  0  0  0  0  0  0  0
   -2.0605    3.4963   -1.0374 C   0  0  0  0  0  0  0  0  0  0  0  0
   -1.3679    2.3684   -0.6221 C   0  0  0  0  0  0  0  0  0  0  0  0
   -1.7203    4.4697   -2.0983 C   0  0  0  0  0  0  0  0  0  0  0  0
   -2.7509    5.5516   -1.7717 C   0  0  0  0  0  0  0  0  0  0  0  0
   -3.8389    4.9643   -1.0186 O   0  0  0  0  0  0  0  0  0  0  0  0
    1.6976   -1.3488   -3.2864 H   0  0  0  0  0  0  0  0  0  0  0  0
    4.4159   -1.1775   -3.1122 H   0  0  0  0  0  0  0  0  0  0  0  0
    6.5397   -0.2554   -2.1080 H   0  0  0  0  0  0  0  0  0  0  0  0
    8.5566    0.3676   -0.8055 H   0  0  0  0  0  0  0  0  0  0  0  0
    8.3031    1.0328    1.5902 H   0  0  0  0  0  0  0  0  0  0  0  0
    6.0107    1.0379    2.5822 H   0  0  0  0  0  0  0  0  0  0  0  0
    0.7259   -0.5093    2.4647 H   0  0  0  0  0  0  0  0  0  0  0  0
    1.8437   -1.1267    1.2687 H   0  0  0  0  0  0  0  0  0  0  0  0
    0.5031   -2.9894    0.7068 H   0  0  0  0  0  0  0  0  0  0  0  0
    0.2722   -2.8599    2.4557 H   0  0  0  0  0  0  0  0  0  0  0  0
   -3.9208   -0.5616    0.2197 H   0  0  0  0  0  0  0  0  0  0  0  0
   -5.6875   -2.7438    0.2731 H   0  0  0  0  0  0  0  0  0  0  0  0
   -5.7290   -5.1924    0.7135 H   0  0  0  0  0  0  0  0  0  0  0  0
   -3.6827   -6.3765    1.4284 H   0  0  0  0  0  0  0  0  0  0  0  0
   -1.5509   -5.1432    1.7277 H   0  0  0  0  0  0  0  0  0  0  0  0
   -1.1183    0.5793    1.9839 H   0  0  0  0  0  0  0  0  0  0  0  0
   -3.6126    1.3425    1.7365 H   0  0  0  0  0  0  0  0  0  0  0  0
   -4.8211    3.3441    0.9253 H   0  0  0  0  0  0  0  0  0  0  0  0
   -0.4025    2.1572   -1.0676 H   0  0  0  0  0  0  0  0  0  0  0  0
   -0.6976    4.8504   -2.0398 H   0  0  0  0  0  0  0  0  0  0  0  0
   -1.9040    4.0343   -3.0858 H   0  0  0  0  0  0  0  0  0  0  0  0
   -2.3083    6.3440   -1.1545 H   0  0  0  0  0  0  0  0  0  0  0  0
   -3.1490    6.0155   -2.6802 H   0  0  0  0  0  0  0  0  0  0  0  0
  1  2  2  0
  2  3  1  0
  3  4  2  0
  4  5  1  0
  5  6  2  0
  6  7  1  0
  7  8  2  0
  8  9  1  0
  9 10  2  0
 10 11  1  0
 11 12  2  0
  6 13  1  0
  2 14  1  0
 14 15  1  0
 15 16  1  0
 16 17  1  0
 17 18  2  0
 18 19  1  0
 19 20  1  0
 20 21  2  0
 21 22  1  0
 22 23  2  0
 23 24  1  0
 24 25  2  0
 18 26  1  0
 26 27  1  0
 27 28  1  0
 28 29  2  0
 29 30  1  0
 30 31  2  0
 31 32  1  0
 31 33  1  0
 33 34  1  0
 34 35  1  0
 13  3  1  0
 26 14  1  0
 32 27  2  0
 12  7  1  0
 25 17  1  0
 35 30  1  0
 25 20  1  0
  4 36  1  0
  5 37  1  0
  8 38  1  0
  9 39  1  0
 10 40  1  0
 11 41  1  0
 15 42  1  0
 15 43  1  0
 16 44  1  0
 16 45  1  0
 19 46  1  0
 21 47  1  0
 22 48  1  0
 23 49  1  0
 24 50  1  0
 26 51  1  0
 28 52  1  0
 29 53  1  0
 32 54  1  0
 33 55  1  0
 33 56  1  0
 34 57  1  0
 34 58  1  0
M  END
$$$$
