


 36 39  0  0  0  0  0  0  0  0999 V2000
    2.1108   66.3133   84.2861 C   0  0  0  0  0  0  0  0  0  0  0  0
    1.5896   67.2598   83.3857 C   0  0  0  0  0  0  0  0  0  0  0  0
    2.4180   68.2318   82.8240 C   0  0  0  0  0  0  0  0  0  0  0  0
    3.7684   68.2888   83.1532 C   0  0  0  0  0  0  0  0  0  0  0  0
    4.2940   67.3629   84.0585 C   0  0  0  0  0  0  0  0  0  0  0  0
    3.4811   66.3703   84.6311 C   0  0  0  0  0  0  0  0  0  0  0  0
   -1.0694   62.6441   83.8713 C   0  0  0  0  0  0  0  0  0  0  0  0
   -1.7395   61.9032   84.7373 N   0  0  0  0  0  0  0  0  0  0  0  0
   -1.4018   62.3866   85.9824 C   0  0  0  0  0  0  0  0  0  0  0  0
   -1.9709   61.7895   87.2108 C   0  0  0  0  0  0  0  0  0  0  0  0
   -0.5144   63.4312   85.8560 C   0  0  0  0  0  0  0  0  0  0  0  0
    0.1524   64.2753   86.7806 C   0  0  0  0  0  0  0  0  0  0  0  0
    0.0453   64.2275   88.0010 O   0  0  0  0  0  0  0  0  0  0  0  0
    0.9715   65.1872   86.1634 N   0  0  0  0  0  0  0  0  0  0  0  0
    1.1454   65.2784   84.7979 C   0  0  0  0  0  0  0  0  0  0  0  0
    0.5220   64.5070   83.9564 N   0  0  0  0  0  0  0  0  0  0  0  0
   -0.3061   63.5905   84.5190 N   0  0  0  0  0  0  0  0  0  0  0  0
    1.4816   65.8060   86.7822 H   0  0  0  0  0  0  0  0  0  0  0  0
   -1.1150   62.5191   82.3856 C   0  0  0  0  0  0  0  0  0  0  0  0
    1.0908   61.2627   82.1145 C   0  0  0  0  0  0  0  0  0  0  0  0
   -0.4127   61.2611   81.8720 C   0  0  0  0  0  0  0  0  0  0  0  0
    1.7323   69.3761   81.6553 S   0  0  0  0  0  0  0  0  0  0  0  0
    2.7755   70.2898   81.2421 O   0  0  0  0  0  0  0  0  0  0  0  0
    0.4801   69.8424   82.2052 O   0  0  0  0  0  0  0  0  0  0  0  0
    1.3920   68.3801   80.3023 N   0  0  0  0  0  0  0  0  0  0  0  0
   -0.0553   68.1948   79.9713 C   0  0  0  0  0  0  0  0  0  0  0  0
   -0.5719   66.8344   80.3784 C   0  0  0  0  0  0  0  0  0  0  0  0
    0.2180   65.5719   79.4031 S   0  0  0  0  0  0  0  0  0  0  0  0
   -0.5286   65.5022   78.0544 N   0  0  0  0  0  0  0  0  0  0  0  0
    0.4063   64.4235   80.2669 O   0  0  0  0  0  0  0  0  0  0  0  0
    1.8291   66.2617   79.0888 C   0  0  0  0  0  0  0  0  0  0  0  0
    2.2295   67.1450   80.2502 C   0  0  0  0  0  0  0  0  0  0  0  0
   -0.1840   64.7285   77.4795 H   0  0  0  0  0  0  0  0  0  0  0  0
    3.9506   65.4323   85.5158 O   0  0  0  0  0  0  0  0  0  0  0  0
    5.3645   65.3030   85.6836 C   0  0  0  0  0  0  0  0  0  0  0  0
    5.6470   65.2136   87.1726 C   0  0  0  0  0  0  0  0  0  0  0  0
 20 21  1  0  0  0
 21 19  1  0  0  0
 19  7  1  0  0  0
  7  8  2  0  0  0
  8  9  1  0  0  0
  9 10  1  0  0  0
  9 11  2  0  0  0
 11 12  1  0  0  0
 12 13  2  0  0  0
 12 14  1  0  0  0
 14 15  1  0  0  0
 15  1  1  0  0  0
  1  2  1  0  0  0
  2  3  2  0  0  0
  3 22  1  0  0  0
 22 23  2  0  0  0
 22 24  2  0  0  0
 22 25  1  0  0  0
 25 26  1  0  0  0
 26 27  1  0  0  0
 27 28  1  0  0  0
 28 29  2  0  0  0
 28 30  2  0  0  0
 28 31  1  0  0  0
 31 32  1  0  0  0
  3  4  1  0  0  0
  4  5  2  0  0  0
  5  6  1  0  0  0
  6 34  1  0  0  0
 34 35  1  0  0  0
 35 36  1  0  0  0
 15 16  2  0  0  0
 16 17  1  0  0  0
 17  7  1  0  0  0
 17 11  1  0  0  0
  6  1  2  0  0  0
 32 25  1  0  0  0
 14 18  1  0  0  0
 29 33  1  0  0  0
M  END
> <minimizedAffinity>
-10.35741

$$$$



 36 39  0  0  0  0  0  0  0  0999 V2000
    2.1786   66.1559   84.4082 C   0  0  0  0  0  0  0  0  0  0  0  0
    1.7340   67.0656   83.4322 C   0  0  0  0  0  0  0  0  0  0  0  0
    2.6136   67.9992   82.8833 C   0  0  0  0  0  0  0  0  0  0  0  0
    3.9399   68.0540   83.2996 C   0  0  0  0  0  0  0  0  0  0  0  0
    4.3889   67.1648   84.2800 C   0  0  0  0  0  0  0  0  0  0  0  0
    3.5237   66.2110   84.8417 C   0  0  0  0  0  0  0  0  0  0  0  0
   -1.1303   62.6101   83.9312 C   0  0  0  0  0  0  0  0  0  0  0  0
   -1.8451   61.8960   84.7840 N   0  0  0  0  0  0  0  0  0  0  0  0
   -1.5137   62.3672   86.0354 C   0  0  0  0  0  0  0  0  0  0  0  0
   -2.1292   61.7933   87.2525 C   0  0  0  0  0  0  0  0  0  0  0  0
   -0.5848   63.3772   85.9265 C   0  0  0  0  0  0  0  0  0  0  0  0
    0.0954   64.1960   86.8639 C   0  0  0  0  0  0  0  0  0  0  0  0
   -0.0375   64.1534   88.0820 O   0  0  0  0  0  0  0  0  0  0  0  0
    0.9606   65.0755   86.2629 N   0  0  0  0  0  0  0  0  0  0  0  0
    1.1646   65.1589   84.9010 C   0  0  0  0  0  0  0  0  0  0  0  0
    0.5289   64.4111   84.0475 N   0  0  0  0  0  0  0  0  0  0  0  0
   -0.3444   63.5273   84.5938 N   0  0  0  0  0  0  0  0  0  0  0  0
    1.4817   65.6750   86.8915 H   0  0  0  0  0  0  0  0  0  0  0  0
   -1.1514   62.4857   82.4450 C   0  0  0  0  0  0  0  0  0  0  0  0
    1.0767   61.2930   82.0840 C   0  0  0  0  0  0  0  0  0  0  0  0
   -0.4382   61.2293   81.9424 C   0  0  0  0  0  0  0  0  0  0  0  0
    2.0260   69.0962   81.6197 S   0  0  0  0  0  0  0  0  0  0  0  0
    0.7658   69.6606   82.0520 O   0  0  0  0  0  0  0  0  0  0  0  0
    2.1613   68.4011   80.3601 O   0  0  0  0  0  0  0  0  0  0  0  0
    3.1711   70.3712   81.6600 N   0  0  0  0  0  0  0  0  0  0  0  0
    2.8849   71.4803   82.6225 C   0  0  0  0  0  0  0  0  0  0  0  0
    2.3774   72.7263   81.9346 C   0  0  0  0  0  0  0  0  0  0  0  0
    3.6607   73.4164   80.9118 S   0  0  0  0  0  0  0  0  0  0  0  0
    4.5825   74.2445   81.8316 N   0  0  0  0  0  0  0  0  0  0  0  0
    3.0174   73.9617   79.7332 O   0  0  0  0  0  0  0  0  0  0  0  0
    4.5731   71.9780   80.3934 C   0  0  0  0  0  0  0  0  0  0  0  0
    3.6333   70.7956   80.3050 C   0  0  0  0  0  0  0  0  0  0  0  0
    5.2906   74.7481   81.2905 H   0  0  0  0  0  0  0  0  0  0  0  0
    3.9179   65.3096   85.7982 O   0  0  0  0  0  0  0  0  0  0  0  0
    5.3154   65.1677   86.0645 C   0  0  0  0  0  0  0  0  0  0  0  0
    5.5459   65.5191   87.5234 C   0  0  0  0  0  0  0  0  0  0  0  0
 20 21  1  0  0  0
 21 19  1  0  0  0
 19  7  1  0  0  0
  7  8  2  0  0  0
  8  9  1  0  0  0
  9 10  1  0  0  0
  9 11  2  0  0  0
 11 12  1  0  0  0
 12 13  2  0  0  0
 12 14  1  0  0  0
 14 15  1  0  0  0
 15  1  1  0  0  0
  1  2  1  0  0  0
  2  3  2  0  0  0
  3 22  1  0  0  0
 22 23  2  0  0  0
 22 24  2  0  0  0
 22 25  1  0  0  0
 25 26  1  0  0  0
 26 27  1  0  0  0
 27 28  1  0  0  0
 28 29  2  0  0  0
 28 30  2  0  0  0
 28 31  1  0  0  0
 31 32  1  0  0  0
  3  4  1  0  0  0
  4  5  2  0  0  0
  5  6  1  0  0  0
  6 34  1  0  0  0
 34 35  1  0  0  0
 35 36  1  0  0  0
 15 16  2  0  0  0
 16 17  1  0  0  0
 17  7  1  0  0  0
 17 11  1  0  0  0
  6  1  2  0  0  0
 32 25  1  0  0  0
 14 18  1  0  0  0
 29 33  1  0  0  0
M  END
> <minimizedAffinity>
-10.12913

$$$$



 36 39  0  0  0  0  0  0  0  0999 V2000
    1.9699   66.3022   84.2152 C   0  0  0  0  0  0  0  0  0  0  0  0
    1.4475   67.1265   83.2025 C   0  0  0  0  0  0  0  0  0  0  0  0
    2.2490   68.0928   82.5939 C   0  0  0  0  0  0  0  0  0  0  0  0
    3.5727   68.2652   82.9857 C   0  0  0  0  0  0  0  0  0  0  0  0
    4.0981   67.4620   84.0017 C   0  0  0  0  0  0  0  0  0  0  0  0
    3.3125   66.4773   84.6238 C   0  0  0  0  0  0  0  0  0  0  0  0
   -1.1932   62.6041   83.9549 C   0  0  0  0  0  0  0  0  0  0  0  0
   -1.8162   61.8595   84.8524 N   0  0  0  0  0  0  0  0  0  0  0  0
   -1.4259   62.3491   86.0796 C   0  0  0  0  0  0  0  0  0  0  0  0
   -1.9326   61.7502   87.3342 C   0  0  0  0  0  0  0  0  0  0  0  0
   -0.5545   63.4011   85.9104 C   0  0  0  0  0  0  0  0  0  0  0  0
    0.1465   64.2534   86.8015 C   0  0  0  0  0  0  0  0  0  0  0  0
    0.0960   64.2078   88.0257 O   0  0  0  0  0  0  0  0  0  0  0  0
    0.9282   65.1708   86.1454 N   0  0  0  0  0  0  0  0  0  0  0  0
    1.0383   65.2601   84.7731 C   0  0  0  0  0  0  0  0  0  0  0  0
    0.3838   64.4811   83.9628 N   0  0  0  0  0  0  0  0  0  0  0  0
   -0.4094   63.5588   84.5649 N   0  0  0  0  0  0  0  0  0  0  0  0
    1.4607   65.7957   86.7387 H   0  0  0  0  0  0  0  0  0  0  0  0
   -1.3059   62.4749   82.4732 C   0  0  0  0  0  0  0  0  0  0  0  0
    0.9557   61.3303   82.1685 C   0  0  0  0  0  0  0  0  0  0  0  0
   -0.5457   61.2678   81.9212 C   0  0  0  0  0  0  0  0  0  0  0  0
    1.5666   69.0784   81.2870 S   0  0  0  0  0  0  0  0  0  0  0  0
    0.2962   68.5064   80.8966 O   0  0  0  0  0  0  0  0  0  0  0  0
    2.6275   69.3090   80.3334 O   0  0  0  0  0  0  0  0  0  0  0  0
    1.2136   70.5605   82.0727 N   0  0  0  0  0  0  0  0  0  0  0  0
   -0.0484   71.2436   81.6491 C   0  0  0  0  0  0  0  0  0  0  0  0
    0.2110   72.4377   80.7603 C   0  0  0  0  0  0  0  0  0  0  0  0
    1.0523   73.7062   81.6835 S   0  0  0  0  0  0  0  0  0  0  0  0
   -0.0193   74.4765   82.4831 N   0  0  0  0  0  0  0  0  0  0  0  0
    1.9796   74.3492   80.7741 O   0  0  0  0  0  0  0  0  0  0  0  0
    2.0225   72.7729   82.8488 C   0  0  0  0  0  0  0  0  0  0  0  0
    2.4054   71.4461   82.2305 C   0  0  0  0  0  0  0  0  0  0  0  0
    0.3864   75.2834   82.9649 H   0  0  0  0  0  0  0  0  0  0  0  0
    3.7839   65.6567   85.6175 O   0  0  0  0  0  0  0  0  0  0  0  0
    5.1984   65.5111   85.7658 C   0  0  0  0  0  0  0  0  0  0  0  0
    5.5029   65.4439   87.2516 C   0  0  0  0  0  0  0  0  0  0  0  0
 20 21  1  0  0  0
 21 19  1  0  0  0
 19  7  1  0  0  0
  7  8  2  0  0  0
  8  9  1  0  0  0
  9 10  1  0  0  0
  9 11  2  0  0  0
 11 12  1  0  0  0
 12 13  2  0  0  0
 12 14  1  0  0  0
 14 15  1  0  0  0
 15  1  1  0  0  0
  1  2  1  0  0  0
  2  3  2  0  0  0
  3 22  1  0  0  0
 22 23  2  0  0  0
 22 24  2  0  0  0
 22 25  1  0  0  0
 25 26  1  0  0  0
 26 27  1  0  0  0
 27 28  1  0  0  0
 28 29  2  0  0  0
 28 30  2  0  0  0
 28 31  1  0  0  0
 31 32  1  0  0  0
  3  4  1  0  0  0
  4  5  2  0  0  0
  5  6  1  0  0  0
  6 34  1  0  0  0
 34 35  1  0  0  0
 35 36  1  0  0  0
 15 16  2  0  0  0
 16 17  1  0  0  0
 17  7  1  0  0  0
 17 11  1  0  0  0
  6  1  2  0  0  0
 32 25  1  0  0  0
 14 18  1  0  0  0
 29 33  1  0  0  0
M  END
> <minimizedAffinity>
-9.97943

$$$$



 36 39  0  0  0  0  0  0  0  0999 V2000
    0.4536   65.0218   82.0243 C   0  0  0  0  0  0  0  0  0  0  0  0
    0.1261   64.2695   80.8821 C   0  0  0  0  0  0  0  0  0  0  0  0
    0.4374   64.7464   79.6084 C   0  0  0  0  0  0  0  0  0  0  0  0
    1.0650   65.9773   79.4461 C   0  0  0  0  0  0  0  0  0  0  0  0
    1.3814   66.7405   80.5734 C   0  0  0  0  0  0  0  0  0  0  0  0
    1.0847   66.2775   81.8663 C   0  0  0  0  0  0  0  0  0  0  0  0
   -2.0464   62.1286   85.0456 C   0  0  0  0  0  0  0  0  0  0  0  0
   -1.9360   61.8183   86.3261 N   0  0  0  0  0  0  0  0  0  0  0  0
   -0.8698   62.5523   86.7976 C   0  0  0  0  0  0  0  0  0  0  0  0
   -0.4471   62.4579   88.2125 C   0  0  0  0  0  0  0  0  0  0  0  0
   -0.3350   63.3107   85.7810 C   0  0  0  0  0  0  0  0  0  0  0  0
    0.7472   64.2237   85.6969 C   0  0  0  0  0  0  0  0  0  0  0  0
    1.4867   64.5457   86.6203 O   0  0  0  0  0  0  0  0  0  0  0  0
    0.9075   64.7335   84.4329 N   0  0  0  0  0  0  0  0  0  0  0  0
    0.1188   64.3974   83.3521 C   0  0  0  0  0  0  0  0  0  0  0  0
   -0.8784   63.5669   83.4403 N   0  0  0  0  0  0  0  0  0  0  0  0
   -1.0818   63.0393   84.6742 N   0  0  0  0  0  0  0  0  0  0  0  0
    1.6772   65.3818   84.3171 H   0  0  0  0  0  0  0  0  0  0  0  0
   -3.0703   61.6017   84.0976 C   0  0  0  0  0  0  0  0  0  0  0  0
   -3.0943   59.6407   82.4631 C   0  0  0  0  0  0  0  0  0  0  0  0
   -2.4554   60.9683   82.8485 C   0  0  0  0  0  0  0  0  0  0  0  0
    0.0520   63.7449   78.1964 S   0  0  0  0  0  0  0  0  0  0  0  0
    1.2600   63.0745   77.7663 O   0  0  0  0  0  0  0  0  0  0  0  0
   -0.7302   64.5634   77.2985 O   0  0  0  0  0  0  0  0  0  0  0  0
   -0.9692   62.5357   78.8548 N   0  0  0  0  0  0  0  0  0  0  0  0
   -0.3661   61.1740   78.9980 C   0  0  0  0  0  0  0  0  0  0  0  0
   -0.8612   60.2089   77.9459 C   0  0  0  0  0  0  0  0  0  0  0  0
   -2.5975   59.8955   78.1833 S   0  0  0  0  0  0  0  0  0  0  0  0
   -2.7220   58.8258   79.2885 N   0  0  0  0  0  0  0  0  0  0  0  0
   -3.1866   59.7500   76.8672 O   0  0  0  0  0  0  0  0  0  0  0  0
   -3.1909   61.4333   78.8567 C   0  0  0  0  0  0  0  0  0  0  0  0
   -2.3588   62.5723   78.3095 C   0  0  0  0  0  0  0  0  0  0  0  0
   -3.6942   58.5292   79.4094 H   0  0  0  0  0  0  0  0  0  0  0  0
    1.3842   66.9832   83.0044 O   0  0  0  0  0  0  0  0  0  0  0  0
    2.6130   67.7125   83.0492 C   0  0  0  0  0  0  0  0  0  0  0  0
    3.5993   66.9061   83.8750 C   0  0  0  0  0  0  0  0  0  0  0  0
 20 21  1  0  0  0
 21 19  1  0  0  0
 19  7  1  0  0  0
  7  8  2  0  0  0
  8  9  1  0  0  0
  9 10  1  0  0  0
  9 11  2  0  0  0
 11 12  1  0  0  0
 12 13  2  0  0  0
 12 14  1  0  0  0
 14 15  1  0  0  0
 15  1  1  0  0  0
  1  2  1  0  0  0
  2  3  2  0  0  0
  3 22  1  0  0  0
 22 23  2  0  0  0
 22 24  2  0  0  0
 22 25  1  0  0  0
 25 26  1  0  0  0
 26 27  1  0  0  0
 27 28  1  0  0  0
 28 29  2  0  0  0
 28 30  2  0  0  0
 28 31  1  0  0  0
 31 32  1  0  0  0
  3  4  1  0  0  0
  4  5  2  0  0  0
  5  6  1  0  0  0
  6 34  1  0  0  0
 34 35  1  0  0  0
 35 36  1  0  0  0
 15 16  2  0  0  0
 16 17  1  0  0  0
 17  7  1  0  0  0
 17 11  1  0  0  0
  6  1  2  0  0  0
 32 25  1  0  0  0
 14 18  1  0  0  0
 29 33  1  0  0  0
M  END
> <minimizedAffinity>
-9.94492

$$$$



 36 39  0  0  0  0  0  0  0  0999 V2000
    0.2966   64.1826   85.2040 C   0  0  0  0  0  0  0  0  0  0  0  0
   -0.2705   63.7953   83.9767 C   0  0  0  0  0  0  0  0  0  0  0  0
   -1.4301   63.0201   83.9472 C   0  0  0  0  0  0  0  0  0  0  0  0
   -2.0376   62.6079   85.1288 C   0  0  0  0  0  0  0  0  0  0  0  0
   -1.4743   62.9740   86.3543 C   0  0  0  0  0  0  0  0  0  0  0  0
   -0.3114   63.7606   86.4092 C   0  0  0  0  0  0  0  0  0  0  0  0
    2.9269   67.9775   83.6455 C   0  0  0  0  0  0  0  0  0  0  0  0
    4.1305   68.4441   83.9317 N   0  0  0  0  0  0  0  0  0  0  0  0
    4.6590   67.5714   84.8574 C   0  0  0  0  0  0  0  0  0  0  0  0
    6.0138   67.7809   85.4141 C   0  0  0  0  0  0  0  0  0  0  0  0
    3.7548   66.5696   85.1286 C   0  0  0  0  0  0  0  0  0  0  0  0
    3.7650   65.4375   85.9830 C   0  0  0  0  0  0  0  0  0  0  0  0
    4.6878   65.1020   86.7172 O   0  0  0  0  0  0  0  0  0  0  0  0
    2.5962   64.7212   85.9200 N   0  0  0  0  0  0  0  0  0  0  0  0
    1.5187   65.0576   85.1269 C   0  0  0  0  0  0  0  0  0  0  0  0
    1.5216   66.0920   84.3383 N   0  0  0  0  0  0  0  0  0  0  0  0
    2.6602   66.8306   84.3604 N   0  0  0  0  0  0  0  0  0  0  0  0
    2.5480   63.9087   86.5229 H   0  0  0  0  0  0  0  0  0  0  0  0
    1.9613   68.5699   82.6752 C   0  0  0  0  0  0  0  0  0  0  0  0
    1.9133   66.8349   80.8030 C   0  0  0  0  0  0  0  0  0  0  0  0
    2.3048   68.2462   81.2203 C   0  0  0  0  0  0  0  0  0  0  0  0
   -2.1411   62.5942   82.3792 S   0  0  0  0  0  0  0  0  0  0  0  0
   -3.0693   63.6369   81.9982 O   0  0  0  0  0  0  0  0  0  0  0  0
   -2.5384   61.2072   82.4580 O   0  0  0  0  0  0  0  0  0  0  0  0
   -0.8062   62.7150   81.3107 N   0  0  0  0  0  0  0  0  0  0  0  0
   -0.9081   63.7644   80.2491 C   0  0  0  0  0  0  0  0  0  0  0  0
   -1.2109   63.1823   78.8879 C   0  0  0  0  0  0  0  0  0  0  0  0
    0.1637   62.1962   78.3336 S   0  0  0  0  0  0  0  0  0  0  0  0
    1.2090   63.1627   77.7382 N   0  0  0  0  0  0  0  0  0  0  0  0
   -0.3870   61.0730   77.6018 O   0  0  0  0  0  0  0  0  0  0  0  0
    0.8321   61.5547   79.8542 C   0  0  0  0  0  0  0  0  0  0  0  0
   -0.2856   61.3898   80.8607 C   0  0  0  0  0  0  0  0  0  0  0  0
    1.9872   62.6512   77.3133 H   0  0  0  0  0  0  0  0  0  0  0  0
    0.2742   64.1554   87.5857 O   0  0  0  0  0  0  0  0  0  0  0  0
   -0.2518   63.6437   88.8126 C   0  0  0  0  0  0  0  0  0  0  0  0
    0.5341   62.3940   89.1669 C   0  0  0  0  0  0  0  0  0  0  0  0
 20 21  1  0  0  0
 21 19  1  0  0  0
 19  7  1  0  0  0
  7  8  2  0  0  0
  8  9  1  0  0  0
  9 10  1  0  0  0
  9 11  2  0  0  0
 11 12  1  0  0  0
 12 13  2  0  0  0
 12 14  1  0  0  0
 14 15  1  0  0  0
 15  1  1  0  0  0
  1  2  1  0  0  0
  2  3  2  0  0  0
  3 22  1  0  0  0
 22 23  2  0  0  0
 22 24  2  0  0  0
 22 25  1  0  0  0
 25 26  1  0  0  0
 26 27  1  0  0  0
 27 28  1  0  0  0
 28 29  2  0  0  0
 28 30  2  0  0  0
 28 31  1  0  0  0
 31 32  1  0  0  0
  3  4  1  0  0  0
  4  5  2  0  0  0
  5  6  1  0  0  0
  6 34  1  0  0  0
 34 35  1  0  0  0
 35 36  1  0  0  0
 15 16  2  0  0  0
 16 17  1  0  0  0
 17  7  1  0  0  0
 17 11  1  0  0  0
  6  1  2  0  0  0
 32 25  1  0  0  0
 14 18  1  0  0  0
 29 33  1  0  0  0
M  END
> <minimizedAffinity>
-9.90763

$$$$



 36 39  0  0  0  0  0  0  0  0999 V2000
    0.3692   64.2789   84.2559 C   0  0  0  0  0  0  0  0  0  0  0  0
   -0.1129   63.6174   83.1123 C   0  0  0  0  0  0  0  0  0  0  0  0
   -0.9793   62.5309   83.2368 C   0  0  0  0  0  0  0  0  0  0  0  0
   -1.3711   62.0767   84.4920 C   0  0  0  0  0  0  0  0  0  0  0  0
   -0.8862   62.7168   85.6358 C   0  0  0  0  0  0  0  0  0  0  0  0
   -0.0189   63.8176   85.5353 C   0  0  0  0  0  0  0  0  0  0  0  0
    4.3602   67.0112   84.8521 C   0  0  0  0  0  0  0  0  0  0  0  0
    4.7978   68.1340   84.3082 N   0  0  0  0  0  0  0  0  0  0  0  0
    3.8179   68.5271   83.4233 C   0  0  0  0  0  0  0  0  0  0  0  0
    3.9670   69.7619   82.6216 C   0  0  0  0  0  0  0  0  0  0  0  0
    2.7804   67.6227   83.4388 C   0  0  0  0  0  0  0  0  0  0  0  0
    1.5473   67.5253   82.7446 C   0  0  0  0  0  0  0  0  0  0  0  0
    1.1287   68.3219   81.9119 O   0  0  0  0  0  0  0  0  0  0  0  0
    0.8335   66.4071   83.0959 N   0  0  0  0  0  0  0  0  0  0  0  0
    1.2590   65.4680   84.0125 C   0  0  0  0  0  0  0  0  0  0  0  0
    2.3868   65.5703   84.6524 N   0  0  0  0  0  0  0  0  0  0  0  0
    3.1277   66.6648   84.3434 N   0  0  0  0  0  0  0  0  0  0  0  0
   -0.0507   66.2843   82.6173 H   0  0  0  0  0  0  0  0  0  0  0  0
    5.0635   66.2038   85.8905 C   0  0  0  0  0  0  0  0  0  0  0  0
    7.4639   65.8921   85.0789 C   0  0  0  0  0  0  0  0  0  0  0  0
    6.1016   65.2482   85.2998 C   0  0  0  0  0  0  0  0  0  0  0  0
   -1.6036   61.7552   81.7691 S   0  0  0  0  0  0  0  0  0  0  0  0
   -3.0089   62.0760   81.6432 O   0  0  0  0  0  0  0  0  0  0  0  0
   -1.1277   60.3909   81.7770 O   0  0  0  0  0  0  0  0  0  0  0  0
   -0.7954   62.6031   80.5175 N   0  0  0  0  0  0  0  0  0  0  0  0
   -1.6717   63.2964   79.5225 C   0  0  0  0  0  0  0  0  0  0  0  0
   -1.7376   62.5652   78.2017 C   0  0  0  0  0  0  0  0  0  0  0  0
   -0.1427   62.6011   77.4116 S   0  0  0  0  0  0  0  0  0  0  0  0
   -0.0148   63.9654   76.7020 N   0  0  0  0  0  0  0  0  0  0  0  0
    0.0223   61.3329   76.7300 O   0  0  0  0  0  0  0  0  0  0  0  0
    0.9843   62.6064   78.7900 C   0  0  0  0  0  0  0  0  0  0  0  0
    0.3628   61.8537   79.9461 C   0  0  0  0  0  0  0  0  0  0  0  0
    0.8436   64.0154   76.1466 H   0  0  0  0  0  0  0  0  0  0  0  0
    0.4760   64.4866   86.6264 O   0  0  0  0  0  0  0  0  0  0  0  0
    1.2210   63.7475   87.5973 C   0  0  0  0  0  0  0  0  0  0  0  0
    0.2783   63.3973   88.7347 C   0  0  0  0  0  0  0  0  0  0  0  0
 20 21  1  0  0  0
 21 19  1  0  0  0
 19  7  1  0  0  0
  7  8  2  0  0  0
  8  9  1  0  0  0
  9 10  1  0  0  0
  9 11  2  0  0  0
 11 12  1  0  0  0
 12 13  2  0  0  0
 12 14  1  0  0  0
 14 15  1  0  0  0
 15  1  1  0  0  0
  1  2  1  0  0  0
  2  3  2  0  0  0
  3 22  1  0  0  0
 22 23  2  0  0  0
 22 24  2  0  0  0
 22 25  1  0  0  0
 25 26  1  0  0  0
 26 27  1  0  0  0
 27 28  1  0  0  0
 28 29  2  0  0  0
 28 30  2  0  0  0
 28 31  1  0  0  0
 31 32  1  0  0  0
  3  4  1  0  0  0
  4  5  2  0  0  0
  5  6  1  0  0  0
  6 34  1  0  0  0
 34 35  1  0  0  0
 35 36  1  0  0  0
 15 16  2  0  0  0
 16 17  1  0  0  0
 17  7  1  0  0  0
 17 11  1  0  0  0
  6  1  2  0  0  0
 32 25  1  0  0  0
 14 18  1  0  0  0
 29 33  1  0  0  0
M  END
> <minimizedAffinity>
-9.56403

$$$$



 36 39  0  0  0  0  0  0  0  0999 V2000
    0.6608   64.3619   84.6462 C   0  0  0  0  0  0  0  0  0  0  0  0
    0.0446   64.3340   83.3823 C   0  0  0  0  0  0  0  0  0  0  0  0
   -1.1323   63.6109   83.1856 C   0  0  0  0  0  0  0  0  0  0  0  0
   -1.7089   62.8970   84.2310 C   0  0  0  0  0  0  0  0  0  0  0  0
   -1.0970   62.9051   85.4875 C   0  0  0  0  0  0  0  0  0  0  0  0
    0.0842   63.6320   85.7116 C   0  0  0  0  0  0  0  0  0  0  0  0
    3.5747   68.1120   83.5533 C   0  0  0  0  0  0  0  0  0  0  0  0
    4.7311   68.5479   84.0232 N   0  0  0  0  0  0  0  0  0  0  0  0
    5.0961   67.6534   85.0053 C   0  0  0  0  0  0  0  0  0  0  0  0
    6.3560   67.8258   85.7618 C   0  0  0  0  0  0  0  0  0  0  0  0
    4.1405   66.6697   85.1238 C   0  0  0  0  0  0  0  0  0  0  0  0
    3.9984   65.5286   85.9541 C   0  0  0  0  0  0  0  0  0  0  0  0
    4.7932   65.1641   86.8136 O   0  0  0  0  0  0  0  0  0  0  0  0
    2.8375   64.8399   85.7064 N   0  0  0  0  0  0  0  0  0  0  0  0
    1.8987   65.2094   84.7655 C   0  0  0  0  0  0  0  0  0  0  0  0
    2.0418   66.2519   84.0009 N   0  0  0  0  0  0  0  0  0  0  0  0
    3.1794   66.9639   84.2039 N   0  0  0  0  0  0  0  0  0  0  0  0
    2.6823   64.0223   86.2838 H   0  0  0  0  0  0  0  0  0  0  0  0
    2.7784   68.7367   82.4576 C   0  0  0  0  0  0  0  0  0  0  0  0
    0.9392   70.4453   81.9931 C   0  0  0  0  0  0  0  0  0  0  0  0
    2.1133   70.0484   82.8780 C   0  0  0  0  0  0  0  0  0  0  0  0
   -1.9045   63.6414   81.5893 S   0  0  0  0  0  0  0  0  0  0  0  0
   -1.0538   64.3812   80.6823 O   0  0  0  0  0  0  0  0  0  0  0  0
   -3.2906   63.9930   81.7970 O   0  0  0  0  0  0  0  0  0  0  0  0
   -1.8299   62.0005   81.0991 N   0  0  0  0  0  0  0  0  0  0  0  0
   -0.9599   61.7073   79.9177 C   0  0  0  0  0  0  0  0  0  0  0  0
   -1.7587   61.4491   78.6613 C   0  0  0  0  0  0  0  0  0  0  0  0
   -2.6964   59.9464   78.8401 S   0  0  0  0  0  0  0  0  0  0  0  0
   -1.7431   58.7733   78.5298 N   0  0  0  0  0  0  0  0  0  0  0  0
   -3.9570   60.1482   78.1542 O   0  0  0  0  0  0  0  0  0  0  0  0
   -3.0494   59.9029   80.5847 C   0  0  0  0  0  0  0  0  0  0  0  0
   -3.1583   61.3185   81.1077 C   0  0  0  0  0  0  0  0  0  0  0  0
   -2.2442   57.8807   78.5220 H   0  0  0  0  0  0  0  0  0  0  0  0
    0.7174   63.6809   86.9280 O   0  0  0  0  0  0  0  0  0  0  0  0
   -0.0837   63.6890   88.1121 C   0  0  0  0  0  0  0  0  0  0  0  0
    0.4724   62.6357   89.0535 C   0  0  0  0  0  0  0  0  0  0  0  0
 20 21  1  0  0  0
 21 19  1  0  0  0
 19  7  1  0  0  0
  7  8  2  0  0  0
  8  9  1  0  0  0
  9 10  1  0  0  0
  9 11  2  0  0  0
 11 12  1  0  0  0
 12 13  2  0  0  0
 12 14  1  0  0  0
 14 15  1  0  0  0
 15  1  1  0  0  0
  1  2  1  0  0  0
  2  3  2  0  0  0
  3 22  1  0  0  0
 22 23  2  0  0  0
 22 24  2  0  0  0
 22 25  1  0  0  0
 25 26  1  0  0  0
 26 27  1  0  0  0
 27 28  1  0  0  0
 28 29  2  0  0  0
 28 30  2  0  0  0
 28 31  1  0  0  0
 31 32  1  0  0  0
  3  4  1  0  0  0
  4  5  2  0  0  0
  5  6  1  0  0  0
  6 34  1  0  0  0
 34 35  1  0  0  0
 35 36  1  0  0  0
 15 16  2  0  0  0
 16 17  1  0  0  0
 17  7  1  0  0  0
 17 11  1  0  0  0
  6  1  2  0  0  0
 32 25  1  0  0  0
 14 18  1  0  0  0
 29 33  1  0  0  0
M  END
> <minimizedAffinity>
-9.47165

$$$$



 36 39  0  0  0  0  0  0  0  0999 V2000
   -0.3046   64.0847   82.1184 C   0  0  0  0  0  0  0  0  0  0  0  0
   -0.0364   65.2147   81.3252 C   0  0  0  0  0  0  0  0  0  0  0  0
    0.6398   66.3107   81.8619 C   0  0  0  0  0  0  0  0  0  0  0  0
    1.0493   66.3095   83.1914 C   0  0  0  0  0  0  0  0  0  0  0  0
    0.7747   65.1982   83.9933 C   0  0  0  0  0  0  0  0  0  0  0  0
    0.1020   64.0799   83.4730 C   0  0  0  0  0  0  0  0  0  0  0  0
   -1.1990   61.0299   78.4283 C   0  0  0  0  0  0  0  0  0  0  0  0
   -1.9887   59.9812   78.2709 N   0  0  0  0  0  0  0  0  0  0  0  0
   -2.6675   59.8429   79.4617 C   0  0  0  0  0  0  0  0  0  0  0  0
   -3.6539   58.7568   79.6539 C   0  0  0  0  0  0  0  0  0  0  0  0
   -2.2743   60.8239   80.3436 C   0  0  0  0  0  0  0  0  0  0  0  0
   -2.6294   61.1500   81.6775 C   0  0  0  0  0  0  0  0  0  0  0  0
   -3.4485   60.5532   82.3675 O   0  0  0  0  0  0  0  0  0  0  0  0
   -1.9398   62.2366   82.1541 N   0  0  0  0  0  0  0  0  0  0  0  0
   -0.9961   62.9375   81.4321 C   0  0  0  0  0  0  0  0  0  0  0  0
   -0.6838   62.6380   80.2055 N   0  0  0  0  0  0  0  0  0  0  0  0
   -1.3447   61.5722   79.6862 N   0  0  0  0  0  0  0  0  0  0  0  0
   -2.1481   62.5024   83.1091 H   0  0  0  0  0  0  0  0  0  0  0  0
   -0.2717   61.5946   77.4055 C   0  0  0  0  0  0  0  0  0  0  0  0
   -0.6795   64.0473   76.8266 C   0  0  0  0  0  0  0  0  0  0  0  0
   -0.9546   62.5928   76.4691 C   0  0  0  0  0  0  0  0  0  0  0  0
    1.0018   67.6956   80.8149 S   0  0  0  0  0  0  0  0  0  0  0  0
   -0.2309   68.1423   80.2028 O   0  0  0  0  0  0  0  0  0  0  0  0
    2.1614   67.3401   80.0296 O   0  0  0  0  0  0  0  0  0  0  0  0
    1.4584   68.9103   81.9351 N   0  0  0  0  0  0  0  0  0  0  0  0
    0.5954   70.1321   81.9664 C   0  0  0  0  0  0  0  0  0  0  0  0
    1.2461   71.3170   81.2911 C   0  0  0  0  0  0  0  0  0  0  0  0
    2.6800   71.8261   82.2152 S   0  0  0  0  0  0  0  0  0  0  0  0
    2.1833   72.7057   83.3817 N   0  0  0  0  0  0  0  0  0  0  0  0
    3.6703   72.2674   81.2535 O   0  0  0  0  0  0  0  0  0  0  0  0
    3.2691   70.2965   82.9105 C   0  0  0  0  0  0  0  0  0  0  0  0
    2.9304   69.1584   81.9727 C   0  0  0  0  0  0  0  0  0  0  0  0
    2.9673   73.1112   83.9001 H   0  0  0  0  0  0  0  0  0  0  0  0
   -0.1816   62.9610   84.2150 O   0  0  0  0  0  0  0  0  0  0  0  0
   -0.5720   63.1308   85.5798 C   0  0  0  0  0  0  0  0  0  0  0  0
   -1.9896   62.6067   85.7237 C   0  0  0  0  0  0  0  0  0  0  0  0
 20 21  1  0  0  0
 21 19  1  0  0  0
 19  7  1  0  0  0
  7  8  2  0  0  0
  8  9  1  0  0  0
  9 10  1  0  0  0
  9 11  2  0  0  0
 11 12  1  0  0  0
 12 13  2  0  0  0
 12 14  1  0  0  0
 14 15  1  0  0  0
 15  1  1  0  0  0
  1  2  1  0  0  0
  2  3  2  0  0  0
  3 22  1  0  0  0
 22 23  2  0  0  0
 22 24  2  0  0  0
 22 25  1  0  0  0
 25 26  1  0  0  0
 26 27  1  0  0  0
 27 28  1  0  0  0
 28 29  2  0  0  0
 28 30  2  0  0  0
 28 31  1  0  0  0
 31 32  1  0  0  0
  3  4  1  0  0  0
  4  5  2  0  0  0
  5  6  1  0  0  0
  6 34  1  0  0  0
 34 35  1  0  0  0
 35 36  1  0  0  0
 15 16  2  0  0  0
 16 17  1  0  0  0
 17  7  1  0  0  0
 17 11  1  0  0  0
  6  1  2  0  0  0
 32 25  1  0  0  0
 14 18  1  0  0  0
 29 33  1  0  0  0
M  END
> <minimizedAffinity>
-9.37702

$$$$



 36 39  0  0  0  0  0  0  0  0999 V2000
    2.2421   66.7775   83.7636 C   0  0  0  0  0  0  0  0  0  0  0  0
    1.7707   67.8954   83.0522 C   0  0  0  0  0  0  0  0  0  0  0  0
    2.5828   69.0166   82.8787 C   0  0  0  0  0  0  0  0  0  0  0  0
    3.8658   69.0527   83.4152 C   0  0  0  0  0  0  0  0  0  0  0  0
    4.3391   67.9535   84.1371 C   0  0  0  0  0  0  0  0  0  0  0  0
    3.5426   66.8104   84.3184 C   0  0  0  0  0  0  0  0  0  0  0  0
   -0.5841   63.5398   86.0611 C   0  0  0  0  0  0  0  0  0  0  0  0
   -1.3768   62.5604   85.6603 N   0  0  0  0  0  0  0  0  0  0  0  0
   -1.2743   62.5354   84.2867 C   0  0  0  0  0  0  0  0  0  0  0  0
   -2.0346   61.5516   83.4845 C   0  0  0  0  0  0  0  0  0  0  0  0
   -0.4079   63.5172   83.8621 C   0  0  0  0  0  0  0  0  0  0  0  0
    0.0557   63.9397   82.5900 C   0  0  0  0  0  0  0  0  0  0  0  0
   -0.2622   63.4494   81.5121 O   0  0  0  0  0  0  0  0  0  0  0  0
    0.9251   64.9983   82.6726 N   0  0  0  0  0  0  0  0  0  0  0  0
    1.3070   65.6017   83.8530 C   0  0  0  0  0  0  0  0  0  0  0  0
    0.8850   65.2012   85.0163 N   0  0  0  0  0  0  0  0  0  0  0  0
    0.0259   64.1508   84.9876 N   0  0  0  0  0  0  0  0  0  0  0  0
    1.2753   65.3468   81.7884 H   0  0  0  0  0  0  0  0  0  0  0  0
   -0.3401   63.9522   87.4736 C   0  0  0  0  0  0  0  0  0  0  0  0
    0.2514   62.2206   89.2537 C   0  0  0  0  0  0  0  0  0  0  0  0
   -0.8570   62.9324   88.4895 C   0  0  0  0  0  0  0  0  0  0  0  0
    1.9690   70.3859   81.9333 S   0  0  0  0  0  0  0  0  0  0  0  0
    1.0571   71.1437   82.7627 O   0  0  0  0  0  0  0  0  0  0  0  0
    1.5783   69.8670   80.6426 O   0  0  0  0  0  0  0  0  0  0  0  0
    3.3638   71.3604   81.7253 N   0  0  0  0  0  0  0  0  0  0  0  0
    3.3683   72.6650   82.4578 C   0  0  0  0  0  0  0  0  0  0  0  0
    3.1126   73.8415   81.5447 C   0  0  0  0  0  0  0  0  0  0  0  0
    4.4678   74.0272   80.4053 S   0  0  0  0  0  0  0  0  0  0  0  0
    5.5874   74.7874   81.1467 N   0  0  0  0  0  0  0  0  0  0  0  0
    3.9057   74.4715   79.1456 O   0  0  0  0  0  0  0  0  0  0  0  0
    5.0225   72.3517   80.1704 C   0  0  0  0  0  0  0  0  0  0  0  0
    3.8458   71.4113   80.3129 C   0  0  0  0  0  0  0  0  0  0  0  0
    6.3628   75.0117   80.5172 H   0  0  0  0  0  0  0  0  0  0  0  0
    3.9645   65.7022   85.0089 O   0  0  0  0  0  0  0  0  0  0  0  0
    5.3579   65.5723   85.3012 C   0  0  0  0  0  0  0  0  0  0  0  0
    5.4874   65.1261   86.7465 C   0  0  0  0  0  0  0  0  0  0  0  0
 20 21  1  0  0  0
 21 19  1  0  0  0
 19  7  1  0  0  0
  7  8  2  0  0  0
  8  9  1  0  0  0
  9 10  1  0  0  0
  9 11  2  0  0  0
 11 12  1  0  0  0
 12 13  2  0  0  0
 12 14  1  0  0  0
 14 15  1  0  0  0
 15  1  1  0  0  0
  1  2  1  0  0  0
  2  3  2  0  0  0
  3 22  1  0  0  0
 22 23  2  0  0  0
 22 24  2  0  0  0
 22 25  1  0  0  0
 25 26  1  0  0  0
 26 27  1  0  0  0
 27 28  1  0  0  0
 28 29  2  0  0  0
 28 30  2  0  0  0
 28 31  1  0  0  0
 31 32  1  0  0  0
  3  4  1  0  0  0
  4  5  2  0  0  0
  5  6  1  0  0  0
  6 34  1  0  0  0
 34 35  1  0  0  0
 35 36  1  0  0  0
 15 16  2  0  0  0
 16 17  1  0  0  0
 17  7  1  0  0  0
 17 11  1  0  0  0
  6  1  2  0  0  0
 32 25  1  0  0  0
 14 18  1  0  0  0
 29 33  1  0  0  0
M  END
> <minimizedAffinity>
-9.35594

$$$$
