
     RDKit          3D

 71 74  0  0  0  0  0  0  0  0999 V2000
   -4.5824   -2.6484    0.6788 C   0  0  0  0  0  0  0  0  0  0  0  0
   -4.5428   -2.8715    2.1846 C   0  0  0  0  0  0  0  0  0  0  0  0
   -3.5416   -1.9639    2.9059 C   0  0  0  0  0  0  0  0  0  0  0  0
   -3.9257   -0.5245    2.8912 C   0  0  0  0  0  0  0  0  0  0  0  0
   -4.8118   -0.0355    3.7800 N   0  0  0  0  0  0  0  0  0  0  0  0
   -4.9094    1.2795    3.4593 N   0  0  0  0  0  0  0  0  0  0  0  0
   -5.8040    2.1364    4.1989 C   0  0  0  0  0  0  0  0  0  0  0  0
   -4.1256    1.6302    2.4057 C   0  0  0  0  0  0  0  0  0  0  0  0
   -3.9362    2.8691    1.7468 C   0  0  0  0  0  0  0  0  0  0  0  0
   -4.4767    3.9292    2.0382 O   0  0  0  0  0  0  0  0  0  0  0  0
   -3.0474    2.7466    0.7034 N   0  0  0  0  0  0  0  0  0  0  0  0
   -2.4084    1.5647    0.3422 C   0  0  0  0  0  0  0  0  0  0  0  0
   -1.4662    1.6281   -0.8344 C   0  0  0  0  0  0  0  0  0  0  0  0
   -0.8416    0.4211   -1.2057 C   0  0  0  0  0  0  0  0  0  0  0  0
    0.0685    0.3930   -2.2632 C   0  0  0  0  0  0  0  0  0  0  0  0
    0.8273   -1.1363   -2.7539 S   0  0  0  0  0  0  0  0  0  0  0  0
    0.1261   -2.2299   -2.1173 O   0  0  0  0  0  0  0  0  0  0  0  0
    0.9891   -1.0881   -4.1918 O   0  0  0  0  0  0  0  0  0  0  0  0
    2.3789   -1.0305   -2.0432 N   0  0  0  0  0  0  0  0  0  0  0  0
    2.3885   -1.1119   -0.5478 C   0  0  0  0  0  0  0  0  0  0  0  0
    3.8222   -0.9386   -0.0040 C   0  0  0  0  0  0  0  0  0  0  0  0
    4.8284   -1.8822   -0.5527 N   0  0  0  0  0  0  0  0  0  0  0  0
    4.6244   -3.2493   -0.0251 C   0  0  0  0  0  0  0  0  0  0  0  0
    5.8472   -4.1548   -0.2086 C   0  0  0  0  0  0  0  0  0  0  0  0
    7.0096   -3.7291    0.6593 C   0  0  0  0  0  0  0  0  0  0  0  0
    7.5468   -4.4745    1.4768 O   0  0  0  0  0  0  0  0  0  0  0  0
    7.4476   -2.4451    0.4339 N   0  0  0  0  0  0  0  0  0  0  0  0
    8.4280   -1.9797    1.3442 O   0  0  0  0  0  0  0  0  0  0  0  0
    4.7529   -1.8189   -2.0342 C   0  0  0  0  0  0  0  0  0  0  0  0
    3.3447   -2.0076   -2.6380 C   0  0  0  0  0  0  0  0  0  0  0  0
    0.3513    1.5514   -2.9831 C   0  0  0  0  0  0  0  0  0  0  0  0
   -0.2765    2.7500   -2.6378 C   0  0  0  0  0  0  0  0  0  0  0  0
   -1.1907    2.8031   -1.5736 C   0  0  0  0  0  0  0  0  0  0  0  0
   -1.8261    3.9613   -1.1975 O   0  0  0  0  0  0  0  0  0  0  0  0
   -1.8083    5.0631   -2.1110 C   0  0  0  0  0  0  0  0  0  0  0  0
   -2.7351    6.1325   -1.5624 C   0  0  0  0  0  0  0  0  0  0  0  0
   -2.5798    0.4299    0.9660 N   0  0  0  0  0  0  0  0  0  0  0  0
   -3.4820    0.4912    2.0284 C   0  0  0  0  0  0  0  0  0  0  0  0
   -5.2451   -3.3822    0.2079 H   0  0  0  0  0  0  0  0  0  0  0  0
   -3.5864   -2.7594    0.2368 H   0  0  0  0  0  0  0  0  0  0  0  0
   -4.9637   -1.6531    0.4292 H   0  0  0  0  0  0  0  0  0  0  0  0
   -5.5499   -2.7325    2.5972 H   0  0  0  0  0  0  0  0  0  0  0  0
   -4.2636   -3.9162    2.3708 H   0  0  0  0  0  0  0  0  0  0  0  0
   -2.5443   -2.0890    2.4655 H   0  0  0  0  0  0  0  0  0  0  0  0
   -3.4591   -2.2971    3.9491 H   0  0  0  0  0  0  0  0  0  0  0  0
   -5.2292    2.9709    4.6076 H   0  0  0  0  0  0  0  0  0  0  0  0
   -6.2603    1.5685    5.0147 H   0  0  0  0  0  0  0  0  0  0  0  0
   -6.5790    2.4953    3.5163 H   0  0  0  0  0  0  0  0  0  0  0  0
   -2.8618    3.5951    0.1847 H   0  0  0  0  0  0  0  0  0  0  0  0
   -1.0638   -0.5002   -0.6683 H   0  0  0  0  0  0  0  0  0  0  0  0
    1.9764   -2.0721   -0.2180 H   0  0  0  0  0  0  0  0  0  0  0  0
    1.7737   -0.3095   -0.1299 H   0  0  0  0  0  0  0  0  0  0  0  0
    3.8107   -1.0023    1.0906 H   0  0  0  0  0  0  0  0  0  0  0  0
    4.1625    0.0797   -0.2351 H   0  0  0  0  0  0  0  0  0  0  0  0
    3.7476   -3.7283   -0.4748 H   0  0  0  0  0  0  0  0  0  0  0  0
    4.4259   -3.1895    1.0530 H   0  0  0  0  0  0  0  0  0  0  0  0
    5.5733   -5.1758    0.0836 H   0  0  0  0  0  0  0  0  0  0  0  0
    6.1815   -4.2044   -1.2490 H   0  0  0  0  0  0  0  0  0  0  0  0
    6.7666   -1.7546    0.1074 H   0  0  0  0  0  0  0  0  0  0  0  0
    8.6045   -2.7772    1.8903 H   0  0  0  0  0  0  0  0  0  0  0  0
    5.1277   -0.8317   -2.3383 H   0  0  0  0  0  0  0  0  0  0  0  0
    5.4421   -2.5390   -2.4871 H   0  0  0  0  0  0  0  0  0  0  0  0
    2.9887   -3.0311   -2.4775 H   0  0  0  0  0  0  0  0  0  0  0  0
    3.4178   -1.8354   -3.7174 H   0  0  0  0  0  0  0  0  0  0  0  0
    1.0513    1.5267   -3.8171 H   0  0  0  0  0  0  0  0  0  0  0  0
   -0.0254    3.6293   -3.2245 H   0  0  0  0  0  0  0  0  0  0  0  0
   -0.7948    5.4741   -2.1853 H   0  0  0  0  0  0  0  0  0  0  0  0
   -2.1663    4.7500   -3.0989 H   0  0  0  0  0  0  0  0  0  0  0  0
   -2.4079    6.4516   -0.5669 H   0  0  0  0  0  0  0  0  0  0  0  0
   -3.7523    5.7417   -1.4518 H   0  0  0  0  0  0  0  0  0  0  0  0
   -2.7604    7.0038   -2.2232 H   0  0  0  0  0  0  0  0  0  0  0  0
  1  2  1  0
  2  3  1  0
  3  4  1  0
  4  5  2  0
  5  6  1  0
  6  7  1  0
  6  8  1  0
  8  9  1  0
  9 10  2  0
  9 11  1  0
 11 12  1  0
 12 13  1  0
 13 14  1  0
 14 15  2  0
 15 16  1  0
 16 17  2  0
 16 18  2  0
 16 19  1  0
 19 20  1  0
 20 21  1  0
 21 22  1  0
 22 23  1  0
 23 24  1  0
 24 25  1  0
 25 26  2  0
 25 27  1  0
 27 28  1  0
 22 29  1  0
 29 30  1  0
 15 31  1  0
 31 32  2  0
 32 33  1  0
 33 34  1  0
 34 35  1  0
 35 36  1  0
 12 37  2  0
 37 38  1  0
 38  4  1  0
 38  8  2  0
 33 13  2  0
 30 19  1  0
  1 39  1  0
  1 40  1  0
  1 41  1  0
  2 42  1  0
  2 43  1  0
  3 44  1  0
  3 45  1  0
  7 46  1  0
  7 47  1  0
  7 48  1  0
 11 49  1  0
 14 50  1  0
 20 51  1  0
 20 52  1  0
 21 53  1  0
 21 54  1  0
 23 55  1  0
 23 56  1  0
 24 57  1  0
 24 58  1  0
 27 59  1  0
 28 60  1  0
 29 61  1  0
 29 62  1  0
 30 63  1  0
 30 64  1  0
 31 65  1  0
 32 66  1  0
 35 67  1  0
 35 68  1  0
 36 69  1  0
 36 70  1  0
 36 71  1  0
M  END
$$$$
