


 29 33  0  0  0  0  0  0  0  0999 V2000
   -1.5603   61.8765   79.6602 N   0  0  0  0  0  0  0  0  0  0  0  0
   -2.6455   62.1288   80.4576 C   0  0  0  0  0  0  0  0  0  0  0  0
   -3.7878   61.7252   80.2828 O   0  0  0  0  0  0  0  0  0  0  0  0
   -2.2066   63.0067   81.6188 C   0  0  0  0  0  0  0  0  0  0  0  0
   -2.5131   62.3709   82.9799 C   0  0  0  0  0  0  0  0  0  0  0  0
   -1.5714   62.9178   84.0041 C   0  0  0  0  0  0  0  0  0  0  0  0
   -0.3796   63.5251   83.6448 C   0  0  0  0  0  0  0  0  0  0  0  0
    0.2657   63.8999   84.7928 N   0  0  0  0  0  0  0  0  0  0  0  0
   -0.4950   63.5573   85.8905 C   0  0  0  0  0  0  0  0  0  0  0  0
   -0.2427   63.7510   87.2539 C   0  0  0  0  0  0  0  0  0  0  0  0
   -1.2008   63.2917   88.1626 C   0  0  0  0  0  0  0  0  0  0  0  0
   -2.3641   62.6634   87.7238 C   0  0  0  0  0  0  0  0  0  0  0  0
   -2.6033   62.4775   86.3574 C   0  0  0  0  0  0  0  0  0  0  0  0
   -1.6547   62.9334   85.4216 C   0  0  0  0  0  0  0  0  0  0  0  0
    0.1469   63.7525   82.2539 C   0  0  0  0  0  0  0  0  0  0  0  0
   -0.7785   63.0892   81.3449 N   0  0  0  0  0  0  0  0  0  0  0  0
   -0.4255   62.4266   80.1922 C   0  0  0  0  0  0  0  0  0  0  0  0
    0.7073   62.3295   79.7467 O   0  0  0  0  0  0  0  0  0  0  0  0
    1.1559   64.3780   84.8376 H   0  0  0  0  0  0  0  0  0  0  0  0
    0.3186   65.2157   81.8740 C   0  0  0  0  0  0  0  0  0  0  0  0
    1.3601   65.9561   82.4599 C   0  0  0  0  0  0  0  0  0  0  0  0
    1.5650   67.2953   82.1228 C   0  0  0  0  0  0  0  0  0  0  0  0
    0.7386   67.9133   81.1880 C   0  0  0  0  0  0  0  0  0  0  0  0
   -0.2877   67.1912   80.5835 C   0  0  0  0  0  0  0  0  0  0  0  0
   -0.4929   65.8509   80.9182 C   0  0  0  0  0  0  0  0  0  0  0  0
   -1.5832   61.0554   78.4671 C   0  0  0  0  0  0  0  0  0  0  0  0
   -2.0554   61.8166   77.2244 C   0  0  0  0  0  0  0  0  0  0  0  0
   -1.0063   64.0737   76.8303 C   0  0  0  0  0  0  0  0  0  0  0  0
   -0.9307   62.5850   76.5279 C   0  0  0  0  0  0  0  0  0  0  0  0
 28 29  1  0  0  0
 29 27  1  0  0  0
 27 26  1  0  0  0
 26  1  1  0  0  0
  1  2  1  0  0  0
  2  3  2  0  0  0
  2  4  1  0  0  0
  4  5  1  0  0  0
  5  6  1  0  0  0
  6  7  2  0  0  0
  7  8  1  0  0  0
  8  9  1  0  0  0
  9 10  2  0  0  0
 10 11  1  0  0  0
 11 12  2  0  0  0
 12 13  1  0  0  0
 13 14  2  0  0  0
  7 15  1  0  0  0
 15 20  1  0  0  0
 20 21  2  0  0  0
 21 22  1  0  0  0
 22 23  2  0  0  0
 23 24  1  0  0  0
 24 25  2  0  0  0
 15 16  1  0  0  0
 16 17  1  0  0  0
 17 18  2  0  0  0
 17  1  1  0  0  0
 16  4  1  0  0  0
 14  6  1  0  0  0
 25 20  1  0  0  0
 14  9  1  0  0  0
  8 19  1  0  0  0
M  END
> <minimizedAffinity>
-10.61955

$$$$



 29 33  0  0  0  0  0  0  0  0999 V2000
    1.5089   67.8153   81.7966 N   0  0  0  0  0  0  0  0  0  0  0  0
    2.3622   67.2959   82.7344 C   0  0  0  0  0  0  0  0  0  0  0  0
    3.3597   67.8382   83.1918 O   0  0  0  0  0  0  0  0  0  0  0  0
    1.8721   65.9119   83.1295 C   0  0  0  0  0  0  0  0  0  0  0  0
    1.6164   65.7912   84.6364 C   0  0  0  0  0  0  0  0  0  0  0  0
    0.6109   64.7126   84.8821 C   0  0  0  0  0  0  0  0  0  0  0  0
   -0.2329   64.2634   83.8797 C   0  0  0  0  0  0  0  0  0  0  0  0
   -1.0435   63.2969   84.4123 N   0  0  0  0  0  0  0  0  0  0  0  0
   -0.7297   63.1026   85.7407 C   0  0  0  0  0  0  0  0  0  0  0  0
   -1.2834   62.2184   86.6743 C   0  0  0  0  0  0  0  0  0  0  0  0
   -0.7663   62.2389   87.9732 C   0  0  0  0  0  0  0  0  0  0  0  0
    0.2630   63.1098   88.3230 C   0  0  0  0  0  0  0  0  0  0  0  0
    0.8075   63.9877   87.3787 C   0  0  0  0  0  0  0  0  0  0  0  0
    0.3057   63.9848   86.0627 C   0  0  0  0  0  0  0  0  0  0  0  0
   -0.2806   64.7278   82.4495 C   0  0  0  0  0  0  0  0  0  0  0  0
    0.6476   65.8458   82.3436 N   0  0  0  0  0  0  0  0  0  0  0  0
    0.4598   66.9664   81.5682 C   0  0  0  0  0  0  0  0  0  0  0  0
   -0.4923   67.1692   80.8310 O   0  0  0  0  0  0  0  0  0  0  0  0
   -1.7526   62.7810   83.9083 H   0  0  0  0  0  0  0  0  0  0  0  0
    0.0514   63.6537   81.4244 C   0  0  0  0  0  0  0  0  0  0  0  0
    0.6313   62.4494   81.8598 C   0  0  0  0  0  0  0  0  0  0  0  0
    0.9319   61.4302   80.9544 C   0  0  0  0  0  0  0  0  0  0  0  0
    0.6492   61.5942   79.6009 C   0  0  0  0  0  0  0  0  0  0  0  0
    0.0585   62.7733   79.1527 C   0  0  0  0  0  0  0  0  0  0  0  0
   -0.2446   63.7932   80.0574 C   0  0  0  0  0  0  0  0  0  0  0  0
    1.6380   69.1276   81.1971 C   0  0  0  0  0  0  0  0  0  0  0  0
    0.9479   70.2282   82.0089 C   0  0  0  0  0  0  0  0  0  0  0  0
   -0.5215   72.2496   81.6841 C   0  0  0  0  0  0  0  0  0  0  0  0
   -0.2980   70.7896   81.3211 C   0  0  0  0  0  0  0  0  0  0  0  0
 28 29  1  0  0  0
 29 27  1  0  0  0
 27 26  1  0  0  0
 26  1  1  0  0  0
  1  2  1  0  0  0
  2  3  2  0  0  0
  2  4  1  0  0  0
  4  5  1  0  0  0
  5  6  1  0  0  0
  6  7  2  0  0  0
  7  8  1  0  0  0
  8  9  1  0  0  0
  9 10  2  0  0  0
 10 11  1  0  0  0
 11 12  2  0  0  0
 12 13  1  0  0  0
 13 14  2  0  0  0
  7 15  1  0  0  0
 15 20  1  0  0  0
 20 21  2  0  0  0
 21 22  1  0  0  0
 22 23  2  0  0  0
 23 24  1  0  0  0
 24 25  2  0  0  0
 15 16  1  0  0  0
 16 17  1  0  0  0
 17 18  2  0  0  0
 17  1  1  0  0  0
 16  4  1  0  0  0
 14  6  1  0  0  0
 25 20  1  0  0  0
 14  9  1  0  0  0
  8 19  1  0  0  0
M  END
> <minimizedAffinity>
-10.24521

$$$$



 29 33  0  0  0  0  0  0  0  0999 V2000
    0.2822   63.4694   84.4968 N   0  0  0  0  0  0  0  0  0  0  0  0
    0.4693   63.7860   83.1769 C   0  0  0  0  0  0  0  0  0  0  0  0
   -0.0270   63.2169   82.2135 O   0  0  0  0  0  0  0  0  0  0  0  0
    1.4089   64.9780   83.0876 C   0  0  0  0  0  0  0  0  0  0  0  0
    0.7868   66.1564   82.3291 C   0  0  0  0  0  0  0  0  0  0  0  0
    1.4324   67.4282   82.7768 C   0  0  0  0  0  0  0  0  0  0  0  0
    2.1218   67.5108   83.9753 C   0  0  0  0  0  0  0  0  0  0  0  0
    2.5758   68.7952   84.1131 N   0  0  0  0  0  0  0  0  0  0  0  0
    2.2034   69.5435   83.0166 C   0  0  0  0  0  0  0  0  0  0  0  0
    2.4518   70.8893   82.7213 C   0  0  0  0  0  0  0  0  0  0  0  0
    1.9426   71.3948   81.5214 C   0  0  0  0  0  0  0  0  0  0  0  0
    1.2138   70.5857   80.6526 C   0  0  0  0  0  0  0  0  0  0  0  0
    0.9741   69.2416   80.9606 C   0  0  0  0  0  0  0  0  0  0  0  0
    1.4784   68.7077   82.1623 C   0  0  0  0  0  0  0  0  0  0  0  0
    2.3533   66.4095   84.9737 C   0  0  0  0  0  0  0  0  0  0  0  0
    1.5960   65.2565   84.5049 N   0  0  0  0  0  0  0  0  0  0  0  0
    0.9332   64.3583   85.3087 C   0  0  0  0  0  0  0  0  0  0  0  0
    0.9137   64.3768   86.5296 O   0  0  0  0  0  0  0  0  0  0  0  0
    3.1232   69.1453   84.8882 H   0  0  0  0  0  0  0  0  0  0  0  0
    3.8151   66.0438   85.1843 C   0  0  0  0  0  0  0  0  0  0  0  0
    4.7773   66.5265   84.2802 C   0  0  0  0  0  0  0  0  0  0  0  0
    6.1313   66.2316   84.4495 C   0  0  0  0  0  0  0  0  0  0  0  0
    6.5465   65.4577   85.5300 C   0  0  0  0  0  0  0  0  0  0  0  0
    5.6100   64.9850   86.4463 C   0  0  0  0  0  0  0  0  0  0  0  0
    4.2553   65.2807   86.2795 C   0  0  0  0  0  0  0  0  0  0  0  0
   -0.5690   62.4010   84.9787 C   0  0  0  0  0  0  0  0  0  0  0  0
   -2.0492   62.7921   85.0335 C   0  0  0  0  0  0  0  0  0  0  0  0
   -2.2397   63.1166   87.5254 C   0  0  0  0  0  0  0  0  0  0  0  0
   -2.7426   62.3380   86.3194 C   0  0  0  0  0  0  0  0  0  0  0  0
 28 29  1  0  0  0
 29 27  1  0  0  0
 27 26  1  0  0  0
 26  1  1  0  0  0
  1  2  1  0  0  0
  2  3  2  0  0  0
  2  4  1  0  0  0
  4  5  1  0  0  0
  5  6  1  0  0  0
  6  7  2  0  0  0
  7  8  1  0  0  0
  8  9  1  0  0  0
  9 10  2  0  0  0
 10 11  1  0  0  0
 11 12  2  0  0  0
 12 13  1  0  0  0
 13 14  2  0  0  0
  7 15  1  0  0  0
 15 20  1  0  0  0
 20 21  2  0  0  0
 21 22  1  0  0  0
 22 23  2  0  0  0
 23 24  1  0  0  0
 24 25  2  0  0  0
 15 16  1  0  0  0
 16 17  1  0  0  0
 17 18  2  0  0  0
 17  1  1  0  0  0
 16  4  1  0  0  0
 14  6  1  0  0  0
 25 20  1  0  0  0
 14  9  1  0  0  0
  8 19  1  0  0  0
M  END
> <minimizedAffinity>
-10.09807

$$$$



 29 33  0  0  0  0  0  0  0  0999 V2000
    1.4502   67.8193   81.8532 N   0  0  0  0  0  0  0  0  0  0  0  0
    2.3006   67.3056   82.7967 C   0  0  0  0  0  0  0  0  0  0  0  0
    3.2859   67.8583   83.2678 O   0  0  0  0  0  0  0  0  0  0  0  0
    1.8249   65.9129   83.1784 C   0  0  0  0  0  0  0  0  0  0  0  0
    1.5552   65.7796   84.6819 C   0  0  0  0  0  0  0  0  0  0  0  0
    0.5617   64.6862   84.9105 C   0  0  0  0  0  0  0  0  0  0  0  0
   -0.2655   64.2319   83.8967 C   0  0  0  0  0  0  0  0  0  0  0  0
   -1.0686   63.2515   84.4149 N   0  0  0  0  0  0  0  0  0  0  0  0
   -0.7660   63.0533   85.7454 C   0  0  0  0  0  0  0  0  0  0  0  0
   -1.3176   62.1561   86.6679 C   0  0  0  0  0  0  0  0  0  0  0  0
   -0.8144   62.1756   87.9722 C   0  0  0  0  0  0  0  0  0  0  0  0
    0.1995   63.0579   88.3380 C   0  0  0  0  0  0  0  0  0  0  0  0
    0.7420   63.9488   87.4047 C   0  0  0  0  0  0  0  0  0  0  0  0
    0.2540   63.9472   86.0836 C   0  0  0  0  0  0  0  0  0  0  0  0
   -0.3045   64.7044   82.4689 C   0  0  0  0  0  0  0  0  0  0  0  0
    0.6097   65.8353   82.3794 N   0  0  0  0  0  0  0  0  0  0  0  0
    0.4150   66.9580   81.6088 C   0  0  0  0  0  0  0  0  0  0  0  0
   -0.5320   67.1526   80.8628 O   0  0  0  0  0  0  0  0  0  0  0  0
   -1.7655   62.7293   83.9005 H   0  0  0  0  0  0  0  0  0  0  0  0
    0.0524   63.6411   81.4409 C   0  0  0  0  0  0  0  0  0  0  0  0
    0.6217   62.4322   81.8776 C   0  0  0  0  0  0  0  0  0  0  0  0
    0.9444   61.4225   80.9691 C   0  0  0  0  0  0  0  0  0  0  0  0
    0.6947   61.6008   79.6109 C   0  0  0  0  0  0  0  0  0  0  0  0
    0.1149   62.7846   79.1609 C   0  0  0  0  0  0  0  0  0  0  0  0
   -0.2103   63.7950   80.0687 C   0  0  0  0  0  0  0  0  0  0  0  0
    1.5680   69.1369   81.2629 C   0  0  0  0  0  0  0  0  0  0  0  0
    2.1772   69.1121   79.8576 C   0  0  0  0  0  0  0  0  0  0  0  0
    3.9398   70.4931   81.0138 C   0  0  0  0  0  0  0  0  0  0  0  0
    3.3144   70.1197   79.6786 C   0  0  0  0  0  0  0  0  0  0  0  0
 28 29  1  0  0  0
 29 27  1  0  0  0
 27 26  1  0  0  0
 26  1  1  0  0  0
  1  2  1  0  0  0
  2  3  2  0  0  0
  2  4  1  0  0  0
  4  5  1  0  0  0
  5  6  1  0  0  0
  6  7  2  0  0  0
  7  8  1  0  0  0
  8  9  1  0  0  0
  9 10  2  0  0  0
 10 11  1  0  0  0
 11 12  2  0  0  0
 12 13  1  0  0  0
 13 14  2  0  0  0
  7 15  1  0  0  0
 15 20  1  0  0  0
 20 21  2  0  0  0
 21 22  1  0  0  0
 22 23  2  0  0  0
 23 24  1  0  0  0
 24 25  2  0  0  0
 15 16  1  0  0  0
 16 17  1  0  0  0
 17 18  2  0  0  0
 17  1  1  0  0  0
 16  4  1  0  0  0
 14  6  1  0  0  0
 25 20  1  0  0  0
 14  9  1  0  0  0
  8 19  1  0  0  0
M  END
> <minimizedAffinity>
-10.04889

$$$$



 29 33  0  0  0  0  0  0  0  0999 V2000
    0.1931   64.5002   83.3472 N   0  0  0  0  0  0  0  0  0  0  0  0
    0.5057   64.9776   82.1015 C   0  0  0  0  0  0  0  0  0  0  0  0
    0.0513   64.5843   81.0352 O   0  0  0  0  0  0  0  0  0  0  0  0
    1.5266   66.0949   82.2472 C   0  0  0  0  0  0  0  0  0  0  0  0
    1.0467   67.4096   81.6210 C   0  0  0  0  0  0  0  0  0  0  0  0
    1.7376   68.5555   82.2876 C   0  0  0  0  0  0  0  0  0  0  0  0
    2.3329   68.4215   83.5310 C   0  0  0  0  0  0  0  0  0  0  0  0
    2.8588   69.6366   83.8801 N   0  0  0  0  0  0  0  0  0  0  0  0
    2.6258   70.5531   82.8768 C   0  0  0  0  0  0  0  0  0  0  0  0
    2.9858   71.9034   82.7924 C   0  0  0  0  0  0  0  0  0  0  0  0
    2.6089   72.6047   81.6432 C   0  0  0  0  0  0  0  0  0  0  0  0
    1.8998   71.9794   80.6202 C   0  0  0  0  0  0  0  0  0  0  0  0
    1.5474   70.6284   80.7179 C   0  0  0  0  0  0  0  0  0  0  0  0
    1.9175   69.8992   81.8645 C   0  0  0  0  0  0  0  0  0  0  0  0
    2.4102   67.1804   84.3778 C   0  0  0  0  0  0  0  0  0  0  0  0
    1.6179   66.1633   83.6992 N   0  0  0  0  0  0  0  0  0  0  0  0
    0.8348   65.2180   84.3200 C   0  0  0  0  0  0  0  0  0  0  0  0
    0.7191   65.0722   85.5268 O   0  0  0  0  0  0  0  0  0  0  0  0
    3.3646   69.8351   84.7332 H   0  0  0  0  0  0  0  0  0  0  0  0
    3.8230   66.6782   84.6364 C   0  0  0  0  0  0  0  0  0  0  0  0
    4.9108   67.3998   84.1148 C   0  0  0  0  0  0  0  0  0  0  0  0
    6.2235   66.9848   84.3468 C   0  0  0  0  0  0  0  0  0  0  0  0
    6.4703   65.8476   85.1116 C   0  0  0  0  0  0  0  0  0  0  0  0
    5.4061   65.1294   85.6516 C   0  0  0  0  0  0  0  0  0  0  0  0
    4.0924   65.5443   85.4221 C   0  0  0  0  0  0  0  0  0  0  0  0
   -0.7630   63.4450   83.6129 C   0  0  0  0  0  0  0  0  0  0  0  0
   -0.1142   62.0616   83.7227 C   0  0  0  0  0  0  0  0  0  0  0  0
    1.4326   61.0805   81.9919 C   0  0  0  0  0  0  0  0  0  0  0  0
   -0.0158   61.3365   82.3792 C   0  0  0  0  0  0  0  0  0  0  0  0
 28 29  1  0  0  0
 29 27  1  0  0  0
 27 26  1  0  0  0
 26  1  1  0  0  0
  1  2  1  0  0  0
  2  3  2  0  0  0
  2  4  1  0  0  0
  4  5  1  0  0  0
  5  6  1  0  0  0
  6  7  2  0  0  0
  7  8  1  0  0  0
  8  9  1  0  0  0
  9 10  2  0  0  0
 10 11  1  0  0  0
 11 12  2  0  0  0
 12 13  1  0  0  0
 13 14  2  0  0  0
  7 15  1  0  0  0
 15 20  1  0  0  0
 20 21  2  0  0  0
 21 22  1  0  0  0
 22 23  2  0  0  0
 23 24  1  0  0  0
 24 25  2  0  0  0
 15 16  1  0  0  0
 16 17  1  0  0  0
 17 18  2  0  0  0
 17  1  1  0  0  0
 16  4  1  0  0  0
 14  6  1  0  0  0
 25 20  1  0  0  0
 14  9  1  0  0  0
  8 19  1  0  0  0
M  END
> <minimizedAffinity>
-9.78282

$$$$



 29 33  0  0  0  0  0  0  0  0999 V2000
    2.6506   67.2468   84.2010 N   0  0  0  0  0  0  0  0  0  0  0  0
    1.6955   67.5556   83.2684 C   0  0  0  0  0  0  0  0  0  0  0  0
    1.5382   68.6370   82.7169 O   0  0  0  0  0  0  0  0  0  0  0  0
    0.8401   66.3240   83.0171 C   0  0  0  0  0  0  0  0  0  0  0  0
    0.8312   65.9107   81.5406 C   0  0  0  0  0  0  0  0  0  0  0  0
    0.5295   64.4501   81.4383 C   0  0  0  0  0  0  0  0  0  0  0  0
    0.6945   63.5964   82.5165 C   0  0  0  0  0  0  0  0  0  0  0  0
    0.3593   62.3329   82.1093 N   0  0  0  0  0  0  0  0  0  0  0  0
   -0.0334   62.3557   80.7878 C   0  0  0  0  0  0  0  0  0  0  0  0
   -0.4669   61.3120   79.9615 C   0  0  0  0  0  0  0  0  0  0  0  0
   -0.8020   61.6263   78.6411 C   0  0  0  0  0  0  0  0  0  0  0  0
   -0.7064   62.9327   78.1672 C   0  0  0  0  0  0  0  0  0  0  0  0
   -0.2723   63.9663   79.0051 C   0  0  0  0  0  0  0  0  0  0  0  0
    0.0690   63.6760   80.3403 C   0  0  0  0  0  0  0  0  0  0  0  0
    1.1561   63.9546   83.9029 C   0  0  0  0  0  0  0  0  0  0  0  0
    1.5292   65.3625   83.8667 N   0  0  0  0  0  0  0  0  0  0  0  0
    2.5796   65.9261   84.5532 C   0  0  0  0  0  0  0  0  0  0  0  0
    3.3270   65.3364   85.3179 O   0  0  0  0  0  0  0  0  0  0  0  0
    0.3722   61.5051   82.6904 H   0  0  0  0  0  0  0  0  0  0  0  0
    0.1305   63.6976   84.9970 C   0  0  0  0  0  0  0  0  0  0  0  0
   -1.0680   63.0401   84.6693 C   0  0  0  0  0  0  0  0  0  0  0  0
   -2.0258   62.7663   85.6474 C   0  0  0  0  0  0  0  0  0  0  0  0
   -1.7971   63.1365   86.9701 C   0  0  0  0  0  0  0  0  0  0  0  0
   -0.6079   63.7731   87.3175 C   0  0  0  0  0  0  0  0  0  0  0  0
    0.3521   64.0460   86.3406 C   0  0  0  0  0  0  0  0  0  0  0  0
    3.6657   68.1624   84.6801 C   0  0  0  0  0  0  0  0  0  0  0  0
    5.0680   67.8272   84.1626 C   0  0  0  0  0  0  0  0  0  0  0  0
    5.4472   67.7798   86.6536 C   0  0  0  0  0  0  0  0  0  0  0  0
    6.0924   67.6398   85.2834 C   0  0  0  0  0  0  0  0  0  0  0  0
 28 29  1  0  0  0
 29 27  1  0  0  0
 27 26  1  0  0  0
 26  1  1  0  0  0
  1  2  1  0  0  0
  2  3  2  0  0  0
  2  4  1  0  0  0
  4  5  1  0  0  0
  5  6  1  0  0  0
  6  7  2  0  0  0
  7  8  1  0  0  0
  8  9  1  0  0  0
  9 10  2  0  0  0
 10 11  1  0  0  0
 11 12  2  0  0  0
 12 13  1  0  0  0
 13 14  2  0  0  0
  7 15  1  0  0  0
 15 20  1  0  0  0
 20 21  2  0  0  0
 21 22  1  0  0  0
 22 23  2  0  0  0
 23 24  1  0  0  0
 24 25  2  0  0  0
 15 16  1  0  0  0
 16 17  1  0  0  0
 17 18  2  0  0  0
 17  1  1  0  0  0
 16  4  1  0  0  0
 14  6  1  0  0  0
 25 20  1  0  0  0
 14  9  1  0  0  0
  8 19  1  0  0  0
M  END
> <minimizedAffinity>
-9.54790

$$$$



 29 33  0  0  0  0  0  0  0  0999 V2000
   -0.8398   62.5781   77.6814 N   0  0  0  0  0  0  0  0  0  0  0  0
   -1.9826   62.6547   78.4333 C   0  0  0  0  0  0  0  0  0  0  0  0
   -3.0766   62.1869   78.1460 O   0  0  0  0  0  0  0  0  0  0  0  0
   -1.6797   63.4271   79.7075 C   0  0  0  0  0  0  0  0  0  0  0  0
   -2.0034   62.6201   80.9704 C   0  0  0  0  0  0  0  0  0  0  0  0
   -1.1655   63.1186   82.1035 C   0  0  0  0  0  0  0  0  0  0  0  0
   -0.0110   63.8524   81.8860 C   0  0  0  0  0  0  0  0  0  0  0  0
    0.5397   64.1437   83.1053 N   0  0  0  0  0  0  0  0  0  0  0  0
   -0.2465   63.6220   84.1106 C   0  0  0  0  0  0  0  0  0  0  0  0
   -0.0831   63.6795   85.4999 C   0  0  0  0  0  0  0  0  0  0  0  0
   -1.0461   63.0484   86.2930 C   0  0  0  0  0  0  0  0  0  0  0  0
   -2.1285   62.3861   85.7182 C   0  0  0  0  0  0  0  0  0  0  0  0
   -2.2794   62.3377   84.3276 C   0  0  0  0  0  0  0  0  0  0  0  0
   -1.3241   62.9678   83.5067 C   0  0  0  0  0  0  0  0  0  0  0  0
    0.5670   64.2749   80.5628 C   0  0  0  0  0  0  0  0  0  0  0  0
   -0.2510   63.6493   79.5322 N   0  0  0  0  0  0  0  0  0  0  0  0
    0.2158   63.1501   78.3385 C   0  0  0  0  0  0  0  0  0  0  0  0
    1.3746   63.1912   77.9555 O   0  0  0  0  0  0  0  0  0  0  0  0
    1.3835   64.6806   83.2561 H   0  0  0  0  0  0  0  0  0  0  0  0
    0.6362   65.7805   80.3548 C   0  0  0  0  0  0  0  0  0  0  0  0
   -0.5155   66.5549   80.5784 C   0  0  0  0  0  0  0  0  0  0  0  0
   -0.4888   67.9416   80.4193 C   0  0  0  0  0  0  0  0  0  0  0  0
    0.6915   68.5777   80.0435 C   0  0  0  0  0  0  0  0  0  0  0  0
    1.8475   67.8294   79.8346 C   0  0  0  0  0  0  0  0  0  0  0  0
    1.8230   66.4422   79.9952 C   0  0  0  0  0  0  0  0  0  0  0  0
   -0.7317   61.8975   76.4073 C   0  0  0  0  0  0  0  0  0  0  0  0
   -0.2066   60.4642   76.5357 C   0  0  0  0  0  0  0  0  0  0  0  0
   -1.6473   58.9464   77.9397 C   0  0  0  0  0  0  0  0  0  0  0  0
   -1.3195   59.4145   76.5302 C   0  0  0  0  0  0  0  0  0  0  0  0
 28 29  1  0  0  0
 29 27  1  0  0  0
 27 26  1  0  0  0
 26  1  1  0  0  0
  1  2  1  0  0  0
  2  3  2  0  0  0
  2  4  1  0  0  0
  4  5  1  0  0  0
  5  6  1  0  0  0
  6  7  2  0  0  0
  7  8  1  0  0  0
  8  9  1  0  0  0
  9 10  2  0  0  0
 10 11  1  0  0  0
 11 12  2  0  0  0
 12 13  1  0  0  0
 13 14  2  0  0  0
  7 15  1  0  0  0
 15 20  1  0  0  0
 20 21  2  0  0  0
 21 22  1  0  0  0
 22 23  2  0  0  0
 23 24  1  0  0  0
 24 25  2  0  0  0
 15 16  1  0  0  0
 16 17  1  0  0  0
 17 18  2  0  0  0
 17  1  1  0  0  0
 16  4  1  0  0  0
 14  6  1  0  0  0
 25 20  1  0  0  0
 14  9  1  0  0  0
  8 19  1  0  0  0
M  END
> <minimizedAffinity>
-9.40455

$$$$



 29 33  0  0  0  0  0  0  0  0999 V2000
    0.2815   64.8299   82.4667 N   0  0  0  0  0  0  0  0  0  0  0  0
    0.7339   65.4182   81.3150 C   0  0  0  0  0  0  0  0  0  0  0  0
    0.4298   65.1086   80.1704 O   0  0  0  0  0  0  0  0  0  0  0  0
    1.6936   66.5390   81.6818 C   0  0  0  0  0  0  0  0  0  0  0  0
    1.2565   67.8927   81.1095 C   0  0  0  0  0  0  0  0  0  0  0  0
    1.8223   68.9909   81.9513 C   0  0  0  0  0  0  0  0  0  0  0  0
    2.2600   68.7629   83.2454 C   0  0  0  0  0  0  0  0  0  0  0  0
    2.7003   69.9538   83.7579 N   0  0  0  0  0  0  0  0  0  0  0  0
    2.5676   70.9480   82.8118 C   0  0  0  0  0  0  0  0  0  0  0  0
    2.8940   72.3074   82.8857 C   0  0  0  0  0  0  0  0  0  0  0  0
    2.6437   73.0969   81.7593 C   0  0  0  0  0  0  0  0  0  0  0  0
    2.0886   72.5474   80.6058 C   0  0  0  0  0  0  0  0  0  0  0  0
    1.7682   71.1862   80.5461 C   0  0  0  0  0  0  0  0  0  0  0  0
    2.0130   70.3691   81.6668 C   0  0  0  0  0  0  0  0  0  0  0  0
    2.2679   67.4556   83.9901 C   0  0  0  0  0  0  0  0  0  0  0  0
    1.5989   66.4848   83.1341 N   0  0  0  0  0  0  0  0  0  0  0  0
    0.7732   65.4745   83.5695 C   0  0  0  0  0  0  0  0  0  0  0  0
    0.5107   65.2237   84.7354 O   0  0  0  0  0  0  0  0  0  0  0  0
    3.0881   70.0887   84.6822 H   0  0  0  0  0  0  0  0  0  0  0  0
    3.6515   66.9614   84.3854 C   0  0  0  0  0  0  0  0  0  0  0  0
    4.7625   67.7950   84.1692 C   0  0  0  0  0  0  0  0  0  0  0  0
    6.0463   67.3880   84.5368 C   0  0  0  0  0  0  0  0  0  0  0  0
    6.2392   66.1455   85.1351 C   0  0  0  0  0  0  0  0  0  0  0  0
    5.1485   65.3128   85.3737 C   0  0  0  0  0  0  0  0  0  0  0  0
    3.8633   65.7192   85.0082 C   0  0  0  0  0  0  0  0  0  0  0  0
   -0.6677   63.7370   82.5199 C   0  0  0  0  0  0  0  0  0  0  0  0
   -0.0107   62.3861   82.8198 C   0  0  0  0  0  0  0  0  0  0  0  0
   -1.6577   62.4249   84.7268 C   0  0  0  0  0  0  0  0  0  0  0  0
   -0.3452   61.8524   84.2140 C   0  0  0  0  0  0  0  0  0  0  0  0
 28 29  1  0  0  0
 29 27  1  0  0  0
 27 26  1  0  0  0
 26  1  1  0  0  0
  1  2  1  0  0  0
  2  3  2  0  0  0
  2  4  1  0  0  0
  4  5  1  0  0  0
  5  6  1  0  0  0
  6  7  2  0  0  0
  7  8  1  0  0  0
  8  9  1  0  0  0
  9 10  2  0  0  0
 10 11  1  0  0  0
 11 12  2  0  0  0
 12 13  1  0  0  0
 13 14  2  0  0  0
  7 15  1  0  0  0
 15 20  1  0  0  0
 20 21  2  0  0  0
 21 22  1  0  0  0
 22 23  2  0  0  0
 23 24  1  0  0  0
 24 25  2  0  0  0
 15 16  1  0  0  0
 16 17  1  0  0  0
 17 18  2  0  0  0
 17  1  1  0  0  0
 16  4  1  0  0  0
 14  6  1  0  0  0
 25 20  1  0  0  0
 14  9  1  0  0  0
  8 19  1  0  0  0
M  END
> <minimizedAffinity>
-9.37256

$$$$



 29 33  0  0  0  0  0  0  0  0999 V2000
    1.5332   71.2916   81.1167 N   0  0  0  0  0  0  0  0  0  0  0  0
    2.8842   71.0635   81.1287 C   0  0  0  0  0  0  0  0  0  0  0  0
    3.7625   71.8743   80.8655 O   0  0  0  0  0  0  0  0  0  0  0  0
    3.1332   69.6173   81.5266 C   0  0  0  0  0  0  0  0  0  0  0  0
    4.0332   69.4984   82.7622 C   0  0  0  0  0  0  0  0  0  0  0  0
    3.7580   68.2003   83.4507 C   0  0  0  0  0  0  0  0  0  0  0  0
    2.5851   67.4965   83.2334 C   0  0  0  0  0  0  0  0  0  0  0  0
    2.6174   66.3715   84.0132 N   0  0  0  0  0  0  0  0  0  0  0  0
    3.7988   66.3276   84.7227 C   0  0  0  0  0  0  0  0  0  0  0  0
    4.2672   65.3687   85.6288 C   0  0  0  0  0  0  0  0  0  0  0  0
    5.5188   65.5850   86.2131 C   0  0  0  0  0  0  0  0  0  0  0  0
    6.2707   66.7159   85.9028 C   0  0  0  0  0  0  0  0  0  0  0  0
    5.7900   67.6658   84.9942 C   0  0  0  0  0  0  0  0  0  0  0  0
    4.5330   67.4698   84.3902 C   0  0  0  0  0  0  0  0  0  0  0  0
    1.4544   67.8676   82.3129 C   0  0  0  0  0  0  0  0  0  0  0  0
    1.7651   69.1888   81.7833 N   0  0  0  0  0  0  0  0  0  0  0  0
    0.8474   70.1819   81.5310 C   0  0  0  0  0  0  0  0  0  0  0  0
   -0.3609   70.0877   81.6802 O   0  0  0  0  0  0  0  0  0  0  0  0
    1.8978   65.6618   84.0515 H   0  0  0  0  0  0  0  0  0  0  0  0
    1.2084   66.8789   81.1829 C   0  0  0  0  0  0  0  0  0  0  0  0
    0.1208   65.9931   81.2745 C   0  0  0  0  0  0  0  0  0  0  0  0
   -0.1522   65.0849   80.2500 C   0  0  0  0  0  0  0  0  0  0  0  0
    0.6516   65.0537   79.1134 C   0  0  0  0  0  0  0  0  0  0  0  0
    1.7234   65.9356   78.9964 C   0  0  0  0  0  0  0  0  0  0  0  0
    1.9967   66.8461   80.0195 C   0  0  0  0  0  0  0  0  0  0  0  0
    0.9114   72.5624   80.8059 C   0  0  0  0  0  0  0  0  0  0  0  0
    0.6280   73.4114   82.0491 C   0  0  0  0  0  0  0  0  0  0  0  0
    2.6664   73.9249   83.4391 C   0  0  0  0  0  0  0  0  0  0  0  0
    1.7333   74.4262   82.3476 C   0  0  0  0  0  0  0  0  0  0  0  0
 28 29  1  0  0  0
 29 27  1  0  0  0
 27 26  1  0  0  0
 26  1  1  0  0  0
  1  2  1  0  0  0
  2  3  2  0  0  0
  2  4  1  0  0  0
  4  5  1  0  0  0
  5  6  1  0  0  0
  6  7  2  0  0  0
  7  8  1  0  0  0
  8  9  1  0  0  0
  9 10  2  0  0  0
 10 11  1  0  0  0
 11 12  2  0  0  0
 12 13  1  0  0  0
 13 14  2  0  0  0
  7 15  1  0  0  0
 15 20  1  0  0  0
 20 21  2  0  0  0
 21 22  1  0  0  0
 22 23  2  0  0  0
 23 24  1  0  0  0
 24 25  2  0  0  0
 15 16  1  0  0  0
 16 17  1  0  0  0
 17 18  2  0  0  0
 17  1  1  0  0  0
 16  4  1  0  0  0
 14  6  1  0  0  0
 25 20  1  0  0  0
 14  9  1  0  0  0
  8 19  1  0  0  0
M  END
> <minimizedAffinity>
-9.21888

$$$$
