
     RDKit          3D

 42 45  0  0  0  0  0  0  0  0999 V2000
    3.6540    3.7476   -1.5789 C   0  0  0  0  0  0  0  0  0  0  0  0
    2.8024    2.6270   -1.3808 O   0  0  0  0  0  0  0  0  0  0  0  0
    3.0339    1.8599   -0.2711 C   0  0  0  0  0  0  0  0  0  0  0  0
    4.0369    2.0703    0.6729 C   0  0  0  0  0  0  0  0  0  0  0  0
    4.1723    1.1939    1.7499 C   0  0  0  0  0  0  0  0  0  0  0  0
    3.2973    0.1146    1.8923 C   0  0  0  0  0  0  0  0  0  0  0  0
    2.2563   -0.0948    0.9773 C   0  0  0  0  0  0  0  0  0  0  0  0
    1.4304   -1.2332    1.1253 N   0  0  0  0  0  0  0  0  0  0  0  0
    0.0910   -1.4083    0.6786 C   0  0  0  0  0  0  0  0  0  0  0  0
   -0.6133   -0.3358    0.2807 N   0  0  0  0  0  0  0  0  0  0  0  0
   -1.8842   -0.5234   -0.1039 C   0  0  0  0  0  0  0  0  0  0  0  0
   -2.6502    0.6609   -0.5454 C   0  0  0  0  0  0  0  0  0  0  0  0
   -3.9994    0.5621   -0.9385 C   0  0  0  0  0  0  0  0  0  0  0  0
   -4.7246    1.6827   -1.3576 C   0  0  0  0  0  0  0  0  0  0  0  0
   -4.1154    2.9331   -1.3944 C   0  0  0  0  0  0  0  0  0  0  0  0
   -2.7838    3.0635   -1.0128 C   0  0  0  0  0  0  0  0  0  0  0  0
   -2.0623    1.9408   -0.5938 C   0  0  0  0  0  0  0  0  0  0  0  0
   -2.5054   -1.7146   -0.1092 N   0  0  0  0  0  0  0  0  0  0  0  0
   -1.8002   -2.7805    0.2753 C   0  0  0  0  0  0  0  0  0  0  0  0
   -2.4211   -4.0239    0.2654 C   0  0  0  0  0  0  0  0  0  0  0  0
   -1.7503   -5.1902    0.6431 C   0  0  0  0  0  0  0  0  0  0  0  0
   -0.4220   -5.1223    1.0380 C   0  0  0  0  0  0  0  0  0  0  0  0
    0.2214   -3.8869    1.0585 C   0  0  0  0  0  0  0  0  0  0  0  0
   -0.4644   -2.7008    0.6856 C   0  0  0  0  0  0  0  0  0  0  0  0
    2.1632    0.7735   -0.1182 C   0  0  0  0  0  0  0  0  0  0  0  0
    3.3350    4.2520   -2.4961 H   0  0  0  0  0  0  0  0  0  0  0  0
    4.6940    3.4337   -1.7163 H   0  0  0  0  0  0  0  0  0  0  0  0
    3.5620    4.4641   -0.7560 H   0  0  0  0  0  0  0  0  0  0  0  0
    4.7343    2.8970    0.5944 H   0  0  0  0  0  0  0  0  0  0  0  0
    4.9645    1.3485    2.4780 H   0  0  0  0  0  0  0  0  0  0  0  0
    3.4354   -0.5592    2.7337 H   0  0  0  0  0  0  0  0  0  0  0  0
    1.5149   -1.6339    2.0533 H   0  0  0  0  0  0  0  0  0  0  0  0
   -4.5007   -0.4045   -0.9205 H   0  0  0  0  0  0  0  0  0  0  0  0
   -5.7642    1.5738   -1.6552 H   0  0  0  0  0  0  0  0  0  0  0  0
   -4.6768    3.8044   -1.7206 H   0  0  0  0  0  0  0  0  0  0  0  0
   -2.2999    4.0363   -1.0401 H   0  0  0  0  0  0  0  0  0  0  0  0
   -1.0205    2.0724   -0.3021 H   0  0  0  0  0  0  0  0  0  0  0  0
   -3.4603   -4.0885   -0.0509 H   0  0  0  0  0  0  0  0  0  0  0  0
   -2.2680   -6.1457    0.6186 H   0  0  0  0  0  0  0  0  0  0  0  0
    0.1132   -6.0250    1.3215 H   0  0  0  0  0  0  0  0  0  0  0  0
    1.2689   -3.8509    1.3490 H   0  0  0  0  0  0  0  0  0  0  0  0
    1.4060    0.6104   -0.8809 H   0  0  0  0  0  0  0  0  0  0  0  0
  1  2  1  0
  2  3  1  0
  3  4  1  0
  4  5  2  0
  5  6  1  0
  6  7  2  0
  7  8  1  0
  8  9  1  0
  9 10  1  0
 10 11  2  0
 11 12  1  0
 12 13  2  0
 13 14  1  0
 14 15  2  0
 15 16  1  0
 16 17  2  0
 11 18  1  0
 18 19  2  0
 19 20  1  0
 20 21  2  0
 21 22  1  0
 22 23  2  0
 23 24  1  0
  7 25  1  0
 25  3  2  0
 24  9  2  0
 17 12  1  0
 24 19  1  0
  1 26  1  0
  1 27  1  0
  1 28  1  0
  4 29  1  0
  5 30  1  0
  6 31  1  0
  8 32  1  0
 13 33  1  0
 14 34  1  0
 15 35  1  0
 16 36  1  0
 17 37  1  0
 20 38  1  0
 21 39  1  0
 22 40  1  0
 23 41  1  0
 25 42  1  0
M  END
$$$$
