
     RDKit          3D

 60 64  0  0  0  0  0  0  0  0999 V2000
    2.7527    5.0040   -2.5967 C   0  0  0  0  0  0  0  0  0  0  0  0
    1.3425    4.5668   -2.2455 C   0  0  0  0  0  0  0  0  0  0  0  0
    1.2587    3.1478   -2.4343 O   0  0  0  0  0  0  0  0  0  0  0  0
    0.1180    2.6449   -1.8570 C   0  0  0  0  0  0  0  0  0  0  0  0
   -1.0946    2.8167   -2.5399 C   0  0  0  0  0  0  0  0  0  0  0  0
   -2.2633    2.2485   -2.0411 C   0  0  0  0  0  0  0  0  0  0  0  0
   -2.2054    1.4894   -0.8720 C   0  0  0  0  0  0  0  0  0  0  0  0
   -3.6974    0.7500   -0.2536 S   0  0  0  0  0  0  0  0  0  0  0  0
   -4.7043    1.7893   -0.2340 O   0  0  0  0  0  0  0  0  0  0  0  0
   -3.3741    0.0036    0.9431 O   0  0  0  0  0  0  0  0  0  0  0  0
   -4.0936   -0.3570   -1.4825 N   0  0  0  0  0  0  0  0  0  0  0  0
   -3.1529   -1.4997   -1.7021 C   0  0  0  0  0  0  0  0  0  0  0  0
   -3.4035   -2.6717   -0.7299 C   0  0  0  0  0  0  0  0  0  0  0  0
   -4.8084   -3.1279   -0.7362 N   0  0  0  0  0  0  0  0  0  0  0  0
   -5.0068   -4.1919    0.2471 C   0  0  0  0  0  0  0  0  0  0  0  0
   -5.7062   -1.9886   -0.4537 C   0  0  0  0  0  0  0  0  0  0  0  0
   -5.5075   -0.8429   -1.4623 C   0  0  0  0  0  0  0  0  0  0  0  0
   -0.9955    1.3070   -0.1921 C   0  0  0  0  0  0  0  0  0  0  0  0
    0.1979    1.8809   -0.6754 C   0  0  0  0  0  0  0  0  0  0  0  0
    1.4583    1.6648    0.0535 C   0  0  0  0  0  0  0  0  0  0  0  0
    2.2323    2.7512    0.2869 N   0  0  0  0  0  0  0  0  0  0  0  0
    3.3734    2.5791    0.9739 C   0  0  0  0  0  0  0  0  0  0  0  0
    4.1509    3.6906    1.1864 O   0  0  0  0  0  0  0  0  0  0  0  0
    3.7318    1.3223    1.4471 C   0  0  0  0  0  0  0  0  0  0  0  0
    4.8188    0.8811    2.1650 N   0  0  0  0  0  0  0  0  0  0  0  0
    4.6027   -0.4116    2.3240 C   0  0  0  0  0  0  0  0  0  0  0  0
    5.3721   -1.4134    2.9835 C   0  0  0  0  0  0  0  0  0  0  0  0
    4.9391   -2.6934    3.0178 C   0  0  0  0  0  0  0  0  0  0  0  0
    5.7073   -3.7877    3.6974 C   0  0  0  0  0  0  0  0  0  0  0  0
    3.6775   -3.0732    2.3810 C   0  0  0  0  0  0  0  0  0  0  0  0
    2.9469   -2.1344    1.7569 C   0  0  0  0  0  0  0  0  0  0  0  0
    3.4073   -0.8203    1.7306 N   0  0  0  0  0  0  0  0  0  0  0  0
    2.8456    0.2988    1.1633 C   0  0  0  0  0  0  0  0  0  0  0  0
    1.6889    0.3971    0.4810 N   0  0  0  0  0  0  0  0  0  0  0  0
    2.8669    6.0850   -2.4765 H   0  0  0  0  0  0  0  0  0  0  0  0
    2.9929    4.7360   -3.6309 H   0  0  0  0  0  0  0  0  0  0  0  0
    3.4845    4.4983   -1.9585 H   0  0  0  0  0  0  0  0  0  0  0  0
    1.1215    4.8441   -1.2074 H   0  0  0  0  0  0  0  0  0  0  0  0
    0.6313    5.0714   -2.9097 H   0  0  0  0  0  0  0  0  0  0  0  0
   -1.1218    3.3797   -3.4692 H   0  0  0  0  0  0  0  0  0  0  0  0
   -3.2057    2.3846   -2.5671 H   0  0  0  0  0  0  0  0  0  0  0  0
   -2.1132   -1.1672   -1.6278 H   0  0  0  0  0  0  0  0  0  0  0  0
   -3.2870   -1.8433   -2.7359 H   0  0  0  0  0  0  0  0  0  0  0  0
   -2.7552   -3.5030   -1.0333 H   0  0  0  0  0  0  0  0  0  0  0  0
   -3.0975   -2.3875    0.2833 H   0  0  0  0  0  0  0  0  0  0  0  0
   -4.7898   -3.8603    1.2690 H   0  0  0  0  0  0  0  0  0  0  0  0
   -4.3638   -5.0492    0.0191 H   0  0  0  0  0  0  0  0  0  0  0  0
   -6.0397   -4.5556    0.2149 H   0  0  0  0  0  0  0  0  0  0  0  0
   -6.7481   -2.3239   -0.5228 H   0  0  0  0  0  0  0  0  0  0  0  0
   -5.5513   -1.6170    0.5669 H   0  0  0  0  0  0  0  0  0  0  0  0
   -5.7603   -1.1855   -2.4740 H   0  0  0  0  0  0  0  0  0  0  0  0
   -6.1957   -0.0200   -1.2432 H   0  0  0  0  0  0  0  0  0  0  0  0
   -0.9721    0.7159    0.7230 H   0  0  0  0  0  0  0  0  0  0  0  0
    4.9168    3.3604    1.6911 H   0  0  0  0  0  0  0  0  0  0  0  0
    6.3042   -1.1119    3.4496 H   0  0  0  0  0  0  0  0  0  0  0  0
    5.9756   -4.5714    2.9809 H   0  0  0  0  0  0  0  0  0  0  0  0
    6.6352   -3.4165    4.1456 H   0  0  0  0  0  0  0  0  0  0  0  0
    5.1096   -4.2375    4.4974 H   0  0  0  0  0  0  0  0  0  0  0  0
    3.3492   -4.1074    2.4216 H   0  0  0  0  0  0  0  0  0  0  0  0
    2.0043   -2.3384    1.2637 H   0  0  0  0  0  0  0  0  0  0  0  0
  1  2  1  0
  2  3  1  0
  3  4  1  0
  4  5  1  0
  5  6  2  0
  6  7  1  0
  7  8  1  0
  8  9  2  0
  8 10  2  0
  8 11  1  0
 11 12  1  0
 12 13  1  0
 13 14  1  0
 14 15  1  0
 14 16  1  0
 16 17  1  0
  7 18  2  0
 18 19  1  0
 19 20  1  0
 20 21  2  0
 21 22  1  0
 22 23  1  0
 22 24  2  0
 24 25  1  0
 25 26  2  0
 26 27  1  0
 27 28  2  0
 28 29  1  0
 28 30  1  0
 30 31  2  0
 31 32  1  0
 32 33  1  0
 33 34  2  0
 19  4  2  0
 34 20  1  0
 17 11  1  0
 33 24  1  0
 32 26  1  0
  1 35  1  0
  1 36  1  0
  1 37  1  0
  2 38  1  0
  2 39  1  0
  5 40  1  0
  6 41  1  0
 12 42  1  0
 12 43  1  0
 13 44  1  0
 13 45  1  0
 15 46  1  0
 15 47  1  0
 15 48  1  0
 16 49  1  0
 16 50  1  0
 17 51  1  0
 17 52  1  0
 18 53  1  0
 23 54  1  0
 27 55  1  0
 29 56  1  0
 29 57  1  0
 29 58  1  0
 30 59  1  0
 31 60  1  0
M  END
$$$$
