
     RDKit          3D

 60 62  0  0  0  0  0  0  0  0999 V2000
   -0.5507    5.0241    5.2603 C   0  0  0  0  0  0  0  0  0  0  0  0
   -0.5416    3.6143    4.6963 C   0  0  0  0  0  0  0  0  0  0  0  0
   -0.0484    3.5797    3.2530 C   0  0  0  0  0  0  0  0  0  0  0  0
   -0.0813    2.2151    2.8192 O   0  0  0  0  0  0  0  0  0  0  0  0
    0.0019    1.9846    1.4683 C   0  0  0  0  0  0  0  0  0  0  0  0
    0.6174    2.8896    0.5886 C   0  0  0  0  0  0  0  0  0  0  0  0
    0.6933    2.6178   -0.7789 C   0  0  0  0  0  0  0  0  0  0  0  0
    0.1540    1.4326   -1.2718 C   0  0  0  0  0  0  0  0  0  0  0  0
    0.2481    1.0631   -3.0069 S   0  0  0  0  0  0  0  0  0  0  0  0
   -1.1139    0.9639   -3.4828 O   0  0  0  0  0  0  0  0  0  0  0  0
    1.1855    1.9879   -3.6078 O   0  0  0  0  0  0  0  0  0  0  0  0
    0.9484   -0.4845   -3.0248 N   0  0  0  0  0  0  0  0  0  0  0  0
    2.3628   -0.6038   -2.5535 C   0  0  0  0  0  0  0  0  0  0  0  0
    3.3870   -0.2747   -3.6606 C   0  0  0  0  0  0  0  0  0  0  0  0
    3.1634   -1.0506   -4.8976 N   0  0  0  0  0  0  0  0  0  0  0  0
    4.1144   -0.6497   -5.9337 C   0  0  0  0  0  0  0  0  0  0  0  0
    1.7756   -0.8577   -5.3668 C   0  0  0  0  0  0  0  0  0  0  0  0
    0.7512   -1.2562   -4.2896 C   0  0  0  0  0  0  0  0  0  0  0  0
   -0.4493    0.5121   -0.4123 C   0  0  0  0  0  0  0  0  0  0  0  0
   -0.5210    0.7705    0.9678 C   0  0  0  0  0  0  0  0  0  0  0  0
   -1.1643   -0.2866    1.8190 C   0  0  0  0  0  0  0  0  0  0  0  0
   -1.6795   -1.3466    1.2760 N   0  0  0  0  0  0  0  0  0  0  0  0
   -2.2565   -2.2979    2.0900 C   0  0  0  0  0  0  0  0  0  0  0  0
   -2.8335   -3.4910    1.3323 C   0  0  0  0  0  0  0  0  0  0  0  0
   -3.9514   -4.2490    2.0577 C   0  0  0  0  0  0  0  0  0  0  0  0
   -1.7122   -4.4599    0.9458 C   0  0  0  0  0  0  0  0  0  0  0  0
   -2.3163   -2.1758    3.4251 C   0  0  0  0  0  0  0  0  0  0  0  0
   -1.7264   -0.9844    4.0462 C   0  0  0  0  0  0  0  0  0  0  0  0
   -1.7331   -0.8247    5.2609 O   0  0  0  0  0  0  0  0  0  0  0  0
   -1.1791   -0.0942    3.1764 N   0  0  0  0  0  0  0  0  0  0  0  0
    0.4578    5.4485    5.2687 H   0  0  0  0  0  0  0  0  0  0  0  0
   -0.9234    5.0173    6.2890 H   0  0  0  0  0  0  0  0  0  0  0  0
   -1.1967    5.6818    4.6694 H   0  0  0  0  0  0  0  0  0  0  0  0
    0.0939    2.9702    5.3168 H   0  0  0  0  0  0  0  0  0  0  0  0
   -1.5490    3.1847    4.7495 H   0  0  0  0  0  0  0  0  0  0  0  0
   -0.7030    4.2003    2.6285 H   0  0  0  0  0  0  0  0  0  0  0  0
    0.9810    3.9530    3.2094 H   0  0  0  0  0  0  0  0  0  0  0  0
    1.0615    3.8151    0.9433 H   0  0  0  0  0  0  0  0  0  0  0  0
    1.1707    3.3330   -1.4459 H   0  0  0  0  0  0  0  0  0  0  0  0
    2.5352    0.0355   -1.6818 H   0  0  0  0  0  0  0  0  0  0  0  0
    2.5102   -1.6353   -2.2081 H   0  0  0  0  0  0  0  0  0  0  0  0
    3.3695    0.8000   -3.8756 H   0  0  0  0  0  0  0  0  0  0  0  0
    4.3867   -0.5021   -3.2703 H   0  0  0  0  0  0  0  0  0  0  0  0
    4.0134    0.4077   -6.2031 H   0  0  0  0  0  0  0  0  0  0  0  0
    5.1425   -0.8229   -5.5971 H   0  0  0  0  0  0  0  0  0  0  0  0
    3.9720   -1.2510   -6.8384 H   0  0  0  0  0  0  0  0  0  0  0  0
    1.6105    0.1842   -5.6689 H   0  0  0  0  0  0  0  0  0  0  0  0
    1.6009   -1.4844   -6.2496 H   0  0  0  0  0  0  0  0  0  0  0  0
    0.8497   -2.3235   -4.0527 H   0  0  0  0  0  0  0  0  0  0  0  0
   -0.2679   -1.1250   -4.6673 H   0  0  0  0  0  0  0  0  0  0  0  0
   -0.8593   -0.4099   -0.8240 H   0  0  0  0  0  0  0  0  0  0  0  0
   -3.2785   -3.1046    0.4045 H   0  0  0  0  0  0  0  0  0  0  0  0
   -4.3867   -5.0092    1.3992 H   0  0  0  0  0  0  0  0  0  0  0  0
   -4.7575   -3.5701    2.3570 H   0  0  0  0  0  0  0  0  0  0  0  0
   -3.5829   -4.7639    2.9515 H   0  0  0  0  0  0  0  0  0  0  0  0
   -1.2291   -4.8840    1.8331 H   0  0  0  0  0  0  0  0  0  0  0  0
   -0.9411   -3.9586    0.3505 H   0  0  0  0  0  0  0  0  0  0  0  0
   -2.1038   -5.2892    0.3469 H   0  0  0  0  0  0  0  0  0  0  0  0
   -2.7575   -2.9013    4.0913 H   0  0  0  0  0  0  0  0  0  0  0  0
   -0.7638    0.7353    3.5784 H   0  0  0  0  0  0  0  0  0  0  0  0
  1  2  1  0
  2  3  1  0
  3  4  1  0
  4  5  1  0
  5  6  1  0
  6  7  2  0
  7  8  1  0
  8  9  1  0
  9 10  2  0
  9 11  2  0
  9 12  1  0
 12 13  1  0
 13 14  1  0
 14 15  1  0
 15 16  1  0
 15 17  1  0
 17 18  1  0
  8 19  2  0
 19 20  1  0
 20 21  1  0
 21 22  2  0
 22 23  1  0
 23 24  1  0
 24 25  1  0
 24 26  1  0
 23 27  2  0
 27 28  1  0
 28 29  2  0
 28 30  1  0
 20  5  2  0
 30 21  1  0
 18 12  1  0
  1 31  1  0
  1 32  1  0
  1 33  1  0
  2 34  1  0
  2 35  1  0
  3 36  1  0
  3 37  1  0
  6 38  1  0
  7 39  1  0
 13 40  1  0
 13 41  1  0
 14 42  1  0
 14 43  1  0
 16 44  1  0
 16 45  1  0
 16 46  1  0
 17 47  1  0
 17 48  1  0
 18 49  1  0
 18 50  1  0
 19 51  1  0
 24 52  1  0
 25 53  1  0
 25 54  1  0
 25 55  1  0
 26 56  1  0
 26 57  1  0
 26 58  1  0
 27 59  1  0
 30 60  1  0
M  END
$$$$
