
     RDKit          3D

 51 52  0  0  0  0  0  0  0  0999 V2000
    1.5024    3.3129    5.0885 C   0  0  0  0  0  0  0  0  0  0  0  0
    0.8156    2.5440    3.9744 C   0  0  0  0  0  0  0  0  0  0  0  0
    1.7507    2.2960    2.7945 C   0  0  0  0  0  0  0  0  0  0  0  0
    1.0132    1.5751    1.8037 O   0  0  0  0  0  0  0  0  0  0  0  0
    1.6691    1.1710    0.6684 C   0  0  0  0  0  0  0  0  0  0  0  0
    2.9923    1.5334    0.3755 C   0  0  0  0  0  0  0  0  0  0  0  0
    3.6118    1.0947   -0.7979 C   0  0  0  0  0  0  0  0  0  0  0  0
    2.9104    0.2994   -1.6961 C   0  0  0  0  0  0  0  0  0  0  0  0
    3.5573   -0.1992   -2.8634 N   0  0  0  0  0  0  0  0  0  0  0  0
    4.3251   -1.7044   -2.7304 S   0  0  0  0  0  0  0  0  0  0  0  0
    3.0908   -2.7931   -3.4077 C   0  0  0  0  0  0  0  0  0  0  0  0
    4.5414   -2.0304   -1.3389 O   0  0  0  0  0  0  0  0  0  0  0  0
    5.4265   -1.6503   -3.6689 O   0  0  0  0  0  0  0  0  0  0  0  0
    1.6009   -0.0783   -1.4191 C   0  0  0  0  0  0  0  0  0  0  0  0
    0.9616    0.3541   -0.2423 C   0  0  0  0  0  0  0  0  0  0  0  0
   -0.4546   -0.1066   -0.0441 C   0  0  0  0  0  0  0  0  0  0  0  0
   -1.0233   -0.8861   -0.9092 N   0  0  0  0  0  0  0  0  0  0  0  0
   -2.3257   -1.2865   -0.6971 C   0  0  0  0  0  0  0  0  0  0  0  0
   -2.8471   -2.1897   -1.7993 C   0  0  0  0  0  0  0  0  0  0  0  0
   -3.1193   -1.4183   -3.0846 C   0  0  0  0  0  0  0  0  0  0  0  0
   -3.0594   -0.9208    0.3749 C   0  0  0  0  0  0  0  0  0  0  0  0
   -4.4713   -1.3286    0.7010 C   0  0  0  0  0  0  0  0  0  0  0  0
   -5.4871   -0.3065    0.2110 C   0  0  0  0  0  0  0  0  0  0  0  0
   -2.3998   -0.0242    1.3592 C   0  0  0  0  0  0  0  0  0  0  0  0
   -2.9671    0.3836    2.3676 O   0  0  0  0  0  0  0  0  0  0  0  0
   -1.1180    0.3238    1.0705 N   0  0  0  0  0  0  0  0  0  0  0  0
    2.3675    2.7614    5.4703 H   0  0  0  0  0  0  0  0  0  0  0  0
    1.8461    4.2906    4.7362 H   0  0  0  0  0  0  0  0  0  0  0  0
    0.8097    3.4759    5.9200 H   0  0  0  0  0  0  0  0  0  0  0  0
    0.4449    1.5853    4.3571 H   0  0  0  0  0  0  0  0  0  0  0  0
   -0.0694    3.0941    3.6325 H   0  0  0  0  0  0  0  0  0  0  0  0
    2.6118    1.7051    3.1287 H   0  0  0  0  0  0  0  0  0  0  0  0
    2.0852    3.2566    2.3858 H   0  0  0  0  0  0  0  0  0  0  0  0
    3.5804    2.1531    1.0452 H   0  0  0  0  0  0  0  0  0  0  0  0
    4.6469    1.3660   -0.9886 H   0  0  0  0  0  0  0  0  0  0  0  0
    4.1969    0.4524   -3.3229 H   0  0  0  0  0  0  0  0  0  0  0  0
    3.5242   -3.7941   -3.4663 H   0  0  0  0  0  0  0  0  0  0  0  0
    2.8223   -2.4480   -4.4077 H   0  0  0  0  0  0  0  0  0  0  0  0
    2.2223   -2.8076   -2.7481 H   0  0  0  0  0  0  0  0  0  0  0  0
    1.0665   -0.7037   -2.1296 H   0  0  0  0  0  0  0  0  0  0  0  0
   -3.7596   -2.7172   -1.5107 H   0  0  0  0  0  0  0  0  0  0  0  0
   -2.1049   -2.9735   -1.9982 H   0  0  0  0  0  0  0  0  0  0  0  0
   -2.2091   -0.9460   -3.4691 H   0  0  0  0  0  0  0  0  0  0  0  0
   -3.4962   -2.0961   -3.8574 H   0  0  0  0  0  0  0  0  0  0  0  0
   -3.8689   -0.6363   -2.9256 H   0  0  0  0  0  0  0  0  0  0  0  0
   -4.5842   -1.4619    1.7841 H   0  0  0  0  0  0  0  0  0  0  0  0
   -4.7132   -2.3081    0.2778 H   0  0  0  0  0  0  0  0  0  0  0  0
   -5.4402   -0.1906   -0.8767 H   0  0  0  0  0  0  0  0  0  0  0  0
   -5.3191    0.6750    0.6666 H   0  0  0  0  0  0  0  0  0  0  0  0
   -6.5005   -0.6286    0.4715 H   0  0  0  0  0  0  0  0  0  0  0  0
   -0.6561    0.9312    1.7347 H   0  0  0  0  0  0  0  0  0  0  0  0
  1  2  1  0
  2  3  1  0
  3  4  1  0
  4  5  1  0
  5  6  1  0
  6  7  2  0
  7  8  1  0
  8  9  1  0
  9 10  1  0
 10 11  1  0
 10 12  2  0
 10 13  2  0
  8 14  2  0
 14 15  1  0
 15 16  1  0
 16 17  2  0
 17 18  1  0
 18 19  1  0
 19 20  1  0
 18 21  2  0
 21 22  1  0
 22 23  1  0
 21 24  1  0
 24 25  2  0
 24 26  1  0
 15  5  2  0
 26 16  1  0
  1 27  1  0
  1 28  1  0
  1 29  1  0
  2 30  1  0
  2 31  1  0
  3 32  1  0
  3 33  1  0
  6 34  1  0
  7 35  1  0
  9 36  1  0
 11 37  1  0
 11 38  1  0
 11 39  1  0
 14 40  1  0
 19 41  1  0
 19 42  1  0
 20 43  1  0
 20 44  1  0
 20 45  1  0
 22 46  1  0
 22 47  1  0
 23 48  1  0
 23 49  1  0
 23 50  1  0
 26 51  1  0
M  END
$$$$
