
     RDKit          3D

 60 62  0  0  0  0  0  0  0  0999 V2000
   -0.7925    7.2075    1.0867 C   0  0  0  0  0  0  0  0  0  0  0  0
   -1.2368    5.8558    0.5580 C   0  0  0  0  0  0  0  0  0  0  0  0
   -0.4844    4.7086    1.2258 C   0  0  0  0  0  0  0  0  0  0  0  0
   -0.9692    3.4878    0.6600 O   0  0  0  0  0  0  0  0  0  0  0  0
   -0.4218    2.3049    1.0893 C   0  0  0  0  0  0  0  0  0  0  0  0
    0.5648    2.2309    2.0847 C   0  0  0  0  0  0  0  0  0  0  0  0
    1.0913    0.9990    2.4798 C   0  0  0  0  0  0  0  0  0  0  0  0
    0.6338   -0.1712    1.8780 C   0  0  0  0  0  0  0  0  0  0  0  0
    1.2907   -1.7339    2.4084 S   0  0  0  0  0  0  0  0  0  0  0  0
    0.4371   -2.7893    1.9086 O   0  0  0  0  0  0  0  0  0  0  0  0
    1.5788   -1.6167    3.8226 O   0  0  0  0  0  0  0  0  0  0  0  0
    2.7757   -1.8168    1.5733 N   0  0  0  0  0  0  0  0  0  0  0  0
    2.6695   -1.7809    0.0748 C   0  0  0  0  0  0  0  0  0  0  0  0
    3.9537   -2.3159   -0.5850 C   0  0  0  0  0  0  0  0  0  0  0  0
    4.2002   -3.7402   -0.2848 N   0  0  0  0  0  0  0  0  0  0  0  0
    5.6082   -4.0738   -0.4820 C   0  0  0  0  0  0  0  0  0  0  0  0
    3.7290   -4.0989    1.0688 C   0  0  0  0  0  0  0  0  0  0  0  0
    3.6738   -2.9209    2.0580 C   0  0  0  0  0  0  0  0  0  0  0  0
   -0.3578   -0.1235    0.8979 C   0  0  0  0  0  0  0  0  0  0  0  0
   -0.8891    1.1130    0.4870 C   0  0  0  0  0  0  0  0  0  0  0  0
   -1.9311    1.0693   -0.5937 C   0  0  0  0  0  0  0  0  0  0  0  0
   -2.1884   -0.0368   -1.2177 N   0  0  0  0  0  0  0  0  0  0  0  0
   -3.1610   -0.0423   -2.1993 C   0  0  0  0  0  0  0  0  0  0  0  0
   -3.3504   -1.4114   -2.8288 C   0  0  0  0  0  0  0  0  0  0  0  0
   -4.2638   -2.3003   -1.9812 C   0  0  0  0  0  0  0  0  0  0  0  0
   -4.4416   -3.6732   -2.6107 C   0  0  0  0  0  0  0  0  0  0  0  0
   -3.8591    1.0489   -2.5761 C   0  0  0  0  0  0  0  0  0  0  0  0
   -5.1912    1.1001   -3.8830 Br  0  0  0  0  0  0  0  0  0  0  0  0
   -3.5449    2.3203   -1.8679 C   0  0  0  0  0  0  0  0  0  0  0  0
   -4.0822    3.3938   -2.1245 O   0  0  0  0  0  0  0  0  0  0  0  0
   -2.5954    2.2270   -0.8930 N   0  0  0  0  0  0  0  0  0  0  0  0
   -0.9655    7.2838    2.1648 H   0  0  0  0  0  0  0  0  0  0  0  0
   -1.3518    8.0096    0.5952 H   0  0  0  0  0  0  0  0  0  0  0  0
    0.2730    7.3712    0.8970 H   0  0  0  0  0  0  0  0  0  0  0  0
   -2.3147    5.7293    0.7162 H   0  0  0  0  0  0  0  0  0  0  0  0
   -1.0851    5.8121   -0.5274 H   0  0  0  0  0  0  0  0  0  0  0  0
   -0.6780    4.7245    2.3048 H   0  0  0  0  0  0  0  0  0  0  0  0
    0.5895    4.8130    1.0310 H   0  0  0  0  0  0  0  0  0  0  0  0
    0.9489    3.1170    2.5814 H   0  0  0  0  0  0  0  0  0  0  0  0
    1.8530    0.9586    3.2569 H   0  0  0  0  0  0  0  0  0  0  0  0
    1.8105   -2.3670   -0.2709 H   0  0  0  0  0  0  0  0  0  0  0  0
    2.5250   -0.7406   -0.2356 H   0  0  0  0  0  0  0  0  0  0  0  0
    3.8777   -2.1938   -1.6716 H   0  0  0  0  0  0  0  0  0  0  0  0
    4.7953   -1.6961   -0.2462 H   0  0  0  0  0  0  0  0  0  0  0  0
    5.9247   -3.8213   -1.5001 H   0  0  0  0  0  0  0  0  0  0  0  0
    6.2607   -3.5479    0.2242 H   0  0  0  0  0  0  0  0  0  0  0  0
    5.7678   -5.1511   -0.3623 H   0  0  0  0  0  0  0  0  0  0  0  0
    2.7164   -4.5087    0.9615 H   0  0  0  0  0  0  0  0  0  0  0  0
    4.3317   -4.9103    1.4953 H   0  0  0  0  0  0  0  0  0  0  0  0
    3.3542   -3.2902    3.0382 H   0  0  0  0  0  0  0  0  0  0  0  0
    4.6746   -2.4962    2.2031 H   0  0  0  0  0  0  0  0  0  0  0  0
   -0.7185   -1.0503    0.4528 H   0  0  0  0  0  0  0  0  0  0  0  0
   -3.7432   -1.3383   -3.8486 H   0  0  0  0  0  0  0  0  0  0  0  0
   -2.3679   -1.8908   -2.9367 H   0  0  0  0  0  0  0  0  0  0  0  0
   -5.2476   -1.8295   -1.8669 H   0  0  0  0  0  0  0  0  0  0  0  0
   -3.8463   -2.4211   -0.9743 H   0  0  0  0  0  0  0  0  0  0  0  0
   -3.4802   -4.1875   -2.7080 H   0  0  0  0  0  0  0  0  0  0  0  0
   -4.8915   -3.5931   -3.6054 H   0  0  0  0  0  0  0  0  0  0  0  0
   -5.0970   -4.2925   -1.9903 H   0  0  0  0  0  0  0  0  0  0  0  0
   -2.3617    3.0867   -0.4122 H   0  0  0  0  0  0  0  0  0  0  0  0
  1  2  1  0
  2  3  1  0
  3  4  1  0
  4  5  1  0
  5  6  1  0
  6  7  2  0
  7  8  1  0
  8  9  1  0
  9 10  2  0
  9 11  2  0
  9 12  1  0
 12 13  1  0
 13 14  1  0
 14 15  1  0
 15 16  1  0
 15 17  1  0
 17 18  1  0
  8 19  2  0
 19 20  1  0
 20 21  1  0
 21 22  2  0
 22 23  1  0
 23 24  1  0
 24 25  1  0
 25 26  1  0
 23 27  2  0
 27 28  1  0
 27 29  1  0
 29 30  2  0
 29 31  1  0
 20  5  2  0
 31 21  1  0
 18 12  1  0
  1 32  1  0
  1 33  1  0
  1 34  1  0
  2 35  1  0
  2 36  1  0
  3 37  1  0
  3 38  1  0
  6 39  1  0
  7 40  1  0
 13 41  1  0
 13 42  1  0
 14 43  1  0
 14 44  1  0
 16 45  1  0
 16 46  1  0
 16 47  1  0
 17 48  1  0
 17 49  1  0
 18 50  1  0
 18 51  1  0
 19 52  1  0
 24 53  1  0
 24 54  1  0
 25 55  1  0
 25 56  1  0
 26 57  1  0
 26 58  1  0
 26 59  1  0
 31 60  1  0
M  END
$$$$
