


 37 40  0  0  0  0  0  0  0  0999 V2000
   -1.3991   62.3891   84.2861 N   0  0  0  0  0  0  0  0  0  0  0  0
   -2.4005   61.6815   83.6054 C   0  0  0  0  0  0  0  0  0  0  0  0
   -3.1246   60.8944   84.2110 O   0  0  0  0  0  0  0  0  0  0  0  0
   -2.5693   61.8805   82.2577 N   0  0  0  0  0  0  0  0  0  0  0  0
   -1.8662   62.7487   81.5969 C   0  0  0  0  0  0  0  0  0  0  0  0
   -0.8347   63.5696   82.2691 C   0  0  0  0  0  0  0  0  0  0  0  0
   -0.1563   64.4660   81.5207 N   0  0  0  0  0  0  0  0  0  0  0  0
    0.7886   65.2382   82.1296 N   0  0  0  0  0  0  0  0  0  0  0  0
    1.0402   65.1082   83.4575 C   0  0  0  0  0  0  0  0  0  0  0  0
    0.3329   64.1804   84.2257 C   0  0  0  0  0  0  0  0  0  0  0  0
   -0.6294   63.3739   83.6165 C   0  0  0  0  0  0  0  0  0  0  0  0
    2.0717   66.0044   84.0039 C   0  0  0  0  0  0  0  0  0  0  0  0
    2.0019   67.3962   83.8374 C   0  0  0  0  0  0  0  0  0  0  0  0
    2.9885   68.2278   84.3679 C   0  0  0  0  0  0  0  0  0  0  0  0
    4.0369   67.6477   85.0579 C   0  0  0  0  0  0  0  0  0  0  0  0
    4.1579   66.3180   85.2419 N   0  0  0  0  0  0  0  0  0  0  0  0
    3.1841   65.5385   84.7087 C   0  0  0  0  0  0  0  0  0  0  0  0
    4.9862   68.5085   85.5685 O   0  0  0  0  0  0  0  0  0  0  0  0
    6.1695   67.8434   85.9981 C   0  0  0  0  0  0  0  0  0  0  0  0
   -2.0598   62.9421   80.2400 N   0  0  0  0  0  0  0  0  0  0  0  0
   -2.3362   63.8829   79.9630 H   0  0  0  0  0  0  0  0  0  0  0  0
   -1.4213   62.1352   79.2117 C   0  0  0  0  0  0  0  0  0  0  0  0
   -0.6310   63.0294   78.2559 C   0  0  0  0  0  0  0  0  0  0  0  0
    0.1077   62.2127   77.1942 C   0  0  0  0  0  0  0  0  0  0  0  0
   -0.5409   60.8585   76.9053 C   0  0  0  0  0  0  0  0  0  0  0  0
   -2.0643   60.9158   77.0402 C   0  0  0  0  0  0  0  0  0  0  0  0
   -2.4969   61.3416   78.4528 C   0  0  0  0  0  0  0  0  0  0  0  0
   -2.6891   59.5865   76.6814 C   0  0  0  0  0  0  0  0  0  0  0  0
   -2.1129   58.5482   76.4077 O   0  0  0  0  0  0  0  0  0  0  0  0
   -4.0358   59.6431   76.6671 O   0  0  0  0  0  0  0  0  0  0  0  0
   -4.3081   58.7347   76.4178 H   0  0  0  0  0  0  0  0  0  0  0  0
   -1.2393   62.1380   85.7159 C   0  0  0  0  0  0  0  0  0  0  0  0
   -2.2388   62.9232   86.5671 C   0  0  0  0  0  0  0  0  0  0  0  0
   -1.5479   63.4761   87.6884 O   0  0  0  0  0  0  0  0  0  0  0  0
   -0.7794   62.4879   88.3739 C   0  0  0  0  0  0  0  0  0  0  0  0
    1.3424   63.7336   87.7799 C   0  0  0  0  0  0  0  0  0  0  0  0
    0.5059   63.1216   88.8947 C   0  0  0  0  0  0  0  0  0  0  0  0
 36 37  1  0  0  0
 37 35  1  0  0  0
 35 34  1  0  0  0
 34 33  1  0  0  0
 33 32  1  0  0  0
 32  1  1  0  0  0
  1  2  1  0  0  0
  2  3  2  0  0  0
  2  4  1  0  0  0
  4  5  2  0  0  0
  5 20  1  0  0  0
 20 22  1  0  0  0
 22 23  1  0  0  0
 23 24  1  0  0  0
 24 25  1  0  0  0
 25 26  1  0  0  0
 26 28  1  0  0  0
 28 29  2  0  0  0
 28 30  1  0  0  0
 26 27  1  0  0  0
  5  6  1  0  0  0
  6  7  1  0  0  0
  7  8  2  0  0  0
  8  9  1  0  0  0
  9 12  1  0  0  0
 12 13  2  0  0  0
 13 14  1  0  0  0
 14 15  2  0  0  0
 15 18  1  0  0  0
 18 19  1  0  0  0
 15 16  1  0  0  0
 16 17  2  0  0  0
  9 10  2  0  0  0
 10 11  1  0  0  0
 11  1  1  0  0  0
 27 22  1  0  0  0
 11  6  2  0  0  0
 17 12  1  0  0  0
 20 21  1  0  0  0
 30 31  1  0  0  0
M  END
> <minimizedAffinity>
-9.49675

$$$$



 37 40  0  0  0  0  0  0  0  0999 V2000
    1.7422   67.6391   81.0783 N   0  0  0  0  0  0  0  0  0  0  0  0
    2.5674   68.7622   81.2350 C   0  0  0  0  0  0  0  0  0  0  0  0
    2.7733   69.5175   80.2876 O   0  0  0  0  0  0  0  0  0  0  0  0
    3.1381   69.0142   82.4578 N   0  0  0  0  0  0  0  0  0  0  0  0
    2.8940   68.2751   83.4966 C   0  0  0  0  0  0  0  0  0  0  0  0
    1.9850   67.1106   83.4111 C   0  0  0  0  0  0  0  0  0  0  0  0
    1.7637   66.3999   84.5380 N   0  0  0  0  0  0  0  0  0  0  0  0
    0.9184   65.3314   84.4769 N   0  0  0  0  0  0  0  0  0  0  0  0
    0.3136   64.9914   83.3098 C   0  0  0  0  0  0  0  0  0  0  0  0
    0.5455   65.7327   82.1486 C   0  0  0  0  0  0  0  0  0  0  0  0
    1.4167   66.8221   82.1906 C   0  0  0  0  0  0  0  0  0  0  0  0
   -0.5865   63.8287   83.3706 C   0  0  0  0  0  0  0  0  0  0  0  0
   -1.5826   63.6167   82.4051 C   0  0  0  0  0  0  0  0  0  0  0  0
   -2.4222   62.5049   82.4794 C   0  0  0  0  0  0  0  0  0  0  0  0
   -2.2511   61.6202   83.5281 C   0  0  0  0  0  0  0  0  0  0  0  0
   -1.3164   61.7779   84.4863 N   0  0  0  0  0  0  0  0  0  0  0  0
   -0.5207   62.8720   84.3863 C   0  0  0  0  0  0  0  0  0  0  0  0
   -3.1003   60.5335   83.5587 O   0  0  0  0  0  0  0  0  0  0  0  0
   -3.0099   59.7212   82.3929 C   0  0  0  0  0  0  0  0  0  0  0  0
    3.4711   68.5530   84.7237 N   0  0  0  0  0  0  0  0  0  0  0  0
    2.8298   68.8582   85.4543 H   0  0  0  0  0  0  0  0  0  0  0  0
    4.7233   67.9672   85.1766 C   0  0  0  0  0  0  0  0  0  0  0  0
    5.5518   67.5041   83.9780 C   0  0  0  0  0  0  0  0  0  0  0  0
    6.9059   66.9375   84.4085 C   0  0  0  0  0  0  0  0  0  0  0  0
    6.9102   66.3827   85.8333 C   0  0  0  0  0  0  0  0  0  0  0  0
    5.5611   65.7652   86.2086 C   0  0  0  0  0  0  0  0  0  0  0  0
    4.4186   66.7900   86.1168 C   0  0  0  0  0  0  0  0  0  0  0  0
    5.6098   65.1604   87.5935 C   0  0  0  0  0  0  0  0  0  0  0  0
    6.5400   65.1879   88.3802 O   0  0  0  0  0  0  0  0  0  0  0  0
    4.4659   64.5224   87.9121 O   0  0  0  0  0  0  0  0  0  0  0  0
    4.6312   64.1773   88.8150 H   0  0  0  0  0  0  0  0  0  0  0  0
    1.1667   67.3952   79.7583 C   0  0  0  0  0  0  0  0  0  0  0  0
    1.7411   66.1464   79.0871 C   0  0  0  0  0  0  0  0  0  0  0  0
    0.6693   65.4170   78.4870 O   0  0  0  0  0  0  0  0  0  0  0  0
    0.9864   64.0324   78.3485 C   0  0  0  0  0  0  0  0  0  0  0  0
    0.5226   62.0577   79.8625 C   0  0  0  0  0  0  0  0  0  0  0  0
   -0.0778   63.1992   79.0542 C   0  0  0  0  0  0  0  0  0  0  0  0
 36 37  1  0  0  0
 37 35  1  0  0  0
 35 34  1  0  0  0
 34 33  1  0  0  0
 33 32  1  0  0  0
 32  1  1  0  0  0
  1  2  1  0  0  0
  2  3  2  0  0  0
  2  4  1  0  0  0
  4  5  2  0  0  0
  5 20  1  0  0  0
 20 22  1  0  0  0
 22 23  1  0  0  0
 23 24  1  0  0  0
 24 25  1  0  0  0
 25 26  1  0  0  0
 26 28  1  0  0  0
 28 29  2  0  0  0
 28 30  1  0  0  0
 26 27  1  0  0  0
  5  6  1  0  0  0
  6  7  1  0  0  0
  7  8  2  0  0  0
  8  9  1  0  0  0
  9 12  1  0  0  0
 12 13  2  0  0  0
 13 14  1  0  0  0
 14 15  2  0  0  0
 15 18  1  0  0  0
 18 19  1  0  0  0
 15 16  1  0  0  0
 16 17  2  0  0  0
  9 10  2  0  0  0
 10 11  1  0  0  0
 11  1  1  0  0  0
 27 22  1  0  0  0
 11  6  2  0  0  0
 17 12  1  0  0  0
 20 21  1  0  0  0
 30 31  1  0  0  0
M  END
> <minimizedAffinity>
-9.25032

$$$$



 37 40  0  0  0  0  0  0  0  0999 V2000
    0.6699   65.4446   80.7436 N   0  0  0  0  0  0  0  0  0  0  0  0
    0.9113   65.3054   79.3691 C   0  0  0  0  0  0  0  0  0  0  0  0
    1.2719   66.2723   78.7017 O   0  0  0  0  0  0  0  0  0  0  0  0
    0.7477   64.0779   78.7768 N   0  0  0  0  0  0  0  0  0  0  0  0
    0.4291   63.0211   79.4599 C   0  0  0  0  0  0  0  0  0  0  0  0
    0.2190   63.0898   80.9230 C   0  0  0  0  0  0  0  0  0  0  0  0
   -0.0913   61.9455   81.5696 N   0  0  0  0  0  0  0  0  0  0  0  0
   -0.2756   61.9916   82.9201 N   0  0  0  0  0  0  0  0  0  0  0  0
   -0.1493   63.1614   83.5977 C   0  0  0  0  0  0  0  0  0  0  0  0
    0.1742   64.3407   82.9225 C   0  0  0  0  0  0  0  0  0  0  0  0
    0.3548   64.3138   81.5390 C   0  0  0  0  0  0  0  0  0  0  0  0
   -0.3583   63.0838   85.0524 C   0  0  0  0  0  0  0  0  0  0  0  0
    0.1723   64.0461   85.9254 C   0  0  0  0  0  0  0  0  0  0  0  0
   -0.0420   63.9558   87.3010 C   0  0  0  0  0  0  0  0  0  0  0  0
   -0.7861   62.8946   87.7827 C   0  0  0  0  0  0  0  0  0  0  0  0
   -1.3129   61.9388   86.9917 N   0  0  0  0  0  0  0  0  0  0  0  0
   -1.0811   62.0545   85.6602 C   0  0  0  0  0  0  0  0  0  0  0  0
   -0.9761   62.8484   89.1483 O   0  0  0  0  0  0  0  0  0  0  0  0
    0.1102   62.2446   89.8430 C   0  0  0  0  0  0  0  0  0  0  0  0
    0.2799   61.7900   78.8450 N   0  0  0  0  0  0  0  0  0  0  0  0
    0.8957   61.0510   79.1810 H   0  0  0  0  0  0  0  0  0  0  0  0
   -0.9503   61.3537   78.2029 C   0  0  0  0  0  0  0  0  0  0  0  0
   -1.7436   62.5634   77.7079 C   0  0  0  0  0  0  0  0  0  0  0  0
   -3.0165   62.1446   76.9703 C   0  0  0  0  0  0  0  0  0  0  0  0
   -3.5464   60.7752   77.3966 C   0  0  0  0  0  0  0  0  0  0  0  0
   -3.2797   60.4966   78.8776 C   0  0  0  0  0  0  0  0  0  0  0  0
   -1.7776   60.5311   79.2037 C   0  0  0  0  0  0  0  0  0  0  0  0
   -3.8738   59.1700   79.2937 C   0  0  0  0  0  0  0  0  0  0  0  0
   -3.4509   58.4035   80.1415 O   0  0  0  0  0  0  0  0  0  0  0  0
   -4.9822   58.8642   78.5901 O   0  0  0  0  0  0  0  0  0  0  0  0
   -5.2566   57.9934   78.9477 H   0  0  0  0  0  0  0  0  0  0  0  0
    0.8385   66.7696   81.3342 C   0  0  0  0  0  0  0  0  0  0  0  0
    2.1989   66.9436   82.0118 C   0  0  0  0  0  0  0  0  0  0  0  0
    1.9872   67.3840   83.3541 O   0  0  0  0  0  0  0  0  0  0  0  0
    2.5428   66.4727   84.3017 C   0  0  0  0  0  0  0  0  0  0  0  0
    4.6162   67.8488   84.7643 C   0  0  0  0  0  0  0  0  0  0  0  0
    4.0644   66.5354   84.2281 C   0  0  0  0  0  0  0  0  0  0  0  0
 36 37  1  0  0  0
 37 35  1  0  0  0
 35 34  1  0  0  0
 34 33  1  0  0  0
 33 32  1  0  0  0
 32  1  1  0  0  0
  1  2  1  0  0  0
  2  3  2  0  0  0
  2  4  1  0  0  0
  4  5  2  0  0  0
  5 20  1  0  0  0
 20 22  1  0  0  0
 22 23  1  0  0  0
 23 24  1  0  0  0
 24 25  1  0  0  0
 25 26  1  0  0  0
 26 28  1  0  0  0
 28 29  2  0  0  0
 28 30  1  0  0  0
 26 27  1  0  0  0
  5  6  1  0  0  0
  6  7  1  0  0  0
  7  8  2  0  0  0
  8  9  1  0  0  0
  9 12  1  0  0  0
 12 13  2  0  0  0
 13 14  1  0  0  0
 14 15  2  0  0  0
 15 18  1  0  0  0
 18 19  1  0  0  0
 15 16  1  0  0  0
 16 17  2  0  0  0
  9 10  2  0  0  0
 10 11  1  0  0  0
 11  1  1  0  0  0
 27 22  1  0  0  0
 11  6  2  0  0  0
 17 12  1  0  0  0
 20 21  1  0  0  0
 30 31  1  0  0  0
M  END
> <minimizedAffinity>
-9.24163

$$$$



 37 40  0  0  0  0  0  0  0  0999 V2000
    0.2812   64.4166   80.1112 N   0  0  0  0  0  0  0  0  0  0  0  0
    0.6087   65.1916   78.9892 C   0  0  0  0  0  0  0  0  0  0  0  0
    0.3284   64.7968   77.8595 O   0  0  0  0  0  0  0  0  0  0  0  0
    1.2395   66.3982   79.1639 N   0  0  0  0  0  0  0  0  0  0  0  0
    1.4951   66.8767   80.3432 C   0  0  0  0  0  0  0  0  0  0  0  0
    1.1210   66.1352   81.5679 C   0  0  0  0  0  0  0  0  0  0  0  0
    1.4015   66.7047   82.7598 N   0  0  0  0  0  0  0  0  0  0  0  0
    1.0511   66.0383   83.8970 N   0  0  0  0  0  0  0  0  0  0  0  0
    0.4342   64.8306   83.8309 C   0  0  0  0  0  0  0  0  0  0  0  0
    0.1452   64.2486   82.5942 C   0  0  0  0  0  0  0  0  0  0  0  0
    0.5072   64.9114   81.4207 C   0  0  0  0  0  0  0  0  0  0  0  0
    0.0934   64.2147   85.1233 C   0  0  0  0  0  0  0  0  0  0  0  0
   -0.8421   63.1730   85.2191 C   0  0  0  0  0  0  0  0  0  0  0  0
   -1.1471   62.6002   86.4542 C   0  0  0  0  0  0  0  0  0  0  0  0
   -0.5083   63.0858   87.5803 C   0  0  0  0  0  0  0  0  0  0  0  0
    0.3924   64.0880   87.5477 N   0  0  0  0  0  0  0  0  0  0  0  0
    0.6615   64.6253   86.3315 C   0  0  0  0  0  0  0  0  0  0  0  0
   -0.8374   62.4868   88.7785 O   0  0  0  0  0  0  0  0  0  0  0  0
    0.3013   62.1150   89.5481 C   0  0  0  0  0  0  0  0  0  0  0  0
    2.1222   68.1010   80.4979 N   0  0  0  0  0  0  0  0  0  0  0  0
    2.8541   68.3110   79.8208 H   0  0  0  0  0  0  0  0  0  0  0  0
    1.5036   69.2472   81.1458 C   0  0  0  0  0  0  0  0  0  0  0  0
    0.3338   69.7593   80.3050 C   0  0  0  0  0  0  0  0  0  0  0  0
   -0.3841   70.9276   80.9828 C   0  0  0  0  0  0  0  0  0  0  0  0
    0.5054   71.7145   81.9460 C   0  0  0  0  0  0  0  0  0  0  0  0
    1.9600   71.7573   81.4724 C   0  0  0  0  0  0  0  0  0  0  0  0
    2.5592   70.3476   81.3397 C   0  0  0  0  0  0  0  0  0  0  0  0
    2.8062   72.5988   82.4008 C   0  0  0  0  0  0  0  0  0  0  0  0
    3.8621   73.1501   82.1434 O   0  0  0  0  0  0  0  0  0  0  0  0
    2.2751   72.6862   83.6367 O   0  0  0  0  0  0  0  0  0  0  0  0
    2.9143   73.2425   84.1301 H   0  0  0  0  0  0  0  0  0  0  0  0
   -0.3742   63.1315   79.8840 C   0  0  0  0  0  0  0  0  0  0  0  0
    0.5813   61.9472   80.0407 C   0  0  0  0  0  0  0  0  0  0  0  0
    0.0426   61.0520   81.0149 O   0  0  0  0  0  0  0  0  0  0  0  0
   -1.3842   61.0859   81.0302 C   0  0  0  0  0  0  0  0  0  0  0  0
   -3.1372   60.2160   82.6354 C   0  0  0  0  0  0  0  0  0  0  0  0
   -1.8731   61.0484   82.4739 C   0  0  0  0  0  0  0  0  0  0  0  0
 36 37  1  0  0  0
 37 35  1  0  0  0
 35 34  1  0  0  0
 34 33  1  0  0  0
 33 32  1  0  0  0
 32  1  1  0  0  0
  1  2  1  0  0  0
  2  3  2  0  0  0
  2  4  1  0  0  0
  4  5  2  0  0  0
  5 20  1  0  0  0
 20 22  1  0  0  0
 22 23  1  0  0  0
 23 24  1  0  0  0
 24 25  1  0  0  0
 25 26  1  0  0  0
 26 28  1  0  0  0
 28 29  2  0  0  0
 28 30  1  0  0  0
 26 27  1  0  0  0
  5  6  1  0  0  0
  6  7  1  0  0  0
  7  8  2  0  0  0
  8  9  1  0  0  0
  9 12  1  0  0  0
 12 13  2  0  0  0
 13 14  1  0  0  0
 14 15  2  0  0  0
 15 18  1  0  0  0
 18 19  1  0  0  0
 15 16  1  0  0  0
 16 17  2  0  0  0
  9 10  2  0  0  0
 10 11  1  0  0  0
 11  1  1  0  0  0
 27 22  1  0  0  0
 11  6  2  0  0  0
 17 12  1  0  0  0
 20 21  1  0  0  0
 30 31  1  0  0  0
M  END
> <minimizedAffinity>
-9.19929

$$$$



 37 40  0  0  0  0  0  0  0  0999 V2000
    0.3084   64.3173   80.1644 N   0  0  0  0  0  0  0  0  0  0  0  0
    0.6388   65.0883   79.0405 C   0  0  0  0  0  0  0  0  0  0  0  0
    0.3660   64.6872   77.9112 O   0  0  0  0  0  0  0  0  0  0  0  0
    1.2639   66.2982   79.2129 N   0  0  0  0  0  0  0  0  0  0  0  0
    1.5114   66.7831   80.3913 C   0  0  0  0  0  0  0  0  0  0  0  0
    1.1338   66.0459   81.6174 C   0  0  0  0  0  0  0  0  0  0  0  0
    1.4057   66.6221   82.8081 N   0  0  0  0  0  0  0  0  0  0  0  0
    1.0519   65.9595   83.9465 N   0  0  0  0  0  0  0  0  0  0  0  0
    0.4401   64.7491   83.8828 C   0  0  0  0  0  0  0  0  0  0  0  0
    0.1599   64.1603   82.6474 C   0  0  0  0  0  0  0  0  0  0  0  0
    0.5255   64.8190   81.4727 C   0  0  0  0  0  0  0  0  0  0  0  0
    0.0948   64.1379   85.1762 C   0  0  0  0  0  0  0  0  0  0  0  0
    0.5986   64.6397   86.3862 C   0  0  0  0  0  0  0  0  0  0  0  0
    0.2545   64.0476   87.6017 C   0  0  0  0  0  0  0  0  0  0  0  0
   -0.5911   62.9538   87.5847 C   0  0  0  0  0  0  0  0  0  0  0  0
   -1.0983   62.4262   86.4528 N   0  0  0  0  0  0  0  0  0  0  0  0
   -0.7393   63.0231   85.2888 C   0  0  0  0  0  0  0  0  0  0  0  0
   -0.9075   62.4039   88.8096 O   0  0  0  0  0  0  0  0  0  0  0  0
    0.2392   62.0462   89.5740 C   0  0  0  0  0  0  0  0  0  0  0  0
    2.1328   68.0107   80.5435 N   0  0  0  0  0  0  0  0  0  0  0  0
    2.8812   68.2119   79.8819 H   0  0  0  0  0  0  0  0  0  0  0  0
    1.4968   69.1651   81.1589 C   0  0  0  0  0  0  0  0  0  0  0  0
    0.3519   69.6670   80.2787 C   0  0  0  0  0  0  0  0  0  0  0  0
   -0.3843   70.8440   80.9209 C   0  0  0  0  0  0  0  0  0  0  0  0
    0.4779   71.6428   81.8990 C   0  0  0  0  0  0  0  0  0  0  0  0
    1.9455   71.6791   81.4667 C   0  0  0  0  0  0  0  0  0  0  0  0
    2.5472   70.2676   81.3690 C   0  0  0  0  0  0  0  0  0  0  0  0
    2.7654   72.5319   82.4082 C   0  0  0  0  0  0  0  0  0  0  0  0
    3.8236   73.0878   82.1709 O   0  0  0  0  0  0  0  0  0  0  0  0
    2.2058   72.6246   83.6310 O   0  0  0  0  0  0  0  0  0  0  0  0
    2.8303   73.1881   84.1349 H   0  0  0  0  0  0  0  0  0  0  0  0
   -0.3408   63.0285   79.9396 C   0  0  0  0  0  0  0  0  0  0  0  0
    0.6288   61.8515   80.0611 C   0  0  0  0  0  0  0  0  0  0  0  0
    0.2699   61.0812   81.2092 O   0  0  0  0  0  0  0  0  0  0  0  0
    1.3357   61.0188   82.1565 C   0  0  0  0  0  0  0  0  0  0  0  0
    3.5270   59.7730   82.3858 C   0  0  0  0  0  0  0  0  0  0  0  0
    2.6054   60.5488   81.4553 C   0  0  0  0  0  0  0  0  0  0  0  0
 36 37  1  0  0  0
 37 35  1  0  0  0
 35 34  1  0  0  0
 34 33  1  0  0  0
 33 32  1  0  0  0
 32  1  1  0  0  0
  1  2  1  0  0  0
  2  3  2  0  0  0
  2  4  1  0  0  0
  4  5  2  0  0  0
  5 20  1  0  0  0
 20 22  1  0  0  0
 22 23  1  0  0  0
 23 24  1  0  0  0
 24 25  1  0  0  0
 25 26  1  0  0  0
 26 28  1  0  0  0
 28 29  2  0  0  0
 28 30  1  0  0  0
 26 27  1  0  0  0
  5  6  1  0  0  0
  6  7  1  0  0  0
  7  8  2  0  0  0
  8  9  1  0  0  0
  9 12  1  0  0  0
 12 13  2  0  0  0
 13 14  1  0  0  0
 14 15  2  0  0  0
 15 18  1  0  0  0
 18 19  1  0  0  0
 15 16  1  0  0  0
 16 17  2  0  0  0
  9 10  2  0  0  0
 10 11  1  0  0  0
 11  1  1  0  0  0
 27 22  1  0  0  0
 11  6  2  0  0  0
 17 12  1  0  0  0
 20 21  1  0  0  0
 30 31  1  0  0  0
M  END
> <minimizedAffinity>
-9.19627

$$$$



 37 40  0  0  0  0  0  0  0  0999 V2000
    0.5871   64.0140   84.1641 N   0  0  0  0  0  0  0  0  0  0  0  0
   -0.1004   62.8159   83.9216 C   0  0  0  0  0  0  0  0  0  0  0  0
   -0.1854   61.9609   84.8003 O   0  0  0  0  0  0  0  0  0  0  0  0
   -0.6833   62.6092   82.6960 N   0  0  0  0  0  0  0  0  0  0  0  0
   -0.6683   63.5140   81.7655 C   0  0  0  0  0  0  0  0  0  0  0  0
   -0.0111   64.8222   81.9801 C   0  0  0  0  0  0  0  0  0  0  0  0
   -0.0528   65.7212   80.9732 N   0  0  0  0  0  0  0  0  0  0  0  0
    0.5380   66.9359   81.1616 N   0  0  0  0  0  0  0  0  0  0  0  0
    1.1533   67.2333   82.3348 C   0  0  0  0  0  0  0  0  0  0  0  0
    1.1905   66.2992   83.3728 C   0  0  0  0  0  0  0  0  0  0  0  0
    0.6010   65.0471   83.1929 C   0  0  0  0  0  0  0  0  0  0  0  0
    1.7428   68.5787   82.4250 C   0  0  0  0  0  0  0  0  0  0  0  0
    3.0885   68.7717   82.7734 C   0  0  0  0  0  0  0  0  0  0  0  0
    3.6281   70.0561   82.8485 C   0  0  0  0  0  0  0  0  0  0  0  0
    2.8049   71.1327   82.5748 C   0  0  0  0  0  0  0  0  0  0  0  0
    1.5048   71.0064   82.2425 N   0  0  0  0  0  0  0  0  0  0  0  0
    1.0114   69.7441   82.1837 C   0  0  0  0  0  0  0  0  0  0  0  0
    3.3822   72.3829   82.6569 O   0  0  0  0  0  0  0  0  0  0  0  0
    2.5301   73.3530   83.2568 C   0  0  0  0  0  0  0  0  0  0  0  0
   -1.2719   63.2898   80.5401 N   0  0  0  0  0  0  0  0  0  0  0  0
   -1.4095   64.1147   79.9581 H   0  0  0  0  0  0  0  0  0  0  0  0
   -1.2271   62.0150   79.8408 C   0  0  0  0  0  0  0  0  0  0  0  0
   -0.8399   62.2305   78.3775 C   0  0  0  0  0  0  0  0  0  0  0  0
   -0.7207   60.9066   77.6207 C   0  0  0  0  0  0  0  0  0  0  0  0
   -1.5660   59.7824   78.2205 C   0  0  0  0  0  0  0  0  0  0  0  0
   -2.8668   60.3105   78.8299 C   0  0  0  0  0  0  0  0  0  0  0  0
   -2.6004   61.3327   79.9470 C   0  0  0  0  0  0  0  0  0  0  0  0
   -3.7184   59.1759   79.3528 C   0  0  0  0  0  0  0  0  0  0  0  0
   -3.4593   58.4195   80.2724 O   0  0  0  0  0  0  0  0  0  0  0  0
   -4.8673   59.0396   78.6610 O   0  0  0  0  0  0  0  0  0  0  0  0
   -5.3131   58.2790   79.0903 H   0  0  0  0  0  0  0  0  0  0  0  0
    1.2080   64.1902   85.4741 C   0  0  0  0  0  0  0  0  0  0  0  0
    0.2083   64.6294   86.5454 C   0  0  0  0  0  0  0  0  0  0  0  0
    0.5996   64.0600   87.7957 O   0  0  0  0  0  0  0  0  0  0  0  0
   -0.2794   63.0087   88.1945 C   0  0  0  0  0  0  0  0  0  0  0  0
   -2.5265   62.2861   87.2808 C   0  0  0  0  0  0  0  0  0  0  0  0
   -1.7187   63.4174   87.9010 C   0  0  0  0  0  0  0  0  0  0  0  0
 36 37  1  0  0  0
 37 35  1  0  0  0
 35 34  1  0  0  0
 34 33  1  0  0  0
 33 32  1  0  0  0
 32  1  1  0  0  0
  1  2  1  0  0  0
  2  3  2  0  0  0
  2  4  1  0  0  0
  4  5  2  0  0  0
  5 20  1  0  0  0
 20 22  1  0  0  0
 22 23  1  0  0  0
 23 24  1  0  0  0
 24 25  1  0  0  0
 25 26  1  0  0  0
 26 28  1  0  0  0
 28 29  2  0  0  0
 28 30  1  0  0  0
 26 27  1  0  0  0
  5  6  1  0  0  0
  6  7  1  0  0  0
  7  8  2  0  0  0
  8  9  1  0  0  0
  9 12  1  0  0  0
 12 13  2  0  0  0
 13 14  1  0  0  0
 14 15  2  0  0  0
 15 18  1  0  0  0
 18 19  1  0  0  0
 15 16  1  0  0  0
 16 17  2  0  0  0
  9 10  2  0  0  0
 10 11  1  0  0  0
 11  1  1  0  0  0
 27 22  1  0  0  0
 11  6  2  0  0  0
 17 12  1  0  0  0
 20 21  1  0  0  0
 30 31  1  0  0  0
M  END
> <minimizedAffinity>
-9.18630

$$$$



 37 40  0  0  0  0  0  0  0  0999 V2000
    0.7860   65.3571   80.4310 N   0  0  0  0  0  0  0  0  0  0  0  0
    0.9802   65.1397   79.0592 C   0  0  0  0  0  0  0  0  0  0  0  0
    1.3208   66.0659   78.3266 O   0  0  0  0  0  0  0  0  0  0  0  0
    0.7930   63.8817   78.5427 N   0  0  0  0  0  0  0  0  0  0  0  0
    0.4947   62.8665   79.2946 C   0  0  0  0  0  0  0  0  0  0  0  0
    0.3345   63.0184   80.7578 C   0  0  0  0  0  0  0  0  0  0  0  0
    0.0429   61.9136   81.4778 N   0  0  0  0  0  0  0  0  0  0  0  0
   -0.0952   62.0364   82.8290 N   0  0  0  0  0  0  0  0  0  0  0  0
    0.0575   63.2417   83.4351 C   0  0  0  0  0  0  0  0  0  0  0  0
    0.3613   64.3798   82.6841 C   0  0  0  0  0  0  0  0  0  0  0  0
    0.4947   64.2743   81.2990 C   0  0  0  0  0  0  0  0  0  0  0  0
   -0.1023   63.2470   84.8981 C   0  0  0  0  0  0  0  0  0  0  0  0
    0.3916   64.2955   85.6894 C   0  0  0  0  0  0  0  0  0  0  0  0
    0.2251   64.2826   87.0745 C   0  0  0  0  0  0  0  0  0  0  0  0
   -0.4347   63.2113   87.6479 C   0  0  0  0  0  0  0  0  0  0  0  0
   -0.9229   62.1749   86.9378 N   0  0  0  0  0  0  0  0  0  0  0  0
   -0.7391   62.2171   85.5944 C   0  0  0  0  0  0  0  0  0  0  0  0
   -0.5802   63.2431   89.0193 O   0  0  0  0  0  0  0  0  0  0  0  0
    0.2010   62.2573   89.6866 C   0  0  0  0  0  0  0  0  0  0  0  0
    0.3210   61.6035   78.7553 N   0  0  0  0  0  0  0  0  0  0  0  0
    0.9076   60.8701   79.1505 H   0  0  0  0  0  0  0  0  0  0  0  0
   -0.9087   61.1626   78.1154 C   0  0  0  0  0  0  0  0  0  0  0  0
   -1.6605   62.3616   77.5370 C   0  0  0  0  0  0  0  0  0  0  0  0
   -2.9307   61.9338   76.7999 C   0  0  0  0  0  0  0  0  0  0  0  0
   -3.5045   60.6051   77.2933 C   0  0  0  0  0  0  0  0  0  0  0  0
   -3.2718   60.4055   78.7927 C   0  0  0  0  0  0  0  0  0  0  0  0
   -1.7753   60.4203   79.1453 C   0  0  0  0  0  0  0  0  0  0  0  0
   -3.9083   59.1206   79.2722 C   0  0  0  0  0  0  0  0  0  0  0  0
   -3.5081   58.3812   80.1543 O   0  0  0  0  0  0  0  0  0  0  0  0
   -5.0289   58.8194   78.5861 O   0  0  0  0  0  0  0  0  0  0  0  0
   -5.3309   57.9760   78.9851 H   0  0  0  0  0  0  0  0  0  0  0  0
    0.9785   66.7124   80.9401 C   0  0  0  0  0  0  0  0  0  0  0  0
   -0.2805   67.5724   80.8163 C   0  0  0  0  0  0  0  0  0  0  0  0
    0.0708   68.8088   80.1932 O   0  0  0  0  0  0  0  0  0  0  0  0
    0.2915   69.8399   81.1550 C   0  0  0  0  0  0  0  0  0  0  0  0
   -0.4383   72.1783   81.7923 C   0  0  0  0  0  0  0  0  0  0  0  0
   -0.4367   71.1046   80.7134 C   0  0  0  0  0  0  0  0  0  0  0  0
 36 37  1  0  0  0
 37 35  1  0  0  0
 35 34  1  0  0  0
 34 33  1  0  0  0
 33 32  1  0  0  0
 32  1  1  0  0  0
  1  2  1  0  0  0
  2  3  2  0  0  0
  2  4  1  0  0  0
  4  5  2  0  0  0
  5 20  1  0  0  0
 20 22  1  0  0  0
 22 23  1  0  0  0
 23 24  1  0  0  0
 24 25  1  0  0  0
 25 26  1  0  0  0
 26 28  1  0  0  0
 28 29  2  0  0  0
 28 30  1  0  0  0
 26 27  1  0  0  0
  5  6  1  0  0  0
  6  7  1  0  0  0
  7  8  2  0  0  0
  8  9  1  0  0  0
  9 12  1  0  0  0
 12 13  2  0  0  0
 13 14  1  0  0  0
 14 15  2  0  0  0
 15 18  1  0  0  0
 18 19  1  0  0  0
 15 16  1  0  0  0
 16 17  2  0  0  0
  9 10  2  0  0  0
 10 11  1  0  0  0
 11  1  1  0  0  0
 27 22  1  0  0  0
 11  6  2  0  0  0
 17 12  1  0  0  0
 20 21  1  0  0  0
 30 31  1  0  0  0
M  END
> <minimizedAffinity>
-9.11779

$$$$



 37 40  0  0  0  0  0  0  0  0999 V2000
    0.3845   64.0925   84.0043 N   0  0  0  0  0  0  0  0  0  0  0  0
    0.8926   65.1150   84.8186 C   0  0  0  0  0  0  0  0  0  0  0  0
    0.9425   64.9699   86.0380 O   0  0  0  0  0  0  0  0  0  0  0  0
    1.3400   66.2773   84.2412 N   0  0  0  0  0  0  0  0  0  0  0  0
    1.3613   66.4423   82.9538 C   0  0  0  0  0  0  0  0  0  0  0  0
    0.8946   65.3781   82.0377 C   0  0  0  0  0  0  0  0  0  0  0  0
    0.9649   65.6141   80.7099 N   0  0  0  0  0  0  0  0  0  0  0  0
    0.5498   64.6373   79.8534 N   0  0  0  0  0  0  0  0  0  0  0  0
    0.0775   63.4553   80.3260 C   0  0  0  0  0  0  0  0  0  0  0  0
    0.0099   63.2174   81.7009 C   0  0  0  0  0  0  0  0  0  0  0  0
    0.4196   64.2104   82.5917 C   0  0  0  0  0  0  0  0  0  0  0  0
   -0.3280   62.4747   79.3063 C   0  0  0  0  0  0  0  0  0  0  0  0
   -1.4528   61.6536   79.4798 C   0  0  0  0  0  0  0  0  0  0  0  0
   -1.8220   60.7337   78.4980 C   0  0  0  0  0  0  0  0  0  0  0  0
   -1.0517   60.6487   77.3530 C   0  0  0  0  0  0  0  0  0  0  0  0
    0.0417   61.4068   77.1369 N   0  0  0  0  0  0  0  0  0  0  0  0
    0.3750   62.2869   78.1139 C   0  0  0  0  0  0  0  0  0  0  0  0
   -1.4567   59.7290   76.4079 O   0  0  0  0  0  0  0  0  0  0  0  0
   -2.8638   59.5119   76.4072 C   0  0  0  0  0  0  0  0  0  0  0  0
    1.8270   67.6181   82.3910 N   0  0  0  0  0  0  0  0  0  0  0  0
    2.6691   67.5330   81.8238 H   0  0  0  0  0  0  0  0  0  0  0  0
    0.9806   68.7672   82.1094 C   0  0  0  0  0  0  0  0  0  0  0  0
    0.5265   68.7416   80.6497 C   0  0  0  0  0  0  0  0  0  0  0  0
   -0.4176   69.9014   80.3282 C   0  0  0  0  0  0  0  0  0  0  0  0
   -0.2259   71.1148   81.2387 C   0  0  0  0  0  0  0  0  0  0  0  0
    1.2356   71.2867   81.6589 C   0  0  0  0  0  0  0  0  0  0  0  0
    1.7610   70.0557   82.4155 C   0  0  0  0  0  0  0  0  0  0  0  0
    1.4137   72.5310   82.4993 C   0  0  0  0  0  0  0  0  0  0  0  0
    1.0394   73.6606   82.2368 O   0  0  0  0  0  0  0  0  0  0  0  0
    2.0858   72.2835   83.6413 O   0  0  0  0  0  0  0  0  0  0  0  0
    2.1370   73.1590   84.0801 H   0  0  0  0  0  0  0  0  0  0  0  0
   -0.0972   62.8779   84.6567 C   0  0  0  0  0  0  0  0  0  0  0  0
   -1.5935   62.9316   84.9704 C   0  0  0  0  0  0  0  0  0  0  0  0
   -1.9347   61.7933   85.7631 O   0  0  0  0  0  0  0  0  0  0  0  0
   -1.2542   61.8013   87.0176 C   0  0  0  0  0  0  0  0  0  0  0  0
   -0.6187   63.4440   88.8354 C   0  0  0  0  0  0  0  0  0  0  0  0
   -1.6638   63.0413   87.8045 C   0  0  0  0  0  0  0  0  0  0  0  0
 36 37  1  0  0  0
 37 35  1  0  0  0
 35 34  1  0  0  0
 34 33  1  0  0  0
 33 32  1  0  0  0
 32  1  1  0  0  0
  1  2  1  0  0  0
  2  3  2  0  0  0
  2  4  1  0  0  0
  4  5  2  0  0  0
  5 20  1  0  0  0
 20 22  1  0  0  0
 22 23  1  0  0  0
 23 24  1  0  0  0
 24 25  1  0  0  0
 25 26  1  0  0  0
 26 28  1  0  0  0
 28 29  2  0  0  0
 28 30  1  0  0  0
 26 27  1  0  0  0
  5  6  1  0  0  0
  6  7  1  0  0  0
  7  8  2  0  0  0
  8  9  1  0  0  0
  9 12  1  0  0  0
 12 13  2  0  0  0
 13 14  1  0  0  0
 14 15  2  0  0  0
 15 18  1  0  0  0
 18 19  1  0  0  0
 15 16  1  0  0  0
 16 17  2  0  0  0
  9 10  2  0  0  0
 10 11  1  0  0  0
 11  1  1  0  0  0
 27 22  1  0  0  0
 11  6  2  0  0  0
 17 12  1  0  0  0
 20 21  1  0  0  0
 30 31  1  0  0  0
M  END
> <minimizedAffinity>
-9.00958

$$$$



 37 40  0  0  0  0  0  0  0  0999 V2000
   -0.0749   63.5689   85.3275 N   0  0  0  0  0  0  0  0  0  0  0  0
   -0.6907   62.3090   85.3084 C   0  0  0  0  0  0  0  0  0  0  0  0
   -1.1040   61.8048   86.3504 O   0  0  0  0  0  0  0  0  0  0  0  0
   -0.8337   61.6464   84.1148 N   0  0  0  0  0  0  0  0  0  0  0  0
   -0.4666   62.1736   82.9868 C   0  0  0  0  0  0  0  0  0  0  0  0
    0.1349   63.5244   82.9328 C   0  0  0  0  0  0  0  0  0  0  0  0
    0.4741   64.0152   81.7213 N   0  0  0  0  0  0  0  0  0  0  0  0
    1.0180   65.2642   81.6552 N   0  0  0  0  0  0  0  0  0  0  0  0
    1.2130   65.9962   82.7820 C   0  0  0  0  0  0  0  0  0  0  0  0
    0.8574   65.4829   84.0316 C   0  0  0  0  0  0  0  0  0  0  0  0
    0.3104   64.2020   84.1186 C   0  0  0  0  0  0  0  0  0  0  0  0
    1.7943   67.3335   82.5835 C   0  0  0  0  0  0  0  0  0  0  0  0
    1.8542   67.9300   81.3145 C   0  0  0  0  0  0  0  0  0  0  0  0
    2.4055   69.2009   81.1497 C   0  0  0  0  0  0  0  0  0  0  0  0
    2.8938   69.8560   82.2651 C   0  0  0  0  0  0  0  0  0  0  0  0
    2.8686   69.3285   83.5052 N   0  0  0  0  0  0  0  0  0  0  0  0
    2.3304   68.0894   83.6287 C   0  0  0  0  0  0  0  0  0  0  0  0
    3.4255   71.1116   82.0555 O   0  0  0  0  0  0  0  0  0  0  0  0
    2.7580   72.1307   82.7924 C   0  0  0  0  0  0  0  0  0  0  0  0
   -0.6298   61.4930   81.7925 N   0  0  0  0  0  0  0  0  0  0  0  0
   -0.1768   60.5820   81.7379 H   0  0  0  0  0  0  0  0  0  0  0  0
   -1.7532   61.7028   80.8924 C   0  0  0  0  0  0  0  0  0  0  0  0
   -3.0694   61.6267   81.6666 C   0  0  0  0  0  0  0  0  0  0  0  0
   -4.2746   61.9041   80.7663 C   0  0  0  0  0  0  0  0  0  0  0  0
   -4.0230   61.5814   79.2930 C   0  0  0  0  0  0  0  0  0  0  0  0
   -3.0798   60.3881   79.1240 C   0  0  0  0  0  0  0  0  0  0  0  0
   -1.7127   60.6432   79.7796 C   0  0  0  0  0  0  0  0  0  0  0  0
   -2.9016   60.0427   77.6628 C   0  0  0  0  0  0  0  0  0  0  0  0
   -2.1563   59.2044   77.1865 O   0  0  0  0  0  0  0  0  0  0  0  0
   -3.6745   60.8023   76.8610 O   0  0  0  0  0  0  0  0  0  0  0  0
   -3.4605   60.4863   75.9577 H   0  0  0  0  0  0  0  0  0  0  0  0
    0.0739   64.2351   86.6186 C   0  0  0  0  0  0  0  0  0  0  0  0
    1.3318   63.7925   87.3682 C   0  0  0  0  0  0  0  0  0  0  0  0
    2.4665   64.4136   86.7622 O   0  0  0  0  0  0  0  0  0  0  0  0
    3.6156   64.3504   87.6062 C   0  0  0  0  0  0  0  0  0  0  0  0
    4.4145   65.5732   85.5391 C   0  0  0  0  0  0  0  0  0  0  0  0
    4.7978   65.0013   86.8967 C   0  0  0  0  0  0  0  0  0  0  0  0
 36 37  1  0  0  0
 37 35  1  0  0  0
 35 34  1  0  0  0
 34 33  1  0  0  0
 33 32  1  0  0  0
 32  1  1  0  0  0
  1  2  1  0  0  0
  2  3  2  0  0  0
  2  4  1  0  0  0
  4  5  2  0  0  0
  5 20  1  0  0  0
 20 22  1  0  0  0
 22 23  1  0  0  0
 23 24  1  0  0  0
 24 25  1  0  0  0
 25 26  1  0  0  0
 26 28  1  0  0  0
 28 29  2  0  0  0
 28 30  1  0  0  0
 26 27  1  0  0  0
  5  6  1  0  0  0
  6  7  1  0  0  0
  7  8  2  0  0  0
  8  9  1  0  0  0
  9 12  1  0  0  0
 12 13  2  0  0  0
 13 14  1  0  0  0
 14 15  2  0  0  0
 15 18  1  0  0  0
 18 19  1  0  0  0
 15 16  1  0  0  0
 16 17  2  0  0  0
  9 10  2  0  0  0
 10 11  1  0  0  0
 11  1  1  0  0  0
 27 22  1  0  0  0
 11  6  2  0  0  0
 17 12  1  0  0  0
 20 21  1  0  0  0
 30 31  1  0  0  0
M  END
> <minimizedAffinity>
-9.00711

$$$$
