
     RDKit          3D

 37 39  0  0  0  0  0  0  0  0999 V2000
    4.0306    2.8493   -0.5206 C   0  0  0  0  0  0  0  0  0  0  0  0
    3.3531    1.5767   -0.0382 C   0  0  0  0  0  0  0  0  0  0  0  0
    2.8863    0.7115   -1.2096 C   0  0  0  0  0  0  0  0  0  0  0  0
    2.2186   -0.5386   -0.7527 C   0  0  0  0  0  0  0  0  0  0  0  0
    2.9117   -1.6863   -0.6224 N   0  0  0  0  0  0  0  0  0  0  0  0
    1.9869   -2.5814   -0.1934 N   0  0  0  0  0  0  0  0  0  0  0  0
    2.3720   -3.9485    0.0611 C   0  0  0  0  0  0  0  0  0  0  0  0
    0.7481   -2.0409   -0.0500 C   0  0  0  0  0  0  0  0  0  0  0  0
   -0.4803   -2.6079    0.3682 C   0  0  0  0  0  0  0  0  0  0  0  0
   -0.6560   -3.7750    0.6976 O   0  0  0  0  0  0  0  0  0  0  0  0
   -1.4867   -1.6706    0.3633 N   0  0  0  0  0  0  0  0  0  0  0  0
   -1.3245   -0.3381   -0.0033 C   0  0  0  0  0  0  0  0  0  0  0  0
   -2.5541    0.5240    0.0626 C   0  0  0  0  0  0  0  0  0  0  0  0
   -2.4240    1.8760   -0.2984 C   0  0  0  0  0  0  0  0  0  0  0  0
   -3.5225    2.7384   -0.2620 C   0  0  0  0  0  0  0  0  0  0  0  0
   -4.7683    2.2622    0.1361 C   0  0  0  0  0  0  0  0  0  0  0  0
   -4.9197    0.9242    0.4985 C   0  0  0  0  0  0  0  0  0  0  0  0
   -3.8195    0.0603    0.4621 C   0  0  0  0  0  0  0  0  0  0  0  0
   -4.0058   -1.2500    0.8258 O   0  0  0  0  0  0  0  0  0  0  0  0
   -0.1872    0.1769   -0.3889 N   0  0  0  0  0  0  0  0  0  0  0  0
    0.8722   -0.7315   -0.4039 C   0  0  0  0  0  0  0  0  0  0  0  0
    4.3562    3.4522    0.3328 H   0  0  0  0  0  0  0  0  0  0  0  0
    4.9108    2.6188   -1.1291 H   0  0  0  0  0  0  0  0  0  0  0  0
    3.3451    3.4546   -1.1223 H   0  0  0  0  0  0  0  0  0  0  0  0
    4.0523    1.0121    0.5906 H   0  0  0  0  0  0  0  0  0  0  0  0
    2.4997    1.8427    0.5975 H   0  0  0  0  0  0  0  0  0  0  0  0
    2.1920    1.2833   -1.8381 H   0  0  0  0  0  0  0  0  0  0  0  0
    3.7435    0.4587   -1.8467 H   0  0  0  0  0  0  0  0  0  0  0  0
    3.4376   -4.0724   -0.1485 H   0  0  0  0  0  0  0  0  0  0  0  0
    1.7881   -4.5999   -0.5936 H   0  0  0  0  0  0  0  0  0  0  0  0
    2.1731   -4.1740    1.1116 H   0  0  0  0  0  0  0  0  0  0  0  0
   -2.4031   -1.9940    0.6509 H   0  0  0  0  0  0  0  0  0  0  0  0
   -1.4602    2.2726   -0.6132 H   0  0  0  0  0  0  0  0  0  0  0  0
   -3.4010    3.7814   -0.5453 H   0  0  0  0  0  0  0  0  0  0  0  0
   -5.6222    2.9351    0.1638 H   0  0  0  0  0  0  0  0  0  0  0  0
   -5.9017    0.5758    0.8058 H   0  0  0  0  0  0  0  0  0  0  0  0
   -4.9414   -1.3776    1.0674 H   0  0  0  0  0  0  0  0  0  0  0  0
  1  2  1  0
  2  3  1  0
  3  4  1  0
  4  5  2  0
  5  6  1  0
  6  7  1  0
  6  8  1  0
  8  9  1  0
  9 10  2  0
  9 11  1  0
 11 12  1  0
 12 13  1  0
 13 14  2  0
 14 15  1  0
 15 16  2  0
 16 17  1  0
 17 18  2  0
 18 19  1  0
 12 20  2  0
 20 21  1  0
 21  4  1  0
 21  8  2  0
 18 13  1  0
  1 22  1  0
  1 23  1  0
  1 24  1  0
  2 25  1  0
  2 26  1  0
  3 27  1  0
  3 28  1  0
  7 29  1  0
  7 30  1  0
  7 31  1  0
 11 32  1  0
 14 33  1  0
 15 34  1  0
 16 35  1  0
 17 36  1  0
 19 37  1  0
M  END
$$$$
