


 31 35  0  0  0  0  0  0  0  0999 V2000
   -0.9736   63.1130   85.7667 N   0  0  0  0  0  0  0  0  0  0  0  0
   -0.0577   64.0453   86.2857 C   0  0  0  0  0  0  0  0  0  0  0  0
    0.1991   64.1939   87.4763 O   0  0  0  0  0  0  0  0  0  0  0  0
    0.5933   64.8257   85.2799 C   0  0  0  0  0  0  0  0  0  0  0  0
    1.5665   65.7743   85.3843 N   0  0  0  0  0  0  0  0  0  0  0  0
    1.8695   66.1915   84.1014 C   0  0  0  0  0  0  0  0  0  0  0  0
    1.1229   65.5566   83.2089 N   0  0  0  0  0  0  0  0  0  0  0  0
    0.3415   64.7274   83.9451 C   0  0  0  0  0  0  0  0  0  0  0  0
   -0.5866   63.8817   83.5066 N   0  0  0  0  0  0  0  0  0  0  0  0
   -0.8082   63.4784   82.1534 C   0  0  0  0  0  0  0  0  0  0  0  0
   -1.9221   62.4270   82.3682 C   0  0  0  0  0  0  0  0  0  0  0  0
   -1.9694   62.1234   83.8491 N   0  0  0  0  0  0  0  0  0  0  0  0
   -1.1903   63.0279   84.3893 C   0  0  0  0  0  0  0  0  0  0  0  0
    2.0109   66.0858   86.2394 H   0  0  0  0  0  0  0  0  0  0  0  0
   -2.7958   62.9031   87.4595 C   0  0  0  0  0  0  0  0  0  0  0  0
   -1.6853   62.1985   86.6762 C   0  0  0  0  0  0  0  0  0  0  0  0
   -0.7271   61.4527   87.6078 C   0  0  0  0  0  0  0  0  0  0  0  0
    2.8977   67.2400   83.8101 C   0  0  0  0  0  0  0  0  0  0  0  0
    4.1687   67.0900   84.6159 C   0  0  0  0  0  0  0  0  0  0  0  0
    4.5930   68.1114   85.4781 C   0  0  0  0  0  0  0  0  0  0  0  0
    5.7511   67.9551   86.2412 C   0  0  0  0  0  0  0  0  0  0  0  0
    6.4936   66.7791   86.1515 C   0  0  0  0  0  0  0  0  0  0  0  0
    6.0811   65.7578   85.2980 C   0  0  0  0  0  0  0  0  0  0  0  0
    4.9241   65.9109   84.5334 C   0  0  0  0  0  0  0  0  0  0  0  0
   -1.6860   61.1236   81.5989 C   0  0  0  0  0  0  0  0  0  0  0  0
   -2.0499   61.2301   80.1375 C   0  0  0  0  0  0  0  0  0  0  0  0
   -3.2759   61.7890   79.7510 C   0  0  0  0  0  0  0  0  0  0  0  0
   -3.6069   61.9043   78.4001 C   0  0  0  0  0  0  0  0  0  0  0  0
   -2.7174   61.4613   77.4235 C   0  0  0  0  0  0  0  0  0  0  0  0
   -1.4978   60.9001   77.7967 C   0  0  0  0  0  0  0  0  0  0  0  0
   -1.1650   60.7835   79.1471 C   0  0  0  0  0  0  0  0  0  0  0  0
 15 16  1  0  0  0
 16 17  1  0  0  0
 16  1  1  0  0  0
  1  2  1  0  0  0
  2  3  2  0  0  0
  2  4  1  0  0  0
  4  5  1  0  0  0
  5  6  1  0  0  0
  6 18  1  0  0  0
 18 19  1  0  0  0
 19 20  2  0  0  0
 20 21  1  0  0  0
 21 22  2  0  0  0
 22 23  1  0  0  0
 23 24  2  0  0  0
  6  7  2  0  0  0
  7  8  1  0  0  0
  8  9  1  0  0  0
  9 10  1  0  0  0
 10 11  1  0  0  0
 11 25  1  0  0  0
 25 26  1  0  0  0
 26 27  2  0  0  0
 27 28  1  0  0  0
 28 29  2  0  0  0
 29 30  1  0  0  0
 30 31  2  0  0  0
 11 12  1  0  0  0
 12 13  2  0  0  0
 13  1  1  0  0  0
  8  4  2  0  0  0
 13  9  1  0  0  0
 24 19  1  0  0  0
 31 26  1  0  0  0
  5 14  1  0  0  0
M  END
> <minimizedAffinity>
-10.86196

$$$$



 31 35  0  0  0  0  0  0  0  0999 V2000
   -1.2721   62.8308   85.1954 N   0  0  0  0  0  0  0  0  0  0  0  0
   -2.2773   62.1003   84.5372 C   0  0  0  0  0  0  0  0  0  0  0  0
   -3.1402   61.4285   85.0938 O   0  0  0  0  0  0  0  0  0  0  0  0
   -2.2290   62.2194   83.1131 C   0  0  0  0  0  0  0  0  0  0  0  0
   -3.0528   61.7142   82.1518 N   0  0  0  0  0  0  0  0  0  0  0  0
   -2.5789   62.1605   80.9320 C   0  0  0  0  0  0  0  0  0  0  0  0
   -1.4951   62.9071   81.0902 N   0  0  0  0  0  0  0  0  0  0  0  0
   -1.2885   62.9298   82.4307 C   0  0  0  0  0  0  0  0  0  0  0  0
   -0.3134   63.5454   83.0933 N   0  0  0  0  0  0  0  0  0  0  0  0
    0.5977   64.5154   82.5720 C   0  0  0  0  0  0  0  0  0  0  0  0
    1.3580   64.8888   83.8661 C   0  0  0  0  0  0  0  0  0  0  0  0
    0.5674   64.3260   85.0261 N   0  0  0  0  0  0  0  0  0  0  0  0
   -0.3368   63.5641   84.4615 C   0  0  0  0  0  0  0  0  0  0  0  0
   -3.8794   61.1500   82.3067 H   0  0  0  0  0  0  0  0  0  0  0  0
   -0.7614   61.5129   87.2528 C   0  0  0  0  0  0  0  0  0  0  0  0
   -1.2231   62.8501   86.6676 C   0  0  0  0  0  0  0  0  0  0  0  0
   -2.5496   63.3038   87.2814 C   0  0  0  0  0  0  0  0  0  0  0  0
   -3.2258   61.8039   79.6298 C   0  0  0  0  0  0  0  0  0  0  0  0
   -2.2488   61.3667   78.5615 C   0  0  0  0  0  0  0  0  0  0  0  0
   -1.7563   60.0539   78.5375 C   0  0  0  0  0  0  0  0  0  0  0  0
   -0.8776   59.6480   77.5319 C   0  0  0  0  0  0  0  0  0  0  0  0
   -0.4847   60.5474   76.5424 C   0  0  0  0  0  0  0  0  0  0  0  0
   -0.9679   61.8544   76.5568 C   0  0  0  0  0  0  0  0  0  0  0  0
   -1.8461   62.2634   77.5607 C   0  0  0  0  0  0  0  0  0  0  0  0
    1.5237   66.3991   84.0612 C   0  0  0  0  0  0  0  0  0  0  0  0
    2.9603   66.8089   84.2794 C   0  0  0  0  0  0  0  0  0  0  0  0
    3.8639   65.9284   84.8901 C   0  0  0  0  0  0  0  0  0  0  0  0
    5.1965   66.2985   85.0772 C   0  0  0  0  0  0  0  0  0  0  0  0
    5.6381   67.5514   84.6572 C   0  0  0  0  0  0  0  0  0  0  0  0
    4.7474   68.4363   84.0527 C   0  0  0  0  0  0  0  0  0  0  0  0
    3.4142   68.0682   83.8653 C   0  0  0  0  0  0  0  0  0  0  0  0
 15 16  1  0  0  0
 16 17  1  0  0  0
 16  1  1  0  0  0
  1  2  1  0  0  0
  2  3  2  0  0  0
  2  4  1  0  0  0
  4  5  1  0  0  0
  5  6  1  0  0  0
  6 18  1  0  0  0
 18 19  1  0  0  0
 19 20  2  0  0  0
 20 21  1  0  0  0
 21 22  2  0  0  0
 22 23  1  0  0  0
 23 24  2  0  0  0
  6  7  2  0  0  0
  7  8  1  0  0  0
  8  9  1  0  0  0
  9 10  1  0  0  0
 10 11  1  0  0  0
 11 25  1  0  0  0
 25 26  1  0  0  0
 26 27  2  0  0  0
 27 28  1  0  0  0
 28 29  2  0  0  0
 29 30  1  0  0  0
 30 31  2  0  0  0
 11 12  1  0  0  0
 12 13  2  0  0  0
 13  1  1  0  0  0
  8  4  2  0  0  0
 13  9  1  0  0  0
 24 19  1  0  0  0
 31 26  1  0  0  0
  5 14  1  0  0  0
M  END
> <minimizedAffinity>
-10.36020

$$$$



 31 35  0  0  0  0  0  0  0  0999 V2000
   -0.9032   63.0927   85.7736 N   0  0  0  0  0  0  0  0  0  0  0  0
    0.0642   64.0311   86.1746 C   0  0  0  0  0  0  0  0  0  0  0  0
    0.4321   64.2144   87.3308 O   0  0  0  0  0  0  0  0  0  0  0  0
    0.6244   64.7724   85.0879 C   0  0  0  0  0  0  0  0  0  0  0  0
    1.6103   65.7134   85.0704 N   0  0  0  0  0  0  0  0  0  0  0  0
    1.7954   66.0867   83.7520 C   0  0  0  0  0  0  0  0  0  0  0  0
    0.9640   65.4318   82.9540 N   0  0  0  0  0  0  0  0  0  0  0  0
    0.2484   64.6347   83.7862 C   0  0  0  0  0  0  0  0  0  0  0  0
   -0.7230   63.7855   83.4635 N   0  0  0  0  0  0  0  0  0  0  0  0
   -1.0731   63.3420   82.1507 C   0  0  0  0  0  0  0  0  0  0  0  0
   -2.1700   62.3098   82.5021 C   0  0  0  0  0  0  0  0  0  0  0  0
   -2.0812   62.0536   83.9900 N   0  0  0  0  0  0  0  0  0  0  0  0
   -1.2482   62.9664   84.4259 C   0  0  0  0  0  0  0  0  0  0  0  0
    2.1349   66.0470   85.8699 H   0  0  0  0  0  0  0  0  0  0  0  0
   -2.5901   62.9457   87.6075 C   0  0  0  0  0  0  0  0  0  0  0  0
   -1.5339   62.2149   86.7745 C   0  0  0  0  0  0  0  0  0  0  0  0
   -0.4998   61.5198   87.6632 C   0  0  0  0  0  0  0  0  0  0  0  0
    2.7999   67.1144   83.3325 C   0  0  0  0  0  0  0  0  0  0  0  0
    2.1843   68.3994   82.8256 C   0  0  0  0  0  0  0  0  0  0  0  0
    2.6523   69.6424   83.2757 C   0  0  0  0  0  0  0  0  0  0  0  0
    2.1000   70.8253   82.7821 C   0  0  0  0  0  0  0  0  0  0  0  0
    1.0783   70.7778   81.8354 C   0  0  0  0  0  0  0  0  0  0  0  0
    0.6057   69.5481   81.3812 C   0  0  0  0  0  0  0  0  0  0  0  0
    1.1553   68.3637   81.8727 C   0  0  0  0  0  0  0  0  0  0  0  0
   -2.0168   60.9804   81.7569 C   0  0  0  0  0  0  0  0  0  0  0  0
   -2.2639   61.1071   80.2728 C   0  0  0  0  0  0  0  0  0  0  0  0
   -3.4558   61.6717   79.7982 C   0  0  0  0  0  0  0  0  0  0  0  0
   -3.6789   61.8058   78.4271 C   0  0  0  0  0  0  0  0  0  0  0  0
   -2.7145   61.3760   77.5179 C   0  0  0  0  0  0  0  0  0  0  0  0
   -1.5277   60.8095   77.9787 C   0  0  0  0  0  0  0  0  0  0  0  0
   -1.3029   60.6741   79.3496 C   0  0  0  0  0  0  0  0  0  0  0  0
 15 16  1  0  0  0
 16 17  1  0  0  0
 16  1  1  0  0  0
  1  2  1  0  0  0
  2  3  2  0  0  0
  2  4  1  0  0  0
  4  5  1  0  0  0
  5  6  1  0  0  0
  6 18  1  0  0  0
 18 19  1  0  0  0
 19 20  2  0  0  0
 20 21  1  0  0  0
 21 22  2  0  0  0
 22 23  1  0  0  0
 23 24  2  0  0  0
  6  7  2  0  0  0
  7  8  1  0  0  0
  8  9  1  0  0  0
  9 10  1  0  0  0
 10 11  1  0  0  0
 11 25  1  0  0  0
 25 26  1  0  0  0
 26 27  2  0  0  0
 27 28  1  0  0  0
 28 29  2  0  0  0
 29 30  1  0  0  0
 30 31  2  0  0  0
 11 12  1  0  0  0
 12 13  2  0  0  0
 13  1  1  0  0  0
  8  4  2  0  0  0
 13  9  1  0  0  0
 24 19  1  0  0  0
 31 26  1  0  0  0
  5 14  1  0  0  0
M  END
> <minimizedAffinity>
-10.32342

$$$$



 31 35  0  0  0  0  0  0  0  0999 V2000
    0.8190   67.7898   81.1295 N   0  0  0  0  0  0  0  0  0  0  0  0
    0.0019   66.6855   80.8293 C   0  0  0  0  0  0  0  0  0  0  0  0
   -0.6918   66.5741   79.8233 O   0  0  0  0  0  0  0  0  0  0  0  0
    0.0569   65.6509   81.8147 C   0  0  0  0  0  0  0  0  0  0  0  0
   -0.5393   64.4256   81.8493 N   0  0  0  0  0  0  0  0  0  0  0  0
   -0.1239   63.8019   83.0113 C   0  0  0  0  0  0  0  0  0  0  0  0
    0.6904   64.5858   83.7036 N   0  0  0  0  0  0  0  0  0  0  0  0
    0.7876   65.7175   82.9621 C   0  0  0  0  0  0  0  0  0  0  0  0
    1.4886   66.8135   83.2383 N   0  0  0  0  0  0  0  0  0  0  0  0
    2.4841   66.9613   84.2531 C   0  0  0  0  0  0  0  0  0  0  0  0
    2.9607   68.4013   83.9507 C   0  0  0  0  0  0  0  0  0  0  0  0
    2.4082   68.7783   82.5942 N   0  0  0  0  0  0  0  0  0  0  0  0
    1.5699   67.8130   82.3071 C   0  0  0  0  0  0  0  0  0  0  0  0
   -1.1423   64.0320   81.1372 H   0  0  0  0  0  0  0  0  0  0  0  0
    2.3570   69.2479   79.8109 C   0  0  0  0  0  0  0  0  0  0  0  0
    0.9098   68.9148   80.1827 C   0  0  0  0  0  0  0  0  0  0  0  0
    0.1599   70.1509   80.6846 C   0  0  0  0  0  0  0  0  0  0  0  0
   -0.5776   62.4301   83.4033 C   0  0  0  0  0  0  0  0  0  0  0  0
   -1.1446   62.3508   84.8031 C   0  0  0  0  0  0  0  0  0  0  0  0
   -0.3405   61.9450   85.8780 C   0  0  0  0  0  0  0  0  0  0  0  0
   -0.8614   61.9019   87.1722 C   0  0  0  0  0  0  0  0  0  0  0  0
   -2.1869   62.2645   87.4043 C   0  0  0  0  0  0  0  0  0  0  0  0
   -2.9948   62.6692   86.3435 C   0  0  0  0  0  0  0  0  0  0  0  0
   -2.4775   62.7131   85.0486 C   0  0  0  0  0  0  0  0  0  0  0  0
    4.4855   68.5458   83.9261 C   0  0  0  0  0  0  0  0  0  0  0  0
    5.1812   67.5895   84.8647 C   0  0  0  0  0  0  0  0  0  0  0  0
    5.0604   67.7444   86.2526 C   0  0  0  0  0  0  0  0  0  0  0  0
    5.6885   66.8514   87.1219 C   0  0  0  0  0  0  0  0  0  0  0  0
    6.4436   65.7968   86.6131 C   0  0  0  0  0  0  0  0  0  0  0  0
    6.5738   65.6359   85.2351 C   0  0  0  0  0  0  0  0  0  0  0  0
    5.9469   66.5282   84.3641 C   0  0  0  0  0  0  0  0  0  0  0  0
 15 16  1  0  0  0
 16 17  1  0  0  0
 16  1  1  0  0  0
  1  2  1  0  0  0
  2  3  2  0  0  0
  2  4  1  0  0  0
  4  5  1  0  0  0
  5  6  1  0  0  0
  6 18  1  0  0  0
 18 19  1  0  0  0
 19 20  2  0  0  0
 20 21  1  0  0  0
 21 22  2  0  0  0
 22 23  1  0  0  0
 23 24  2  0  0  0
  6  7  2  0  0  0
  7  8  1  0  0  0
  8  9  1  0  0  0
  9 10  1  0  0  0
 10 11  1  0  0  0
 11 25  1  0  0  0
 25 26  1  0  0  0
 26 27  2  0  0  0
 27 28  1  0  0  0
 28 29  2  0  0  0
 29 30  1  0  0  0
 30 31  2  0  0  0
 11 12  1  0  0  0
 12 13  2  0  0  0
 13  1  1  0  0  0
  8  4  2  0  0  0
 13  9  1  0  0  0
 24 19  1  0  0  0
 31 26  1  0  0  0
  5 14  1  0  0  0
M  END
> <minimizedAffinity>
-10.29146

$$$$



 31 35  0  0  0  0  0  0  0  0999 V2000
   -1.1127   62.5926   79.3466 N   0  0  0  0  0  0  0  0  0  0  0  0
   -0.5494   63.5179   78.4501 C   0  0  0  0  0  0  0  0  0  0  0  0
   -0.6392   63.4600   77.2277 O   0  0  0  0  0  0  0  0  0  0  0  0
    0.1477   64.5861   79.0963 C   0  0  0  0  0  0  0  0  0  0  0  0
    0.7663   65.6842   78.5774 N   0  0  0  0  0  0  0  0  0  0  0  0
    1.2516   66.4209   79.6420 C   0  0  0  0  0  0  0  0  0  0  0  0
    0.9743   65.8265   80.7938 N   0  0  0  0  0  0  0  0  0  0  0  0
    0.3032   64.7006   80.4444 C   0  0  0  0  0  0  0  0  0  0  0  0
   -0.1851   63.7616   81.2498 N   0  0  0  0  0  0  0  0  0  0  0  0
   -0.3256   63.8384   82.6700 C   0  0  0  0  0  0  0  0  0  0  0  0
   -1.0459   62.4964   82.9391 C   0  0  0  0  0  0  0  0  0  0  0  0
   -1.5205   61.9692   81.6035 N   0  0  0  0  0  0  0  0  0  0  0  0
   -0.9486   62.7547   80.7243 C   0  0  0  0  0  0  0  0  0  0  0  0
    0.8246   65.9324   77.5972 H   0  0  0  0  0  0  0  0  0  0  0  0
   -1.0719   60.4995   77.9875 C   0  0  0  0  0  0  0  0  0  0  0  0
   -1.9076   61.4635   78.8334 C   0  0  0  0  0  0  0  0  0  0  0  0
   -3.1555   61.9331   78.0819 C   0  0  0  0  0  0  0  0  0  0  0  0
    2.0031   67.7038   79.4663 C   0  0  0  0  0  0  0  0  0  0  0  0
    1.5660   68.8023   80.4094 C   0  0  0  0  0  0  0  0  0  0  0  0
    2.4410   69.2933   81.3891 C   0  0  0  0  0  0  0  0  0  0  0  0
    2.0420   70.3274   82.2374 C   0  0  0  0  0  0  0  0  0  0  0  0
    0.7686   70.8803   82.1141 C   0  0  0  0  0  0  0  0  0  0  0  0
   -0.1089   70.3999   81.1441 C   0  0  0  0  0  0  0  0  0  0  0  0
    0.2866   69.3662   80.2948 C   0  0  0  0  0  0  0  0  0  0  0  0
   -2.2481   62.6281   83.8793 C   0  0  0  0  0  0  0  0  0  0  0  0
   -1.8471   62.7960   85.3252 C   0  0  0  0  0  0  0  0  0  0  0  0
   -0.5021   62.9868   85.6705 C   0  0  0  0  0  0  0  0  0  0  0  0
   -0.1313   63.1595   87.0048 C   0  0  0  0  0  0  0  0  0  0  0  0
   -1.1000   63.1418   88.0061 C   0  0  0  0  0  0  0  0  0  0  0  0
   -2.4396   62.9485   87.6745 C   0  0  0  0  0  0  0  0  0  0  0  0
   -2.8124   62.7752   86.3407 C   0  0  0  0  0  0  0  0  0  0  0  0
 15 16  1  0  0  0
 16 17  1  0  0  0
 16  1  1  0  0  0
  1  2  1  0  0  0
  2  3  2  0  0  0
  2  4  1  0  0  0
  4  5  1  0  0  0
  5  6  1  0  0  0
  6 18  1  0  0  0
 18 19  1  0  0  0
 19 20  2  0  0  0
 20 21  1  0  0  0
 21 22  2  0  0  0
 22 23  1  0  0  0
 23 24  2  0  0  0
  6  7  2  0  0  0
  7  8  1  0  0  0
  8  9  1  0  0  0
  9 10  1  0  0  0
 10 11  1  0  0  0
 11 25  1  0  0  0
 25 26  1  0  0  0
 26 27  2  0  0  0
 27 28  1  0  0  0
 28 29  2  0  0  0
 29 30  1  0  0  0
 30 31  2  0  0  0
 11 12  1  0  0  0
 12 13  2  0  0  0
 13  1  1  0  0  0
  8  4  2  0  0  0
 13  9  1  0  0  0
 24 19  1  0  0  0
 31 26  1  0  0  0
  5 14  1  0  0  0
M  END
> <minimizedAffinity>
-10.10043

$$$$



 31 35  0  0  0  0  0  0  0  0999 V2000
   -0.3146   64.2453   82.7108 N   0  0  0  0  0  0  0  0  0  0  0  0
    0.2410   64.5876   83.9564 C   0  0  0  0  0  0  0  0  0  0  0  0
   -0.0351   64.0489   85.0238 O   0  0  0  0  0  0  0  0  0  0  0  0
    1.2059   65.6401   83.8805 C   0  0  0  0  0  0  0  0  0  0  0  0
    1.9865   66.1998   84.8476 N   0  0  0  0  0  0  0  0  0  0  0  0
    2.7743   67.1560   84.2338 C   0  0  0  0  0  0  0  0  0  0  0  0
    2.5110   67.2241   82.9366 N   0  0  0  0  0  0  0  0  0  0  0  0
    1.5441   66.2943   82.7349 C   0  0  0  0  0  0  0  0  0  0  0  0
    0.9384   65.9851   81.5920 N   0  0  0  0  0  0  0  0  0  0  0  0
    1.3299   66.3883   80.2778 C   0  0  0  0  0  0  0  0  0  0  0  0
    0.2941   65.6036   79.4391 C   0  0  0  0  0  0  0  0  0  0  0  0
   -0.3521   64.5929   80.3601 N   0  0  0  0  0  0  0  0  0  0  0  0
    0.0724   64.9262   81.5541 C   0  0  0  0  0  0  0  0  0  0  0  0
    2.0113   65.9362   85.8251 H   0  0  0  0  0  0  0  0  0  0  0  0
   -0.7400   61.9493   81.8289 C   0  0  0  0  0  0  0  0  0  0  0  0
   -1.2860   63.1417   82.6185 C   0  0  0  0  0  0  0  0  0  0  0  0
   -2.6362   63.6083   82.0693 C   0  0  0  0  0  0  0  0  0  0  0  0
    3.7649   67.9936   84.9812 C   0  0  0  0  0  0  0  0  0  0  0  0
    5.0910   67.3062   85.2183 C   0  0  0  0  0  0  0  0  0  0  0  0
    5.2941   66.5199   86.3615 C   0  0  0  0  0  0  0  0  0  0  0  0
    6.5101   65.8642   86.5602 C   0  0  0  0  0  0  0  0  0  0  0  0
    7.5316   65.9863   85.6200 C   0  0  0  0  0  0  0  0  0  0  0  0
    7.3404   66.7651   84.4803 C   0  0  0  0  0  0  0  0  0  0  0  0
    6.1264   67.4222   84.2789 C   0  0  0  0  0  0  0  0  0  0  0  0
    0.9091   64.8683   78.2443 C   0  0  0  0  0  0  0  0  0  0  0  0
   -0.0342   63.8669   77.6222 C   0  0  0  0  0  0  0  0  0  0  0  0
    0.2353   62.4937   77.7031 C   0  0  0  0  0  0  0  0  0  0  0  0
   -0.6441   61.5655   77.1439 C   0  0  0  0  0  0  0  0  0  0  0  0
   -1.7994   62.0003   76.4978 C   0  0  0  0  0  0  0  0  0  0  0  0
   -2.0750   63.3632   76.4078 C   0  0  0  0  0  0  0  0  0  0  0  0
   -1.1965   64.2932   76.9660 C   0  0  0  0  0  0  0  0  0  0  0  0
 15 16  1  0  0  0
 16 17  1  0  0  0
 16  1  1  0  0  0
  1  2  1  0  0  0
  2  3  2  0  0  0
  2  4  1  0  0  0
  4  5  1  0  0  0
  5  6  1  0  0  0
  6 18  1  0  0  0
 18 19  1  0  0  0
 19 20  2  0  0  0
 20 21  1  0  0  0
 21 22  2  0  0  0
 22 23  1  0  0  0
 23 24  2  0  0  0
  6  7  2  0  0  0
  7  8  1  0  0  0
  8  9  1  0  0  0
  9 10  1  0  0  0
 10 11  1  0  0  0
 11 25  1  0  0  0
 25 26  1  0  0  0
 26 27  2  0  0  0
 27 28  1  0  0  0
 28 29  2  0  0  0
 29 30  1  0  0  0
 30 31  2  0  0  0
 11 12  1  0  0  0
 12 13  2  0  0  0
 13  1  1  0  0  0
  8  4  2  0  0  0
 13  9  1  0  0  0
 24 19  1  0  0  0
 31 26  1  0  0  0
  5 14  1  0  0  0
M  END
> <minimizedAffinity>
-10.06885

$$$$



 31 35  0  0  0  0  0  0  0  0999 V2000
   -0.7572   62.9444   79.2476 N   0  0  0  0  0  0  0  0  0  0  0  0
   -0.6082   64.1214   78.4928 C   0  0  0  0  0  0  0  0  0  0  0  0
   -0.6652   64.1863   77.2688 O   0  0  0  0  0  0  0  0  0  0  0  0
   -0.3963   65.2881   79.2917 C   0  0  0  0  0  0  0  0  0  0  0  0
   -0.2661   66.5970   78.9341 N   0  0  0  0  0  0  0  0  0  0  0  0
   -0.1170   67.3259   80.0995 C   0  0  0  0  0  0  0  0  0  0  0  0
   -0.1362   66.5311   81.1601 N   0  0  0  0  0  0  0  0  0  0  0  0
   -0.3018   65.2850   80.6504 C   0  0  0  0  0  0  0  0  0  0  0  0
   -0.3764   64.1366   81.3170 N   0  0  0  0  0  0  0  0  0  0  0  0
   -0.5386   63.9731   82.7276 C   0  0  0  0  0  0  0  0  0  0  0  0
   -0.6642   62.4334   82.8043 C   0  0  0  0  0  0  0  0  0  0  0  0
   -0.8867   61.9332   81.3944 N   0  0  0  0  0  0  0  0  0  0  0  0
   -0.6740   62.9842   80.6414 C   0  0  0  0  0  0  0  0  0  0  0  0
   -0.3099   66.9686   77.9931 H   0  0  0  0  0  0  0  0  0  0  0  0
   -0.0501   61.3860   77.4305 C   0  0  0  0  0  0  0  0  0  0  0  0
   -1.0348   61.6669   78.5685 C   0  0  0  0  0  0  0  0  0  0  0  0
   -2.4860   61.5723   78.0917 C   0  0  0  0  0  0  0  0  0  0  0  0
    0.0607   68.8124   80.1104 C   0  0  0  0  0  0  0  0  0  0  0  0
    1.3250   69.2717   80.8014 C   0  0  0  0  0  0  0  0  0  0  0  0
    1.4033   69.3033   82.2013 C   0  0  0  0  0  0  0  0  0  0  0  0
    2.5827   69.7001   82.8334 C   0  0  0  0  0  0  0  0  0  0  0  0
    3.6929   70.0668   82.0747 C   0  0  0  0  0  0  0  0  0  0  0  0
    3.6260   70.0391   80.6831 C   0  0  0  0  0  0  0  0  0  0  0  0
    2.4486   69.6433   80.0480 C   0  0  0  0  0  0  0  0  0  0  0  0
   -1.8208   61.9600   83.6900 C   0  0  0  0  0  0  0  0  0  0  0  0
   -1.6825   62.4073   85.1254 C   0  0  0  0  0  0  0  0  0  0  0  0
   -0.4144   62.6314   85.6792 C   0  0  0  0  0  0  0  0  0  0  0  0
   -0.2849   63.0616   87.0004 C   0  0  0  0  0  0  0  0  0  0  0  0
   -1.4201   63.2706   87.7807 C   0  0  0  0  0  0  0  0  0  0  0  0
   -2.6855   63.0468   87.2416 C   0  0  0  0  0  0  0  0  0  0  0  0
   -2.8171   62.6161   85.9205 C   0  0  0  0  0  0  0  0  0  0  0  0
 15 16  1  0  0  0
 16 17  1  0  0  0
 16  1  1  0  0  0
  1  2  1  0  0  0
  2  3  2  0  0  0
  2  4  1  0  0  0
  4  5  1  0  0  0
  5  6  1  0  0  0
  6 18  1  0  0  0
 18 19  1  0  0  0
 19 20  2  0  0  0
 20 21  1  0  0  0
 21 22  2  0  0  0
 22 23  1  0  0  0
 23 24  2  0  0  0
  6  7  2  0  0  0
  7  8  1  0  0  0
  8  9  1  0  0  0
  9 10  1  0  0  0
 10 11  1  0  0  0
 11 25  1  0  0  0
 25 26  1  0  0  0
 26 27  2  0  0  0
 27 28  1  0  0  0
 28 29  2  0  0  0
 29 30  1  0  0  0
 30 31  2  0  0  0
 11 12  1  0  0  0
 12 13  2  0  0  0
 13  1  1  0  0  0
  8  4  2  0  0  0
 13  9  1  0  0  0
 24 19  1  0  0  0
 31 26  1  0  0  0
  5 14  1  0  0  0
M  END
> <minimizedAffinity>
-10.05754

$$$$



 31 35  0  0  0  0  0  0  0  0999 V2000
    1.4166   67.5012   81.8282 N   0  0  0  0  0  0  0  0  0  0  0  0
    1.4455   67.4022   80.4258 C   0  0  0  0  0  0  0  0  0  0  0  0
    1.8048   68.2937   79.6631 O   0  0  0  0  0  0  0  0  0  0  0  0
    1.0265   66.1260   79.9356 C   0  0  0  0  0  0  0  0  0  0  0  0
    0.9731   65.6376   78.6642 N   0  0  0  0  0  0  0  0  0  0  0  0
    0.5291   64.3308   78.7470 C   0  0  0  0  0  0  0  0  0  0  0  0
    0.2935   63.9903   80.0061 N   0  0  0  0  0  0  0  0  0  0  0  0
    0.5965   65.1013   80.7230 C   0  0  0  0  0  0  0  0  0  0  0  0
    0.5172   65.2663   82.0403 N   0  0  0  0  0  0  0  0  0  0  0  0
    0.3248   64.2456   83.0221 C   0  0  0  0  0  0  0  0  0  0  0  0
    0.4468   65.0906   84.3118 C   0  0  0  0  0  0  0  0  0  0  0  0
    1.0198   66.4324   83.9135 N   0  0  0  0  0  0  0  0  0  0  0  0
    0.9882   66.4212   82.6036 C   0  0  0  0  0  0  0  0  0  0  0  0
    1.2452   66.1288   77.8214 H   0  0  0  0  0  0  0  0  0  0  0  0
    1.0263   69.9526   82.0908 C   0  0  0  0  0  0  0  0  0  0  0  0
    1.8707   68.7385   82.4864 C   0  0  0  0  0  0  0  0  0  0  0  0
    3.3628   68.9949   82.2624 C   0  0  0  0  0  0  0  0  0  0  0  0
    0.3356   63.4613   77.5437 C   0  0  0  0  0  0  0  0  0  0  0  0
   -0.8223   62.4963   77.6669 C   0  0  0  0  0  0  0  0  0  0  0  0
   -0.6038   61.1613   78.0367 C   0  0  0  0  0  0  0  0  0  0  0  0
   -1.6793   60.2829   78.1774 C   0  0  0  0  0  0  0  0  0  0  0  0
   -2.9802   60.7292   77.9519 C   0  0  0  0  0  0  0  0  0  0  0  0
   -3.2086   62.0537   77.5841 C   0  0  0  0  0  0  0  0  0  0  0  0
   -2.1359   62.9343   77.4422 C   0  0  0  0  0  0  0  0  0  0  0  0
    1.3521   64.4564   85.3723 C   0  0  0  0  0  0  0  0  0  0  0  0
    0.5864   63.9480   86.5701 C   0  0  0  0  0  0  0  0  0  0  0  0
   -0.7893   63.6956   86.4773 C   0  0  0  0  0  0  0  0  0  0  0  0
   -1.4957   63.2092   87.5783 C   0  0  0  0  0  0  0  0  0  0  0  0
   -0.8350   62.9718   88.7818 C   0  0  0  0  0  0  0  0  0  0  0  0
    0.5316   63.2232   88.8863 C   0  0  0  0  0  0  0  0  0  0  0  0
    1.2398   63.7101   87.7866 C   0  0  0  0  0  0  0  0  0  0  0  0
 15 16  1  0  0  0
 16 17  1  0  0  0
 16  1  1  0  0  0
  1  2  1  0  0  0
  2  3  2  0  0  0
  2  4  1  0  0  0
  4  5  1  0  0  0
  5  6  1  0  0  0
  6 18  1  0  0  0
 18 19  1  0  0  0
 19 20  2  0  0  0
 20 21  1  0  0  0
 21 22  2  0  0  0
 22 23  1  0  0  0
 23 24  2  0  0  0
  6  7  2  0  0  0
  7  8  1  0  0  0
  8  9  1  0  0  0
  9 10  1  0  0  0
 10 11  1  0  0  0
 11 25  1  0  0  0
 25 26  1  0  0  0
 26 27  2  0  0  0
 27 28  1  0  0  0
 28 29  2  0  0  0
 29 30  1  0  0  0
 30 31  2  0  0  0
 11 12  1  0  0  0
 12 13  2  0  0  0
 13  1  1  0  0  0
  8  4  2  0  0  0
 13  9  1  0  0  0
 24 19  1  0  0  0
 31 26  1  0  0  0
  5 14  1  0  0  0
M  END
> <minimizedAffinity>
-10.01225

$$$$



 31 35  0  0  0  0  0  0  0  0999 V2000
   -0.3250   63.4932   79.3871 N   0  0  0  0  0  0  0  0  0  0  0  0
    0.2529   64.5630   78.6808 C   0  0  0  0  0  0  0  0  0  0  0  0
    0.2934   64.6610   77.4584 O   0  0  0  0  0  0  0  0  0  0  0  0
    0.7944   65.5794   79.5282 C   0  0  0  0  0  0  0  0  0  0  0  0
    1.3749   66.7740   79.2218 N   0  0  0  0  0  0  0  0  0  0  0  0
    1.6895   67.3937   80.4171 C   0  0  0  0  0  0  0  0  0  0  0  0
    1.3433   66.6360   81.4481 N   0  0  0  0  0  0  0  0  0  0  0  0
    0.8017   65.5251   80.8890 C   0  0  0  0  0  0  0  0  0  0  0  0
    0.3086   64.4586   81.5121 N   0  0  0  0  0  0  0  0  0  0  0  0
    0.0179   64.3383   82.9063 C   0  0  0  0  0  0  0  0  0  0  0  0
   -0.6188   62.9289   82.9248 C   0  0  0  0  0  0  0  0  0  0  0  0
   -0.9115   62.5528   81.4895 N   0  0  0  0  0  0  0  0  0  0  0  0
   -0.3160   63.4825   80.7840 C   0  0  0  0  0  0  0  0  0  0  0  0
    1.5136   67.1524   78.2927 H   0  0  0  0  0  0  0  0  0  0  0  0
    0.0006   61.6592   77.7256 C   0  0  0  0  0  0  0  0  0  0  0  0
   -0.9724   62.3927   78.6523 C   0  0  0  0  0  0  0  0  0  0  0  0
   -2.2209   62.8593   77.9002 C   0  0  0  0  0  0  0  0  0  0  0  0
    2.3523   68.7343   80.4868 C   0  0  0  0  0  0  0  0  0  0  0  0
    1.4303   69.8498   80.9260 C   0  0  0  0  0  0  0  0  0  0  0  0
    0.0981   69.8894   80.4897 C   0  0  0  0  0  0  0  0  0  0  0  0
   -0.7561   70.9051   80.9219 C   0  0  0  0  0  0  0  0  0  0  0  0
   -0.2890   71.8874   81.7932 C   0  0  0  0  0  0  0  0  0  0  0  0
    1.0329   71.8576   82.2330 C   0  0  0  0  0  0  0  0  0  0  0  0
    1.8896   70.8440   81.8027 C   0  0  0  0  0  0  0  0  0  0  0  0
   -1.9175   62.8577   83.7341 C   0  0  0  0  0  0  0  0  0  0  0  0
   -1.6847   62.9192   85.2246 C   0  0  0  0  0  0  0  0  0  0  0  0
   -2.7577   62.7821   86.1161 C   0  0  0  0  0  0  0  0  0  0  0  0
   -2.5424   62.8212   87.4944 C   0  0  0  0  0  0  0  0  0  0  0  0
   -1.2542   62.9989   87.9946 C   0  0  0  0  0  0  0  0  0  0  0  0
   -0.1808   63.1405   87.1174 C   0  0  0  0  0  0  0  0  0  0  0  0
   -0.3941   63.1022   85.7386 C   0  0  0  0  0  0  0  0  0  0  0  0
 15 16  1  0  0  0
 16 17  1  0  0  0
 16  1  1  0  0  0
  1  2  1  0  0  0
  2  3  2  0  0  0
  2  4  1  0  0  0
  4  5  1  0  0  0
  5  6  1  0  0  0
  6 18  1  0  0  0
 18 19  1  0  0  0
 19 20  2  0  0  0
 20 21  1  0  0  0
 21 22  2  0  0  0
 22 23  1  0  0  0
 23 24  2  0  0  0
  6  7  2  0  0  0
  7  8  1  0  0  0
  8  9  1  0  0  0
  9 10  1  0  0  0
 10 11  1  0  0  0
 11 25  1  0  0  0
 25 26  1  0  0  0
 26 27  2  0  0  0
 27 28  1  0  0  0
 28 29  2  0  0  0
 29 30  1  0  0  0
 30 31  2  0  0  0
 11 12  1  0  0  0
 12 13  2  0  0  0
 13  1  1  0  0  0
  8  4  2  0  0  0
 13  9  1  0  0  0
 24 19  1  0  0  0
 31 26  1  0  0  0
  5 14  1  0  0  0
M  END
> <minimizedAffinity>
-9.90098

$$$$
