


 33 35  0  0  0  0  0  0  0  0999 V2000
    0.0222   62.1618   80.7560 C   0  0  0  0  0  0  0  0  0  0  0  0
   -0.2147   61.6037   82.0123 C   0  0  0  0  0  0  0  0  0  0  0  0
   -0.1084   62.3683   83.1884 C   0  0  0  0  0  0  0  0  0  0  0  0
   -0.3817   61.7618   84.4179 C   0  0  0  0  0  0  0  0  0  0  0  0
   -0.3092   62.4637   85.6283 C   0  0  0  0  0  0  0  0  0  0  0  0
    0.0549   63.8308   85.6172 C   0  0  0  0  0  0  0  0  0  0  0  0
    0.3430   64.4699   84.3713 C   0  0  0  0  0  0  0  0  0  0  0  0
    0.2520   63.7325   83.1374 C   0  0  0  0  0  0  0  0  0  0  0  0
    0.4770   64.2759   81.8431 C   0  0  0  0  0  0  0  0  0  0  0  0
    0.3691   63.5152   80.6692 C   0  0  0  0  0  0  0  0  0  0  0  0
   -0.6729   61.7204   86.8963 C   0  0  0  0  0  0  0  0  0  0  0  0
   -2.0605   61.4277   86.9232 O   0  0  0  0  0  0  0  0  0  0  0  0
   -2.5266   62.2829   86.8104 H   0  0  0  0  0  0  0  0  0  0  0  0
    0.0621   64.5865   86.9301 C   0  0  0  0  0  0  0  0  0  0  0  0
    1.2553   64.2575   87.6334 O   0  0  0  0  0  0  0  0  0  0  0  0
    1.1730   63.3167   87.8822 H   0  0  0  0  0  0  0  0  0  0  0  0
   -1.3264   60.9331   79.2103 C   0  0  0  0  0  0  0  0  0  0  0  0
   -0.0656   61.4796   79.5689 O   0  0  0  0  0  0  0  0  0  0  0  0
    0.5746   64.0040   79.4027 O   0  0  0  0  0  0  0  0  0  0  0  0
   -0.1191   65.1819   79.0188 C   0  0  0  0  0  0  0  0  0  0  0  0
    0.7042   65.9556   84.3519 C   0  0  0  0  0  0  0  0  0  0  0  0
    2.1916   66.2473   84.3961 C   0  0  0  0  0  0  0  0  0  0  0  0
    3.0994   65.3682   85.0116 C   0  0  0  0  0  0  0  0  0  0  0  0
    4.4667   65.6619   85.0639 C   0  0  0  0  0  0  0  0  0  0  0  0
    4.9292   66.8712   84.5161 C   0  0  0  0  0  0  0  0  0  0  0  0
    4.0422   67.7431   83.8729 C   0  0  0  0  0  0  0  0  0  0  0  0
    2.6784   67.4429   83.8490 C   0  0  0  0  0  0  0  0  0  0  0  0
    5.4131   64.8545   85.6419 O   0  0  0  0  0  0  0  0  0  0  0  0
    5.4251   64.7748   87.0618 C   0  0  0  0  0  0  0  0  0  0  0  0
    6.2682   67.1741   84.5896 O   0  0  0  0  0  0  0  0  0  0  0  0
    6.5202   67.9645   85.7523 C   0  0  0  0  0  0  0  0  0  0  0  0
    4.3776   68.9373   83.2902 O   0  0  0  0  0  0  0  0  0  0  0  0
    3.2626   69.7020   82.8354 C   0  0  0  0  0  0  0  0  0  0  0  0
 17 18  1  0  0  0
 18  1  1  0  0  0
  1  2  1  0  0  0
  2  3  2  0  0  0
  3  4  1  0  0  0
  4  5  2  0  0  0
  5 11  1  0  0  0
 11 12  1  0  0  0
  5  6  1  0  0  0
  6 14  1  0  0  0
 14 15  1  0  0  0
  6  7  2  0  0  0
  7 21  1  0  0  0
 21 22  1  0  0  0
 22 23  1  0  0  0
 23 24  2  0  0  0
 24 28  1  0  0  0
 28 29  1  0  0  0
 24 25  1  0  0  0
 25 30  1  0  0  0
 30 31  1  0  0  0
 25 26  2  0  0  0
 26 32  1  0  0  0
 32 33  1  0  0  0
 26 27  1  0  0  0
  7  8  1  0  0  0
  8  9  2  0  0  0
  9 10  1  0  0  0
 10 19  1  0  0  0
 19 20  1  0  0  0
 10  1  2  0  0  0
  8  3  1  0  0  0
 27 22  2  0  0  0
 12 13  1  0  0  0
 15 16  1  0  0  0
M  END
> <minimizedAffinity>
-9.02210

$$$$



 33 35  0  0  0  0  0  0  0  0999 V2000
    1.9128   66.2097   83.5259 C   0  0  0  0  0  0  0  0  0  0  0  0
    1.9478   65.7658   84.8479 C   0  0  0  0  0  0  0  0  0  0  0  0
    1.0146   64.8325   85.3351 C   0  0  0  0  0  0  0  0  0  0  0  0
    1.1135   64.4050   86.6623 C   0  0  0  0  0  0  0  0  0  0  0  0
    0.2283   63.4686   87.2123 C   0  0  0  0  0  0  0  0  0  0  0  0
   -0.8054   62.9345   86.4074 C   0  0  0  0  0  0  0  0  0  0  0  0
   -0.9277   63.3611   85.0484 C   0  0  0  0  0  0  0  0  0  0  0  0
   -0.0002   64.3169   84.4998 C   0  0  0  0  0  0  0  0  0  0  0  0
   -0.0044   64.7797   83.1556 C   0  0  0  0  0  0  0  0  0  0  0  0
    0.9270   65.7086   82.6678 C   0  0  0  0  0  0  0  0  0  0  0  0
    0.4574   63.0406   88.6465 C   0  0  0  0  0  0  0  0  0  0  0  0
   -0.3892   63.7642   89.5249 O   0  0  0  0  0  0  0  0  0  0  0  0
   -0.2168   64.7145   89.3562 H   0  0  0  0  0  0  0  0  0  0  0  0
   -1.7093   61.8746   87.0027 C   0  0  0  0  0  0  0  0  0  0  0  0
   -2.7456   62.5233   87.7320 O   0  0  0  0  0  0  0  0  0  0  0  0
   -2.3134   62.9481   88.4979 H   0  0  0  0  0  0  0  0  0  0  0  0
    3.0081   68.3295   83.6820 C   0  0  0  0  0  0  0  0  0  0  0  0
    2.7900   67.1134   82.9819 O   0  0  0  0  0  0  0  0  0  0  0  0
    0.9579   66.1761   81.3772 O   0  0  0  0  0  0  0  0  0  0  0  0
    0.3336   65.3971   80.3675 C   0  0  0  0  0  0  0  0  0  0  0  0
   -2.0228   62.7614   84.1656 C   0  0  0  0  0  0  0  0  0  0  0  0
   -1.5525   62.2918   82.8027 C   0  0  0  0  0  0  0  0  0  0  0  0
   -0.2516   61.8002   82.5984 C   0  0  0  0  0  0  0  0  0  0  0  0
    0.1750   61.3912   81.3299 C   0  0  0  0  0  0  0  0  0  0  0  0
   -0.7070   61.5039   80.2409 C   0  0  0  0  0  0  0  0  0  0  0  0
   -2.0157   61.9632   80.4334 C   0  0  0  0  0  0  0  0  0  0  0  0
   -2.4167   62.3864   81.7026 C   0  0  0  0  0  0  0  0  0  0  0  0
    1.4244   60.8978   81.0522 O   0  0  0  0  0  0  0  0  0  0  0  0
    2.2474   60.5434   82.1566 C   0  0  0  0  0  0  0  0  0  0  0  0
   -0.2814   61.1275   78.9890 O   0  0  0  0  0  0  0  0  0  0  0  0
    0.1732   62.2746   78.2696 C   0  0  0  0  0  0  0  0  0  0  0  0
   -2.9660   62.1005   79.4555 O   0  0  0  0  0  0  0  0  0  0  0  0
   -4.2149   61.4824   79.7601 C   0  0  0  0  0  0  0  0  0  0  0  0
 17 18  1  0  0  0
 18  1  1  0  0  0
  1  2  1  0  0  0
  2  3  2  0  0  0
  3  4  1  0  0  0
  4  5  2  0  0  0
  5 11  1  0  0  0
 11 12  1  0  0  0
  5  6  1  0  0  0
  6 14  1  0  0  0
 14 15  1  0  0  0
  6  7  2  0  0  0
  7 21  1  0  0  0
 21 22  1  0  0  0
 22 23  1  0  0  0
 23 24  2  0  0  0
 24 28  1  0  0  0
 28 29  1  0  0  0
 24 25  1  0  0  0
 25 30  1  0  0  0
 30 31  1  0  0  0
 25 26  2  0  0  0
 26 32  1  0  0  0
 32 33  1  0  0  0
 26 27  1  0  0  0
  7  8  1  0  0  0
  8  9  2  0  0  0
  9 10  1  0  0  0
 10 19  1  0  0  0
 19 20  1  0  0  0
 10  1  2  0  0  0
  8  3  1  0  0  0
 27 22  2  0  0  0
 12 13  1  0  0  0
 15 16  1  0  0  0
M  END
> <minimizedAffinity>
-8.89223

$$$$



 33 35  0  0  0  0  0  0  0  0999 V2000
    0.1009   62.2555   80.6882 C   0  0  0  0  0  0  0  0  0  0  0  0
   -0.1106   61.6617   81.9325 C   0  0  0  0  0  0  0  0  0  0  0  0
   -0.0275   62.4035   83.1250 C   0  0  0  0  0  0  0  0  0  0  0  0
   -0.2737   61.7607   84.3416 C   0  0  0  0  0  0  0  0  0  0  0  0
   -0.2220   62.4379   85.5670 C   0  0  0  0  0  0  0  0  0  0  0  0
    0.0923   63.8173   85.5850 C   0  0  0  0  0  0  0  0  0  0  0  0
    0.3520   64.4937   84.3526 C   0  0  0  0  0  0  0  0  0  0  0  0
    0.2830   63.7807   83.1030 C   0  0  0  0  0  0  0  0  0  0  0  0
    0.4830   64.3603   81.8203 C   0  0  0  0  0  0  0  0  0  0  0  0
    0.3982   63.6222   80.6303 C   0  0  0  0  0  0  0  0  0  0  0  0
   -0.5534   61.6541   86.8194 C   0  0  0  0  0  0  0  0  0  0  0  0
   -1.9570   61.5030   86.9572 O   0  0  0  0  0  0  0  0  0  0  0  0
   -2.3368   62.4067   86.9358 H   0  0  0  0  0  0  0  0  0  0  0  0
    0.0773   64.5437   86.9143 C   0  0  0  0  0  0  0  0  0  0  0  0
    1.2962   64.2645   87.5947 O   0  0  0  0  0  0  0  0  0  0  0  0
    1.2681   63.3155   87.8234 H   0  0  0  0  0  0  0  0  0  0  0  0
   -1.2055   61.0038   79.1248 C   0  0  0  0  0  0  0  0  0  0  0  0
    0.0332   61.5968   79.4866 O   0  0  0  0  0  0  0  0  0  0  0  0
    0.5808   64.1459   79.3742 O   0  0  0  0  0  0  0  0  0  0  0  0
    0.0881   65.4520   79.1151 C   0  0  0  0  0  0  0  0  0  0  0  0
    0.6591   65.9916   84.3650 C   0  0  0  0  0  0  0  0  0  0  0  0
    2.1355   66.3361   84.3955 C   0  0  0  0  0  0  0  0  0  0  0  0
    2.6342   67.5061   83.7969 C   0  0  0  0  0  0  0  0  0  0  0  0
    4.0024   67.7994   83.8141 C   0  0  0  0  0  0  0  0  0  0  0  0
    4.8906   66.8906   84.4155 C   0  0  0  0  0  0  0  0  0  0  0  0
    4.4065   65.7359   85.0424 C   0  0  0  0  0  0  0  0  0  0  0  0
    3.0401   65.4497   84.9969 C   0  0  0  0  0  0  0  0  0  0  0  0
    4.5637   68.9201   83.2567 O   0  0  0  0  0  0  0  0  0  0  0  0
    3.7207   69.7489   82.4661 C   0  0  0  0  0  0  0  0  0  0  0  0
    6.2379   67.1638   84.4104 O   0  0  0  0  0  0  0  0  0  0  0  0
    6.6138   67.7573   85.6541 C   0  0  0  0  0  0  0  0  0  0  0  0
    5.1708   64.7890   85.6726 O   0  0  0  0  0  0  0  0  0  0  0  0
    5.0232   64.7646   87.0911 C   0  0  0  0  0  0  0  0  0  0  0  0
 17 18  1  0  0  0
 18  1  1  0  0  0
  1  2  1  0  0  0
  2  3  2  0  0  0
  3  4  1  0  0  0
  4  5  2  0  0  0
  5 11  1  0  0  0
 11 12  1  0  0  0
  5  6  1  0  0  0
  6 14  1  0  0  0
 14 15  1  0  0  0
  6  7  2  0  0  0
  7 21  1  0  0  0
 21 22  1  0  0  0
 22 23  1  0  0  0
 23 24  2  0  0  0
 24 28  1  0  0  0
 28 29  1  0  0  0
 24 25  1  0  0  0
 25 30  1  0  0  0
 30 31  1  0  0  0
 25 26  2  0  0  0
 26 32  1  0  0  0
 32 33  1  0  0  0
 26 27  1  0  0  0
  7  8  1  0  0  0
  8  9  2  0  0  0
  9 10  1  0  0  0
 10 19  1  0  0  0
 19 20  1  0  0  0
 10  1  2  0  0  0
  8  3  1  0  0  0
 27 22  2  0  0  0
 12 13  1  0  0  0
 15 16  1  0  0  0
M  END
> <minimizedAffinity>
-8.79372

$$$$



 33 35  0  0  0  0  0  0  0  0999 V2000
   -2.1062   60.8733   81.8223 C   0  0  0  0  0  0  0  0  0  0  0  0
   -2.5929   61.1638   83.0969 C   0  0  0  0  0  0  0  0  0  0  0  0
   -1.8630   61.9591   83.9991 C   0  0  0  0  0  0  0  0  0  0  0  0
   -2.4118   62.2378   85.2542 C   0  0  0  0  0  0  0  0  0  0  0  0
   -1.7488   63.0327   86.1984 C   0  0  0  0  0  0  0  0  0  0  0  0
   -0.4801   63.5733   85.8824 C   0  0  0  0  0  0  0  0  0  0  0  0
    0.1018   63.2974   84.6060 C   0  0  0  0  0  0  0  0  0  0  0  0
   -0.6017   62.4864   83.6458 C   0  0  0  0  0  0  0  0  0  0  0  0
   -0.1366   62.1823   82.3373 C   0  0  0  0  0  0  0  0  0  0  0  0
   -0.8645   61.3912   81.4358 C   0  0  0  0  0  0  0  0  0  0  0  0
   -2.4571   63.3096   87.5076 C   0  0  0  0  0  0  0  0  0  0  0  0
   -3.1859   62.1692   87.9322 O   0  0  0  0  0  0  0  0  0  0  0  0
   -3.7848   61.9318   87.1931 H   0  0  0  0  0  0  0  0  0  0  0  0
    0.1882   64.4839   86.8918 C   0  0  0  0  0  0  0  0  0  0  0  0
    0.9921   63.6872   87.7552 O   0  0  0  0  0  0  0  0  0  0  0  0
    0.3721   63.1416   88.2765 H   0  0  0  0  0  0  0  0  0  0  0  0
   -3.7983   60.7256   80.1393 C   0  0  0  0  0  0  0  0  0  0  0  0
   -2.7628   60.1095   80.8908 O   0  0  0  0  0  0  0  0  0  0  0  0
   -0.4513   61.0789   80.1642 O   0  0  0  0  0  0  0  0  0  0  0  0
    0.2860   62.0534   79.4413 C   0  0  0  0  0  0  0  0  0  0  0  0
    1.4576   63.9072   84.2480 C   0  0  0  0  0  0  0  0  0  0  0  0
    1.3862   65.2778   83.6033 C   0  0  0  0  0  0  0  0  0  0  0  0
    0.6912   65.4939   82.4007 C   0  0  0  0  0  0  0  0  0  0  0  0
    0.6529   66.7602   81.8062 C   0  0  0  0  0  0  0  0  0  0  0  0
    1.3473   67.8224   82.4111 C   0  0  0  0  0  0  0  0  0  0  0  0
    2.0190   67.6305   83.6246 C   0  0  0  0  0  0  0  0  0  0  0  0
    2.0635   66.3550   84.1920 C   0  0  0  0  0  0  0  0  0  0  0  0
   -0.0057   67.0505   80.6385 O   0  0  0  0  0  0  0  0  0  0  0  0
    0.0472   66.0805   79.5998 C   0  0  0  0  0  0  0  0  0  0  0  0
    1.3330   69.0612   81.8150 O   0  0  0  0  0  0  0  0  0  0  0  0
    2.5022   69.2222   81.0104 C   0  0  0  0  0  0  0  0  0  0  0  0
    2.7141   68.5899   84.3133 O   0  0  0  0  0  0  0  0  0  0  0  0
    4.0811   68.2631   84.5566 C   0  0  0  0  0  0  0  0  0  0  0  0
 17 18  1  0  0  0
 18  1  1  0  0  0
  1  2  1  0  0  0
  2  3  2  0  0  0
  3  4  1  0  0  0
  4  5  2  0  0  0
  5 11  1  0  0  0
 11 12  1  0  0  0
  5  6  1  0  0  0
  6 14  1  0  0  0
 14 15  1  0  0  0
  6  7  2  0  0  0
  7 21  1  0  0  0
 21 22  1  0  0  0
 22 23  1  0  0  0
 23 24  2  0  0  0
 24 28  1  0  0  0
 28 29  1  0  0  0
 24 25  1  0  0  0
 25 30  1  0  0  0
 30 31  1  0  0  0
 25 26  2  0  0  0
 26 32  1  0  0  0
 32 33  1  0  0  0
 26 27  1  0  0  0
  7  8  1  0  0  0
  8  9  2  0  0  0
  9 10  1  0  0  0
 10 19  1  0  0  0
 19 20  1  0  0  0
 10  1  2  0  0  0
  8  3  1  0  0  0
 27 22  2  0  0  0
 12 13  1  0  0  0
 15 16  1  0  0  0
M  END
> <minimizedAffinity>
-8.71335

$$$$



 33 35  0  0  0  0  0  0  0  0999 V2000
    1.8116   66.2486   83.3346 C   0  0  0  0  0  0  0  0  0  0  0  0
    1.8970   65.8264   84.6614 C   0  0  0  0  0  0  0  0  0  0  0  0
    1.0007   64.8803   85.1912 C   0  0  0  0  0  0  0  0  0  0  0  0
    1.1498   64.4761   86.5210 C   0  0  0  0  0  0  0  0  0  0  0  0
    0.3034   63.5289   87.1121 C   0  0  0  0  0  0  0  0  0  0  0  0
   -0.7419   62.9592   86.3475 C   0  0  0  0  0  0  0  0  0  0  0  0
   -0.9153   63.3614   84.9867 C   0  0  0  0  0  0  0  0  0  0  0  0
   -0.0270   64.3290   84.3954 C   0  0  0  0  0  0  0  0  0  0  0  0
   -0.0828   64.7702   83.0451 C   0  0  0  0  0  0  0  0  0  0  0  0
    0.8118   65.7120   82.5149 C   0  0  0  0  0  0  0  0  0  0  0  0
    0.5857   63.1289   88.5448 C   0  0  0  0  0  0  0  0  0  0  0  0
   -0.3016   63.7901   89.4321 O   0  0  0  0  0  0  0  0  0  0  0  0
   -0.2059   64.7499   89.2560 H   0  0  0  0  0  0  0  0  0  0  0  0
   -1.6027   61.8888   86.9863 C   0  0  0  0  0  0  0  0  0  0  0  0
   -2.6553   62.5248   87.7033 O   0  0  0  0  0  0  0  0  0  0  0  0
   -2.2322   62.9901   88.4505 H   0  0  0  0  0  0  0  0  0  0  0  0
    3.0178   68.3058   83.5092 C   0  0  0  0  0  0  0  0  0  0  0  0
    2.6509   67.1630   82.7502 O   0  0  0  0  0  0  0  0  0  0  0  0
    0.7927   66.1597   81.2170 O   0  0  0  0  0  0  0  0  0  0  0  0
    0.1171   65.3731   80.2471 C   0  0  0  0  0  0  0  0  0  0  0  0
   -2.0227   62.7234   84.1472 C   0  0  0  0  0  0  0  0  0  0  0  0
   -1.6081   62.3327   82.7419 C   0  0  0  0  0  0  0  0  0  0  0  0
   -2.4972   62.4223   81.6569 C   0  0  0  0  0  0  0  0  0  0  0  0
   -2.1068   62.0370   80.3695 C   0  0  0  0  0  0  0  0  0  0  0  0
   -0.8126   61.5253   80.1703 C   0  0  0  0  0  0  0  0  0  0  0  0
    0.0946   61.4580   81.2347 C   0  0  0  0  0  0  0  0  0  0  0  0
   -0.3198   61.8276   82.5163 C   0  0  0  0  0  0  0  0  0  0  0  0
   -2.9138   62.0985   79.2619 O   0  0  0  0  0  0  0  0  0  0  0  0
   -4.2138   61.5316   79.3683 C   0  0  0  0  0  0  0  0  0  0  0  0
   -0.4356   61.1215   78.9114 O   0  0  0  0  0  0  0  0  0  0  0  0
    0.2813   62.1729   78.2627 C   0  0  0  0  0  0  0  0  0  0  0  0
    1.3822   60.9948   81.1588 O   0  0  0  0  0  0  0  0  0  0  0  0
    2.0002   60.7694   82.4245 C   0  0  0  0  0  0  0  0  0  0  0  0
 17 18  1  0  0  0
 18  1  1  0  0  0
  1  2  1  0  0  0
  2  3  2  0  0  0
  3  4  1  0  0  0
  4  5  2  0  0  0
  5 11  1  0  0  0
 11 12  1  0  0  0
  5  6  1  0  0  0
  6 14  1  0  0  0
 14 15  1  0  0  0
  6  7  2  0  0  0
  7 21  1  0  0  0
 21 22  1  0  0  0
 22 23  1  0  0  0
 23 24  2  0  0  0
 24 28  1  0  0  0
 28 29  1  0  0  0
 24 25  1  0  0  0
 25 30  1  0  0  0
 30 31  1  0  0  0
 25 26  2  0  0  0
 26 32  1  0  0  0
 32 33  1  0  0  0
 26 27  1  0  0  0
  7  8  1  0  0  0
  8  9  2  0  0  0
  9 10  1  0  0  0
 10 19  1  0  0  0
 19 20  1  0  0  0
 10  1  2  0  0  0
  8  3  1  0  0  0
 27 22  2  0  0  0
 12 13  1  0  0  0
 15 16  1  0  0  0
M  END
> <minimizedAffinity>
-8.68925

$$$$



 33 35  0  0  0  0  0  0  0  0999 V2000
   -0.4831   62.7832   85.5075 C   0  0  0  0  0  0  0  0  0  0  0  0
    0.5898   63.6526   85.7042 C   0  0  0  0  0  0  0  0  0  0  0  0
    0.9133   64.6463   84.7622 C   0  0  0  0  0  0  0  0  0  0  0  0
    1.9844   65.5054   85.0242 C   0  0  0  0  0  0  0  0  0  0  0  0
    2.3560   66.5259   84.1390 C   0  0  0  0  0  0  0  0  0  0  0  0
    1.6318   66.6989   82.9359 C   0  0  0  0  0  0  0  0  0  0  0  0
    0.5353   65.8285   82.6458 C   0  0  0  0  0  0  0  0  0  0  0  0
    0.1635   64.7925   83.5749 C   0  0  0  0  0  0  0  0  0  0  0  0
   -0.9298   63.8995   83.4070 C   0  0  0  0  0  0  0  0  0  0  0  0
   -1.2549   62.9096   84.3466 C   0  0  0  0  0  0  0  0  0  0  0  0
    3.5014   67.4287   84.5458 C   0  0  0  0  0  0  0  0  0  0  0  0
    3.0209   68.5501   85.2692 O   0  0  0  0  0  0  0  0  0  0  0  0
    2.3512   68.9823   84.6983 H   0  0  0  0  0  0  0  0  0  0  0  0
    2.0085   67.8498   82.0259 C   0  0  0  0  0  0  0  0  0  0  0  0
    1.4102   69.0387   82.5309 O   0  0  0  0  0  0  0  0  0  0  0  0
    0.4468   68.9280   82.4150 H   0  0  0  0  0  0  0  0  0  0  0  0
   -0.8262   62.0916   87.7706 C   0  0  0  0  0  0  0  0  0  0  0  0
   -0.8583   61.7950   86.3822 O   0  0  0  0  0  0  0  0  0  0  0  0
   -2.3036   62.0322   84.2223 O   0  0  0  0  0  0  0  0  0  0  0  0
   -2.5171   61.4181   82.9600 C   0  0  0  0  0  0  0  0  0  0  0  0
   -0.2707   66.0334   81.3627 C   0  0  0  0  0  0  0  0  0  0  0  0
   -0.0613   64.9671   80.3051 C   0  0  0  0  0  0  0  0  0  0  0  0
    0.3476   63.6645   80.6393 C   0  0  0  0  0  0  0  0  0  0  0  0
    0.5581   62.6974   79.6500 C   0  0  0  0  0  0  0  0  0  0  0  0
    0.3846   63.0491   78.2999 C   0  0  0  0  0  0  0  0  0  0  0  0
   -0.0516   64.3335   77.9525 C   0  0  0  0  0  0  0  0  0  0  0  0
   -0.2364   65.2912   78.9523 C   0  0  0  0  0  0  0  0  0  0  0  0
    0.9526   61.4069   79.8966 O   0  0  0  0  0  0  0  0  0  0  0  0
    1.1880   61.0431   81.2511 C   0  0  0  0  0  0  0  0  0  0  0  0
    0.6163   62.1082   77.3248 O   0  0  0  0  0  0  0  0  0  0  0  0
   -0.6128   61.4774   76.9621 C   0  0  0  0  0  0  0  0  0  0  0  0
   -0.2703   64.7851   76.6772 O   0  0  0  0  0  0  0  0  0  0  0  0
   -1.6143   65.1877   76.4197 C   0  0  0  0  0  0  0  0  0  0  0  0
 17 18  1  0  0  0
 18  1  1  0  0  0
  1  2  1  0  0  0
  2  3  2  0  0  0
  3  4  1  0  0  0
  4  5  2  0  0  0
  5 11  1  0  0  0
 11 12  1  0  0  0
  5  6  1  0  0  0
  6 14  1  0  0  0
 14 15  1  0  0  0
  6  7  2  0  0  0
  7 21  1  0  0  0
 21 22  1  0  0  0
 22 23  1  0  0  0
 23 24  2  0  0  0
 24 28  1  0  0  0
 28 29  1  0  0  0
 24 25  1  0  0  0
 25 30  1  0  0  0
 30 31  1  0  0  0
 25 26  2  0  0  0
 26 32  1  0  0  0
 32 33  1  0  0  0
 26 27  1  0  0  0
  7  8  1  0  0  0
  8  9  2  0  0  0
  9 10  1  0  0  0
 10 19  1  0  0  0
 19 20  1  0  0  0
 10  1  2  0  0  0
  8  3  1  0  0  0
 27 22  2  0  0  0
 12 13  1  0  0  0
 15 16  1  0  0  0
M  END
> <minimizedAffinity>
-8.50086

$$$$



 33 35  0  0  0  0  0  0  0  0999 V2000
   -2.1087   60.8137   81.5991 C   0  0  0  0  0  0  0  0  0  0  0  0
   -2.5542   61.0997   82.8897 C   0  0  0  0  0  0  0  0  0  0  0  0
   -1.8181   61.9297   83.7547 C   0  0  0  0  0  0  0  0  0  0  0  0
   -2.3260   62.2014   85.0284 C   0  0  0  0  0  0  0  0  0  0  0  0
   -1.6550   63.0292   85.9381 C   0  0  0  0  0  0  0  0  0  0  0  0
   -0.4203   63.6115   85.5665 C   0  0  0  0  0  0  0  0  0  0  0  0
    0.1198   63.3435   84.2702 C   0  0  0  0  0  0  0  0  0  0  0  0
   -0.5918   62.4981   83.3463 C   0  0  0  0  0  0  0  0  0  0  0  0
   -0.1686   62.1974   82.0229 C   0  0  0  0  0  0  0  0  0  0  0  0
   -0.9029   61.3716   81.1584 C   0  0  0  0  0  0  0  0  0  0  0  0
   -2.3200   63.2940   87.2723 C   0  0  0  0  0  0  0  0  0  0  0  0
   -3.0428   62.1529   87.7054 O   0  0  0  0  0  0  0  0  0  0  0  0
   -3.6662   61.9287   86.9826 H   0  0  0  0  0  0  0  0  0  0  0  0
    0.2545   64.5557   86.5401 C   0  0  0  0  0  0  0  0  0  0  0  0
    1.1326   63.7994   87.3668 O   0  0  0  0  0  0  0  0  0  0  0  0
    0.5626   63.2300   87.9187 H   0  0  0  0  0  0  0  0  0  0  0  0
   -3.8741   60.5817   80.0032 C   0  0  0  0  0  0  0  0  0  0  0  0
   -2.7738   60.0174   80.7016 O   0  0  0  0  0  0  0  0  0  0  0  0
   -0.5298   61.0613   79.8740 O   0  0  0  0  0  0  0  0  0  0  0  0
    0.1854   62.0365   79.1301 C   0  0  0  0  0  0  0  0  0  0  0  0
    1.4372   63.9977   83.8525 C   0  0  0  0  0  0  0  0  0  0  0  0
    1.2888   65.3446   83.1720 C   0  0  0  0  0  0  0  0  0  0  0  0
    1.9238   66.4969   83.6668 C   0  0  0  0  0  0  0  0  0  0  0  0
    1.7595   67.7375   83.0405 C   0  0  0  0  0  0  0  0  0  0  0  0
    0.9209   67.8317   81.9161 C   0  0  0  0  0  0  0  0  0  0  0  0
    0.3054   66.6879   81.3930 C   0  0  0  0  0  0  0  0  0  0  0  0
    0.4646   65.4623   82.0439 C   0  0  0  0  0  0  0  0  0  0  0  0
    2.3478   68.9035   83.4600 O   0  0  0  0  0  0  0  0  0  0  0  0
    3.7613   69.0027   83.3387 C   0  0  0  0  0  0  0  0  0  0  0  0
    0.7369   69.0543   81.3149 O   0  0  0  0  0  0  0  0  0  0  0  0
    1.6189   69.1796   80.1983 C   0  0  0  0  0  0  0  0  0  0  0  0
   -0.5169   66.6535   80.2973 O   0  0  0  0  0  0  0  0  0  0  0  0
   -0.0822   65.7703   79.2649 C   0  0  0  0  0  0  0  0  0  0  0  0
 17 18  1  0  0  0
 18  1  1  0  0  0
  1  2  1  0  0  0
  2  3  2  0  0  0
  3  4  1  0  0  0
  4  5  2  0  0  0
  5 11  1  0  0  0
 11 12  1  0  0  0
  5  6  1  0  0  0
  6 14  1  0  0  0
 14 15  1  0  0  0
  6  7  2  0  0  0
  7 21  1  0  0  0
 21 22  1  0  0  0
 22 23  1  0  0  0
 23 24  2  0  0  0
 24 28  1  0  0  0
 28 29  1  0  0  0
 24 25  1  0  0  0
 25 30  1  0  0  0
 30 31  1  0  0  0
 25 26  2  0  0  0
 26 32  1  0  0  0
 32 33  1  0  0  0
 26 27  1  0  0  0
  7  8  1  0  0  0
  8  9  2  0  0  0
  9 10  1  0  0  0
 10 19  1  0  0  0
 19 20  1  0  0  0
 10  1  2  0  0  0
  8  3  1  0  0  0
 27 22  2  0  0  0
 12 13  1  0  0  0
 15 16  1  0  0  0
M  END
> <minimizedAffinity>
-8.46924

$$$$



 33 35  0  0  0  0  0  0  0  0999 V2000
   -0.8424   62.7045   85.6160 C   0  0  0  0  0  0  0  0  0  0  0  0
    0.2403   63.5645   85.8002 C   0  0  0  0  0  0  0  0  0  0  0  0
    0.6250   64.4853   84.8086 C   0  0  0  0  0  0  0  0  0  0  0  0
    1.7029   65.3395   85.0586 C   0  0  0  0  0  0  0  0  0  0  0  0
    2.1339   66.2900   84.1238 C   0  0  0  0  0  0  0  0  0  0  0  0
    1.4650   66.3945   82.8814 C   0  0  0  0  0  0  0  0  0  0  0  0
    0.3628   65.5277   82.6030 C   0  0  0  0  0  0  0  0  0  0  0  0
   -0.0707   64.5647   83.5825 C   0  0  0  0  0  0  0  0  0  0  0  0
   -1.1755   63.6835   83.4276 C   0  0  0  0  0  0  0  0  0  0  0  0
   -1.5617   62.7664   84.4166 C   0  0  0  0  0  0  0  0  0  0  0  0
    3.2809   67.1962   84.5184 C   0  0  0  0  0  0  0  0  0  0  0  0
    2.7942   68.3837   85.1225 O   0  0  0  0  0  0  0  0  0  0  0  0
    2.1673   68.7833   84.4833 H   0  0  0  0  0  0  0  0  0  0  0  0
    1.9051   67.4733   81.9133 C   0  0  0  0  0  0  0  0  0  0  0  0
    1.3727   68.7183   82.3528 O   0  0  0  0  0  0  0  0  0  0  0  0
    0.4048   68.6547   82.2395 H   0  0  0  0  0  0  0  0  0  0  0  0
   -2.0250   62.2616   87.6464 C   0  0  0  0  0  0  0  0  0  0  0  0
   -1.2759   61.7856   86.5379 O   0  0  0  0  0  0  0  0  0  0  0  0
   -2.6234   61.9028   84.3061 O   0  0  0  0  0  0  0  0  0  0  0  0
   -2.6692   61.0385   83.1806 C   0  0  0  0  0  0  0  0  0  0  0  0
   -0.3838   65.6602   81.2752 C   0  0  0  0  0  0  0  0  0  0  0  0
   -0.2000   64.4928   80.3251 C   0  0  0  0  0  0  0  0  0  0  0  0
   -0.5403   64.5863   78.9645 C   0  0  0  0  0  0  0  0  0  0  0  0
   -0.3857   63.4931   78.1045 C   0  0  0  0  0  0  0  0  0  0  0  0
    0.0904   62.2759   78.6223 C   0  0  0  0  0  0  0  0  0  0  0  0
    0.4622   62.1753   79.9686 C   0  0  0  0  0  0  0  0  0  0  0  0
    0.2813   63.2708   80.8159 C   0  0  0  0  0  0  0  0  0  0  0  0
   -0.6909   63.5074   76.7672 O   0  0  0  0  0  0  0  0  0  0  0  0
   -2.0667   63.5650   76.4115 C   0  0  0  0  0  0  0  0  0  0  0  0
    0.2182   61.1930   77.7850 O   0  0  0  0  0  0  0  0  0  0  0  0
   -0.9122   60.3326   77.9342 C   0  0  0  0  0  0  0  0  0  0  0  0
    0.9519   61.0510   80.5802 O   0  0  0  0  0  0  0  0  0  0  0  0
    1.1811   61.1973   81.9805 C   0  0  0  0  0  0  0  0  0  0  0  0
 17 18  1  0  0  0
 18  1  1  0  0  0
  1  2  1  0  0  0
  2  3  2  0  0  0
  3  4  1  0  0  0
  4  5  2  0  0  0
  5 11  1  0  0  0
 11 12  1  0  0  0
  5  6  1  0  0  0
  6 14  1  0  0  0
 14 15  1  0  0  0
  6  7  2  0  0  0
  7 21  1  0  0  0
 21 22  1  0  0  0
 22 23  1  0  0  0
 23 24  2  0  0  0
 24 28  1  0  0  0
 28 29  1  0  0  0
 24 25  1  0  0  0
 25 30  1  0  0  0
 30 31  1  0  0  0
 25 26  2  0  0  0
 26 32  1  0  0  0
 32 33  1  0  0  0
 26 27  1  0  0  0
  7  8  1  0  0  0
  8  9  2  0  0  0
  9 10  1  0  0  0
 10 19  1  0  0  0
 19 20  1  0  0  0
 10  1  2  0  0  0
  8  3  1  0  0  0
 27 22  2  0  0  0
 12 13  1  0  0  0
 15 16  1  0  0  0
M  END
> <minimizedAffinity>
-8.41687

$$$$



 33 35  0  0  0  0  0  0  0  0999 V2000
    1.0679   69.7241   81.8197 C   0  0  0  0  0  0  0  0  0  0  0  0
    2.1144   69.8084   82.7381 C   0  0  0  0  0  0  0  0  0  0  0  0
    2.6253   68.6643   83.3778 C   0  0  0  0  0  0  0  0  0  0  0  0
    3.6916   68.8062   84.2706 C   0  0  0  0  0  0  0  0  0  0  0  0
    4.2601   67.7109   84.9338 C   0  0  0  0  0  0  0  0  0  0  0  0
    3.7431   66.4144   84.7020 C   0  0  0  0  0  0  0  0  0  0  0  0
    2.6498   66.2468   83.7962 C   0  0  0  0  0  0  0  0  0  0  0  0
    2.0872   67.3853   83.1166 C   0  0  0  0  0  0  0  0  0  0  0  0
    1.0290   67.3294   82.1688 C   0  0  0  0  0  0  0  0  0  0  0  0
    0.5202   68.4693   81.5284 C   0  0  0  0  0  0  0  0  0  0  0  0
    5.4426   67.9737   85.8421 C   0  0  0  0  0  0  0  0  0  0  0  0
    5.0045   68.2930   87.1528 O   0  0  0  0  0  0  0  0  0  0  0  0
    4.3899   69.0516   87.0627 H   0  0  0  0  0  0  0  0  0  0  0  0
    4.4157   65.2376   85.3783 C   0  0  0  0  0  0  0  0  0  0  0  0
    4.0829   65.2619   86.7622 O   0  0  0  0  0  0  0  0  0  0  0  0
    4.5209   66.0523   87.1327 H   0  0  0  0  0  0  0  0  0  0  0  0
    0.4806   72.0420   81.8334 C   0  0  0  0  0  0  0  0  0  0  0  0
    0.5224   70.7942   81.1567 O   0  0  0  0  0  0  0  0  0  0  0  0
   -0.4968   68.4557   80.6060 O   0  0  0  0  0  0  0  0  0  0  0  0
   -0.7491   67.2469   79.9051 C   0  0  0  0  0  0  0  0  0  0  0  0
    2.1101   64.8435   83.5174 C   0  0  0  0  0  0  0  0  0  0  0  0
    0.9757   64.4085   84.4247 C   0  0  0  0  0  0  0  0  0  0  0  0
    1.0429   64.5661   85.8198 C   0  0  0  0  0  0  0  0  0  0  0  0
   -0.0029   64.1394   86.6461 C   0  0  0  0  0  0  0  0  0  0  0  0
   -1.1230   63.5171   86.0676 C   0  0  0  0  0  0  0  0  0  0  0  0
   -1.2184   63.3799   84.6773 C   0  0  0  0  0  0  0  0  0  0  0  0
   -0.1557   63.7931   83.8707 C   0  0  0  0  0  0  0  0  0  0  0  0
   -0.0131   64.2619   88.0123 O   0  0  0  0  0  0  0  0  0  0  0  0
    0.7268   63.3046   88.7598 C   0  0  0  0  0  0  0  0  0  0  0  0
   -2.1398   63.0733   86.8795 O   0  0  0  0  0  0  0  0  0  0  0  0
   -2.0119   61.6657   87.0859 C   0  0  0  0  0  0  0  0  0  0  0  0
   -2.2638   62.8073   84.0011 O   0  0  0  0  0  0  0  0  0  0  0  0
   -1.9282   61.6046   83.3115 C   0  0  0  0  0  0  0  0  0  0  0  0
 17 18  1  0  0  0
 18  1  1  0  0  0
  1  2  1  0  0  0
  2  3  2  0  0  0
  3  4  1  0  0  0
  4  5  2  0  0  0
  5 11  1  0  0  0
 11 12  1  0  0  0
  5  6  1  0  0  0
  6 14  1  0  0  0
 14 15  1  0  0  0
  6  7  2  0  0  0
  7 21  1  0  0  0
 21 22  1  0  0  0
 22 23  1  0  0  0
 23 24  2  0  0  0
 24 28  1  0  0  0
 28 29  1  0  0  0
 24 25  1  0  0  0
 25 30  1  0  0  0
 30 31  1  0  0  0
 25 26  2  0  0  0
 26 32  1  0  0  0
 32 33  1  0  0  0
 26 27  1  0  0  0
  7  8  1  0  0  0
  8  9  2  0  0  0
  9 10  1  0  0  0
 10 19  1  0  0  0
 19 20  1  0  0  0
 10  1  2  0  0  0
  8  3  1  0  0  0
 27 22  2  0  0  0
 12 13  1  0  0  0
 15 16  1  0  0  0
M  END
> <minimizedAffinity>
-8.37148

$$$$
