


 25 29  0  0  0  0  0  0  0  0999 V2000
   -0.0268   63.5993   81.7703 C   0  0  0  0  0  0  0  0  0  0  0  0
    0.4880   64.8243   81.9204 N   0  0  0  0  0  0  0  0  0  0  0  0
    0.6748   65.2568   83.1783 C   0  0  0  0  0  0  0  0  0  0  0  0
    0.3442   64.4626   84.2927 C   0  0  0  0  0  0  0  0  0  0  0  0
    0.4938   64.8732   85.6428 C   0  0  0  0  0  0  0  0  0  0  0  0
    0.1358   63.9946   86.6375 C   0  0  0  0  0  0  0  0  0  0  0  0
   -0.3594   62.7526   86.3429 C   0  0  0  0  0  0  0  0  0  0  0  0
   -0.5245   62.3301   85.0413 C   0  0  0  0  0  0  0  0  0  0  0  0
   -0.1783   63.1819   83.9983 C   0  0  0  0  0  0  0  0  0  0  0  0
   -0.3583   62.7506   82.7490 N   0  0  0  0  0  0  0  0  0  0  0  0
   -0.6553   62.0341   87.4587 O   0  0  0  0  0  0  0  0  0  0  0  0
   -0.2970   62.9758   88.4919 C   0  0  0  0  0  0  0  0  0  0  0  0
    0.2158   64.2218   87.9740 O   0  0  0  0  0  0  0  0  0  0  0  0
    1.2234   66.5411   83.3910 N   0  0  0  0  0  0  0  0  0  0  0  0
    1.0756   66.7853   84.3657 H   0  0  0  0  0  0  0  0  0  0  0  0
    2.6199   66.7224   83.0079 C   0  0  0  0  0  0  0  0  0  0  0  0
    3.5238   66.7544   84.2204 C   0  0  0  0  0  0  0  0  0  0  0  0
    3.9331   67.9917   84.7738 C   0  0  0  0  0  0  0  0  0  0  0  0
    4.7629   68.0412   85.8983 C   0  0  0  0  0  0  0  0  0  0  0  0
    5.1688   66.8445   86.4461 C   0  0  0  0  0  0  0  0  0  0  0  0
    4.7809   65.6368   85.9158 C   0  0  0  0  0  0  0  0  0  0  0  0
    3.9629   65.5568   84.8087 C   0  0  0  0  0  0  0  0  0  0  0  0
    5.2928   64.5800   86.6025 O   0  0  0  0  0  0  0  0  0  0  0  0
    6.0580   65.2628   87.6168 C   0  0  0  0  0  0  0  0  0  0  0  0
    5.9734   66.7003   87.5330 O   0  0  0  0  0  0  0  0  0  0  0  0
  1  2  2  0  0  0
  2  3  1  0  0  0
  3 14  1  0  0  0
 14 16  1  0  0  0
 16 17  1  0  0  0
 17 18  1  0  0  0
 18 19  2  0  0  0
 19 20  1  0  0  0
 20 21  2  0  0  0
 21 22  1  0  0  0
 21 23  1  0  0  0
 23 24  1  0  0  0
 24 25  1  0  0  0
  3  4  2  0  0  0
  4  5  1  0  0  0
  5  6  2  0  0  0
  6  7  1  0  0  0
  7  8  2  0  0  0
  8  9  1  0  0  0
  9 10  2  0  0  0
  7 11  1  0  0  0
 11 12  1  0  0  0
 12 13  1  0  0  0
 10  1  1  0  0  0
 22 17  2  0  0  0
  9  4  1  0  0  0
 25 20  1  0  0  0
 13  6  1  0  0  0
 14 15  1  0  0  0
M  END
> <minimizedAffinity>
-9.31035

$$$$



 25 29  0  0  0  0  0  0  0  0999 V2000
    0.0411   64.3240   82.5214 C   0  0  0  0  0  0  0  0  0  0  0  0
    0.6744   65.4282   82.9312 N   0  0  0  0  0  0  0  0  0  0  0  0
    0.8936   65.5507   84.2506 C   0  0  0  0  0  0  0  0  0  0  0  0
    0.4769   64.5661   85.1665 C   0  0  0  0  0  0  0  0  0  0  0  0
    0.6563   64.6506   86.5716 C   0  0  0  0  0  0  0  0  0  0  0  0
    0.2049   63.6134   87.3526 C   0  0  0  0  0  0  0  0  0  0  0  0
   -0.4094   62.5227   86.7979 C   0  0  0  0  0  0  0  0  0  0  0  0
   -0.6058   62.4174   85.4376 C   0  0  0  0  0  0  0  0  0  0  0  0
   -0.1685   63.4405   84.6039 C   0  0  0  0  0  0  0  0  0  0  0  0
   -0.3809   63.3167   83.2929 N   0  0  0  0  0  0  0  0  0  0  0  0
   -0.7841   61.6078   87.7314 O   0  0  0  0  0  0  0  0  0  0  0  0
   -0.3416   62.2571   88.9419 C   0  0  0  0  0  0  0  0  0  0  0  0
    0.2968   63.5298   88.7049 O   0  0  0  0  0  0  0  0  0  0  0  0
    1.5660   66.6953   84.7341 N   0  0  0  0  0  0  0  0  0  0  0  0
    1.8961   66.4894   85.6722 H   0  0  0  0  0  0  0  0  0  0  0  0
    2.6428   67.2172   83.8987 C   0  0  0  0  0  0  0  0  0  0  0  0
    3.9963   66.7592   84.3954 C   0  0  0  0  0  0  0  0  0  0  0  0
    4.0965   65.6671   85.2909 C   0  0  0  0  0  0  0  0  0  0  0  0
    5.3393   65.2253   85.7555 C   0  0  0  0  0  0  0  0  0  0  0  0
    6.4606   65.8913   85.3128 C   0  0  0  0  0  0  0  0  0  0  0  0
    6.3759   66.9552   84.4462 C   0  0  0  0  0  0  0  0  0  0  0  0
    5.1650   67.4124   83.9706 C   0  0  0  0  0  0  0  0  0  0  0  0
    7.5960   67.4713   84.1372 O   0  0  0  0  0  0  0  0  0  0  0  0
    8.4558   66.6180   84.9202 C   0  0  0  0  0  0  0  0  0  0  0  0
    7.7440   65.6037   85.6585 O   0  0  0  0  0  0  0  0  0  0  0  0
  1  2  2  0  0  0
  2  3  1  0  0  0
  3 14  1  0  0  0
 14 16  1  0  0  0
 16 17  1  0  0  0
 17 18  1  0  0  0
 18 19  2  0  0  0
 19 20  1  0  0  0
 20 21  2  0  0  0
 21 22  1  0  0  0
 21 23  1  0  0  0
 23 24  1  0  0  0
 24 25  1  0  0  0
  3  4  2  0  0  0
  4  5  1  0  0  0
  5  6  2  0  0  0
  6  7  1  0  0  0
  7  8  2  0  0  0
  8  9  1  0  0  0
  9 10  2  0  0  0
  7 11  1  0  0  0
 11 12  1  0  0  0
 12 13  1  0  0  0
 10  1  1  0  0  0
 22 17  2  0  0  0
  9  4  1  0  0  0
 25 20  1  0  0  0
 13  6  1  0  0  0
 14 15  1  0  0  0
M  END
> <minimizedAffinity>
-9.27774

$$$$



 25 29  0  0  0  0  0  0  0  0999 V2000
   -0.3695   64.0464   79.6572 C   0  0  0  0  0  0  0  0  0  0  0  0
   -0.5526   63.2479   80.7142 N   0  0  0  0  0  0  0  0  0  0  0  0
   -0.1144   63.6984   81.9013 C   0  0  0  0  0  0  0  0  0  0  0  0
    0.5116   64.9524   82.0338 C   0  0  0  0  0  0  0  0  0  0  0  0
    1.0178   65.4710   83.2538 C   0  0  0  0  0  0  0  0  0  0  0  0
    1.6032   66.7147   83.2434 C   0  0  0  0  0  0  0  0  0  0  0  0
    1.7051   67.4414   82.0875 C   0  0  0  0  0  0  0  0  0  0  0  0
    1.2309   66.9594   80.8862 C   0  0  0  0  0  0  0  0  0  0  0  0
    0.6311   65.7059   80.8430 C   0  0  0  0  0  0  0  0  0  0  0  0
    0.1907   65.2605   79.6654 N   0  0  0  0  0  0  0  0  0  0  0  0
    2.3139   68.6417   82.2812 O   0  0  0  0  0  0  0  0  0  0  0  0
    2.5929   68.5802   83.6958 C   0  0  0  0  0  0  0  0  0  0  0  0
    2.1340   67.3593   84.3143 O   0  0  0  0  0  0  0  0  0  0  0  0
   -0.2910   62.8961   83.0506 N   0  0  0  0  0  0  0  0  0  0  0  0
    0.4273   63.1512   83.7217 H   0  0  0  0  0  0  0  0  0  0  0  0
   -1.6160   62.9195   83.6617 C   0  0  0  0  0  0  0  0  0  0  0  0
   -1.5255   62.9472   85.1715 C   0  0  0  0  0  0  0  0  0  0  0  0
   -2.6699   62.6785   85.9607 C   0  0  0  0  0  0  0  0  0  0  0  0
   -2.6041   62.6929   87.3575 C   0  0  0  0  0  0  0  0  0  0  0  0
   -1.3880   62.9795   87.9369 C   0  0  0  0  0  0  0  0  0  0  0  0
   -0.2706   63.2454   87.1814 C   0  0  0  0  0  0  0  0  0  0  0  0
   -0.3048   63.2376   85.8030 C   0  0  0  0  0  0  0  0  0  0  0  0
    0.8234   63.5061   87.9468 O   0  0  0  0  0  0  0  0  0  0  0  0
    0.2615   63.3869   89.2698 C   0  0  0  0  0  0  0  0  0  0  0  0
   -1.1384   63.0392   89.2725 O   0  0  0  0  0  0  0  0  0  0  0  0
  1  2  2  0  0  0
  2  3  1  0  0  0
  3 14  1  0  0  0
 14 16  1  0  0  0
 16 17  1  0  0  0
 17 18  1  0  0  0
 18 19  2  0  0  0
 19 20  1  0  0  0
 20 21  2  0  0  0
 21 22  1  0  0  0
 21 23  1  0  0  0
 23 24  1  0  0  0
 24 25  1  0  0  0
  3  4  2  0  0  0
  4  5  1  0  0  0
  5  6  2  0  0  0
  6  7  1  0  0  0
  7  8  2  0  0  0
  8  9  1  0  0  0
  9 10  2  0  0  0
  7 11  1  0  0  0
 11 12  1  0  0  0
 12 13  1  0  0  0
 10  1  1  0  0  0
 22 17  2  0  0  0
  9  4  1  0  0  0
 25 20  1  0  0  0
 13  6  1  0  0  0
 14 15  1  0  0  0
M  END
> <minimizedAffinity>
-9.22067

$$$$



 25 29  0  0  0  0  0  0  0  0999 V2000
   -2.0149   62.8851   82.5794 C   0  0  0  0  0  0  0  0  0  0  0  0
   -0.8667   63.5161   82.3113 N   0  0  0  0  0  0  0  0  0  0  0  0
   -0.1122   63.8804   83.3610 C   0  0  0  0  0  0  0  0  0  0  0  0
   -0.5066   63.6150   84.6861 C   0  0  0  0  0  0  0  0  0  0  0  0
    0.2334   63.9971   85.8350 C   0  0  0  0  0  0  0  0  0  0  0  0
   -0.2654   63.6700   87.0734 C   0  0  0  0  0  0  0  0  0  0  0  0
   -1.4500   62.9963   87.2060 C   0  0  0  0  0  0  0  0  0  0  0  0
   -2.1949   62.6206   86.1086 C   0  0  0  0  0  0  0  0  0  0  0  0
   -1.7345   62.9289   84.8335 C   0  0  0  0  0  0  0  0  0  0  0  0
   -2.4808   62.5622   83.7905 N   0  0  0  0  0  0  0  0  0  0  0  0
   -1.7737   62.7672   88.5066 O   0  0  0  0  0  0  0  0  0  0  0  0
   -0.6564   63.3861   89.1783 C   0  0  0  0  0  0  0  0  0  0  0  0
    0.3109   63.9541   88.2698 O   0  0  0  0  0  0  0  0  0  0  0  0
    1.1143   64.5429   83.1311 N   0  0  0  0  0  0  0  0  0  0  0  0
    1.4904   64.2050   82.2503 H   0  0  0  0  0  0  0  0  0  0  0  0
    1.0809   66.0014   83.1653 C   0  0  0  0  0  0  0  0  0  0  0  0
    2.2977   66.5637   83.8666 C   0  0  0  0  0  0  0  0  0  0  0  0
    2.5458   67.9576   83.8594 C   0  0  0  0  0  0  0  0  0  0  0  0
    3.6616   68.4963   84.5078 C   0  0  0  0  0  0  0  0  0  0  0  0
    4.5104   67.6230   85.1510 C   0  0  0  0  0  0  0  0  0  0  0  0
    4.2821   66.2673   85.1621 C   0  0  0  0  0  0  0  0  0  0  0  0
    3.1903   65.7076   84.5325 C   0  0  0  0  0  0  0  0  0  0  0  0
    5.2386   65.5855   85.8481 O   0  0  0  0  0  0  0  0  0  0  0  0
    6.1015   66.6674   86.2548 C   0  0  0  0  0  0  0  0  0  0  0  0
    5.6389   67.9653   85.8282 O   0  0  0  0  0  0  0  0  0  0  0  0
  1  2  2  0  0  0
  2  3  1  0  0  0
  3 14  1  0  0  0
 14 16  1  0  0  0
 16 17  1  0  0  0
 17 18  1  0  0  0
 18 19  2  0  0  0
 19 20  1  0  0  0
 20 21  2  0  0  0
 21 22  1  0  0  0
 21 23  1  0  0  0
 23 24  1  0  0  0
 24 25  1  0  0  0
  3  4  2  0  0  0
  4  5  1  0  0  0
  5  6  2  0  0  0
  6  7  1  0  0  0
  7  8  2  0  0  0
  8  9  1  0  0  0
  9 10  2  0  0  0
  7 11  1  0  0  0
 11 12  1  0  0  0
 12 13  1  0  0  0
 10  1  1  0  0  0
 22 17  2  0  0  0
  9  4  1  0  0  0
 25 20  1  0  0  0
 13  6  1  0  0  0
 14 15  1  0  0  0
M  END
> <minimizedAffinity>
-9.19959

$$$$



 25 29  0  0  0  0  0  0  0  0999 V2000
    0.6494   65.4008   81.2123 C   0  0  0  0  0  0  0  0  0  0  0  0
    0.2892   64.5906   82.2134 N   0  0  0  0  0  0  0  0  0  0  0  0
   -0.0729   63.3397   81.8847 C   0  0  0  0  0  0  0  0  0  0  0  0
   -0.0772   62.8953   80.5489 C   0  0  0  0  0  0  0  0  0  0  0  0
   -0.4735   61.5964   80.1371 C   0  0  0  0  0  0  0  0  0  0  0  0
   -0.4250   61.2913   78.7977 C   0  0  0  0  0  0  0  0  0  0  0  0
   -0.0108   62.2135   77.8743 C   0  0  0  0  0  0  0  0  0  0  0  0
    0.3709   63.4855   78.2438 C   0  0  0  0  0  0  0  0  0  0  0  0
    0.3388   63.8445   79.5866 C   0  0  0  0  0  0  0  0  0  0  0  0
    0.7038   65.0849   79.9141 N   0  0  0  0  0  0  0  0  0  0  0  0
   -0.0336   61.7240   76.6060 O   0  0  0  0  0  0  0  0  0  0  0  0
   -0.5215   60.3860   76.8393 C   0  0  0  0  0  0  0  0  0  0  0  0
   -0.7633   60.1030   78.2340 O   0  0  0  0  0  0  0  0  0  0  0  0
   -0.4545   62.4419   82.9065 N   0  0  0  0  0  0  0  0  0  0  0  0
    0.2827   62.4335   83.6050 H   0  0  0  0  0  0  0  0  0  0  0  0
   -1.7589   62.6717   83.5192 C   0  0  0  0  0  0  0  0  0  0  0  0
   -1.6499   62.7728   85.0247 C   0  0  0  0  0  0  0  0  0  0  0  0
   -2.7936   62.5849   85.8379 C   0  0  0  0  0  0  0  0  0  0  0  0
   -2.7109   62.6679   87.2314 C   0  0  0  0  0  0  0  0  0  0  0  0
   -1.4790   62.9408   87.7833 C   0  0  0  0  0  0  0  0  0  0  0  0
   -0.3620   63.1286   87.0042 C   0  0  0  0  0  0  0  0  0  0  0  0
   -0.4126   63.0519   85.6283 C   0  0  0  0  0  0  0  0  0  0  0  0
    0.7492   63.3893   87.7442 O   0  0  0  0  0  0  0  0  0  0  0  0
    0.1991   63.3573   89.0772 C   0  0  0  0  0  0  0  0  0  0  0  0
   -1.2119   63.0595   89.1115 O   0  0  0  0  0  0  0  0  0  0  0  0
  1  2  2  0  0  0
  2  3  1  0  0  0
  3 14  1  0  0  0
 14 16  1  0  0  0
 16 17  1  0  0  0
 17 18  1  0  0  0
 18 19  2  0  0  0
 19 20  1  0  0  0
 20 21  2  0  0  0
 21 22  1  0  0  0
 21 23  1  0  0  0
 23 24  1  0  0  0
 24 25  1  0  0  0
  3  4  2  0  0  0
  4  5  1  0  0  0
  5  6  2  0  0  0
  6  7  1  0  0  0
  7  8  2  0  0  0
  8  9  1  0  0  0
  9 10  2  0  0  0
  7 11  1  0  0  0
 11 12  1  0  0  0
 12 13  1  0  0  0
 10  1  1  0  0  0
 22 17  2  0  0  0
  9  4  1  0  0  0
 25 20  1  0  0  0
 13  6  1  0  0  0
 14 15  1  0  0  0
M  END
> <minimizedAffinity>
-9.17323

$$$$



 25 29  0  0  0  0  0  0  0  0999 V2000
   -2.3620   61.6646   82.8061 C   0  0  0  0  0  0  0  0  0  0  0  0
   -1.2866   62.2943   82.3209 N   0  0  0  0  0  0  0  0  0  0  0  0
   -0.5017   62.9299   83.2063 C   0  0  0  0  0  0  0  0  0  0  0  0
   -0.7928   62.9386   84.5837 C   0  0  0  0  0  0  0  0  0  0  0  0
   -0.0178   63.6125   85.5629 C   0  0  0  0  0  0  0  0  0  0  0  0
   -0.4130   63.5352   86.8772 C   0  0  0  0  0  0  0  0  0  0  0  0
   -1.5294   62.8317   87.2424 C   0  0  0  0  0  0  0  0  0  0  0  0
   -2.3066   62.1751   86.3123 C   0  0  0  0  0  0  0  0  0  0  0  0
   -1.9504   62.2235   84.9693 C   0  0  0  0  0  0  0  0  0  0  0  0
   -2.7264   61.5876   84.0903 N   0  0  0  0  0  0  0  0  0  0  0  0
   -1.7544   62.8749   88.5827 O   0  0  0  0  0  0  0  0  0  0  0  0
   -0.6519   63.6984   89.0174 C   0  0  0  0  0  0  0  0  0  0  0  0
    0.2099   64.1135   87.9364 O   0  0  0  0  0  0  0  0  0  0  0  0
    0.6513   63.6038   82.7457 N   0  0  0  0  0  0  0  0  0  0  0  0
    1.2626   62.9164   82.3152 H   0  0  0  0  0  0  0  0  0  0  0  0
    0.4281   64.7403   81.8579 C   0  0  0  0  0  0  0  0  0  0  0  0
    1.1648   65.9699   82.3417 C   0  0  0  0  0  0  0  0  0  0  0  0
    1.3916   66.1685   83.7251 C   0  0  0  0  0  0  0  0  0  0  0  0
    2.0765   67.2954   84.1906 C   0  0  0  0  0  0  0  0  0  0  0  0
    2.5199   68.2048   83.2562 C   0  0  0  0  0  0  0  0  0  0  0  0
    2.3029   68.0248   81.9106 C   0  0  0  0  0  0  0  0  0  0  0  0
    1.6319   66.9235   81.4222 C   0  0  0  0  0  0  0  0  0  0  0  0
    2.8174   69.0372   81.1618 O   0  0  0  0  0  0  0  0  0  0  0  0
    3.3706   69.8808   82.1927 C   0  0  0  0  0  0  0  0  0  0  0  0
    3.1982   69.3527   83.5239 O   0  0  0  0  0  0  0  0  0  0  0  0
  1  2  2  0  0  0
  2  3  1  0  0  0
  3 14  1  0  0  0
 14 16  1  0  0  0
 16 17  1  0  0  0
 17 18  1  0  0  0
 18 19  2  0  0  0
 19 20  1  0  0  0
 20 21  2  0  0  0
 21 22  1  0  0  0
 21 23  1  0  0  0
 23 24  1  0  0  0
 24 25  1  0  0  0
  3  4  2  0  0  0
  4  5  1  0  0  0
  5  6  2  0  0  0
  6  7  1  0  0  0
  7  8  2  0  0  0
  8  9  1  0  0  0
  9 10  2  0  0  0
  7 11  1  0  0  0
 11 12  1  0  0  0
 12 13  1  0  0  0
 10  1  1  0  0  0
 22 17  2  0  0  0
  9  4  1  0  0  0
 25 20  1  0  0  0
 13  6  1  0  0  0
 14 15  1  0  0  0
M  END
> <minimizedAffinity>
-9.15904

$$$$



 25 29  0  0  0  0  0  0  0  0999 V2000
   -3.1149   59.8983   82.4816 C   0  0  0  0  0  0  0  0  0  0  0  0
   -2.2183   60.7256   83.0292 N   0  0  0  0  0  0  0  0  0  0  0  0
   -1.3433   61.3131   82.1965 C   0  0  0  0  0  0  0  0  0  0  0  0
   -1.3622   61.0721   80.8097 C   0  0  0  0  0  0  0  0  0  0  0  0
   -0.4496   61.6416   79.8842 C   0  0  0  0  0  0  0  0  0  0  0  0
   -0.5839   61.3248   78.5533 C   0  0  0  0  0  0  0  0  0  0  0  0
   -1.5683   60.4767   78.1216 C   0  0  0  0  0  0  0  0  0  0  0  0
   -2.4629   59.9014   78.9984 C   0  0  0  0  0  0  0  0  0  0  0  0
   -2.3689   60.1887   80.3555 C   0  0  0  0  0  0  0  0  0  0  0  0
   -3.2413   59.6100   81.1820 N   0  0  0  0  0  0  0  0  0  0  0  0
   -1.5365   60.2876   76.7755 O   0  0  0  0  0  0  0  0  0  0  0  0
   -0.4078   61.1100   76.4116 C   0  0  0  0  0  0  0  0  0  0  0  0
    0.1961   61.7795   77.5389 O   0  0  0  0  0  0  0  0  0  0  0  0
   -0.3805   62.2022   82.7242 N   0  0  0  0  0  0  0  0  0  0  0  0
    0.2696   62.4350   81.9794 H   0  0  0  0  0  0  0  0  0  0  0  0
   -0.8934   63.4053   83.3716 C   0  0  0  0  0  0  0  0  0  0  0  0
   -0.3819   63.5280   84.7900 C   0  0  0  0  0  0  0  0  0  0  0  0
    0.5316   64.5537   85.1336 C   0  0  0  0  0  0  0  0  0  0  0  0
    1.0102   64.6869   86.4409 C   0  0  0  0  0  0  0  0  0  0  0  0
    0.5630   63.7843   87.3802 C   0  0  0  0  0  0  0  0  0  0  0  0
   -0.3212   62.7821   87.0579 C   0  0  0  0  0  0  0  0  0  0  0  0
   -0.8108   62.6266   85.7782 C   0  0  0  0  0  0  0  0  0  0  0  0
   -0.6318   62.0004   88.1270 O   0  0  0  0  0  0  0  0  0  0  0  0
    0.1696   62.6184   89.1548 C   0  0  0  0  0  0  0  0  0  0  0  0
    0.9203   63.7599   88.6921 O   0  0  0  0  0  0  0  0  0  0  0  0
  1  2  2  0  0  0
  2  3  1  0  0  0
  3 14  1  0  0  0
 14 16  1  0  0  0
 16 17  1  0  0  0
 17 18  1  0  0  0
 18 19  2  0  0  0
 19 20  1  0  0  0
 20 21  2  0  0  0
 21 22  1  0  0  0
 21 23  1  0  0  0
 23 24  1  0  0  0
 24 25  1  0  0  0
  3  4  2  0  0  0
  4  5  1  0  0  0
  5  6  2  0  0  0
  6  7  1  0  0  0
  7  8  2  0  0  0
  8  9  1  0  0  0
  9 10  2  0  0  0
  7 11  1  0  0  0
 11 12  1  0  0  0
 12 13  1  0  0  0
 10  1  1  0  0  0
 22 17  2  0  0  0
  9  4  1  0  0  0
 25 20  1  0  0  0
 13  6  1  0  0  0
 14 15  1  0  0  0
M  END
> <minimizedAffinity>
-9.14341

$$$$



 25 29  0  0  0  0  0  0  0  0999 V2000
    0.6196   65.3061   82.8792 C   0  0  0  0  0  0  0  0  0  0  0  0
   -0.3324   64.4683   82.4547 N   0  0  0  0  0  0  0  0  0  0  0  0
   -0.8510   63.6251   83.3625 C   0  0  0  0  0  0  0  0  0  0  0  0
   -0.4158   63.6170   84.7013 C   0  0  0  0  0  0  0  0  0  0  0  0
   -0.9058   62.7343   85.6986 C   0  0  0  0  0  0  0  0  0  0  0  0
   -0.3962   62.8369   86.9711 C   0  0  0  0  0  0  0  0  0  0  0  0
    0.5655   63.7619   87.2779 C   0  0  0  0  0  0  0  0  0  0  0  0
    1.0670   64.6258   86.3281 C   0  0  0  0  0  0  0  0  0  0  0  0
    0.5854   64.5617   85.0254 C   0  0  0  0  0  0  0  0  0  0  0  0
    1.0961   65.4028   84.1248 N   0  0  0  0  0  0  0  0  0  0  0  0
    0.9405   63.7067   88.5837 O   0  0  0  0  0  0  0  0  0  0  0  0
    0.1073   62.6293   89.0609 C   0  0  0  0  0  0  0  0  0  0  0  0
   -0.7519   62.0786   88.0401 O   0  0  0  0  0  0  0  0  0  0  0  0
   -1.8654   62.7251   82.9666 N   0  0  0  0  0  0  0  0  0  0  0  0
   -2.4358   62.5207   83.7816 H   0  0  0  0  0  0  0  0  0  0  0  0
   -2.6906   63.1339   81.8345 C   0  0  0  0  0  0  0  0  0  0  0  0
   -2.6836   62.0877   80.7418 C   0  0  0  0  0  0  0  0  0  0  0  0
   -3.8679   61.3809   80.4220 C   0  0  0  0  0  0  0  0  0  0  0  0
   -3.8823   60.4152   79.4107 C   0  0  0  0  0  0  0  0  0  0  0  0
   -2.7039   60.1753   78.7393 C   0  0  0  0  0  0  0  0  0  0  0  0
   -1.5467   60.8526   79.0430 C   0  0  0  0  0  0  0  0  0  0  0  0
   -1.5023   61.8104   80.0340 C   0  0  0  0  0  0  0  0  0  0  0  0
   -0.4992   60.4646   78.2667 O   0  0  0  0  0  0  0  0  0  0  0  0
   -1.1282   59.4559   77.4498 C   0  0  0  0  0  0  0  0  0  0  0  0
   -2.5309   59.2760   77.7340 O   0  0  0  0  0  0  0  0  0  0  0  0
  1  2  2  0  0  0
  2  3  1  0  0  0
  3 14  1  0  0  0
 14 16  1  0  0  0
 16 17  1  0  0  0
 17 18  1  0  0  0
 18 19  2  0  0  0
 19 20  1  0  0  0
 20 21  2  0  0  0
 21 22  1  0  0  0
 21 23  1  0  0  0
 23 24  1  0  0  0
 24 25  1  0  0  0
  3  4  2  0  0  0
  4  5  1  0  0  0
  5  6  2  0  0  0
  6  7  1  0  0  0
  7  8  2  0  0  0
  8  9  1  0  0  0
  9 10  2  0  0  0
  7 11  1  0  0  0
 11 12  1  0  0  0
 12 13  1  0  0  0
 10  1  1  0  0  0
 22 17  2  0  0  0
  9  4  1  0  0  0
 25 20  1  0  0  0
 13  6  1  0  0  0
 14 15  1  0  0  0
M  END
> <minimizedAffinity>
-9.09069

$$$$



 25 29  0  0  0  0  0  0  0  0999 V2000
    1.8229   68.5118   82.6339 C   0  0  0  0  0  0  0  0  0  0  0  0
    1.3088   67.2923   82.4417 N   0  0  0  0  0  0  0  0  0  0  0  0
    1.8602   66.2826   83.1349 C   0  0  0  0  0  0  0  0  0  0  0  0
    2.9318   66.4909   84.0237 C   0  0  0  0  0  0  0  0  0  0  0  0
    3.5719   65.4628   84.7631 C   0  0  0  0  0  0  0  0  0  0  0  0
    4.6060   65.8060   85.6013 C   0  0  0  0  0  0  0  0  0  0  0  0
    5.0195   67.1056   85.7227 C   0  0  0  0  0  0  0  0  0  0  0  0
    4.4229   68.1238   85.0102 C   0  0  0  0  0  0  0  0  0  0  0  0
    3.3731   67.8288   84.1477 C   0  0  0  0  0  0  0  0  0  0  0  0
    2.8216   68.8321   83.4634 N   0  0  0  0  0  0  0  0  0  0  0  0
    6.0524   67.2419   86.5964 O   0  0  0  0  0  0  0  0  0  0  0  0
    6.2472   65.8711   87.0034 C   0  0  0  0  0  0  0  0  0  0  0  0
    5.3228   64.9547   86.3796 O   0  0  0  0  0  0  0  0  0  0  0  0
    1.3481   64.9758   82.9737 N   0  0  0  0  0  0  0  0  0  0  0  0
    1.9556   64.3387   83.4801 H   0  0  0  0  0  0  0  0  0  0  0  0
   -0.0498   64.7761   83.3417 C   0  0  0  0  0  0  0  0  0  0  0  0
   -0.1736   63.9925   84.6298 C   0  0  0  0  0  0  0  0  0  0  0  0
   -0.8736   62.7621   84.6530 C   0  0  0  0  0  0  0  0  0  0  0  0
   -0.9926   62.0206   85.8327 C   0  0  0  0  0  0  0  0  0  0  0  0
   -0.4069   62.5308   86.9700 C   0  0  0  0  0  0  0  0  0  0  0  0
    0.2724   63.7260   86.9609 C   0  0  0  0  0  0  0  0  0  0  0  0
    0.4070   64.4783   85.8131 C   0  0  0  0  0  0  0  0  0  0  0  0
    0.7703   64.0494   88.1848 O   0  0  0  0  0  0  0  0  0  0  0  0
    0.3137   62.9267   88.9668 C   0  0  0  0  0  0  0  0  0  0  0  0
   -0.4223   61.9514   88.2002 O   0  0  0  0  0  0  0  0  0  0  0  0
  1  2  2  0  0  0
  2  3  1  0  0  0
  3 14  1  0  0  0
 14 16  1  0  0  0
 16 17  1  0  0  0
 17 18  1  0  0  0
 18 19  2  0  0  0
 19 20  1  0  0  0
 20 21  2  0  0  0
 21 22  1  0  0  0
 21 23  1  0  0  0
 23 24  1  0  0  0
 24 25  1  0  0  0
  3  4  2  0  0  0
  4  5  1  0  0  0
  5  6  2  0  0  0
  6  7  1  0  0  0
  7  8  2  0  0  0
  8  9  1  0  0  0
  9 10  2  0  0  0
  7 11  1  0  0  0
 11 12  1  0  0  0
 12 13  1  0  0  0
 10  1  1  0  0  0
 22 17  2  0  0  0
  9  4  1  0  0  0
 25 20  1  0  0  0
 13  6  1  0  0  0
 14 15  1  0  0  0
M  END
> <minimizedAffinity>
-9.08685

$$$$
