


 33 38  0  0  0  0  0  0  0  0999 V2000
   -0.8192   64.4766   80.9624 N   0  0  0  0  0  0  0  0  0  0  0  0
    0.0456   65.3167   81.5580 C   0  0  0  0  0  0  0  0  0  0  0  0
    0.2602   66.5601   81.2004 N   0  0  0  0  0  0  0  0  0  0  0  0
    1.1804   67.0246   82.0861 C   0  0  0  0  0  0  0  0  0  0  0  0
    1.5544   66.0683   82.9817 C   0  0  0  0  0  0  0  0  0  0  0  0
    2.5115   66.3089   84.0059 C   0  0  0  0  0  0  0  0  0  0  0  0
    2.8410   65.4581   84.8276 O   0  0  0  0  0  0  0  0  0  0  0  0
    3.0248   67.6103   83.9891 N   0  0  0  0  0  0  0  0  0  0  0  0
    2.6613   68.6198   83.0782 C   0  0  0  0  0  0  0  0  0  0  0  0
    3.1619   69.7474   83.1286 O   0  0  0  0  0  0  0  0  0  0  0  0
    1.7116   68.2929   82.1093 N   0  0  0  0  0  0  0  0  0  0  0  0
    0.8262   64.9549   82.6381 N   0  0  0  0  0  0  0  0  0  0  0  0
   -1.4024   63.9085   81.5721 H   0  0  0  0  0  0  0  0  0  0  0  0
   -1.4087   64.9454   80.2774 H   0  0  0  0  0  0  0  0  0  0  0  0
    3.9963   67.9494   85.0191 C   0  0  0  0  0  0  0  0  0  0  0  0
    5.3971   67.7585   84.5044 C   0  0  0  0  0  0  0  0  0  0  0  0
    6.5416   67.5784   85.4698 C   0  0  0  0  0  0  0  0  0  0  0  0
    6.0938   66.4256   84.6143 C   0  0  0  0  0  0  0  0  0  0  0  0
    1.2771   69.3088   81.1597 C   0  0  0  0  0  0  0  0  0  0  0  0
    0.2120   70.1790   81.7650 C   0  0  0  0  0  0  0  0  0  0  0  0
   -0.5369   71.1857   80.9287 C   0  0  0  0  0  0  0  0  0  0  0  0
    0.4556   71.6551   81.9561 C   0  0  0  0  0  0  0  0  0  0  0  0
    0.9473   63.6163   83.2031 C   0  0  0  0  0  0  0  0  0  0  0  0
   -0.3029   63.1883   83.9471 C   0  0  0  0  0  0  0  0  0  0  0  0
   -1.3391   62.6040   83.1904 C   0  0  0  0  0  0  0  0  0  0  0  0
   -2.5129   62.1698   83.7929 C   0  0  0  0  0  0  0  0  0  0  0  0
   -2.6787   62.3171   85.1646 C   0  0  0  0  0  0  0  0  0  0  0  0
   -1.6814   62.9087   85.9512 C   0  0  0  0  0  0  0  0  0  0  0  0
   -1.8880   63.0494   87.3335 C   0  0  0  0  0  0  0  0  0  0  0  0
   -0.9253   63.6383   88.1488 C   0  0  0  0  0  0  0  0  0  0  0  0
    0.2572   64.0972   87.5892 C   0  0  0  0  0  0  0  0  0  0  0  0
    0.4778   63.9642   86.2152 C   0  0  0  0  0  0  0  0  0  0  0  0
   -0.4751   63.3635   85.3544 C   0  0  0  0  0  0  0  0  0  0  0  0
  1  2  1  0  0  0
  2  3  2  0  0  0
  3  4  1  0  0  0
  4  5  2  0  0  0
  5  6  1  0  0  0
  6  7  2  0  0  0
  6  8  1  0  0  0
  8 15  1  0  0  0
 15 16  1  0  0  0
 16 17  1  0  0  0
 17 18  1  0  0  0
  8  9  1  0  0  0
  9 10  2  0  0  0
  9 11  1  0  0  0
 11 19  1  0  0  0
 19 20  1  0  0  0
 20 21  1  0  0  0
 21 22  1  0  0  0
  5 12  1  0  0  0
 12 23  1  0  0  0
 23 24  1  0  0  0
 24 25  2  0  0  0
 25 26  1  0  0  0
 26 27  2  0  0  0
 27 28  1  0  0  0
 28 29  2  0  0  0
 29 30  1  0  0  0
 30 31  2  0  0  0
 31 32  1  0  0  0
 32 33  2  0  0  0
 12  2  1  0  0  0
 33 24  1  0  0  0
 11  4  1  0  0  0
 22 20  1  0  0  0
 33 28  1  0  0  0
 18 16  1  0  0  0
  1 13  1  0  0  0
  1 14  1  0  0  0
M  END
> <minimizedAffinity>
-10.56685

$$$$



 33 38  0  0  0  0  0  0  0  0999 V2000
    2.1444   66.7832   84.7253 N   0  0  0  0  0  0  0  0  0  0  0  0
    1.4667   65.7388   84.2170 C   0  0  0  0  0  0  0  0  0  0  0  0
    0.8898   64.7957   84.9225 N   0  0  0  0  0  0  0  0  0  0  0  0
    0.3118   63.9767   84.0048 C   0  0  0  0  0  0  0  0  0  0  0  0
    0.5439   64.3958   82.7292 C   0  0  0  0  0  0  0  0  0  0  0  0
    0.0482   63.7012   81.5915 C   0  0  0  0  0  0  0  0  0  0  0  0
    0.2380   64.0817   80.4395 O   0  0  0  0  0  0  0  0  0  0  0  0
   -0.6847   62.5553   81.9184 N   0  0  0  0  0  0  0  0  0  0  0  0
   -0.9410   62.0948   83.2236 C   0  0  0  0  0  0  0  0  0  0  0  0
   -1.5984   61.0702   83.4305 O   0  0  0  0  0  0  0  0  0  0  0  0
   -0.4171   62.8432   84.2785 N   0  0  0  0  0  0  0  0  0  0  0  0
    1.3003   65.5354   82.8613 N   0  0  0  0  0  0  0  0  0  0  0  0
    1.9657   67.6939   84.3091 H   0  0  0  0  0  0  0  0  0  0  0  0
    2.0504   66.8535   85.7367 H   0  0  0  0  0  0  0  0  0  0  0  0
   -1.2484   61.7949   80.8122 C   0  0  0  0  0  0  0  0  0  0  0  0
   -2.6356   62.2814   80.4923 C   0  0  0  0  0  0  0  0  0  0  0  0
   -3.3556   61.7694   79.2701 C   0  0  0  0  0  0  0  0  0  0  0  0
   -3.8332   61.3769   80.6409 C   0  0  0  0  0  0  0  0  0  0  0  0
   -0.6772   62.4281   85.6506 C   0  0  0  0  0  0  0  0  0  0  0  0
   -2.0375   62.8872   86.0943 C   0  0  0  0  0  0  0  0  0  0  0  0
   -2.3144   63.2123   87.5404 C   0  0  0  0  0  0  0  0  0  0  0  0
   -2.9126   61.9794   86.9217 C   0  0  0  0  0  0  0  0  0  0  0  0
    1.9250   66.3049   81.7921 C   0  0  0  0  0  0  0  0  0  0  0  0
    1.0870   67.4972   81.3730 C   0  0  0  0  0  0  0  0  0  0  0  0
    0.0048   67.2546   80.5025 C   0  0  0  0  0  0  0  0  0  0  0  0
   -0.8236   68.2864   80.0798 C   0  0  0  0  0  0  0  0  0  0  0  0
   -0.5833   69.5845   80.5132 C   0  0  0  0  0  0  0  0  0  0  0  0
    0.4920   69.8723   81.3643 C   0  0  0  0  0  0  0  0  0  0  0  0
    0.7098   71.1980   81.7743 C   0  0  0  0  0  0  0  0  0  0  0  0
    1.7709   71.5269   82.6133 C   0  0  0  0  0  0  0  0  0  0  0  0
    2.6308   70.5314   83.0509 C   0  0  0  0  0  0  0  0  0  0  0  0
    2.4273   69.2071   82.6519 C   0  0  0  0  0  0  0  0  0  0  0  0
    1.3539   68.8325   81.8050 C   0  0  0  0  0  0  0  0  0  0  0  0
  1  2  1  0  0  0
  2  3  2  0  0  0
  3  4  1  0  0  0
  4  5  2  0  0  0
  5  6  1  0  0  0
  6  7  2  0  0  0
  6  8  1  0  0  0
  8 15  1  0  0  0
 15 16  1  0  0  0
 16 17  1  0  0  0
 17 18  1  0  0  0
  8  9  1  0  0  0
  9 10  2  0  0  0
  9 11  1  0  0  0
 11 19  1  0  0  0
 19 20  1  0  0  0
 20 21  1  0  0  0
 21 22  1  0  0  0
  5 12  1  0  0  0
 12 23  1  0  0  0
 23 24  1  0  0  0
 24 25  2  0  0  0
 25 26  1  0  0  0
 26 27  2  0  0  0
 27 28  1  0  0  0
 28 29  2  0  0  0
 29 30  1  0  0  0
 30 31  2  0  0  0
 31 32  1  0  0  0
 32 33  2  0  0  0
 12  2  1  0  0  0
 33 24  1  0  0  0
 11  4  1  0  0  0
 22 20  1  0  0  0
 33 28  1  0  0  0
 18 16  1  0  0  0
  1 13  1  0  0  0
  1 14  1  0  0  0
M  END
> <minimizedAffinity>
-10.32467

$$$$



 33 38  0  0  0  0  0  0  0  0999 V2000
    1.5722   65.6778   84.9297 N   0  0  0  0  0  0  0  0  0  0  0  0
    1.1543   65.4191   83.6780 C   0  0  0  0  0  0  0  0  0  0  0  0
    0.9527   66.3199   82.7463 N   0  0  0  0  0  0  0  0  0  0  0  0
    0.5669   65.6113   81.6527 C   0  0  0  0  0  0  0  0  0  0  0  0
    0.5083   64.2738   81.9061 C   0  0  0  0  0  0  0  0  0  0  0  0
    0.1233   63.3227   80.9213 C   0  0  0  0  0  0  0  0  0  0  0  0
    0.0847   62.1144   81.1363 O   0  0  0  0  0  0  0  0  0  0  0  0
   -0.1913   63.9007   79.6867 N   0  0  0  0  0  0  0  0  0  0  0  0
   -0.1425   65.2764   79.3930 C   0  0  0  0  0  0  0  0  0  0  0  0
   -0.4370   65.7099   78.2749 O   0  0  0  0  0  0  0  0  0  0  0  0
    0.2497   66.1346   80.4212 N   0  0  0  0  0  0  0  0  0  0  0  0
    0.8811   64.1445   83.2223 N   0  0  0  0  0  0  0  0  0  0  0  0
    2.2912   65.0670   85.3100 H   0  0  0  0  0  0  0  0  0  0  0  0
    1.8578   66.6474   85.0524 H   0  0  0  0  0  0  0  0  0  0  0  0
   -0.5753   62.9952   78.6132 C   0  0  0  0  0  0  0  0  0  0  0  0
   -2.0437   62.6775   78.6927 C   0  0  0  0  0  0  0  0  0  0  0  0
   -2.8154   62.3407   77.4416 C   0  0  0  0  0  0  0  0  0  0  0  0
   -2.5517   61.2753   78.4695 C   0  0  0  0  0  0  0  0  0  0  0  0
    0.3460   67.5653   80.1634 C   0  0  0  0  0  0  0  0  0  0  0  0
    1.7755   67.9673   79.9337 C   0  0  0  0  0  0  0  0  0  0  0  0
    2.4930   68.8734   80.9021 C   0  0  0  0  0  0  0  0  0  0  0  0
    2.1119   69.3839   79.5401 C   0  0  0  0  0  0  0  0  0  0  0  0
    0.8612   62.9284   84.0263 C   0  0  0  0  0  0  0  0  0  0  0  0
   -0.4045   62.8028   84.8522 C   0  0  0  0  0  0  0  0  0  0  0  0
   -1.5964   62.4890   84.1674 C   0  0  0  0  0  0  0  0  0  0  0  0
   -2.7986   62.3407   84.8471 C   0  0  0  0  0  0  0  0  0  0  0  0
   -2.8362   62.5098   86.2258 C   0  0  0  0  0  0  0  0  0  0  0  0
   -1.6784   62.8397   86.9428 C   0  0  0  0  0  0  0  0  0  0  0  0
   -1.7564   63.0121   88.3346 C   0  0  0  0  0  0  0  0  0  0  0  0
   -0.6310   63.3472   89.0826 C   0  0  0  0  0  0  0  0  0  0  0  0
    0.5883   63.5172   88.4451 C   0  0  0  0  0  0  0  0  0  0  0  0
    0.6823   63.3488   87.0604 C   0  0  0  0  0  0  0  0  0  0  0  0
   -0.4394   63.0003   86.2666 C   0  0  0  0  0  0  0  0  0  0  0  0
  1  2  1  0  0  0
  2  3  2  0  0  0
  3  4  1  0  0  0
  4  5  2  0  0  0
  5  6  1  0  0  0
  6  7  2  0  0  0
  6  8  1  0  0  0
  8 15  1  0  0  0
 15 16  1  0  0  0
 16 17  1  0  0  0
 17 18  1  0  0  0
  8  9  1  0  0  0
  9 10  2  0  0  0
  9 11  1  0  0  0
 11 19  1  0  0  0
 19 20  1  0  0  0
 20 21  1  0  0  0
 21 22  1  0  0  0
  5 12  1  0  0  0
 12 23  1  0  0  0
 23 24  1  0  0  0
 24 25  2  0  0  0
 25 26  1  0  0  0
 26 27  2  0  0  0
 27 28  1  0  0  0
 28 29  2  0  0  0
 29 30  1  0  0  0
 30 31  2  0  0  0
 31 32  1  0  0  0
 32 33  2  0  0  0
 12  2  1  0  0  0
 33 24  1  0  0  0
 11  4  1  0  0  0
 22 20  1  0  0  0
 33 28  1  0  0  0
 18 16  1  0  0  0
  1 13  1  0  0  0
  1 14  1  0  0  0
M  END
> <minimizedAffinity>
-9.92792

$$$$



 33 38  0  0  0  0  0  0  0  0999 V2000
   -0.6303   64.5422   80.4671 N   0  0  0  0  0  0  0  0  0  0  0  0
    0.1557   65.3797   81.1666 C   0  0  0  0  0  0  0  0  0  0  0  0
    0.3331   66.6513   80.8990 N   0  0  0  0  0  0  0  0  0  0  0  0
    1.1742   67.0984   81.8683 C   0  0  0  0  0  0  0  0  0  0  0  0
    1.5369   66.1046   82.7271 C   0  0  0  0  0  0  0  0  0  0  0  0
    2.4168   66.3213   83.8233 C   0  0  0  0  0  0  0  0  0  0  0  0
    2.7348   65.4354   84.6118 O   0  0  0  0  0  0  0  0  0  0  0  0
    2.8683   67.6420   83.9179 N   0  0  0  0  0  0  0  0  0  0  0  0
    2.5144   68.6903   83.0478 C   0  0  0  0  0  0  0  0  0  0  0  0
    2.9574   69.8331   83.1982 O   0  0  0  0  0  0  0  0  0  0  0  0
    1.6426   68.3844   82.0020 N   0  0  0  0  0  0  0  0  0  0  0  0
    0.8845   64.9846   82.2709 N   0  0  0  0  0  0  0  0  0  0  0  0
   -1.2226   63.9122   81.0028 H   0  0  0  0  0  0  0  0  0  0  0  0
   -1.1979   65.0274   79.7751 H   0  0  0  0  0  0  0  0  0  0  0  0
    3.7576   67.9572   85.0268 C   0  0  0  0  0  0  0  0  0  0  0  0
    5.1945   67.7947   84.6115 C   0  0  0  0  0  0  0  0  0  0  0  0
    6.2860   67.7684   85.6518 C   0  0  0  0  0  0  0  0  0  0  0  0
    5.9471   66.5177   84.8889 C   0  0  0  0  0  0  0  0  0  0  0  0
    1.2201   69.4384   81.0892 C   0  0  0  0  0  0  0  0  0  0  0  0
    0.1049   70.2455   81.6917 C   0  0  0  0  0  0  0  0  0  0  0  0
   -0.6483   71.2630   80.8724 C   0  0  0  0  0  0  0  0  0  0  0  0
    0.2905   71.7189   81.9550 C   0  0  0  0  0  0  0  0  0  0  0  0
    1.0335   63.6195   82.7610 C   0  0  0  0  0  0  0  0  0  0  0  0
   -0.1658   63.1617   83.5684 C   0  0  0  0  0  0  0  0  0  0  0  0
   -0.3288   63.7132   84.8557 C   0  0  0  0  0  0  0  0  0  0  0  0
   -1.4068   63.3610   85.6577 C   0  0  0  0  0  0  0  0  0  0  0  0
   -2.3416   62.4443   85.1923 C   0  0  0  0  0  0  0  0  0  0  0  0
   -2.2077   61.8589   83.9263 C   0  0  0  0  0  0  0  0  0  0  0  0
   -3.1671   60.9289   83.4930 C   0  0  0  0  0  0  0  0  0  0  0  0
   -3.0666   60.3193   82.2455 C   0  0  0  0  0  0  0  0  0  0  0  0
   -2.0007   60.6312   81.4156 C   0  0  0  0  0  0  0  0  0  0  0  0
   -1.0377   61.5550   81.8324 C   0  0  0  0  0  0  0  0  0  0  0  0
   -1.1104   62.2017   83.0918 C   0  0  0  0  0  0  0  0  0  0  0  0
  1  2  1  0  0  0
  2  3  2  0  0  0
  3  4  1  0  0  0
  4  5  2  0  0  0
  5  6  1  0  0  0
  6  7  2  0  0  0
  6  8  1  0  0  0
  8 15  1  0  0  0
 15 16  1  0  0  0
 16 17  1  0  0  0
 17 18  1  0  0  0
  8  9  1  0  0  0
  9 10  2  0  0  0
  9 11  1  0  0  0
 11 19  1  0  0  0
 19 20  1  0  0  0
 20 21  1  0  0  0
 21 22  1  0  0  0
  5 12  1  0  0  0
 12 23  1  0  0  0
 23 24  1  0  0  0
 24 25  2  0  0  0
 25 26  1  0  0  0
 26 27  2  0  0  0
 27 28  1  0  0  0
 28 29  2  0  0  0
 29 30  1  0  0  0
 30 31  2  0  0  0
 31 32  1  0  0  0
 32 33  2  0  0  0
 12  2  1  0  0  0
 33 24  1  0  0  0
 11  4  1  0  0  0
 22 20  1  0  0  0
 33 28  1  0  0  0
 18 16  1  0  0  0
  1 13  1  0  0  0
  1 14  1  0  0  0
M  END
> <minimizedAffinity>
-9.77882

$$$$



 33 38  0  0  0  0  0  0  0  0999 V2000
   -2.9279   60.8647   81.9911 N   0  0  0  0  0  0  0  0  0  0  0  0
   -2.1419   61.7039   82.6884 C   0  0  0  0  0  0  0  0  0  0  0  0
   -1.7230   61.5045   83.9151 N   0  0  0  0  0  0  0  0  0  0  0  0
   -0.9467   62.5832   84.1990 C   0  0  0  0  0  0  0  0  0  0  0  0
   -0.8972   63.4636   83.1603 C   0  0  0  0  0  0  0  0  0  0  0  0
   -0.1542   64.6750   83.2163 C   0  0  0  0  0  0  0  0  0  0  0  0
   -0.0902   65.4652   82.2786 O   0  0  0  0  0  0  0  0  0  0  0  0
    0.5028   64.8655   84.4367 N   0  0  0  0  0  0  0  0  0  0  0  0
    0.4709   63.9777   85.5285 C   0  0  0  0  0  0  0  0  0  0  0  0
    1.0793   64.2183   86.5757 O   0  0  0  0  0  0  0  0  0  0  0  0
   -0.2820   62.8120   85.3810 N   0  0  0  0  0  0  0  0  0  0  0  0
   -1.6782   62.9011   82.1797 N   0  0  0  0  0  0  0  0  0  0  0  0
   -2.6733   60.6953   81.0209 H   0  0  0  0  0  0  0  0  0  0  0  0
   -3.0601   59.9722   82.4629 H   0  0  0  0  0  0  0  0  0  0  0  0
    1.3060   66.0722   84.5721 C   0  0  0  0  0  0  0  0  0  0  0  0
    2.7077   65.8290   84.0829 C   0  0  0  0  0  0  0  0  0  0  0  0
    3.6860   66.9726   83.9856 C   0  0  0  0  0  0  0  0  0  0  0  0
    3.8854   65.9015   85.0220 C   0  0  0  0  0  0  0  0  0  0  0  0
   -0.3256   61.8441   86.4691 C   0  0  0  0  0  0  0  0  0  0  0  0
   -1.5702   62.0266   87.2910 C   0  0  0  0  0  0  0  0  0  0  0  0
   -2.3687   63.3037   87.2189 C   0  0  0  0  0  0  0  0  0  0  0  0
   -1.5768   62.9839   88.4565 C   0  0  0  0  0  0  0  0  0  0  0  0
   -2.0615   63.5023   80.9079 C   0  0  0  0  0  0  0  0  0  0  0  0
   -1.2671   62.9446   79.7428 C   0  0  0  0  0  0  0  0  0  0  0  0
    0.1300   63.1332   79.7618 C   0  0  0  0  0  0  0  0  0  0  0  0
    0.9360   62.6425   78.7425 C   0  0  0  0  0  0  0  0  0  0  0  0
    0.3612   61.9584   77.6783 C   0  0  0  0  0  0  0  0  0  0  0  0
   -1.0248   61.7644   77.6112 C   0  0  0  0  0  0  0  0  0  0  0  0
   -1.5714   61.0762   76.5154 C   0  0  0  0  0  0  0  0  0  0  0  0
   -2.9438   60.8689   76.4075 C   0  0  0  0  0  0  0  0  0  0  0  0
   -3.7883   61.3514   77.3954 C   0  0  0  0  0  0  0  0  0  0  0  0
   -3.2597   62.0381   78.4924 C   0  0  0  0  0  0  0  0  0  0  0  0
   -1.8677   62.2618   78.6410 C   0  0  0  0  0  0  0  0  0  0  0  0
  1  2  1  0  0  0
  2  3  2  0  0  0
  3  4  1  0  0  0
  4  5  2  0  0  0
  5  6  1  0  0  0
  6  7  2  0  0  0
  6  8  1  0  0  0
  8 15  1  0  0  0
 15 16  1  0  0  0
 16 17  1  0  0  0
 17 18  1  0  0  0
  8  9  1  0  0  0
  9 10  2  0  0  0
  9 11  1  0  0  0
 11 19  1  0  0  0
 19 20  1  0  0  0
 20 21  1  0  0  0
 21 22  1  0  0  0
  5 12  1  0  0  0
 12 23  1  0  0  0
 23 24  1  0  0  0
 24 25  2  0  0  0
 25 26  1  0  0  0
 26 27  2  0  0  0
 27 28  1  0  0  0
 28 29  2  0  0  0
 29 30  1  0  0  0
 30 31  2  0  0  0
 31 32  1  0  0  0
 32 33  2  0  0  0
 12  2  1  0  0  0
 33 24  1  0  0  0
 11  4  1  0  0  0
 22 20  1  0  0  0
 33 28  1  0  0  0
 18 16  1  0  0  0
  1 13  1  0  0  0
  1 14  1  0  0  0
M  END
> <minimizedAffinity>
-9.62433

$$$$



 33 38  0  0  0  0  0  0  0  0999 V2000
    0.1356   60.7348   81.0348 N   0  0  0  0  0  0  0  0  0  0  0  0
    0.3062   62.0685   81.0163 C   0  0  0  0  0  0  0  0  0  0  0  0
    0.3189   62.8147   79.9379 N   0  0  0  0  0  0  0  0  0  0  0  0
    0.4913   64.0837   80.3928 C   0  0  0  0  0  0  0  0  0  0  0  0
    0.6060   64.1278   81.7499 C   0  0  0  0  0  0  0  0  0  0  0  0
    0.8000   65.3423   82.4641 C   0  0  0  0  0  0  0  0  0  0  0  0
    0.8869   65.3927   83.6879 O   0  0  0  0  0  0  0  0  0  0  0  0
    0.8673   66.4673   81.6352 N   0  0  0  0  0  0  0  0  0  0  0  0
    0.7542   66.4557   80.2323 C   0  0  0  0  0  0  0  0  0  0  0  0
    0.8250   67.4950   79.5691 O   0  0  0  0  0  0  0  0  0  0  0  0
    0.5619   65.2175   79.6180 N   0  0  0  0  0  0  0  0  0  0  0  0
    0.4945   62.8208   82.1589 N   0  0  0  0  0  0  0  0  0  0  0  0
   -0.4927   60.3612   81.7420 H   0  0  0  0  0  0  0  0  0  0  0  0
   -0.1271   60.3630   80.1240 H   0  0  0  0  0  0  0  0  0  0  0  0
    1.0429   67.7572   82.2870 C   0  0  0  0  0  0  0  0  0  0  0  0
    2.5008   68.0196   82.5502 C   0  0  0  0  0  0  0  0  0  0  0  0
    2.9567   69.3861   82.9963 C   0  0  0  0  0  0  0  0  0  0  0  0
    3.0154   68.2271   83.9524 C   0  0  0  0  0  0  0  0  0  0  0  0
    0.4088   65.1514   78.1706 C   0  0  0  0  0  0  0  0  0  0  0  0
   -1.0148   64.8423   77.8020 C   0  0  0  0  0  0  0  0  0  0  0  0
   -1.3423   63.7506   76.8147 C   0  0  0  0  0  0  0  0  0  0  0  0
   -1.5368   65.1913   76.4307 C   0  0  0  0  0  0  0  0  0  0  0  0
    0.6766   62.3037   83.5100 C   0  0  0  0  0  0  0  0  0  0  0  0
   -0.6198   62.2728   84.2961 C   0  0  0  0  0  0  0  0  0  0  0  0
   -1.7551   61.7391   83.6525 C   0  0  0  0  0  0  0  0  0  0  0  0
   -2.9796   61.6589   84.3034 C   0  0  0  0  0  0  0  0  0  0  0  0
   -3.0969   62.1173   85.6099 C   0  0  0  0  0  0  0  0  0  0  0  0
   -1.9981   62.6712   86.2802 C   0  0  0  0  0  0  0  0  0  0  0  0
   -2.1565   63.1328   87.5973 C   0  0  0  0  0  0  0  0  0  0  0  0
   -1.0919   63.6964   88.2954 C   0  0  0  0  0  0  0  0  0  0  0  0
    0.1462   63.8078   87.6816 C   0  0  0  0  0  0  0  0  0  0  0  0
    0.3199   63.3528   86.3712 C   0  0  0  0  0  0  0  0  0  0  0  0
   -0.7378   62.7666   85.6314 C   0  0  0  0  0  0  0  0  0  0  0  0
  1  2  1  0  0  0
  2  3  2  0  0  0
  3  4  1  0  0  0
  4  5  2  0  0  0
  5  6  1  0  0  0
  6  7  2  0  0  0
  6  8  1  0  0  0
  8 15  1  0  0  0
 15 16  1  0  0  0
 16 17  1  0  0  0
 17 18  1  0  0  0
  8  9  1  0  0  0
  9 10  2  0  0  0
  9 11  1  0  0  0
 11 19  1  0  0  0
 19 20  1  0  0  0
 20 21  1  0  0  0
 21 22  1  0  0  0
  5 12  1  0  0  0
 12 23  1  0  0  0
 23 24  1  0  0  0
 24 25  2  0  0  0
 25 26  1  0  0  0
 26 27  2  0  0  0
 27 28  1  0  0  0
 28 29  2  0  0  0
 29 30  1  0  0  0
 30 31  2  0  0  0
 31 32  1  0  0  0
 32 33  2  0  0  0
 12  2  1  0  0  0
 33 24  1  0  0  0
 11  4  1  0  0  0
 22 20  1  0  0  0
 33 28  1  0  0  0
 18 16  1  0  0  0
  1 13  1  0  0  0
  1 14  1  0  0  0
M  END
> <minimizedAffinity>
-9.60612

$$$$



 33 38  0  0  0  0  0  0  0  0999 V2000
   -0.1144   65.3743   78.1632 N   0  0  0  0  0  0  0  0  0  0  0  0
    0.2702   65.5193   79.4436 C   0  0  0  0  0  0  0  0  0  0  0  0
    0.6021   66.6548   80.0099 N   0  0  0  0  0  0  0  0  0  0  0  0
    0.8907   66.3317   81.2980 C   0  0  0  0  0  0  0  0  0  0  0  0
    0.7590   64.9956   81.5306 C   0  0  0  0  0  0  0  0  0  0  0  0
    1.0121   64.4097   82.8015 C   0  0  0  0  0  0  0  0  0  0  0  0
    0.8790   63.2095   83.0240 O   0  0  0  0  0  0  0  0  0  0  0  0
    1.4121   65.3377   83.7691 N   0  0  0  0  0  0  0  0  0  0  0  0
    1.5590   66.7220   83.5613 C   0  0  0  0  0  0  0  0  0  0  0  0
    1.9181   67.4778   84.4694 O   0  0  0  0  0  0  0  0  0  0  0  0
    1.2855   67.2076   82.2819 N   0  0  0  0  0  0  0  0  0  0  0  0
    0.3641   64.4624   80.3274 N   0  0  0  0  0  0  0  0  0  0  0  0
   -0.9143   64.7707   77.9888 H   0  0  0  0  0  0  0  0  0  0  0  0
   -0.2614   66.2674   77.6971 H   0  0  0  0  0  0  0  0  0  0  0  0
    1.6711   64.8254   85.1070 C   0  0  0  0  0  0  0  0  0  0  0  0
    0.3857   64.6928   85.8776 C   0  0  0  0  0  0  0  0  0  0  0  0
   -0.2195   63.3319   86.1142 C   0  0  0  0  0  0  0  0  0  0  0  0
    0.3653   64.1028   87.2653 C   0  0  0  0  0  0  0  0  0  0  0  0
    1.3930   68.6366   82.0193 C   0  0  0  0  0  0  0  0  0  0  0  0
    2.7492   68.9733   81.4669 C   0  0  0  0  0  0  0  0  0  0  0  0
    3.8345   69.5271   82.3554 C   0  0  0  0  0  0  0  0  0  0  0  0
    3.1783   70.4130   81.3328 C   0  0  0  0  0  0  0  0  0  0  0  0
    0.2080   63.0501   80.0004 C   0  0  0  0  0  0  0  0  0  0  0  0
   -1.2438   62.6121   80.0101 C   0  0  0  0  0  0  0  0  0  0  0  0
   -1.9005   62.5734   81.2572 C   0  0  0  0  0  0  0  0  0  0  0  0
   -3.2341   62.1980   81.3564 C   0  0  0  0  0  0  0  0  0  0  0  0
   -3.9381   61.8464   80.2112 C   0  0  0  0  0  0  0  0  0  0  0  0
   -3.3187   61.8539   78.9543 C   0  0  0  0  0  0  0  0  0  0  0  0
   -4.0593   61.4832   77.8197 C   0  0  0  0  0  0  0  0  0  0  0  0
   -3.4792   61.4704   76.5542 C   0  0  0  0  0  0  0  0  0  0  0  0
   -2.1472   61.8262   76.4086 C   0  0  0  0  0  0  0  0  0  0  0  0
   -1.3969   62.1978   77.5281 C   0  0  0  0  0  0  0  0  0  0  0  0
   -1.9544   62.2304   78.8311 C   0  0  0  0  0  0  0  0  0  0  0  0
  1  2  1  0  0  0
  2  3  2  0  0  0
  3  4  1  0  0  0
  4  5  2  0  0  0
  5  6  1  0  0  0
  6  7  2  0  0  0
  6  8  1  0  0  0
  8 15  1  0  0  0
 15 16  1  0  0  0
 16 17  1  0  0  0
 17 18  1  0  0  0
  8  9  1  0  0  0
  9 10  2  0  0  0
  9 11  1  0  0  0
 11 19  1  0  0  0
 19 20  1  0  0  0
 20 21  1  0  0  0
 21 22  1  0  0  0
  5 12  1  0  0  0
 12 23  1  0  0  0
 23 24  1  0  0  0
 24 25  2  0  0  0
 25 26  1  0  0  0
 26 27  2  0  0  0
 27 28  1  0  0  0
 28 29  2  0  0  0
 29 30  1  0  0  0
 30 31  2  0  0  0
 31 32  1  0  0  0
 32 33  2  0  0  0
 12  2  1  0  0  0
 33 24  1  0  0  0
 11  4  1  0  0  0
 22 20  1  0  0  0
 33 28  1  0  0  0
 18 16  1  0  0  0
  1 13  1  0  0  0
  1 14  1  0  0  0
M  END
> <minimizedAffinity>
-9.59791

$$$$



 33 38  0  0  0  0  0  0  0  0999 V2000
    0.3124   63.0941   83.3610 N   0  0  0  0  0  0  0  0  0  0  0  0
    0.7446   64.3535   83.1729 C   0  0  0  0  0  0  0  0  0  0  0  0
    1.6644   64.9528   83.8903 N   0  0  0  0  0  0  0  0  0  0  0  0
    1.7943   66.1855   83.3330 C   0  0  0  0  0  0  0  0  0  0  0  0
    0.9439   66.3628   82.2833 C   0  0  0  0  0  0  0  0  0  0  0  0
    0.8860   67.5735   81.5392 C   0  0  0  0  0  0  0  0  0  0  0  0
    0.1351   67.7353   80.5812 O   0  0  0  0  0  0  0  0  0  0  0  0
    1.7764   68.5494   81.9996 N   0  0  0  0  0  0  0  0  0  0  0  0
    2.6656   68.3988   83.0803 C   0  0  0  0  0  0  0  0  0  0  0  0
    3.4225   69.3107   83.4270 O   0  0  0  0  0  0  0  0  0  0  0  0
    2.6546   67.1742   83.7494 N   0  0  0  0  0  0  0  0  0  0  0  0
    0.2543   65.1788   82.1802 N   0  0  0  0  0  0  0  0  0  0  0  0
    0.1938   62.5195   82.5301 H   0  0  0  0  0  0  0  0  0  0  0  0
    0.8752   62.5866   84.0410 H   0  0  0  0  0  0  0  0  0  0  0  0
    1.7984   69.8146   81.2796 C   0  0  0  0  0  0  0  0  0  0  0  0
    0.9001   70.8176   81.9509 C   0  0  0  0  0  0  0  0  0  0  0  0
    0.5946   72.1319   81.2775 C   0  0  0  0  0  0  0  0  0  0  0  0
   -0.4861   71.0971   81.4270 C   0  0  0  0  0  0  0  0  0  0  0  0
    3.5756   66.9539   84.8567 C   0  0  0  0  0  0  0  0  0  0  0  0
    4.8558   66.3383   84.3667 C   0  0  0  0  0  0  0  0  0  0  0  0
    5.7446   65.5506   85.2958 C   0  0  0  0  0  0  0  0  0  0  0  0
    6.1849   66.9014   84.8036 C   0  0  0  0  0  0  0  0  0  0  0  0
   -0.8682   64.8892   81.2959 C   0  0  0  0  0  0  0  0  0  0  0  0
   -0.4793   63.9762   80.1492 C   0  0  0  0  0  0  0  0  0  0  0  0
    0.5503   64.4154   79.2919 C   0  0  0  0  0  0  0  0  0  0  0  0
    0.9796   63.6359   78.2254 C   0  0  0  0  0  0  0  0  0  0  0  0
    0.3835   62.4032   77.9888 C   0  0  0  0  0  0  0  0  0  0  0  0
   -0.6551   61.9369   78.8056 C   0  0  0  0  0  0  0  0  0  0  0  0
   -1.2403   60.6899   78.5304 C   0  0  0  0  0  0  0  0  0  0  0  0
   -2.2794   60.1940   79.3131 C   0  0  0  0  0  0  0  0  0  0  0  0
   -2.7486   60.9428   80.3813 C   0  0  0  0  0  0  0  0  0  0  0  0
   -2.1764   62.1857   80.6682 C   0  0  0  0  0  0  0  0  0  0  0  0
   -1.1123   62.7201   79.8991 C   0  0  0  0  0  0  0  0  0  0  0  0
  1  2  1  0  0  0
  2  3  2  0  0  0
  3  4  1  0  0  0
  4  5  2  0  0  0
  5  6  1  0  0  0
  6  7  2  0  0  0
  6  8  1  0  0  0
  8 15  1  0  0  0
 15 16  1  0  0  0
 16 17  1  0  0  0
 17 18  1  0  0  0
  8  9  1  0  0  0
  9 10  2  0  0  0
  9 11  1  0  0  0
 11 19  1  0  0  0
 19 20  1  0  0  0
 20 21  1  0  0  0
 21 22  1  0  0  0
  5 12  1  0  0  0
 12 23  1  0  0  0
 23 24  1  0  0  0
 24 25  2  0  0  0
 25 26  1  0  0  0
 26 27  2  0  0  0
 27 28  1  0  0  0
 28 29  2  0  0  0
 29 30  1  0  0  0
 30 31  2  0  0  0
 31 32  1  0  0  0
 32 33  2  0  0  0
 12  2  1  0  0  0
 33 24  1  0  0  0
 11  4  1  0  0  0
 22 20  1  0  0  0
 33 28  1  0  0  0
 18 16  1  0  0  0
  1 13  1  0  0  0
  1 14  1  0  0  0
M  END
> <minimizedAffinity>
-9.52584

$$$$



 33 38  0  0  0  0  0  0  0  0999 V2000
   -0.4452   66.3293   79.0015 N   0  0  0  0  0  0  0  0  0  0  0  0
    0.0943   66.2140   80.2278 C   0  0  0  0  0  0  0  0  0  0  0  0
   -0.3319   65.4060   81.1689 N   0  0  0  0  0  0  0  0  0  0  0  0
    0.5167   65.6054   82.2115 C   0  0  0  0  0  0  0  0  0  0  0  0
    1.4578   66.5496   81.9298 C   0  0  0  0  0  0  0  0  0  0  0  0
    2.4562   66.9401   82.8643 C   0  0  0  0  0  0  0  0  0  0  0  0
    3.3184   67.7773   82.6124 O   0  0  0  0  0  0  0  0  0  0  0  0
    2.3638   66.2665   84.0870 N   0  0  0  0  0  0  0  0  0  0  0  0
    1.4044   65.2886   84.4099 C   0  0  0  0  0  0  0  0  0  0  0  0
    1.3885   64.7382   85.5153 O   0  0  0  0  0  0  0  0  0  0  0  0
    0.4657   64.9673   83.4286 N   0  0  0  0  0  0  0  0  0  0  0  0
    1.1829   66.9538   80.6456 N   0  0  0  0  0  0  0  0  0  0  0  0
    0.2009   66.3740   78.2171 H   0  0  0  0  0  0  0  0  0  0  0  0
   -1.1473   65.6157   78.8161 H   0  0  0  0  0  0  0  0  0  0  0  0
    3.3625   66.5903   85.0956 C   0  0  0  0  0  0  0  0  0  0  0  0
    4.5384   65.6578   84.9900 C   0  0  0  0  0  0  0  0  0  0  0  0
    5.9396   66.1788   85.1889 C   0  0  0  0  0  0  0  0  0  0  0  0
    5.3298   65.2588   86.2101 C   0  0  0  0  0  0  0  0  0  0  0  0
   -0.5318   63.9404   83.6993 C   0  0  0  0  0  0  0  0  0  0  0  0
    0.0684   62.5696   83.5629 C   0  0  0  0  0  0  0  0  0  0  0  0
    0.7472   62.1421   82.2861 C   0  0  0  0  0  0  0  0  0  0  0  0
   -0.5785   61.5434   82.6668 C   0  0  0  0  0  0  0  0  0  0  0  0
    1.8173   68.0421   79.9115 C   0  0  0  0  0  0  0  0  0  0  0  0
    1.4197   69.4058   80.4426 C   0  0  0  0  0  0  0  0  0  0  0  0
    0.0798   69.5783   80.8462 C   0  0  0  0  0  0  0  0  0  0  0  0
   -0.3668   70.7898   81.3582 C   0  0  0  0  0  0  0  0  0  0  0  0
    0.5155   71.8574   81.4710 C   0  0  0  0  0  0  0  0  0  0  0  0
    1.8509   71.7342   81.0649 C   0  0  0  0  0  0  0  0  0  0  0  0
    2.7115   72.8378   81.1851 C   0  0  0  0  0  0  0  0  0  0  0  0
    4.0431   72.7589   80.7864 C   0  0  0  0  0  0  0  0  0  0  0  0
    4.5299   71.5730   80.2585 C   0  0  0  0  0  0  0  0  0  0  0  0
    3.6859   70.4657   80.1326 C   0  0  0  0  0  0  0  0  0  0  0  0
    2.3271   70.5053   80.5346 C   0  0  0  0  0  0  0  0  0  0  0  0
  1  2  1  0  0  0
  2  3  2  0  0  0
  3  4  1  0  0  0
  4  5  2  0  0  0
  5  6  1  0  0  0
  6  7  2  0  0  0
  6  8  1  0  0  0
  8 15  1  0  0  0
 15 16  1  0  0  0
 16 17  1  0  0  0
 17 18  1  0  0  0
  8  9  1  0  0  0
  9 10  2  0  0  0
  9 11  1  0  0  0
 11 19  1  0  0  0
 19 20  1  0  0  0
 20 21  1  0  0  0
 21 22  1  0  0  0
  5 12  1  0  0  0
 12 23  1  0  0  0
 23 24  1  0  0  0
 24 25  2  0  0  0
 25 26  1  0  0  0
 26 27  2  0  0  0
 27 28  1  0  0  0
 28 29  2  0  0  0
 29 30  1  0  0  0
 30 31  2  0  0  0
 31 32  1  0  0  0
 32 33  2  0  0  0
 12  2  1  0  0  0
 33 24  1  0  0  0
 11  4  1  0  0  0
 22 20  1  0  0  0
 33 28  1  0  0  0
 18 16  1  0  0  0
  1 13  1  0  0  0
  1 14  1  0  0  0
M  END
> <minimizedAffinity>
-9.40168

$$$$
