


 32 34  0  0  0  0  0  0  0  0999 V2000
    0.2144   64.7142   82.3965 C   0  0  0  0  0  0  0  0  0  0  0  0
    0.8349   65.6038   81.5049 C   0  0  0  0  0  0  0  0  0  0  0  0
    1.6906   66.6050   81.9708 C   0  0  0  0  0  0  0  0  0  0  0  0
    1.9349   66.7168   83.3367 C   0  0  0  0  0  0  0  0  0  0  0  0
    1.3348   65.8396   84.2419 C   0  0  0  0  0  0  0  0  0  0  0  0
    0.4682   64.8324   83.7833 C   0  0  0  0  0  0  0  0  0  0  0  0
   -0.1460   63.9461   84.8288 C   0  0  0  0  0  0  0  0  0  0  0  0
    0.3389   63.9082   86.0317 N   0  0  0  0  0  0  0  0  0  0  0  0
   -0.2590   63.0722   86.9633 C   0  0  0  0  0  0  0  0  0  0  0  0
   -1.3247   62.3066   86.6785 C   0  0  0  0  0  0  0  0  0  0  0  0
   -1.8813   62.3585   85.3247 C   0  0  0  0  0  0  0  0  0  0  0  0
   -2.8690   61.7059   85.0134 O   0  0  0  0  0  0  0  0  0  0  0  0
   -1.2243   63.1817   84.4651 N   0  0  0  0  0  0  0  0  0  0  0  0
   -1.6004   63.2490   83.5273 H   0  0  0  0  0  0  0  0  0  0  0  0
    0.3392   63.0487   88.3600 C   0  0  0  0  0  0  0  0  0  0  0  0
   -0.3766   63.7931   89.2477 F   0  0  0  0  0  0  0  0  0  0  0  0
    0.3947   61.7915   88.8724 F   0  0  0  0  0  0  0  0  0  0  0  0
    1.6052   63.5435   88.3813 F   0  0  0  0  0  0  0  0  0  0  0  0
    3.0183   67.9846   83.9510 S   0  0  0  0  0  0  0  0  0  0  0  0
    3.1639   68.9499   82.8841 O   0  0  0  0  0  0  0  0  0  0  0  0
    2.5459   68.3753   85.2612 O   0  0  0  0  0  0  0  0  0  0  0  0
    4.4895   67.1538   84.1434 N   0  0  0  0  0  0  0  0  0  0  0  0
    4.4122   65.7311   84.5957 C   0  0  0  0  0  0  0  0  0  0  0  0
    4.3469   65.5965   86.1324 C   0  0  0  0  0  0  0  0  0  0  0  0
    5.3827   66.3400   86.8769 N   0  0  0  0  0  0  0  0  0  0  0  0
    6.6917   65.6988   86.7772 C   0  0  0  0  0  0  0  0  0  0  0  0
    5.4150   67.7408   86.4074 C   0  0  0  0  0  0  0  0  0  0  0  0
    5.5491   67.9051   84.8817 C   0  0  0  0  0  0  0  0  0  0  0  0
   -0.6376   63.7173   81.9923 O   0  0  0  0  0  0  0  0  0  0  0  0
   -0.1852   62.7963   80.9965 C   0  0  0  0  0  0  0  0  0  0  0  0
    1.3564   61.1386   82.1359 C   0  0  0  0  0  0  0  0  0  0  0  0
   -0.0542   61.4144   81.6340 C   0  0  0  0  0  0  0  0  0  0  0  0
 31 32  1  0  0  0
 32 30  1  0  0  0
 30 29  1  0  0  0
 29  1  1  0  0  0
  1  2  1  0  0  0
  2  3  2  0  0  0
  3  4  1  0  0  0
  4 19  1  0  0  0
 19 20  2  0  0  0
 19 21  2  0  0  0
 19 22  1  0  0  0
 22 23  1  0  0  0
 23 24  1  0  0  0
 24 25  1  0  0  0
 25 26  1  0  0  0
 25 27  1  0  0  0
 27 28  1  0  0  0
  4  5  2  0  0  0
  5  6  1  0  0  0
  6  7  1  0  0  0
  7  8  2  0  0  0
  8  9  1  0  0  0
  9 15  1  0  0  0
 15 16  1  0  0  0
 15 17  1  0  0  0
 15 18  1  0  0  0
  9 10  2  0  0  0
 10 11  1  0  0  0
 11 12  2  0  0  0
 11 13  1  0  0  0
  6  1  2  0  0  0
 13  7  1  0  0  0
 28 22  1  0  0  0
 13 14  1  0  0  0
M  END
> <minimizedAffinity>
-10.02948

$$$$



 32 34  0  0  0  0  0  0  0  0999 V2000
    1.9230   65.9548   83.7085 C   0  0  0  0  0  0  0  0  0  0  0  0
    0.9585   66.4710   82.8284 C   0  0  0  0  0  0  0  0  0  0  0  0
    1.1957   67.6494   82.1163 C   0  0  0  0  0  0  0  0  0  0  0  0
    2.4072   68.3158   82.2781 C   0  0  0  0  0  0  0  0  0  0  0  0
    3.3841   67.8182   83.1423 C   0  0  0  0  0  0  0  0  0  0  0  0
    3.1527   66.6363   83.8672 C   0  0  0  0  0  0  0  0  0  0  0  0
    4.2515   66.1847   84.7861 C   0  0  0  0  0  0  0  0  0  0  0  0
    5.4932   66.2514   84.4152 N   0  0  0  0  0  0  0  0  0  0  0  0
    6.4740   65.8198   85.2960 C   0  0  0  0  0  0  0  0  0  0  0  0
    6.1967   65.3446   86.5208 C   0  0  0  0  0  0  0  0  0  0  0  0
    4.7964   65.2813   86.9459 C   0  0  0  0  0  0  0  0  0  0  0  0
    4.4834   64.8850   88.0608 O   0  0  0  0  0  0  0  0  0  0  0  0
    3.8953   65.6985   86.0173 N   0  0  0  0  0  0  0  0  0  0  0  0
    2.9212   65.6815   86.2934 H   0  0  0  0  0  0  0  0  0  0  0  0
    7.9164   65.9065   84.8257 C   0  0  0  0  0  0  0  0  0  0  0  0
    8.8062   65.8441   85.8547 F   0  0  0  0  0  0  0  0  0  0  0  0
    8.2406   64.8953   83.9780 F   0  0  0  0  0  0  0  0  0  0  0  0
    8.1708   67.0710   84.1720 F   0  0  0  0  0  0  0  0  0  0  0  0
    2.7286   69.8175   81.3837 S   0  0  0  0  0  0  0  0  0  0  0  0
    4.1599   70.0194   81.4250 O   0  0  0  0  0  0  0  0  0  0  0  0
    2.0135   69.7477   80.1282 O   0  0  0  0  0  0  0  0  0  0  0  0
    1.9803   70.9951   82.3557 N   0  0  0  0  0  0  0  0  0  0  0  0
    0.6154   71.4468   81.9464 C   0  0  0  0  0  0  0  0  0  0  0  0
    0.6515   72.5902   80.9095 C   0  0  0  0  0  0  0  0  0  0  0  0
    1.5120   73.7369   81.2623 N   0  0  0  0  0  0  0  0  0  0  0  0
    0.9133   74.5676   82.3043 C   0  0  0  0  0  0  0  0  0  0  0  0
    2.8516   73.2458   81.6471 C   0  0  0  0  0  0  0  0  0  0  0  0
    2.8488   72.1515   82.7312 C   0  0  0  0  0  0  0  0  0  0  0  0
    1.7389   64.8053   84.4349 O   0  0  0  0  0  0  0  0  0  0  0  0
    0.4366   64.5306   84.9575 C   0  0  0  0  0  0  0  0  0  0  0  0
   -0.5900   63.5581   87.0606 C   0  0  0  0  0  0  0  0  0  0  0  0
    0.5390   64.3951   86.4755 C   0  0  0  0  0  0  0  0  0  0  0  0
 31 32  1  0  0  0
 32 30  1  0  0  0
 30 29  1  0  0  0
 29  1  1  0  0  0
  1  2  1  0  0  0
  2  3  2  0  0  0
  3  4  1  0  0  0
  4 19  1  0  0  0
 19 20  2  0  0  0
 19 21  2  0  0  0
 19 22  1  0  0  0
 22 23  1  0  0  0
 23 24  1  0  0  0
 24 25  1  0  0  0
 25 26  1  0  0  0
 25 27  1  0  0  0
 27 28  1  0  0  0
  4  5  2  0  0  0
  5  6  1  0  0  0
  6  7  1  0  0  0
  7  8  2  0  0  0
  8  9  1  0  0  0
  9 15  1  0  0  0
 15 16  1  0  0  0
 15 17  1  0  0  0
 15 18  1  0  0  0
  9 10  2  0  0  0
 10 11  1  0  0  0
 11 12  2  0  0  0
 11 13  1  0  0  0
  6  1  2  0  0  0
 13  7  1  0  0  0
 28 22  1  0  0  0
 13 14  1  0  0  0
M  END
> <minimizedAffinity>
-9.88634

$$$$



 32 34  0  0  0  0  0  0  0  0999 V2000
    1.2536   66.0734   83.1829 C   0  0  0  0  0  0  0  0  0  0  0  0
    1.5255   66.5198   81.8797 C   0  0  0  0  0  0  0  0  0  0  0  0
    1.1148   65.7795   80.7683 C   0  0  0  0  0  0  0  0  0  0  0  0
    0.4216   64.5871   80.9573 C   0  0  0  0  0  0  0  0  0  0  0  0
    0.1337   64.1265   82.2433 C   0  0  0  0  0  0  0  0  0  0  0  0
    0.5474   64.8615   83.3678 C   0  0  0  0  0  0  0  0  0  0  0  0
    0.2101   64.2819   84.7117 C   0  0  0  0  0  0  0  0  0  0  0  0
   -0.9361   63.7090   84.9160 N   0  0  0  0  0  0  0  0  0  0  0  0
   -1.2052   63.1909   86.1743 C   0  0  0  0  0  0  0  0  0  0  0  0
   -0.3277   63.2468   87.1892 C   0  0  0  0  0  0  0  0  0  0  0  0
    0.9717   63.8813   86.9560 C   0  0  0  0  0  0  0  0  0  0  0  0
    1.8234   63.9367   87.8334 O   0  0  0  0  0  0  0  0  0  0  0  0
    1.1481   64.3857   85.7060 N   0  0  0  0  0  0  0  0  0  0  0  0
    2.0454   64.8138   85.5139 H   0  0  0  0  0  0  0  0  0  0  0  0
   -2.5595   62.5329   86.3792 C   0  0  0  0  0  0  0  0  0  0  0  0
   -2.5021   61.4737   87.2333 F   0  0  0  0  0  0  0  0  0  0  0  0
   -3.4739   63.3935   86.8984 F   0  0  0  0  0  0  0  0  0  0  0  0
   -3.0767   62.0567   85.2157 F   0  0  0  0  0  0  0  0  0  0  0  0
   -0.1081   63.6288   79.5576 S   0  0  0  0  0  0  0  0  0  0  0  0
   -0.9910   64.4793   78.7905 O   0  0  0  0  0  0  0  0  0  0  0  0
    1.0652   63.0282   78.9615 O   0  0  0  0  0  0  0  0  0  0  0  0
   -1.0272   62.3939   80.2802 N   0  0  0  0  0  0  0  0  0  0  0  0
   -0.6012   60.9859   80.0149 C   0  0  0  0  0  0  0  0  0  0  0  0
   -1.2010   60.4170   78.7109 C   0  0  0  0  0  0  0  0  0  0  0  0
   -2.6624   60.5708   78.5673 N   0  0  0  0  0  0  0  0  0  0  0  0
   -3.3953   59.6433   79.4259 C   0  0  0  0  0  0  0  0  0  0  0  0
   -3.0361   61.9770   78.8253 C   0  0  0  0  0  0  0  0  0  0  0  0
   -2.5078   62.5499   80.1539 C   0  0  0  0  0  0  0  0  0  0  0  0
    1.6385   66.7590   84.3076 O   0  0  0  0  0  0  0  0  0  0  0  0
    2.9240   67.3849   84.3177 C   0  0  0  0  0  0  0  0  0  0  0  0
    5.3941   66.8881   84.5906 C   0  0  0  0  0  0  0  0  0  0  0  0
    3.9802   66.3247   84.6238 C   0  0  0  0  0  0  0  0  0  0  0  0
 31 32  1  0  0  0
 32 30  1  0  0  0
 30 29  1  0  0  0
 29  1  1  0  0  0
  1  2  1  0  0  0
  2  3  2  0  0  0
  3  4  1  0  0  0
  4 19  1  0  0  0
 19 20  2  0  0  0
 19 21  2  0  0  0
 19 22  1  0  0  0
 22 23  1  0  0  0
 23 24  1  0  0  0
 24 25  1  0  0  0
 25 26  1  0  0  0
 25 27  1  0  0  0
 27 28  1  0  0  0
  4  5  2  0  0  0
  5  6  1  0  0  0
  6  7  1  0  0  0
  7  8  2  0  0  0
  8  9  1  0  0  0
  9 15  1  0  0  0
 15 16  1  0  0  0
 15 17  1  0  0  0
 15 18  1  0  0  0
  9 10  2  0  0  0
 10 11  1  0  0  0
 11 12  2  0  0  0
 11 13  1  0  0  0
  6  1  2  0  0  0
 13  7  1  0  0  0
 28 22  1  0  0  0
 13 14  1  0  0  0
M  END
> <minimizedAffinity>
-9.75609

$$$$



 32 34  0  0  0  0  0  0  0  0999 V2000
    3.3134   66.0210   84.8470 C   0  0  0  0  0  0  0  0  0  0  0  0
    4.1205   66.9379   84.1546 C   0  0  0  0  0  0  0  0  0  0  0  0
    3.5950   67.7176   83.1212 C   0  0  0  0  0  0  0  0  0  0  0  0
    2.2519   67.5867   82.7790 C   0  0  0  0  0  0  0  0  0  0  0  0
    1.4283   66.6867   83.4575 C   0  0  0  0  0  0  0  0  0  0  0  0
    1.9490   65.8940   84.4950 C   0  0  0  0  0  0  0  0  0  0  0  0
    0.9953   64.9413   85.1571 C   0  0  0  0  0  0  0  0  0  0  0  0
    0.1505   64.2540   84.4517 N   0  0  0  0  0  0  0  0  0  0  0  0
   -0.7134   63.3888   85.1067 C   0  0  0  0  0  0  0  0  0  0  0  0
   -0.7082   63.2227   86.4392 C   0  0  0  0  0  0  0  0  0  0  0  0
    0.2540   63.9879   87.2354 C   0  0  0  0  0  0  0  0  0  0  0  0
    0.3261   63.8579   88.4504 O   0  0  0  0  0  0  0  0  0  0  0  0
    1.0471   64.8312   86.5226 N   0  0  0  0  0  0  0  0  0  0  0  0
    1.7334   65.3586   87.0482 H   0  0  0  0  0  0  0  0  0  0  0  0
   -1.6933   62.6050   84.2495 C   0  0  0  0  0  0  0  0  0  0  0  0
   -2.1927   63.3426   83.2195 F   0  0  0  0  0  0  0  0  0  0  0  0
   -1.1206   61.5068   83.6908 F   0  0  0  0  0  0  0  0  0  0  0  0
   -2.7659   62.1742   84.9650 F   0  0  0  0  0  0  0  0  0  0  0  0
    1.5637   68.5671   81.4662 S   0  0  0  0  0  0  0  0  0  0  0  0
    2.6743   68.9725   80.6335 O   0  0  0  0  0  0  0  0  0  0  0  0
    0.4354   67.8461   80.9187 O   0  0  0  0  0  0  0  0  0  0  0  0
    0.9717   69.9302   82.2928 N   0  0  0  0  0  0  0  0  0  0  0  0
   -0.2455   70.5905   81.7300 C   0  0  0  0  0  0  0  0  0  0  0  0
    0.0901   71.6278   80.6366 C   0  0  0  0  0  0  0  0  0  0  0  0
    1.1183   72.6221   81.0027 N   0  0  0  0  0  0  0  0  0  0  0  0
    0.6019   73.6231   81.9332 C   0  0  0  0  0  0  0  0  0  0  0  0
    2.3054   71.9260   81.5411 C   0  0  0  0  0  0  0  0  0  0  0  0
    2.0076   70.9344   82.6815 C   0  0  0  0  0  0  0  0  0  0  0  0
    3.7802   65.2284   85.8652 O   0  0  0  0  0  0  0  0  0  0  0  0
    5.1875   65.1994   86.1160 C   0  0  0  0  0  0  0  0  0  0  0  0
    5.6025   65.4034   88.6078 C   0  0  0  0  0  0  0  0  0  0  0  0
    5.4949   66.1399   87.2798 C   0  0  0  0  0  0  0  0  0  0  0  0
 31 32  1  0  0  0
 32 30  1  0  0  0
 30 29  1  0  0  0
 29  1  1  0  0  0
  1  2  1  0  0  0
  2  3  2  0  0  0
  3  4  1  0  0  0
  4 19  1  0  0  0
 19 20  2  0  0  0
 19 21  2  0  0  0
 19 22  1  0  0  0
 22 23  1  0  0  0
 23 24  1  0  0  0
 24 25  1  0  0  0
 25 26  1  0  0  0
 25 27  1  0  0  0
 27 28  1  0  0  0
  4  5  2  0  0  0
  5  6  1  0  0  0
  6  7  1  0  0  0
  7  8  2  0  0  0
  8  9  1  0  0  0
  9 15  1  0  0  0
 15 16  1  0  0  0
 15 17  1  0  0  0
 15 18  1  0  0  0
  9 10  2  0  0  0
 10 11  1  0  0  0
 11 12  2  0  0  0
 11 13  1  0  0  0
  6  1  2  0  0  0
 13  7  1  0  0  0
 28 22  1  0  0  0
 13 14  1  0  0  0
M  END
> <minimizedAffinity>
-9.72046

$$$$



 32 34  0  0  0  0  0  0  0  0999 V2000
    0.2093   63.9450   85.2454 C   0  0  0  0  0  0  0  0  0  0  0  0
   -0.5661   62.7765   85.1759 C   0  0  0  0  0  0  0  0  0  0  0  0
   -0.6949   62.0721   83.9763 C   0  0  0  0  0  0  0  0  0  0  0  0
   -0.0402   62.5329   82.8374 C   0  0  0  0  0  0  0  0  0  0  0  0
    0.7417   63.6885   82.8836 C   0  0  0  0  0  0  0  0  0  0  0  0
    0.8731   64.4070   84.0845 C   0  0  0  0  0  0  0  0  0  0  0  0
    1.7190   65.6471   84.0374 C   0  0  0  0  0  0  0  0  0  0  0  0
    1.3951   66.6397   83.2670 N   0  0  0  0  0  0  0  0  0  0  0  0
    2.2081   67.7635   83.2538 C   0  0  0  0  0  0  0  0  0  0  0  0
    3.3115   67.8747   84.0109 C   0  0  0  0  0  0  0  0  0  0  0  0
    3.6708   66.7603   84.8910 C   0  0  0  0  0  0  0  0  0  0  0  0
    4.6483   66.8147   85.6257 O   0  0  0  0  0  0  0  0  0  0  0  0
    2.8386   65.6872   84.8274 N   0  0  0  0  0  0  0  0  0  0  0  0
    3.0553   64.9104   85.4398 H   0  0  0  0  0  0  0  0  0  0  0  0
    1.8018   68.9037   82.3351 C   0  0  0  0  0  0  0  0  0  0  0  0
    2.6787   69.0862   81.3093 F   0  0  0  0  0  0  0  0  0  0  0  0
    0.5858   68.6947   81.7660 F   0  0  0  0  0  0  0  0  0  0  0  0
    1.7341   70.0907   82.9943 F   0  0  0  0  0  0  0  0  0  0  0  0
   -0.1924   61.6535   81.3006 S   0  0  0  0  0  0  0  0  0  0  0  0
    1.1500   61.2932   80.9012 O   0  0  0  0  0  0  0  0  0  0  0  0
   -1.2245   60.6528   81.4624 O   0  0  0  0  0  0  0  0  0  0  0  0
   -0.7760   62.8515   80.2443 N   0  0  0  0  0  0  0  0  0  0  0  0
   -1.9421   62.4880   79.3825 C   0  0  0  0  0  0  0  0  0  0  0  0
   -1.5198   61.7953   78.0687 C   0  0  0  0  0  0  0  0  0  0  0  0
   -0.4768   62.4945   77.2921 N   0  0  0  0  0  0  0  0  0  0  0  0
   -1.0023   63.6778   76.6152 C   0  0  0  0  0  0  0  0  0  0  0  0
    0.6590   62.8224   78.1787 C   0  0  0  0  0  0  0  0  0  0  0  0
    0.2739   63.5755   79.4659 C   0  0  0  0  0  0  0  0  0  0  0  0
    0.3647   64.6763   86.3960 O   0  0  0  0  0  0  0  0  0  0  0  0
   -0.2040   64.1713   87.6067 C   0  0  0  0  0  0  0  0  0  0  0  0
    0.2714   62.2469   89.1859 C   0  0  0  0  0  0  0  0  0  0  0  0
    0.8647   63.3739   88.3520 C   0  0  0  0  0  0  0  0  0  0  0  0
 31 32  1  0  0  0
 32 30  1  0  0  0
 30 29  1  0  0  0
 29  1  1  0  0  0
  1  2  1  0  0  0
  2  3  2  0  0  0
  3  4  1  0  0  0
  4 19  1  0  0  0
 19 20  2  0  0  0
 19 21  2  0  0  0
 19 22  1  0  0  0
 22 23  1  0  0  0
 23 24  1  0  0  0
 24 25  1  0  0  0
 25 26  1  0  0  0
 25 27  1  0  0  0
 27 28  1  0  0  0
  4  5  2  0  0  0
  5  6  1  0  0  0
  6  7  1  0  0  0
  7  8  2  0  0  0
  8  9  1  0  0  0
  9 15  1  0  0  0
 15 16  1  0  0  0
 15 17  1  0  0  0
 15 18  1  0  0  0
  9 10  2  0  0  0
 10 11  1  0  0  0
 11 12  2  0  0  0
 11 13  1  0  0  0
  6  1  2  0  0  0
 13  7  1  0  0  0
 28 22  1  0  0  0
 13 14  1  0  0  0
M  END
> <minimizedAffinity>
-9.60904

$$$$



 32 34  0  0  0  0  0  0  0  0999 V2000
    0.1738   63.9398   85.2550 C   0  0  0  0  0  0  0  0  0  0  0  0
   -0.6352   62.7946   85.1809 C   0  0  0  0  0  0  0  0  0  0  0  0
   -0.7572   62.0793   83.9870 C   0  0  0  0  0  0  0  0  0  0  0  0
   -0.0620   62.5056   82.8587 C   0  0  0  0  0  0  0  0  0  0  0  0
    0.7537   63.6373   82.9098 C   0  0  0  0  0  0  0  0  0  0  0  0
    0.8787   64.3666   84.1050 C   0  0  0  0  0  0  0  0  0  0  0  0
    1.7631   65.5798   84.0634 C   0  0  0  0  0  0  0  0  0  0  0  0
    2.9300   65.5674   84.6308 N   0  0  0  0  0  0  0  0  0  0  0  0
    3.7109   66.7122   84.5697 C   0  0  0  0  0  0  0  0  0  0  0  0
    3.3173   67.8311   83.9401 C   0  0  0  0  0  0  0  0  0  0  0  0
    2.0060   67.8419   83.2876 C   0  0  0  0  0  0  0  0  0  0  0  0
    1.6047   68.8219   82.6738 O   0  0  0  0  0  0  0  0  0  0  0  0
    1.2924   66.6917   83.4143 N   0  0  0  0  0  0  0  0  0  0  0  0
    0.3894   66.6674   82.9565 H   0  0  0  0  0  0  0  0  0  0  0  0
    5.0685   66.6638   85.2506 C   0  0  0  0  0  0  0  0  0  0  0  0
    6.0353   67.3022   84.5348 F   0  0  0  0  0  0  0  0  0  0  0  0
    5.0486   67.2517   86.4754 F   0  0  0  0  0  0  0  0  0  0  0  0
    5.5051   65.3887   85.4281 F   0  0  0  0  0  0  0  0  0  0  0  0
   -0.2048   61.6118   81.3293 S   0  0  0  0  0  0  0  0  0  0  0  0
    1.1397   61.2444   80.9436 O   0  0  0  0  0  0  0  0  0  0  0  0
   -1.2406   60.6153   81.4928 O   0  0  0  0  0  0  0  0  0  0  0  0
   -0.7772   62.8011   80.2571 N   0  0  0  0  0  0  0  0  0  0  0  0
   -1.9824   62.4577   79.4421 C   0  0  0  0  0  0  0  0  0  0  0  0
   -1.6275   61.7136   78.1367 C   0  0  0  0  0  0  0  0  0  0  0  0
   -0.5847   62.3515   77.3087 N   0  0  0  0  0  0  0  0  0  0  0  0
   -1.0877   63.5344   76.6143 C   0  0  0  0  0  0  0  0  0  0  0  0
    0.5898   62.6611   78.1504 C   0  0  0  0  0  0  0  0  0  0  0  0
    0.2734   63.4635   79.4265 C   0  0  0  0  0  0  0  0  0  0  0  0
    0.3243   64.6805   86.4002 O   0  0  0  0  0  0  0  0  0  0  0  0
   -0.2271   64.1728   87.6178 C   0  0  0  0  0  0  0  0  0  0  0  0
    0.2628   62.2136   89.1488 C   0  0  0  0  0  0  0  0  0  0  0  0
    0.8481   63.3625   88.3394 C   0  0  0  0  0  0  0  0  0  0  0  0
 31 32  1  0  0  0
 32 30  1  0  0  0
 30 29  1  0  0  0
 29  1  1  0  0  0
  1  2  1  0  0  0
  2  3  2  0  0  0
  3  4  1  0  0  0
  4 19  1  0  0  0
 19 20  2  0  0  0
 19 21  2  0  0  0
 19 22  1  0  0  0
 22 23  1  0  0  0
 23 24  1  0  0  0
 24 25  1  0  0  0
 25 26  1  0  0  0
 25 27  1  0  0  0
 27 28  1  0  0  0
  4  5  2  0  0  0
  5  6  1  0  0  0
  6  7  1  0  0  0
  7  8  2  0  0  0
  8  9  1  0  0  0
  9 15  1  0  0  0
 15 16  1  0  0  0
 15 17  1  0  0  0
 15 18  1  0  0  0
  9 10  2  0  0  0
 10 11  1  0  0  0
 11 12  2  0  0  0
 11 13  1  0  0  0
  6  1  2  0  0  0
 13  7  1  0  0  0
 28 22  1  0  0  0
 13 14  1  0  0  0
M  END
> <minimizedAffinity>
-9.56444

$$$$



 32 34  0  0  0  0  0  0  0  0999 V2000
    0.4051   64.0104   85.4390 C   0  0  0  0  0  0  0  0  0  0  0  0
   -0.6604   63.1183   85.2380 C   0  0  0  0  0  0  0  0  0  0  0  0
   -1.2280   62.9534   83.9721 C   0  0  0  0  0  0  0  0  0  0  0  0
   -0.7251   63.6793   82.8958 C   0  0  0  0  0  0  0  0  0  0  0  0
    0.3380   64.5671   83.0698 C   0  0  0  0  0  0  0  0  0  0  0  0
    0.9122   64.7439   84.3406 C   0  0  0  0  0  0  0  0  0  0  0  0
    2.0393   65.7318   84.4381 C   0  0  0  0  0  0  0  0  0  0  0  0
    3.2139   65.3573   84.8426 N   0  0  0  0  0  0  0  0  0  0  0  0
    4.2236   66.3053   84.9199 C   0  0  0  0  0  0  0  0  0  0  0  0
    4.0426   67.5930   84.5850 C   0  0  0  0  0  0  0  0  0  0  0  0
    2.7207   68.0142   84.1154 C   0  0  0  0  0  0  0  0  0  0  0  0
    2.5024   69.1675   83.7684 O   0  0  0  0  0  0  0  0  0  0  0  0
    1.7802   67.0328   84.0923 N   0  0  0  0  0  0  0  0  0  0  0  0
    0.8622   67.2945   83.7542 H   0  0  0  0  0  0  0  0  0  0  0  0
    5.5844   65.8325   85.4037 C   0  0  0  0  0  0  0  0  0  0  0  0
    5.5473   64.5719   85.9176 F   0  0  0  0  0  0  0  0  0  0  0  0
    6.5045   65.8110   84.4041 F   0  0  0  0  0  0  0  0  0  0  0  0
    6.0820   66.6299   86.3858 F   0  0  0  0  0  0  0  0  0  0  0  0
   -1.4338   63.4865   81.2775 S   0  0  0  0  0  0  0  0  0  0  0  0
   -2.8678   63.4503   81.4610 O   0  0  0  0  0  0  0  0  0  0  0  0
   -0.8104   64.4547   80.4020 O   0  0  0  0  0  0  0  0  0  0  0  0
   -0.9000   61.9377   80.8213 N   0  0  0  0  0  0  0  0  0  0  0  0
    0.1589   61.8667   79.7687 C   0  0  0  0  0  0  0  0  0  0  0  0
   -0.4203   61.8874   78.3376 C   0  0  0  0  0  0  0  0  0  0  0  0
   -1.4999   60.9142   78.0783 N   0  0  0  0  0  0  0  0  0  0  0  0
   -0.9878   59.5512   77.9577 C   0  0  0  0  0  0  0  0  0  0  0  0
   -2.5281   61.0281   79.1335 C   0  0  0  0  0  0  0  0  0  0  0  0
   -1.9855   60.9416   80.5725 C   0  0  0  0  0  0  0  0  0  0  0  0
    0.9947   64.2133   86.6613 O   0  0  0  0  0  0  0  0  0  0  0  0
    0.1673   64.2028   87.8274 C   0  0  0  0  0  0  0  0  0  0  0  0
   -0.0604   61.8837   88.8238 C   0  0  0  0  0  0  0  0  0  0  0  0
    0.7311   63.1841   88.8162 C   0  0  0  0  0  0  0  0  0  0  0  0
 31 32  1  0  0  0
 32 30  1  0  0  0
 30 29  1  0  0  0
 29  1  1  0  0  0
  1  2  1  0  0  0
  2  3  2  0  0  0
  3  4  1  0  0  0
  4 19  1  0  0  0
 19 20  2  0  0  0
 19 21  2  0  0  0
 19 22  1  0  0  0
 22 23  1  0  0  0
 23 24  1  0  0  0
 24 25  1  0  0  0
 25 26  1  0  0  0
 25 27  1  0  0  0
 27 28  1  0  0  0
  4  5  2  0  0  0
  5  6  1  0  0  0
  6  7  1  0  0  0
  7  8  2  0  0  0
  8  9  1  0  0  0
  9 15  1  0  0  0
 15 16  1  0  0  0
 15 17  1  0  0  0
 15 18  1  0  0  0
  9 10  2  0  0  0
 10 11  1  0  0  0
 11 12  2  0  0  0
 11 13  1  0  0  0
  6  1  2  0  0  0
 13  7  1  0  0  0
 28 22  1  0  0  0
 13 14  1  0  0  0
M  END
> <minimizedAffinity>
-9.48042

$$$$



 32 34  0  0  0  0  0  0  0  0999 V2000
    0.8306   64.8438   84.5475 C   0  0  0  0  0  0  0  0  0  0  0  0
    1.6194   65.9914   84.7269 C   0  0  0  0  0  0  0  0  0  0  0  0
    1.7623   66.9302   83.7022 C   0  0  0  0  0  0  0  0  0  0  0  0
    1.1084   66.7267   82.4902 C   0  0  0  0  0  0  0  0  0  0  0  0
    0.3133   65.5967   82.2907 C   0  0  0  0  0  0  0  0  0  0  0  0
    0.1676   64.6438   83.3137 C   0  0  0  0  0  0  0  0  0  0  0  0
   -0.6919   63.4514   83.0051 C   0  0  0  0  0  0  0  0  0  0  0  0
   -0.6768   62.9131   81.8245 N   0  0  0  0  0  0  0  0  0  0  0  0
   -1.4899   61.8152   81.5843 C   0  0  0  0  0  0  0  0  0  0  0  0
   -2.2855   61.2774   82.5228 C   0  0  0  0  0  0  0  0  0  0  0  0
   -2.2934   61.8758   83.8597 C   0  0  0  0  0  0  0  0  0  0  0  0
   -2.9756   61.4125   84.7642 O   0  0  0  0  0  0  0  0  0  0  0  0
   -1.4894   62.9622   84.0070 N   0  0  0  0  0  0  0  0  0  0  0  0
   -1.4633   63.3836   84.9274 H   0  0  0  0  0  0  0  0  0  0  0  0
   -1.4514   61.2147   80.1889 C   0  0  0  0  0  0  0  0  0  0  0  0
   -1.9526   62.0570   79.2435 F   0  0  0  0  0  0  0  0  0  0  0  0
   -0.1866   60.9095   79.7972 F   0  0  0  0  0  0  0  0  0  0  0  0
   -2.1810   60.0707   80.1055 F   0  0  0  0  0  0  0  0  0  0  0  0
    1.2783   67.9072   81.1727 S   0  0  0  0  0  0  0  0  0  0  0  0
    2.1694   67.3110   80.2022 O   0  0  0  0  0  0  0  0  0  0  0  0
   -0.0471   68.3542   80.8038 O   0  0  0  0  0  0  0  0  0  0  0  0
    2.0812   69.1987   81.9336 N   0  0  0  0  0  0  0  0  0  0  0  0
    1.2890   70.4431   82.1758 C   0  0  0  0  0  0  0  0  0  0  0  0
    1.2918   71.3975   80.9621 C   0  0  0  0  0  0  0  0  0  0  0  0
    2.6235   71.7097   80.4062 N   0  0  0  0  0  0  0  0  0  0  0  0
    3.3677   72.6330   81.2595 C   0  0  0  0  0  0  0  0  0  0  0  0
    3.3648   70.4531   80.1713 C   0  0  0  0  0  0  0  0  0  0  0  0
    3.4366   69.5114   81.3881 C   0  0  0  0  0  0  0  0  0  0  0  0
    0.6611   63.8892   85.5185 O   0  0  0  0  0  0  0  0  0  0  0  0
    0.2752   64.3110   86.8290 C   0  0  0  0  0  0  0  0  0  0  0  0
   -1.8805   63.2940   87.6901 C   0  0  0  0  0  0  0  0  0  0  0  0
   -0.3734   63.1308   87.5500 C   0  0  0  0  0  0  0  0  0  0  0  0
 31 32  1  0  0  0
 32 30  1  0  0  0
 30 29  1  0  0  0
 29  1  1  0  0  0
  1  2  1  0  0  0
  2  3  2  0  0  0
  3  4  1  0  0  0
  4 19  1  0  0  0
 19 20  2  0  0  0
 19 21  2  0  0  0
 19 22  1  0  0  0
 22 23  1  0  0  0
 23 24  1  0  0  0
 24 25  1  0  0  0
 25 26  1  0  0  0
 25 27  1  0  0  0
 27 28  1  0  0  0
  4  5  2  0  0  0
  5  6  1  0  0  0
  6  7  1  0  0  0
  7  8  2  0  0  0
  8  9  1  0  0  0
  9 15  1  0  0  0
 15 16  1  0  0  0
 15 17  1  0  0  0
 15 18  1  0  0  0
  9 10  2  0  0  0
 10 11  1  0  0  0
 11 12  2  0  0  0
 11 13  1  0  0  0
  6  1  2  0  0  0
 13  7  1  0  0  0
 28 22  1  0  0  0
 13 14  1  0  0  0
M  END
> <minimizedAffinity>
-9.46653

$$$$



 32 34  0  0  0  0  0  0  0  0999 V2000
    0.2751   63.9517   85.1679 C   0  0  0  0  0  0  0  0  0  0  0  0
   -0.7139   62.9667   85.0158 C   0  0  0  0  0  0  0  0  0  0  0  0
   -1.3094   62.7349   83.7734 C   0  0  0  0  0  0  0  0  0  0  0  0
   -0.9115   63.4872   82.6717 C   0  0  0  0  0  0  0  0  0  0  0  0
    0.0746   64.4674   82.7970 C   0  0  0  0  0  0  0  0  0  0  0  0
    0.6759   64.7116   84.0439 C   0  0  0  0  0  0  0  0  0  0  0  0
    1.7140   65.7961   84.0893 C   0  0  0  0  0  0  0  0  0  0  0  0
    1.5584   66.8895   83.4081 N   0  0  0  0  0  0  0  0  0  0  0  0
    2.5449   67.8621   83.4780 C   0  0  0  0  0  0  0  0  0  0  0  0
    3.6506   67.7272   84.2279 C   0  0  0  0  0  0  0  0  0  0  0  0
    3.8210   66.4991   85.0078 C   0  0  0  0  0  0  0  0  0  0  0  0
    4.7932   66.3308   85.7321 O   0  0  0  0  0  0  0  0  0  0  0  0
    2.8240   65.5859   84.8657 N   0  0  0  0  0  0  0  0  0  0  0  0
    2.9094   64.7355   85.4087 H   0  0  0  0  0  0  0  0  0  0  0  0
    2.3324   69.1265   82.6624 C   0  0  0  0  0  0  0  0  0  0  0  0
    2.8065   70.2387   83.2893 F   0  0  0  0  0  0  0  0  0  0  0  0
    2.9587   69.0704   81.4578 F   0  0  0  0  0  0  0  0  0  0  0  0
    1.0160   69.3597   82.4162 F   0  0  0  0  0  0  0  0  0  0  0  0
   -1.6576   63.2103   81.0828 S   0  0  0  0  0  0  0  0  0  0  0  0
   -3.0828   63.1202   81.3106 O   0  0  0  0  0  0  0  0  0  0  0  0
   -1.1020   64.1738   80.1578 O   0  0  0  0  0  0  0  0  0  0  0  0
   -1.0712   61.6708   80.6611 N   0  0  0  0  0  0  0  0  0  0  0  0
    0.0111   61.6146   79.6316 C   0  0  0  0  0  0  0  0  0  0  0  0
   -0.5384   61.5981   78.1888 C   0  0  0  0  0  0  0  0  0  0  0  0
   -1.5845   60.5909   77.9221 N   0  0  0  0  0  0  0  0  0  0  0  0
   -1.0321   59.2414   77.8327 C   0  0  0  0  0  0  0  0  0  0  0  0
   -2.6374   60.6910   78.9542 C   0  0  0  0  0  0  0  0  0  0  0  0
   -2.1229   60.6409   80.4051 C   0  0  0  0  0  0  0  0  0  0  0  0
    0.8878   64.2227   86.3655 O   0  0  0  0  0  0  0  0  0  0  0  0
    0.1301   64.0708   87.5685 C   0  0  0  0  0  0  0  0  0  0  0  0
    0.1743   62.1267   89.1937 C   0  0  0  0  0  0  0  0  0  0  0  0
    0.9610   63.2714   88.5705 C   0  0  0  0  0  0  0  0  0  0  0  0
 31 32  1  0  0  0
 32 30  1  0  0  0
 30 29  1  0  0  0
 29  1  1  0  0  0
  1  2  1  0  0  0
  2  3  2  0  0  0
  3  4  1  0  0  0
  4 19  1  0  0  0
 19 20  2  0  0  0
 19 21  2  0  0  0
 19 22  1  0  0  0
 22 23  1  0  0  0
 23 24  1  0  0  0
 24 25  1  0  0  0
 25 26  1  0  0  0
 25 27  1  0  0  0
 27 28  1  0  0  0
  4  5  2  0  0  0
  5  6  1  0  0  0
  6  7  1  0  0  0
  7  8  2  0  0  0
  8  9  1  0  0  0
  9 15  1  0  0  0
 15 16  1  0  0  0
 15 17  1  0  0  0
 15 18  1  0  0  0
  9 10  2  0  0  0
 10 11  1  0  0  0
 11 12  2  0  0  0
 11 13  1  0  0  0
  6  1  2  0  0  0
 13  7  1  0  0  0
 28 22  1  0  0  0
 13 14  1  0  0  0
M  END
> <minimizedAffinity>
-9.44608

$$$$
