


 35 39  0  0  0  0  0  0  0  0999 V2000
   -0.0860   66.5594   80.4452 C   0  0  0  0  0  0  0  0  0  0  0  0
   -0.3651   66.6953   79.0775 C   0  0  0  0  0  0  0  0  0  0  0  0
   -0.4221   65.5701   78.2583 C   0  0  0  0  0  0  0  0  0  0  0  0
   -0.2330   64.3071   78.8190 C   0  0  0  0  0  0  0  0  0  0  0  0
    0.0579   64.1700   80.1818 C   0  0  0  0  0  0  0  0  0  0  0  0
    0.1216   65.2946   81.0292 C   0  0  0  0  0  0  0  0  0  0  0  0
    0.3927   65.1084   82.4640 C   0  0  0  0  0  0  0  0  0  0  0  0
    1.5067   65.6928   82.9671 N   0  0  0  0  0  0  0  0  0  0  0  0
    1.7748   65.5050   84.2696 C   0  0  0  0  0  0  0  0  0  0  0  0
    2.9030   66.1308   84.7185 O   0  0  0  0  0  0  0  0  0  0  0  0
    0.9527   64.7241   85.0735 C   0  0  0  0  0  0  0  0  0  0  0  0
    0.9836   64.3659   86.4023 N   0  0  0  0  0  0  0  0  0  0  0  0
   -0.0762   63.5991   86.5764 C   0  0  0  0  0  0  0  0  0  0  0  0
   -0.5641   62.9322   87.7552 C   0  0  0  0  0  0  0  0  0  0  0  0
    0.1425   63.0308   89.0826 C   0  0  0  0  0  0  0  0  0  0  0  0
   -1.6976   62.1978   87.6404 C   0  0  0  0  0  0  0  0  0  0  0  0
   -2.4266   62.0622   86.3887 C   0  0  0  0  0  0  0  0  0  0  0  0
   -1.9632   62.6878   85.2962 C   0  0  0  0  0  0  0  0  0  0  0  0
   -0.8000   63.4462   85.3950 N   0  0  0  0  0  0  0  0  0  0  0  0
   -0.1401   64.1682   84.4281 C   0  0  0  0  0  0  0  0  0  0  0  0
   -0.4756   64.3089   83.1303 N   0  0  0  0  0  0  0  0  0  0  0  0
    3.2044   66.5682   83.9045 H   0  0  0  0  0  0  0  0  0  0  0  0
   -0.2960   62.8586   77.7829 S   0  0  0  0  0  0  0  0  0  0  0  0
   -1.0119   63.2214   76.5778 O   0  0  0  0  0  0  0  0  0  0  0  0
    1.0446   62.3160   77.7209 O   0  0  0  0  0  0  0  0  0  0  0  0
   -1.2608   61.7845   78.6616 N   0  0  0  0  0  0  0  0  0  0  0  0
   -0.6069   60.9067   79.6716 C   0  0  0  0  0  0  0  0  0  0  0  0
   -1.1342   61.1806   81.0930 C   0  0  0  0  0  0  0  0  0  0  0  0
   -2.5976   61.0564   81.2513 N   0  0  0  0  0  0  0  0  0  0  0  0
   -2.9744   59.7940   81.8822 C   0  0  0  0  0  0  0  0  0  0  0  0
   -3.3070   61.2251   79.9653 C   0  0  0  0  0  0  0  0  0  0  0  0
   -2.6252   62.2474   79.0379 C   0  0  0  0  0  0  0  0  0  0  0  0
   -0.1238   67.6796   81.2394 O   0  0  0  0  0  0  0  0  0  0  0  0
   -0.0266   70.0617   81.3497 C   0  0  0  0  0  0  0  0  0  0  0  0
    0.3432   68.8361   80.5344 C   0  0  0  0  0  0  0  0  0  0  0  0
 34 35  1  0  0  0
 35 33  1  0  0  0
 33  1  1  0  0  0
  1  2  1  0  0  0
  2  3  2  0  0  0
  3  4  1  0  0  0
  4 23  1  0  0  0
 23 24  2  0  0  0
 23 25  2  0  0  0
 23 26  1  0  0  0
 26 27  1  0  0  0
 27 28  1  0  0  0
 28 29  1  0  0  0
 29 30  1  0  0  0
 29 31  1  0  0  0
 31 32  1  0  0  0
  4  5  2  0  0  0
  5  6  1  0  0  0
  6  7  1  0  0  0
  7  8  2  0  0  0
  8  9  1  0  0  0
  9 10  1  0  0  0
  9 11  2  0  0  0
 11 12  1  0  0  0
 12 13  2  0  0  0
 13 14  1  0  0  0
 14 15  1  0  0  0
 14 16  2  0  0  0
 16 17  1  0  0  0
 17 18  2  0  0  0
 18 19  1  0  0  0
 19 20  1  0  0  0
 20 21  2  0  0  0
  6  1  2  0  0  0
 21  7  1  0  0  0
 32 26  1  0  0  0
 20 11  1  0  0  0
 19 13  1  0  0  0
 10 22  1  0  0  0
M  END
> <minimizedAffinity>
-10.24375

$$$$



 35 39  0  0  0  0  0  0  0  0999 V2000
   -0.2265   62.8950   85.5325 C   0  0  0  0  0  0  0  0  0  0  0  0
    0.3908   63.7044   86.4972 C   0  0  0  0  0  0  0  0  0  0  0  0
    1.1151   64.8294   86.1095 C   0  0  0  0  0  0  0  0  0  0  0  0
    1.1901   65.1600   84.7566 C   0  0  0  0  0  0  0  0  0  0  0  0
    0.5851   64.3465   83.7907 C   0  0  0  0  0  0  0  0  0  0  0  0
   -0.1517   63.2031   84.1602 C   0  0  0  0  0  0  0  0  0  0  0  0
   -0.8056   62.3929   83.1195 C   0  0  0  0  0  0  0  0  0  0  0  0
   -1.7729   61.5321   83.5181 N   0  0  0  0  0  0  0  0  0  0  0  0
   -2.3553   60.7704   82.5778 C   0  0  0  0  0  0  0  0  0  0  0  0
   -3.3312   59.9343   83.0410 O   0  0  0  0  0  0  0  0  0  0  0  0
   -1.9703   60.8444   81.2443 C   0  0  0  0  0  0  0  0  0  0  0  0
   -2.3788   60.1996   80.0987 N   0  0  0  0  0  0  0  0  0  0  0  0
   -1.6274   60.6998   79.1360 C   0  0  0  0  0  0  0  0  0  0  0  0
   -1.5995   60.4107   77.7261 C   0  0  0  0  0  0  0  0  0  0  0  0
   -2.5183   59.3949   77.0976 C   0  0  0  0  0  0  0  0  0  0  0  0
   -0.7084   61.0879   76.9613 C   0  0  0  0  0  0  0  0  0  0  0  0
    0.2055   62.0801   77.5060 C   0  0  0  0  0  0  0  0  0  0  0  0
    0.1713   62.3417   78.8214 C   0  0  0  0  0  0  0  0  0  0  0  0
   -0.7371   61.6556   79.6227 N   0  0  0  0  0  0  0  0  0  0  0  0
   -0.9558   61.7496   80.9773 C   0  0  0  0  0  0  0  0  0  0  0  0
   -0.3237   62.5461   81.8620 N   0  0  0  0  0  0  0  0  0  0  0  0
   -3.3243   60.1537   83.9878 H   0  0  0  0  0  0  0  0  0  0  0  0
    2.1187   66.5921   84.2440 S   0  0  0  0  0  0  0  0  0  0  0  0
    1.8284   66.8152   82.8432 O   0  0  0  0  0  0  0  0  0  0  0  0
    1.8893   67.6280   85.2288 O   0  0  0  0  0  0  0  0  0  0  0  0
    3.7269   66.0882   84.3717 N   0  0  0  0  0  0  0  0  0  0  0  0
    4.7925   66.9680   83.8163 C   0  0  0  0  0  0  0  0  0  0  0  0
    5.7656   67.4466   84.9105 C   0  0  0  0  0  0  0  0  0  0  0  0
    6.4137   66.3688   85.6853 N   0  0  0  0  0  0  0  0  0  0  0  0
    7.7883   66.1334   85.2509 C   0  0  0  0  0  0  0  0  0  0  0  0
    5.6341   65.1135   85.6414 C   0  0  0  0  0  0  0  0  0  0  0  0
    4.1143   65.3564   85.6095 C   0  0  0  0  0  0  0  0  0  0  0  0
   -1.0047   61.8446   85.9545 O   0  0  0  0  0  0  0  0  0  0  0  0
   -2.9448   62.9247   86.8294 C   0  0  0  0  0  0  0  0  0  0  0  0
   -1.6836   62.1554   87.1773 C   0  0  0  0  0  0  0  0  0  0  0  0
 34 35  1  0  0  0
 35 33  1  0  0  0
 33  1  1  0  0  0
  1  2  1  0  0  0
  2  3  2  0  0  0
  3  4  1  0  0  0
  4 23  1  0  0  0
 23 24  2  0  0  0
 23 25  2  0  0  0
 23 26  1  0  0  0
 26 27  1  0  0  0
 27 28  1  0  0  0
 28 29  1  0  0  0
 29 30  1  0  0  0
 29 31  1  0  0  0
 31 32  1  0  0  0
  4  5  2  0  0  0
  5  6  1  0  0  0
  6  7  1  0  0  0
  7  8  2  0  0  0
  8  9  1  0  0  0
  9 10  1  0  0  0
  9 11  2  0  0  0
 11 12  1  0  0  0
 12 13  2  0  0  0
 13 14  1  0  0  0
 14 15  1  0  0  0
 14 16  2  0  0  0
 16 17  1  0  0  0
 17 18  2  0  0  0
 18 19  1  0  0  0
 19 20  1  0  0  0
 20 21  2  0  0  0
  6  1  2  0  0  0
 21  7  1  0  0  0
 32 26  1  0  0  0
 20 11  1  0  0  0
 19 13  1  0  0  0
 10 22  1  0  0  0
M  END
> <minimizedAffinity>
-10.14274

$$$$



 35 39  0  0  0  0  0  0  0  0999 V2000
    3.0923   66.5388   84.2741 C   0  0  0  0  0  0  0  0  0  0  0  0
    3.8993   67.6800   84.1581 C   0  0  0  0  0  0  0  0  0  0  0  0
    3.5060   68.7369   83.3403 C   0  0  0  0  0  0  0  0  0  0  0  0
    2.2870   68.6619   82.6669 C   0  0  0  0  0  0  0  0  0  0  0  0
    1.4856   67.5184   82.7714 C   0  0  0  0  0  0  0  0  0  0  0  0
    1.8642   66.4368   83.5921 C   0  0  0  0  0  0  0  0  0  0  0  0
    0.9779   65.2671   83.7067 C   0  0  0  0  0  0  0  0  0  0  0  0
    0.6039   64.8902   84.9532 N   0  0  0  0  0  0  0  0  0  0  0  0
   -0.1830   63.8079   85.0671 C   0  0  0  0  0  0  0  0  0  0  0  0
   -0.5359   63.4882   86.3475 O   0  0  0  0  0  0  0  0  0  0  0  0
   -0.5868   63.0846   83.9510 C   0  0  0  0  0  0  0  0  0  0  0  0
   -1.3675   61.9648   83.7741 N   0  0  0  0  0  0  0  0  0  0  0  0
   -1.3796   61.7563   82.4711 C   0  0  0  0  0  0  0  0  0  0  0  0
   -2.0282   60.7327   81.6941 C   0  0  0  0  0  0  0  0  0  0  0  0
   -2.8651   59.6526   82.3300 C   0  0  0  0  0  0  0  0  0  0  0  0
   -1.8648   60.7637   80.3488 C   0  0  0  0  0  0  0  0  0  0  0  0
   -1.0704   61.7784   79.6737 C   0  0  0  0  0  0  0  0  0  0  0  0
   -0.4701   62.7277   80.4073 C   0  0  0  0  0  0  0  0  0  0  0  0
   -0.6263   62.7115   81.7905 N   0  0  0  0  0  0  0  0  0  0  0  0
   -0.1158   63.5656   82.7400 C   0  0  0  0  0  0  0  0  0  0  0  0
    0.6741   64.6401   82.5441 N   0  0  0  0  0  0  0  0  0  0  0  0
   -0.0856   64.1935   86.8417 H   0  0  0  0  0  0  0  0  0  0  0  0
    1.7732   70.0027   81.6115 S   0  0  0  0  0  0  0  0  0  0  0  0
    2.1047   69.6322   80.2516 O   0  0  0  0  0  0  0  0  0  0  0  0
    0.4168   70.3462   81.9827 O   0  0  0  0  0  0  0  0  0  0  0  0
    2.7851   71.2769   82.0685 N   0  0  0  0  0  0  0  0  0  0  0  0
    3.7859   71.7762   81.0851 C   0  0  0  0  0  0  0  0  0  0  0  0
    3.5392   73.2521   80.7186 C   0  0  0  0  0  0  0  0  0  0  0  0
    3.5124   74.1843   81.8642 N   0  0  0  0  0  0  0  0  0  0  0  0
    4.7608   74.9321   81.9902 C   0  0  0  0  0  0  0  0  0  0  0  0
    3.1932   73.4916   83.1306 C   0  0  0  0  0  0  0  0  0  0  0  0
    2.1990   72.3315   82.9415 C   0  0  0  0  0  0  0  0  0  0  0  0
    3.4670   65.5543   85.1557 O   0  0  0  0  0  0  0  0  0  0  0  0
    5.0947   65.1658   86.8574 C   0  0  0  0  0  0  0  0  0  0  0  0
    4.8747   65.5961   85.4186 C   0  0  0  0  0  0  0  0  0  0  0  0
 34 35  1  0  0  0
 35 33  1  0  0  0
 33  1  1  0  0  0
  1  2  1  0  0  0
  2  3  2  0  0  0
  3  4  1  0  0  0
  4 23  1  0  0  0
 23 24  2  0  0  0
 23 25  2  0  0  0
 23 26  1  0  0  0
 26 27  1  0  0  0
 27 28  1  0  0  0
 28 29  1  0  0  0
 29 30  1  0  0  0
 29 31  1  0  0  0
 31 32  1  0  0  0
  4  5  2  0  0  0
  5  6  1  0  0  0
  6  7  1  0  0  0
  7  8  2  0  0  0
  8  9  1  0  0  0
  9 10  1  0  0  0
  9 11  2  0  0  0
 11 12  1  0  0  0
 12 13  2  0  0  0
 13 14  1  0  0  0
 14 15  1  0  0  0
 14 16  2  0  0  0
 16 17  1  0  0  0
 17 18  2  0  0  0
 18 19  1  0  0  0
 19 20  1  0  0  0
 20 21  2  0  0  0
  6  1  2  0  0  0
 21  7  1  0  0  0
 32 26  1  0  0  0
 20 11  1  0  0  0
 19 13  1  0  0  0
 10 22  1  0  0  0
M  END
> <minimizedAffinity>
-9.91592

$$$$



 35 39  0  0  0  0  0  0  0  0999 V2000
    0.1611   64.0763   85.0627 C   0  0  0  0  0  0  0  0  0  0  0  0
   -0.4966   62.8385   85.1109 C   0  0  0  0  0  0  0  0  0  0  0  0
   -0.5715   62.0394   83.9724 C   0  0  0  0  0  0  0  0  0  0  0  0
    0.0432   62.4677   82.7961 C   0  0  0  0  0  0  0  0  0  0  0  0
    0.6897   63.7086   82.7422 C   0  0  0  0  0  0  0  0  0  0  0  0
    0.7769   64.5340   83.8816 C   0  0  0  0  0  0  0  0  0  0  0  0
    1.4971   65.8150   83.7970 C   0  0  0  0  0  0  0  0  0  0  0  0
    2.5913   65.9659   84.5816 N   0  0  0  0  0  0  0  0  0  0  0  0
    3.2379   67.1418   84.5295 C   0  0  0  0  0  0  0  0  0  0  0  0
    4.3397   67.2260   85.3328 O   0  0  0  0  0  0  0  0  0  0  0  0
    2.7941   68.1776   83.7160 C   0  0  0  0  0  0  0  0  0  0  0  0
    3.2441   69.4554   83.4716 N   0  0  0  0  0  0  0  0  0  0  0  0
    2.3923   69.9589   82.5985 C   0  0  0  0  0  0  0  0  0  0  0  0
    2.3500   71.2555   81.9745 C   0  0  0  0  0  0  0  0  0  0  0  0
    3.3776   72.3189   82.2648 C   0  0  0  0  0  0  0  0  0  0  0  0
    1.3428   71.5024   81.1016 C   0  0  0  0  0  0  0  0  0  0  0  0
    0.3200   70.5196   80.7783 C   0  0  0  0  0  0  0  0  0  0  0  0
    0.3687   69.3144   81.3656 C   0  0  0  0  0  0  0  0  0  0  0  0
    1.3958   69.0429   82.2653 N   0  0  0  0  0  0  0  0  0  0  0  0
    1.6522   67.8979   82.9827 C   0  0  0  0  0  0  0  0  0  0  0  0
    0.9492   66.7479   82.9805 N   0  0  0  0  0  0  0  0  0  0  0  0
    4.3391   66.3414   85.7355 H   0  0  0  0  0  0  0  0  0  0  0  0
   -0.0498   61.4600   81.3293 S   0  0  0  0  0  0  0  0  0  0  0  0
    1.3013   61.0628   80.9928 O   0  0  0  0  0  0  0  0  0  0  0  0
   -1.0855   60.4731   81.5509 O   0  0  0  0  0  0  0  0  0  0  0  0
   -0.5899   62.5358   80.1430 N   0  0  0  0  0  0  0  0  0  0  0  0
    0.4134   63.3926   79.4520 C   0  0  0  0  0  0  0  0  0  0  0  0
    0.4614   63.1083   77.9386 C   0  0  0  0  0  0  0  0  0  0  0  0
   -0.8297   63.2497   77.2349 N   0  0  0  0  0  0  0  0  0  0  0  0
   -0.9172   64.5091   76.5002 C   0  0  0  0  0  0  0  0  0  0  0  0
   -1.9774   63.1060   78.1556 C   0  0  0  0  0  0  0  0  0  0  0  0
   -1.7165   62.0862   79.2790 C   0  0  0  0  0  0  0  0  0  0  0  0
    0.2920   64.7980   86.2242 O   0  0  0  0  0  0  0  0  0  0  0  0
    1.4398   63.6476   87.9721 C   0  0  0  0  0  0  0  0  0  0  0  0
    0.0821   63.9746   87.3776 C   0  0  0  0  0  0  0  0  0  0  0  0
 34 35  1  0  0  0
 35 33  1  0  0  0
 33  1  1  0  0  0
  1  2  1  0  0  0
  2  3  2  0  0  0
  3  4  1  0  0  0
  4 23  1  0  0  0
 23 24  2  0  0  0
 23 25  2  0  0  0
 23 26  1  0  0  0
 26 27  1  0  0  0
 27 28  1  0  0  0
 28 29  1  0  0  0
 29 30  1  0  0  0
 29 31  1  0  0  0
 31 32  1  0  0  0
  4  5  2  0  0  0
  5  6  1  0  0  0
  6  7  1  0  0  0
  7  8  2  0  0  0
  8  9  1  0  0  0
  9 10  1  0  0  0
  9 11  2  0  0  0
 11 12  1  0  0  0
 12 13  2  0  0  0
 13 14  1  0  0  0
 14 15  1  0  0  0
 14 16  2  0  0  0
 16 17  1  0  0  0
 17 18  2  0  0  0
 18 19  1  0  0  0
 19 20  1  0  0  0
 20 21  2  0  0  0
  6  1  2  0  0  0
 21  7  1  0  0  0
 32 26  1  0  0  0
 20 11  1  0  0  0
 19 13  1  0  0  0
 10 22  1  0  0  0
M  END
> <minimizedAffinity>
-9.89959

$$$$



 35 39  0  0  0  0  0  0  0  0999 V2000
    0.1958   64.9209   82.7062 C   0  0  0  0  0  0  0  0  0  0  0  0
   -0.3801   63.7055   82.3086 C   0  0  0  0  0  0  0  0  0  0  0  0
   -0.4065   63.3493   80.9622 C   0  0  0  0  0  0  0  0  0  0  0  0
    0.1756   64.1972   80.0201 C   0  0  0  0  0  0  0  0  0  0  0  0
    0.7400   65.4168   80.4133 C   0  0  0  0  0  0  0  0  0  0  0  0
    0.7769   65.7980   81.7699 C   0  0  0  0  0  0  0  0  0  0  0  0
    1.4122   67.0704   82.1496 C   0  0  0  0  0  0  0  0  0  0  0  0
    2.5852   67.0025   82.8244 N   0  0  0  0  0  0  0  0  0  0  0  0
    3.1572   68.1589   83.1975 C   0  0  0  0  0  0  0  0  0  0  0  0
    4.3433   68.0235   83.8614 O   0  0  0  0  0  0  0  0  0  0  0  0
    2.5622   69.3842   82.9210 C   0  0  0  0  0  0  0  0  0  0  0  0
    2.9103   70.6909   83.1788 N   0  0  0  0  0  0  0  0  0  0  0  0
    1.9319   71.4145   82.6683 C   0  0  0  0  0  0  0  0  0  0  0  0
    1.7444   72.8413   82.6337 C   0  0  0  0  0  0  0  0  0  0  0  0
    2.7421   73.7960   83.2373 C   0  0  0  0  0  0  0  0  0  0  0  0
    0.6257   73.3157   82.0329 C   0  0  0  0  0  0  0  0  0  0  0  0
   -0.3754   72.4482   81.4316 C   0  0  0  0  0  0  0  0  0  0  0  0
   -0.1909   71.1199   81.4696 C   0  0  0  0  0  0  0  0  0  0  0  0
    0.9520   70.6144   82.0829 N   0  0  0  0  0  0  0  0  0  0  0  0
    1.3552   69.3095   82.2447 C   0  0  0  0  0  0  0  0  0  0  0  0
    0.7193   68.1928   81.8379 N   0  0  0  0  0  0  0  0  0  0  0  0
    4.4393   67.0563   83.8668 H   0  0  0  0  0  0  0  0  0  0  0  0
    0.1436   63.7588   78.2931 S   0  0  0  0  0  0  0  0  0  0  0  0
   -0.4269   64.8789   77.5746 O   0  0  0  0  0  0  0  0  0  0  0  0
    1.4541   63.2442   77.9561 O   0  0  0  0  0  0  0  0  0  0  0  0
   -0.9590   62.4795   78.2293 N   0  0  0  0  0  0  0  0  0  0  0  0
   -2.3128   62.7369   77.6643 C   0  0  0  0  0  0  0  0  0  0  0  0
   -2.5788   61.8848   76.4087 C   0  0  0  0  0  0  0  0  0  0  0  0
   -2.4268   60.4278   76.5985 N   0  0  0  0  0  0  0  0  0  0  0  0
   -3.7170   59.7558   76.7308 C   0  0  0  0  0  0  0  0  0  0  0  0
   -1.5566   60.1103   77.7507 C   0  0  0  0  0  0  0  0  0  0  0  0
   -0.4140   61.1258   77.9325 C   0  0  0  0  0  0  0  0  0  0  0  0
    0.2832   65.2002   84.0483 O   0  0  0  0  0  0  0  0  0  0  0  0
    0.4908   64.3869   86.2825 C   0  0  0  0  0  0  0  0  0  0  0  0
    0.2435   64.0034   84.8349 C   0  0  0  0  0  0  0  0  0  0  0  0
 34 35  1  0  0  0
 35 33  1  0  0  0
 33  1  1  0  0  0
  1  2  1  0  0  0
  2  3  2  0  0  0
  3  4  1  0  0  0
  4 23  1  0  0  0
 23 24  2  0  0  0
 23 25  2  0  0  0
 23 26  1  0  0  0
 26 27  1  0  0  0
 27 28  1  0  0  0
 28 29  1  0  0  0
 29 30  1  0  0  0
 29 31  1  0  0  0
 31 32  1  0  0  0
  4  5  2  0  0  0
  5  6  1  0  0  0
  6  7  1  0  0  0
  7  8  2  0  0  0
  8  9  1  0  0  0
  9 10  1  0  0  0
  9 11  2  0  0  0
 11 12  1  0  0  0
 12 13  2  0  0  0
 13 14  1  0  0  0
 14 15  1  0  0  0
 14 16  2  0  0  0
 16 17  1  0  0  0
 17 18  2  0  0  0
 18 19  1  0  0  0
 19 20  1  0  0  0
 20 21  2  0  0  0
  6  1  2  0  0  0
 21  7  1  0  0  0
 32 26  1  0  0  0
 20 11  1  0  0  0
 19 13  1  0  0  0
 10 22  1  0  0  0
M  END
> <minimizedAffinity>
-9.85790

$$$$



 35 39  0  0  0  0  0  0  0  0999 V2000
   -0.0069   64.2040   83.9618 C   0  0  0  0  0  0  0  0  0  0  0  0
    0.4525   64.7092   85.1868 C   0  0  0  0  0  0  0  0  0  0  0  0
    1.3500   65.7742   85.2139 C   0  0  0  0  0  0  0  0  0  0  0  0
    1.7588   66.3532   84.0126 C   0  0  0  0  0  0  0  0  0  0  0  0
    1.3112   65.8425   82.7881 C   0  0  0  0  0  0  0  0  0  0  0  0
    0.4038   64.7650   82.7369 C   0  0  0  0  0  0  0  0  0  0  0  0
   -0.0740   64.2793   81.4320 C   0  0  0  0  0  0  0  0  0  0  0  0
    0.2578   65.0071   80.3384 N   0  0  0  0  0  0  0  0  0  0  0  0
   -0.1971   64.5848   79.1475 C   0  0  0  0  0  0  0  0  0  0  0  0
    0.1830   65.3529   78.0837 O   0  0  0  0  0  0  0  0  0  0  0  0
   -0.9962   63.4530   79.0367 C   0  0  0  0  0  0  0  0  0  0  0  0
   -1.5908   62.8080   77.9758 N   0  0  0  0  0  0  0  0  0  0  0  0
   -2.2304   61.7849   78.5101 C   0  0  0  0  0  0  0  0  0  0  0  0
   -3.0305   60.7582   77.8952 C   0  0  0  0  0  0  0  0  0  0  0  0
   -3.2683   60.7101   76.4078 C   0  0  0  0  0  0  0  0  0  0  0  0
   -3.5764   59.8162   78.7027 C   0  0  0  0  0  0  0  0  0  0  0  0
   -3.3854   59.8061   80.1448 C   0  0  0  0  0  0  0  0  0  0  0  0
   -2.6381   60.7677   80.7076 C   0  0  0  0  0  0  0  0  0  0  0  0
   -2.0697   61.7439   79.8941 N   0  0  0  0  0  0  0  0  0  0  0  0
   -1.2771   62.8153   80.2342 C   0  0  0  0  0  0  0  0  0  0  0  0
   -0.8601   63.1756   81.4643 N   0  0  0  0  0  0  0  0  0  0  0  0
    0.7175   66.0306   78.5306 H   0  0  0  0  0  0  0  0  0  0  0  0
    2.9119   67.7117   84.0303 S   0  0  0  0  0  0  0  0  0  0  0  0
    2.8321   68.3617   82.7390 O   0  0  0  0  0  0  0  0  0  0  0  0
    2.6861   68.4511   85.2542 O   0  0  0  0  0  0  0  0  0  0  0  0
    4.4176   66.9521   84.1419 N   0  0  0  0  0  0  0  0  0  0  0  0
    5.6420   67.7999   84.1422 C   0  0  0  0  0  0  0  0  0  0  0  0
    6.4408   67.6488   85.4508 C   0  0  0  0  0  0  0  0  0  0  0  0
    6.8368   66.2655   85.7849 N   0  0  0  0  0  0  0  0  0  0  0  0
    8.2399   66.0073   85.4715 C   0  0  0  0  0  0  0  0  0  0  0  0
    5.9665   65.2689   85.1255 C   0  0  0  0  0  0  0  0  0  0  0  0
    4.5062   65.7406   85.0034 C   0  0  0  0  0  0  0  0  0  0  0  0
   -0.9572   63.2122   83.9734 O   0  0  0  0  0  0  0  0  0  0  0  0
   -2.5971   62.4881   85.5491 C   0  0  0  0  0  0  0  0  0  0  0  0
   -1.1118   62.6518   85.2829 C   0  0  0  0  0  0  0  0  0  0  0  0
 34 35  1  0  0  0
 35 33  1  0  0  0
 33  1  1  0  0  0
  1  2  1  0  0  0
  2  3  2  0  0  0
  3  4  1  0  0  0
  4 23  1  0  0  0
 23 24  2  0  0  0
 23 25  2  0  0  0
 23 26  1  0  0  0
 26 27  1  0  0  0
 27 28  1  0  0  0
 28 29  1  0  0  0
 29 30  1  0  0  0
 29 31  1  0  0  0
 31 32  1  0  0  0
  4  5  2  0  0  0
  5  6  1  0  0  0
  6  7  1  0  0  0
  7  8  2  0  0  0
  8  9  1  0  0  0
  9 10  1  0  0  0
  9 11  2  0  0  0
 11 12  1  0  0  0
 12 13  2  0  0  0
 13 14  1  0  0  0
 14 15  1  0  0  0
 14 16  2  0  0  0
 16 17  1  0  0  0
 17 18  2  0  0  0
 18 19  1  0  0  0
 19 20  1  0  0  0
 20 21  2  0  0  0
  6  1  2  0  0  0
 21  7  1  0  0  0
 32 26  1  0  0  0
 20 11  1  0  0  0
 19 13  1  0  0  0
 10 22  1  0  0  0
M  END
> <minimizedAffinity>
-9.79585

$$$$



 35 39  0  0  0  0  0  0  0  0999 V2000
    0.5681   65.0963   83.2581 C   0  0  0  0  0  0  0  0  0  0  0  0
    1.0799   65.8686   84.3110 C   0  0  0  0  0  0  0  0  0  0  0  0
    1.7669   67.0506   84.0442 C   0  0  0  0  0  0  0  0  0  0  0  0
    1.9096   67.4739   82.7230 C   0  0  0  0  0  0  0  0  0  0  0  0
    1.4104   66.6983   81.6695 C   0  0  0  0  0  0  0  0  0  0  0  0
    0.7129   65.4984   81.9160 C   0  0  0  0  0  0  0  0  0  0  0  0
    0.1696   64.7288   80.7850 C   0  0  0  0  0  0  0  0  0  0  0  0
    0.4544   65.1727   79.5370 N   0  0  0  0  0  0  0  0  0  0  0  0
   -0.0602   64.4910   78.5007 C   0  0  0  0  0  0  0  0  0  0  0  0
    0.2746   64.9803   77.2700 O   0  0  0  0  0  0  0  0  0  0  0  0
   -0.8724   63.3801   78.6955 C   0  0  0  0  0  0  0  0  0  0  0  0
   -1.5220   62.5151   77.8441 N   0  0  0  0  0  0  0  0  0  0  0  0
   -2.1433   61.6584   78.6324 C   0  0  0  0  0  0  0  0  0  0  0  0
   -2.9797   60.5312   78.3131 C   0  0  0  0  0  0  0  0  0  0  0  0
   -3.2888   60.1393   76.8911 C   0  0  0  0  0  0  0  0  0  0  0  0
   -3.4937   59.8157   79.3434 C   0  0  0  0  0  0  0  0  0  0  0  0
   -3.2340   60.1413   80.7373 C   0  0  0  0  0  0  0  0  0  0  0  0
   -2.4533   61.1940   81.0237 C   0  0  0  0  0  0  0  0  0  0  0  0
   -1.9169   61.9409   79.9785 N   0  0  0  0  0  0  0  0  0  0  0  0
   -1.1007   63.0471   80.0209 C   0  0  0  0  0  0  0  0  0  0  0  0
   -0.6226   63.6786   81.1115 N   0  0  0  0  0  0  0  0  0  0  0  0
    0.8350   65.7339   77.5202 H   0  0  0  0  0  0  0  0  0  0  0  0
    2.7919   68.9803   82.3650 S   0  0  0  0  0  0  0  0  0  0  0  0
    3.7112   69.2119   83.4594 O   0  0  0  0  0  0  0  0  0  0  0  0
    3.2640   68.8876   80.9996 O   0  0  0  0  0  0  0  0  0  0  0  0
    1.5911   70.1678   82.4296 N   0  0  0  0  0  0  0  0  0  0  0  0
    1.9894   71.5622   82.7688 C   0  0  0  0  0  0  0  0  0  0  0  0
    1.6766   72.5407   81.6207 C   0  0  0  0  0  0  0  0  0  0  0  0
    0.2666   72.5572   81.1806 N   0  0  0  0  0  0  0  0  0  0  0  0
   -0.4577   73.7107   81.7081 C   0  0  0  0  0  0  0  0  0  0  0  0
   -0.4336   71.3024   81.5280 C   0  0  0  0  0  0  0  0  0  0  0  0
    0.4803   70.0665   81.4429 C   0  0  0  0  0  0  0  0  0  0  0  0
   -0.1787   63.9837   83.5601 O   0  0  0  0  0  0  0  0  0  0  0  0
   -0.5272   62.2281   85.1389 C   0  0  0  0  0  0  0  0  0  0  0  0
   -0.1210   63.6794   84.9589 C   0  0  0  0  0  0  0  0  0  0  0  0
 34 35  1  0  0  0
 35 33  1  0  0  0
 33  1  1  0  0  0
  1  2  1  0  0  0
  2  3  2  0  0  0
  3  4  1  0  0  0
  4 23  1  0  0  0
 23 24  2  0  0  0
 23 25  2  0  0  0
 23 26  1  0  0  0
 26 27  1  0  0  0
 27 28  1  0  0  0
 28 29  1  0  0  0
 29 30  1  0  0  0
 29 31  1  0  0  0
 31 32  1  0  0  0
  4  5  2  0  0  0
  5  6  1  0  0  0
  6  7  1  0  0  0
  7  8  2  0  0  0
  8  9  1  0  0  0
  9 10  1  0  0  0
  9 11  2  0  0  0
 11 12  1  0  0  0
 12 13  2  0  0  0
 13 14  1  0  0  0
 14 15  1  0  0  0
 14 16  2  0  0  0
 16 17  1  0  0  0
 17 18  2  0  0  0
 18 19  1  0  0  0
 19 20  1  0  0  0
 20 21  2  0  0  0
  6  1  2  0  0  0
 21  7  1  0  0  0
 32 26  1  0  0  0
 20 11  1  0  0  0
 19 13  1  0  0  0
 10 22  1  0  0  0
M  END
> <minimizedAffinity>
-9.70351

$$$$



 35 39  0  0  0  0  0  0  0  0999 V2000
    3.0557   66.8788   84.0909 C   0  0  0  0  0  0  0  0  0  0  0  0
    3.8580   68.0133   83.9008 C   0  0  0  0  0  0  0  0  0  0  0  0
    3.5942   68.8911   82.8518 C   0  0  0  0  0  0  0  0  0  0  0  0
    2.5047   68.6477   82.0157 C   0  0  0  0  0  0  0  0  0  0  0  0
    1.7099   67.5092   82.1959 C   0  0  0  0  0  0  0  0  0  0  0  0
    1.9590   66.6070   83.2499 C   0  0  0  0  0  0  0  0  0  0  0  0
    1.0791   65.4409   83.4310 C   0  0  0  0  0  0  0  0  0  0  0  0
    0.7463   65.1044   84.7006 N   0  0  0  0  0  0  0  0  0  0  0  0
   -0.0344   64.0257   84.8750 C   0  0  0  0  0  0  0  0  0  0  0  0
   -0.3451   63.7474   86.1758 O   0  0  0  0  0  0  0  0  0  0  0  0
   -0.4728   63.2662   83.7966 C   0  0  0  0  0  0  0  0  0  0  0  0
   -1.2567   62.1406   83.6815 N   0  0  0  0  0  0  0  0  0  0  0  0
   -1.3107   61.8899   82.3870 C   0  0  0  0  0  0  0  0  0  0  0  0
   -1.9822   60.8411   81.6651 C   0  0  0  0  0  0  0  0  0  0  0  0
   -2.7959   59.7816   82.3625 C   0  0  0  0  0  0  0  0  0  0  0  0
   -1.8624   60.8286   80.3149 C   0  0  0  0  0  0  0  0  0  0  0  0
   -1.0922   61.8215   79.5818 C   0  0  0  0  0  0  0  0  0  0  0  0
   -0.4702   62.7946   80.2644 C   0  0  0  0  0  0  0  0  0  0  0  0
   -0.5815   62.8231   81.6518 N   0  0  0  0  0  0  0  0  0  0  0  0
   -0.0422   63.7081   82.5560 C   0  0  0  0  0  0  0  0  0  0  0  0
    0.7389   64.7763   82.2998 N   0  0  0  0  0  0  0  0  0  0  0  0
    0.1198   64.4688   86.6321 H   0  0  0  0  0  0  0  0  0  0  0  0
    2.1583   69.7575   80.6651 S   0  0  0  0  0  0  0  0  0  0  0  0
    3.4304   70.1977   80.1318 O   0  0  0  0  0  0  0  0  0  0  0  0
    1.1767   69.1119   79.8194 O   0  0  0  0  0  0  0  0  0  0  0  0
    1.4204   71.0790   81.4174 N   0  0  0  0  0  0  0  0  0  0  0  0
    2.2018   72.3380   81.5667 C   0  0  0  0  0  0  0  0  0  0  0  0
    1.5465   73.5097   80.8111 C   0  0  0  0  0  0  0  0  0  0  0  0
    0.1450   73.7888   81.1853 N   0  0  0  0  0  0  0  0  0  0  0  0
    0.0357   74.9416   82.0756 C   0  0  0  0  0  0  0  0  0  0  0  0
   -0.5108   72.6071   81.7845 C   0  0  0  0  0  0  0  0  0  0  0  0
   -0.0331   71.2816   81.1643 C   0  0  0  0  0  0  0  0  0  0  0  0
    3.2898   66.0827   85.1856 O   0  0  0  0  0  0  0  0  0  0  0  0
    4.9753   65.2377   86.6488 C   0  0  0  0  0  0  0  0  0  0  0  0
    4.6471   65.6253   85.2185 C   0  0  0  0  0  0  0  0  0  0  0  0
 34 35  1  0  0  0
 35 33  1  0  0  0
 33  1  1  0  0  0
  1  2  1  0  0  0
  2  3  2  0  0  0
  3  4  1  0  0  0
  4 23  1  0  0  0
 23 24  2  0  0  0
 23 25  2  0  0  0
 23 26  1  0  0  0
 26 27  1  0  0  0
 27 28  1  0  0  0
 28 29  1  0  0  0
 29 30  1  0  0  0
 29 31  1  0  0  0
 31 32  1  0  0  0
  4  5  2  0  0  0
  5  6  1  0  0  0
  6  7  1  0  0  0
  7  8  2  0  0  0
  8  9  1  0  0  0
  9 10  1  0  0  0
  9 11  2  0  0  0
 11 12  1  0  0  0
 12 13  2  0  0  0
 13 14  1  0  0  0
 14 15  1  0  0  0
 14 16  2  0  0  0
 16 17  1  0  0  0
 17 18  2  0  0  0
 18 19  1  0  0  0
 19 20  1  0  0  0
 20 21  2  0  0  0
  6  1  2  0  0  0
 21  7  1  0  0  0
 32 26  1  0  0  0
 20 11  1  0  0  0
 19 13  1  0  0  0
 10 22  1  0  0  0
M  END
> <minimizedAffinity>
-9.59246

$$$$



 35 39  0  0  0  0  0  0  0  0999 V2000
   -0.1291   63.9876   84.6036 C   0  0  0  0  0  0  0  0  0  0  0  0
    0.5998   64.9143   85.3632 C   0  0  0  0  0  0  0  0  0  0  0  0
    1.3838   65.8769   84.7313 C   0  0  0  0  0  0  0  0  0  0  0  0
    1.4083   65.9301   83.3378 C   0  0  0  0  0  0  0  0  0  0  0  0
    0.6912   64.9983   82.5775 C   0  0  0  0  0  0  0  0  0  0  0  0
   -0.1077   64.0151   83.1956 C   0  0  0  0  0  0  0  0  0  0  0  0
   -0.8773   63.0760   82.3632 C   0  0  0  0  0  0  0  0  0  0  0  0
   -1.4748   62.0347   82.9912 N   0  0  0  0  0  0  0  0  0  0  0  0
   -2.1564   61.1590   82.2347 C   0  0  0  0  0  0  0  0  0  0  0  0
   -2.7465   60.1406   82.9280 O   0  0  0  0  0  0  0  0  0  0  0  0
   -2.2335   61.3000   80.8542 C   0  0  0  0  0  0  0  0  0  0  0  0
   -2.8420   60.5732   79.8559 N   0  0  0  0  0  0  0  0  0  0  0  0
   -2.5490   61.2114   78.7385 C   0  0  0  0  0  0  0  0  0  0  0  0
   -2.9079   60.9217   77.3749 C   0  0  0  0  0  0  0  0  0  0  0  0
   -3.7520   59.7297   77.0038 C   0  0  0  0  0  0  0  0  0  0  0  0
   -2.4591   61.7641   76.4124 C   0  0  0  0  0  0  0  0  0  0  0  0
   -1.6412   62.9313   76.7040 C   0  0  0  0  0  0  0  0  0  0  0  0
   -1.3123   63.1919   77.9782 C   0  0  0  0  0  0  0  0  0  0  0  0
   -1.7639   62.3375   78.9803 N   0  0  0  0  0  0  0  0  0  0  0  0
   -1.5599   62.3958   80.3391 C   0  0  0  0  0  0  0  0  0  0  0  0
   -0.8567   63.3156   81.0294 N   0  0  0  0  0  0  0  0  0  0  0  0
   -2.4869   60.3652   83.8373 H   0  0  0  0  0  0  0  0  0  0  0  0
    2.4118   67.1512   82.5147 S   0  0  0  0  0  0  0  0  0  0  0  0
    3.5638   67.4004   83.3556 O   0  0  0  0  0  0  0  0  0  0  0  0
    2.5682   66.7235   81.1406 O   0  0  0  0  0  0  0  0  0  0  0  0
    1.4430   68.5361   82.5301 N   0  0  0  0  0  0  0  0  0  0  0  0
    1.9884   69.7769   83.1474 C   0  0  0  0  0  0  0  0  0  0  0  0
    2.0994   70.9228   82.1237 C   0  0  0  0  0  0  0  0  0  0  0  0
    0.8406   71.2661   81.4312 N   0  0  0  0  0  0  0  0  0  0  0  0
    0.2249   72.4712   81.9810 C   0  0  0  0  0  0  0  0  0  0  0  0
   -0.1193   70.1418   81.4437 C   0  0  0  0  0  0  0  0  0  0  0  0
    0.5696   68.7686   81.3465 C   0  0  0  0  0  0  0  0  0  0  0  0
   -0.9593   63.1092   85.2563 O   0  0  0  0  0  0  0  0  0  0  0  0
   -2.2539   62.9550   87.2554 C   0  0  0  0  0  0  0  0  0  0  0  0
   -0.8890   63.2809   86.6769 C   0  0  0  0  0  0  0  0  0  0  0  0
 34 35  1  0  0  0
 35 33  1  0  0  0
 33  1  1  0  0  0
  1  2  1  0  0  0
  2  3  2  0  0  0
  3  4  1  0  0  0
  4 23  1  0  0  0
 23 24  2  0  0  0
 23 25  2  0  0  0
 23 26  1  0  0  0
 26 27  1  0  0  0
 27 28  1  0  0  0
 28 29  1  0  0  0
 29 30  1  0  0  0
 29 31  1  0  0  0
 31 32  1  0  0  0
  4  5  2  0  0  0
  5  6  1  0  0  0
  6  7  1  0  0  0
  7  8  2  0  0  0
  8  9  1  0  0  0
  9 10  1  0  0  0
  9 11  2  0  0  0
 11 12  1  0  0  0
 12 13  2  0  0  0
 13 14  1  0  0  0
 14 15  1  0  0  0
 14 16  2  0  0  0
 16 17  1  0  0  0
 17 18  2  0  0  0
 18 19  1  0  0  0
 19 20  1  0  0  0
 20 21  2  0  0  0
  6  1  2  0  0  0
 21  7  1  0  0  0
 32 26  1  0  0  0
 20 11  1  0  0  0
 19 13  1  0  0  0
 10 22  1  0  0  0
M  END
> <minimizedAffinity>
-9.53636

$$$$
