
     RDKit          3D

 63 67  0  0  0  0  0  0  0  0999 V2000
    8.7543   -1.9574   -1.6698 C   0  0  0  0  0  0  0  0  0  0  0  0
    7.7856   -1.6527   -0.6203 N   0  0  0  0  0  0  0  0  0  0  0  0
    6.4147   -1.6214   -1.1693 C   0  0  0  0  0  0  0  0  0  0  0  0
    5.4380   -0.8163   -0.2926 C   0  0  0  0  0  0  0  0  0  0  0  0
    5.8335    0.6313   -0.2357 N   0  0  0  0  0  0  0  0  0  0  0  0
    5.1520    1.5174    1.0545 S   0  0  0  0  0  0  0  0  0  0  0  0
    5.4963    0.8348    2.2839 O   0  0  0  0  0  0  0  0  0  0  0  0
    5.4818    2.9139    0.8604 O   0  0  0  0  0  0  0  0  0  0  0  0
    3.4099    1.3409    0.7716 C   0  0  0  0  0  0  0  0  0  0  0  0
    2.6371    0.5441    1.6140 C   0  0  0  0  0  0  0  0  0  0  0  0
    1.2643    0.4141    1.3728 C   0  0  0  0  0  0  0  0  0  0  0  0
    0.6436    1.0832    0.3103 C   0  0  0  0  0  0  0  0  0  0  0  0
   -0.7165    0.9687    0.0048 N   0  0  0  0  0  0  0  0  0  0  0  0
   -1.7776    0.2549    0.5572 C   0  0  0  0  0  0  0  0  0  0  0  0
   -2.9713    0.5142    0.0067 N   0  0  0  0  0  0  0  0  0  0  0  0
   -4.0478   -0.1410    0.4757 C   0  0  0  0  0  0  0  0  0  0  0  0
   -5.3095    0.1274   -0.0962 N   0  0  0  0  0  0  0  0  0  0  0  0
   -5.2970    1.0597   -1.2157 C   0  0  0  0  0  0  0  0  0  0  0  0
   -6.7012    1.1797   -1.7636 C   0  0  0  0  0  0  0  0  0  0  0  0
   -7.6905    1.8531   -1.0310 C   0  0  0  0  0  0  0  0  0  0  0  0
   -8.9913    1.9577   -1.5252 C   0  0  0  0  0  0  0  0  0  0  0  0
   -9.3178    1.3872   -2.7540 C   0  0  0  0  0  0  0  0  0  0  0  0
   -8.3457    0.7094   -3.4880 C   0  0  0  0  0  0  0  0  0  0  0  0
   -7.0437    0.6032   -2.9952 C   0  0  0  0  0  0  0  0  0  0  0  0
   -3.9556   -1.0542    1.5374 C   0  0  0  0  0  0  0  0  0  0  0  0
   -5.0476   -1.7473    2.1223 C   0  0  0  0  0  0  0  0  0  0  0  0
   -4.8468   -2.6438    3.1692 C   0  0  0  0  0  0  0  0  0  0  0  0
   -3.5605   -2.8552    3.6447 C   0  0  0  0  0  0  0  0  0  0  0  0
   -2.4887   -2.1628    3.0742 C   0  0  0  0  0  0  0  0  0  0  0  0
   -2.6657   -1.2611    2.0308 C   0  0  0  0  0  0  0  0  0  0  0  0
   -1.5966   -0.6268    1.5444 N   0  0  0  0  0  0  0  0  0  0  0  0
    1.4493    1.8831   -0.5206 C   0  0  0  0  0  0  0  0  0  0  0  0
    2.8219    2.0206   -0.2938 C   0  0  0  0  0  0  0  0  0  0  0  0
    7.3150    0.8303   -0.3825 C   0  0  0  0  0  0  0  0  0  0  0  0
    8.1133   -0.3984    0.0892 C   0  0  0  0  0  0  0  0  0  0  0  0
    8.5022   -2.9025   -2.1637 H   0  0  0  0  0  0  0  0  0  0  0  0
    9.7553   -2.0844   -1.2428 H   0  0  0  0  0  0  0  0  0  0  0  0
    8.8013   -1.1704   -2.4309 H   0  0  0  0  0  0  0  0  0  0  0  0
    6.0504   -2.6509   -1.2622 H   0  0  0  0  0  0  0  0  0  0  0  0
    6.4097   -1.1825   -2.1766 H   0  0  0  0  0  0  0  0  0  0  0  0
    4.4371   -0.8846   -0.7321 H   0  0  0  0  0  0  0  0  0  0  0  0
    5.4041   -1.2528    0.7120 H   0  0  0  0  0  0  0  0  0  0  0  0
    3.0842    0.0202    2.4559 H   0  0  0  0  0  0  0  0  0  0  0  0
    0.6904   -0.2168    2.0454 H   0  0  0  0  0  0  0  0  0  0  0  0
   -1.0810    1.5923   -0.7002 H   0  0  0  0  0  0  0  0  0  0  0  0
   -5.7532   -0.7483   -0.3583 H   0  0  0  0  0  0  0  0  0  0  0  0
   -4.6243    0.7120   -2.0103 H   0  0  0  0  0  0  0  0  0  0  0  0
   -4.9571    2.0541   -0.8991 H   0  0  0  0  0  0  0  0  0  0  0  0
   -7.4459    2.2928   -0.0658 H   0  0  0  0  0  0  0  0  0  0  0  0
   -9.7495    2.4821   -0.9497 H   0  0  0  0  0  0  0  0  0  0  0  0
  -10.3311    1.4689   -3.1386 H   0  0  0  0  0  0  0  0  0  0  0  0
   -8.6025    0.2628   -4.4452 H   0  0  0  0  0  0  0  0  0  0  0  0
   -6.2986    0.0686   -3.5801 H   0  0  0  0  0  0  0  0  0  0  0  0
   -6.0614   -1.5734    1.7682 H   0  0  0  0  0  0  0  0  0  0  0  0
   -5.6900   -3.1673    3.6124 H   0  0  0  0  0  0  0  0  0  0  0  0
   -3.3846   -3.5494    4.4624 H   0  0  0  0  0  0  0  0  0  0  0  0
   -1.4848   -2.3285    3.4597 H   0  0  0  0  0  0  0  0  0  0  0  0
    1.0083    2.4138   -1.3617 H   0  0  0  0  0  0  0  0  0  0  0  0
    3.4217    2.6509   -0.9465 H   0  0  0  0  0  0  0  0  0  0  0  0
    7.5201    1.0363   -1.4402 H   0  0  0  0  0  0  0  0  0  0  0  0
    7.6532    1.7123    0.1716 H   0  0  0  0  0  0  0  0  0  0  0  0
    7.8990   -0.5628    1.1531 H   0  0  0  0  0  0  0  0  0  0  0  0
    9.1876   -0.1830    0.0352 H   0  0  0  0  0  0  0  0  0  0  0  0
  1  2  1  0
  2  3  1  0
  3  4  1  0
  4  5  1  0
  5  6  1  0
  6  7  2  0
  6  8  2  0
  6  9  1  0
  9 10  1  0
 10 11  2  0
 11 12  1  0
 12 13  1  0
 13 14  1  0
 14 15  2  0
 15 16  1  0
 16 17  1  0
 17 18  1  0
 18 19  1  0
 19 20  2  0
 20 21  1  0
 21 22  2  0
 22 23  1  0
 23 24  2  0
 16 25  2  0
 25 26  1  0
 26 27  2  0
 27 28  1  0
 28 29  2  0
 29 30  1  0
 30 31  2  0
 12 32  2  0
 32 33  1  0
  5 34  1  0
 34 35  1  0
 35  2  1  0
 33  9  2  0
 31 14  1  0
 24 19  1  0
 30 25  1  0
  1 36  1  0
  1 37  1  0
  1 38  1  0
  3 39  1  0
  3 40  1  0
  4 41  1  0
  4 42  1  0
 10 43  1  0
 11 44  1  0
 13 45  1  0
 17 46  1  0
 18 47  1  0
 18 48  1  0
 20 49  1  0
 21 50  1  0
 22 51  1  0
 23 52  1  0
 24 53  1  0
 26 54  1  0
 27 55  1  0
 28 56  1  0
 29 57  1  0
 32 58  1  0
 33 59  1  0
 34 60  1  0
 34 61  1  0
 35 62  1  0
 35 63  1  0
M  END
$$$$
