
     RDKit          3D

 59 62  0  0  0  0  0  0  0  0999 V2000
   -3.2872   -4.3301    2.1557 C   0  0  0  0  0  0  0  0  0  0  0  0
   -2.1099   -4.3919    1.1923 C   0  0  0  0  0  0  0  0  0  0  0  0
   -1.8766   -3.1094    0.5383 N   0  0  0  0  0  0  0  0  0  0  0  0
   -1.0433   -2.1987    1.1985 C   0  0  0  0  0  0  0  0  0  0  0  0
   -0.5273   -2.4138    2.2916 O   0  0  0  0  0  0  0  0  0  0  0  0
   -0.8798   -0.9772    0.4900 C   0  0  0  0  0  0  0  0  0  0  0  0
   -1.5220   -0.7105   -0.6786 C   0  0  0  0  0  0  0  0  0  0  0  0
   -1.2328    0.5312   -1.1447 N   0  0  0  0  0  0  0  0  0  0  0  0
   -0.4010    1.0490   -0.2648 C   0  0  0  0  0  0  0  0  0  0  0  0
    0.1459    2.2861   -0.2984 N   0  0  0  0  0  0  0  0  0  0  0  0
   -0.3191    3.2224   -1.3226 C   0  0  0  0  0  0  0  0  0  0  0  0
    0.7001    4.3591   -1.4695 C   0  0  0  0  0  0  0  0  0  0  0  0
    0.1880    5.4496   -0.5415 C   0  0  0  0  0  0  0  0  0  0  0  0
   -1.3146    5.3908   -0.7499 C   0  0  0  0  0  0  0  0  0  0  0  0
   -1.6279    3.9028   -0.8853 C   0  0  0  0  0  0  0  0  0  0  0  0
   -0.1208    0.1389    0.7404 N   0  0  0  0  0  0  0  0  0  0  0  0
    0.8146    0.3062    1.8407 C   0  0  0  0  0  0  0  0  0  0  0  0
    2.1563   -0.3187    1.5406 C   0  0  0  0  0  0  0  0  0  0  0  0
    2.9917    0.1994    0.5385 C   0  0  0  0  0  0  0  0  0  0  0  0
    4.2377   -0.3812    0.2637 C   0  0  0  0  0  0  0  0  0  0  0  0
    4.6739   -1.4899    0.9898 C   0  0  0  0  0  0  0  0  0  0  0  0
    5.8656   -2.1391    0.8155 O   0  0  0  0  0  0  0  0  0  0  0  0
    6.7130   -1.6727   -0.2257 C   0  0  0  0  0  0  0  0  0  0  0  0
    3.8422   -2.0005    1.9900 C   0  0  0  0  0  0  0  0  0  0  0  0
    4.2304   -3.0643    2.7103 F   0  0  0  0  0  0  0  0  0  0  0  0
    2.6008   -1.4295    2.2675 C   0  0  0  0  0  0  0  0  0  0  0  0
   -2.3708   -1.6175   -1.2678 N   0  0  0  0  0  0  0  0  0  0  0  0
   -3.0919   -1.2815   -2.4901 C   0  0  0  0  0  0  0  0  0  0  0  0
   -4.4176   -0.5963   -2.1961 C   0  0  0  0  0  0  0  0  0  0  0  0
   -2.5972   -2.8456   -0.6434 C   0  0  0  0  0  0  0  0  0  0  0  0
   -3.4017   -3.6625   -1.1017 O   0  0  0  0  0  0  0  0  0  0  0  0
   -3.4390   -5.3034    2.6324 H   0  0  0  0  0  0  0  0  0  0  0  0
   -3.1158   -3.5874    2.9417 H   0  0  0  0  0  0  0  0  0  0  0  0
   -4.2106   -4.0567    1.6349 H   0  0  0  0  0  0  0  0  0  0  0  0
   -1.2089   -4.6938    1.7385 H   0  0  0  0  0  0  0  0  0  0  0  0
   -2.2964   -5.1628    0.4361 H   0  0  0  0  0  0  0  0  0  0  0  0
    0.4332    2.7361    0.5633 H   0  0  0  0  0  0  0  0  0  0  0  0
   -0.4316    2.7125   -2.2872 H   0  0  0  0  0  0  0  0  0  0  0  0
    1.7260    4.0621   -1.2287 H   0  0  0  0  0  0  0  0  0  0  0  0
    0.6900    4.7288   -2.5025 H   0  0  0  0  0  0  0  0  0  0  0  0
    0.6030    6.4316   -0.7853 H   0  0  0  0  0  0  0  0  0  0  0  0
    0.4395    5.2180    0.5000 H   0  0  0  0  0  0  0  0  0  0  0  0
   -1.8674    5.8573    0.0708 H   0  0  0  0  0  0  0  0  0  0  0  0
   -1.5851    5.9122   -1.6760 H   0  0  0  0  0  0  0  0  0  0  0  0
   -2.4188    3.7476   -1.6274 H   0  0  0  0  0  0  0  0  0  0  0  0
   -1.9988    3.5084    0.0682 H   0  0  0  0  0  0  0  0  0  0  0  0
    0.3573   -0.1212    2.7394 H   0  0  0  0  0  0  0  0  0  0  0  0
    0.9413    1.3728    2.0509 H   0  0  0  0  0  0  0  0  0  0  0  0
    2.6781    1.0605   -0.0506 H   0  0  0  0  0  0  0  0  0  0  0  0
    4.8389    0.0585   -0.5255 H   0  0  0  0  0  0  0  0  0  0  0  0
    7.6038   -2.3082   -0.2420 H   0  0  0  0  0  0  0  0  0  0  0  0
    6.2246   -1.7591   -1.2019 H   0  0  0  0  0  0  0  0  0  0  0  0
    7.0408   -0.6452   -0.0366 H   0  0  0  0  0  0  0  0  0  0  0  0
    1.9908   -1.8730    3.0509 H   0  0  0  0  0  0  0  0  0  0  0  0
   -2.4630   -0.6407   -3.1190 H   0  0  0  0  0  0  0  0  0  0  0  0
   -3.2788   -2.1981   -3.0613 H   0  0  0  0  0  0  0  0  0  0  0  0
   -5.0659   -1.2359   -1.5882 H   0  0  0  0  0  0  0  0  0  0  0  0
   -4.2648    0.3399   -1.6492 H   0  0  0  0  0  0  0  0  0  0  0  0
   -4.9412   -0.3655   -3.1288 H   0  0  0  0  0  0  0  0  0  0  0  0
  1  2  1  0
  2  3  1  0
  3  4  1  0
  4  5  2  0
  4  6  1  0
  6  7  2  0
  7  8  1  0
  8  9  2  0
  9 10  1  0
 10 11  1  0
 11 12  1  0
 12 13  1  0
 13 14  1  0
 14 15  1  0
  9 16  1  0
 16 17  1  0
 17 18  1  0
 18 19  1  0
 19 20  2  0
 20 21  1  0
 21 22  1  0
 22 23  1  0
 21 24  2  0
 24 25  1  0
 24 26  1  0
  7 27  1  0
 27 28  1  0
 28 29  1  0
 27 30  1  0
 30 31  2  0
 30  3  1  0
 16  6  1  0
 26 18  2  0
 15 11  1  0
  1 32  1  0
  1 33  1  0
  1 34  1  0
  2 35  1  0
  2 36  1  0
 10 37  1  0
 11 38  1  0
 12 39  1  0
 12 40  1  0
 13 41  1  0
 13 42  1  0
 14 43  1  0
 14 44  1  0
 15 45  1  0
 15 46  1  0
 17 47  1  0
 17 48  1  0
 19 49  1  0
 20 50  1  0
 23 51  1  0
 23 52  1  0
 23 53  1  0
 26 54  1  0
 28 55  1  0
 28 56  1  0
 29 57  1  0
 29 58  1  0
 29 59  1  0
M  END
$$$$
