


 32 34  0  0  0  0  0  0  0  0999 V2000
    0.1824   63.7968   80.6427 N   0  0  0  0  0  0  0  0  0  0  0  0
    0.1449   65.1757   80.5503 C   0  0  0  0  0  0  0  0  0  0  0  0
   -0.3434   65.8445   79.6488 O   0  0  0  0  0  0  0  0  0  0  0  0
    0.6252   63.4605   81.4954 H   0  0  0  0  0  0  0  0  0  0  0  0
   -1.1817   60.9793   77.7929 C   0  0  0  0  0  0  0  0  0  0  0  0
   -0.0841   61.8120   77.5482 C   0  0  0  0  0  0  0  0  0  0  0  0
    0.3421   62.7338   78.5105 C   0  0  0  0  0  0  0  0  0  0  0  0
   -0.3148   62.8454   79.7370 C   0  0  0  0  0  0  0  0  0  0  0  0
   -1.4091   62.0195   79.9896 C   0  0  0  0  0  0  0  0  0  0  0  0
   -1.8473   61.0812   79.0319 C   0  0  0  0  0  0  0  0  0  0  0  0
   -3.0291   60.2464   79.4160 C   0  0  0  0  0  0  0  0  0  0  0  0
   -4.1582   60.7276   79.5002 O   0  0  0  0  0  0  0  0  0  0  0  0
   -2.8147   58.9101   79.6617 N   0  0  0  0  0  0  0  0  0  0  0  0
   -3.9821   58.1229   79.8054 O   0  0  0  0  0  0  0  0  0  0  0  0
   -1.9798   58.4426   79.3180 H   0  0  0  0  0  0  0  0  0  0  0  0
   -4.6891   58.8045   79.7576 H   0  0  0  0  0  0  0  0  0  0  0  0
   -0.7917   59.0075   76.4869 C   0  0  0  0  0  0  0  0  0  0  0  0
   -1.6559   60.0682   76.8833 O   0  0  0  0  0  0  0  0  0  0  0  0
    0.7884   65.8520   81.7264 C   0  0  0  0  0  0  0  0  0  0  0  0
    1.5197   67.0173   81.5442 C   0  0  0  0  0  0  0  0  0  0  0  0
    2.0921   67.6098   82.6628 C   0  0  0  0  0  0  0  0  0  0  0  0
    1.9150   67.0220   83.9130 C   0  0  0  0  0  0  0  0  0  0  0  0
    1.1632   65.8501   84.0182 C   0  0  0  0  0  0  0  0  0  0  0  0
    0.5999   65.2486   82.9382 N   0  0  0  0  0  0  0  0  0  0  0  0
    0.9831   65.1836   85.3663 C   0  0  0  0  0  0  0  0  0  0  0  0
    0.6026   63.8209   85.1744 O   0  0  0  0  0  0  0  0  0  0  0  0
   -0.5258   63.3947   85.8187 C   0  0  0  0  0  0  0  0  0  0  0  0
   -1.6279   62.7752   85.2271 C   0  0  0  0  0  0  0  0  0  0  0  0
   -2.7191   62.3872   86.0114 C   0  0  0  0  0  0  0  0  0  0  0  0
   -2.7139   62.6165   87.3863 C   0  0  0  0  0  0  0  0  0  0  0  0
   -1.6174   63.2352   87.9807 C   0  0  0  0  0  0  0  0  0  0  0  0
   -0.5286   63.6219   87.1976 C   0  0  0  0  0  0  0  0  0  0  0  0
 17 18  1  0  0  0
 18  5  1  0  0  0
  5  6  1  0  0  0
  6  7  2  0  0  0
  7  8  1  0  0  0
  8  1  1  0  0  0
  1  2  1  0  0  0
  2  3  2  0  0  0
  2 19  1  0  0  0
 19 20  1  0  0  0
 20 21  2  0  0  0
 21 22  1  0  0  0
 22 23  2  0  0  0
 23 25  1  0  0  0
 25 26  1  0  0  0
 26 27  1  0  0  0
 27 28  2  0  0  0
 28 29  1  0  0  0
 29 30  2  0  0  0
 30 31  1  0  0  0
 31 32  2  0  0  0
 23 24  1  0  0  0
  8  9  2  0  0  0
  9 10  1  0  0  0
 10 11  1  0  0  0
 11 12  2  0  0  0
 11 13  1  0  0  0
 13 14  1  0  0  0
 10  5  2  0  0  0
 24 19  2  0  0  0
 32 27  1  0  0  0
  1  4  1  0  0  0
 13 15  1  0  0  0
 14 16  1  0  0  0
M  END
> <minimizedAffinity>
-10.29162

$$$$



 32 34  0  0  0  0  0  0  0  0999 V2000
   -1.2278   62.6933   82.2680 N   0  0  0  0  0  0  0  0  0  0  0  0
   -1.4797   62.2812   83.5634 C   0  0  0  0  0  0  0  0  0  0  0  0
   -2.2179   61.3726   83.9211 O   0  0  0  0  0  0  0  0  0  0  0  0
   -0.5614   63.4607   82.2101 H   0  0  0  0  0  0  0  0  0  0  0  0
   -2.9869   61.1911   78.7227 C   0  0  0  0  0  0  0  0  0  0  0  0
   -3.7562   61.6708   79.7885 C   0  0  0  0  0  0  0  0  0  0  0  0
   -3.1447   62.1605   80.9476 C   0  0  0  0  0  0  0  0  0  0  0  0
   -1.7544   62.1839   81.0698 C   0  0  0  0  0  0  0  0  0  0  0  0
   -0.9799   61.7084   80.0126 C   0  0  0  0  0  0  0  0  0  0  0  0
   -1.5814   61.2169   78.8352 C   0  0  0  0  0  0  0  0  0  0  0  0
   -0.6493   60.7374   77.7665 C   0  0  0  0  0  0  0  0  0  0  0  0
    0.1460   61.4976   77.2159 O   0  0  0  0  0  0  0  0  0  0  0  0
   -0.7002   59.4060   77.4244 N   0  0  0  0  0  0  0  0  0  0  0  0
    0.3385   58.9559   76.5749 O   0  0  0  0  0  0  0  0  0  0  0  0
   -1.1175   58.7211   78.0494 H   0  0  0  0  0  0  0  0  0  0  0  0
    0.8167   59.7935   76.3841 H   0  0  0  0  0  0  0  0  0  0  0  0
   -3.5209   61.5103   76.4078 C   0  0  0  0  0  0  0  0  0  0  0  0
   -3.5284   60.6844   77.5684 O   0  0  0  0  0  0  0  0  0  0  0  0
   -0.7218   63.0818   84.5829 C   0  0  0  0  0  0  0  0  0  0  0  0
   -0.7909   62.7409   85.9263 C   0  0  0  0  0  0  0  0  0  0  0  0
   -0.0684   63.5077   86.8319 C   0  0  0  0  0  0  0  0  0  0  0  0
    0.6911   64.5785   86.3668 C   0  0  0  0  0  0  0  0  0  0  0  0
    0.7138   64.8590   84.9992 C   0  0  0  0  0  0  0  0  0  0  0  0
    0.0101   64.1282   84.0957 N   0  0  0  0  0  0  0  0  0  0  0  0
    1.5133   66.0359   84.4800 C   0  0  0  0  0  0  0  0  0  0  0  0
    2.8649   65.6311   84.2610 O   0  0  0  0  0  0  0  0  0  0  0  0
    3.8157   66.1713   85.0821 C   0  0  0  0  0  0  0  0  0  0  0  0
    4.2151   67.5084   85.1119 C   0  0  0  0  0  0  0  0  0  0  0  0
    5.2032   67.9255   86.0098 C   0  0  0  0  0  0  0  0  0  0  0  0
    5.7952   67.0106   86.8789 C   0  0  0  0  0  0  0  0  0  0  0  0
    5.4009   65.6755   86.8521 C   0  0  0  0  0  0  0  0  0  0  0  0
    4.4147   65.2599   85.9561 C   0  0  0  0  0  0  0  0  0  0  0  0
 17 18  1  0  0  0
 18  5  1  0  0  0
  5  6  1  0  0  0
  6  7  2  0  0  0
  7  8  1  0  0  0
  8  1  1  0  0  0
  1  2  1  0  0  0
  2  3  2  0  0  0
  2 19  1  0  0  0
 19 20  1  0  0  0
 20 21  2  0  0  0
 21 22  1  0  0  0
 22 23  2  0  0  0
 23 25  1  0  0  0
 25 26  1  0  0  0
 26 27  1  0  0  0
 27 28  2  0  0  0
 28 29  1  0  0  0
 29 30  2  0  0  0
 30 31  1  0  0  0
 31 32  2  0  0  0
 23 24  1  0  0  0
  8  9  2  0  0  0
  9 10  1  0  0  0
 10 11  1  0  0  0
 11 12  2  0  0  0
 11 13  1  0  0  0
 13 14  1  0  0  0
 10  5  2  0  0  0
 24 19  2  0  0  0
 32 27  1  0  0  0
  1  4  1  0  0  0
 13 15  1  0  0  0
 14 16  1  0  0  0
M  END
> <minimizedAffinity>
-9.91627

$$$$



 32 34  0  0  0  0  0  0  0  0999 V2000
   -0.3998   63.8561   81.1708 N   0  0  0  0  0  0  0  0  0  0  0  0
    0.1051   65.0963   80.8267 C   0  0  0  0  0  0  0  0  0  0  0  0
    0.0654   65.6329   79.7273 O   0  0  0  0  0  0  0  0  0  0  0  0
   -0.2671   63.6237   82.1530 H   0  0  0  0  0  0  0  0  0  0  0  0
   -2.5500   61.0721   78.8157 C   0  0  0  0  0  0  0  0  0  0  0  0
   -3.1341   61.7358   79.9003 C   0  0  0  0  0  0  0  0  0  0  0  0
   -2.3965   62.6503   80.6599 C   0  0  0  0  0  0  0  0  0  0  0  0
   -1.0621   62.9241   80.3551 C   0  0  0  0  0  0  0  0  0  0  0  0
   -0.4721   62.2678   79.2760 C   0  0  0  0  0  0  0  0  0  0  0  0
   -1.2042   61.3475   78.4971 C   0  0  0  0  0  0  0  0  0  0  0  0
   -0.4673   60.7081   77.3617 C   0  0  0  0  0  0  0  0  0  0  0  0
    0.0188   61.3768   76.4506 O   0  0  0  0  0  0  0  0  0  0  0  0
   -0.3379   59.3387   77.3744 N   0  0  0  0  0  0  0  0  0  0  0  0
    0.5452   58.8020   76.4073 O   0  0  0  0  0  0  0  0  0  0  0  0
   -0.4609   58.8098   78.2340 H   0  0  0  0  0  0  0  0  0  0  0  0
    0.7965   59.6055   75.8994 H   0  0  0  0  0  0  0  0  0  0  0  0
   -3.7368   60.5861   76.7906 C   0  0  0  0  0  0  0  0  0  0  0  0
   -3.2166   60.1540   78.0443 O   0  0  0  0  0  0  0  0  0  0  0  0
    0.7508   65.7997   81.9856 C   0  0  0  0  0  0  0  0  0  0  0  0
    1.4124   67.0034   81.7874 C   0  0  0  0  0  0  0  0  0  0  0  0
    1.9898   67.6197   82.8905 C   0  0  0  0  0  0  0  0  0  0  0  0
    1.8863   67.0166   84.1417 C   0  0  0  0  0  0  0  0  0  0  0  0
    1.2020   65.8056   84.2636 C   0  0  0  0  0  0  0  0  0  0  0  0
    0.6356   65.1807   83.1986 N   0  0  0  0  0  0  0  0  0  0  0  0
    1.1031   65.1234   85.6121 C   0  0  0  0  0  0  0  0  0  0  0  0
    0.7301   63.7577   85.4262 O   0  0  0  0  0  0  0  0  0  0  0  0
   -0.4637   63.3616   85.9630 C   0  0  0  0  0  0  0  0  0  0  0  0
   -1.5352   62.8017   85.2655 C   0  0  0  0  0  0  0  0  0  0  0  0
   -2.7022   62.4388   85.9459 C   0  0  0  0  0  0  0  0  0  0  0  0
   -2.8033   62.6339   87.3223 C   0  0  0  0  0  0  0  0  0  0  0  0
   -1.7375   63.1931   88.0223 C   0  0  0  0  0  0  0  0  0  0  0  0
   -0.5732   63.5549   87.3428 C   0  0  0  0  0  0  0  0  0  0  0  0
 17 18  1  0  0  0
 18  5  1  0  0  0
  5  6  1  0  0  0
  6  7  2  0  0  0
  7  8  1  0  0  0
  8  1  1  0  0  0
  1  2  1  0  0  0
  2  3  2  0  0  0
  2 19  1  0  0  0
 19 20  1  0  0  0
 20 21  2  0  0  0
 21 22  1  0  0  0
 22 23  2  0  0  0
 23 25  1  0  0  0
 25 26  1  0  0  0
 26 27  1  0  0  0
 27 28  2  0  0  0
 28 29  1  0  0  0
 29 30  2  0  0  0
 30 31  1  0  0  0
 31 32  2  0  0  0
 23 24  1  0  0  0
  8  9  2  0  0  0
  9 10  1  0  0  0
 10 11  1  0  0  0
 11 12  2  0  0  0
 11 13  1  0  0  0
 13 14  1  0  0  0
 10  5  2  0  0  0
 24 19  2  0  0  0
 32 27  1  0  0  0
  1  4  1  0  0  0
 13 15  1  0  0  0
 14 16  1  0  0  0
M  END
> <minimizedAffinity>
-9.88426

$$$$



 32 34  0  0  0  0  0  0  0  0999 V2000
   -0.6567   62.3995   82.3689 N   0  0  0  0  0  0  0  0  0  0  0  0
   -1.2346   62.1710   83.6038 C   0  0  0  0  0  0  0  0  0  0  0  0
   -2.1544   61.4053   83.8606 O   0  0  0  0  0  0  0  0  0  0  0  0
    0.1099   63.0687   82.3986 H   0  0  0  0  0  0  0  0  0  0  0  0
   -1.5093   60.7716   78.5553 C   0  0  0  0  0  0  0  0  0  0  0  0
   -0.5073   61.7293   78.7475 C   0  0  0  0  0  0  0  0  0  0  0  0
   -0.2500   62.2486   80.0208 C   0  0  0  0  0  0  0  0  0  0  0  0
   -0.9840   61.8248   81.1298 C   0  0  0  0  0  0  0  0  0  0  0  0
   -1.9840   60.8707   80.9478 C   0  0  0  0  0  0  0  0  0  0  0  0
   -2.2515   60.3333   79.6713 C   0  0  0  0  0  0  0  0  0  0  0  0
   -3.3446   59.3131   79.5988 C   0  0  0  0  0  0  0  0  0  0  0  0
   -3.4492   58.4196   80.4380 O   0  0  0  0  0  0  0  0  0  0  0  0
   -4.2443   59.4131   78.5631 N   0  0  0  0  0  0  0  0  0  0  0  0
   -5.3764   58.5689   78.6570 O   0  0  0  0  0  0  0  0  0  0  0  0
   -4.3566   60.2838   78.0502 H   0  0  0  0  0  0  0  0  0  0  0  0
   -5.1682   58.0454   79.4628 H   0  0  0  0  0  0  0  0  0  0  0  0
   -0.9253   59.2770   76.7746 C   0  0  0  0  0  0  0  0  0  0  0  0
   -1.8185   60.2376   77.3299 O   0  0  0  0  0  0  0  0  0  0  0  0
   -0.6038   62.9844   84.6971 C   0  0  0  0  0  0  0  0  0  0  0  0
   -0.7519   62.6014   86.0227 C   0  0  0  0  0  0  0  0  0  0  0  0
   -0.1459   63.3822   86.9989 C   0  0  0  0  0  0  0  0  0  0  0  0
    0.5804   64.5083   86.6191 C   0  0  0  0  0  0  0  0  0  0  0  0
    0.6876   64.8291   85.2644 C   0  0  0  0  0  0  0  0  0  0  0  0
    0.0981   64.0851   84.2926 N   0  0  0  0  0  0  0  0  0  0  0  0
    1.4514   66.0649   84.8363 C   0  0  0  0  0  0  0  0  0  0  0  0
    2.6923   65.6749   84.2473 O   0  0  0  0  0  0  0  0  0  0  0  0
    3.8334   66.0236   84.9155 C   0  0  0  0  0  0  0  0  0  0  0  0
    4.4083   65.3300   85.9816 C   0  0  0  0  0  0  0  0  0  0  0  0
    5.5850   65.8020   86.5725 C   0  0  0  0  0  0  0  0  0  0  0  0
    6.1901   66.9662   86.1021 C   0  0  0  0  0  0  0  0  0  0  0  0
    5.6198   67.6622   85.0396 C   0  0  0  0  0  0  0  0  0  0  0  0
    4.4457   67.1906   84.4503 C   0  0  0  0  0  0  0  0  0  0  0  0
 17 18  1  0  0  0
 18  5  1  0  0  0
  5  6  1  0  0  0
  6  7  2  0  0  0
  7  8  1  0  0  0
  8  1  1  0  0  0
  1  2  1  0  0  0
  2  3  2  0  0  0
  2 19  1  0  0  0
 19 20  1  0  0  0
 20 21  2  0  0  0
 21 22  1  0  0  0
 22 23  2  0  0  0
 23 25  1  0  0  0
 25 26  1  0  0  0
 26 27  1  0  0  0
 27 28  2  0  0  0
 28 29  1  0  0  0
 29 30  2  0  0  0
 30 31  1  0  0  0
 31 32  2  0  0  0
 23 24  1  0  0  0
  8  9  2  0  0  0
  9 10  1  0  0  0
 10 11  1  0  0  0
 11 12  2  0  0  0
 11 13  1  0  0  0
 13 14  1  0  0  0
 10  5  2  0  0  0
 24 19  2  0  0  0
 32 27  1  0  0  0
  1  4  1  0  0  0
 13 15  1  0  0  0
 14 16  1  0  0  0
M  END
> <minimizedAffinity>
-9.77397

$$$$



 32 34  0  0  0  0  0  0  0  0999 V2000
    0.7838   65.7047   83.1108 N   0  0  0  0  0  0  0  0  0  0  0  0
    0.4124   66.1576   81.8585 C   0  0  0  0  0  0  0  0  0  0  0  0
   -0.4781   65.7147   81.1450 O   0  0  0  0  0  0  0  0  0  0  0  0
    1.5427   66.2413   83.5263 H   0  0  0  0  0  0  0  0  0  0  0  0
   -0.7642   62.5702   85.4981 C   0  0  0  0  0  0  0  0  0  0  0  0
    0.0094   63.6034   86.0385 C   0  0  0  0  0  0  0  0  0  0  0  0
    0.5072   64.6251   85.2226 C   0  0  0  0  0  0  0  0  0  0  0  0
    0.2446   64.6404   83.8518 C   0  0  0  0  0  0  0  0  0  0  0  0
   -0.5257   63.6153   83.3048 C   0  0  0  0  0  0  0  0  0  0  0  0
   -1.0396   62.5813   84.1151 C   0  0  0  0  0  0  0  0  0  0  0  0
   -1.8561   61.5382   83.4180 C   0  0  0  0  0  0  0  0  0  0  0  0
   -1.5328   61.0962   82.3163 O   0  0  0  0  0  0  0  0  0  0  0  0
   -2.9823   61.0752   84.0578 N   0  0  0  0  0  0  0  0  0  0  0  0
   -3.5960   59.9446   83.4676 O   0  0  0  0  0  0  0  0  0  0  0  0
   -3.1016   61.1969   85.0602 H   0  0  0  0  0  0  0  0  0  0  0  0
   -3.0537   59.8244   82.6563 H   0  0  0  0  0  0  0  0  0  0  0  0
   -0.9944   61.5225   87.6417 C   0  0  0  0  0  0  0  0  0  0  0  0
   -1.2662   61.5335   86.2435 O   0  0  0  0  0  0  0  0  0  0  0  0
    1.2353   67.3264   81.3985 C   0  0  0  0  0  0  0  0  0  0  0  0
    1.0284   67.8695   80.1384 C   0  0  0  0  0  0  0  0  0  0  0  0
    1.8102   68.9534   79.7589 C   0  0  0  0  0  0  0  0  0  0  0  0
    2.7626   69.4519   80.6446 C   0  0  0  0  0  0  0  0  0  0  0  0
    2.9114   68.8542   81.8977 C   0  0  0  0  0  0  0  0  0  0  0  0
    2.1638   67.7894   82.2883 N   0  0  0  0  0  0  0  0  0  0  0  0
    3.9604   69.3671   82.8623 C   0  0  0  0  0  0  0  0  0  0  0  0
    3.7950   68.7261   84.1273 O   0  0  0  0  0  0  0  0  0  0  0  0
    4.6816   67.7332   84.4408 C   0  0  0  0  0  0  0  0  0  0  0  0
    6.0700   67.7980   84.3130 C   0  0  0  0  0  0  0  0  0  0  0  0
    6.8597   66.7020   84.6757 C   0  0  0  0  0  0  0  0  0  0  0  0
    6.2669   65.5395   85.1657 C   0  0  0  0  0  0  0  0  0  0  0  0
    4.8823   65.4696   85.2938 C   0  0  0  0  0  0  0  0  0  0  0  0
    4.0948   66.5637   84.9320 C   0  0  0  0  0  0  0  0  0  0  0  0
 17 18  1  0  0  0
 18  5  1  0  0  0
  5  6  1  0  0  0
  6  7  2  0  0  0
  7  8  1  0  0  0
  8  1  1  0  0  0
  1  2  1  0  0  0
  2  3  2  0  0  0
  2 19  1  0  0  0
 19 20  1  0  0  0
 20 21  2  0  0  0
 21 22  1  0  0  0
 22 23  2  0  0  0
 23 25  1  0  0  0
 25 26  1  0  0  0
 26 27  1  0  0  0
 27 28  2  0  0  0
 28 29  1  0  0  0
 29 30  2  0  0  0
 30 31  1  0  0  0
 31 32  2  0  0  0
 23 24  1  0  0  0
  8  9  2  0  0  0
  9 10  1  0  0  0
 10 11  1  0  0  0
 11 12  2  0  0  0
 11 13  1  0  0  0
 13 14  1  0  0  0
 10  5  2  0  0  0
 24 19  2  0  0  0
 32 27  1  0  0  0
  1  4  1  0  0  0
 13 15  1  0  0  0
 14 16  1  0  0  0
M  END
> <minimizedAffinity>
-9.75061

$$$$



 32 34  0  0  0  0  0  0  0  0999 V2000
    0.0931   63.3898   81.3899 N   0  0  0  0  0  0  0  0  0  0  0  0
    0.2360   64.7648   81.4028 C   0  0  0  0  0  0  0  0  0  0  0  0
   -0.0245   65.5449   80.4962 O   0  0  0  0  0  0  0  0  0  0  0  0
    0.3563   62.9475   82.2682 H   0  0  0  0  0  0  0  0  0  0  0  0
   -1.1558   60.9673   78.1506 C   0  0  0  0  0  0  0  0  0  0  0  0
   -0.0020   61.7564   78.0870 C   0  0  0  0  0  0  0  0  0  0  0  0
    0.3840   62.5470   79.1748 C   0  0  0  0  0  0  0  0  0  0  0  0
   -0.3699   62.5679   80.3493 C   0  0  0  0  0  0  0  0  0  0  0  0
   -1.5207   61.7845   80.4219 C   0  0  0  0  0  0  0  0  0  0  0  0
   -1.9199   60.9777   79.3358 C   0  0  0  0  0  0  0  0  0  0  0  0
   -3.1695   60.1769   79.5306 C   0  0  0  0  0  0  0  0  0  0  0  0
   -4.2840   60.6922   79.4540 O   0  0  0  0  0  0  0  0  0  0  0  0
   -3.0332   58.8325   79.7878 N   0  0  0  0  0  0  0  0  0  0  0  0
   -4.2318   58.0808   79.7477 O   0  0  0  0  0  0  0  0  0  0  0  0
   -2.1709   58.3422   79.5647 H   0  0  0  0  0  0  0  0  0  0  0  0
   -4.9035   58.7844   79.6052 H   0  0  0  0  0  0  0  0  0  0  0  0
   -0.8650   58.9966   76.8174 C   0  0  0  0  0  0  0  0  0  0  0  0
   -1.5936   60.1845   77.1124 O   0  0  0  0  0  0  0  0  0  0  0  0
    0.7680   65.2789   82.7095 C   0  0  0  0  0  0  0  0  0  0  0  0
    0.3177   64.7370   83.9051 C   0  0  0  0  0  0  0  0  0  0  0  0
    0.8426   65.2412   85.0884 C   0  0  0  0  0  0  0  0  0  0  0  0
    1.7906   66.2602   85.0355 C   0  0  0  0  0  0  0  0  0  0  0  0
    2.1971   66.7533   83.7940 C   0  0  0  0  0  0  0  0  0  0  0  0
    1.6931   66.2813   82.6242 N   0  0  0  0  0  0  0  0  0  0  0  0
    3.2074   67.8793   83.7196 C   0  0  0  0  0  0  0  0  0  0  0  0
    3.8351   68.0378   84.9923 O   0  0  0  0  0  0  0  0  0  0  0  0
    4.9743   67.3155   85.2168 C   0  0  0  0  0  0  0  0  0  0  0  0
    5.2526   66.5463   86.3479 C   0  0  0  0  0  0  0  0  0  0  0  0
    6.4639   65.8536   86.4445 C   0  0  0  0  0  0  0  0  0  0  0  0
    7.4000   65.9269   85.4144 C   0  0  0  0  0  0  0  0  0  0  0  0
    7.1275   66.6938   84.2847 C   0  0  0  0  0  0  0  0  0  0  0  0
    5.9185   67.3846   84.1888 C   0  0  0  0  0  0  0  0  0  0  0  0
 17 18  1  0  0  0
 18  5  1  0  0  0
  5  6  1  0  0  0
  6  7  2  0  0  0
  7  8  1  0  0  0
  8  1  1  0  0  0
  1  2  1  0  0  0
  2  3  2  0  0  0
  2 19  1  0  0  0
 19 20  1  0  0  0
 20 21  2  0  0  0
 21 22  1  0  0  0
 22 23  2  0  0  0
 23 25  1  0  0  0
 25 26  1  0  0  0
 26 27  1  0  0  0
 27 28  2  0  0  0
 28 29  1  0  0  0
 29 30  2  0  0  0
 30 31  1  0  0  0
 31 32  2  0  0  0
 23 24  1  0  0  0
  8  9  2  0  0  0
  9 10  1  0  0  0
 10 11  1  0  0  0
 11 12  2  0  0  0
 11 13  1  0  0  0
 13 14  1  0  0  0
 10  5  2  0  0  0
 24 19  2  0  0  0
 32 27  1  0  0  0
  1  4  1  0  0  0
 13 15  1  0  0  0
 14 16  1  0  0  0
M  END
> <minimizedAffinity>
-9.71401

$$$$



 32 34  0  0  0  0  0  0  0  0999 V2000
   -1.4554   62.5014   82.4098 N   0  0  0  0  0  0  0  0  0  0  0  0
   -1.7772   62.0293   83.6688 C   0  0  0  0  0  0  0  0  0  0  0  0
   -2.5403   61.1125   83.9431 O   0  0  0  0  0  0  0  0  0  0  0  0
   -0.7805   63.2634   82.4239 H   0  0  0  0  0  0  0  0  0  0  0  0
   -3.0418   61.1935   78.7094 C   0  0  0  0  0  0  0  0  0  0  0  0
   -3.8609   61.6314   79.7560 C   0  0  0  0  0  0  0  0  0  0  0  0
   -3.3059   62.0571   80.9676 C   0  0  0  0  0  0  0  0  0  0  0  0
   -1.9238   62.0568   81.1626 C   0  0  0  0  0  0  0  0  0  0  0  0
   -1.0999   61.6226   80.1252 C   0  0  0  0  0  0  0  0  0  0  0  0
   -1.6440   61.1958   78.8957 C   0  0  0  0  0  0  0  0  0  0  0  0
   -0.6621   60.7561   77.8548 C   0  0  0  0  0  0  0  0  0  0  0  0
    0.1446   61.5404   77.3572 O   0  0  0  0  0  0  0  0  0  0  0  0
   -0.6808   59.4336   77.4770 N   0  0  0  0  0  0  0  0  0  0  0  0
    0.3981   59.0189   76.6602 O   0  0  0  0  0  0  0  0  0  0  0  0
   -1.1140   58.7274   78.0665 H   0  0  0  0  0  0  0  0  0  0  0  0
    0.8723   59.8671   76.5107 H   0  0  0  0  0  0  0  0  0  0  0  0
   -3.5658   61.6709   76.4196 C   0  0  0  0  0  0  0  0  0  0  0  0
   -3.5274   60.7497   77.5054 O   0  0  0  0  0  0  0  0  0  0  0  0
   -1.0661   62.7710   84.7639 C   0  0  0  0  0  0  0  0  0  0  0  0
   -1.2770   62.4225   86.0904 C   0  0  0  0  0  0  0  0  0  0  0  0
   -0.5930   63.1337   87.0684 C   0  0  0  0  0  0  0  0  0  0  0  0
    0.2701   64.1590   86.6892 C   0  0  0  0  0  0  0  0  0  0  0  0
    0.4332   64.4504   85.3334 C   0  0  0  0  0  0  0  0  0  0  0  0
   -0.2300   63.7739   84.3598 N   0  0  0  0  0  0  0  0  0  0  0  0
    1.3475   65.5795   84.9056 C   0  0  0  0  0  0  0  0  0  0  0  0
    1.6992   65.4102   83.5321 O   0  0  0  0  0  0  0  0  0  0  0  0
    1.2599   66.3643   82.6565 C   0  0  0  0  0  0  0  0  0  0  0  0
    0.4169   66.1543   81.5640 C   0  0  0  0  0  0  0  0  0  0  0  0
    0.0441   67.2283   80.7490 C   0  0  0  0  0  0  0  0  0  0  0  0
    0.5114   68.5130   81.0212 C   0  0  0  0  0  0  0  0  0  0  0  0
    1.3534   68.7272   82.1092 C   0  0  0  0  0  0  0  0  0  0  0  0
    1.7249   67.6552   82.9222 C   0  0  0  0  0  0  0  0  0  0  0  0
 17 18  1  0  0  0
 18  5  1  0  0  0
  5  6  1  0  0  0
  6  7  2  0  0  0
  7  8  1  0  0  0
  8  1  1  0  0  0
  1  2  1  0  0  0
  2  3  2  0  0  0
  2 19  1  0  0  0
 19 20  1  0  0  0
 20 21  2  0  0  0
 21 22  1  0  0  0
 22 23  2  0  0  0
 23 25  1  0  0  0
 25 26  1  0  0  0
 26 27  1  0  0  0
 27 28  2  0  0  0
 28 29  1  0  0  0
 29 30  2  0  0  0
 30 31  1  0  0  0
 31 32  2  0  0  0
 23 24  1  0  0  0
  8  9  2  0  0  0
  9 10  1  0  0  0
 10 11  1  0  0  0
 11 12  2  0  0  0
 11 13  1  0  0  0
 13 14  1  0  0  0
 10  5  2  0  0  0
 24 19  2  0  0  0
 32 27  1  0  0  0
  1  4  1  0  0  0
 13 15  1  0  0  0
 14 16  1  0  0  0
M  END
> <minimizedAffinity>
-9.65948

$$$$



 32 34  0  0  0  0  0  0  0  0999 V2000
    0.1127   65.2765   81.7232 N   0  0  0  0  0  0  0  0  0  0  0  0
    0.0479   64.5541   80.5462 C   0  0  0  0  0  0  0  0  0  0  0  0
    0.7120   64.7285   79.5329 O   0  0  0  0  0  0  0  0  0  0  0  0
   -0.5247   64.9378   82.4412 H   0  0  0  0  0  0  0  0  0  0  0  0
    2.5149   68.6703   82.5177 C   0  0  0  0  0  0  0  0  0  0  0  0
    1.5823   68.6476   81.4748 C   0  0  0  0  0  0  0  0  0  0  0  0
    0.8034   67.5100   81.2374 C   0  0  0  0  0  0  0  0  0  0  0  0
    0.9358   66.3713   82.0338 C   0  0  0  0  0  0  0  0  0  0  0  0
    1.8622   66.3851   83.0754 C   0  0  0  0  0  0  0  0  0  0  0  0
    2.6507   67.5264   83.3311 C   0  0  0  0  0  0  0  0  0  0  0  0
    3.6074   67.4262   84.4781 C   0  0  0  0  0  0  0  0  0  0  0  0
    4.5021   66.5821   84.4995 O   0  0  0  0  0  0  0  0  0  0  0  0
    3.4625   68.3228   85.5112 N   0  0  0  0  0  0  0  0  0  0  0  0
    4.5127   68.3329   86.4599 O   0  0  0  0  0  0  0  0  0  0  0  0
    2.9449   69.1886   85.3835 H   0  0  0  0  0  0  0  0  0  0  0  0
    5.0749   67.5913   86.1426 H   0  0  0  0  0  0  0  0  0  0  0  0
    2.7260   71.0448   82.7689 C   0  0  0  0  0  0  0  0  0  0  0  0
    3.3177   69.7492   82.7896 O   0  0  0  0  0  0  0  0  0  0  0  0
   -0.9675   63.4492   80.6008 C   0  0  0  0  0  0  0  0  0  0  0  0
   -1.4973   62.9330   79.4266 C   0  0  0  0  0  0  0  0  0  0  0  0
   -2.4297   61.9080   79.5270 C   0  0  0  0  0  0  0  0  0  0  0  0
   -2.7962   61.4391   80.7862 C   0  0  0  0  0  0  0  0  0  0  0  0
   -2.2175   62.0065   81.9232 C   0  0  0  0  0  0  0  0  0  0  0  0
   -1.3093   63.0142   81.8505 N   0  0  0  0  0  0  0  0  0  0  0  0
   -2.6246   61.5264   83.3008 C   0  0  0  0  0  0  0  0  0  0  0  0
   -1.4776   61.4966   84.1506 O   0  0  0  0  0  0  0  0  0  0  0  0
   -1.5674   62.1684   85.3384 C   0  0  0  0  0  0  0  0  0  0  0  0
   -2.7001   62.2614   86.1487 C   0  0  0  0  0  0  0  0  0  0  0  0
   -2.6491   62.9835   87.3455 C   0  0  0  0  0  0  0  0  0  0  0  0
   -1.4693   63.6146   87.7363 C   0  0  0  0  0  0  0  0  0  0  0  0
   -0.3371   63.5256   86.9308 C   0  0  0  0  0  0  0  0  0  0  0  0
   -0.3886   62.8047   85.7368 C   0  0  0  0  0  0  0  0  0  0  0  0
 17 18  1  0  0  0
 18  5  1  0  0  0
  5  6  1  0  0  0
  6  7  2  0  0  0
  7  8  1  0  0  0
  8  1  1  0  0  0
  1  2  1  0  0  0
  2  3  2  0  0  0
  2 19  1  0  0  0
 19 20  1  0  0  0
 20 21  2  0  0  0
 21 22  1  0  0  0
 22 23  2  0  0  0
 23 25  1  0  0  0
 25 26  1  0  0  0
 26 27  1  0  0  0
 27 28  2  0  0  0
 28 29  1  0  0  0
 29 30  2  0  0  0
 30 31  1  0  0  0
 31 32  2  0  0  0
 23 24  1  0  0  0
  8  9  2  0  0  0
  9 10  1  0  0  0
 10 11  1  0  0  0
 11 12  2  0  0  0
 11 13  1  0  0  0
 13 14  1  0  0  0
 10  5  2  0  0  0
 24 19  2  0  0  0
 32 27  1  0  0  0
  1  4  1  0  0  0
 13 15  1  0  0  0
 14 16  1  0  0  0
M  END
> <minimizedAffinity>
-9.64437

$$$$



 32 34  0  0  0  0  0  0  0  0999 V2000
   -1.2536   62.5381   82.7188 N   0  0  0  0  0  0  0  0  0  0  0  0
   -1.8281   62.1515   83.9153 C   0  0  0  0  0  0  0  0  0  0  0  0
   -2.7381   61.3484   84.0744 O   0  0  0  0  0  0  0  0  0  0  0  0
   -0.4955   63.2081   82.8320 H   0  0  0  0  0  0  0  0  0  0  0  0
   -2.1206   61.4128   78.7310 C   0  0  0  0  0  0  0  0  0  0  0  0
   -1.3400   62.5339   79.0339 C   0  0  0  0  0  0  0  0  0  0  0  0
   -1.0717   62.8800   80.3626 C   0  0  0  0  0  0  0  0  0  0  0  0
   -1.5740   62.1168   81.4178 C   0  0  0  0  0  0  0  0  0  0  0  0
   -2.3523   60.9979   81.1255 C   0  0  0  0  0  0  0  0  0  0  0  0
   -2.6269   60.6326   79.7909 C   0  0  0  0  0  0  0  0  0  0  0  0
   -3.4695   59.4102   79.5995 C   0  0  0  0  0  0  0  0  0  0  0  0
   -3.2679   58.3810   80.2427 O   0  0  0  0  0  0  0  0  0  0  0  0
   -4.4934   59.4769   78.6835 N   0  0  0  0  0  0  0  0  0  0  0  0
   -5.3913   58.3830   78.6938 O   0  0  0  0  0  0  0  0  0  0  0  0
   -4.8584   60.3732   78.3715 H   0  0  0  0  0  0  0  0  0  0  0  0
   -4.9725   57.7878   79.3549 H   0  0  0  0  0  0  0  0  0  0  0  0
   -1.4043   60.4375   76.6619 C   0  0  0  0  0  0  0  0  0  0  0  0
   -2.4310   61.0325   77.4498 O   0  0  0  0  0  0  0  0  0  0  0  0
   -1.2074   62.8315   85.1015 C   0  0  0  0  0  0  0  0  0  0  0  0
   -1.7079   62.6021   86.3753 C   0  0  0  0  0  0  0  0  0  0  0  0
   -1.0977   63.2495   87.4423 C   0  0  0  0  0  0  0  0  0  0  0  0
   -0.0182   64.0958   87.2007 C   0  0  0  0  0  0  0  0  0  0  0  0
    0.4314   64.2750   85.8910 C   0  0  0  0  0  0  0  0  0  0  0  0
   -0.1534   63.6586   84.8311 N   0  0  0  0  0  0  0  0  0  0  0  0
    1.5870   65.2123   85.6080 C   0  0  0  0  0  0  0  0  0  0  0  0
    1.8760   65.1998   84.2097 O   0  0  0  0  0  0  0  0  0  0  0  0
    1.8322   66.4002   83.5561 C   0  0  0  0  0  0  0  0  0  0  0  0
    1.1814   66.6573   82.3483 C   0  0  0  0  0  0  0  0  0  0  0  0
    1.2169   67.9400   81.7916 C   0  0  0  0  0  0  0  0  0  0  0  0
    1.9017   68.9681   82.4372 C   0  0  0  0  0  0  0  0  0  0  0  0
    2.5534   68.7163   83.6415 C   0  0  0  0  0  0  0  0  0  0  0  0
    2.5174   67.4362   84.1967 C   0  0  0  0  0  0  0  0  0  0  0  0
 17 18  1  0  0  0
 18  5  1  0  0  0
  5  6  1  0  0  0
  6  7  2  0  0  0
  7  8  1  0  0  0
  8  1  1  0  0  0
  1  2  1  0  0  0
  2  3  2  0  0  0
  2 19  1  0  0  0
 19 20  1  0  0  0
 20 21  2  0  0  0
 21 22  1  0  0  0
 22 23  2  0  0  0
 23 25  1  0  0  0
 25 26  1  0  0  0
 26 27  1  0  0  0
 27 28  2  0  0  0
 28 29  1  0  0  0
 29 30  2  0  0  0
 30 31  1  0  0  0
 31 32  2  0  0  0
 23 24  1  0  0  0
  8  9  2  0  0  0
  9 10  1  0  0  0
 10 11  1  0  0  0
 11 12  2  0  0  0
 11 13  1  0  0  0
 13 14  1  0  0  0
 10  5  2  0  0  0
 24 19  2  0  0  0
 32 27  1  0  0  0
  1  4  1  0  0  0
 13 15  1  0  0  0
 14 16  1  0  0  0
M  END
> <minimizedAffinity>
-9.60765

$$$$
