


 34 37  0  0  0  0  0  0  0  0999 V2000
   -0.1919   63.1129   85.4563 C   0  0  0  0  0  0  0  0  0  0  0  0
    0.4010   64.0066   86.3590 C   0  0  0  0  0  0  0  0  0  0  0  0
    1.0414   65.1649   85.9087 C   0  0  0  0  0  0  0  0  0  0  0  0
    1.1037   65.4603   84.5464 C   0  0  0  0  0  0  0  0  0  0  0  0
    0.5011   64.5764   83.6425 C   0  0  0  0  0  0  0  0  0  0  0  0
   -0.1438   63.4004   84.0752 C   0  0  0  0  0  0  0  0  0  0  0  0
   -0.7332   62.5198   83.0020 C   0  0  0  0  0  0  0  0  0  0  0  0
   -0.2641   62.5833   81.7836 N   0  0  0  0  0  0  0  0  0  0  0  0
   -0.8909   61.7206   80.8838 C   0  0  0  0  0  0  0  0  0  0  0  0
   -0.6514   61.5185   79.5151 C   0  0  0  0  0  0  0  0  0  0  0  0
   -1.4825   60.5799   79.0222 N   0  0  0  0  0  0  0  0  0  0  0  0
   -2.2320   60.2103   80.0909 N   0  0  0  0  0  0  0  0  0  0  0  0
   -3.2531   59.2019   79.9403 C   0  0  0  0  0  0  0  0  0  0  0  0
   -1.9018   60.8761   81.2289 C   0  0  0  0  0  0  0  0  0  0  0  0
   -2.4164   60.7973   82.5453 C   0  0  0  0  0  0  0  0  0  0  0  0
   -3.3141   60.0535   82.9226 O   0  0  0  0  0  0  0  0  0  0  0  0
   -1.7706   61.6750   83.3849 N   0  0  0  0  0  0  0  0  0  0  0  0
   -2.0728   61.6647   84.3503 H   0  0  0  0  0  0  0  0  0  0  0  0
    0.3507   62.1877   78.6424 C   0  0  0  0  0  0  0  0  0  0  0  0
   -0.2955   62.9210   77.4770 C   0  0  0  0  0  0  0  0  0  0  0  0
   -0.8271   61.9608   85.8477 O   0  0  0  0  0  0  0  0  0  0  0  0
   -2.7363   62.5297   87.1512 C   0  0  0  0  0  0  0  0  0  0  0  0
   -1.3569   61.8958   87.1733 C   0  0  0  0  0  0  0  0  0  0  0  0
    1.7950   66.7084   84.0581 C   0  0  0  0  0  0  0  0  0  0  0  0
    3.3125   66.6770   84.2224 C   0  0  0  0  0  0  0  0  0  0  0  0
    4.0690   67.8033   84.9761 C   0  0  0  0  0  0  0  0  0  0  0  0
    5.1014   66.7360   85.4301 C   0  0  0  0  0  0  0  0  0  0  0  0
    4.0009   65.6707   85.1823 C   0  0  0  0  0  0  0  0  0  0  0  0
    6.4136   66.6081   84.5983 C   0  0  0  0  0  0  0  0  0  0  0  0
    6.7778   67.3725   83.6995 O   0  0  0  0  0  0  0  0  0  0  0  0
    7.1855   65.5153   84.9315 N   0  0  0  0  0  0  0  0  0  0  0  0
    8.2922   65.2647   84.0878 O   0  0  0  0  0  0  0  0  0  0  0  0
    6.8409   64.7332   85.4771 H   0  0  0  0  0  0  0  0  0  0  0  0
    8.2496   66.0202   83.4597 H   0  0  0  0  0  0  0  0  0  0  0  0
 22 23  1  0  0  0
 23 21  1  0  0  0
 21  1  1  0  0  0
  1  2  1  0  0  0
  2  3  2  0  0  0
  3  4  1  0  0  0
  4 24  1  0  0  0
 24 25  1  0  0  0
 25 26  1  0  0  0
 26 27  1  0  0  0
 27 29  1  0  0  0
 29 30  2  0  0  0
 29 31  1  0  0  0
 31 32  1  0  0  0
 27 28  1  0  0  0
  4  5  2  0  0  0
  5  6  1  0  0  0
  6  7  1  0  0  0
  7  8  2  0  0  0
  8  9  1  0  0  0
  9 10  1  0  0  0
 10 19  1  0  0  0
 19 20  1  0  0  0
 10 11  2  0  0  0
 11 12  1  0  0  0
 12 13  1  0  0  0
 12 14  1  0  0  0
 14 15  1  0  0  0
 15 16  2  0  0  0
 15 17  1  0  0  0
  6  1  2  0  0  0
 17  7  1  0  0  0
 28 25  1  0  0  0
 14  9  2  0  0  0
 31 33  1  0  0  0
 32 34  1  0  0  0
 17 18  1  0  0  0
M  END
> <minimizedAffinity>
-10.86949

$$$$



 34 37  0  0  0  0  0  0  0  0999 V2000
   -0.3771   62.9995   85.5070 C   0  0  0  0  0  0  0  0  0  0  0  0
    0.2774   63.8110   86.4441 C   0  0  0  0  0  0  0  0  0  0  0  0
    1.0267   64.9189   86.0373 C   0  0  0  0  0  0  0  0  0  0  0  0
    1.1394   65.2450   84.6853 C   0  0  0  0  0  0  0  0  0  0  0  0
    0.4761   64.4441   83.7471 C   0  0  0  0  0  0  0  0  0  0  0  0
   -0.2790   63.3194   84.1356 C   0  0  0  0  0  0  0  0  0  0  0  0
   -0.9257   62.5253   83.0286 C   0  0  0  0  0  0  0  0  0  0  0  0
   -0.7352   62.8769   81.7842 N   0  0  0  0  0  0  0  0  0  0  0  0
   -1.3851   62.0645   80.8544 C   0  0  0  0  0  0  0  0  0  0  0  0
   -1.4038   62.1383   79.4523 C   0  0  0  0  0  0  0  0  0  0  0  0
   -2.1544   61.1463   78.9356 N   0  0  0  0  0  0  0  0  0  0  0  0
   -2.5966   60.4674   80.0238 N   0  0  0  0  0  0  0  0  0  0  0  0
   -3.4484   59.3148   79.8565 C   0  0  0  0  0  0  0  0  0  0  0  0
   -2.1515   60.9920   81.1960 C   0  0  0  0  0  0  0  0  0  0  0  0
   -2.3632   60.6007   82.5399 C   0  0  0  0  0  0  0  0  0  0  0  0
   -3.0301   59.6429   82.9128 O   0  0  0  0  0  0  0  0  0  0  0  0
   -1.7098   61.4411   83.4112 N   0  0  0  0  0  0  0  0  0  0  0  0
   -1.8003   61.2149   84.3931 H   0  0  0  0  0  0  0  0  0  0  0  0
   -0.7263   63.1250   78.5686 C   0  0  0  0  0  0  0  0  0  0  0  0
    0.7410   62.7911   78.3472 C   0  0  0  0  0  0  0  0  0  0  0  0
   -1.1198   61.8989   85.8551 O   0  0  0  0  0  0  0  0  0  0  0  0
   -2.9760   63.0066   86.8528 C   0  0  0  0  0  0  0  0  0  0  0  0
   -1.8972   61.9571   87.0528 C   0  0  0  0  0  0  0  0  0  0  0  0
    1.9482   66.4387   84.2439 C   0  0  0  0  0  0  0  0  0  0  0  0
    1.4468   67.0795   82.9521 C   0  0  0  0  0  0  0  0  0  0  0  0
    1.7469   68.5645   82.6151 C   0  0  0  0  0  0  0  0  0  0  0  0
    1.7656   68.1670   81.1141 C   0  0  0  0  0  0  0  0  0  0  0  0
    2.0665   66.7167   81.5764 C   0  0  0  0  0  0  0  0  0  0  0  0
    0.4587   68.3946   80.2956 C   0  0  0  0  0  0  0  0  0  0  0  0
   -0.2455   69.4086   80.3242 O   0  0  0  0  0  0  0  0  0  0  0  0
    0.1008   67.3265   79.5004 N   0  0  0  0  0  0  0  0  0  0  0  0
   -1.1649   67.4216   78.8771 O   0  0  0  0  0  0  0  0  0  0  0  0
    0.4884   66.3957   79.6073 H   0  0  0  0  0  0  0  0  0  0  0  0
   -1.4669   68.3149   79.1559 H   0  0  0  0  0  0  0  0  0  0  0  0
 22 23  1  0  0  0
 23 21  1  0  0  0
 21  1  1  0  0  0
  1  2  1  0  0  0
  2  3  2  0  0  0
  3  4  1  0  0  0
  4 24  1  0  0  0
 24 25  1  0  0  0
 25 26  1  0  0  0
 26 27  1  0  0  0
 27 29  1  0  0  0
 29 30  2  0  0  0
 29 31  1  0  0  0
 31 32  1  0  0  0
 27 28  1  0  0  0
  4  5  2  0  0  0
  5  6  1  0  0  0
  6  7  1  0  0  0
  7  8  2  0  0  0
  8  9  1  0  0  0
  9 10  1  0  0  0
 10 19  1  0  0  0
 19 20  1  0  0  0
 10 11  2  0  0  0
 11 12  1  0  0  0
 12 13  1  0  0  0
 12 14  1  0  0  0
 14 15  1  0  0  0
 15 16  2  0  0  0
 15 17  1  0  0  0
  6  1  2  0  0  0
 17  7  1  0  0  0
 28 25  1  0  0  0
 14  9  2  0  0  0
 31 33  1  0  0  0
 32 34  1  0  0  0
 17 18  1  0  0  0
M  END
> <minimizedAffinity>
-10.73488

$$$$



 34 37  0  0  0  0  0  0  0  0999 V2000
    1.7591   66.7035   83.3700 C   0  0  0  0  0  0  0  0  0  0  0  0
    1.9931   67.3048   82.1255 C   0  0  0  0  0  0  0  0  0  0  0  0
    1.5306   66.7170   80.9444 C   0  0  0  0  0  0  0  0  0  0  0  0
    0.8214   65.5157   80.9769 C   0  0  0  0  0  0  0  0  0  0  0  0
    0.5745   64.9188   82.2196 C   0  0  0  0  0  0  0  0  0  0  0  0
    1.0373   65.4915   83.4212 C   0  0  0  0  0  0  0  0  0  0  0  0
    0.7263   64.7397   84.6910 C   0  0  0  0  0  0  0  0  0  0  0  0
   -0.4135   64.1105   84.8073 N   0  0  0  0  0  0  0  0  0  0  0  0
   -0.5823   63.4536   86.0267 C   0  0  0  0  0  0  0  0  0  0  0  0
   -1.6615   62.6864   86.4938 C   0  0  0  0  0  0  0  0  0  0  0  0
   -1.4115   62.2223   87.7334 N   0  0  0  0  0  0  0  0  0  0  0  0
   -0.1790   62.7090   88.0244 N   0  0  0  0  0  0  0  0  0  0  0  0
    0.4302   62.4120   89.2983 C   0  0  0  0  0  0  0  0  0  0  0  0
    0.3507   63.4538   87.0185 C   0  0  0  0  0  0  0  0  0  0  0  0
    1.5891   64.1297   86.9029 C   0  0  0  0  0  0  0  0  0  0  0  0
    2.4732   64.1598   87.7508 O   0  0  0  0  0  0  0  0  0  0  0  0
    1.6963   64.7669   85.6885 N   0  0  0  0  0  0  0  0  0  0  0  0
    2.5644   65.2599   85.5245 H   0  0  0  0  0  0  0  0  0  0  0  0
   -2.9392   62.3682   85.8009 C   0  0  0  0  0  0  0  0  0  0  0  0
   -2.7166   61.8353   84.3938 C   0  0  0  0  0  0  0  0  0  0  0  0
    2.1965   67.2376   84.5563 O   0  0  0  0  0  0  0  0  0  0  0  0
    4.5183   66.7981   84.8462 C   0  0  0  0  0  0  0  0  0  0  0  0
    3.4771   67.8713   84.5830 C   0  0  0  0  0  0  0  0  0  0  0  0
    0.3227   64.8790   79.7042 C   0  0  0  0  0  0  0  0  0  0  0  0
   -0.2942   63.4974   79.9067 C   0  0  0  0  0  0  0  0  0  0  0  0
   -1.3111   62.9079   78.8931 C   0  0  0  0  0  0  0  0  0  0  0  0
   -0.7565   61.4982   79.2344 C   0  0  0  0  0  0  0  0  0  0  0  0
    0.5401   62.2034   79.7129 C   0  0  0  0  0  0  0  0  0  0  0  0
   -1.5374   60.6563   80.2886 C   0  0  0  0  0  0  0  0  0  0  0  0
   -1.4166   60.7399   81.5147 O   0  0  0  0  0  0  0  0  0  0  0  0
   -2.4138   59.7434   79.7410 N   0  0  0  0  0  0  0  0  0  0  0  0
   -3.0115   58.8426   80.6524 O   0  0  0  0  0  0  0  0  0  0  0  0
   -2.3889   59.4593   78.7680 H   0  0  0  0  0  0  0  0  0  0  0  0
   -2.6562   59.1537   81.5149 H   0  0  0  0  0  0  0  0  0  0  0  0
 22 23  1  0  0  0
 23 21  1  0  0  0
 21  1  1  0  0  0
  1  2  1  0  0  0
  2  3  2  0  0  0
  3  4  1  0  0  0
  4 24  1  0  0  0
 24 25  1  0  0  0
 25 26  1  0  0  0
 26 27  1  0  0  0
 27 29  1  0  0  0
 29 30  2  0  0  0
 29 31  1  0  0  0
 31 32  1  0  0  0
 27 28  1  0  0  0
  4  5  2  0  0  0
  5  6  1  0  0  0
  6  7  1  0  0  0
  7  8  2  0  0  0
  8  9  1  0  0  0
  9 10  1  0  0  0
 10 19  1  0  0  0
 19 20  1  0  0  0
 10 11  2  0  0  0
 11 12  1  0  0  0
 12 13  1  0  0  0
 12 14  1  0  0  0
 14 15  1  0  0  0
 15 16  2  0  0  0
 15 17  1  0  0  0
  6  1  2  0  0  0
 17  7  1  0  0  0
 28 25  1  0  0  0
 14  9  2  0  0  0
 31 33  1  0  0  0
 32 34  1  0  0  0
 17 18  1  0  0  0
M  END
> <minimizedAffinity>
-10.55144

$$$$



 34 37  0  0  0  0  0  0  0  0999 V2000
    0.9562   66.2200   80.7447 C   0  0  0  0  0  0  0  0  0  0  0  0
    1.7790   67.3383   80.5514 C   0  0  0  0  0  0  0  0  0  0  0  0
    2.3621   67.9986   81.6370 C   0  0  0  0  0  0  0  0  0  0  0  0
    2.1398   67.5573   82.9419 C   0  0  0  0  0  0  0  0  0  0  0  0
    1.3288   66.4324   83.1380 C   0  0  0  0  0  0  0  0  0  0  0  0
    0.7265   65.7563   82.0580 C   0  0  0  0  0  0  0  0  0  0  0  0
   -0.1428   64.5731   82.4026 C   0  0  0  0  0  0  0  0  0  0  0  0
   -0.3640   64.2766   83.6562 N   0  0  0  0  0  0  0  0  0  0  0  0
   -1.1826   63.1624   83.8445 C   0  0  0  0  0  0  0  0  0  0  0  0
   -1.6292   62.5643   85.0338 C   0  0  0  0  0  0  0  0  0  0  0  0
   -2.4158   61.5044   84.7648 N   0  0  0  0  0  0  0  0  0  0  0  0
   -2.4474   61.4538   83.4094 N   0  0  0  0  0  0  0  0  0  0  0  0
   -3.2087   60.4239   82.7447 C   0  0  0  0  0  0  0  0  0  0  0  0
   -1.7168   62.4383   82.8225 C   0  0  0  0  0  0  0  0  0  0  0  0
   -1.4859   62.7513   81.4614 C   0  0  0  0  0  0  0  0  0  0  0  0
   -1.9441   62.1488   80.4978 O   0  0  0  0  0  0  0  0  0  0  0  0
   -0.6659   63.8486   81.3358 N   0  0  0  0  0  0  0  0  0  0  0  0
   -0.4678   64.1448   80.3890 H   0  0  0  0  0  0  0  0  0  0  0  0
   -1.3381   62.9647   86.4369 C   0  0  0  0  0  0  0  0  0  0  0  0
   -2.5948   63.0350   87.2907 C   0  0  0  0  0  0  0  0  0  0  0  0
    0.3568   65.5411   79.7132 O   0  0  0  0  0  0  0  0  0  0  0  0
    0.9095   63.7749   78.2156 C   0  0  0  0  0  0  0  0  0  0  0  0
    1.1396   65.2363   78.5571 C   0  0  0  0  0  0  0  0  0  0  0  0
    2.7665   68.2685   84.1146 C   0  0  0  0  0  0  0  0  0  0  0  0
    3.6941   67.3865   84.9465 C   0  0  0  0  0  0  0  0  0  0  0  0
    4.8122   66.5369   84.2854 C   0  0  0  0  0  0  0  0  0  0  0  0
    5.6572   66.7405   85.5721 C   0  0  0  0  0  0  0  0  0  0  0  0
    4.7948   67.9996   85.8525 C   0  0  0  0  0  0  0  0  0  0  0  0
    5.6236   65.6048   86.6393 C   0  0  0  0  0  0  0  0  0  0  0  0
    5.4368   64.4052   86.4136 O   0  0  0  0  0  0  0  0  0  0  0  0
    5.8089   66.0442   87.9332 N   0  0  0  0  0  0  0  0  0  0  0  0
    5.6131   65.0757   88.9447 O   0  0  0  0  0  0  0  0  0  0  0  0
    5.7291   67.0163   88.2099 H   0  0  0  0  0  0  0  0  0  0  0  0
    5.4264   64.2642   88.4218 H   0  0  0  0  0  0  0  0  0  0  0  0
 22 23  1  0  0  0
 23 21  1  0  0  0
 21  1  1  0  0  0
  1  2  1  0  0  0
  2  3  2  0  0  0
  3  4  1  0  0  0
  4 24  1  0  0  0
 24 25  1  0  0  0
 25 26  1  0  0  0
 26 27  1  0  0  0
 27 29  1  0  0  0
 29 30  2  0  0  0
 29 31  1  0  0  0
 31 32  1  0  0  0
 27 28  1  0  0  0
  4  5  2  0  0  0
  5  6  1  0  0  0
  6  7  1  0  0  0
  7  8  2  0  0  0
  8  9  1  0  0  0
  9 10  1  0  0  0
 10 19  1  0  0  0
 19 20  1  0  0  0
 10 11  2  0  0  0
 11 12  1  0  0  0
 12 13  1  0  0  0
 12 14  1  0  0  0
 14 15  1  0  0  0
 15 16  2  0  0  0
 15 17  1  0  0  0
  6  1  2  0  0  0
 17  7  1  0  0  0
 28 25  1  0  0  0
 14  9  2  0  0  0
 31 33  1  0  0  0
 32 34  1  0  0  0
 17 18  1  0  0  0
M  END
> <minimizedAffinity>
-10.47458

$$$$



 34 37  0  0  0  0  0  0  0  0999 V2000
    0.0026   63.7053   85.4833 C   0  0  0  0  0  0  0  0  0  0  0  0
   -1.1486   62.9290   85.2907 C   0  0  0  0  0  0  0  0  0  0  0  0
   -1.8168   62.9257   84.0627 C   0  0  0  0  0  0  0  0  0  0  0  0
   -1.3510   63.6958   82.9964 C   0  0  0  0  0  0  0  0  0  0  0  0
   -0.1937   64.4626   83.1811 C   0  0  0  0  0  0  0  0  0  0  0  0
    0.4911   64.4849   84.4127 C   0  0  0  0  0  0  0  0  0  0  0  0
    1.7108   65.3684   84.4910 C   0  0  0  0  0  0  0  0  0  0  0  0
    1.7777   66.4451   83.7529 N   0  0  0  0  0  0  0  0  0  0  0  0
    2.9541   67.1776   83.9154 C   0  0  0  0  0  0  0  0  0  0  0  0
    3.3638   68.3709   83.2991 C   0  0  0  0  0  0  0  0  0  0  0  0
    4.5761   68.7457   83.7510 N   0  0  0  0  0  0  0  0  0  0  0  0
    4.9082   67.7785   84.6426 N   0  0  0  0  0  0  0  0  0  0  0  0
    6.1684   67.8459   85.3421 C   0  0  0  0  0  0  0  0  0  0  0  0
    3.9538   66.8190   84.7677 C   0  0  0  0  0  0  0  0  0  0  0  0
    3.8913   65.6566   85.5732 C   0  0  0  0  0  0  0  0  0  0  0  0
    4.7485   65.2848   86.3659 O   0  0  0  0  0  0  0  0  0  0  0  0
    2.7180   64.9695   85.3645 N   0  0  0  0  0  0  0  0  0  0  0  0
    2.5925   64.1328   85.9191 H   0  0  0  0  0  0  0  0  0  0  0  0
    2.6400   69.1844   82.2852 C   0  0  0  0  0  0  0  0  0  0  0  0
    3.5868   69.8814   81.3202 C   0  0  0  0  0  0  0  0  0  0  0  0
    0.6907   63.7467   86.6702 O   0  0  0  0  0  0  0  0  0  0  0  0
    0.2039   62.7647   88.7836 C   0  0  0  0  0  0  0  0  0  0  0  0
   -0.0486   63.9549   87.8753 C   0  0  0  0  0  0  0  0  0  0  0  0
   -2.0707   63.6951   81.6713 C   0  0  0  0  0  0  0  0  0  0  0  0
   -2.4730   62.3036   81.1890 C   0  0  0  0  0  0  0  0  0  0  0  0
   -3.1281   62.0862   79.7988 C   0  0  0  0  0  0  0  0  0  0  0  0
   -2.4304   60.7001   79.7436 C   0  0  0  0  0  0  0  0  0  0  0  0
   -1.4090   61.2538   80.7721 C   0  0  0  0  0  0  0  0  0  0  0  0
   -3.2683   59.4578   80.1732 C   0  0  0  0  0  0  0  0  0  0  0  0
   -3.1522   58.8391   81.2355 O   0  0  0  0  0  0  0  0  0  0  0  0
   -4.1932   59.0523   79.2344 N   0  0  0  0  0  0  0  0  0  0  0  0
   -4.8507   57.8306   79.5078 O   0  0  0  0  0  0  0  0  0  0  0  0
   -4.1778   59.3562   78.2672 H   0  0  0  0  0  0  0  0  0  0  0  0
   -4.4842   57.5900   80.3880 H   0  0  0  0  0  0  0  0  0  0  0  0
 22 23  1  0  0  0
 23 21  1  0  0  0
 21  1  1  0  0  0
  1  2  1  0  0  0
  2  3  2  0  0  0
  3  4  1  0  0  0
  4 24  1  0  0  0
 24 25  1  0  0  0
 25 26  1  0  0  0
 26 27  1  0  0  0
 27 29  1  0  0  0
 29 30  2  0  0  0
 29 31  1  0  0  0
 31 32  1  0  0  0
 27 28  1  0  0  0
  4  5  2  0  0  0
  5  6  1  0  0  0
  6  7  1  0  0  0
  7  8  2  0  0  0
  8  9  1  0  0  0
  9 10  1  0  0  0
 10 19  1  0  0  0
 19 20  1  0  0  0
 10 11  2  0  0  0
 11 12  1  0  0  0
 12 13  1  0  0  0
 12 14  1  0  0  0
 14 15  1  0  0  0
 15 16  2  0  0  0
 15 17  1  0  0  0
  6  1  2  0  0  0
 17  7  1  0  0  0
 28 25  1  0  0  0
 14  9  2  0  0  0
 31 33  1  0  0  0
 32 34  1  0  0  0
 17 18  1  0  0  0
M  END
> <minimizedAffinity>
-10.46936

$$$$



 34 37  0  0  0  0  0  0  0  0999 V2000
    1.6551   67.1104   82.7589 C   0  0  0  0  0  0  0  0  0  0  0  0
    2.1564   67.8895   81.7068 C   0  0  0  0  0  0  0  0  0  0  0  0
    2.0781   67.4465   80.3831 C   0  0  0  0  0  0  0  0  0  0  0  0
    1.4957   66.2160   80.0772 C   0  0  0  0  0  0  0  0  0  0  0  0
    0.9821   65.4408   81.1245 C   0  0  0  0  0  0  0  0  0  0  0  0
    1.0566   65.8661   82.4661 C   0  0  0  0  0  0  0  0  0  0  0  0
    0.4880   64.9305   83.5033 C   0  0  0  0  0  0  0  0  0  0  0  0
   -0.4126   64.0496   83.1552 N   0  0  0  0  0  0  0  0  0  0  0  0
   -0.8594   63.2437   84.2030 C   0  0  0  0  0  0  0  0  0  0  0  0
   -1.8042   62.2050   84.1999 C   0  0  0  0  0  0  0  0  0  0  0  0
   -1.9341   61.6789   85.4331 N   0  0  0  0  0  0  0  0  0  0  0  0
   -1.0693   62.3992   86.1907 N   0  0  0  0  0  0  0  0  0  0  0  0
   -0.9344   62.1129   87.5985 C   0  0  0  0  0  0  0  0  0  0  0  0
   -0.4041   63.3492   85.4820 C   0  0  0  0  0  0  0  0  0  0  0  0
    0.5724   64.2978   85.8701 C   0  0  0  0  0  0  0  0  0  0  0  0
    1.0310   64.4366   86.9978 O   0  0  0  0  0  0  0  0  0  0  0  0
    0.9673   65.0700   84.8023 N   0  0  0  0  0  0  0  0  0  0  0  0
    1.6783   65.7625   84.9983 H   0  0  0  0  0  0  0  0  0  0  0  0
   -2.5995   61.6810   83.0568 C   0  0  0  0  0  0  0  0  0  0  0  0
   -1.8104   60.6975   82.2062 C   0  0  0  0  0  0  0  0  0  0  0  0
    1.7127   67.4982   84.0743 O   0  0  0  0  0  0  0  0  0  0  0  0
    3.9773   67.1423   84.7168 C   0  0  0  0  0  0  0  0  0  0  0  0
    2.8839   68.1789   84.5296 C   0  0  0  0  0  0  0  0  0  0  0  0
    1.4113   65.7353   78.6504 C   0  0  0  0  0  0  0  0  0  0  0  0
    0.2890   64.7303   78.4039 C   0  0  0  0  0  0  0  0  0  0  0  0
   -0.5878   64.7929   77.1246 C   0  0  0  0  0  0  0  0  0  0  0  0
   -0.7107   63.2465   77.1948 C   0  0  0  0  0  0  0  0  0  0  0  0
    0.5927   63.2534   78.0368 C   0  0  0  0  0  0  0  0  0  0  0  0
   -1.9877   62.6584   77.8680 C   0  0  0  0  0  0  0  0  0  0  0  0
   -2.0828   62.2930   79.0437 O   0  0  0  0  0  0  0  0  0  0  0  0
   -3.0688   62.5459   77.0195 N   0  0  0  0  0  0  0  0  0  0  0  0
   -4.1896   61.8589   77.5403 O   0  0  0  0  0  0  0  0  0  0  0  0
   -2.9944   62.5990   76.0096 H   0  0  0  0  0  0  0  0  0  0  0  0
   -3.9042   61.6641   78.4609 H   0  0  0  0  0  0  0  0  0  0  0  0
 22 23  1  0  0  0
 23 21  1  0  0  0
 21  1  1  0  0  0
  1  2  1  0  0  0
  2  3  2  0  0  0
  3  4  1  0  0  0
  4 24  1  0  0  0
 24 25  1  0  0  0
 25 26  1  0  0  0
 26 27  1  0  0  0
 27 29  1  0  0  0
 29 30  2  0  0  0
 29 31  1  0  0  0
 31 32  1  0  0  0
 27 28  1  0  0  0
  4  5  2  0  0  0
  5  6  1  0  0  0
  6  7  1  0  0  0
  7  8  2  0  0  0
  8  9  1  0  0  0
  9 10  1  0  0  0
 10 19  1  0  0  0
 19 20  1  0  0  0
 10 11  2  0  0  0
 11 12  1  0  0  0
 12 13  1  0  0  0
 12 14  1  0  0  0
 14 15  1  0  0  0
 15 16  2  0  0  0
 15 17  1  0  0  0
  6  1  2  0  0  0
 17  7  1  0  0  0
 28 25  1  0  0  0
 14  9  2  0  0  0
 31 33  1  0  0  0
 32 34  1  0  0  0
 17 18  1  0  0  0
M  END
> <minimizedAffinity>
-10.45237

$$$$



 34 37  0  0  0  0  0  0  0  0999 V2000
    0.9334   66.3636   80.9007 C   0  0  0  0  0  0  0  0  0  0  0  0
    1.7610   67.4878   80.7729 C   0  0  0  0  0  0  0  0  0  0  0  0
    2.3719   68.0621   81.8916 C   0  0  0  0  0  0  0  0  0  0  0  0
    2.1730   67.5270   83.1649 C   0  0  0  0  0  0  0  0  0  0  0  0
    1.3573   66.3960   83.2946 C   0  0  0  0  0  0  0  0  0  0  0  0
    0.7273   65.8056   82.1808 C   0  0  0  0  0  0  0  0  0  0  0  0
   -0.1443   64.6059   82.4555 C   0  0  0  0  0  0  0  0  0  0  0  0
   -0.4039   64.2644   83.6902 N   0  0  0  0  0  0  0  0  0  0  0  0
   -1.2201   63.1394   83.8128 C   0  0  0  0  0  0  0  0  0  0  0  0
   -1.7007   62.4975   84.9654 C   0  0  0  0  0  0  0  0  0  0  0  0
   -2.4705   61.4429   84.6343 N   0  0  0  0  0  0  0  0  0  0  0  0
   -2.4578   61.4395   83.2777 N   0  0  0  0  0  0  0  0  0  0  0  0
   -3.1898   60.4288   82.5532 C   0  0  0  0  0  0  0  0  0  0  0  0
   -1.7157   62.4482   82.7495 C   0  0  0  0  0  0  0  0  0  0  0  0
   -1.4430   62.8099   81.4083 C   0  0  0  0  0  0  0  0  0  0  0  0
   -1.8654   62.2388   80.4100 O   0  0  0  0  0  0  0  0  0  0  0  0
   -0.6272   63.9159   81.3477 N   0  0  0  0  0  0  0  0  0  0  0  0
   -0.4007   64.2462   80.4187 H   0  0  0  0  0  0  0  0  0  0  0  0
   -1.4581   62.8504   86.3904 C   0  0  0  0  0  0  0  0  0  0  0  0
   -2.7482   62.9446   87.1904 C   0  0  0  0  0  0  0  0  0  0  0  0
    0.3073   65.7667   79.8349 O   0  0  0  0  0  0  0  0  0  0  0  0
    0.3717   64.3165   77.9480 C   0  0  0  0  0  0  0  0  0  0  0  0
    1.0932   65.4268   78.6907 C   0  0  0  0  0  0  0  0  0  0  0  0
    2.8297   68.1455   84.3733 C   0  0  0  0  0  0  0  0  0  0  0  0
    4.2231   67.5954   84.6669 C   0  0  0  0  0  0  0  0  0  0  0  0
    4.9902   67.9810   85.9599 C   0  0  0  0  0  0  0  0  0  0  0  0
    5.6414   66.5716   85.9329 C   0  0  0  0  0  0  0  0  0  0  0  0
    4.4386   66.1117   85.0673 C   0  0  0  0  0  0  0  0  0  0  0  0
    7.0603   66.4492   85.2991 C   0  0  0  0  0  0  0  0  0  0  0  0
    7.9343   67.3214   85.3081 O   0  0  0  0  0  0  0  0  0  0  0  0
    7.2938   65.2428   84.6736 N   0  0  0  0  0  0  0  0  0  0  0  0
    8.4985   65.1552   83.9383 O   0  0  0  0  0  0  0  0  0  0  0  0
    6.5582   64.5910   84.4243 H   0  0  0  0  0  0  0  0  0  0  0  0
    8.9134   66.0291   84.1148 H   0  0  0  0  0  0  0  0  0  0  0  0
 22 23  1  0  0  0
 23 21  1  0  0  0
 21  1  1  0  0  0
  1  2  1  0  0  0
  2  3  2  0  0  0
  3  4  1  0  0  0
  4 24  1  0  0  0
 24 25  1  0  0  0
 25 26  1  0  0  0
 26 27  1  0  0  0
 27 29  1  0  0  0
 29 30  2  0  0  0
 29 31  1  0  0  0
 31 32  1  0  0  0
 27 28  1  0  0  0
  4  5  2  0  0  0
  5  6  1  0  0  0
  6  7  1  0  0  0
  7  8  2  0  0  0
  8  9  1  0  0  0
  9 10  1  0  0  0
 10 19  1  0  0  0
 19 20  1  0  0  0
 10 11  2  0  0  0
 11 12  1  0  0  0
 12 13  1  0  0  0
 12 14  1  0  0  0
 14 15  1  0  0  0
 15 16  2  0  0  0
 15 17  1  0  0  0
  6  1  2  0  0  0
 17  7  1  0  0  0
 28 25  1  0  0  0
 14  9  2  0  0  0
 31 33  1  0  0  0
 32 34  1  0  0  0
 17 18  1  0  0  0
M  END
> <minimizedAffinity>
-10.36461

$$$$



 34 37  0  0  0  0  0  0  0  0999 V2000
   -0.2978   63.3506   85.2395 C   0  0  0  0  0  0  0  0  0  0  0  0
   -1.3644   62.4426   85.1878 C   0  0  0  0  0  0  0  0  0  0  0  0
   -2.1650   62.3375   84.0465 C   0  0  0  0  0  0  0  0  0  0  0  0
   -1.9190   63.1350   82.9282 C   0  0  0  0  0  0  0  0  0  0  0  0
   -0.8461   64.0342   82.9715 C   0  0  0  0  0  0  0  0  0  0  0  0
   -0.0310   64.1600   84.1143 C   0  0  0  0  0  0  0  0  0  0  0  0
    1.0775   65.1802   84.0438 C   0  0  0  0  0  0  0  0  0  0  0  0
    0.9479   66.2232   83.2668 N   0  0  0  0  0  0  0  0  0  0  0  0
    2.0392   67.0923   83.2893 C   0  0  0  0  0  0  0  0  0  0  0  0
    2.2458   68.2958   82.5962 C   0  0  0  0  0  0  0  0  0  0  0  0
    3.4419   68.8270   82.9151 N   0  0  0  0  0  0  0  0  0  0  0  0
    3.9673   67.9453   83.8024 N   0  0  0  0  0  0  0  0  0  0  0  0
    5.2699   68.1881   84.3735 C   0  0  0  0  0  0  0  0  0  0  0  0
    3.1488   66.8893   84.0520 C   0  0  0  0  0  0  0  0  0  0  0  0
    3.2993   65.7648   84.8986 C   0  0  0  0  0  0  0  0  0  0  0  0
    4.2642   65.5297   85.6163 O   0  0  0  0  0  0  0  0  0  0  0  0
    2.2014   64.9390   84.8282 N   0  0  0  0  0  0  0  0  0  0  0  0
    2.2277   64.1192   85.4204 H   0  0  0  0  0  0  0  0  0  0  0  0
    1.3401   68.9747   81.6304 C   0  0  0  0  0  0  0  0  0  0  0  0
    1.6682   68.6259   80.1868 C   0  0  0  0  0  0  0  0  0  0  0  0
    0.5132   63.4950   86.3375 O   0  0  0  0  0  0  0  0  0  0  0  0
    0.1885   62.9744   88.6378 C   0  0  0  0  0  0  0  0  0  0  0  0
   -0.0635   63.9975   87.5446 C   0  0  0  0  0  0  0  0  0  0  0  0
   -2.7819   63.0246   81.6965 C   0  0  0  0  0  0  0  0  0  0  0  0
   -2.1890   62.1356   80.6062 C   0  0  0  0  0  0  0  0  0  0  0  0
   -1.9136   60.6279   80.8511 C   0  0  0  0  0  0  0  0  0  0  0  0
   -2.2221   60.3799   79.3496 C   0  0  0  0  0  0  0  0  0  0  0  0
   -3.0230   61.7088   79.3691 C   0  0  0  0  0  0  0  0  0  0  0  0
   -1.0102   60.2955   78.3729 C   0  0  0  0  0  0  0  0  0  0  0  0
   -0.2762   61.2339   78.0479 O   0  0  0  0  0  0  0  0  0  0  0  0
   -0.8003   59.0389   77.8455 N   0  0  0  0  0  0  0  0  0  0  0  0
    0.1760   58.9559   76.8259 O   0  0  0  0  0  0  0  0  0  0  0  0
   -1.4902   58.2966   77.8788 H   0  0  0  0  0  0  0  0  0  0  0  0
    0.5126   59.8789   76.7853 H   0  0  0  0  0  0  0  0  0  0  0  0
 22 23  1  0  0  0
 23 21  1  0  0  0
 21  1  1  0  0  0
  1  2  1  0  0  0
  2  3  2  0  0  0
  3  4  1  0  0  0
  4 24  1  0  0  0
 24 25  1  0  0  0
 25 26  1  0  0  0
 26 27  1  0  0  0
 27 29  1  0  0  0
 29 30  2  0  0  0
 29 31  1  0  0  0
 31 32  1  0  0  0
 27 28  1  0  0  0
  4  5  2  0  0  0
  5  6  1  0  0  0
  6  7  1  0  0  0
  7  8  2  0  0  0
  8  9  1  0  0  0
  9 10  1  0  0  0
 10 19  1  0  0  0
 19 20  1  0  0  0
 10 11  2  0  0  0
 11 12  1  0  0  0
 12 13  1  0  0  0
 12 14  1  0  0  0
 14 15  1  0  0  0
 15 16  2  0  0  0
 15 17  1  0  0  0
  6  1  2  0  0  0
 17  7  1  0  0  0
 28 25  1  0  0  0
 14  9  2  0  0  0
 31 33  1  0  0  0
 32 34  1  0  0  0
 17 18  1  0  0  0
M  END
> <minimizedAffinity>
-10.36395

$$$$



 34 37  0  0  0  0  0  0  0  0999 V2000
    2.1113   66.4804   83.2780 C   0  0  0  0  0  0  0  0  0  0  0  0
    2.4350   67.2026   82.1209 C   0  0  0  0  0  0  0  0  0  0  0  0
    1.7410   66.9941   80.9253 C   0  0  0  0  0  0  0  0  0  0  0  0
    0.7057   66.0611   80.8561 C   0  0  0  0  0  0  0  0  0  0  0  0
    0.3710   65.3472   82.0135 C   0  0  0  0  0  0  0  0  0  0  0  0
    1.0620   65.5377   83.2270 C   0  0  0  0  0  0  0  0  0  0  0  0
    0.6212   64.6914   84.3949 C   0  0  0  0  0  0  0  0  0  0  0  0
   -0.4459   63.9446   84.2859 N   0  0  0  0  0  0  0  0  0  0  0  0
   -0.7491   63.2097   85.4326 C   0  0  0  0  0  0  0  0  0  0  0  0
   -1.8022   62.3131   85.6747 C   0  0  0  0  0  0  0  0  0  0  0  0
   -1.7200   61.8112   86.9221 N   0  0  0  0  0  0  0  0  0  0  0  0
   -0.6166   62.4042   87.4430 N   0  0  0  0  0  0  0  0  0  0  0  0
   -0.2068   62.1030   88.7934 C   0  0  0  0  0  0  0  0  0  0  0  0
   -0.0063   63.2516   86.5731 C   0  0  0  0  0  0  0  0  0  0  0  0
    1.1522   64.0549   86.7018 C   0  0  0  0  0  0  0  0  0  0  0  0
    1.8685   64.1292   87.6930 O   0  0  0  0  0  0  0  0  0  0  0  0
    1.3964   64.7636   85.5484 N   0  0  0  0  0  0  0  0  0  0  0  0
    2.2206   65.3502   85.5576 H   0  0  0  0  0  0  0  0  0  0  0  0
   -2.8991   61.9044   84.7562 C   0  0  0  0  0  0  0  0  0  0  0  0
   -2.3762   61.3959   83.4215 C   0  0  0  0  0  0  0  0  0  0  0  0
    2.7655   66.6446   84.4734 O   0  0  0  0  0  0  0  0  0  0  0  0
    4.7881   67.8041   84.9558 C   0  0  0  0  0  0  0  0  0  0  0  0
    4.1859   66.4885   84.4958 C   0  0  0  0  0  0  0  0  0  0  0  0
   -0.0434   65.8335   79.5673 C   0  0  0  0  0  0  0  0  0  0  0  0
   -0.1160   64.3676   79.1472 C   0  0  0  0  0  0  0  0  0  0  0  0
   -1.0215   63.9050   77.9746 C   0  0  0  0  0  0  0  0  0  0  0  0
    0.0240   62.7977   77.6713 C   0  0  0  0  0  0  0  0  0  0  0  0
    1.0645   63.6778   78.4132 C   0  0  0  0  0  0  0  0  0  0  0  0
   -0.2473   61.3768   78.2522 C   0  0  0  0  0  0  0  0  0  0  0  0
   -0.4297   61.1047   79.4427 O   0  0  0  0  0  0  0  0  0  0  0  0
   -0.2559   60.3749   77.3048 N   0  0  0  0  0  0  0  0  0  0  0  0
   -0.3246   59.0550   77.8073 O   0  0  0  0  0  0  0  0  0  0  0  0
    0.1156   60.4884   76.3682 H   0  0  0  0  0  0  0  0  0  0  0  0
   -0.4014   59.2054   78.7760 H   0  0  0  0  0  0  0  0  0  0  0  0
 22 23  1  0  0  0
 23 21  1  0  0  0
 21  1  1  0  0  0
  1  2  1  0  0  0
  2  3  2  0  0  0
  3  4  1  0  0  0
  4 24  1  0  0  0
 24 25  1  0  0  0
 25 26  1  0  0  0
 26 27  1  0  0  0
 27 29  1  0  0  0
 29 30  2  0  0  0
 29 31  1  0  0  0
 31 32  1  0  0  0
 27 28  1  0  0  0
  4  5  2  0  0  0
  5  6  1  0  0  0
  6  7  1  0  0  0
  7  8  2  0  0  0
  8  9  1  0  0  0
  9 10  1  0  0  0
 10 19  1  0  0  0
 19 20  1  0  0  0
 10 11  2  0  0  0
 11 12  1  0  0  0
 12 13  1  0  0  0
 12 14  1  0  0  0
 14 15  1  0  0  0
 15 16  2  0  0  0
 15 17  1  0  0  0
  6  1  2  0  0  0
 17  7  1  0  0  0
 28 25  1  0  0  0
 14  9  2  0  0  0
 31 33  1  0  0  0
 32 34  1  0  0  0
 17 18  1  0  0  0
M  END
> <minimizedAffinity>
-10.29511

$$$$
