
     RDKit          3D

 62 65  0  0  0  0  0  0  0  0999 V2000
   -1.0783    3.0529    0.2332 C   0  0  0  0  0  0  0  0  0  0  0  0
   -2.2587    3.3848    1.1364 C   0  0  0  0  0  0  0  0  0  0  0  0
   -2.8527    2.1624    1.8382 C   0  0  0  0  0  0  0  0  0  0  0  0
   -3.6034    1.2678    0.9103 C   0  0  0  0  0  0  0  0  0  0  0  0
   -4.8655    1.4082    0.5422 N   0  0  0  0  0  0  0  0  0  0  0  0
   -5.1291    0.3496   -0.2991 C   0  0  0  0  0  0  0  0  0  0  0  0
   -6.4647    0.1793   -0.9128 C   0  0  0  0  0  0  0  0  0  0  0  0
   -4.0051   -0.4331   -0.4360 C   0  0  0  0  0  0  0  0  0  0  0  0
   -3.7089   -1.6137   -1.1642 C   0  0  0  0  0  0  0  0  0  0  0  0
   -4.4896   -2.2268   -1.8838 O   0  0  0  0  0  0  0  0  0  0  0  0
   -2.4112   -2.0255   -0.9921 N   0  0  0  0  0  0  0  0  0  0  0  0
   -1.4835   -1.3694   -0.2097 C   0  0  0  0  0  0  0  0  0  0  0  0
   -0.0901   -1.9358   -0.1584 C   0  0  0  0  0  0  0  0  0  0  0  0
    0.8247   -1.2648    0.6728 C   0  0  0  0  0  0  0  0  0  0  0  0
    2.1512   -1.6899    0.7520 C   0  0  0  0  0  0  0  0  0  0  0  0
    3.2849   -0.7867    1.7739 S   0  0  0  0  0  0  0  0  0  0  0  0
    4.6332   -1.1128    1.3622 O   0  0  0  0  0  0  0  0  0  0  0  0
    2.8420   -0.9465    3.1400 O   0  0  0  0  0  0  0  0  0  0  0  0
    3.0104    0.8384    1.3025 N   0  0  0  0  0  0  0  0  0  0  0  0
    3.3861    1.1864   -0.1033 C   0  0  0  0  0  0  0  0  0  0  0  0
    4.6673    1.9839   -0.1788 C   0  0  0  0  0  0  0  0  0  0  0  0
    4.4292    3.5813    0.5701 S   0  0  0  0  0  0  0  0  0  0  0  0
    3.7520    4.4834   -0.4829 N   0  0  0  0  0  0  0  0  0  0  0  0
    5.6700    3.9286    1.2335 O   0  0  0  0  0  0  0  0  0  0  0  0
    3.2290    3.2492    1.8427 C   0  0  0  0  0  0  0  0  0  0  0  0
    3.4100    1.8326    2.3425 C   0  0  0  0  0  0  0  0  0  0  0  0
    2.5881   -2.7897    0.0207 C   0  0  0  0  0  0  0  0  0  0  0  0
    1.6841   -3.4735   -0.7969 C   0  0  0  0  0  0  0  0  0  0  0  0
    0.3454   -3.0594   -0.8987 C   0  0  0  0  0  0  0  0  0  0  0  0
   -0.5778   -3.6895   -1.6947 O   0  0  0  0  0  0  0  0  0  0  0  0
   -0.1689   -4.8495   -2.4235 C   0  0  0  0  0  0  0  0  0  0  0  0
   -1.3743   -5.3616   -3.1914 C   0  0  0  0  0  0  0  0  0  0  0  0
   -1.7664   -0.2928    0.4631 N   0  0  0  0  0  0  0  0  0  0  0  0
   -3.0420    0.1516    0.3301 N   0  0  0  0  0  0  0  0  0  0  0  0
   -0.3023    2.5094    0.7817 H   0  0  0  0  0  0  0  0  0  0  0  0
   -1.3874    2.4474   -0.6238 H   0  0  0  0  0  0  0  0  0  0  0  0
   -0.6333    3.9743   -0.1563 H   0  0  0  0  0  0  0  0  0  0  0  0
   -1.9134    4.0888    1.9032 H   0  0  0  0  0  0  0  0  0  0  0  0
   -3.0283    3.9032    0.5518 H   0  0  0  0  0  0  0  0  0  0  0  0
   -3.5535    2.5114    2.6072 H   0  0  0  0  0  0  0  0  0  0  0  0
   -2.0685    1.6103    2.3694 H   0  0  0  0  0  0  0  0  0  0  0  0
   -7.1443    0.9774   -0.5982 H   0  0  0  0  0  0  0  0  0  0  0  0
   -6.9044   -0.7778   -0.6158 H   0  0  0  0  0  0  0  0  0  0  0  0
   -6.3918    0.2059   -2.0044 H   0  0  0  0  0  0  0  0  0  0  0  0
   -2.1453   -2.8588   -1.5029 H   0  0  0  0  0  0  0  0  0  0  0  0
    0.5100   -0.4031    1.2601 H   0  0  0  0  0  0  0  0  0  0  0  0
    3.4944    0.2794   -0.7070 H   0  0  0  0  0  0  0  0  0  0  0  0
    2.5462    1.7384   -0.5424 H   0  0  0  0  0  0  0  0  0  0  0  0
    4.9750    2.1465   -1.2163 H   0  0  0  0  0  0  0  0  0  0  0  0
    5.4868    1.4836    0.3468 H   0  0  0  0  0  0  0  0  0  0  0  0
    3.6715    5.4475   -0.1484 H   0  0  0  0  0  0  0  0  0  0  0  0
    3.3928    3.9759    2.6440 H   0  0  0  0  0  0  0  0  0  0  0  0
    2.2276    3.3988    1.4268 H   0  0  0  0  0  0  0  0  0  0  0  0
    2.7614    1.6935    3.2146 H   0  0  0  0  0  0  0  0  0  0  0  0
    4.4459    1.6550    2.6542 H   0  0  0  0  0  0  0  0  0  0  0  0
    3.6222   -3.1246    0.0818 H   0  0  0  0  0  0  0  0  0  0  0  0
    2.0637   -4.3293   -1.3481 H   0  0  0  0  0  0  0  0  0  0  0  0
    0.6244   -4.5904   -3.1338 H   0  0  0  0  0  0  0  0  0  0  0  0
    0.1751   -5.6296   -1.7350 H   0  0  0  0  0  0  0  0  0  0  0  0
   -2.1917   -5.6079   -2.5055 H   0  0  0  0  0  0  0  0  0  0  0  0
   -1.1181   -6.2528   -3.7709 H   0  0  0  0  0  0  0  0  0  0  0  0
   -1.7522   -4.5922   -3.8730 H   0  0  0  0  0  0  0  0  0  0  0  0
  1  2  1  0
  2  3  1  0
  3  4  1  0
  4  5  2  0
  5  6  1  0
  6  7  1  0
  6  8  2  0
  8  9  1  0
  9 10  2  0
  9 11  1  0
 11 12  1  0
 12 13  1  0
 13 14  1  0
 14 15  2  0
 15 16  1  0
 16 17  2  0
 16 18  2  0
 16 19  1  0
 19 20  1  0
 20 21  1  0
 21 22  1  0
 22 23  2  0
 22 24  2  0
 22 25  1  0
 25 26  1  0
 15 27  1  0
 27 28  2  0
 28 29  1  0
 29 30  1  0
 30 31  1  0
 31 32  1  0
 12 33  2  0
 33 34  1  0
 34  4  1  0
 34  8  1  0
 29 13  2  0
 26 19  1  0
  1 35  1  0
  1 36  1  0
  1 37  1  0
  2 38  1  0
  2 39  1  0
  3 40  1  0
  3 41  1  0
  7 42  1  0
  7 43  1  0
  7 44  1  0
 11 45  1  0
 14 46  1  0
 20 47  1  0
 20 48  1  0
 21 49  1  0
 21 50  1  0
 23 51  1  0
 25 52  1  0
 25 53  1  0
 26 54  1  0
 26 55  1  0
 27 56  1  0
 28 57  1  0
 31 58  1  0
 31 59  1  0
 32 60  1  0
 32 61  1  0
 32 62  1  0
M  END
$$$$
