


 34 37  0  0  0  0  0  0  0  0999 V2000
   -0.3968   64.4045   81.0274 N   0  0  0  0  0  0  0  0  0  0  0  0
   -0.5326   64.6195   80.0508 H   0  0  0  0  0  0  0  0  0  0  0  0
   -2.0768   61.7754   82.8939 C   0  0  0  0  0  0  0  0  0  0  0  0
   -1.3949   62.9138   82.6024 N   0  0  0  0  0  0  0  0  0  0  0  0
   -1.0724   63.2212   81.3274 C   0  0  0  0  0  0  0  0  0  0  0  0
   -1.3806   62.4791   80.2444 N   0  0  0  0  0  0  0  0  0  0  0  0
   -2.0499   61.3628   80.5617 C   0  0  0  0  0  0  0  0  0  0  0  0
   -2.4311   60.9425   81.8212 C   0  0  0  0  0  0  0  0  0  0  0  0
   -3.1232   59.7479   81.7540 N   0  0  0  0  0  0  0  0  0  0  0  0
   -3.1456   59.4462   80.4721 C   0  0  0  0  0  0  0  0  0  0  0  0
   -2.5098   60.3926   79.7168 N   0  0  0  0  0  0  0  0  0  0  0  0
   -2.3482   60.3802   78.2875 C   0  0  0  0  0  0  0  0  0  0  0  0
   -2.4092   61.4464   84.2027 N   0  0  0  0  0  0  0  0  0  0  0  0
   -3.0401   60.6506   84.2454 H   0  0  0  0  0  0  0  0  0  0  0  0
   -2.5958   62.4999   85.1834 C   0  0  0  0  0  0  0  0  0  0  0  0
   -2.2159   62.9315   87.6716 C   0  0  0  0  0  0  0  0  0  0  0  0
   -1.5999   62.4486   86.3573 C   0  0  0  0  0  0  0  0  0  0  0  0
   -0.2933   63.1893   86.0736 C   0  0  0  0  0  0  0  0  0  0  0  0
    0.4853   65.2243   81.7390 C   0  0  0  0  0  0  0  0  0  0  0  0
    0.4966   65.3294   83.1354 C   0  0  0  0  0  0  0  0  0  0  0  0
    1.3720   66.2009   83.7921 C   0  0  0  0  0  0  0  0  0  0  0  0
    2.2411   66.9953   83.0453 C   0  0  0  0  0  0  0  0  0  0  0  0
    2.2518   66.9175   81.6544 C   0  0  0  0  0  0  0  0  0  0  0  0
    1.3736   66.0387   81.0125 C   0  0  0  0  0  0  0  0  0  0  0  0
    3.3257   68.1159   83.8891 S   0  0  0  0  0  0  0  0  0  0  0  0
    2.6550   68.5989   85.0788 O   0  0  0  0  0  0  0  0  0  0  0  0
    3.8506   69.0323   82.9002 O   0  0  0  0  0  0  0  0  0  0  0  0
    4.5965   67.0977   84.4051 N   0  0  0  0  0  0  0  0  0  0  0  0
    4.1567   65.8103   85.0302 C   0  0  0  0  0  0  0  0  0  0  0  0
    5.3778   64.9293   85.3682 C   0  0  0  0  0  0  0  0  0  0  0  0
    6.4052   65.5749   86.2112 N   0  0  0  0  0  0  0  0  0  0  0  0
    5.9631   65.7142   87.5971 C   0  0  0  0  0  0  0  0  0  0  0  0
    6.7700   66.8791   85.6185 C   0  0  0  0  0  0  0  0  0  0  0  0
    5.5826   67.8046   85.2819 C   0  0  0  0  0  0  0  0  0  0  0  0
 16 17  1  0  0  0
 17 18  1  0  0  0
 17 15  1  0  0  0
 15 13  1  0  0  0
 13  3  1  0  0  0
  3  4  1  0  0  0
  4  5  2  0  0  0
  5  1  1  0  0  0
  1 19  1  0  0  0
 19 20  1  0  0  0
 20 21  2  0  0  0
 21 22  1  0  0  0
 22 25  1  0  0  0
 25 26  2  0  0  0
 25 27  2  0  0  0
 25 28  1  0  0  0
 28 29  1  0  0  0
 29 30  1  0  0  0
 30 31  1  0  0  0
 31 32  1  0  0  0
 31 33  1  0  0  0
 33 34  1  0  0  0
 22 23  2  0  0  0
 23 24  1  0  0  0
  5  6  1  0  0  0
  6  7  2  0  0  0
  7  8  1  0  0  0
  8  9  1  0  0  0
  9 10  2  0  0  0
 10 11  1  0  0  0
 11 12  1  0  0  0
  8  3  2  0  0  0
 24 19  2  0  0  0
 11  7  1  0  0  0
 34 28  1  0  0  0
 13 14  1  0  0  0
  1  2  1  0  0  0
M  END
> <minimizedAffinity>
-9.94268

$$$$



 34 37  0  0  0  0  0  0  0  0999 V2000
    1.6305   65.5771   85.0105 N   0  0  0  0  0  0  0  0  0  0  0  0
    2.2279   65.4986   85.8200 H   0  0  0  0  0  0  0  0  0  0  0  0
   -0.9958   63.2208   84.1335 C   0  0  0  0  0  0  0  0  0  0  0  0
   -0.0024   64.1413   84.0250 N   0  0  0  0  0  0  0  0  0  0  0  0
    0.5914   64.6530   85.1248 C   0  0  0  0  0  0  0  0  0  0  0  0
    0.2928   64.3222   86.3976 N   0  0  0  0  0  0  0  0  0  0  0  0
   -0.6904   63.4155   86.4742 C   0  0  0  0  0  0  0  0  0  0  0  0
   -1.3716   62.8261   85.4269 C   0  0  0  0  0  0  0  0  0  0  0  0
   -2.3080   61.9230   85.8938 N   0  0  0  0  0  0  0  0  0  0  0  0
   -2.2016   61.9789   87.2053 C   0  0  0  0  0  0  0  0  0  0  0  0
   -1.2383   62.8663   87.5989 N   0  0  0  0  0  0  0  0  0  0  0  0
   -0.8599   63.1745   88.9520 C   0  0  0  0  0  0  0  0  0  0  0  0
   -1.6176   62.6917   83.0088 N   0  0  0  0  0  0  0  0  0  0  0  0
   -2.6098   62.9115   82.9850 H   0  0  0  0  0  0  0  0  0  0  0  0
   -1.2091   61.3931   82.5057 C   0  0  0  0  0  0  0  0  0  0  0  0
    1.2906   61.1598   82.0375 C   0  0  0  0  0  0  0  0  0  0  0  0
   -0.0905   61.4528   81.4485 C   0  0  0  0  0  0  0  0  0  0  0  0
   -0.0712   62.7639   80.6630 C   0  0  0  0  0  0  0  0  0  0  0  0
    1.9103   66.6154   84.1159 C   0  0  0  0  0  0  0  0  0  0  0  0
    2.5533   67.8051   84.4796 C   0  0  0  0  0  0  0  0  0  0  0  0
    2.7667   68.8296   83.5512 C   0  0  0  0  0  0  0  0  0  0  0  0
    2.3173   68.6751   82.2403 C   0  0  0  0  0  0  0  0  0  0  0  0
    1.6704   67.5054   81.8477 C   0  0  0  0  0  0  0  0  0  0  0  0
    1.4679   66.4886   82.7862 C   0  0  0  0  0  0  0  0  0  0  0  0
    2.5695   69.9928   81.0810 S   0  0  0  0  0  0  0  0  0  0  0  0
    2.1388   69.5446   79.7725 O   0  0  0  0  0  0  0  0  0  0  0  0
    3.9059   70.5041   81.2959 O   0  0  0  0  0  0  0  0  0  0  0  0
    1.4524   71.1754   81.6018 N   0  0  0  0  0  0  0  0  0  0  0  0
    0.0783   71.0408   81.0228 C   0  0  0  0  0  0  0  0  0  0  0  0
   -0.8701   72.0946   81.6324 C   0  0  0  0  0  0  0  0  0  0  0  0
   -0.4100   73.4942   81.5210 N   0  0  0  0  0  0  0  0  0  0  0  0
   -0.5246   73.9977   80.1539 C   0  0  0  0  0  0  0  0  0  0  0  0
    0.9757   73.5913   82.0265 C   0  0  0  0  0  0  0  0  0  0  0  0
    1.9670   72.5707   81.4304 C   0  0  0  0  0  0  0  0  0  0  0  0
 16 17  1  0  0  0
 17 18  1  0  0  0
 17 15  1  0  0  0
 15 13  1  0  0  0
 13  3  1  0  0  0
  3  4  1  0  0  0
  4  5  2  0  0  0
  5  1  1  0  0  0
  1 19  1  0  0  0
 19 20  1  0  0  0
 20 21  2  0  0  0
 21 22  1  0  0  0
 22 25  1  0  0  0
 25 26  2  0  0  0
 25 27  2  0  0  0
 25 28  1  0  0  0
 28 29  1  0  0  0
 29 30  1  0  0  0
 30 31  1  0  0  0
 31 32  1  0  0  0
 31 33  1  0  0  0
 33 34  1  0  0  0
 22 23  2  0  0  0
 23 24  1  0  0  0
  5  6  1  0  0  0
  6  7  2  0  0  0
  7  8  1  0  0  0
  8  9  1  0  0  0
  9 10  2  0  0  0
 10 11  1  0  0  0
 11 12  1  0  0  0
  8  3  2  0  0  0
 24 19  2  0  0  0
 11  7  1  0  0  0
 34 28  1  0  0  0
 13 14  1  0  0  0
  1  2  1  0  0  0
M  END
> <minimizedAffinity>
-9.54163

$$$$



 34 37  0  0  0  0  0  0  0  0999 V2000
    1.3649   64.9979   84.4638 N   0  0  0  0  0  0  0  0  0  0  0  0
    2.1051   64.7630   85.1083 H   0  0  0  0  0  0  0  0  0  0  0  0
   -1.5068   62.8236   83.9695 C   0  0  0  0  0  0  0  0  0  0  0  0
   -0.4497   63.6387   83.7162 N   0  0  0  0  0  0  0  0  0  0  0  0
    0.2626   64.1838   84.7260 C   0  0  0  0  0  0  0  0  0  0  0  0
    0.0293   63.9875   86.0397 N   0  0  0  0  0  0  0  0  0  0  0  0
   -1.0189   63.1826   86.2592 C   0  0  0  0  0  0  0  0  0  0  0  0
   -1.8207   62.5725   85.3142 C   0  0  0  0  0  0  0  0  0  0  0  0
   -2.7940   61.7992   85.9185 N   0  0  0  0  0  0  0  0  0  0  0  0
   -2.5894   61.9534   87.2104 C   0  0  0  0  0  0  0  0  0  0  0  0
   -1.5290   62.7799   87.4611 N   0  0  0  0  0  0  0  0  0  0  0  0
   -1.0298   63.1634   88.7545 C   0  0  0  0  0  0  0  0  0  0  0  0
   -2.2502   62.2616   82.9383 N   0  0  0  0  0  0  0  0  0  0  0  0
   -3.2496   62.3266   83.1119 H   0  0  0  0  0  0  0  0  0  0  0  0
   -1.7647   61.0682   82.2701 C   0  0  0  0  0  0  0  0  0  0  0  0
    0.4458   61.4142   81.0388 C   0  0  0  0  0  0  0  0  0  0  0  0
   -1.0774   61.3408   80.9188 C   0  0  0  0  0  0  0  0  0  0  0  0
   -1.6192   62.5789   80.2046 C   0  0  0  0  0  0  0  0  0  0  0  0
    1.5813   66.0961   83.6248 C   0  0  0  0  0  0  0  0  0  0  0  0
    1.3547   66.0775   82.2431 C   0  0  0  0  0  0  0  0  0  0  0  0
    1.6321   67.1929   81.4455 C   0  0  0  0  0  0  0  0  0  0  0  0
    2.1605   68.3429   82.0305 C   0  0  0  0  0  0  0  0  0  0  0  0
    2.4014   68.3922   83.4019 C   0  0  0  0  0  0  0  0  0  0  0  0
    2.1153   67.2706   84.1865 C   0  0  0  0  0  0  0  0  0  0  0  0
    2.5336   69.7396   81.0038 S   0  0  0  0  0  0  0  0  0  0  0  0
    2.1671   69.4198   79.6392 O   0  0  0  0  0  0  0  0  0  0  0  0
    3.8729   70.1731   81.3383 O   0  0  0  0  0  0  0  0  0  0  0  0
    1.4328   70.9224   81.5574 N   0  0  0  0  0  0  0  0  0  0  0  0
    0.0529   70.8137   80.9866 C   0  0  0  0  0  0  0  0  0  0  0  0
   -0.8799   71.8643   81.6251 C   0  0  0  0  0  0  0  0  0  0  0  0
   -0.4063   73.2611   81.5388 N   0  0  0  0  0  0  0  0  0  0  0  0
   -0.5263   73.7937   80.1833 C   0  0  0  0  0  0  0  0  0  0  0  0
    0.9841   73.3338   82.0352 C   0  0  0  0  0  0  0  0  0  0  0  0
    1.9603   72.3156   81.4106 C   0  0  0  0  0  0  0  0  0  0  0  0
 16 17  1  0  0  0
 17 18  1  0  0  0
 17 15  1  0  0  0
 15 13  1  0  0  0
 13  3  1  0  0  0
  3  4  1  0  0  0
  4  5  2  0  0  0
  5  1  1  0  0  0
  1 19  1  0  0  0
 19 20  1  0  0  0
 20 21  2  0  0  0
 21 22  1  0  0  0
 22 25  1  0  0  0
 25 26  2  0  0  0
 25 27  2  0  0  0
 25 28  1  0  0  0
 28 29  1  0  0  0
 29 30  1  0  0  0
 30 31  1  0  0  0
 31 32  1  0  0  0
 31 33  1  0  0  0
 33 34  1  0  0  0
 22 23  2  0  0  0
 23 24  1  0  0  0
  5  6  1  0  0  0
  6  7  2  0  0  0
  7  8  1  0  0  0
  8  9  1  0  0  0
  9 10  2  0  0  0
 10 11  1  0  0  0
 11 12  1  0  0  0
  8  3  2  0  0  0
 24 19  2  0  0  0
 11  7  1  0  0  0
 34 28  1  0  0  0
 13 14  1  0  0  0
  1  2  1  0  0  0
M  END
> <minimizedAffinity>
-9.49156

$$$$



 34 37  0  0  0  0  0  0  0  0999 V2000
   -0.1424   63.8055   84.0294 N   0  0  0  0  0  0  0  0  0  0  0  0
   -0.1653   63.5014   84.9914 H   0  0  0  0  0  0  0  0  0  0  0  0
    2.6849   66.0104   84.6321 C   0  0  0  0  0  0  0  0  0  0  0  0
    1.7973   64.9897   84.7602 N   0  0  0  0  0  0  0  0  0  0  0  0
    0.7519   64.8702   83.9136 C   0  0  0  0  0  0  0  0  0  0  0  0
    0.4817   65.7004   82.8858 N   0  0  0  0  0  0  0  0  0  0  0  0
    1.3709   66.6974   82.7851 C   0  0  0  0  0  0  0  0  0  0  0  0
    2.4714   66.9244   83.5886 C   0  0  0  0  0  0  0  0  0  0  0  0
    3.1671   68.0421   83.1676 N   0  0  0  0  0  0  0  0  0  0  0  0
    2.4860   68.4900   82.1331 C   0  0  0  0  0  0  0  0  0  0  0  0
    1.3949   67.7094   81.8674 N   0  0  0  0  0  0  0  0  0  0  0  0
    0.4370   67.9076   80.8128 C   0  0  0  0  0  0  0  0  0  0  0  0
    3.7612   66.1464   85.5008 N   0  0  0  0  0  0  0  0  0  0  0  0
    3.8034   67.0759   85.9102 H   0  0  0  0  0  0  0  0  0  0  0  0
    5.0208   65.4948   85.1921 C   0  0  0  0  0  0  0  0  0  0  0  0
    7.5075   65.7779   84.6842 C   0  0  0  0  0  0  0  0  0  0  0  0
    6.1432   66.4637   84.7748 C   0  0  0  0  0  0  0  0  0  0  0  0
    6.2263   67.7081   85.6585 C   0  0  0  0  0  0  0  0  0  0  0  0
   -0.8640   63.0408   83.1068 C   0  0  0  0  0  0  0  0  0  0  0  0
   -0.5656   61.7083   82.7965 C   0  0  0  0  0  0  0  0  0  0  0  0
   -1.2942   61.0056   81.8309 C   0  0  0  0  0  0  0  0  0  0  0  0
   -2.3286   61.6453   81.1489 C   0  0  0  0  0  0  0  0  0  0  0  0
   -2.6479   62.9717   81.4313 C   0  0  0  0  0  0  0  0  0  0  0  0
   -1.9130   63.6596   82.4019 C   0  0  0  0  0  0  0  0  0  0  0  0
   -3.2257   60.7516   79.9077 S   0  0  0  0  0  0  0  0  0  0  0  0
   -4.5319   61.3593   79.7555 O   0  0  0  0  0  0  0  0  0  0  0  0
   -3.0845   59.3430   80.2063 O   0  0  0  0  0  0  0  0  0  0  0  0
   -2.3435   61.0895   78.4847 N   0  0  0  0  0  0  0  0  0  0  0  0
   -0.8605   61.1783   78.6701 C   0  0  0  0  0  0  0  0  0  0  0  0
   -0.1581   61.3883   77.3122 C   0  0  0  0  0  0  0  0  0  0  0  0
   -0.6390   62.5440   76.5273 N   0  0  0  0  0  0  0  0  0  0  0  0
   -0.1921   63.8131   77.0977 C   0  0  0  0  0  0  0  0  0  0  0  0
   -2.1120   62.4795   76.4210 C   0  0  0  0  0  0  0  0  0  0  0  0
   -2.8609   62.2907   77.7564 C   0  0  0  0  0  0  0  0  0  0  0  0
 16 17  1  0  0  0
 17 18  1  0  0  0
 17 15  1  0  0  0
 15 13  1  0  0  0
 13  3  1  0  0  0
  3  4  1  0  0  0
  4  5  2  0  0  0
  5  1  1  0  0  0
  1 19  1  0  0  0
 19 20  1  0  0  0
 20 21  2  0  0  0
 21 22  1  0  0  0
 22 25  1  0  0  0
 25 26  2  0  0  0
 25 27  2  0  0  0
 25 28  1  0  0  0
 28 29  1  0  0  0
 29 30  1  0  0  0
 30 31  1  0  0  0
 31 32  1  0  0  0
 31 33  1  0  0  0
 33 34  1  0  0  0
 22 23  2  0  0  0
 23 24  1  0  0  0
  5  6  1  0  0  0
  6  7  2  0  0  0
  7  8  1  0  0  0
  8  9  1  0  0  0
  9 10  2  0  0  0
 10 11  1  0  0  0
 11 12  1  0  0  0
  8  3  2  0  0  0
 24 19  2  0  0  0
 11  7  1  0  0  0
 34 28  1  0  0  0
 13 14  1  0  0  0
  1  2  1  0  0  0
M  END
> <minimizedAffinity>
-9.45747

$$$$



 34 37  0  0  0  0  0  0  0  0999 V2000
    1.0365   65.4721   83.4675 N   0  0  0  0  0  0  0  0  0  0  0  0
    0.5173   65.1312   84.2629 H   0  0  0  0  0  0  0  0  0  0  0  0
    3.1082   68.4016   84.0546 C   0  0  0  0  0  0  0  0  0  0  0  0
    2.1151   67.5982   83.5917 N   0  0  0  0  0  0  0  0  0  0  0  0
    2.0727   66.2890   83.9209 C   0  0  0  0  0  0  0  0  0  0  0  0
    2.9591   65.6556   84.7157 N   0  0  0  0  0  0  0  0  0  0  0  0
    3.9272   66.4707   85.1551 C   0  0  0  0  0  0  0  0  0  0  0  0
    4.0769   67.8172   84.8853 C   0  0  0  0  0  0  0  0  0  0  0  0
    5.1874   68.3288   85.5300 N   0  0  0  0  0  0  0  0  0  0  0  0
    5.7071   67.3004   86.1678 C   0  0  0  0  0  0  0  0  0  0  0  0
    4.9793   66.1596   85.9693 N   0  0  0  0  0  0  0  0  0  0  0  0
    5.2607   64.8589   86.5154 C   0  0  0  0  0  0  0  0  0  0  0  0
    3.1648   69.7488   83.7179 N   0  0  0  0  0  0  0  0  0  0  0  0
    2.9592   70.3477   84.5132 H   0  0  0  0  0  0  0  0  0  0  0  0
    2.6962   70.1844   82.4152 C   0  0  0  0  0  0  0  0  0  0  0  0
    0.3617   70.1718   81.3798 C   0  0  0  0  0  0  0  0  0  0  0  0
    1.2829   70.7969   82.4289 C   0  0  0  0  0  0  0  0  0  0  0  0
    1.2837   72.3202   82.3023 C   0  0  0  0  0  0  0  0  0  0  0  0
    0.6836   64.9595   82.2147 C   0  0  0  0  0  0  0  0  0  0  0  0
    0.3262   63.6240   81.9919 C   0  0  0  0  0  0  0  0  0  0  0  0
    0.0262   63.1558   80.7081 C   0  0  0  0  0  0  0  0  0  0  0  0
    0.0993   64.0283   79.6229 C   0  0  0  0  0  0  0  0  0  0  0  0
    0.4558   65.3620   79.8104 C   0  0  0  0  0  0  0  0  0  0  0  0
    0.7489   65.8160   81.1002 C   0  0  0  0  0  0  0  0  0  0  0  0
   -0.2563   63.4150   77.9977 S   0  0  0  0  0  0  0  0  0  0  0  0
    0.9821   62.9705   77.3914 O   0  0  0  0  0  0  0  0  0  0  0  0
   -1.1020   64.3913   77.3457 O   0  0  0  0  0  0  0  0  0  0  0  0
   -1.1914   62.0211   78.3142 N   0  0  0  0  0  0  0  0  0  0  0  0
   -0.7398   60.7852   77.6000 C   0  0  0  0  0  0  0  0  0  0  0  0
   -1.5894   59.5713   78.0315 C   0  0  0  0  0  0  0  0  0  0  0  0
   -3.0492   59.7386   77.8775 N   0  0  0  0  0  0  0  0  0  0  0  0
   -3.4581   59.6863   76.4755 C   0  0  0  0  0  0  0  0  0  0  0  0
   -3.4637   61.0024   78.5226 C   0  0  0  0  0  0  0  0  0  0  0  0
   -2.6562   62.2495   78.1069 C   0  0  0  0  0  0  0  0  0  0  0  0
 16 17  1  0  0  0
 17 18  1  0  0  0
 17 15  1  0  0  0
 15 13  1  0  0  0
 13  3  1  0  0  0
  3  4  1  0  0  0
  4  5  2  0  0  0
  5  1  1  0  0  0
  1 19  1  0  0  0
 19 20  1  0  0  0
 20 21  2  0  0  0
 21 22  1  0  0  0
 22 25  1  0  0  0
 25 26  2  0  0  0
 25 27  2  0  0  0
 25 28  1  0  0  0
 28 29  1  0  0  0
 29 30  1  0  0  0
 30 31  1  0  0  0
 31 32  1  0  0  0
 31 33  1  0  0  0
 33 34  1  0  0  0
 22 23  2  0  0  0
 23 24  1  0  0  0
  5  6  1  0  0  0
  6  7  2  0  0  0
  7  8  1  0  0  0
  8  9  1  0  0  0
  9 10  2  0  0  0
 10 11  1  0  0  0
 11 12  1  0  0  0
  8  3  2  0  0  0
 24 19  2  0  0  0
 11  7  1  0  0  0
 34 28  1  0  0  0
 13 14  1  0  0  0
  1  2  1  0  0  0
M  END
> <minimizedAffinity>
-9.34224

$$$$



 34 37  0  0  0  0  0  0  0  0999 V2000
    0.2286   67.5916   79.8381 N   0  0  0  0  0  0  0  0  0  0  0  0
   -0.0353   67.8280   78.8932 H   0  0  0  0  0  0  0  0  0  0  0  0
    1.5137   70.0044   82.2352 C   0  0  0  0  0  0  0  0  0  0  0  0
    1.3292   68.8505   81.5419 N   0  0  0  0  0  0  0  0  0  0  0  0
    0.3973   68.7688   80.5678 C   0  0  0  0  0  0  0  0  0  0  0  0
   -0.4141   69.7731   80.1784 N   0  0  0  0  0  0  0  0  0  0  0  0
   -0.2117   70.8965   80.8798 C   0  0  0  0  0  0  0  0  0  0  0  0
    0.7033   71.0985   81.8948 C   0  0  0  0  0  0  0  0  0  0  0  0
    0.6343   72.3946   82.3701 N   0  0  0  0  0  0  0  0  0  0  0  0
   -0.3195   72.9609   81.6601 C   0  0  0  0  0  0  0  0  0  0  0  0
   -0.8574   72.0936   80.7496 N   0  0  0  0  0  0  0  0  0  0  0  0
   -1.9137   72.3790   79.8159 C   0  0  0  0  0  0  0  0  0  0  0  0
    2.4659   70.0981   83.2432 N   0  0  0  0  0  0  0  0  0  0  0  0
    2.7517   71.0598   83.4070 H   0  0  0  0  0  0  0  0  0  0  0  0
    3.4812   69.0689   83.3709 C   0  0  0  0  0  0  0  0  0  0  0  0
    4.5727   67.7732   85.2819 C   0  0  0  0  0  0  0  0  0  0  0  0
    3.2666   68.1200   84.5651 C   0  0  0  0  0  0  0  0  0  0  0  0
    2.5035   66.8479   84.1961 C   0  0  0  0  0  0  0  0  0  0  0  0
    0.2232   66.2341   80.1758 C   0  0  0  0  0  0  0  0  0  0  0  0
    0.4828   65.2034   79.2640 C   0  0  0  0  0  0  0  0  0  0  0  0
    0.4189   63.8597   79.6478 C   0  0  0  0  0  0  0  0  0  0  0  0
    0.0740   63.5341   80.9590 C   0  0  0  0  0  0  0  0  0  0  0  0
   -0.1942   64.5359   81.8893 C   0  0  0  0  0  0  0  0  0  0  0  0
   -0.1224   65.8746   81.4915 C   0  0  0  0  0  0  0  0  0  0  0  0
   -0.0306   61.8265   81.4248 S   0  0  0  0  0  0  0  0  0  0  0  0
   -0.3975   61.7519   82.8242 O   0  0  0  0  0  0  0  0  0  0  0  0
    1.1590   61.1715   80.9257 O   0  0  0  0  0  0  0  0  0  0  0  0
   -1.3691   61.2683   80.5223 N   0  0  0  0  0  0  0  0  0  0  0  0
   -1.0427   60.7971   79.1391 C   0  0  0  0  0  0  0  0  0  0  0  0
   -2.3012   60.2265   78.4520 C   0  0  0  0  0  0  0  0  0  0  0  0
   -3.4644   61.1367   78.4141 N   0  0  0  0  0  0  0  0  0  0  0  0
   -3.2763   62.2205   77.4520 C   0  0  0  0  0  0  0  0  0  0  0  0
   -3.7229   61.6510   79.7756 C   0  0  0  0  0  0  0  0  0  0  0  0
   -2.4980   62.2510   80.4963 C   0  0  0  0  0  0  0  0  0  0  0  0
 16 17  1  0  0  0
 17 18  1  0  0  0
 17 15  1  0  0  0
 15 13  1  0  0  0
 13  3  1  0  0  0
  3  4  1  0  0  0
  4  5  2  0  0  0
  5  1  1  0  0  0
  1 19  1  0  0  0
 19 20  1  0  0  0
 20 21  2  0  0  0
 21 22  1  0  0  0
 22 25  1  0  0  0
 25 26  2  0  0  0
 25 27  2  0  0  0
 25 28  1  0  0  0
 28 29  1  0  0  0
 29 30  1  0  0  0
 30 31  1  0  0  0
 31 32  1  0  0  0
 31 33  1  0  0  0
 33 34  1  0  0  0
 22 23  2  0  0  0
 23 24  1  0  0  0
  5  6  1  0  0  0
  6  7  2  0  0  0
  7  8  1  0  0  0
  8  9  1  0  0  0
  9 10  2  0  0  0
 10 11  1  0  0  0
 11 12  1  0  0  0
  8  3  2  0  0  0
 24 19  2  0  0  0
 11  7  1  0  0  0
 34 28  1  0  0  0
 13 14  1  0  0  0
  1  2  1  0  0  0
M  END
> <minimizedAffinity>
-9.30740

$$$$



 34 37  0  0  0  0  0  0  0  0999 V2000
   -2.2617   61.4990   84.2131 N   0  0  0  0  0  0  0  0  0  0  0  0
   -2.7098   60.8762   84.8686 H   0  0  0  0  0  0  0  0  0  0  0  0
    0.2426   64.0339   84.9357 C   0  0  0  0  0  0  0  0  0  0  0  0
   -0.6559   63.2647   84.2670 N   0  0  0  0  0  0  0  0  0  0  0  0
   -1.3189   62.2694   84.8946 C   0  0  0  0  0  0  0  0  0  0  0  0
   -1.1841   61.9418   86.1958 N   0  0  0  0  0  0  0  0  0  0  0  0
   -0.2913   62.7144   86.8288 C   0  0  0  0  0  0  0  0  0  0  0  0
    0.4465   63.7535   86.2957 C   0  0  0  0  0  0  0  0  0  0  0  0
    1.2521   64.3312   87.2590 N   0  0  0  0  0  0  0  0  0  0  0  0
    1.0128   63.6395   88.3539 C   0  0  0  0  0  0  0  0  0  0  0  0
    0.0886   62.6544   88.1399 N   0  0  0  0  0  0  0  0  0  0  0  0
   -0.4042   61.7169   89.1133 C   0  0  0  0  0  0  0  0  0  0  0  0
    0.9345   65.0571   84.2987 N   0  0  0  0  0  0  0  0  0  0  0  0
    1.0590   65.8648   84.9033 H   0  0  0  0  0  0  0  0  0  0  0  0
    0.7077   65.3081   82.8873 C   0  0  0  0  0  0  0  0  0  0  0  0
    1.8901   66.6532   81.0667 C   0  0  0  0  0  0  0  0  0  0  0  0
    1.1689   66.6997   82.4150 C   0  0  0  0  0  0  0  0  0  0  0  0
    2.0158   67.4391   83.4507 C   0  0  0  0  0  0  0  0  0  0  0  0
   -2.5891   61.3387   82.8626 C   0  0  0  0  0  0  0  0  0  0  0  0
   -2.7078   60.0939   82.2322 C   0  0  0  0  0  0  0  0  0  0  0  0
   -2.9933   59.9947   80.8663 C   0  0  0  0  0  0  0  0  0  0  0  0
   -3.1471   61.1555   80.1093 C   0  0  0  0  0  0  0  0  0  0  0  0
   -3.0312   62.4093   80.7056 C   0  0  0  0  0  0  0  0  0  0  0  0
   -2.7494   62.4921   82.0728 C   0  0  0  0  0  0  0  0  0  0  0  0
   -3.4811   61.0154   78.3736 S   0  0  0  0  0  0  0  0  0  0  0  0
   -4.5492   61.9332   78.0339 O   0  0  0  0  0  0  0  0  0  0  0  0
   -3.5791   59.6047   78.0675 O   0  0  0  0  0  0  0  0  0  0  0  0
   -2.0510   61.6207   77.6620 N   0  0  0  0  0  0  0  0  0  0  0  0
   -0.8060   61.3953   78.4625 C   0  0  0  0  0  0  0  0  0  0  0  0
    0.4322   61.8912   77.6863 C   0  0  0  0  0  0  0  0  0  0  0  0
    0.3699   63.2964   77.2342 N   0  0  0  0  0  0  0  0  0  0  0  0
    0.5338   64.2329   78.3440 C   0  0  0  0  0  0  0  0  0  0  0  0
   -0.9011   63.5184   76.5128 C   0  0  0  0  0  0  0  0  0  0  0  0
   -2.1705   63.0572   77.2583 C   0  0  0  0  0  0  0  0  0  0  0  0
 16 17  1  0  0  0
 17 18  1  0  0  0
 17 15  1  0  0  0
 15 13  1  0  0  0
 13  3  1  0  0  0
  3  4  1  0  0  0
  4  5  2  0  0  0
  5  1  1  0  0  0
  1 19  1  0  0  0
 19 20  1  0  0  0
 20 21  2  0  0  0
 21 22  1  0  0  0
 22 25  1  0  0  0
 25 26  2  0  0  0
 25 27  2  0  0  0
 25 28  1  0  0  0
 28 29  1  0  0  0
 29 30  1  0  0  0
 30 31  1  0  0  0
 31 32  1  0  0  0
 31 33  1  0  0  0
 33 34  1  0  0  0
 22 23  2  0  0  0
 23 24  1  0  0  0
  5  6  1  0  0  0
  6  7  2  0  0  0
  7  8  1  0  0  0
  8  9  1  0  0  0
  9 10  2  0  0  0
 10 11  1  0  0  0
 11 12  1  0  0  0
  8  3  2  0  0  0
 24 19  2  0  0  0
 11  7  1  0  0  0
 34 28  1  0  0  0
 13 14  1  0  0  0
  1  2  1  0  0  0
M  END
> <minimizedAffinity>
-9.29678

$$$$



 34 37  0  0  0  0  0  0  0  0999 V2000
   -0.2377   64.6068   81.1342 N   0  0  0  0  0  0  0  0  0  0  0  0
   -0.3422   64.5081   80.1354 H   0  0  0  0  0  0  0  0  0  0  0  0
   -1.7737   62.5487   83.7079 C   0  0  0  0  0  0  0  0  0  0  0  0
   -1.1102   63.5649   83.0969 N   0  0  0  0  0  0  0  0  0  0  0  0
   -0.8945   63.5490   81.7638 C   0  0  0  0  0  0  0  0  0  0  0  0
   -1.2992   62.5782   80.9197 N   0  0  0  0  0  0  0  0  0  0  0  0
   -1.9478   61.5894   81.5493 C   0  0  0  0  0  0  0  0  0  0  0  0
   -2.2241   61.4936   82.8994 C   0  0  0  0  0  0  0  0  0  0  0  0
   -2.9286   60.3374   83.1777 N   0  0  0  0  0  0  0  0  0  0  0  0
   -3.0619   59.7384   82.0124 C   0  0  0  0  0  0  0  0  0  0  0  0
   -2.4851   60.4583   81.0028 N   0  0  0  0  0  0  0  0  0  0  0  0
   -2.4453   60.0998   79.6103 C   0  0  0  0  0  0  0  0  0  0  0  0
   -1.9965   62.5520   85.0798 N   0  0  0  0  0  0  0  0  0  0  0  0
   -2.6920   63.2424   85.3496 H   0  0  0  0  0  0  0  0  0  0  0  0
   -0.8866   62.3316   85.9887 C   0  0  0  0  0  0  0  0  0  0  0  0
    0.5397   64.4168   86.3625 C   0  0  0  0  0  0  0  0  0  0  0  0
   -0.5805   63.5292   86.9078 C   0  0  0  0  0  0  0  0  0  0  0  0
   -0.2875   63.1227   88.3519 C   0  0  0  0  0  0  0  0  0  0  0  0
    0.5967   65.6353   81.5845 C   0  0  0  0  0  0  0  0  0  0  0  0
    0.8081   65.9314   82.9368 C   0  0  0  0  0  0  0  0  0  0  0  0
    1.6188   67.0020   83.3288 C   0  0  0  0  0  0  0  0  0  0  0  0
    2.2172   67.8038   82.3575 C   0  0  0  0  0  0  0  0  0  0  0  0
    2.0234   67.5383   81.0037 C   0  0  0  0  0  0  0  0  0  0  0  0
    1.2135   66.4622   80.6275 C   0  0  0  0  0  0  0  0  0  0  0  0
    3.2195   69.1743   82.8682 S   0  0  0  0  0  0  0  0  0  0  0  0
    4.2101   69.4287   81.8422 O   0  0  0  0  0  0  0  0  0  0  0  0
    3.6071   68.9349   84.2414 O   0  0  0  0  0  0  0  0  0  0  0  0
    2.1189   70.4803   82.8412 N   0  0  0  0  0  0  0  0  0  0  0  0
    1.0336   70.3671   81.8160 C   0  0  0  0  0  0  0  0  0  0  0  0
    0.0449   71.5450   81.9440 C   0  0  0  0  0  0  0  0  0  0  0  0
    0.6565   72.8887   81.8857 N   0  0  0  0  0  0  0  0  0  0  0  0
    1.0871   73.2324   80.5321 C   0  0  0  0  0  0  0  0  0  0  0  0
    1.7748   72.9553   82.8501 C   0  0  0  0  0  0  0  0  0  0  0  0
    2.8020   71.8090   82.7474 C   0  0  0  0  0  0  0  0  0  0  0  0
 16 17  1  0  0  0
 17 18  1  0  0  0
 17 15  1  0  0  0
 15 13  1  0  0  0
 13  3  1  0  0  0
  3  4  1  0  0  0
  4  5  2  0  0  0
  5  1  1  0  0  0
  1 19  1  0  0  0
 19 20  1  0  0  0
 20 21  2  0  0  0
 21 22  1  0  0  0
 22 25  1  0  0  0
 25 26  2  0  0  0
 25 27  2  0  0  0
 25 28  1  0  0  0
 28 29  1  0  0  0
 29 30  1  0  0  0
 30 31  1  0  0  0
 31 32  1  0  0  0
 31 33  1  0  0  0
 33 34  1  0  0  0
 22 23  2  0  0  0
 23 24  1  0  0  0
  5  6  1  0  0  0
  6  7  2  0  0  0
  7  8  1  0  0  0
  8  9  1  0  0  0
  9 10  2  0  0  0
 10 11  1  0  0  0
 11 12  1  0  0  0
  8  3  2  0  0  0
 24 19  2  0  0  0
 11  7  1  0  0  0
 34 28  1  0  0  0
 13 14  1  0  0  0
  1  2  1  0  0  0
M  END
> <minimizedAffinity>
-9.28894

$$$$



 34 37  0  0  0  0  0  0  0  0999 V2000
   -0.2542   64.7424   80.5223 N   0  0  0  0  0  0  0  0  0  0  0  0
   -0.5091   64.6667   79.5489 H   0  0  0  0  0  0  0  0  0  0  0  0
   -0.8327   62.2939   83.1471 C   0  0  0  0  0  0  0  0  0  0  0  0
   -0.3497   63.3708   82.4739 N   0  0  0  0  0  0  0  0  0  0  0  0
   -0.7296   63.6205   81.2022 C   0  0  0  0  0  0  0  0  0  0  0  0
   -1.5969   62.8758   80.4867 N   0  0  0  0  0  0  0  0  0  0  0  0
   -2.0546   61.8208   81.1739 C   0  0  0  0  0  0  0  0  0  0  0  0
   -1.7383   61.4624   82.4700 C   0  0  0  0  0  0  0  0  0  0  0  0
   -2.4211   60.3211   82.8466 N   0  0  0  0  0  0  0  0  0  0  0  0
   -3.1280   59.9891   81.7861 C   0  0  0  0  0  0  0  0  0  0  0  0
   -2.9371   60.8659   80.7541 N   0  0  0  0  0  0  0  0  0  0  0  0
   -3.5506   60.8049   79.4545 C   0  0  0  0  0  0  0  0  0  0  0  0
   -0.4445   62.0242   84.4540 N   0  0  0  0  0  0  0  0  0  0  0  0
   -0.3918   61.0254   84.6358 H   0  0  0  0  0  0  0  0  0  0  0  0
   -0.9116   62.8754   85.5327 C   0  0  0  0  0  0  0  0  0  0  0  0
   -0.1812   63.9345   87.7388 C   0  0  0  0  0  0  0  0  0  0  0  0
    0.2157   63.5891   86.3025 C   0  0  0  0  0  0  0  0  0  0  0  0
    0.7498   64.8266   85.5815 C   0  0  0  0  0  0  0  0  0  0  0  0
    0.5696   65.8151   80.8792 C   0  0  0  0  0  0  0  0  0  0  0  0
    0.6672   66.3232   82.1804 C   0  0  0  0  0  0  0  0  0  0  0  0
    1.4740   67.4285   82.4710 C   0  0  0  0  0  0  0  0  0  0  0  0
    2.1843   68.0507   81.4451 C   0  0  0  0  0  0  0  0  0  0  0  0
    2.1055   67.5722   80.1390 C   0  0  0  0  0  0  0  0  0  0  0  0
    1.2978   66.4641   79.8650 C   0  0  0  0  0  0  0  0  0  0  0  0
    3.1812   69.4677   81.8223 S   0  0  0  0  0  0  0  0  0  0  0  0
    3.8836   69.8704   80.6210 O   0  0  0  0  0  0  0  0  0  0  0  0
    3.8955   69.1768   83.0464 O   0  0  0  0  0  0  0  0  0  0  0  0
    2.0173   70.6731   82.1538 N   0  0  0  0  0  0  0  0  0  0  0  0
    0.8635   70.7125   81.2005 C   0  0  0  0  0  0  0  0  0  0  0  0
   -0.1706   71.7672   81.6475 C   0  0  0  0  0  0  0  0  0  0  0  0
    0.3662   73.1291   81.8472 N   0  0  0  0  0  0  0  0  0  0  0  0
    0.6735   73.7846   80.5778 C   0  0  0  0  0  0  0  0  0  0  0  0
    1.5505   73.0597   82.7291 C   0  0  0  0  0  0  0  0  0  0  0  0
    2.6232   72.0329   82.3112 C   0  0  0  0  0  0  0  0  0  0  0  0
 16 17  1  0  0  0
 17 18  1  0  0  0
 17 15  1  0  0  0
 15 13  1  0  0  0
 13  3  1  0  0  0
  3  4  1  0  0  0
  4  5  2  0  0  0
  5  1  1  0  0  0
  1 19  1  0  0  0
 19 20  1  0  0  0
 20 21  2  0  0  0
 21 22  1  0  0  0
 22 25  1  0  0  0
 25 26  2  0  0  0
 25 27  2  0  0  0
 25 28  1  0  0  0
 28 29  1  0  0  0
 29 30  1  0  0  0
 30 31  1  0  0  0
 31 32  1  0  0  0
 31 33  1  0  0  0
 33 34  1  0  0  0
 22 23  2  0  0  0
 23 24  1  0  0  0
  5  6  1  0  0  0
  6  7  2  0  0  0
  7  8  1  0  0  0
  8  9  1  0  0  0
  9 10  2  0  0  0
 10 11  1  0  0  0
 11 12  1  0  0  0
  8  3  2  0  0  0
 24 19  2  0  0  0
 11  7  1  0  0  0
 34 28  1  0  0  0
 13 14  1  0  0  0
  1  2  1  0  0  0
M  END
> <minimizedAffinity>
-9.16840

$$$$
