


 36 39  0  0  0  0  0  0  0  0999 V2000
    0.0501   63.7519   85.1565 C   0  0  0  0  0  0  0  0  0  0  0  0
   -0.6667   62.5476   85.2003 C   0  0  0  0  0  0  0  0  0  0  0  0
   -0.7721   61.7326   84.0696 C   0  0  0  0  0  0  0  0  0  0  0  0
   -0.1602   62.0995   82.8705 C   0  0  0  0  0  0  0  0  0  0  0  0
    0.5596   63.2999   82.8227 C   0  0  0  0  0  0  0  0  0  0  0  0
    0.6786   64.1343   83.9519 C   0  0  0  0  0  0  0  0  0  0  0  0
    1.4766   65.4013   83.7758 C   0  0  0  0  0  0  0  0  0  0  0  0
    2.5797   65.5705   84.4551 N   0  0  0  0  0  0  0  0  0  0  0  0
    3.2257   66.7812   84.2056 C   0  0  0  0  0  0  0  0  0  0  0  0
    4.4190   67.2912   84.7419 C   0  0  0  0  0  0  0  0  0  0  0  0
    4.6863   68.5083   84.2296 N   0  0  0  0  0  0  0  0  0  0  0  0
    3.6592   68.7370   83.3733 N   0  0  0  0  0  0  0  0  0  0  0  0
    3.6098   69.9676   82.6217 C   0  0  0  0  0  0  0  0  0  0  0  0
    2.7592   67.7193   83.3357 C   0  0  0  0  0  0  0  0  0  0  0  0
    1.5659   67.5467   82.5937 C   0  0  0  0  0  0  0  0  0  0  0  0
    1.0999   68.3418   81.7861 O   0  0  0  0  0  0  0  0  0  0  0  0
    0.9696   66.3413   82.8836 N   0  0  0  0  0  0  0  0  0  0  0  0
    0.1204   66.1353   82.3745 H   0  0  0  0  0  0  0  0  0  0  0  0
    5.3293   66.6599   85.7354 C   0  0  0  0  0  0  0  0  0  0  0  0
    6.1678   65.5466   85.1264 C   0  0  0  0  0  0  0  0  0  0  0  0
    0.1855   64.5824   86.2413 O   0  0  0  0  0  0  0  0  0  0  0  0
    1.1587   63.5703   88.1646 C   0  0  0  0  0  0  0  0  0  0  0  0
   -0.1326   64.0590   87.5330 C   0  0  0  0  0  0  0  0  0  0  0  0
   -0.2773   61.2224   81.6460 C   0  0  0  0  0  0  0  0  0  0  0  0
   -0.6726   61.9954   80.3686 C   0  0  0  0  0  0  0  0  0  0  0  0
   -0.5924   61.0966   79.1169 C   0  0  0  0  0  0  0  0  0  0  0  0
   -1.5391   61.5657   78.0159 C   0  0  0  0  0  0  0  0  0  0  0  0
   -3.0099   61.4930   78.4638 C   0  0  0  0  0  0  0  0  0  0  0  0
   -3.1790   61.7598   79.9705 C   0  0  0  0  0  0  0  0  0  0  0  0
   -2.0648   62.6401   80.5260 C   0  0  0  0  0  0  0  0  0  0  0  0
   -3.6515   60.1553   78.0997 C   0  0  0  0  0  0  0  0  0  0  0  0
   -3.4305   59.5328   77.0632 O   0  0  0  0  0  0  0  0  0  0  0  0
   -4.5264   59.6768   79.0528 N   0  0  0  0  0  0  0  0  0  0  0  0
   -5.2326   58.5084   78.6732 O   0  0  0  0  0  0  0  0  0  0  0  0
   -5.0195   60.3041   79.6793 H   0  0  0  0  0  0  0  0  0  0  0  0
   -4.8454   58.3050   77.7921 H   0  0  0  0  0  0  0  0  0  0  0  0
 22 23  1  0  0  0
 23 21  1  0  0  0
 21  1  1  0  0  0
  1  2  1  0  0  0
  2  3  2  0  0  0
  3  4  1  0  0  0
  4 24  1  0  0  0
 24 25  1  0  0  0
 25 26  1  0  0  0
 26 27  1  0  0  0
 27 28  1  0  0  0
 28 31  1  0  0  0
 31 32  2  0  0  0
 31 33  1  0  0  0
 33 34  1  0  0  0
 28 29  1  0  0  0
 29 30  1  0  0  0
  4  5  2  0  0  0
  5  6  1  0  0  0
  6  7  1  0  0  0
  7  8  2  0  0  0
  8  9  1  0  0  0
  9 10  1  0  0  0
 10 19  1  0  0  0
 19 20  1  0  0  0
 10 11  2  0  0  0
 11 12  1  0  0  0
 12 13  1  0  0  0
 12 14  1  0  0  0
 14 15  1  0  0  0
 15 16  2  0  0  0
 15 17  1  0  0  0
  6  1  2  0  0  0
 17  7  1  0  0  0
 30 25  1  0  0  0
 14  9  2  0  0  0
 33 35  1  0  0  0
 34 36  1  0  0  0
 17 18  1  0  0  0
M  END
> <minimizedAffinity>
-10.96902

$$$$



 36 39  0  0  0  0  0  0  0  0999 V2000
    3.4809   66.3209   84.6769 C   0  0  0  0  0  0  0  0  0  0  0  0
    4.1655   67.3655   84.0397 C   0  0  0  0  0  0  0  0  0  0  0  0
    3.4994   68.2398   83.1762 C   0  0  0  0  0  0  0  0  0  0  0  0
    2.1333   68.0937   82.9330 C   0  0  0  0  0  0  0  0  0  0  0  0
    1.4443   67.0538   83.5696 C   0  0  0  0  0  0  0  0  0  0  0  0
    2.0976   66.1631   84.4445 C   0  0  0  0  0  0  0  0  0  0  0  0
    1.2500   65.0831   85.0675 C   0  0  0  0  0  0  0  0  0  0  0  0
    0.3213   64.4995   84.3575 N   0  0  0  0  0  0  0  0  0  0  0  0
   -0.3940   63.5193   85.0452 C   0  0  0  0  0  0  0  0  0  0  0  0
   -1.4428   62.6960   84.6051 C   0  0  0  0  0  0  0  0  0  0  0  0
   -1.8553   61.8833   85.5973 N   0  0  0  0  0  0  0  0  0  0  0  0
   -1.0512   62.2055   86.6414 N   0  0  0  0  0  0  0  0  0  0  0  0
   -1.2005   61.5205   87.9024 C   0  0  0  0  0  0  0  0  0  0  0  0
   -0.1611   63.1890   86.3456 C   0  0  0  0  0  0  0  0  0  0  0  0
    0.8426   63.8138   87.1244 C   0  0  0  0  0  0  0  0  0  0  0  0
    1.1131   63.5543   88.2911 O   0  0  0  0  0  0  0  0  0  0  0  0
    1.5101   64.7734   86.3991 N   0  0  0  0  0  0  0  0  0  0  0  0
    2.2595   65.2504   86.8826 H   0  0  0  0  0  0  0  0  0  0  0  0
   -2.0781   62.6488   83.2602 C   0  0  0  0  0  0  0  0  0  0  0  0
   -2.5097   61.2428   82.8731 C   0  0  0  0  0  0  0  0  0  0  0  0
    4.0905   65.4407   85.5364 O   0  0  0  0  0  0  0  0  0  0  0  0
    5.8342   65.5412   87.1549 C   0  0  0  0  0  0  0  0  0  0  0  0
    5.5120   65.5081   85.6716 C   0  0  0  0  0  0  0  0  0  0  0  0
    1.4127   69.0346   81.9961 C   0  0  0  0  0  0  0  0  0  0  0  0
    1.2806   68.4911   80.5565 C   0  0  0  0  0  0  0  0  0  0  0  0
    2.0938   67.1936   80.3657 C   0  0  0  0  0  0  0  0  0  0  0  0
    1.5134   66.3134   79.2625 C   0  0  0  0  0  0  0  0  0  0  0  0
    0.0883   65.8427   79.6036 C   0  0  0  0  0  0  0  0  0  0  0  0
   -0.6914   66.8813   80.4303 C   0  0  0  0  0  0  0  0  0  0  0  0
   -0.2018   68.3025   80.1749 C   0  0  0  0  0  0  0  0  0  0  0  0
    0.0901   64.4987   80.3299 C   0  0  0  0  0  0  0  0  0  0  0  0
    0.5142   64.3203   81.4696 O   0  0  0  0  0  0  0  0  0  0  0  0
   -0.4399   63.4623   79.5898 N   0  0  0  0  0  0  0  0  0  0  0  0
   -0.3224   62.1853   80.1926 O   0  0  0  0  0  0  0  0  0  0  0  0
   -0.4187   63.4729   78.5756 H   0  0  0  0  0  0  0  0  0  0  0  0
    0.0857   62.3992   81.0617 H   0  0  0  0  0  0  0  0  0  0  0  0
 22 23  1  0  0  0
 23 21  1  0  0  0
 21  1  1  0  0  0
  1  2  1  0  0  0
  2  3  2  0  0  0
  3  4  1  0  0  0
  4 24  1  0  0  0
 24 25  1  0  0  0
 25 26  1  0  0  0
 26 27  1  0  0  0
 27 28  1  0  0  0
 28 31  1  0  0  0
 31 32  2  0  0  0
 31 33  1  0  0  0
 33 34  1  0  0  0
 28 29  1  0  0  0
 29 30  1  0  0  0
  4  5  2  0  0  0
  5  6  1  0  0  0
  6  7  1  0  0  0
  7  8  2  0  0  0
  8  9  1  0  0  0
  9 10  1  0  0  0
 10 19  1  0  0  0
 19 20  1  0  0  0
 10 11  2  0  0  0
 11 12  1  0  0  0
 12 13  1  0  0  0
 12 14  1  0  0  0
 14 15  1  0  0  0
 15 16  2  0  0  0
 15 17  1  0  0  0
  6  1  2  0  0  0
 17  7  1  0  0  0
 30 25  1  0  0  0
 14  9  2  0  0  0
 33 35  1  0  0  0
 34 36  1  0  0  0
 17 18  1  0  0  0
M  END
> <minimizedAffinity>
-10.96595

$$$$



 36 39  0  0  0  0  0  0  0  0999 V2000
   -0.0842   63.7377   86.3398 C   0  0  0  0  0  0  0  0  0  0  0  0
   -1.2082   62.8996   86.3350 C   0  0  0  0  0  0  0  0  0  0  0  0
   -1.8885   62.6166   85.1472 C   0  0  0  0  0  0  0  0  0  0  0  0
   -1.4589   63.1605   83.9363 C   0  0  0  0  0  0  0  0  0  0  0  0
   -0.3348   63.9958   83.9354 C   0  0  0  0  0  0  0  0  0  0  0  0
    0.3652   64.2919   85.1219 C   0  0  0  0  0  0  0  0  0  0  0  0
    1.5579   65.2051   84.9938 C   0  0  0  0  0  0  0  0  0  0  0  0
    1.4886   66.2546   84.2187 N   0  0  0  0  0  0  0  0  0  0  0  0
    2.6549   67.0187   84.1840 C   0  0  0  0  0  0  0  0  0  0  0  0
    2.9365   68.1987   83.4768 C   0  0  0  0  0  0  0  0  0  0  0  0
    4.1951   68.6105   83.7247 N   0  0  0  0  0  0  0  0  0  0  0  0
    4.6788   67.6852   84.5909 N   0  0  0  0  0  0  0  0  0  0  0  0
    6.0263   67.8048   85.0926 C   0  0  0  0  0  0  0  0  0  0  0  0
    3.7795   66.7103   84.8872 C   0  0  0  0  0  0  0  0  0  0  0  0
    3.8660   65.5766   85.7307 C   0  0  0  0  0  0  0  0  0  0  0  0
    4.8392   65.2512   86.4006 O   0  0  0  0  0  0  0  0  0  0  0  0
    2.6925   64.8587   85.7214 N   0  0  0  0  0  0  0  0  0  0  0  0
    2.6692   64.0432   86.3192 H   0  0  0  0  0  0  0  0  0  0  0  0
    2.0451   68.9624   82.5621 C   0  0  0  0  0  0  0  0  0  0  0  0
    2.2155   68.5480   81.1086 C   0  0  0  0  0  0  0  0  0  0  0  0
    0.6190   64.0407   87.4795 O   0  0  0  0  0  0  0  0  0  0  0  0
    0.5243   62.3701   89.1738 C   0  0  0  0  0  0  0  0  0  0  0  0
    0.0197   63.7351   88.7408 C   0  0  0  0  0  0  0  0  0  0  0  0
   -2.1960   62.8599   82.6522 C   0  0  0  0  0  0  0  0  0  0  0  0
   -1.2770   62.8006   81.4123 C   0  0  0  0  0  0  0  0  0  0  0  0
   -0.6091   61.4169   81.2698 C   0  0  0  0  0  0  0  0  0  0  0  0
   -0.2537   61.1015   79.8197 C   0  0  0  0  0  0  0  0  0  0  0  0
   -1.5084   61.0306   78.9310 C   0  0  0  0  0  0  0  0  0  0  0  0
   -2.6140   61.9950   79.3976 C   0  0  0  0  0  0  0  0  0  0  0  0
   -2.0480   63.2016   80.1382 C   0  0  0  0  0  0  0  0  0  0  0  0
   -2.0642   59.6106   78.8411 C   0  0  0  0  0  0  0  0  0  0  0  0
   -1.8878   58.8492   77.8925 O   0  0  0  0  0  0  0  0  0  0  0  0
   -2.8029   59.2283   79.9416 N   0  0  0  0  0  0  0  0  0  0  0  0
   -3.4387   57.9680   79.8178 O   0  0  0  0  0  0  0  0  0  0  0  0
   -3.2877   59.9105   80.5150 H   0  0  0  0  0  0  0  0  0  0  0  0
   -3.1188   57.6557   78.9416 H   0  0  0  0  0  0  0  0  0  0  0  0
 22 23  1  0  0  0
 23 21  1  0  0  0
 21  1  1  0  0  0
  1  2  1  0  0  0
  2  3  2  0  0  0
  3  4  1  0  0  0
  4 24  1  0  0  0
 24 25  1  0  0  0
 25 26  1  0  0  0
 26 27  1  0  0  0
 27 28  1  0  0  0
 28 31  1  0  0  0
 31 32  2  0  0  0
 31 33  1  0  0  0
 33 34  1  0  0  0
 28 29  1  0  0  0
 29 30  1  0  0  0
  4  5  2  0  0  0
  5  6  1  0  0  0
  6  7  1  0  0  0
  7  8  2  0  0  0
  8  9  1  0  0  0
  9 10  1  0  0  0
 10 19  1  0  0  0
 19 20  1  0  0  0
 10 11  2  0  0  0
 11 12  1  0  0  0
 12 13  1  0  0  0
 12 14  1  0  0  0
 14 15  1  0  0  0
 15 16  2  0  0  0
 15 17  1  0  0  0
  6  1  2  0  0  0
 17  7  1  0  0  0
 30 25  1  0  0  0
 14  9  2  0  0  0
 33 35  1  0  0  0
 34 36  1  0  0  0
 17 18  1  0  0  0
M  END
> <minimizedAffinity>
-10.94808

$$$$



 36 39  0  0  0  0  0  0  0  0999 V2000
    0.9325   66.5032   80.9879 C   0  0  0  0  0  0  0  0  0  0  0  0
    1.7577   67.6327   80.8927 C   0  0  0  0  0  0  0  0  0  0  0  0
    2.3676   68.1746   82.0276 C   0  0  0  0  0  0  0  0  0  0  0  0
    2.1711   67.5980   83.2829 C   0  0  0  0  0  0  0  0  0  0  0  0
    1.3502   66.4677   83.3826 C   0  0  0  0  0  0  0  0  0  0  0  0
    0.7276   65.9058   82.2503 C   0  0  0  0  0  0  0  0  0  0  0  0
   -0.1342   64.6913   82.4849 C   0  0  0  0  0  0  0  0  0  0  0  0
   -0.3813   64.2999   83.7067 N   0  0  0  0  0  0  0  0  0  0  0  0
   -1.1888   63.1659   83.7923 C   0  0  0  0  0  0  0  0  0  0  0  0
   -1.6571   62.4784   84.9236 C   0  0  0  0  0  0  0  0  0  0  0  0
   -2.4123   61.4243   84.5582 N   0  0  0  0  0  0  0  0  0  0  0  0
   -2.4117   61.4740   83.2025 N   0  0  0  0  0  0  0  0  0  0  0  0
   -3.1390   60.4837   82.4461 C   0  0  0  0  0  0  0  0  0  0  0  0
   -1.6825   62.5082   82.7069 C   0  0  0  0  0  0  0  0  0  0  0  0
   -1.4222   62.9234   81.3786 C   0  0  0  0  0  0  0  0  0  0  0  0
   -1.8463   62.3875   80.3616 O   0  0  0  0  0  0  0  0  0  0  0  0
   -0.6182   64.0395   81.3546 N   0  0  0  0  0  0  0  0  0  0  0  0
   -0.4052   64.4103   80.4382 H   0  0  0  0  0  0  0  0  0  0  0  0
   -1.4131   62.7871   86.3587 C   0  0  0  0  0  0  0  0  0  0  0  0
   -2.7057   62.9506   87.1433 C   0  0  0  0  0  0  0  0  0  0  0  0
    0.3162   65.9325   79.9018 O   0  0  0  0  0  0  0  0  0  0  0  0
    0.2784   64.6512   77.8950 C   0  0  0  0  0  0  0  0  0  0  0  0
    1.1353   65.5078   78.8099 C   0  0  0  0  0  0  0  0  0  0  0  0
    2.8254   68.1855   84.5114 C   0  0  0  0  0  0  0  0  0  0  0  0
    4.3411   67.9024   84.5986 C   0  0  0  0  0  0  0  0  0  0  0  0
    4.8759   68.1241   86.0290 C   0  0  0  0  0  0  0  0  0  0  0  0
    6.1161   67.2812   86.3116 C   0  0  0  0  0  0  0  0  0  0  0  0
    5.8086   65.7753   86.2312 C   0  0  0  0  0  0  0  0  0  0  0  0
    4.7184   65.4529   85.1931 C   0  0  0  0  0  0  0  0  0  0  0  0
    4.6664   66.4885   84.0753 C   0  0  0  0  0  0  0  0  0  0  0  0
    5.4150   65.2003   87.5907 C   0  0  0  0  0  0  0  0  0  0  0  0
    4.3046   64.7502   87.8647 O   0  0  0  0  0  0  0  0  0  0  0  0
    6.4323   65.2202   88.5222 N   0  0  0  0  0  0  0  0  0  0  0  0
    6.0481   64.8180   89.8255 O   0  0  0  0  0  0  0  0  0  0  0  0
    7.1769   65.9077   88.4762 H   0  0  0  0  0  0  0  0  0  0  0  0
    5.1066   64.5630   89.6984 H   0  0  0  0  0  0  0  0  0  0  0  0
 22 23  1  0  0  0
 23 21  1  0  0  0
 21  1  1  0  0  0
  1  2  1  0  0  0
  2  3  2  0  0  0
  3  4  1  0  0  0
  4 24  1  0  0  0
 24 25  1  0  0  0
 25 26  1  0  0  0
 26 27  1  0  0  0
 27 28  1  0  0  0
 28 31  1  0  0  0
 31 32  2  0  0  0
 31 33  1  0  0  0
 33 34  1  0  0  0
 28 29  1  0  0  0
 29 30  1  0  0  0
  4  5  2  0  0  0
  5  6  1  0  0  0
  6  7  1  0  0  0
  7  8  2  0  0  0
  8  9  1  0  0  0
  9 10  1  0  0  0
 10 19  1  0  0  0
 19 20  1  0  0  0
 10 11  2  0  0  0
 11 12  1  0  0  0
 12 13  1  0  0  0
 12 14  1  0  0  0
 14 15  1  0  0  0
 15 16  2  0  0  0
 15 17  1  0  0  0
  6  1  2  0  0  0
 17  7  1  0  0  0
 30 25  1  0  0  0
 14  9  2  0  0  0
 33 35  1  0  0  0
 34 36  1  0  0  0
 17 18  1  0  0  0
M  END
> <minimizedAffinity>
-10.91766

$$$$



 36 39  0  0  0  0  0  0  0  0999 V2000
   -0.2823   62.8613   85.6993 C   0  0  0  0  0  0  0  0  0  0  0  0
    0.2586   63.6646   86.7132 C   0  0  0  0  0  0  0  0  0  0  0  0
    0.8621   64.8895   86.4145 C   0  0  0  0  0  0  0  0  0  0  0  0
    0.9349   65.3424   85.0968 C   0  0  0  0  0  0  0  0  0  0  0  0
    0.3931   64.5451   84.0809 C   0  0  0  0  0  0  0  0  0  0  0  0
   -0.2204   63.3081   84.3618 C   0  0  0  0  0  0  0  0  0  0  0  0
   -0.7641   62.5396   83.1842 C   0  0  0  0  0  0  0  0  0  0  0  0
   -0.1888   62.6530   82.0166 N   0  0  0  0  0  0  0  0  0  0  0  0
   -0.7841   61.8942   81.0090 C   0  0  0  0  0  0  0  0  0  0  0  0
   -0.4365   61.7670   79.6545 C   0  0  0  0  0  0  0  0  0  0  0  0
   -1.2828   60.9285   79.0252 N   0  0  0  0  0  0  0  0  0  0  0  0
   -2.1423   60.5372   79.9992 N   0  0  0  0  0  0  0  0  0  0  0  0
   -3.2064   59.6129   79.6907 C   0  0  0  0  0  0  0  0  0  0  0  0
   -1.8736   61.1015   81.2060 C   0  0  0  0  0  0  0  0  0  0  0  0
   -2.5048   60.9702   82.4665 C   0  0  0  0  0  0  0  0  0  0  0  0
   -3.4757   60.2649   82.7145 O   0  0  0  0  0  0  0  0  0  0  0  0
   -1.8811   61.7432   83.4183 N   0  0  0  0  0  0  0  0  0  0  0  0
   -2.2626   61.6854   84.3531 H   0  0  0  0  0  0  0  0  0  0  0  0
    0.6836   62.4187   78.9230 C   0  0  0  0  0  0  0  0  0  0  0  0
    0.2946   62.8214   77.5089 C   0  0  0  0  0  0  0  0  0  0  0  0
   -0.8886   61.6541   85.9439 O   0  0  0  0  0  0  0  0  0  0  0  0
   -2.9144   62.4972   86.8690 C   0  0  0  0  0  0  0  0  0  0  0  0
   -1.7465   61.5508   87.0827 C   0  0  0  0  0  0  0  0  0  0  0  0
    1.5913   66.6636   84.7715 C   0  0  0  0  0  0  0  0  0  0  0  0
    2.1279   66.7469   83.3257 C   0  0  0  0  0  0  0  0  0  0  0  0
    1.2068   67.6011   82.4296 C   0  0  0  0  0  0  0  0  0  0  0  0
    1.9668   68.2304   81.2656 C   0  0  0  0  0  0  0  0  0  0  0  0
    3.0547   69.2017   81.7577 C   0  0  0  0  0  0  0  0  0  0  0  0
    3.6662   68.7666   83.1019 C   0  0  0  0  0  0  0  0  0  0  0  0
    3.5828   67.2583   83.3088 C   0  0  0  0  0  0  0  0  0  0  0  0
    2.5343   70.6339   81.8651 C   0  0  0  0  0  0  0  0  0  0  0  0
    2.3732   71.3927   80.9117 O   0  0  0  0  0  0  0  0  0  0  0  0
    2.2449   71.0287   83.1547 N   0  0  0  0  0  0  0  0  0  0  0  0
    1.8916   72.3943   83.2895 O   0  0  0  0  0  0  0  0  0  0  0  0
    2.7183   70.6166   83.9518 H   0  0  0  0  0  0  0  0  0  0  0  0
    1.8949   72.7059   82.3565 H   0  0  0  0  0  0  0  0  0  0  0  0
 22 23  1  0  0  0
 23 21  1  0  0  0
 21  1  1  0  0  0
  1  2  1  0  0  0
  2  3  2  0  0  0
  3  4  1  0  0  0
  4 24  1  0  0  0
 24 25  1  0  0  0
 25 26  1  0  0  0
 26 27  1  0  0  0
 27 28  1  0  0  0
 28 31  1  0  0  0
 31 32  2  0  0  0
 31 33  1  0  0  0
 33 34  1  0  0  0
 28 29  1  0  0  0
 29 30  1  0  0  0
  4  5  2  0  0  0
  5  6  1  0  0  0
  6  7  1  0  0  0
  7  8  2  0  0  0
  8  9  1  0  0  0
  9 10  1  0  0  0
 10 19  1  0  0  0
 19 20  1  0  0  0
 10 11  2  0  0  0
 11 12  1  0  0  0
 12 13  1  0  0  0
 12 14  1  0  0  0
 14 15  1  0  0  0
 15 16  2  0  0  0
 15 17  1  0  0  0
  6  1  2  0  0  0
 17  7  1  0  0  0
 30 25  1  0  0  0
 14  9  2  0  0  0
 33 35  1  0  0  0
 34 36  1  0  0  0
 17 18  1  0  0  0
M  END
> <minimizedAffinity>
-10.74873

$$$$



 36 39  0  0  0  0  0  0  0  0999 V2000
    2.0363   66.5400   83.4696 C   0  0  0  0  0  0  0  0  0  0  0  0
    2.2770   67.2204   82.2675 C   0  0  0  0  0  0  0  0  0  0  0  0
    1.5790   66.8899   81.1025 C   0  0  0  0  0  0  0  0  0  0  0  0
    0.6212   65.8753   81.1126 C   0  0  0  0  0  0  0  0  0  0  0  0
    0.3749   65.1949   82.3116 C   0  0  0  0  0  0  0  0  0  0  0  0
    1.0671   65.5142   83.4967 C   0  0  0  0  0  0  0  0  0  0  0  0
    0.7163   64.7100   84.7227 C   0  0  0  0  0  0  0  0  0  0  0  0
   -0.3999   64.0316   84.7537 N   0  0  0  0  0  0  0  0  0  0  0  0
   -0.6109   63.3302   85.9406 C   0  0  0  0  0  0  0  0  0  0  0  0
   -1.6809   62.5033   86.3187 C   0  0  0  0  0  0  0  0  0  0  0  0
   -1.4901   62.0208   87.5621 N   0  0  0  0  0  0  0  0  0  0  0  0
   -0.2980   62.5473   87.9394 N   0  0  0  0  0  0  0  0  0  0  0  0
    0.2452   62.2389   89.2400 C   0  0  0  0  0  0  0  0  0  0  0  0
    0.2584   63.3433   86.9887 C   0  0  0  0  0  0  0  0  0  0  0  0
    1.4710   64.0738   86.9663 C   0  0  0  0  0  0  0  0  0  0  0  0
    2.3017   64.1160   87.8662 O   0  0  0  0  0  0  0  0  0  0  0  0
    1.6233   64.7490   85.7775 N   0  0  0  0  0  0  0  0  0  0  0  0
    2.4792   65.2783   85.6770 H   0  0  0  0  0  0  0  0  0  0  0  0
   -2.8948   62.1472   85.5351 C   0  0  0  0  0  0  0  0  0  0  0  0
   -2.5618   61.7243   84.1126 C   0  0  0  0  0  0  0  0  0  0  0  0
    2.6928   66.8319   84.6396 O   0  0  0  0  0  0  0  0  0  0  0  0
    4.8827   65.9629   84.9855 C   0  0  0  0  0  0  0  0  0  0  0  0
    4.0774   67.1795   84.5652 C   0  0  0  0  0  0  0  0  0  0  0  0
   -0.1306   65.5132   79.8532 C   0  0  0  0  0  0  0  0  0  0  0  0
    0.2418   64.1243   79.2897 C   0  0  0  0  0  0  0  0  0  0  0  0
   -0.5576   63.0008   79.9822 C   0  0  0  0  0  0  0  0  0  0  0  0
   -0.7208   61.7788   79.0829 C   0  0  0  0  0  0  0  0  0  0  0  0
   -1.5233   62.1127   77.8127 C   0  0  0  0  0  0  0  0  0  0  0  0
   -1.2922   63.5578   77.3347 C   0  0  0  0  0  0  0  0  0  0  0  0
    0.0726   64.0905   77.7571 C   0  0  0  0  0  0  0  0  0  0  0  0
   -3.0185   61.8625   78.0005 C   0  0  0  0  0  0  0  0  0  0  0  0
   -3.8971   62.2788   77.2486 O   0  0  0  0  0  0  0  0  0  0  0  0
   -3.3237   61.1063   79.1131 N   0  0  0  0  0  0  0  0  0  0  0  0
   -4.7097   60.9789   79.3790 O   0  0  0  0  0  0  0  0  0  0  0  0
   -2.7175   61.0953   79.9265 H   0  0  0  0  0  0  0  0  0  0  0  0
   -5.1148   61.4511   78.6171 H   0  0  0  0  0  0  0  0  0  0  0  0
 22 23  1  0  0  0
 23 21  1  0  0  0
 21  1  1  0  0  0
  1  2  1  0  0  0
  2  3  2  0  0  0
  3  4  1  0  0  0
  4 24  1  0  0  0
 24 25  1  0  0  0
 25 26  1  0  0  0
 26 27  1  0  0  0
 27 28  1  0  0  0
 28 31  1  0  0  0
 31 32  2  0  0  0
 31 33  1  0  0  0
 33 34  1  0  0  0
 28 29  1  0  0  0
 29 30  1  0  0  0
  4  5  2  0  0  0
  5  6  1  0  0  0
  6  7  1  0  0  0
  7  8  2  0  0  0
  8  9  1  0  0  0
  9 10  1  0  0  0
 10 19  1  0  0  0
 19 20  1  0  0  0
 10 11  2  0  0  0
 11 12  1  0  0  0
 12 13  1  0  0  0
 12 14  1  0  0  0
 14 15  1  0  0  0
 15 16  2  0  0  0
 15 17  1  0  0  0
  6  1  2  0  0  0
 17  7  1  0  0  0
 30 25  1  0  0  0
 14  9  2  0  0  0
 33 35  1  0  0  0
 34 36  1  0  0  0
 17 18  1  0  0  0
M  END
> <minimizedAffinity>
-10.67714

$$$$



 36 39  0  0  0  0  0  0  0  0999 V2000
   -0.2036   62.8814   85.7230 C   0  0  0  0  0  0  0  0  0  0  0  0
    0.3601   63.7427   86.6749 C   0  0  0  0  0  0  0  0  0  0  0  0
    0.9237   64.9640   86.2945 C   0  0  0  0  0  0  0  0  0  0  0  0
    0.9329   65.3551   84.9552 C   0  0  0  0  0  0  0  0  0  0  0  0
    0.3681   64.4996   84.0010 C   0  0  0  0  0  0  0  0  0  0  0  0
   -0.2059   63.2652   84.3647 C   0  0  0  0  0  0  0  0  0  0  0  0
   -0.7799   62.4308   83.2478 C   0  0  0  0  0  0  0  0  0  0  0  0
   -0.2827   62.5318   82.0438 N   0  0  0  0  0  0  0  0  0  0  0  0
   -0.8983   61.7105   81.0994 C   0  0  0  0  0  0  0  0  0  0  0  0
   -0.6272   61.5537   79.7307 C   0  0  0  0  0  0  0  0  0  0  0  0
   -1.4660   60.6535   79.1818 N   0  0  0  0  0  0  0  0  0  0  0  0
   -2.2440   60.2544   80.2191 N   0  0  0  0  0  0  0  0  0  0  0  0
   -3.2762   59.2690   80.0066 C   0  0  0  0  0  0  0  0  0  0  0  0
   -1.9320   60.8726   81.3886 C   0  0  0  0  0  0  0  0  0  0  0  0
   -2.4784   60.7541   82.6893 C   0  0  0  0  0  0  0  0  0  0  0  0
   -3.3952   60.0111   83.0192 O   0  0  0  0  0  0  0  0  0  0  0  0
   -1.8386   61.5892   83.5757 N   0  0  0  0  0  0  0  0  0  0  0  0
   -2.1594   61.5451   84.5338 H   0  0  0  0  0  0  0  0  0  0  0  0
    0.4120   62.2338   78.9110 C   0  0  0  0  0  0  0  0  0  0  0  0
   -0.0183   63.6238   78.4682 C   0  0  0  0  0  0  0  0  0  0  0  0
   -0.7727   61.6751   86.0487 O   0  0  0  0  0  0  0  0  0  0  0  0
   -2.8318   62.3696   87.0224 C   0  0  0  0  0  0  0  0  0  0  0  0
   -1.5441   61.5978   87.2497 C   0  0  0  0  0  0  0  0  0  0  0  0
    1.5462   66.6723   84.5416 C   0  0  0  0  0  0  0  0  0  0  0  0
    2.3145   66.6025   83.2036 C   0  0  0  0  0  0  0  0  0  0  0  0
    1.4066   66.1132   82.0557 C   0  0  0  0  0  0  0  0  0  0  0  0
    1.8778   66.6254   80.6977 C   0  0  0  0  0  0  0  0  0  0  0  0
    1.8226   68.1616   80.6208 C   0  0  0  0  0  0  0  0  0  0  0  0
    2.1010   68.8282   81.9803 C   0  0  0  0  0  0  0  0  0  0  0  0
    2.9739   67.9581   82.8780 C   0  0  0  0  0  0  0  0  0  0  0  0
    0.4889   68.6573   80.0647 C   0  0  0  0  0  0  0  0  0  0  0  0
    0.0516   69.7969   80.2083 O   0  0  0  0  0  0  0  0  0  0  0  0
   -0.2141   67.7010   79.3619 N   0  0  0  0  0  0  0  0  0  0  0  0
   -1.5116   68.1007   78.9561 O   0  0  0  0  0  0  0  0  0  0  0  0
   -0.1002   66.7120   79.5573 H   0  0  0  0  0  0  0  0  0  0  0  0
   -1.5478   69.0363   79.2576 H   0  0  0  0  0  0  0  0  0  0  0  0
 22 23  1  0  0  0
 23 21  1  0  0  0
 21  1  1  0  0  0
  1  2  1  0  0  0
  2  3  2  0  0  0
  3  4  1  0  0  0
  4 24  1  0  0  0
 24 25  1  0  0  0
 25 26  1  0  0  0
 26 27  1  0  0  0
 27 28  1  0  0  0
 28 31  1  0  0  0
 31 32  2  0  0  0
 31 33  1  0  0  0
 33 34  1  0  0  0
 28 29  1  0  0  0
 29 30  1  0  0  0
  4  5  2  0  0  0
  5  6  1  0  0  0
  6  7  1  0  0  0
  7  8  2  0  0  0
  8  9  1  0  0  0
  9 10  1  0  0  0
 10 19  1  0  0  0
 19 20  1  0  0  0
 10 11  2  0  0  0
 11 12  1  0  0  0
 12 13  1  0  0  0
 12 14  1  0  0  0
 14 15  1  0  0  0
 15 16  2  0  0  0
 15 17  1  0  0  0
  6  1  2  0  0  0
 17  7  1  0  0  0
 30 25  1  0  0  0
 14  9  2  0  0  0
 33 35  1  0  0  0
 34 36  1  0  0  0
 17 18  1  0  0  0
M  END
> <minimizedAffinity>
-10.66733

$$$$



 36 39  0  0  0  0  0  0  0  0999 V2000
    3.9144   66.5471   84.4165 C   0  0  0  0  0  0  0  0  0  0  0  0
    4.7760   67.6438   84.2730 C   0  0  0  0  0  0  0  0  0  0  0  0
    4.2920   68.8889   83.8616 C   0  0  0  0  0  0  0  0  0  0  0  0
    2.9355   69.0682   83.5885 C   0  0  0  0  0  0  0  0  0  0  0  0
    2.0703   67.9765   83.7334 C   0  0  0  0  0  0  0  0  0  0  0  0
    2.5387   66.7140   84.1483 C   0  0  0  0  0  0  0  0  0  0  0  0
    1.5118   65.6163   84.2651 C   0  0  0  0  0  0  0  0  0  0  0  0
    1.1569   65.1857   85.4465 N   0  0  0  0  0  0  0  0  0  0  0  0
    0.2017   64.1697   85.4223 C   0  0  0  0  0  0  0  0  0  0  0  0
   -0.4075   63.4825   86.4845 C   0  0  0  0  0  0  0  0  0  0  0  0
   -1.2790   62.5668   86.0183 N   0  0  0  0  0  0  0  0  0  0  0  0
   -1.2074   62.7018   84.6702 N   0  0  0  0  0  0  0  0  0  0  0  0
   -2.0241   61.8702   83.8198 C   0  0  0  0  0  0  0  0  0  0  0  0
   -0.3236   63.6558   84.2758 C   0  0  0  0  0  0  0  0  0  0  0  0
    0.0527   64.1149   82.9905 C   0  0  0  0  0  0  0  0  0  0  0  0
   -0.3907   63.7076   81.9232 O   0  0  0  0  0  0  0  0  0  0  0  0
    0.9990   65.1097   83.0747 N   0  0  0  0  0  0  0  0  0  0  0  0
    1.3031   65.5053   82.1949 H   0  0  0  0  0  0  0  0  0  0  0  0
   -0.1928   63.6633   87.9458 C   0  0  0  0  0  0  0  0  0  0  0  0
   -0.1117   62.3378   88.6872 C   0  0  0  0  0  0  0  0  0  0  0  0
    4.3420   65.3071   84.8222 O   0  0  0  0  0  0  0  0  0  0  0  0
    5.0582   65.0822   87.0820 C   0  0  0  0  0  0  0  0  0  0  0  0
    5.5116   65.2335   85.6409 C   0  0  0  0  0  0  0  0  0  0  0  0
    2.4114   70.4118   83.1388 C   0  0  0  0  0  0  0  0  0  0  0  0
    2.1364   70.4906   81.6210 C   0  0  0  0  0  0  0  0  0  0  0  0
    2.9007   69.3935   80.8507 C   0  0  0  0  0  0  0  0  0  0  0  0
    2.2029   69.0211   79.5457 C   0  0  0  0  0  0  0  0  0  0  0  0
    0.8052   68.4286   79.7991 C   0  0  0  0  0  0  0  0  0  0  0  0
    0.1270   69.0338   81.0416 C   0  0  0  0  0  0  0  0  0  0  0  0
    0.6216   70.4460   81.3347 C   0  0  0  0  0  0  0  0  0  0  0  0
    0.8445   66.9064   79.9206 C   0  0  0  0  0  0  0  0  0  0  0  0
    1.6844   66.2774   80.5607 O   0  0  0  0  0  0  0  0  0  0  0  0
   -0.1680   66.2644   79.2384 N   0  0  0  0  0  0  0  0  0  0  0  0
   -0.0691   64.8509   79.2268 O   0  0  0  0  0  0  0  0  0  0  0  0
   -0.6008   66.6811   78.4209 H   0  0  0  0  0  0  0  0  0  0  0  0
    0.7197   64.6902   79.7922 H   0  0  0  0  0  0  0  0  0  0  0  0
 22 23  1  0  0  0
 23 21  1  0  0  0
 21  1  1  0  0  0
  1  2  1  0  0  0
  2  3  2  0  0  0
  3  4  1  0  0  0
  4 24  1  0  0  0
 24 25  1  0  0  0
 25 26  1  0  0  0
 26 27  1  0  0  0
 27 28  1  0  0  0
 28 31  1  0  0  0
 31 32  2  0  0  0
 31 33  1  0  0  0
 33 34  1  0  0  0
 28 29  1  0  0  0
 29 30  1  0  0  0
  4  5  2  0  0  0
  5  6  1  0  0  0
  6  7  1  0  0  0
  7  8  2  0  0  0
  8  9  1  0  0  0
  9 10  1  0  0  0
 10 19  1  0  0  0
 19 20  1  0  0  0
 10 11  2  0  0  0
 11 12  1  0  0  0
 12 13  1  0  0  0
 12 14  1  0  0  0
 14 15  1  0  0  0
 15 16  2  0  0  0
 15 17  1  0  0  0
  6  1  2  0  0  0
 17  7  1  0  0  0
 30 25  1  0  0  0
 14  9  2  0  0  0
 33 35  1  0  0  0
 34 36  1  0  0  0
 17 18  1  0  0  0
M  END
> <minimizedAffinity>
-10.65969

$$$$



 36 39  0  0  0  0  0  0  0  0999 V2000
   -0.4890   63.4184   85.1245 C   0  0  0  0  0  0  0  0  0  0  0  0
    0.2017   64.2196   86.0448 C   0  0  0  0  0  0  0  0  0  0  0  0
    1.2526   65.0441   85.6331 C   0  0  0  0  0  0  0  0  0  0  0  0
    1.6347   65.0909   84.2920 C   0  0  0  0  0  0  0  0  0  0  0  0
    0.9458   64.2949   83.3684 C   0  0  0  0  0  0  0  0  0  0  0  0
   -0.1170   63.4583   83.7635 C   0  0  0  0  0  0  0  0  0  0  0  0
   -0.7792   62.6475   82.6785 C   0  0  0  0  0  0  0  0  0  0  0  0
   -0.6383   63.0022   81.4289 N   0  0  0  0  0  0  0  0  0  0  0  0
   -1.2982   62.1741   80.5209 C   0  0  0  0  0  0  0  0  0  0  0  0
   -1.3617   62.2458   79.1200 C   0  0  0  0  0  0  0  0  0  0  0  0
   -2.1153   61.2431   78.6282 N   0  0  0  0  0  0  0  0  0  0  0  0
   -2.5048   60.5540   79.7301 N   0  0  0  0  0  0  0  0  0  0  0  0
   -3.3378   59.3844   79.5898 C   0  0  0  0  0  0  0  0  0  0  0  0
   -2.0335   61.0882   80.8875 C   0  0  0  0  0  0  0  0  0  0  0  0
   -2.1925   60.6939   82.2380 C   0  0  0  0  0  0  0  0  0  0  0  0
   -2.8259   59.7224   82.6336 O   0  0  0  0  0  0  0  0  0  0  0  0
   -1.5274   61.5476   83.0872 N   0  0  0  0  0  0  0  0  0  0  0  0
   -1.5760   61.3181   84.0710 H   0  0  0  0  0  0  0  0  0  0  0  0
   -0.7258   63.2424   78.2163 C   0  0  0  0  0  0  0  0  0  0  0  0
    0.7688   63.0094   78.0582 C   0  0  0  0  0  0  0  0  0  0  0  0
   -1.5300   62.5969   85.4802 O   0  0  0  0  0  0  0  0  0  0  0  0
   -2.8246   62.8368   87.4643 C   0  0  0  0  0  0  0  0  0  0  0  0
   -1.6128   62.1671   86.8410 C   0  0  0  0  0  0  0  0  0  0  0  0
    2.7736   65.9776   83.8460 C   0  0  0  0  0  0  0  0  0  0  0  0
    3.4390   66.7561   85.0020 C   0  0  0  0  0  0  0  0  0  0  0  0
    4.4894   65.8939   85.7329 C   0  0  0  0  0  0  0  0  0  0  0  0
    5.5708   66.7469   86.3900 C   0  0  0  0  0  0  0  0  0  0  0  0
    6.3705   67.5497   85.3484 C   0  0  0  0  0  0  0  0  0  0  0  0
    5.5127   67.9594   84.1375 C   0  0  0  0  0  0  0  0  0  0  0  0
    4.0362   68.0852   84.4965 C   0  0  0  0  0  0  0  0  0  0  0  0
    7.6091   66.7924   84.8730 C   0  0  0  0  0  0  0  0  0  0  0  0
    8.7624   67.2052   84.9728 O   0  0  0  0  0  0  0  0  0  0  0  0
    7.3313   65.5662   84.3053 N   0  0  0  0  0  0  0  0  0  0  0  0
    8.4516   64.9109   83.7365 O   0  0  0  0  0  0  0  0  0  0  0  0
    6.4401   65.3816   83.8571 H   0  0  0  0  0  0  0  0  0  0  0  0
    9.1892   65.5219   83.9604 H   0  0  0  0  0  0  0  0  0  0  0  0
 22 23  1  0  0  0
 23 21  1  0  0  0
 21  1  1  0  0  0
  1  2  1  0  0  0
  2  3  2  0  0  0
  3  4  1  0  0  0
  4 24  1  0  0  0
 24 25  1  0  0  0
 25 26  1  0  0  0
 26 27  1  0  0  0
 27 28  1  0  0  0
 28 31  1  0  0  0
 31 32  2  0  0  0
 31 33  1  0  0  0
 33 34  1  0  0  0
 28 29  1  0  0  0
 29 30  1  0  0  0
  4  5  2  0  0  0
  5  6  1  0  0  0
  6  7  1  0  0  0
  7  8  2  0  0  0
  8  9  1  0  0  0
  9 10  1  0  0  0
 10 19  1  0  0  0
 19 20  1  0  0  0
 10 11  2  0  0  0
 11 12  1  0  0  0
 12 13  1  0  0  0
 12 14  1  0  0  0
 14 15  1  0  0  0
 15 16  2  0  0  0
 15 17  1  0  0  0
  6  1  2  0  0  0
 17  7  1  0  0  0
 30 25  1  0  0  0
 14  9  2  0  0  0
 33 35  1  0  0  0
 34 36  1  0  0  0
 17 18  1  0  0  0
M  END
> <minimizedAffinity>
-10.63447

$$$$
