


 31 33  0  0  0  0  0  0  0  0999 V2000
    3.4888   66.4754   84.6973 C   0  0  0  0  0  0  0  0  0  0  0  0
    4.2410   67.4833   84.0720 C   0  0  0  0  0  0  0  0  0  0  0  0
    3.6834   68.2739   83.0642 C   0  0  0  0  0  0  0  0  0  0  0  0
    2.3631   68.0609   82.6781 C   0  0  0  0  0  0  0  0  0  0  0  0
    1.5943   67.0683   83.2881 C   0  0  0  0  0  0  0  0  0  0  0  0
    2.1475   66.2626   84.2993 C   0  0  0  0  0  0  0  0  0  0  0  0
    1.2493   65.2098   84.8852 C   0  0  0  0  0  0  0  0  0  0  0  0
    0.4142   64.5621   84.1354 N   0  0  0  0  0  0  0  0  0  0  0  0
   -0.3972   63.6091   84.7107 C   0  0  0  0  0  0  0  0  0  0  0  0
   -1.3097   62.9391   83.7148 C   0  0  0  0  0  0  0  0  0  0  0  0
   -0.3720   63.2867   86.0197 C   0  0  0  0  0  0  0  0  0  0  0  0
    0.5987   64.0223   86.8681 C   0  0  0  0  0  0  0  0  0  0  0  0
    0.7309   63.8011   88.0676 O   0  0  0  0  0  0  0  0  0  0  0  0
    1.3431   64.9624   86.2269 N   0  0  0  0  0  0  0  0  0  0  0  0
    2.0155   65.4649   86.7911 H   0  0  0  0  0  0  0  0  0  0  0  0
   -1.2520   62.2896   86.7229 C   0  0  0  0  0  0  0  0  0  0  0  0
   -2.5477   62.9187   87.2149 C   0  0  0  0  0  0  0  0  0  0  0  0
    1.6361   69.0499   81.3937 S   0  0  0  0  0  0  0  0  0  0  0  0
    2.7267   69.5243   80.5708 O   0  0  0  0  0  0  0  0  0  0  0  0
    0.5362   68.3015   80.8252 O   0  0  0  0  0  0  0  0  0  0  0  0
    0.9900   70.3654   82.2572 N   0  0  0  0  0  0  0  0  0  0  0  0
   -0.3462   70.8738   81.8208 C   0  0  0  0  0  0  0  0  0  0  0  0
   -0.2472   71.9084   80.6790 C   0  0  0  0  0  0  0  0  0  0  0  0
    0.6982   73.0183   80.9119 N   0  0  0  0  0  0  0  0  0  0  0  0
    0.1781   73.9843   81.8765 C   0  0  0  0  0  0  0  0  0  0  0  0
    2.0062   72.4701   81.3269 C   0  0  0  0  0  0  0  0  0  0  0  0
    1.9453   71.4858   82.5102 C   0  0  0  0  0  0  0  0  0  0  0  0
    3.9918   65.6693   85.6875 O   0  0  0  0  0  0  0  0  0  0  0  0
    5.3214   65.1623   85.5462 C   0  0  0  0  0  0  0  0  0  0  0  0
    5.4793   65.4812   88.0425 C   0  0  0  0  0  0  0  0  0  0  0  0
    6.1504   65.7156   86.7014 C   0  0  0  0  0  0  0  0  0  0  0  0
 30 31  1  0  0  0
 31 29  1  0  0  0
 29 28  1  0  0  0
 28  1  1  0  0  0
  1  2  1  0  0  0
  2  3  2  0  0  0
  3  4  1  0  0  0
  4 18  1  0  0  0
 18 19  2  0  0  0
 18 20  2  0  0  0
 18 21  1  0  0  0
 21 22  1  0  0  0
 22 23  1  0  0  0
 23 24  1  0  0  0
 24 25  1  0  0  0
 24 26  1  0  0  0
 26 27  1  0  0  0
  4  5  2  0  0  0
  5  6  1  0  0  0
  6  7  1  0  0  0
  7  8  2  0  0  0
  8  9  1  0  0  0
  9 10  1  0  0  0
  9 11  2  0  0  0
 11 16  1  0  0  0
 16 17  1  0  0  0
 11 12  1  0  0  0
 12 13  2  0  0  0
 12 14  1  0  0  0
  6  1  2  0  0  0
 14  7  1  0  0  0
 27 21  1  0  0  0
 14 15  1  0  0  0
M  END
> <minimizedAffinity>
-9.71679

$$$$



 31 33  0  0  0  0  0  0  0  0999 V2000
    1.1037   66.1819   81.8896 C   0  0  0  0  0  0  0  0  0  0  0  0
    1.4607   66.7010   80.6343 C   0  0  0  0  0  0  0  0  0  0  0  0
    1.1907   65.9916   79.4615 C   0  0  0  0  0  0  0  0  0  0  0  0
    0.5559   64.7552   79.5395 C   0  0  0  0  0  0  0  0  0  0  0  0
    0.1874   64.2209   80.7753 C   0  0  0  0  0  0  0  0  0  0  0  0
    0.4600   64.9237   81.9626 C   0  0  0  0  0  0  0  0  0  0  0  0
    0.0416   64.2619   83.2453 C   0  0  0  0  0  0  0  0  0  0  0  0
   -0.9399   63.4161   83.2628 N   0  0  0  0  0  0  0  0  0  0  0  0
   -1.2981   62.8355   84.4594 C   0  0  0  0  0  0  0  0  0  0  0  0
   -2.4505   61.8731   84.3210 C   0  0  0  0  0  0  0  0  0  0  0  0
   -0.6780   63.0783   85.6318 C   0  0  0  0  0  0  0  0  0  0  0  0
    0.4554   64.0362   85.5997 C   0  0  0  0  0  0  0  0  0  0  0  0
    1.1117   64.3195   86.5968 O   0  0  0  0  0  0  0  0  0  0  0  0
    0.7273   64.5822   84.3843 N   0  0  0  0  0  0  0  0  0  0  0  0
    1.5034   65.2296   84.3460 H   0  0  0  0  0  0  0  0  0  0  0  0
   -1.0376   62.5142   86.9792 C   0  0  0  0  0  0  0  0  0  0  0  0
   -2.1324   63.3214   87.6623 C   0  0  0  0  0  0  0  0  0  0  0  0
    0.2093   63.8327   78.0613 S   0  0  0  0  0  0  0  0  0  0  0  0
   -0.1943   64.7946   77.0596 O   0  0  0  0  0  0  0  0  0  0  0  0
    1.3151   62.9283   77.8322 O   0  0  0  0  0  0  0  0  0  0  0  0
   -1.1462   62.9076   78.5089 N   0  0  0  0  0  0  0  0  0  0  0  0
   -0.8940   61.5002   78.9449 C   0  0  0  0  0  0  0  0  0  0  0  0
   -0.8383   60.5098   77.7616 C   0  0  0  0  0  0  0  0  0  0  0  0
   -1.9743   60.5839   76.8213 N   0  0  0  0  0  0  0  0  0  0  0  0
   -3.1878   59.9974   77.3848 C   0  0  0  0  0  0  0  0  0  0  0  0
   -2.1780   61.9877   76.4072 C   0  0  0  0  0  0  0  0  0  0  0  0
   -2.3054   62.9897   77.5702 C   0  0  0  0  0  0  0  0  0  0  0  0
    1.3515   66.8366   83.0699 O   0  0  0  0  0  0  0  0  0  0  0  0
    2.1495   68.0229   83.0386 C   0  0  0  0  0  0  0  0  0  0  0  0
    3.7734   66.6650   84.4088 C   0  0  0  0  0  0  0  0  0  0  0  0
    3.0609   67.9972   84.2621 C   0  0  0  0  0  0  0  0  0  0  0  0
 30 31  1  0  0  0
 31 29  1  0  0  0
 29 28  1  0  0  0
 28  1  1  0  0  0
  1  2  1  0  0  0
  2  3  2  0  0  0
  3  4  1  0  0  0
  4 18  1  0  0  0
 18 19  2  0  0  0
 18 20  2  0  0  0
 18 21  1  0  0  0
 21 22  1  0  0  0
 22 23  1  0  0  0
 23 24  1  0  0  0
 24 25  1  0  0  0
 24 26  1  0  0  0
 26 27  1  0  0  0
  4  5  2  0  0  0
  5  6  1  0  0  0
  6  7  1  0  0  0
  7  8  2  0  0  0
  8  9  1  0  0  0
  9 10  1  0  0  0
  9 11  2  0  0  0
 11 16  1  0  0  0
 16 17  1  0  0  0
 11 12  1  0  0  0
 12 13  2  0  0  0
 12 14  1  0  0  0
  6  1  2  0  0  0
 14  7  1  0  0  0
 27 21  1  0  0  0
 14 15  1  0  0  0
M  END
> <minimizedAffinity>
-9.20654

$$$$



 31 33  0  0  0  0  0  0  0  0999 V2000
    1.0138   65.0402   84.5135 C   0  0  0  0  0  0  0  0  0  0  0  0
    1.6794   66.2550   84.7459 C   0  0  0  0  0  0  0  0  0  0  0  0
    1.7809   67.2209   83.7417 C   0  0  0  0  0  0  0  0  0  0  0  0
    1.2111   66.9760   82.4955 C   0  0  0  0  0  0  0  0  0  0  0  0
    0.5407   65.7782   82.2423 C   0  0  0  0  0  0  0  0  0  0  0  0
    0.4379   64.7964   83.2439 C   0  0  0  0  0  0  0  0  0  0  0  0
   -0.2872   63.5332   82.8737 C   0  0  0  0  0  0  0  0  0  0  0  0
   -0.0396   62.9340   81.7518 N   0  0  0  0  0  0  0  0  0  0  0  0
   -0.7297   61.7820   81.4451 C   0  0  0  0  0  0  0  0  0  0  0  0
   -0.3316   61.1986   80.1130 C   0  0  0  0  0  0  0  0  0  0  0  0
   -1.6501   61.2160   82.2516 C   0  0  0  0  0  0  0  0  0  0  0  0
   -1.9158   61.9002   83.5418 C   0  0  0  0  0  0  0  0  0  0  0  0
   -2.7131   61.4689   84.3684 O   0  0  0  0  0  0  0  0  0  0  0  0
   -1.2107   63.0432   83.7552 N   0  0  0  0  0  0  0  0  0  0  0  0
   -1.3749   63.5149   84.6347 H   0  0  0  0  0  0  0  0  0  0  0  0
   -2.4686   59.9864   81.9669 C   0  0  0  0  0  0  0  0  0  0  0  0
   -3.5573   60.2512   80.9367 C   0  0  0  0  0  0  0  0  0  0  0  0
    1.3344   68.1874   81.2019 S   0  0  0  0  0  0  0  0  0  0  0  0
    2.1691   67.6083   80.1724 O   0  0  0  0  0  0  0  0  0  0  0  0
   -0.0004   68.6619   80.9084 O   0  0  0  0  0  0  0  0  0  0  0  0
    2.1907   69.4500   81.9544 N   0  0  0  0  0  0  0  0  0  0  0  0
    1.4560   70.7334   82.1722 C   0  0  0  0  0  0  0  0  0  0  0  0
    1.5153   71.6703   80.9464 C   0  0  0  0  0  0  0  0  0  0  0  0
    2.8656   71.9121   80.4001 N   0  0  0  0  0  0  0  0  0  0  0  0
    3.6446   72.8100   81.2492 C   0  0  0  0  0  0  0  0  0  0  0  0
    3.5482   70.6187   80.1883 C   0  0  0  0  0  0  0  0  0  0  0  0
    3.5639   69.6904   81.4174 C   0  0  0  0  0  0  0  0  0  0  0  0
    0.8917   64.0582   85.4642 O   0  0  0  0  0  0  0  0  0  0  0  0
    0.2761   64.3882   86.7120 C   0  0  0  0  0  0  0  0  0  0  0  0
   -1.7948   63.3259   87.6824 C   0  0  0  0  0  0  0  0  0  0  0  0
   -0.3501   63.1128   87.2681 C   0  0  0  0  0  0  0  0  0  0  0  0
 30 31  1  0  0  0
 31 29  1  0  0  0
 29 28  1  0  0  0
 28  1  1  0  0  0
  1  2  1  0  0  0
  2  3  2  0  0  0
  3  4  1  0  0  0
  4 18  1  0  0  0
 18 19  2  0  0  0
 18 20  2  0  0  0
 18 21  1  0  0  0
 21 22  1  0  0  0
 22 23  1  0  0  0
 23 24  1  0  0  0
 24 25  1  0  0  0
 24 26  1  0  0  0
 26 27  1  0  0  0
  4  5  2  0  0  0
  5  6  1  0  0  0
  6  7  1  0  0  0
  7  8  2  0  0  0
  8  9  1  0  0  0
  9 10  1  0  0  0
  9 11  2  0  0  0
 11 16  1  0  0  0
 16 17  1  0  0  0
 11 12  1  0  0  0
 12 13  2  0  0  0
 12 14  1  0  0  0
  6  1  2  0  0  0
 14  7  1  0  0  0
 27 21  1  0  0  0
 14 15  1  0  0  0
M  END
> <minimizedAffinity>
-8.92648

$$$$



 31 33  0  0  0  0  0  0  0  0999 V2000
    0.3153   64.0282   84.9217 C   0  0  0  0  0  0  0  0  0  0  0  0
   -0.1816   62.7184   85.0226 C   0  0  0  0  0  0  0  0  0  0  0  0
   -0.3899   61.9403   83.8812 C   0  0  0  0  0  0  0  0  0  0  0  0
   -0.0971   62.4705   82.6279 C   0  0  0  0  0  0  0  0  0  0  0  0
    0.4020   63.7680   82.5028 C   0  0  0  0  0  0  0  0  0  0  0  0
    0.6096   64.5622   83.6447 C   0  0  0  0  0  0  0  0  0  0  0  0
    1.1336   65.9510   83.4100 C   0  0  0  0  0  0  0  0  0  0  0  0
    0.7321   66.6454   82.3922 N   0  0  0  0  0  0  0  0  0  0  0  0
    1.2407   67.9121   82.2074 C   0  0  0  0  0  0  0  0  0  0  0  0
    0.6781   68.5961   80.9871 C   0  0  0  0  0  0  0  0  0  0  0  0
    2.1311   68.4962   83.0344 C   0  0  0  0  0  0  0  0  0  0  0  0
    2.5733   67.6998   84.2064 C   0  0  0  0  0  0  0  0  0  0  0  0
    3.3613   68.1319   85.0415 O   0  0  0  0  0  0  0  0  0  0  0  0
    2.0424   66.4516   84.3009 N   0  0  0  0  0  0  0  0  0  0  0  0
    2.3278   65.9011   85.1000 H   0  0  0  0  0  0  0  0  0  0  0  0
    2.7579   69.8545   82.8751 C   0  0  0  0  0  0  0  0  0  0  0  0
    3.9336   69.8309   81.9088 C   0  0  0  0  0  0  0  0  0  0  0  0
   -0.3611   61.5012   81.1626 S   0  0  0  0  0  0  0  0  0  0  0  0
    0.9449   61.2448   80.5965 O   0  0  0  0  0  0  0  0  0  0  0  0
   -1.2588   60.4185   81.5016 O   0  0  0  0  0  0  0  0  0  0  0  0
   -1.1952   62.5812   80.1469 N   0  0  0  0  0  0  0  0  0  0  0  0
   -2.5690   62.1822   79.7136 C   0  0  0  0  0  0  0  0  0  0  0  0
   -2.5617   61.2906   78.4531 C   0  0  0  0  0  0  0  0  0  0  0  0
   -1.7708   61.8067   77.3182 N   0  0  0  0  0  0  0  0  0  0  0  0
   -2.4396   62.9197   76.6487 C   0  0  0  0  0  0  0  0  0  0  0  0
   -0.4193   62.1748   77.7889 C   0  0  0  0  0  0  0  0  0  0  0  0
   -0.3965   63.1197   79.0051 C   0  0  0  0  0  0  0  0  0  0  0  0
    0.5320   64.8340   86.0112 O   0  0  0  0  0  0  0  0  0  0  0  0
   -0.0272   64.4470   87.2692 C   0  0  0  0  0  0  0  0  0  0  0  0
    0.4667   62.6506   88.9684 C   0  0  0  0  0  0  0  0  0  0  0  0
    1.0550   63.7011   88.0442 C   0  0  0  0  0  0  0  0  0  0  0  0
 30 31  1  0  0  0
 31 29  1  0  0  0
 29 28  1  0  0  0
 28  1  1  0  0  0
  1  2  1  0  0  0
  2  3  2  0  0  0
  3  4  1  0  0  0
  4 18  1  0  0  0
 18 19  2  0  0  0
 18 20  2  0  0  0
 18 21  1  0  0  0
 21 22  1  0  0  0
 22 23  1  0  0  0
 23 24  1  0  0  0
 24 25  1  0  0  0
 24 26  1  0  0  0
 26 27  1  0  0  0
  4  5  2  0  0  0
  5  6  1  0  0  0
  6  7  1  0  0  0
  7  8  2  0  0  0
  8  9  1  0  0  0
  9 10  1  0  0  0
  9 11  2  0  0  0
 11 16  1  0  0  0
 16 17  1  0  0  0
 11 12  1  0  0  0
 12 13  2  0  0  0
 12 14  1  0  0  0
  6  1  2  0  0  0
 14  7  1  0  0  0
 27 21  1  0  0  0
 14 15  1  0  0  0
M  END
> <minimizedAffinity>
-8.91937

$$$$



 31 33  0  0  0  0  0  0  0  0999 V2000
   -0.0111   63.4645   85.5062 C   0  0  0  0  0  0  0  0  0  0  0  0
   -1.0804   62.5943   85.2377 C   0  0  0  0  0  0  0  0  0  0  0  0
   -1.6015   62.4750   83.9471 C   0  0  0  0  0  0  0  0  0  0  0  0
   -1.0501   63.2267   82.9134 C   0  0  0  0  0  0  0  0  0  0  0  0
    0.0160   64.0948   83.1549 C   0  0  0  0  0  0  0  0  0  0  0  0
    0.5443   64.2273   84.4515 C   0  0  0  0  0  0  0  0  0  0  0  0
    1.6795   65.1978   84.6177 C   0  0  0  0  0  0  0  0  0  0  0  0
    1.6914   66.3183   83.9669 N   0  0  0  0  0  0  0  0  0  0  0  0
    2.7529   67.1788   84.1409 C   0  0  0  0  0  0  0  0  0  0  0  0
    2.6243   68.4393   83.3236 C   0  0  0  0  0  0  0  0  0  0  0  0
    3.7912   66.9393   84.9670 C   0  0  0  0  0  0  0  0  0  0  0  0
    3.7616   65.6608   85.7205 C   0  0  0  0  0  0  0  0  0  0  0  0
    4.6367   65.3421   86.5191 O   0  0  0  0  0  0  0  0  0  0  0  0
    2.6919   64.8588   85.4723 N   0  0  0  0  0  0  0  0  0  0  0  0
    2.6540   63.9884   85.9860 H   0  0  0  0  0  0  0  0  0  0  0  0
    4.9997   67.8103   85.1771 C   0  0  0  0  0  0  0  0  0  0  0  0
    6.1987   67.3263   84.3742 C   0  0  0  0  0  0  0  0  0  0  0  0
   -1.7019   63.0960   81.2659 S   0  0  0  0  0  0  0  0  0  0  0  0
   -3.1427   63.0876   81.3915 O   0  0  0  0  0  0  0  0  0  0  0  0
   -1.0252   64.0733   80.4412 O   0  0  0  0  0  0  0  0  0  0  0  0
   -1.1859   61.5486   80.7830 N   0  0  0  0  0  0  0  0  0  0  0  0
   -0.0508   61.4834   79.8125 C   0  0  0  0  0  0  0  0  0  0  0  0
   -0.5151   61.5860   78.3435 C   0  0  0  0  0  0  0  0  0  0  0  0
   -1.6027   60.6646   77.9585 N   0  0  0  0  0  0  0  0  0  0  0  0
   -1.1285   59.2900   77.8172 C   0  0  0  0  0  0  0  0  0  0  0  0
   -2.7062   60.7724   78.9354 C   0  0  0  0  0  0  0  0  0  0  0  0
   -2.2818   60.6057   80.4067 C   0  0  0  0  0  0  0  0  0  0  0  0
    0.5323   63.6213   86.7565 O   0  0  0  0  0  0  0  0  0  0  0  0
   -0.2387   64.2911   87.7574 C   0  0  0  0  0  0  0  0  0  0  0  0
    0.3566   62.2403   89.0985 C   0  0  0  0  0  0  0  0  0  0  0  0
   -0.7331   63.2348   88.7412 C   0  0  0  0  0  0  0  0  0  0  0  0
 30 31  1  0  0  0
 31 29  1  0  0  0
 29 28  1  0  0  0
 28  1  1  0  0  0
  1  2  1  0  0  0
  2  3  2  0  0  0
  3  4  1  0  0  0
  4 18  1  0  0  0
 18 19  2  0  0  0
 18 20  2  0  0  0
 18 21  1  0  0  0
 21 22  1  0  0  0
 22 23  1  0  0  0
 23 24  1  0  0  0
 24 25  1  0  0  0
 24 26  1  0  0  0
 26 27  1  0  0  0
  4  5  2  0  0  0
  5  6  1  0  0  0
  6  7  1  0  0  0
  7  8  2  0  0  0
  8  9  1  0  0  0
  9 10  1  0  0  0
  9 11  2  0  0  0
 11 16  1  0  0  0
 16 17  1  0  0  0
 11 12  1  0  0  0
 12 13  2  0  0  0
 12 14  1  0  0  0
  6  1  2  0  0  0
 14  7  1  0  0  0
 27 21  1  0  0  0
 14 15  1  0  0  0
M  END
> <minimizedAffinity>
-8.88713

$$$$



 31 33  0  0  0  0  0  0  0  0999 V2000
    3.4128   67.2538   84.1140 C   0  0  0  0  0  0  0  0  0  0  0  0
    4.0739   68.4234   83.7047 C   0  0  0  0  0  0  0  0  0  0  0  0
    3.4907   69.2897   82.7768 C   0  0  0  0  0  0  0  0  0  0  0  0
    2.2357   68.9901   82.2545 C   0  0  0  0  0  0  0  0  0  0  0  0
    1.5573   67.8360   82.6496 C   0  0  0  0  0  0  0  0  0  0  0  0
    2.1377   66.9538   83.5783 C   0  0  0  0  0  0  0  0  0  0  0  0
    1.3403   65.7295   83.9301 C   0  0  0  0  0  0  0  0  0  0  0  0
    1.0716   65.4489   85.1663 N   0  0  0  0  0  0  0  0  0  0  0  0
    0.3437   64.3141   85.4490 C   0  0  0  0  0  0  0  0  0  0  0  0
    0.1076   64.1233   86.9259 C   0  0  0  0  0  0  0  0  0  0  0  0
   -0.1300   63.4682   84.5120 C   0  0  0  0  0  0  0  0  0  0  0  0
    0.1688   63.8059   83.0978 C   0  0  0  0  0  0  0  0  0  0  0  0
   -0.2281   63.1266   82.1565 O   0  0  0  0  0  0  0  0  0  0  0  0
    0.9127   64.9282   82.9078 N   0  0  0  0  0  0  0  0  0  0  0  0
    1.1160   65.1756   81.9483 H   0  0  0  0  0  0  0  0  0  0  0  0
   -0.8948   62.1942   84.7470 C   0  0  0  0  0  0  0  0  0  0  0  0
   -2.3940   62.4381   84.8448 C   0  0  0  0  0  0  0  0  0  0  0  0
    1.4785   70.0740   81.0680 S   0  0  0  0  0  0  0  0  0  0  0  0
    2.5547   70.6689   80.3067 O   0  0  0  0  0  0  0  0  0  0  0  0
    0.4114   69.3452   80.4174 O   0  0  0  0  0  0  0  0  0  0  0  0
    0.7774   71.2716   82.0518 N   0  0  0  0  0  0  0  0  0  0  0  0
   -0.5691   71.7798   81.6479 C   0  0  0  0  0  0  0  0  0  0  0  0
   -0.4894   72.9300   80.6209 C   0  0  0  0  0  0  0  0  0  0  0  0
    0.4153   74.0393   80.9830 N   0  0  0  0  0  0  0  0  0  0  0  0
   -0.1496   74.8829   82.0334 C   0  0  0  0  0  0  0  0  0  0  0  0
    1.7351   73.4928   81.3611 C   0  0  0  0  0  0  0  0  0  0  0  0
    1.6912   72.3895   82.4352 C   0  0  0  0  0  0  0  0  0  0  0  0
    3.9450   66.3687   85.0177 O   0  0  0  0  0  0  0  0  0  0  0  0
    5.2214   66.6629   85.5915 C   0  0  0  0  0  0  0  0  0  0  0  0
    7.3709   65.7922   84.6014 C   0  0  0  0  0  0  0  0  0  0  0  0
    6.1141   65.4440   85.3781 C   0  0  0  0  0  0  0  0  0  0  0  0
 30 31  1  0  0  0
 31 29  1  0  0  0
 29 28  1  0  0  0
 28  1  1  0  0  0
  1  2  1  0  0  0
  2  3  2  0  0  0
  3  4  1  0  0  0
  4 18  1  0  0  0
 18 19  2  0  0  0
 18 20  2  0  0  0
 18 21  1  0  0  0
 21 22  1  0  0  0
 22 23  1  0  0  0
 23 24  1  0  0  0
 24 25  1  0  0  0
 24 26  1  0  0  0
 26 27  1  0  0  0
  4  5  2  0  0  0
  5  6  1  0  0  0
  6  7  1  0  0  0
  7  8  2  0  0  0
  8  9  1  0  0  0
  9 10  1  0  0  0
  9 11  2  0  0  0
 11 16  1  0  0  0
 16 17  1  0  0  0
 11 12  1  0  0  0
 12 13  2  0  0  0
 12 14  1  0  0  0
  6  1  2  0  0  0
 14  7  1  0  0  0
 27 21  1  0  0  0
 14 15  1  0  0  0
M  END
> <minimizedAffinity>
-8.88293

$$$$



 31 33  0  0  0  0  0  0  0  0999 V2000
    0.2837   64.7876   80.9290 C   0  0  0  0  0  0  0  0  0  0  0  0
    0.7565   65.5900   79.8777 C   0  0  0  0  0  0  0  0  0  0  0  0
    1.4456   66.7775   80.1357 C   0  0  0  0  0  0  0  0  0  0  0  0
    1.6691   67.1675   81.4531 C   0  0  0  0  0  0  0  0  0  0  0  0
    1.2129   66.3842   82.5145 C   0  0  0  0  0  0  0  0  0  0  0  0
    0.5126   65.1902   82.2663 C   0  0  0  0  0  0  0  0  0  0  0  0
    0.0462   64.4228   83.4712 C   0  0  0  0  0  0  0  0  0  0  0  0
    0.6421   64.5606   84.6136 N   0  0  0  0  0  0  0  0  0  0  0  0
    0.1893   63.8348   85.6932 C   0  0  0  0  0  0  0  0  0  0  0  0
    0.9770   64.1034   86.9506 C   0  0  0  0  0  0  0  0  0  0  0  0
   -0.8585   62.9875   85.6474 C   0  0  0  0  0  0  0  0  0  0  0  0
   -1.5451   62.8478   84.3388 C   0  0  0  0  0  0  0  0  0  0  0  0
   -2.5240   62.1261   84.1782 O   0  0  0  0  0  0  0  0  0  0  0  0
   -1.0200   63.5798   83.3202 N   0  0  0  0  0  0  0  0  0  0  0  0
   -1.4839   63.5015   82.4249 H   0  0  0  0  0  0  0  0  0  0  0  0
   -1.3825   62.1352   86.7708 C   0  0  0  0  0  0  0  0  0  0  0  0
   -2.4678   62.8449   87.5676 C   0  0  0  0  0  0  0  0  0  0  0  0
    2.5369   68.6775   81.8040 S   0  0  0  0  0  0  0  0  0  0  0  0
    3.4590   68.3834   82.8787 O   0  0  0  0  0  0  0  0  0  0  0  0
    2.9979   69.2276   80.5478 O   0  0  0  0  0  0  0  0  0  0  0  0
    1.3039   69.6854   82.4017 N   0  0  0  0  0  0  0  0  0  0  0  0
    0.0398   69.7564   81.6070 C   0  0  0  0  0  0  0  0  0  0  0  0
    0.1020   70.8097   80.4797 C   0  0  0  0  0  0  0  0  0  0  0  0
    0.5501   72.1540   80.8946 N   0  0  0  0  0  0  0  0  0  0  0  0
   -0.4839   72.8674   81.6403 C   0  0  0  0  0  0  0  0  0  0  0  0
    1.8067   72.0370   81.6634 C   0  0  0  0  0  0  0  0  0  0  0  0
    1.7523   71.0420   82.8380 C   0  0  0  0  0  0  0  0  0  0  0  0
   -0.4026   63.6162   80.7282 O   0  0  0  0  0  0  0  0  0  0  0  0
    0.2798   62.5219   80.1103 C   0  0  0  0  0  0  0  0  0  0  0  0
    1.3094   61.2014   81.9957 C   0  0  0  0  0  0  0  0  0  0  0  0
    0.1420   61.3139   81.0321 C   0  0  0  0  0  0  0  0  0  0  0  0
 30 31  1  0  0  0
 31 29  1  0  0  0
 29 28  1  0  0  0
 28  1  1  0  0  0
  1  2  1  0  0  0
  2  3  2  0  0  0
  3  4  1  0  0  0
  4 18  1  0  0  0
 18 19  2  0  0  0
 18 20  2  0  0  0
 18 21  1  0  0  0
 21 22  1  0  0  0
 22 23  1  0  0  0
 23 24  1  0  0  0
 24 25  1  0  0  0
 24 26  1  0  0  0
 26 27  1  0  0  0
  4  5  2  0  0  0
  5  6  1  0  0  0
  6  7  1  0  0  0
  7  8  2  0  0  0
  8  9  1  0  0  0
  9 10  1  0  0  0
  9 11  2  0  0  0
 11 16  1  0  0  0
 16 17  1  0  0  0
 11 12  1  0  0  0
 12 13  2  0  0  0
 12 14  1  0  0  0
  6  1  2  0  0  0
 14  7  1  0  0  0
 27 21  1  0  0  0
 14 15  1  0  0  0
M  END
> <minimizedAffinity>
-8.87152

$$$$



 31 33  0  0  0  0  0  0  0  0999 V2000
   -0.4612   63.7710   83.6769 C   0  0  0  0  0  0  0  0  0  0  0  0
    0.2126   64.5674   84.6175 C   0  0  0  0  0  0  0  0  0  0  0  0
    1.0596   65.5999   84.2077 C   0  0  0  0  0  0  0  0  0  0  0  0
    1.2344   65.8440   82.8485 C   0  0  0  0  0  0  0  0  0  0  0  0
    0.5719   65.0689   81.8952 C   0  0  0  0  0  0  0  0  0  0  0  0
   -0.2782   64.0230   82.2964 C   0  0  0  0  0  0  0  0  0  0  0  0
   -0.9344   63.2331   81.1993 C   0  0  0  0  0  0  0  0  0  0  0  0
   -0.2749   62.9122   80.1310 N   0  0  0  0  0  0  0  0  0  0  0  0
   -0.9133   62.1933   79.1445 C   0  0  0  0  0  0  0  0  0  0  0  0
   -0.0191   61.8921   77.9685 C   0  0  0  0  0  0  0  0  0  0  0  0
   -2.1944   61.7798   79.2207 C   0  0  0  0  0  0  0  0  0  0  0  0
   -2.9374   62.1379   80.4548 C   0  0  0  0  0  0  0  0  0  0  0  0
   -4.1000   61.7983   80.6501 O   0  0  0  0  0  0  0  0  0  0  0  0
   -2.2419   62.8688   81.3665 N   0  0  0  0  0  0  0  0  0  0  0  0
   -2.7331   63.1119   82.2166 H   0  0  0  0  0  0  0  0  0  0  0  0
   -2.9666   61.0289   78.1705 C   0  0  0  0  0  0  0  0  0  0  0  0
   -3.5122   61.9543   77.0923 C   0  0  0  0  0  0  0  0  0  0  0  0
    2.3124   67.1473   82.3050 S   0  0  0  0  0  0  0  0  0  0  0  0
    3.3723   67.2417   83.2845 O   0  0  0  0  0  0  0  0  0  0  0  0
    2.6010   66.9304   80.9040 O   0  0  0  0  0  0  0  0  0  0  0  0
    1.3243   68.5260   82.4339 N   0  0  0  0  0  0  0  0  0  0  0  0
    0.4886   68.8762   81.2449 C   0  0  0  0  0  0  0  0  0  0  0  0
    1.2477   69.7421   80.2163 C   0  0  0  0  0  0  0  0  0  0  0  0
    1.9208   70.9348   80.7681 N   0  0  0  0  0  0  0  0  0  0  0  0
    0.9693   71.9911   81.1044 C   0  0  0  0  0  0  0  0  0  0  0  0
    2.7442   70.5403   81.9299 C   0  0  0  0  0  0  0  0  0  0  0  0
    1.9942   69.7326   83.0059 C   0  0  0  0  0  0  0  0  0  0  0  0
   -1.2989   62.7424   84.0281 O   0  0  0  0  0  0  0  0  0  0  0  0
   -1.2619   62.2603   85.3739 C   0  0  0  0  0  0  0  0  0  0  0  0
   -2.6217   63.0716   87.3363 C   0  0  0  0  0  0  0  0  0  0  0  0
   -2.6597   62.4285   85.9619 C   0  0  0  0  0  0  0  0  0  0  0  0
 30 31  1  0  0  0
 31 29  1  0  0  0
 29 28  1  0  0  0
 28  1  1  0  0  0
  1  2  1  0  0  0
  2  3  2  0  0  0
  3  4  1  0  0  0
  4 18  1  0  0  0
 18 19  2  0  0  0
 18 20  2  0  0  0
 18 21  1  0  0  0
 21 22  1  0  0  0
 22 23  1  0  0  0
 23 24  1  0  0  0
 24 25  1  0  0  0
 24 26  1  0  0  0
 26 27  1  0  0  0
  4  5  2  0  0  0
  5  6  1  0  0  0
  6  7  1  0  0  0
  7  8  2  0  0  0
  8  9  1  0  0  0
  9 10  1  0  0  0
  9 11  2  0  0  0
 11 16  1  0  0  0
 16 17  1  0  0  0
 11 12  1  0  0  0
 12 13  2  0  0  0
 12 14  1  0  0  0
  6  1  2  0  0  0
 14  7  1  0  0  0
 27 21  1  0  0  0
 14 15  1  0  0  0
M  END
> <minimizedAffinity>
-8.64616

$$$$



 31 33  0  0  0  0  0  0  0  0999 V2000
    2.1715   66.5141   83.4256 C   0  0  0  0  0  0  0  0  0  0  0  0
    2.6017   67.2669   82.3207 C   0  0  0  0  0  0  0  0  0  0  0  0
    2.0446   67.0664   81.0554 C   0  0  0  0  0  0  0  0  0  0  0  0
    1.0472   66.1096   80.8898 C   0  0  0  0  0  0  0  0  0  0  0  0
    0.6001   65.3524   81.9738 C   0  0  0  0  0  0  0  0  0  0  0  0
    1.1583   65.5417   83.2507 C   0  0  0  0  0  0  0  0  0  0  0  0
    0.6254   64.6692   84.3521 C   0  0  0  0  0  0  0  0  0  0  0  0
   -0.3859   63.8862   84.1440 N   0  0  0  0  0  0  0  0  0  0  0  0
   -0.8496   63.1067   85.1806 C   0  0  0  0  0  0  0  0  0  0  0  0
   -2.0244   62.2477   84.7866 C   0  0  0  0  0  0  0  0  0  0  0  0
   -0.3058   63.0898   86.4143 C   0  0  0  0  0  0  0  0  0  0  0  0
    0.8621   63.9779   86.6393 C   0  0  0  0  0  0  0  0  0  0  0  0
    1.4560   64.0323   87.7115 O   0  0  0  0  0  0  0  0  0  0  0  0
    1.2399   64.7313   85.5722 N   0  0  0  0  0  0  0  0  0  0  0  0
    2.0404   65.3343   85.7087 H   0  0  0  0  0  0  0  0  0  0  0  0
   -0.7810   62.2978   87.6017 C   0  0  0  0  0  0  0  0  0  0  0  0
   -1.8815   63.0198   88.3661 C   0  0  0  0  0  0  0  0  0  0  0  0
    0.3299   65.8331   79.2882 S   0  0  0  0  0  0  0  0  0  0  0  0
   -0.7975   66.7326   79.1800 O   0  0  0  0  0  0  0  0  0  0  0  0
    1.3991   65.8478   78.3136 O   0  0  0  0  0  0  0  0  0  0  0  0
   -0.2518   64.2393   79.4107 N   0  0  0  0  0  0  0  0  0  0  0  0
    0.7669   63.1464   79.4582 C   0  0  0  0  0  0  0  0  0  0  0  0
    1.2094   62.6816   78.0539 C   0  0  0  0  0  0  0  0  0  0  0  0
    0.1123   62.3513   77.1224 N   0  0  0  0  0  0  0  0  0  0  0  0
   -0.5196   61.0767   77.4544 C   0  0  0  0  0  0  0  0  0  0  0  0
   -0.8613   63.4626   77.0971 C   0  0  0  0  0  0  0  0  0  0  0  0
   -1.3724   63.9022   78.4821 C   0  0  0  0  0  0  0  0  0  0  0  0
    2.6903   66.6693   84.6866 O   0  0  0  0  0  0  0  0  0  0  0  0
    4.1007   66.8594   84.8264 C   0  0  0  0  0  0  0  0  0  0  0  0
    6.2001   65.5241   85.2363 C   0  0  0  0  0  0  0  0  0  0  0  0
    4.6886   65.5609   85.3709 C   0  0  0  0  0  0  0  0  0  0  0  0
 30 31  1  0  0  0
 31 29  1  0  0  0
 29 28  1  0  0  0
 28  1  1  0  0  0
  1  2  1  0  0  0
  2  3  2  0  0  0
  3  4  1  0  0  0
  4 18  1  0  0  0
 18 19  2  0  0  0
 18 20  2  0  0  0
 18 21  1  0  0  0
 21 22  1  0  0  0
 22 23  1  0  0  0
 23 24  1  0  0  0
 24 25  1  0  0  0
 24 26  1  0  0  0
 26 27  1  0  0  0
  4  5  2  0  0  0
  5  6  1  0  0  0
  6  7  1  0  0  0
  7  8  2  0  0  0
  8  9  1  0  0  0
  9 10  1  0  0  0
  9 11  2  0  0  0
 11 16  1  0  0  0
 16 17  1  0  0  0
 11 12  1  0  0  0
 12 13  2  0  0  0
 12 14  1  0  0  0
  6  1  2  0  0  0
 14  7  1  0  0  0
 27 21  1  0  0  0
 14 15  1  0  0  0
M  END
> <minimizedAffinity>
-8.62747

$$$$
