


 32 34  0  0  0  0  0  0  0  0999 V2000
    0.2700   64.1536   80.5280 N   0  0  0  0  0  0  0  0  0  0  0  0
    0.2487   65.5288   80.5320 C   0  0  0  0  0  0  0  0  0  0  0  0
   -0.1775   66.2783   79.6629 O   0  0  0  0  0  0  0  0  0  0  0  0
    0.6631   63.7073   81.3499 H   0  0  0  0  0  0  0  0  0  0  0  0
    0.8332   66.1016   81.7907 C   0  0  0  0  0  0  0  0  0  0  0  0
    1.4799   67.3290   81.7645 C   0  0  0  0  0  0  0  0  0  0  0  0
    2.0028   67.8156   82.9560 C   0  0  0  0  0  0  0  0  0  0  0  0
    1.8649   67.0637   84.1205 C   0  0  0  0  0  0  0  0  0  0  0  0
    1.2084   65.8327   84.0672 C   0  0  0  0  0  0  0  0  0  0  0  0
    0.6770   65.3441   82.9162 N   0  0  0  0  0  0  0  0  0  0  0  0
    1.0270   65.0100   85.3268 C   0  0  0  0  0  0  0  0  0  0  0  0
    0.4706   63.7381   84.9918 O   0  0  0  0  0  0  0  0  0  0  0  0
   -0.6293   63.3366   85.6983 C   0  0  0  0  0  0  0  0  0  0  0  0
   -1.7522   62.6913   85.1778 C   0  0  0  0  0  0  0  0  0  0  0  0
   -2.8108   62.3365   86.0203 C   0  0  0  0  0  0  0  0  0  0  0  0
   -2.7516   62.6235   87.3830 C   0  0  0  0  0  0  0  0  0  0  0  0
   -1.6327   63.2653   87.9073 C   0  0  0  0  0  0  0  0  0  0  0  0
   -0.5766   63.6189   87.0661 C   0  0  0  0  0  0  0  0  0  0  0  0
   -1.6099   61.9798   78.4807 C   0  0  0  0  0  0  0  0  0  0  0  0
   -0.5167   61.8836   77.6374 C   0  0  0  0  0  0  0  0  0  0  0  0
    0.7775   62.8358   78.2283 S   0  0  0  0  0  0  0  0  0  0  0  0
   -0.1780   63.3085   79.5524 C   0  0  0  0  0  0  0  0  0  0  0  0
   -1.3913   62.8039   79.5887 N   0  0  0  0  0  0  0  0  0  0  0  0
   -3.5658   61.4932   76.9258 C   0  0  0  0  0  0  0  0  0  0  0  0
   -2.9745   61.3171   78.3390 C   0  0  0  0  0  0  0  0  0  0  0  0
   -3.9688   61.9317   79.3445 C   0  0  0  0  0  0  0  0  0  0  0  0
   -2.8334   59.8065   78.6291 C   0  0  0  0  0  0  0  0  0  0  0  0
   -2.1335   59.0387   77.9651 O   0  0  0  0  0  0  0  0  0  0  0  0
   -3.5784   59.3397   79.6952 N   0  0  0  0  0  0  0  0  0  0  0  0
   -3.3259   57.9884   80.0444 O   0  0  0  0  0  0  0  0  0  0  0  0
   -3.7346   59.9805   80.4764 H   0  0  0  0  0  0  0  0  0  0  0  0
   -2.6852   57.7094   79.3535 H   0  0  0  0  0  0  0  0  0  0  0  0
 24 25  1  0  0  0
 25 26  1  0  0  0
 25 27  1  0  0  0
 27 28  2  0  0  0
 27 29  1  0  0  0
 29 30  1  0  0  0
 25 19  1  0  0  0
 19 20  2  0  0  0
 20 21  1  0  0  0
 21 22  1  0  0  0
 22  1  1  0  0  0
  1  2  1  0  0  0
  2  3  2  0  0  0
  2  5  1  0  0  0
  5  6  1  0  0  0
  6  7  2  0  0  0
  7  8  1  0  0  0
  8  9  2  0  0  0
  9 11  1  0  0  0
 11 12  1  0  0  0
 12 13  1  0  0  0
 13 14  2  0  0  0
 14 15  1  0  0  0
 15 16  2  0  0  0
 16 17  1  0  0  0
 17 18  2  0  0  0
  9 10  1  0  0  0
 22 23  2  0  0  0
 23 19  1  0  0  0
 10  5  2  0  0  0
 18 13  1  0  0  0
 29 31  1  0  0  0
 30 32  1  0  0  0
  1  4  1  0  0  0
M  END
> <minimizedAffinity>
-10.58476

$$$$



 32 34  0  0  0  0  0  0  0  0999 V2000
   -0.0430   63.1697   80.9469 N   0  0  0  0  0  0  0  0  0  0  0  0
    0.2822   62.4532   82.0749 C   0  0  0  0  0  0  0  0  0  0  0  0
    0.4654   61.2469   82.1745 O   0  0  0  0  0  0  0  0  0  0  0  0
   -0.1493   64.1717   81.0653 H   0  0  0  0  0  0  0  0  0  0  0  0
    0.4131   63.3305   83.2862 C   0  0  0  0  0  0  0  0  0  0  0  0
   -0.0379   62.8873   84.5213 C   0  0  0  0  0  0  0  0  0  0  0  0
    0.1069   63.7366   85.6111 C   0  0  0  0  0  0  0  0  0  0  0  0
    0.6891   64.9889   85.4291 C   0  0  0  0  0  0  0  0  0  0  0  0
    1.1115   65.3690   84.1538 C   0  0  0  0  0  0  0  0  0  0  0  0
    0.9928   64.5492   83.0769 N   0  0  0  0  0  0  0  0  0  0  0  0
    1.7688   66.7173   83.9384 C   0  0  0  0  0  0  0  0  0  0  0  0
    3.1604   66.5348   83.6747 O   0  0  0  0  0  0  0  0  0  0  0  0
    4.0150   66.6654   84.7342 C   0  0  0  0  0  0  0  0  0  0  0  0
    4.4152   67.8641   85.3268 C   0  0  0  0  0  0  0  0  0  0  0  0
    5.3001   67.8500   86.4099 C   0  0  0  0  0  0  0  0  0  0  0  0
    5.7869   66.6414   86.9046 C   0  0  0  0  0  0  0  0  0  0  0  0
    5.3891   65.4428   86.3182 C   0  0  0  0  0  0  0  0  0  0  0  0
    4.5059   65.4574   85.2375 C   0  0  0  0  0  0  0  0  0  0  0  0
   -1.2725   61.6387   78.0152 C   0  0  0  0  0  0  0  0  0  0  0  0
   -0.1485   62.0927   77.3474 C   0  0  0  0  0  0  0  0  0  0  0  0
    0.8618   62.9739   78.4121 S   0  0  0  0  0  0  0  0  0  0  0  0
   -0.2378   62.6993   79.6790 C   0  0  0  0  0  0  0  0  0  0  0  0
   -1.3021   61.9938   79.3670 N   0  0  0  0  0  0  0  0  0  0  0  0
   -1.9863   59.7919   76.4152 C   0  0  0  0  0  0  0  0  0  0  0  0
   -2.4392   60.8303   77.4613 C   0  0  0  0  0  0  0  0  0  0  0  0
   -3.4582   61.7675   76.7827 C   0  0  0  0  0  0  0  0  0  0  0  0
   -3.1341   60.0874   78.6238 C   0  0  0  0  0  0  0  0  0  0  0  0
   -4.2118   60.4295   79.1153 O   0  0  0  0  0  0  0  0  0  0  0  0
   -2.4478   58.9943   79.1176 N   0  0  0  0  0  0  0  0  0  0  0  0
   -3.1624   58.2343   80.0786 O   0  0  0  0  0  0  0  0  0  0  0  0
   -1.8795   58.4584   78.4581 H   0  0  0  0  0  0  0  0  0  0  0  0
   -3.9894   58.7543   80.1845 H   0  0  0  0  0  0  0  0  0  0  0  0
 24 25  1  0  0  0
 25 26  1  0  0  0
 25 27  1  0  0  0
 27 28  2  0  0  0
 27 29  1  0  0  0
 29 30  1  0  0  0
 25 19  1  0  0  0
 19 20  2  0  0  0
 20 21  1  0  0  0
 21 22  1  0  0  0
 22  1  1  0  0  0
  1  2  1  0  0  0
  2  3  2  0  0  0
  2  5  1  0  0  0
  5  6  1  0  0  0
  6  7  2  0  0  0
  7  8  1  0  0  0
  8  9  2  0  0  0
  9 11  1  0  0  0
 11 12  1  0  0  0
 12 13  1  0  0  0
 13 14  2  0  0  0
 14 15  1  0  0  0
 15 16  2  0  0  0
 16 17  1  0  0  0
 17 18  2  0  0  0
  9 10  1  0  0  0
 22 23  2  0  0  0
 23 19  1  0  0  0
 10  5  2  0  0  0
 18 13  1  0  0  0
 29 31  1  0  0  0
 30 32  1  0  0  0
  1  4  1  0  0  0
M  END
> <minimizedAffinity>
-10.20002

$$$$



 32 34  0  0  0  0  0  0  0  0999 V2000
   -0.0061   63.6236   80.7473 N   0  0  0  0  0  0  0  0  0  0  0  0
    0.1448   64.9780   80.9325 C   0  0  0  0  0  0  0  0  0  0  0  0
   -0.0369   65.8746   80.1189 O   0  0  0  0  0  0  0  0  0  0  0  0
    0.1888   63.0351   81.5504 H   0  0  0  0  0  0  0  0  0  0  0  0
    0.5837   65.3143   82.3283 C   0  0  0  0  0  0  0  0  0  0  0  0
    0.1282   64.5644   83.4032 C   0  0  0  0  0  0  0  0  0  0  0  0
    0.5644   64.9158   84.6745 C   0  0  0  0  0  0  0  0  0  0  0  0
    1.4300   65.9967   84.8255 C   0  0  0  0  0  0  0  0  0  0  0  0
    1.8388   66.7097   83.6970 C   0  0  0  0  0  0  0  0  0  0  0  0
    1.4363   66.3750   82.4433 N   0  0  0  0  0  0  0  0  0  0  0  0
    2.7987   67.8740   83.8368 C   0  0  0  0  0  0  0  0  0  0  0  0
    3.5370   67.7424   85.0521 O   0  0  0  0  0  0  0  0  0  0  0  0
    4.7606   67.1370   84.9722 C   0  0  0  0  0  0  0  0  0  0  0  0
    5.9095   67.6752   84.3900 C   0  0  0  0  0  0  0  0  0  0  0  0
    7.0997   66.9407   84.3781 C   0  0  0  0  0  0  0  0  0  0  0  0
    7.1472   65.6692   84.9470 C   0  0  0  0  0  0  0  0  0  0  0  0
    6.0044   65.1289   85.5308 C   0  0  0  0  0  0  0  0  0  0  0  0
    4.8170   65.8623   85.5426 C   0  0  0  0  0  0  0  0  0  0  0  0
   -1.7430   61.8365   78.2493 C   0  0  0  0  0  0  0  0  0  0  0  0
   -0.6147   61.9209   77.4521 C   0  0  0  0  0  0  0  0  0  0  0  0
    0.6285   62.7700   78.2671 S   0  0  0  0  0  0  0  0  0  0  0  0
   -0.3917   62.9678   79.6123 C   0  0  0  0  0  0  0  0  0  0  0  0
   -1.5914   62.4423   79.5000 N   0  0  0  0  0  0  0  0  0  0  0  0
   -3.3522   61.1263   76.4090 C   0  0  0  0  0  0  0  0  0  0  0  0
   -3.0824   61.1861   77.9261 C   0  0  0  0  0  0  0  0  0  0  0  0
   -4.2297   61.9849   78.5763 C   0  0  0  0  0  0  0  0  0  0  0  0
   -3.0910   59.7461   78.4849 C   0  0  0  0  0  0  0  0  0  0  0  0
   -2.1659   58.9441   78.3402 O   0  0  0  0  0  0  0  0  0  0  0  0
   -4.2415   59.3832   79.1590 N   0  0  0  0  0  0  0  0  0  0  0  0
   -4.1779   58.1168   79.7947 O   0  0  0  0  0  0  0  0  0  0  0  0
   -4.7368   60.1155   79.6723 H   0  0  0  0  0  0  0  0  0  0  0  0
   -3.2925   57.7893   79.5217 H   0  0  0  0  0  0  0  0  0  0  0  0
 24 25  1  0  0  0
 25 26  1  0  0  0
 25 27  1  0  0  0
 27 28  2  0  0  0
 27 29  1  0  0  0
 29 30  1  0  0  0
 25 19  1  0  0  0
 19 20  2  0  0  0
 20 21  1  0  0  0
 21 22  1  0  0  0
 22  1  1  0  0  0
  1  2  1  0  0  0
  2  3  2  0  0  0
  2  5  1  0  0  0
  5  6  1  0  0  0
  6  7  2  0  0  0
  7  8  1  0  0  0
  8  9  2  0  0  0
  9 11  1  0  0  0
 11 12  1  0  0  0
 12 13  1  0  0  0
 13 14  2  0  0  0
 14 15  1  0  0  0
 15 16  2  0  0  0
 16 17  1  0  0  0
 17 18  2  0  0  0
  9 10  1  0  0  0
 22 23  2  0  0  0
 23 19  1  0  0  0
 10  5  2  0  0  0
 18 13  1  0  0  0
 29 31  1  0  0  0
 30 32  1  0  0  0
  1  4  1  0  0  0
M  END
> <minimizedAffinity>
-10.10639

$$$$



 32 34  0  0  0  0  0  0  0  0999 V2000
    0.3033   64.2846   81.3887 N   0  0  0  0  0  0  0  0  0  0  0  0
    0.4760   65.0833   82.4949 C   0  0  0  0  0  0  0  0  0  0  0  0
    0.0935   64.8780   83.6396 O   0  0  0  0  0  0  0  0  0  0  0  0
    0.7006   64.6267   80.5201 H   0  0  0  0  0  0  0  0  0  0  0  0
    1.2382   66.3369   82.1762 C   0  0  0  0  0  0  0  0  0  0  0  0
    1.2349   66.8469   80.8858 C   0  0  0  0  0  0  0  0  0  0  0  0
    1.9552   68.0098   80.6428 C   0  0  0  0  0  0  0  0  0  0  0  0
    2.6498   68.6144   81.6879 C   0  0  0  0  0  0  0  0  0  0  0  0
    2.6132   68.0376   82.9588 C   0  0  0  0  0  0  0  0  0  0  0  0
    1.9039   66.9092   83.2223 N   0  0  0  0  0  0  0  0  0  0  0  0
    3.3424   68.6923   84.1147 C   0  0  0  0  0  0  0  0  0  0  0  0
    4.7163   68.3033   84.0959 O   0  0  0  0  0  0  0  0  0  0  0  0
    5.0954   67.3220   84.9697 C   0  0  0  0  0  0  0  0  0  0  0  0
    5.3401   65.9852   84.6514 C   0  0  0  0  0  0  0  0  0  0  0  0
    5.7226   65.0848   85.6510 C   0  0  0  0  0  0  0  0  0  0  0  0
    5.8627   65.5154   86.9692 C   0  0  0  0  0  0  0  0  0  0  0  0
    5.6217   66.8484   87.2914 C   0  0  0  0  0  0  0  0  0  0  0  0
    5.2401   67.7465   86.2934 C   0  0  0  0  0  0  0  0  0  0  0  0
   -1.7785   61.5608   80.5532 C   0  0  0  0  0  0  0  0  0  0  0  0
   -1.1625   60.8274   81.5523 C   0  0  0  0  0  0  0  0  0  0  0  0
    0.0341   61.7708   82.3326 S   0  0  0  0  0  0  0  0  0  0  0  0
   -0.3363   63.0796   81.3130 C   0  0  0  0  0  0  0  0  0  0  0  0
   -1.2913   62.8658   80.4353 N   0  0  0  0  0  0  0  0  0  0  0  0
   -2.8395   61.8838   78.2619 C   0  0  0  0  0  0  0  0  0  0  0  0
   -2.8828   61.1198   79.6006 C   0  0  0  0  0  0  0  0  0  0  0  0
   -4.2639   61.3684   80.2393 C   0  0  0  0  0  0  0  0  0  0  0  0
   -2.7256   59.6105   79.3116 C   0  0  0  0  0  0  0  0  0  0  0  0
   -3.4370   58.7348   79.8087 O   0  0  0  0  0  0  0  0  0  0  0  0
   -1.6931   59.2798   78.4547 N   0  0  0  0  0  0  0  0  0  0  0  0
   -1.6531   57.9125   78.0797 O   0  0  0  0  0  0  0  0  0  0  0  0
   -1.4582   59.9508   77.7200 H   0  0  0  0  0  0  0  0  0  0  0  0
   -2.3869   57.5284   78.6084 H   0  0  0  0  0  0  0  0  0  0  0  0
 24 25  1  0  0  0
 25 26  1  0  0  0
 25 27  1  0  0  0
 27 28  2  0  0  0
 27 29  1  0  0  0
 29 30  1  0  0  0
 25 19  1  0  0  0
 19 20  2  0  0  0
 20 21  1  0  0  0
 21 22  1  0  0  0
 22  1  1  0  0  0
  1  2  1  0  0  0
  2  3  2  0  0  0
  2  5  1  0  0  0
  5  6  1  0  0  0
  6  7  2  0  0  0
  7  8  1  0  0  0
  8  9  2  0  0  0
  9 11  1  0  0  0
 11 12  1  0  0  0
 12 13  1  0  0  0
 13 14  2  0  0  0
 14 15  1  0  0  0
 15 16  2  0  0  0
 16 17  1  0  0  0
 17 18  2  0  0  0
  9 10  1  0  0  0
 22 23  2  0  0  0
 23 19  1  0  0  0
 10  5  2  0  0  0
 18 13  1  0  0  0
 29 31  1  0  0  0
 30 32  1  0  0  0
  1  4  1  0  0  0
M  END
> <minimizedAffinity>
-10.05139

$$$$



 32 34  0  0  0  0  0  0  0  0999 V2000
   -1.3400   62.0243   83.0762 N   0  0  0  0  0  0  0  0  0  0  0  0
   -1.8288   62.1222   84.3580 C   0  0  0  0  0  0  0  0  0  0  0  0
   -2.8680   61.6550   84.8058 O   0  0  0  0  0  0  0  0  0  0  0  0
   -0.4507   62.4789   82.8977 H   0  0  0  0  0  0  0  0  0  0  0  0
   -0.9172   62.9095   85.2542 C   0  0  0  0  0  0  0  0  0  0  0  0
   -0.8128   62.5879   86.6000 C   0  0  0  0  0  0  0  0  0  0  0  0
    0.0450   63.3464   87.3866 C   0  0  0  0  0  0  0  0  0  0  0  0
    0.7593   64.3921   86.8064 C   0  0  0  0  0  0  0  0  0  0  0  0
    0.5957   64.6615   85.4464 C   0  0  0  0  0  0  0  0  0  0  0  0
   -0.2266   63.9240   84.6553 N   0  0  0  0  0  0  0  0  0  0  0  0
    1.3810   65.7794   84.7905 C   0  0  0  0  0  0  0  0  0  0  0  0
    2.6661   65.2954   84.3982 O   0  0  0  0  0  0  0  0  0  0  0  0
    3.7545   65.9922   84.8453 C   0  0  0  0  0  0  0  0  0  0  0  0
    4.1939   67.2284   84.3688 C   0  0  0  0  0  0  0  0  0  0  0  0
    5.3297   67.8294   84.9209 C   0  0  0  0  0  0  0  0  0  0  0  0
    6.0290   67.2000   85.9492 C   0  0  0  0  0  0  0  0  0  0  0  0
    5.5935   65.9678   86.4294 C   0  0  0  0  0  0  0  0  0  0  0  0
    4.4598   65.3684   85.8782 C   0  0  0  0  0  0  0  0  0  0  0  0
   -2.4106   61.0048   79.8723 C   0  0  0  0  0  0  0  0  0  0  0  0
   -3.0675   59.9418   80.4672 C   0  0  0  0  0  0  0  0  0  0  0  0
   -2.8427   59.9767   82.1641 S   0  0  0  0  0  0  0  0  0  0  0  0
   -1.9028   61.3845   82.0081 C   0  0  0  0  0  0  0  0  0  0  0  0
   -1.7480   61.8336   80.7824 N   0  0  0  0  0  0  0  0  0  0  0  0
   -1.3688   62.5332   78.1233 C   0  0  0  0  0  0  0  0  0  0  0  0
   -2.3279   61.3561   78.3920 C   0  0  0  0  0  0  0  0  0  0  0  0
   -3.7205   61.7544   77.8635 C   0  0  0  0  0  0  0  0  0  0  0  0
   -1.8256   60.1229   77.6090 C   0  0  0  0  0  0  0  0  0  0  0  0
   -2.5570   59.3738   76.9579 O   0  0  0  0  0  0  0  0  0  0  0  0
   -0.4681   59.8810   77.6998 N   0  0  0  0  0  0  0  0  0  0  0  0
    0.0029   58.8401   76.8593 O   0  0  0  0  0  0  0  0  0  0  0  0
    0.1488   60.6907   77.7954 H   0  0  0  0  0  0  0  0  0  0  0  0
   -0.8268   58.5097   76.4495 H   0  0  0  0  0  0  0  0  0  0  0  0
 24 25  1  0  0  0
 25 26  1  0  0  0
 25 27  1  0  0  0
 27 28  2  0  0  0
 27 29  1  0  0  0
 29 30  1  0  0  0
 25 19  1  0  0  0
 19 20  2  0  0  0
 20 21  1  0  0  0
 21 22  1  0  0  0
 22  1  1  0  0  0
  1  2  1  0  0  0
  2  3  2  0  0  0
  2  5  1  0  0  0
  5  6  1  0  0  0
  6  7  2  0  0  0
  7  8  1  0  0  0
  8  9  2  0  0  0
  9 11  1  0  0  0
 11 12  1  0  0  0
 12 13  1  0  0  0
 13 14  2  0  0  0
 14 15  1  0  0  0
 15 16  2  0  0  0
 16 17  1  0  0  0
 17 18  2  0  0  0
  9 10  1  0  0  0
 22 23  2  0  0  0
 23 19  1  0  0  0
 10  5  2  0  0  0
 18 13  1  0  0  0
 29 31  1  0  0  0
 30 32  1  0  0  0
  1  4  1  0  0  0
M  END
> <minimizedAffinity>
-10.00125

$$$$



 32 34  0  0  0  0  0  0  0  0999 V2000
    1.3308   65.6423   82.7793 N   0  0  0  0  0  0  0  0  0  0  0  0
    0.9383   65.5693   81.4632 C   0  0  0  0  0  0  0  0  0  0  0  0
    1.2883   66.2825   80.5318 O   0  0  0  0  0  0  0  0  0  0  0  0
    0.9305   64.9532   83.4072 H   0  0  0  0  0  0  0  0  0  0  0  0
   -0.0346   64.4514   81.2225 C   0  0  0  0  0  0  0  0  0  0  0  0
   -0.1901   63.9233   79.9488 C   0  0  0  0  0  0  0  0  0  0  0  0
   -1.1025   62.8895   79.7788 C   0  0  0  0  0  0  0  0  0  0  0  0
   -1.8231   62.4265   80.8773 C   0  0  0  0  0  0  0  0  0  0  0  0
   -1.6186   63.0134   82.1274 C   0  0  0  0  0  0  0  0  0  0  0  0
   -0.7215   64.0155   82.3194 N   0  0  0  0  0  0  0  0  0  0  0  0
   -2.3749   62.5088   83.3397 C   0  0  0  0  0  0  0  0  0  0  0  0
   -1.4643   61.8876   84.2477 O   0  0  0  0  0  0  0  0  0  0  0  0
   -1.3246   62.4658   85.4790 C   0  0  0  0  0  0  0  0  0  0  0  0
   -0.2050   63.1593   85.9412 C   0  0  0  0  0  0  0  0  0  0  0  0
   -0.1985   63.7013   87.2306 C   0  0  0  0  0  0  0  0  0  0  0  0
   -1.3081   63.5537   88.0611 C   0  0  0  0  0  0  0  0  0  0  0  0
   -2.4282   62.8644   87.6039 C   0  0  0  0  0  0  0  0  0  0  0  0
   -2.4342   62.3240   86.3171 C   0  0  0  0  0  0  0  0  0  0  0  0
    3.9778   67.2107   84.5067 C   0  0  0  0  0  0  0  0  0  0  0  0
    3.4337   68.4351   84.1599 C   0  0  0  0  0  0  0  0  0  0  0  0
    2.0118   68.2140   83.2324 S   0  0  0  0  0  0  0  0  0  0  0  0
    2.2003   66.5286   83.3496 C   0  0  0  0  0  0  0  0  0  0  0  0
    3.2445   66.1182   84.0345 N   0  0  0  0  0  0  0  0  0  0  0  0
    5.4594   67.9646   86.4347 C   0  0  0  0  0  0  0  0  0  0  0  0
    5.2415   66.9314   85.3109 C   0  0  0  0  0  0  0  0  0  0  0  0
    6.4762   66.9727   84.3885 C   0  0  0  0  0  0  0  0  0  0  0  0
    5.1340   65.5277   85.9466 C   0  0  0  0  0  0  0  0  0  0  0  0
    5.8148   64.5596   85.6010 O   0  0  0  0  0  0  0  0  0  0  0  0
    4.1835   65.4035   86.9420 N   0  0  0  0  0  0  0  0  0  0  0  0
    4.1978   64.1571   87.6188 O   0  0  0  0  0  0  0  0  0  0  0  0
    4.0010   66.2246   87.5232 H   0  0  0  0  0  0  0  0  0  0  0  0
    4.8903   63.6606   87.1294 H   0  0  0  0  0  0  0  0  0  0  0  0
 24 25  1  0  0  0
 25 26  1  0  0  0
 25 27  1  0  0  0
 27 28  2  0  0  0
 27 29  1  0  0  0
 29 30  1  0  0  0
 25 19  1  0  0  0
 19 20  2  0  0  0
 20 21  1  0  0  0
 21 22  1  0  0  0
 22  1  1  0  0  0
  1  2  1  0  0  0
  2  3  2  0  0  0
  2  5  1  0  0  0
  5  6  1  0  0  0
  6  7  2  0  0  0
  7  8  1  0  0  0
  8  9  2  0  0  0
  9 11  1  0  0  0
 11 12  1  0  0  0
 12 13  1  0  0  0
 13 14  2  0  0  0
 14 15  1  0  0  0
 15 16  2  0  0  0
 16 17  1  0  0  0
 17 18  2  0  0  0
  9 10  1  0  0  0
 22 23  2  0  0  0
 23 19  1  0  0  0
 10  5  2  0  0  0
 18 13  1  0  0  0
 29 31  1  0  0  0
 30 32  1  0  0  0
  1  4  1  0  0  0
M  END
> <minimizedAffinity>
-9.89856

$$$$



 32 34  0  0  0  0  0  0  0  0999 V2000
   -1.4341   61.9089   83.2914 N   0  0  0  0  0  0  0  0  0  0  0  0
   -1.9889   62.0360   84.5434 C   0  0  0  0  0  0  0  0  0  0  0  0
   -3.0759   61.6276   84.9308 O   0  0  0  0  0  0  0  0  0  0  0  0
   -0.5124   62.3135   83.1643 H   0  0  0  0  0  0  0  0  0  0  0  0
   -1.0878   62.7737   85.4910 C   0  0  0  0  0  0  0  0  0  0  0  0
   -1.2386   62.6182   86.8615 C   0  0  0  0  0  0  0  0  0  0  0  0
   -0.3792   63.3222   87.6957 C   0  0  0  0  0  0  0  0  0  0  0  0
    0.5896   64.1517   87.1358 C   0  0  0  0  0  0  0  0  0  0  0  0
    0.6754   64.2641   85.7469 C   0  0  0  0  0  0  0  0  0  0  0  0
   -0.1449   63.5742   84.9120 N   0  0  0  0  0  0  0  0  0  0  0  0
    1.7374   65.1427   85.1169 C   0  0  0  0  0  0  0  0  0  0  0  0
    1.1369   66.3413   84.6247 O   0  0  0  0  0  0  0  0  0  0  0  0
    1.4156   66.6892   83.3319 C   0  0  0  0  0  0  0  0  0  0  0  0
    2.0720   67.8480   82.9140 C   0  0  0  0  0  0  0  0  0  0  0  0
    2.2905   68.0778   81.5518 C   0  0  0  0  0  0  0  0  0  0  0  0
    1.8561   67.1528   80.6040 C   0  0  0  0  0  0  0  0  0  0  0  0
    1.2027   65.9944   81.0160 C   0  0  0  0  0  0  0  0  0  0  0  0
    0.9850   65.7655   82.3755 C   0  0  0  0  0  0  0  0  0  0  0  0
   -2.4428   60.9912   80.0370 C   0  0  0  0  0  0  0  0  0  0  0  0
   -3.0834   59.8922   80.5821 C   0  0  0  0  0  0  0  0  0  0  0  0
   -2.8801   59.8663   82.2818 S   0  0  0  0  0  0  0  0  0  0  0  0
   -1.9695   61.2989   82.1923 C   0  0  0  0  0  0  0  0  0  0  0  0
   -1.8098   61.7983   80.9868 N   0  0  0  0  0  0  0  0  0  0  0  0
   -1.3849   62.5845   78.3569 C   0  0  0  0  0  0  0  0  0  0  0  0
   -2.3498   61.4012   78.5725 C   0  0  0  0  0  0  0  0  0  0  0  0
   -3.7377   61.8256   78.0521 C   0  0  0  0  0  0  0  0  0  0  0  0
   -1.8470   60.1985   77.7437 C   0  0  0  0  0  0  0  0  0  0  0  0
   -2.5838   59.4444   77.1047 O   0  0  0  0  0  0  0  0  0  0  0  0
   -0.4812   59.9905   77.7772 N   0  0  0  0  0  0  0  0  0  0  0  0
   -0.0169   58.9804   76.8964 O   0  0  0  0  0  0  0  0  0  0  0  0
    0.1180   60.8140   77.8670 H   0  0  0  0  0  0  0  0  0  0  0  0
   -0.8532   58.6370   76.5115 H   0  0  0  0  0  0  0  0  0  0  0  0
 24 25  1  0  0  0
 25 26  1  0  0  0
 25 27  1  0  0  0
 27 28  2  0  0  0
 27 29  1  0  0  0
 29 30  1  0  0  0
 25 19  1  0  0  0
 19 20  2  0  0  0
 20 21  1  0  0  0
 21 22  1  0  0  0
 22  1  1  0  0  0
  1  2  1  0  0  0
  2  3  2  0  0  0
  2  5  1  0  0  0
  5  6  1  0  0  0
  6  7  2  0  0  0
  7  8  1  0  0  0
  8  9  2  0  0  0
  9 11  1  0  0  0
 11 12  1  0  0  0
 12 13  1  0  0  0
 13 14  2  0  0  0
 14 15  1  0  0  0
 15 16  2  0  0  0
 16 17  1  0  0  0
 17 18  2  0  0  0
  9 10  1  0  0  0
 22 23  2  0  0  0
 23 19  1  0  0  0
 10  5  2  0  0  0
 18 13  1  0  0  0
 29 31  1  0  0  0
 30 32  1  0  0  0
  1  4  1  0  0  0
M  END
> <minimizedAffinity>
-9.86321

$$$$



 32 34  0  0  0  0  0  0  0  0999 V2000
    0.3586   64.4517   80.8050 N   0  0  0  0  0  0  0  0  0  0  0  0
    0.7695   65.4288   79.9287 C   0  0  0  0  0  0  0  0  0  0  0  0
    0.6998   65.4226   78.7065 O   0  0  0  0  0  0  0  0  0  0  0  0
    0.4975   64.6445   81.7914 H   0  0  0  0  0  0  0  0  0  0  0  0
    1.3600   66.6139   80.6365 C   0  0  0  0  0  0  0  0  0  0  0  0
    1.7160   67.7483   79.9211 C   0  0  0  0  0  0  0  0  0  0  0  0
    2.2576   68.8180   80.6228 C   0  0  0  0  0  0  0  0  0  0  0  0
    2.4257   68.7159   82.0019 C   0  0  0  0  0  0  0  0  0  0  0  0
    2.0516   67.5385   82.6521 C   0  0  0  0  0  0  0  0  0  0  0  0
    1.5070   66.4856   81.9882 N   0  0  0  0  0  0  0  0  0  0  0  0
    2.2041   67.4156   84.1548 C   0  0  0  0  0  0  0  0  0  0  0  0
    3.4435   67.9984   84.5594 O   0  0  0  0  0  0  0  0  0  0  0  0
    4.4912   67.1450   84.7693 C   0  0  0  0  0  0  0  0  0  0  0  0
    4.4102   65.8556   85.2976 C   0  0  0  0  0  0  0  0  0  0  0  0
    5.5693   65.0897   85.4592 C   0  0  0  0  0  0  0  0  0  0  0  0
    6.8108   65.6072   85.0939 C   0  0  0  0  0  0  0  0  0  0  0  0
    6.8966   66.8921   84.5646 C   0  0  0  0  0  0  0  0  0  0  0  0
    5.7396   67.6560   84.4034 C   0  0  0  0  0  0  0  0  0  0  0  0
   -1.7839   61.8451   79.7727 C   0  0  0  0  0  0  0  0  0  0  0  0
   -0.8198   60.9382   80.1770 C   0  0  0  0  0  0  0  0  0  0  0  0
    0.5439   61.7594   80.8071 S   0  0  0  0  0  0  0  0  0  0  0  0
   -0.2202   63.2491   80.5125 C   0  0  0  0  0  0  0  0  0  0  0  0
   -1.4210   63.1787   79.9824 N   0  0  0  0  0  0  0  0  0  0  0  0
   -3.3152   62.2684   77.7837 C   0  0  0  0  0  0  0  0  0  0  0  0
   -3.1428   61.5629   79.1439 C   0  0  0  0  0  0  0  0  0  0  0  0
   -4.2695   62.0545   80.0745 C   0  0  0  0  0  0  0  0  0  0  0  0
   -3.2930   60.0403   78.9315 C   0  0  0  0  0  0  0  0  0  0  0  0
   -2.8302   59.4292   77.9658 O   0  0  0  0  0  0  0  0  0  0  0  0
   -4.0200   59.3793   79.9031 N   0  0  0  0  0  0  0  0  0  0  0  0
   -4.0234   57.9665   79.7782 O   0  0  0  0  0  0  0  0  0  0  0  0
   -3.9691   59.7425   80.8574 H   0  0  0  0  0  0  0  0  0  0  0  0
   -3.5192   57.8282   78.9462 H   0  0  0  0  0  0  0  0  0  0  0  0
 24 25  1  0  0  0
 25 26  1  0  0  0
 25 27  1  0  0  0
 27 28  2  0  0  0
 27 29  1  0  0  0
 29 30  1  0  0  0
 25 19  1  0  0  0
 19 20  2  0  0  0
 20 21  1  0  0  0
 21 22  1  0  0  0
 22  1  1  0  0  0
  1  2  1  0  0  0
  2  3  2  0  0  0
  2  5  1  0  0  0
  5  6  1  0  0  0
  6  7  2  0  0  0
  7  8  1  0  0  0
  8  9  2  0  0  0
  9 11  1  0  0  0
 11 12  1  0  0  0
 12 13  1  0  0  0
 13 14  2  0  0  0
 14 15  1  0  0  0
 15 16  2  0  0  0
 16 17  1  0  0  0
 17 18  2  0  0  0
  9 10  1  0  0  0
 22 23  2  0  0  0
 23 19  1  0  0  0
 10  5  2  0  0  0
 18 13  1  0  0  0
 29 31  1  0  0  0
 30 32  1  0  0  0
  1  4  1  0  0  0
M  END
> <minimizedAffinity>
-9.80282

$$$$



 32 34  0  0  0  0  0  0  0  0999 V2000
   -0.0695   64.0515   79.6362 N   0  0  0  0  0  0  0  0  0  0  0  0
   -0.6035   64.3293   80.8728 C   0  0  0  0  0  0  0  0  0  0  0  0
   -1.6974   63.9995   81.3125 O   0  0  0  0  0  0  0  0  0  0  0  0
    0.8624   64.4106   79.4574 H   0  0  0  0  0  0  0  0  0  0  0  0
    0.3324   65.1347   81.7270 C   0  0  0  0  0  0  0  0  0  0  0  0
    1.2235   66.0222   81.1410 C   0  0  0  0  0  0  0  0  0  0  0  0
    2.0677   66.7443   81.9752 C   0  0  0  0  0  0  0  0  0  0  0  0
    1.9944   66.5531   83.3530 C   0  0  0  0  0  0  0  0  0  0  0  0
    1.0775   65.6356   83.8693 C   0  0  0  0  0  0  0  0  0  0  0  0
    0.2327   64.9293   83.0734 N   0  0  0  0  0  0  0  0  0  0  0  0
    0.9652   65.4298   85.3665 C   0  0  0  0  0  0  0  0  0  0  0  0
    0.9214   64.0319   85.6556 O   0  0  0  0  0  0  0  0  0  0  0  0
   -0.2280   63.5506   86.2189 C   0  0  0  0  0  0  0  0  0  0  0  0
   -1.2793   62.9295   85.5426 C   0  0  0  0  0  0  0  0  0  0  0  0
   -2.4016   62.4842   86.2486 C   0  0  0  0  0  0  0  0  0  0  0  0
   -2.4776   62.6563   87.6296 C   0  0  0  0  0  0  0  0  0  0  0  0
   -1.4306   63.2734   88.3090 C   0  0  0  0  0  0  0  0  0  0  0  0
   -0.3108   63.7175   87.6041 C   0  0  0  0  0  0  0  0  0  0  0  0
   -1.6385   61.6270   77.6088 C   0  0  0  0  0  0  0  0  0  0  0  0
   -1.5392   62.5036   76.5424 C   0  0  0  0  0  0  0  0  0  0  0  0
   -0.7875   63.9602   77.0365 S   0  0  0  0  0  0  0  0  0  0  0  0
   -0.6380   63.3451   78.6141 C   0  0  0  0  0  0  0  0  0  0  0  0
   -1.1038   62.1298   78.7986 N   0  0  0  0  0  0  0  0  0  0  0  0
   -1.1731   59.1243   77.5972 C   0  0  0  0  0  0  0  0  0  0  0  0
   -2.2470   60.2303   77.6310 C   0  0  0  0  0  0  0  0  0  0  0  0
   -3.1641   60.0325   76.4075 C   0  0  0  0  0  0  0  0  0  0  0  0
   -3.0832   60.0656   78.9194 C   0  0  0  0  0  0  0  0  0  0  0  0
   -4.1101   60.7033   79.1618 O   0  0  0  0  0  0  0  0  0  0  0  0
   -2.5885   59.1507   79.8292 N   0  0  0  0  0  0  0  0  0  0  0  0
   -3.4405   58.8988   80.9348 O   0  0  0  0  0  0  0  0  0  0  0  0
   -2.0893   58.3399   79.4570 H   0  0  0  0  0  0  0  0  0  0  0  0
   -4.1807   59.5253   80.7763 H   0  0  0  0  0  0  0  0  0  0  0  0
 24 25  1  0  0  0
 25 26  1  0  0  0
 25 27  1  0  0  0
 27 28  2  0  0  0
 27 29  1  0  0  0
 29 30  1  0  0  0
 25 19  1  0  0  0
 19 20  2  0  0  0
 20 21  1  0  0  0
 21 22  1  0  0  0
 22  1  1  0  0  0
  1  2  1  0  0  0
  2  3  2  0  0  0
  2  5  1  0  0  0
  5  6  1  0  0  0
  6  7  2  0  0  0
  7  8  1  0  0  0
  8  9  2  0  0  0
  9 11  1  0  0  0
 11 12  1  0  0  0
 12 13  1  0  0  0
 13 14  2  0  0  0
 14 15  1  0  0  0
 15 16  2  0  0  0
 16 17  1  0  0  0
 17 18  2  0  0  0
  9 10  1  0  0  0
 22 23  2  0  0  0
 23 19  1  0  0  0
 10  5  2  0  0  0
 18 13  1  0  0  0
 29 31  1  0  0  0
 30 32  1  0  0  0
  1  4  1  0  0  0
M  END
> <minimizedAffinity>
-9.76623

$$$$
