
     RDKit          3D

 60 64  0  0  0  0  0  0  0  0999 V2000
   -0.9613    1.3550   -4.0043 C   0  0  0  0  0  0  0  0  0  0  0  0
   -0.5892    1.7825   -2.5920 C   0  0  0  0  0  0  0  0  0  0  0  0
   -0.3818    0.6347   -1.7186 N   0  0  0  0  0  0  0  0  0  0  0  0
    0.8948    0.0564   -1.6594 C   0  0  0  0  0  0  0  0  0  0  0  0
    1.8613    0.4808   -2.2877 O   0  0  0  0  0  0  0  0  0  0  0  0
    0.9598   -1.1068   -0.8203 C   0  0  0  0  0  0  0  0  0  0  0  0
   -0.1186   -1.6063   -0.1401 C   0  0  0  0  0  0  0  0  0  0  0  0
    0.1663   -2.7423    0.5417 N   0  0  0  0  0  0  0  0  0  0  0  0
    1.4458   -2.9433    0.2994 C   0  0  0  0  0  0  0  0  0  0  0  0
    2.1720   -3.9603    0.7559 O   0  0  0  0  0  0  0  0  0  0  0  0
    1.4630   -4.8503    1.6109 C   0  0  0  0  0  0  0  0  0  0  0  0
    1.9826   -1.9628   -0.5064 N   0  0  0  0  0  0  0  0  0  0  0  0
    3.3607   -1.9059   -0.9594 C   0  0  0  0  0  0  0  0  0  0  0  0
    4.2228   -1.1018   -0.0165 C   0  0  0  0  0  0  0  0  0  0  0  0
    4.5202    0.2403   -0.2824 C   0  0  0  0  0  0  0  0  0  0  0  0
    5.3073    0.9925    0.5989 C   0  0  0  0  0  0  0  0  0  0  0  0
    5.8151    0.4182    1.7676 C   0  0  0  0  0  0  0  0  0  0  0  0
    6.5924    1.0771    2.6838 O   0  0  0  0  0  0  0  0  0  0  0  0
    6.8787    2.4479    2.4421 C   0  0  0  0  0  0  0  0  0  0  0  0
    5.5200   -0.9271    2.0355 C   0  0  0  0  0  0  0  0  0  0  0  0
    6.1106   -1.7146    3.4587 Cl  0  0  0  0  0  0  0  0  0  0  0  0
    4.7334   -1.6784    1.1546 C   0  0  0  0  0  0  0  0  0  0  0  0
   -1.2968   -0.9887   -0.1998 N   0  0  0  0  0  0  0  0  0  0  0  0
   -2.5595   -1.4930    0.2388 C   0  0  0  0  0  0  0  0  0  0  0  0
   -3.4935   -0.3472   -0.2281 C   0  0  1  0  0  0  0  0  0  0  0  0
   -4.0070    0.4842    0.9593 C   0  0  0  0  0  0  0  0  0  0  0  0
   -5.1851    1.3623    0.6021 C   0  0  0  0  0  0  0  0  0  0  0  0
   -6.4900    0.9764    0.9391 C   0  0  0  0  0  0  0  0  0  0  0  0
   -7.5766    1.7868    0.6045 C   0  0  0  0  0  0  0  0  0  0  0  0
   -7.3707    2.9875   -0.0721 C   0  0  0  0  0  0  0  0  0  0  0  0
   -6.0783    3.3784   -0.4161 C   0  0  0  0  0  0  0  0  0  0  0  0
   -4.9912    2.5699   -0.0812 C   0  0  0  0  0  0  0  0  0  0  0  0
   -2.6769    0.5329   -1.1506 N   0  0  0  0  0  0  0  0  0  0  0  0
   -1.4554    0.0793   -1.0344 C   0  0  0  0  0  0  0  0  0  0  0  0
   -1.8861    0.7691   -4.0098 H   0  0  0  0  0  0  0  0  0  0  0  0
   -1.1089    2.2330   -4.6405 H   0  0  0  0  0  0  0  0  0  0  0  0
   -0.1738    0.7382   -4.4496 H   0  0  0  0  0  0  0  0  0  0  0  0
    0.3264    2.3838   -2.6241 H   0  0  0  0  0  0  0  0  0  0  0  0
   -1.3799    2.4197   -2.1808 H   0  0  0  0  0  0  0  0  0  0  0  0
    1.1014   -4.3305    2.5049 H   0  0  0  0  0  0  0  0  0  0  0  0
    0.6319   -5.3261    1.0790 H   0  0  0  0  0  0  0  0  0  0  0  0
    2.1551   -5.6348    1.9309 H   0  0  0  0  0  0  0  0  0  0  0  0
    3.7405   -2.9311   -1.0433 H   0  0  0  0  0  0  0  0  0  0  0  0
    3.3795   -1.4929   -1.9730 H   0  0  0  0  0  0  0  0  0  0  0  0
    4.1415    0.7205   -1.1841 H   0  0  0  0  0  0  0  0  0  0  0  0
    5.5027    2.0277    0.3378 H   0  0  0  0  0  0  0  0  0  0  0  0
    7.4919    2.8126    3.2718 H   0  0  0  0  0  0  0  0  0  0  0  0
    7.4574    2.5734    1.5211 H   0  0  0  0  0  0  0  0  0  0  0  0
    5.9614    3.0453    2.4191 H   0  0  0  0  0  0  0  0  0  0  0  0
    4.5191   -2.7192    1.3892 H   0  0  0  0  0  0  0  0  0  0  0  0
   -2.8127   -2.4223   -0.2844 H   0  0  0  0  0  0  0  0  0  0  0  0
   -2.5947   -1.6695    1.3185 H   0  0  0  0  0  0  0  0  0  0  0  0
   -4.3329   -0.7692   -0.7944 H   0  0  0  0  0  0  0  0  0  0  0  0
   -3.2060    1.1117    1.3714 H   0  0  0  0  0  0  0  0  0  0  0  0
   -4.3137   -0.1857    1.7730 H   0  0  0  0  0  0  0  0  0  0  0  0
   -6.6709    0.0428    1.4660 H   0  0  0  0  0  0  0  0  0  0  0  0
   -8.5846    1.4805    0.8711 H   0  0  0  0  0  0  0  0  0  0  0  0
   -8.2167    3.6170   -0.3340 H   0  0  0  0  0  0  0  0  0  0  0  0
   -5.9149    4.3111   -0.9490 H   0  0  0  0  0  0  0  0  0  0  0  0
   -3.9876    2.8806   -0.3645 H   0  0  0  0  0  0  0  0  0  0  0  0
  1  2  1  0
  2  3  1  0
  3  4  1  0
  4  5  2  0
  4  6  1  0
  6  7  2  0
  7  8  1  0
  8  9  2  0
  9 10  1  0
 10 11  1  0
  9 12  1  0
 12 13  1  0
 13 14  1  0
 14 15  1  0
 15 16  2  0
 16 17  1  0
 17 18  1  0
 18 19  1  0
 17 20  2  0
 20 21  1  0
 20 22  1  0
  7 23  1  0
 23 24  1  0
 24 25  1  0
 25 26  1  0
 26 27  1  0
 27 28  2  0
 28 29  1  0
 29 30  2  0
 30 31  1  0
 31 32  2  0
 25 33  1  0
 33 34  2  0
 34  3  1  0
 12  6  1  0
 22 14  2  0
 34 23  1  0
 32 27  1  0
  1 35  1  0
  1 36  1  0
  1 37  1  0
  2 38  1  0
  2 39  1  0
 11 40  1  0
 11 41  1  0
 11 42  1  0
 13 43  1  0
 13 44  1  0
 15 45  1  0
 16 46  1  0
 19 47  1  0
 19 48  1  0
 19 49  1  0
 22 50  1  0
 24 51  1  0
 24 52  1  0
 25 53  1  6
 26 54  1  0
 26 55  1  0
 28 56  1  0
 29 57  1  0
 30 58  1  0
 31 59  1  0
 32 60  1  0
M  END
$$$$
