


 36 40  0  0  0  0  0  0  0  0999 V2000
    1.6534   66.3626   80.5959 C   0  0  0  0  0  0  0  0  0  0  0  0
    1.6741   66.5066   79.1996 C   0  0  0  0  0  0  0  0  0  0  0  0
    1.0251   65.5828   78.3790 C   0  0  0  0  0  0  0  0  0  0  0  0
    0.3523   64.5074   78.9539 C   0  0  0  0  0  0  0  0  0  0  0  0
    0.3269   64.3440   80.3398 C   0  0  0  0  0  0  0  0  0  0  0  0
    0.9637   65.2758   81.1869 C   0  0  0  0  0  0  0  0  0  0  0  0
    0.8914   65.0815   82.6456 C   0  0  0  0  0  0  0  0  0  0  0  0
    1.8862   65.6472   83.3725 N   0  0  0  0  0  0  0  0  0  0  0  0
    1.8649   65.4619   84.7021 C   0  0  0  0  0  0  0  0  0  0  0  0
    2.8841   66.0672   85.3815 O   0  0  0  0  0  0  0  0  0  0  0  0
    0.8720   64.7044   85.3140 C   0  0  0  0  0  0  0  0  0  0  0  0
    0.6150   64.3608   86.6195 N   0  0  0  0  0  0  0  0  0  0  0  0
   -0.4738   63.6216   86.5681 C   0  0  0  0  0  0  0  0  0  0  0  0
   -1.2041   62.9894   87.6122 C   0  0  0  0  0  0  0  0  0  0  0  0
   -2.3049   62.2741   87.3205 C   0  0  0  0  0  0  0  0  0  0  0  0
   -2.7756   62.1274   85.9543 C   0  0  0  0  0  0  0  0  0  0  0  0
   -2.1023   62.7156   84.9430 C   0  0  0  0  0  0  0  0  0  0  0  0
   -2.5473   62.5969   83.5164 C   0  0  0  0  0  0  0  0  0  0  0  0
   -0.9478   63.4627   85.2608 N   0  0  0  0  0  0  0  0  0  0  0  0
   -0.0709   64.1628   84.4540 C   0  0  0  0  0  0  0  0  0  0  0  0
   -0.1058   64.3016   83.1144 N   0  0  0  0  0  0  0  0  0  0  0  0
    3.3618   66.4993   84.6529 H   0  0  0  0  0  0  0  0  0  0  0  0
   -0.4579   63.3339   77.8961 S   0  0  0  0  0  0  0  0  0  0  0  0
   -1.4053   64.0732   77.0900 O   0  0  0  0  0  0  0  0  0  0  0  0
    0.5462   62.4830   77.2938 O   0  0  0  0  0  0  0  0  0  0  0  0
   -1.3316   62.3847   79.0097 N   0  0  0  0  0  0  0  0  0  0  0  0
   -0.8335   60.9837   79.2070 C   0  0  0  0  0  0  0  0  0  0  0  0
   -1.7782   59.9405   78.5829 C   0  0  0  0  0  0  0  0  0  0  0  0
   -3.1601   59.9686   79.1100 N   0  0  0  0  0  0  0  0  0  0  0  0
   -3.5310   61.3272   79.5644 C   0  0  0  0  0  0  0  0  0  0  0  0
   -2.8137   62.4464   78.7880 C   0  0  0  0  0  0  0  0  0  0  0  0
   -3.3661   58.9564   80.1543 C   0  0  0  0  0  0  0  0  0  0  0  0
   -3.0676   59.4792   81.5559 C   0  0  0  0  0  0  0  0  0  0  0  0
    2.3015   67.2133   81.4563 O   0  0  0  0  0  0  0  0  0  0  0  0
    0.8942   69.1149   81.7185 C   0  0  0  0  0  0  0  0  0  0  0  0
    2.2325   68.6145   81.2054 C   0  0  0  0  0  0  0  0  0  0  0  0
 35 36  1  0  0  0
 36 34  1  0  0  0
 34  1  1  0  0  0
  1  2  1  0  0  0
  2  3  2  0  0  0
  3  4  1  0  0  0
  4 23  1  0  0  0
 23 24  2  0  0  0
 23 25  2  0  0  0
 23 26  1  0  0  0
 26 27  1  0  0  0
 27 28  1  0  0  0
 28 29  1  0  0  0
 29 32  1  0  0  0
 32 33  1  0  0  0
 29 30  1  0  0  0
 30 31  1  0  0  0
  4  5  2  0  0  0
  5  6  1  0  0  0
  6  7  1  0  0  0
  7  8  2  0  0  0
  8  9  1  0  0  0
  9 10  1  0  0  0
  9 11  2  0  0  0
 11 12  1  0  0  0
 12 13  2  0  0  0
 13 14  1  0  0  0
 14 15  2  0  0  0
 15 16  1  0  0  0
 16 17  2  0  0  0
 17 18  1  0  0  0
 17 19  1  0  0  0
 19 20  1  0  0  0
 20 21  2  0  0  0
  6  1  2  0  0  0
 21  7  1  0  0  0
 31 26  1  0  0  0
 20 11  1  0  0  0
 19 13  1  0  0  0
 10 22  1  0  0  0
M  END
> <minimizedAffinity>
-10.49269

$$$$



 36 40  0  0  0  0  0  0  0  0999 V2000
   -0.2242   63.0425   85.4406 C   0  0  0  0  0  0  0  0  0  0  0  0
    0.4426   63.9315   86.2984 C   0  0  0  0  0  0  0  0  0  0  0  0
    1.0795   65.0657   85.7927 C   0  0  0  0  0  0  0  0  0  0  0  0
    1.0529   65.3147   84.4226 C   0  0  0  0  0  0  0  0  0  0  0  0
    0.4009   64.4383   83.5538 C   0  0  0  0  0  0  0  0  0  0  0  0
   -0.2620   63.2947   84.0474 C   0  0  0  0  0  0  0  0  0  0  0  0
   -0.9607   62.4087   83.0998 C   0  0  0  0  0  0  0  0  0  0  0  0
   -1.9205   61.6098   83.6274 N   0  0  0  0  0  0  0  0  0  0  0  0
   -2.5540   60.7689   82.7942 C   0  0  0  0  0  0  0  0  0  0  0  0
   -3.5196   60.0004   83.3806 O   0  0  0  0  0  0  0  0  0  0  0  0
   -2.2298   60.7033   81.4434 C   0  0  0  0  0  0  0  0  0  0  0  0
   -2.7038   59.9547   80.3931 N   0  0  0  0  0  0  0  0  0  0  0  0
   -1.9956   60.3429   79.3526 C   0  0  0  0  0  0  0  0  0  0  0  0
   -2.0471   59.9164   77.9966 C   0  0  0  0  0  0  0  0  0  0  0  0
   -1.2156   60.4622   77.0916 C   0  0  0  0  0  0  0  0  0  0  0  0
   -0.2557   61.4871   77.4629 C   0  0  0  0  0  0  0  0  0  0  0  0
   -0.1839   61.9109   78.7424 C   0  0  0  0  0  0  0  0  0  0  0  0
    0.7871   62.9672   79.1769 C   0  0  0  0  0  0  0  0  0  0  0  0
   -1.0605   61.3301   79.6838 N   0  0  0  0  0  0  0  0  0  0  0  0
   -1.2148   61.5563   81.0385 C   0  0  0  0  0  0  0  0  0  0  0  0
   -0.5336   62.4174   81.8192 N   0  0  0  0  0  0  0  0  0  0  0  0
   -3.4739   60.3146   84.2998 H   0  0  0  0  0  0  0  0  0  0  0  0
    1.8784   66.7551   83.7933 S   0  0  0  0  0  0  0  0  0  0  0  0
    1.5431   66.8563   82.3892 O   0  0  0  0  0  0  0  0  0  0  0  0
    1.6515   67.8549   84.7065 O   0  0  0  0  0  0  0  0  0  0  0  0
    3.5203   66.3161   83.9191 N   0  0  0  0  0  0  0  0  0  0  0  0
    3.8687   65.4081   85.0610 C   0  0  0  0  0  0  0  0  0  0  0  0
    4.6623   66.1385   86.1597 C   0  0  0  0  0  0  0  0  0  0  0  0
    5.9346   66.7396   85.7033 N   0  0  0  0  0  0  0  0  0  0  0  0
    5.8650   67.1162   84.2739 C   0  0  0  0  0  0  0  0  0  0  0  0
    4.4455   67.4917   83.8111 C   0  0  0  0  0  0  0  0  0  0  0  0
    7.0833   65.8720   85.9953 C   0  0  0  0  0  0  0  0  0  0  0  0
    8.1387   65.8923   84.8941 C   0  0  0  0  0  0  0  0  0  0  0  0
   -0.8376   61.8914   85.8683 O   0  0  0  0  0  0  0  0  0  0  0  0
   -2.7481   62.6301   87.0805 C   0  0  0  0  0  0  0  0  0  0  0  0
   -1.4310   61.8798   87.1640 C   0  0  0  0  0  0  0  0  0  0  0  0
 35 36  1  0  0  0
 36 34  1  0  0  0
 34  1  1  0  0  0
  1  2  1  0  0  0
  2  3  2  0  0  0
  3  4  1  0  0  0
  4 23  1  0  0  0
 23 24  2  0  0  0
 23 25  2  0  0  0
 23 26  1  0  0  0
 26 27  1  0  0  0
 27 28  1  0  0  0
 28 29  1  0  0  0
 29 32  1  0  0  0
 32 33  1  0  0  0
 29 30  1  0  0  0
 30 31  1  0  0  0
  4  5  2  0  0  0
  5  6  1  0  0  0
  6  7  1  0  0  0
  7  8  2  0  0  0
  8  9  1  0  0  0
  9 10  1  0  0  0
  9 11  2  0  0  0
 11 12  1  0  0  0
 12 13  2  0  0  0
 13 14  1  0  0  0
 14 15  2  0  0  0
 15 16  1  0  0  0
 16 17  2  0  0  0
 17 18  1  0  0  0
 17 19  1  0  0  0
 19 20  1  0  0  0
 20 21  2  0  0  0
  6  1  2  0  0  0
 21  7  1  0  0  0
 31 26  1  0  0  0
 20 11  1  0  0  0
 19 13  1  0  0  0
 10 22  1  0  0  0
M  END
> <minimizedAffinity>
-10.26219

$$$$



 36 40  0  0  0  0  0  0  0  0999 V2000
   -0.4532   63.6371   84.5495 C   0  0  0  0  0  0  0  0  0  0  0  0
    0.3371   64.5812   85.2238 C   0  0  0  0  0  0  0  0  0  0  0  0
    1.0948   65.5131   84.5129 C   0  0  0  0  0  0  0  0  0  0  0  0
    1.0657   65.5029   83.1205 C   0  0  0  0  0  0  0  0  0  0  0  0
    0.2914   64.5672   82.4328 C   0  0  0  0  0  0  0  0  0  0  0  0
   -0.4936   63.6271   83.1337 C   0  0  0  0  0  0  0  0  0  0  0  0
   -1.3173   62.6731   82.3706 C   0  0  0  0  0  0  0  0  0  0  0  0
   -1.9678   61.7319   83.0981 N   0  0  0  0  0  0  0  0  0  0  0  0
   -2.7022   60.8291   82.4285 C   0  0  0  0  0  0  0  0  0  0  0  0
   -3.3448   59.9159   83.2158 O   0  0  0  0  0  0  0  0  0  0  0  0
   -2.7821   60.8434   81.0402 C   0  0  0  0  0  0  0  0  0  0  0  0
   -3.4410   60.0601   80.1235 N   0  0  0  0  0  0  0  0  0  0  0  0
   -3.1255   60.5710   78.9512 C   0  0  0  0  0  0  0  0  0  0  0  0
   -3.5158   60.1744   77.6421 C   0  0  0  0  0  0  0  0  0  0  0  0
   -3.0644   60.8558   76.5742 C   0  0  0  0  0  0  0  0  0  0  0  0
   -2.1801   61.9987   76.7206 C   0  0  0  0  0  0  0  0  0  0  0  0
   -1.7926   62.3974   77.9506 C   0  0  0  0  0  0  0  0  0  0  0  0
   -0.8834   63.5715   78.1562 C   0  0  0  0  0  0  0  0  0  0  0  0
   -2.2715   61.6741   79.0639 N   0  0  0  0  0  0  0  0  0  0  0  0
   -2.0505   61.8430   80.4177 C   0  0  0  0  0  0  0  0  0  0  0  0
   -1.2890   62.7740   81.0247 N   0  0  0  0  0  0  0  0  0  0  0  0
   -3.0733   60.2111   84.1017 H   0  0  0  0  0  0  0  0  0  0  0  0
    2.0447   66.6868   82.2303 S   0  0  0  0  0  0  0  0  0  0  0  0
    3.2286   66.9397   83.0231 O   0  0  0  0  0  0  0  0  0  0  0  0
    2.1352   66.2670   80.8480 O   0  0  0  0  0  0  0  0  0  0  0  0
    1.0630   68.0790   82.2789 N   0  0  0  0  0  0  0  0  0  0  0  0
    0.0760   68.2225   81.1586 C   0  0  0  0  0  0  0  0  0  0  0  0
    0.4725   69.3413   80.1780 C   0  0  0  0  0  0  0  0  0  0  0  0
    0.6018   70.6807   80.7924 N   0  0  0  0  0  0  0  0  0  0  0  0
    0.9975   70.5800   82.2147 C   0  0  0  0  0  0  0  0  0  0  0  0
    1.8469   69.3339   82.5242 C   0  0  0  0  0  0  0  0  0  0  0  0
   -0.6134   71.4849   80.6079 C   0  0  0  0  0  0  0  0  0  0  0  0
   -0.8096   72.5258   81.7056 C   0  0  0  0  0  0  0  0  0  0  0  0
   -1.1914   62.6712   85.1868 O   0  0  0  0  0  0  0  0  0  0  0  0
   -2.6872   62.9506   87.0171 C   0  0  0  0  0  0  0  0  0  0  0  0
   -1.2479   62.6897   86.6107 C   0  0  0  0  0  0  0  0  0  0  0  0
 35 36  1  0  0  0
 36 34  1  0  0  0
 34  1  1  0  0  0
  1  2  1  0  0  0
  2  3  2  0  0  0
  3  4  1  0  0  0
  4 23  1  0  0  0
 23 24  2  0  0  0
 23 25  2  0  0  0
 23 26  1  0  0  0
 26 27  1  0  0  0
 27 28  1  0  0  0
 28 29  1  0  0  0
 29 32  1  0  0  0
 32 33  1  0  0  0
 29 30  1  0  0  0
 30 31  1  0  0  0
  4  5  2  0  0  0
  5  6  1  0  0  0
  6  7  1  0  0  0
  7  8  2  0  0  0
  8  9  1  0  0  0
  9 10  1  0  0  0
  9 11  2  0  0  0
 11 12  1  0  0  0
 12 13  2  0  0  0
 13 14  1  0  0  0
 14 15  2  0  0  0
 15 16  1  0  0  0
 16 17  2  0  0  0
 17 18  1  0  0  0
 17 19  1  0  0  0
 19 20  1  0  0  0
 20 21  2  0  0  0
  6  1  2  0  0  0
 21  7  1  0  0  0
 31 26  1  0  0  0
 20 11  1  0  0  0
 19 13  1  0  0  0
 10 22  1  0  0  0
M  END
> <minimizedAffinity>
-10.24861

$$$$



 36 40  0  0  0  0  0  0  0  0999 V2000
    0.1185   63.9374   85.1563 C   0  0  0  0  0  0  0  0  0  0  0  0
   -0.6404   62.7565   85.1693 C   0  0  0  0  0  0  0  0  0  0  0  0
   -0.7466   61.9659   84.0240 C   0  0  0  0  0  0  0  0  0  0  0  0
   -0.0932   62.3559   82.8575 C   0  0  0  0  0  0  0  0  0  0  0  0
    0.6600   63.5304   82.8238 C   0  0  0  0  0  0  0  0  0  0  0  0
    0.7923   64.3349   83.9755 C   0  0  0  0  0  0  0  0  0  0  0  0
    1.6177   65.5534   83.9055 C   0  0  0  0  0  0  0  0  0  0  0  0
    2.6354   65.6362   84.7973 N   0  0  0  0  0  0  0  0  0  0  0  0
    3.3869   66.7487   84.7787 C   0  0  0  0  0  0  0  0  0  0  0  0
    4.4048   66.7679   85.6899 O   0  0  0  0  0  0  0  0  0  0  0  0
    3.1248   67.7875   83.8920 C   0  0  0  0  0  0  0  0  0  0  0  0
    3.7165   69.0064   83.6630 N   0  0  0  0  0  0  0  0  0  0  0  0
    3.0125   69.5482   82.6906 C   0  0  0  0  0  0  0  0  0  0  0  0
    3.1622   70.8035   82.0385 C   0  0  0  0  0  0  0  0  0  0  0  0
    2.3137   71.1519   81.0551 C   0  0  0  0  0  0  0  0  0  0  0  0
    1.2366   70.2730   80.6343 C   0  0  0  0  0  0  0  0  0  0  0  0
    1.0699   69.0761   81.2356 C   0  0  0  0  0  0  0  0  0  0  0  0
   -0.0240   68.1316   80.8373 C   0  0  0  0  0  0  0  0  0  0  0  0
    1.9656   68.7216   82.2671 N   0  0  0  0  0  0  0  0  0  0  0  0
    2.0416   67.5856   83.0506 C   0  0  0  0  0  0  0  0  0  0  0  0
    1.2428   66.5012   83.0203 N   0  0  0  0  0  0  0  0  0  0  0  0
    4.2899   65.9007   86.1146 H   0  0  0  0  0  0  0  0  0  0  0  0
   -0.2481   61.3461   81.4054 S   0  0  0  0  0  0  0  0  0  0  0  0
    1.0427   60.7336   81.1754 O   0  0  0  0  0  0  0  0  0  0  0  0
   -1.4528   60.5521   81.5199 O   0  0  0  0  0  0  0  0  0  0  0  0
   -0.5134   62.5051   80.1844 N   0  0  0  0  0  0  0  0  0  0  0  0
   -1.8842   62.5111   79.5754 C   0  0  0  0  0  0  0  0  0  0  0  0
   -1.8805   61.9632   78.1367 C   0  0  0  0  0  0  0  0  0  0  0  0
   -1.0058   62.7012   77.1994 N   0  0  0  0  0  0  0  0  0  0  0  0
    0.1401   63.3135   77.9078 C   0  0  0  0  0  0  0  0  0  0  0  0
    0.5775   62.5243   79.1552 C   0  0  0  0  0  0  0  0  0  0  0  0
   -1.7597   63.6822   76.4077 C   0  0  0  0  0  0  0  0  0  0  0  0
   -1.3372   65.1214   76.6857 C   0  0  0  0  0  0  0  0  0  0  0  0
    0.2331   64.7779   86.2355 O   0  0  0  0  0  0  0  0  0  0  0  0
    1.3402   63.6436   88.0112 C   0  0  0  0  0  0  0  0  0  0  0  0
    0.0265   64.2404   87.5391 C   0  0  0  0  0  0  0  0  0  0  0  0
 35 36  1  0  0  0
 36 34  1  0  0  0
 34  1  1  0  0  0
  1  2  1  0  0  0
  2  3  2  0  0  0
  3  4  1  0  0  0
  4 23  1  0  0  0
 23 24  2  0  0  0
 23 25  2  0  0  0
 23 26  1  0  0  0
 26 27  1  0  0  0
 27 28  1  0  0  0
 28 29  1  0  0  0
 29 32  1  0  0  0
 32 33  1  0  0  0
 29 30  1  0  0  0
 30 31  1  0  0  0
  4  5  2  0  0  0
  5  6  1  0  0  0
  6  7  1  0  0  0
  7  8  2  0  0  0
  8  9  1  0  0  0
  9 10  1  0  0  0
  9 11  2  0  0  0
 11 12  1  0  0  0
 12 13  2  0  0  0
 13 14  1  0  0  0
 14 15  2  0  0  0
 15 16  1  0  0  0
 16 17  2  0  0  0
 17 18  1  0  0  0
 17 19  1  0  0  0
 19 20  1  0  0  0
 20 21  2  0  0  0
  6  1  2  0  0  0
 21  7  1  0  0  0
 31 26  1  0  0  0
 20 11  1  0  0  0
 19 13  1  0  0  0
 10 22  1  0  0  0
M  END
> <minimizedAffinity>
-10.24684

$$$$



 36 40  0  0  0  0  0  0  0  0999 V2000
    0.7724   64.7605   84.5614 C   0  0  0  0  0  0  0  0  0  0  0  0
    1.6002   65.8805   84.7378 C   0  0  0  0  0  0  0  0  0  0  0  0
    1.7315   66.8347   83.7278 C   0  0  0  0  0  0  0  0  0  0  0  0
    1.0342   66.6708   82.5334 C   0  0  0  0  0  0  0  0  0  0  0  0
    0.2120   65.5601   82.3374 C   0  0  0  0  0  0  0  0  0  0  0  0
    0.0540   64.5926   83.3523 C   0  0  0  0  0  0  0  0  0  0  0  0
   -0.8435   63.4483   83.1156 C   0  0  0  0  0  0  0  0  0  0  0  0
   -1.5356   63.0007   84.1920 N   0  0  0  0  0  0  0  0  0  0  0  0
   -2.3388   61.9395   84.0149 C   0  0  0  0  0  0  0  0  0  0  0  0
   -3.0201   61.5439   85.1313 O   0  0  0  0  0  0  0  0  0  0  0  0
   -2.4472   61.3086   82.7804 C   0  0  0  0  0  0  0  0  0  0  0  0
   -3.1730   60.2323   82.3296 N   0  0  0  0  0  0  0  0  0  0  0  0
   -2.8514   60.1145   81.0578 C   0  0  0  0  0  0  0  0  0  0  0  0
   -3.2934   59.1784   80.0823 C   0  0  0  0  0  0  0  0  0  0  0  0
   -2.8234   59.2508   78.8244 C   0  0  0  0  0  0  0  0  0  0  0  0
   -1.8668   60.2696   78.4284 C   0  0  0  0  0  0  0  0  0  0  0  0
   -1.4291   61.1707   79.3330 C   0  0  0  0  0  0  0  0  0  0  0  0
   -0.4445   62.2430   78.9750 C   0  0  0  0  0  0  0  0  0  0  0  0
   -1.9283   61.0843   80.6503 N   0  0  0  0  0  0  0  0  0  0  0  0
   -1.6683   61.8515   81.7702 C   0  0  0  0  0  0  0  0  0  0  0  0
   -0.8376   62.9065   81.8791 N   0  0  0  0  0  0  0  0  0  0  0  0
   -2.7119   62.2005   85.7790 H   0  0  0  0  0  0  0  0  0  0  0  0
    1.2213   67.8869   81.2534 S   0  0  0  0  0  0  0  0  0  0  0  0
    2.4746   67.6097   80.5852 O   0  0  0  0  0  0  0  0  0  0  0  0
   -0.0226   67.9819   80.5195 O   0  0  0  0  0  0  0  0  0  0  0  0
    1.4001   69.3279   82.1456 N   0  0  0  0  0  0  0  0  0  0  0  0
    0.3545   70.3771   81.9096 C   0  0  0  0  0  0  0  0  0  0  0  0
    0.9067   71.5765   81.1179 C   0  0  0  0  0  0  0  0  0  0  0  0
    2.0484   72.2642   81.7596 N   0  0  0  0  0  0  0  0  0  0  0  0
    2.8329   71.3296   82.5968 C   0  0  0  0  0  0  0  0  0  0  0  0
    2.7947   69.8770   82.0883 C   0  0  0  0  0  0  0  0  0  0  0  0
    1.6187   73.4540   82.5061 C   0  0  0  0  0  0  0  0  0  0  0  0
    0.4035   74.1373   81.8870 C   0  0  0  0  0  0  0  0  0  0  0  0
    0.6284   63.7680   85.4985 O   0  0  0  0  0  0  0  0  0  0  0  0
   -0.5072   63.7718   87.5903 C   0  0  0  0  0  0  0  0  0  0  0  0
    0.7892   64.1048   86.8739 C   0  0  0  0  0  0  0  0  0  0  0  0
 35 36  1  0  0  0
 36 34  1  0  0  0
 34  1  1  0  0  0
  1  2  1  0  0  0
  2  3  2  0  0  0
  3  4  1  0  0  0
  4 23  1  0  0  0
 23 24  2  0  0  0
 23 25  2  0  0  0
 23 26  1  0  0  0
 26 27  1  0  0  0
 27 28  1  0  0  0
 28 29  1  0  0  0
 29 32  1  0  0  0
 32 33  1  0  0  0
 29 30  1  0  0  0
 30 31  1  0  0  0
  4  5  2  0  0  0
  5  6  1  0  0  0
  6  7  1  0  0  0
  7  8  2  0  0  0
  8  9  1  0  0  0
  9 10  1  0  0  0
  9 11  2  0  0  0
 11 12  1  0  0  0
 12 13  2  0  0  0
 13 14  1  0  0  0
 14 15  2  0  0  0
 15 16  1  0  0  0
 16 17  2  0  0  0
 17 18  1  0  0  0
 17 19  1  0  0  0
 19 20  1  0  0  0
 20 21  2  0  0  0
  6  1  2  0  0  0
 21  7  1  0  0  0
 31 26  1  0  0  0
 20 11  1  0  0  0
 19 13  1  0  0  0
 10 22  1  0  0  0
M  END
> <minimizedAffinity>
-10.04093

$$$$



 36 40  0  0  0  0  0  0  0  0999 V2000
    0.3069   63.7859   79.5646 C   0  0  0  0  0  0  0  0  0  0  0  0
    1.0104   64.5533   78.6228 C   0  0  0  0  0  0  0  0  0  0  0  0
    1.3093   65.8928   78.8764 C   0  0  0  0  0  0  0  0  0  0  0  0
    0.9029   66.4717   80.0762 C   0  0  0  0  0  0  0  0  0  0  0  0
    0.1965   65.7263   81.0214 C   0  0  0  0  0  0  0  0  0  0  0  0
   -0.1016   64.3666   80.7902 C   0  0  0  0  0  0  0  0  0  0  0  0
   -0.8265   63.6078   81.8245 C   0  0  0  0  0  0  0  0  0  0  0  0
   -1.8024   62.7778   81.3810 N   0  0  0  0  0  0  0  0  0  0  0  0
   -2.5017   62.0955   82.3020 C   0  0  0  0  0  0  0  0  0  0  0  0
   -3.4610   61.2656   81.7941 O   0  0  0  0  0  0  0  0  0  0  0  0
   -2.2504   62.2439   83.6616 C   0  0  0  0  0  0  0  0  0  0  0  0
   -2.7995   61.6853   84.7906 N   0  0  0  0  0  0  0  0  0  0  0  0
   -2.1376   62.2253   85.7931 C   0  0  0  0  0  0  0  0  0  0  0  0
   -2.2704   62.0242   87.1950 C   0  0  0  0  0  0  0  0  0  0  0  0
   -1.4725   62.6940   88.0454 C   0  0  0  0  0  0  0  0  0  0  0  0
   -0.4668   63.6271   87.5683 C   0  0  0  0  0  0  0  0  0  0  0  0
   -0.3187   63.8385   86.2434 C   0  0  0  0  0  0  0  0  0  0  0  0
    0.7052   64.7888   85.6994 C   0  0  0  0  0  0  0  0  0  0  0  0
   -1.1624   63.1311   85.3604 N   0  0  0  0  0  0  0  0  0  0  0  0
   -1.2428   63.1411   83.9807 C   0  0  0  0  0  0  0  0  0  0  0  0
   -0.5084   63.8624   83.1115 N   0  0  0  0  0  0  0  0  0  0  0  0
   -3.3456   61.4110   80.8395 H   0  0  0  0  0  0  0  0  0  0  0  0
    1.2798   68.1801   80.3788 S   0  0  0  0  0  0  0  0  0  0  0  0
    1.7682   68.7334   79.1341 O   0  0  0  0  0  0  0  0  0  0  0  0
    0.1710   68.7800   81.0900 O   0  0  0  0  0  0  0  0  0  0  0  0
    2.5882   68.0758   81.4658 N   0  0  0  0  0  0  0  0  0  0  0  0
    2.4667   67.0329   82.5371 C   0  0  0  0  0  0  0  0  0  0  0  0
    2.2205   67.6542   83.9241 C   0  0  0  0  0  0  0  0  0  0  0  0
    3.2726   68.5918   84.3738 N   0  0  0  0  0  0  0  0  0  0  0  0
    3.9303   69.2489   83.2226 C   0  0  0  0  0  0  0  0  0  0  0  0
    3.0042   69.4127   82.0037 C   0  0  0  0  0  0  0  0  0  0  0  0
    4.2376   67.9398   85.2689 C   0  0  0  0  0  0  0  0  0  0  0  0
    5.5454   67.5790   84.5715 C   0  0  0  0  0  0  0  0  0  0  0  0
   -0.0508   62.4763   79.3617 O   0  0  0  0  0  0  0  0  0  0  0  0
   -1.8507   62.3810   77.8073 C   0  0  0  0  0  0  0  0  0  0  0  0
   -0.3850   62.0612   78.0400 C   0  0  0  0  0  0  0  0  0  0  0  0
 35 36  1  0  0  0
 36 34  1  0  0  0
 34  1  1  0  0  0
  1  2  1  0  0  0
  2  3  2  0  0  0
  3  4  1  0  0  0
  4 23  1  0  0  0
 23 24  2  0  0  0
 23 25  2  0  0  0
 23 26  1  0  0  0
 26 27  1  0  0  0
 27 28  1  0  0  0
 28 29  1  0  0  0
 29 32  1  0  0  0
 32 33  1  0  0  0
 29 30  1  0  0  0
 30 31  1  0  0  0
  4  5  2  0  0  0
  5  6  1  0  0  0
  6  7  1  0  0  0
  7  8  2  0  0  0
  8  9  1  0  0  0
  9 10  1  0  0  0
  9 11  2  0  0  0
 11 12  1  0  0  0
 12 13  2  0  0  0
 13 14  1  0  0  0
 14 15  2  0  0  0
 15 16  1  0  0  0
 16 17  2  0  0  0
 17 18  1  0  0  0
 17 19  1  0  0  0
 19 20  1  0  0  0
 20 21  2  0  0  0
  6  1  2  0  0  0
 21  7  1  0  0  0
 31 26  1  0  0  0
 20 11  1  0  0  0
 19 13  1  0  0  0
 10 22  1  0  0  0
M  END
> <minimizedAffinity>
-9.98862

$$$$



 36 40  0  0  0  0  0  0  0  0999 V2000
    3.4682   66.6071   84.5332 C   0  0  0  0  0  0  0  0  0  0  0  0
    4.3163   67.6917   84.2591 C   0  0  0  0  0  0  0  0  0  0  0  0
    3.8701   68.7677   83.4903 C   0  0  0  0  0  0  0  0  0  0  0  0
    2.5703   68.7618   82.9900 C   0  0  0  0  0  0  0  0  0  0  0  0
    1.7152   67.6890   83.2463 C   0  0  0  0  0  0  0  0  0  0  0  0
    2.1426   66.5993   84.0345 C   0  0  0  0  0  0  0  0  0  0  0  0
    1.2006   65.4987   84.3034 C   0  0  0  0  0  0  0  0  0  0  0  0
    1.0648   65.1340   85.6020 N   0  0  0  0  0  0  0  0  0  0  0  0
    0.2366   64.1134   85.8759 C   0  0  0  0  0  0  0  0  0  0  0  0
    0.1303   63.8016   87.2019 O   0  0  0  0  0  0  0  0  0  0  0  0
   -0.4453   63.4407   84.8677 C   0  0  0  0  0  0  0  0  0  0  0  0
   -1.3305   62.3897   84.8641 N   0  0  0  0  0  0  0  0  0  0  0  0
   -1.6313   62.2033   83.5954 C   0  0  0  0  0  0  0  0  0  0  0  0
   -2.5004   61.2552   82.9879 C   0  0  0  0  0  0  0  0  0  0  0  0
   -2.6568   61.2508   81.6523 C   0  0  0  0  0  0  0  0  0  0  0  0
   -1.9563   62.1976   80.8022 C   0  0  0  0  0  0  0  0  0  0  0  0
   -1.1245   63.1082   81.3509 C   0  0  0  0  0  0  0  0  0  0  0  0
   -0.3800   64.1083   80.5185 C   0  0  0  0  0  0  0  0  0  0  0  0
   -0.9672   63.1026   82.7534 N   0  0  0  0  0  0  0  0  0  0  0  0
   -0.1990   63.8982   83.5824 C   0  0  0  0  0  0  0  0  0  0  0  0
    0.6222   64.9084   83.2359 N   0  0  0  0  0  0  0  0  0  0  0  0
    0.7216   64.4653   87.5964 H   0  0  0  0  0  0  0  0  0  0  0  0
    2.0215   70.1321   82.0032 S   0  0  0  0  0  0  0  0  0  0  0  0
    1.4835   69.5829   80.7772 O   0  0  0  0  0  0  0  0  0  0  0  0
    1.2441   71.0223   82.8387 O   0  0  0  0  0  0  0  0  0  0  0  0
    3.4854   70.9236   81.6357 N   0  0  0  0  0  0  0  0  0  0  0  0
    3.5330   72.3893   81.9505 C   0  0  0  0  0  0  0  0  0  0  0  0
    3.5108   73.2554   80.6778 C   0  0  0  0  0  0  0  0  0  0  0  0
    4.6226   72.9957   79.7373 N   0  0  0  0  0  0  0  0  0  0  0  0
    5.0910   71.5956   79.8374 C   0  0  0  0  0  0  0  0  0  0  0  0
    3.9838   70.6111   80.2561 C   0  0  0  0  0  0  0  0  0  0  0  0
    5.7160   73.9621   79.9053 C   0  0  0  0  0  0  0  0  0  0  0  0
    7.0966   73.3213   79.8031 C   0  0  0  0  0  0  0  0  0  0  0  0
    3.8560   65.5027   85.2501 O   0  0  0  0  0  0  0  0  0  0  0  0
    5.4449   65.1328   86.9832 C   0  0  0  0  0  0  0  0  0  0  0  0
    5.2468   65.3018   85.4875 C   0  0  0  0  0  0  0  0  0  0  0  0
 35 36  1  0  0  0
 36 34  1  0  0  0
 34  1  1  0  0  0
  1  2  1  0  0  0
  2  3  2  0  0  0
  3  4  1  0  0  0
  4 23  1  0  0  0
 23 24  2  0  0  0
 23 25  2  0  0  0
 23 26  1  0  0  0
 26 27  1  0  0  0
 27 28  1  0  0  0
 28 29  1  0  0  0
 29 32  1  0  0  0
 32 33  1  0  0  0
 29 30  1  0  0  0
 30 31  1  0  0  0
  4  5  2  0  0  0
  5  6  1  0  0  0
  6  7  1  0  0  0
  7  8  2  0  0  0
  8  9  1  0  0  0
  9 10  1  0  0  0
  9 11  2  0  0  0
 11 12  1  0  0  0
 12 13  2  0  0  0
 13 14  1  0  0  0
 14 15  2  0  0  0
 15 16  1  0  0  0
 16 17  2  0  0  0
 17 18  1  0  0  0
 17 19  1  0  0  0
 19 20  1  0  0  0
 20 21  2  0  0  0
  6  1  2  0  0  0
 21  7  1  0  0  0
 31 26  1  0  0  0
 20 11  1  0  0  0
 19 13  1  0  0  0
 10 22  1  0  0  0
M  END
> <minimizedAffinity>
-9.90670

$$$$



 36 40  0  0  0  0  0  0  0  0999 V2000
   -0.5319   63.5755   85.5949 C   0  0  0  0  0  0  0  0  0  0  0  0
   -1.4594   62.5339   85.7545 C   0  0  0  0  0  0  0  0  0  0  0  0
   -1.9454   61.8376   84.6469 C   0  0  0  0  0  0  0  0  0  0  0  0
   -1.5052   62.1828   83.3715 C   0  0  0  0  0  0  0  0  0  0  0  0
   -0.5887   63.2202   83.1928 C   0  0  0  0  0  0  0  0  0  0  0  0
   -0.0739   63.9257   84.3011 C   0  0  0  0  0  0  0  0  0  0  0  0
    0.9115   64.9968   84.0717 C   0  0  0  0  0  0  0  0  0  0  0  0
    0.6592   65.8258   83.0291 N   0  0  0  0  0  0  0  0  0  0  0  0
    1.5549   66.7933   82.7757 C   0  0  0  0  0  0  0  0  0  0  0  0
    1.2393   67.6050   81.7228 O   0  0  0  0  0  0  0  0  0  0  0  0
    2.7084   66.9335   83.5397 C   0  0  0  0  0  0  0  0  0  0  0  0
    3.7660   67.8101   83.5022 N   0  0  0  0  0  0  0  0  0  0  0  0
    4.5542   67.4337   84.4881 C   0  0  0  0  0  0  0  0  0  0  0  0
    5.7946   67.9727   84.9284 C   0  0  0  0  0  0  0  0  0  0  0  0
    6.4318   67.4173   85.9743 C   0  0  0  0  0  0  0  0  0  0  0  0
    5.8832   66.2700   86.6760 C   0  0  0  0  0  0  0  0  0  0  0  0
    4.7081   65.7369   86.2799 C   0  0  0  0  0  0  0  0  0  0  0  0
    4.0980   64.5549   86.9713 C   0  0  0  0  0  0  0  0  0  0  0  0
    4.0490   66.3272   85.1804 N   0  0  0  0  0  0  0  0  0  0  0  0
    2.8565   66.0064   84.5598 C   0  0  0  0  0  0  0  0  0  0  0  0
    2.0041   65.0087   84.8646 N   0  0  0  0  0  0  0  0  0  0  0  0
    0.3875   67.2263   81.4457 H   0  0  0  0  0  0  0  0  0  0  0  0
   -2.1421   61.2959   81.9714 S   0  0  0  0  0  0  0  0  0  0  0  0
   -1.5591   59.9719   82.0073 O   0  0  0  0  0  0  0  0  0  0  0  0
   -3.5752   61.4901   81.9132 O   0  0  0  0  0  0  0  0  0  0  0  0
   -1.4572   62.1449   80.6621 N   0  0  0  0  0  0  0  0  0  0  0  0
   -2.4072   62.5417   79.5713 C   0  0  0  0  0  0  0  0  0  0  0  0
   -2.1952   61.7147   78.2901 C   0  0  0  0  0  0  0  0  0  0  0  0
   -0.8363   61.8111   77.7135 N   0  0  0  0  0  0  0  0  0  0  0  0
    0.1721   62.0758   78.7636 C   0  0  0  0  0  0  0  0  0  0  0  0
   -0.2114   61.4953   80.1370 C   0  0  0  0  0  0  0  0  0  0  0  0
   -0.7753   62.7927   76.6225 C   0  0  0  0  0  0  0  0  0  0  0  0
   -0.3532   64.1805   77.0946 C   0  0  0  0  0  0  0  0  0  0  0  0
   -0.0437   64.3234   86.6372 O   0  0  0  0  0  0  0  0  0  0  0  0
    0.8135   63.1846   88.5433 C   0  0  0  0  0  0  0  0  0  0  0  0
   -0.3753   63.9323   87.9668 C   0  0  0  0  0  0  0  0  0  0  0  0
 35 36  1  0  0  0
 36 34  1  0  0  0
 34  1  1  0  0  0
  1  2  1  0  0  0
  2  3  2  0  0  0
  3  4  1  0  0  0
  4 23  1  0  0  0
 23 24  2  0  0  0
 23 25  2  0  0  0
 23 26  1  0  0  0
 26 27  1  0  0  0
 27 28  1  0  0  0
 28 29  1  0  0  0
 29 32  1  0  0  0
 32 33  1  0  0  0
 29 30  1  0  0  0
 30 31  1  0  0  0
  4  5  2  0  0  0
  5  6  1  0  0  0
  6  7  1  0  0  0
  7  8  2  0  0  0
  8  9  1  0  0  0
  9 10  1  0  0  0
  9 11  2  0  0  0
 11 12  1  0  0  0
 12 13  2  0  0  0
 13 14  1  0  0  0
 14 15  2  0  0  0
 15 16  1  0  0  0
 16 17  2  0  0  0
 17 18  1  0  0  0
 17 19  1  0  0  0
 19 20  1  0  0  0
 20 21  2  0  0  0
  6  1  2  0  0  0
 21  7  1  0  0  0
 31 26  1  0  0  0
 20 11  1  0  0  0
 19 13  1  0  0  0
 10 22  1  0  0  0
M  END
> <minimizedAffinity>
-9.79886

$$$$



 36 40  0  0  0  0  0  0  0  0999 V2000
    3.2555   66.5024   84.5902 C   0  0  0  0  0  0  0  0  0  0  0  0
    4.0921   67.5777   84.2518 C   0  0  0  0  0  0  0  0  0  0  0  0
    3.6961   68.5144   83.2960 C   0  0  0  0  0  0  0  0  0  0  0  0
    2.4584   68.3775   82.6721 C   0  0  0  0  0  0  0  0  0  0  0  0
    1.6163   67.3110   82.9906 C   0  0  0  0  0  0  0  0  0  0  0  0
    1.9920   66.3626   83.9655 C   0  0  0  0  0  0  0  0  0  0  0  0
    1.0632   65.2663   84.2915 C   0  0  0  0  0  0  0  0  0  0  0  0
    0.9885   64.9171   85.5993 N   0  0  0  0  0  0  0  0  0  0  0  0
    0.1735   63.9007   85.9240 C   0  0  0  0  0  0  0  0  0  0  0  0
    0.1297   63.6048   87.2571 O   0  0  0  0  0  0  0  0  0  0  0  0
   -0.5554   63.2169   84.9570 C   0  0  0  0  0  0  0  0  0  0  0  0
   -1.4404   62.1669   85.0077 N   0  0  0  0  0  0  0  0  0  0  0  0
   -1.8006   61.9658   83.7569 C   0  0  0  0  0  0  0  0  0  0  0  0
   -2.6979   61.0116   83.2022 C   0  0  0  0  0  0  0  0  0  0  0  0
   -2.9171   60.9915   81.8756 C   0  0  0  0  0  0  0  0  0  0  0  0
   -2.2569   61.9274   80.9823 C   0  0  0  0  0  0  0  0  0  0  0  0
   -1.3997   62.8435   81.4804 C   0  0  0  0  0  0  0  0  0  0  0  0
   -0.6947   63.8329   80.6021 C   0  0  0  0  0  0  0  0  0  0  0  0
   -1.1765   62.8544   82.8739 N   0  0  0  0  0  0  0  0  0  0  0  0
   -0.3697   63.6589   83.6562 C   0  0  0  0  0  0  0  0  0  0  0  0
    0.4349   64.6640   83.2595 N   0  0  0  0  0  0  0  0  0  0  0  0
    0.7392   64.2725   87.6155 H   0  0  0  0  0  0  0  0  0  0  0  0
    1.9742   69.5703   81.4492 S   0  0  0  0  0  0  0  0  0  0  0  0
    3.0921   69.7268   80.5438 O   0  0  0  0  0  0  0  0  0  0  0  0
    0.6525   69.2293   80.9677 O   0  0  0  0  0  0  0  0  0  0  0  0
    1.8306   70.9966   82.3708 N   0  0  0  0  0  0  0  0  0  0  0  0
    0.6168   71.8336   82.0954 C   0  0  0  0  0  0  0  0  0  0  0  0
    0.9679   73.1351   81.3518 C   0  0  0  0  0  0  0  0  0  0  0  0
    1.9245   74.0112   82.0629 N   0  0  0  0  0  0  0  0  0  0  0  0
    2.8311   73.2224   82.9264 C   0  0  0  0  0  0  0  0  0  0  0  0
    3.0958   71.8018   82.3952 C   0  0  0  0  0  0  0  0  0  0  0  0
    1.2395   75.0791   82.8031 C   0  0  0  0  0  0  0  0  0  0  0  0
   -0.0780   75.4982   82.1586 C   0  0  0  0  0  0  0  0  0  0  0  0
    3.6000   65.5276   85.4930 O   0  0  0  0  0  0  0  0  0  0  0  0
    5.2428   65.2110   87.1859 C   0  0  0  0  0  0  0  0  0  0  0  0
    4.9825   65.2438   85.6906 C   0  0  0  0  0  0  0  0  0  0  0  0
 35 36  1  0  0  0
 36 34  1  0  0  0
 34  1  1  0  0  0
  1  2  1  0  0  0
  2  3  2  0  0  0
  3  4  1  0  0  0
  4 23  1  0  0  0
 23 24  2  0  0  0
 23 25  2  0  0  0
 23 26  1  0  0  0
 26 27  1  0  0  0
 27 28  1  0  0  0
 28 29  1  0  0  0
 29 32  1  0  0  0
 32 33  1  0  0  0
 29 30  1  0  0  0
 30 31  1  0  0  0
  4  5  2  0  0  0
  5  6  1  0  0  0
  6  7  1  0  0  0
  7  8  2  0  0  0
  8  9  1  0  0  0
  9 10  1  0  0  0
  9 11  2  0  0  0
 11 12  1  0  0  0
 12 13  2  0  0  0
 13 14  1  0  0  0
 14 15  2  0  0  0
 15 16  1  0  0  0
 16 17  2  0  0  0
 17 18  1  0  0  0
 17 19  1  0  0  0
 19 20  1  0  0  0
 20 21  2  0  0  0
  6  1  2  0  0  0
 21  7  1  0  0  0
 31 26  1  0  0  0
 20 11  1  0  0  0
 19 13  1  0  0  0
 10 22  1  0  0  0
M  END
> <minimizedAffinity>
-9.77835

$$$$
