
     RDKit          3D

 81 84  0  0  0  0  0  0  0  0999 V2000
   -4.0315   -0.8715   -6.0708 C   0  0  0  0  0  0  0  0  0  0  0  0
   -3.9404    0.2061   -4.9997 C   0  0  0  0  0  0  0  0  0  0  0  0
   -2.5030    0.6543   -4.7438 C   0  0  0  0  0  0  0  0  0  0  0  0
   -1.7605   -0.4602   -4.2310 O   0  0  0  0  0  0  0  0  0  0  0  0
   -0.6315   -0.1143   -3.5305 C   0  0  0  0  0  0  0  0  0  0  0  0
    0.2781    0.8194   -4.0477 C   0  0  0  0  0  0  0  0  0  0  0  0
    1.4273    1.1555   -3.3322 C   0  0  0  0  0  0  0  0  0  0  0  0
    1.6725    0.5478   -2.1003 C   0  0  0  0  0  0  0  0  0  0  0  0
    3.1396    0.9886   -1.2029 S   0  0  0  0  0  0  0  0  0  0  0  0
    3.2152    0.1926    0.0031 O   0  0  0  0  0  0  0  0  0  0  0  0
    4.2286    1.0214   -2.1551 O   0  0  0  0  0  0  0  0  0  0  0  0
    2.8042    2.5954   -0.7215 N   0  0  0  0  0  0  0  0  0  0  0  0
    1.6682    2.7761    0.2229 C   0  0  0  0  0  0  0  0  0  0  0  0
    2.1625    3.1458    1.6156 C   0  0  0  0  0  0  0  0  0  0  0  0
    2.9245    4.4829    1.6152 C   0  0  0  0  0  0  0  0  0  0  0  0
    3.8990    4.5994    2.8238 C   0  0  2  0  0  0  0  0  0  0  0  0
    3.2073    4.3642    4.1847 C   0  0  0  0  0  0  0  0  0  0  0  0
    2.0791    5.2331    4.2912 O   0  0  0  0  0  0  0  0  0  0  0  0
    1.3519    5.0408    5.4903 N   0  0  0  0  0  0  0  0  0  0  0  0
    1.7715    4.1867    6.2712 O   0  0  0  0  0  0  0  0  0  0  0  0
    0.3699    5.7742    5.5707 O   0  0  0  0  0  0  0  0  0  0  0  0
    4.4293    5.9353    2.7918 O   0  0  0  0  0  0  0  0  0  0  0  0
    5.7105    6.0663    3.3815 N   0  0  0  0  0  0  0  0  0  0  0  0
    6.1949    5.0628    3.9038 O   0  0  0  0  0  0  0  0  0  0  0  0
    6.1594    7.2056    3.2905 O   0  0  0  0  0  0  0  0  0  0  0  0
    3.6522    4.6982    0.2676 C   0  0  0  0  0  0  0  0  0  0  0  0
    4.0270    3.3757   -0.3924 C   0  0  0  0  0  0  0  0  0  0  0  0
    0.7957   -0.4115   -1.5896 C   0  0  0  0  0  0  0  0  0  0  0  0
   -0.3647   -0.7563   -2.3041 C   0  0  0  0  0  0  0  0  0  0  0  0
   -1.2714   -1.7799   -1.6857 C   0  0  0  0  0  0  0  0  0  0  0  0
   -1.1422   -2.0694   -0.4221 N   0  0  0  0  0  0  0  0  0  0  0  0
   -2.0279   -3.0423    0.0427 C   0  0  0  0  0  0  0  0  0  0  0  0
   -2.0962   -3.5452    1.3546 C   0  0  0  0  0  0  0  0  0  0  0  0
   -1.2324   -3.1238    2.5047 C   0  0  0  0  0  0  0  0  0  0  0  0
   -0.0615   -4.0727    2.7729 C   0  0  0  0  0  0  0  0  0  0  0  0
    1.0034   -4.0367    1.6848 C   0  0  0  0  0  0  0  0  0  0  0  0
   -3.1338   -4.4852    1.3566 C   0  0  0  0  0  0  0  0  0  0  0  0
   -3.5983   -5.2442    2.5000 C   0  0  0  0  0  0  0  0  0  0  0  0
   -4.6420   -6.0102    2.4488 N   0  0  0  0  0  0  0  0  0  0  0  0
   -4.8397   -6.6025    3.7028 O   0  0  0  0  0  0  0  0  0  0  0  0
   -3.6281   -4.5562    0.0540 N   0  0  0  0  0  0  0  0  0  0  0  0
   -4.6598   -5.4690   -0.3945 C   0  0  0  0  0  0  0  0  0  0  0  0
   -2.9705   -3.6477   -0.7388 C   0  0  0  0  0  0  0  0  0  0  0  0
   -3.1302   -3.3028   -2.1165 C   0  0  0  0  0  0  0  0  0  0  0  0
   -3.9792   -3.7390   -2.8866 O   0  0  0  0  0  0  0  0  0  0  0  0
   -2.2053   -2.3705   -2.5217 N   0  0  0  0  0  0  0  0  0  0  0  0
   -3.5034   -1.7808   -5.7674 H   0  0  0  0  0  0  0  0  0  0  0  0
   -5.0786   -1.1355   -6.2519 H   0  0  0  0  0  0  0  0  0  0  0  0
   -3.6015   -0.5235   -7.0154 H   0  0  0  0  0  0  0  0  0  0  0  0
   -4.5409    1.0710   -5.3039 H   0  0  0  0  0  0  0  0  0  0  0  0
   -4.3715   -0.1897   -4.0724 H   0  0  0  0  0  0  0  0  0  0  0  0
   -2.5151    1.4774   -4.0180 H   0  0  0  0  0  0  0  0  0  0  0  0
   -2.0513    1.0004   -5.6804 H   0  0  0  0  0  0  0  0  0  0  0  0
    0.1162    1.2818   -5.0178 H   0  0  0  0  0  0  0  0  0  0  0  0
    2.1298    1.8806   -3.7394 H   0  0  0  0  0  0  0  0  0  0  0  0
    1.0531    1.8737    0.2885 H   0  0  0  0  0  0  0  0  0  0  0  0
    1.0167    3.5630   -0.1759 H   0  0  0  0  0  0  0  0  0  0  0  0
    2.8075    2.3413    1.9913 H   0  0  0  0  0  0  0  0  0  0  0  0
    1.3080    3.2110    2.2986 H   0  0  0  0  0  0  0  0  0  0  0  0
    2.1948    5.3013    1.6921 H   0  0  0  0  0  0  0  0  0  0  0  0
    4.6905    3.8525    2.6776 H   0  0  0  0  0  0  0  0  0  0  0  0
    3.9034    4.5848    5.0018 H   0  0  0  0  0  0  0  0  0  0  0  0
    2.8903    3.3171    4.2539 H   0  0  0  0  0  0  0  0  0  0  0  0
    2.9853    5.2512   -0.4074 H   0  0  0  0  0  0  0  0  0  0  0  0
    4.5468    5.3185    0.3859 H   0  0  0  0  0  0  0  0  0  0  0  0
    4.5682    3.5857   -1.3218 H   0  0  0  0  0  0  0  0  0  0  0  0
    4.6851    2.8000    0.2684 H   0  0  0  0  0  0  0  0  0  0  0  0
    1.0149   -0.8933   -0.6377 H   0  0  0  0  0  0  0  0  0  0  0  0
   -0.8535   -2.1079    2.3399 H   0  0  0  0  0  0  0  0  0  0  0  0
   -1.8525   -3.0640    3.4079 H   0  0  0  0  0  0  0  0  0  0  0  0
   -0.4202   -5.1015    2.8933 H   0  0  0  0  0  0  0  0  0  0  0  0
    0.4083   -3.7873    3.7217 H   0  0  0  0  0  0  0  0  0  0  0  0
    1.3754   -3.0182    1.5334 H   0  0  0  0  0  0  0  0  0  0  0  0
    1.8516   -4.6676    1.9693 H   0  0  0  0  0  0  0  0  0  0  0  0
    0.6168   -4.4102    0.7322 H   0  0  0  0  0  0  0  0  0  0  0  0
   -3.0325   -5.1418    3.4430 H   0  0  0  0  0  0  0  0  0  0  0  0
   -5.6480   -7.1297    3.5615 H   0  0  0  0  0  0  0  0  0  0  0  0
   -5.6156   -5.1371    0.0181 H   0  0  0  0  0  0  0  0  0  0  0  0
   -4.4074   -6.4779   -0.0584 H   0  0  0  0  0  0  0  0  0  0  0  0
   -4.7166   -5.4869   -1.4820 H   0  0  0  0  0  0  0  0  0  0  0  0
   -2.2761   -2.0753   -3.4867 H   0  0  0  0  0  0  0  0  0  0  0  0
  1  2  1  0
  2  3  1  0
  3  4  1  0
  4  5  1  0
  5  6  1  0
  6  7  2  0
  7  8  1  0
  8  9  1  0
  9 10  2  0
  9 11  2  0
  9 12  1  0
 12 13  1  0
 13 14  1  0
 14 15  1  0
 15 16  1  0
 16 17  1  0
 17 18  1  0
 18 19  1  0
 19 20  2  0
 19 21  1  0
 16 22  1  0
 22 23  1  0
 23 24  2  0
 23 25  1  0
 15 26  1  0
 26 27  1  0
  8 28  2  0
 28 29  1  0
 29 30  1  0
 30 31  2  0
 31 32  1  0
 32 33  1  0
 33 34  1  0
 34 35  1  0
 35 36  1  0
 33 37  2  0
 37 38  1  0
 38 39  2  0
 39 40  1  0
 37 41  1  0
 41 42  1  0
 41 43  1  0
 43 44  1  0
 44 45  2  0
 44 46  1  0
 29  5  2  0
 46 30  1  0
 27 12  1  0
 43 32  2  0
  1 47  1  0
  1 48  1  0
  1 49  1  0
  2 50  1  0
  2 51  1  0
  3 52  1  0
  3 53  1  0
  6 54  1  0
  7 55  1  0
 13 56  1  0
 13 57  1  0
 14 58  1  0
 14 59  1  0
 15 60  1  0
 16 61  1  6
 17 62  1  0
 17 63  1  0
 26 64  1  0
 26 65  1  0
 27 66  1  0
 27 67  1  0
 28 68  1  0
 34 69  1  0
 34 70  1  0
 35 71  1  0
 35 72  1  0
 36 73  1  0
 36 74  1  0
 36 75  1  0
 38 76  1  0
 40 77  1  0
 42 78  1  0
 42 79  1  0
 42 80  1  0
 46 81  1  0
M  CHG  4  19   1  21  -1  23   1  25  -1
M  END
$$$$
