
     RDKit          3D

 37 39  0  0  0  0  0  0  0  0999 V2000
   -2.2567    3.0224    2.5143 C   0  0  0  0  0  0  0  0  0  0  0  0
   -3.0251    2.0100    1.6836 C   0  0  0  0  0  0  0  0  0  0  0  0
   -2.0713    1.1933    1.0016 O   0  0  0  0  0  0  0  0  0  0  0  0
   -2.5355    0.1955    0.1806 C   0  0  0  0  0  0  0  0  0  0  0  0
   -3.9010   -0.0595   -0.0198 C   0  0  0  0  0  0  0  0  0  0  0  0
   -4.3223   -1.0878   -0.8662 C   0  0  0  0  0  0  0  0  0  0  0  0
   -3.3871   -1.8756   -1.5242 C   0  0  0  0  0  0  0  0  0  0  0  0
   -2.0268   -1.6354   -1.3359 C   0  0  0  0  0  0  0  0  0  0  0  0
   -1.5803   -0.6041   -0.4872 C   0  0  0  0  0  0  0  0  0  0  0  0
   -0.0894   -0.4340   -0.3579 C   0  0  0  0  0  0  0  0  0  0  0  0
    0.7259   -1.2202   -1.0137 N   0  0  0  0  0  0  0  0  0  0  0  0
    2.0392   -0.9537   -0.8034 C   0  0  0  0  0  0  0  0  0  0  0  0
    2.5801    0.0207   -0.0023 C   0  0  0  0  0  0  0  0  0  0  0  0
    3.9754   -0.1085   -0.1196 C   0  0  0  0  0  0  0  0  0  0  0  0
    5.0244    0.7023    0.5424 C   0  0  0  0  0  0  0  0  0  0  0  0
    4.3017   -1.1122   -0.9514 N   0  0  0  0  0  0  0  0  0  0  0  0
    3.1048   -1.6084   -1.3524 N   0  0  0  0  0  0  0  0  0  0  0  0
    3.0726   -2.7189   -2.2698 C   0  0  0  0  0  0  0  0  0  0  0  0
    1.6934    0.8839    0.7176 C   0  0  0  0  0  0  0  0  0  0  0  0
    2.0524    1.7885    1.4624 O   0  0  0  0  0  0  0  0  0  0  0  0
    0.3662    0.5837    0.4795 N   0  0  0  0  0  0  0  0  0  0  0  0
   -1.6128    3.6358    1.8752 H   0  0  0  0  0  0  0  0  0  0  0  0
   -2.9402    3.6779    3.0610 H   0  0  0  0  0  0  0  0  0  0  0  0
   -1.6026    2.5153    3.2314 H   0  0  0  0  0  0  0  0  0  0  0  0
   -3.6434    1.3971    2.3491 H   0  0  0  0  0  0  0  0  0  0  0  0
   -3.6539    2.5434    0.9618 H   0  0  0  0  0  0  0  0  0  0  0  0
   -4.6731    0.5258    0.4697 H   0  0  0  0  0  0  0  0  0  0  0  0
   -5.3845   -1.2720   -1.0104 H   0  0  0  0  0  0  0  0  0  0  0  0
   -3.7117   -2.6767   -2.1837 H   0  0  0  0  0  0  0  0  0  0  0  0
   -1.3121   -2.2657   -1.8621 H   0  0  0  0  0  0  0  0  0  0  0  0
    4.9263    1.7558    0.2617 H   0  0  0  0  0  0  0  0  0  0  0  0
    6.0286    0.3696    0.2599 H   0  0  0  0  0  0  0  0  0  0  0  0
    4.9366    0.6246    1.6307 H   0  0  0  0  0  0  0  0  0  0  0  0
    3.5899   -3.5628   -1.8063 H   0  0  0  0  0  0  0  0  0  0  0  0
    3.5795   -2.4190   -3.1905 H   0  0  0  0  0  0  0  0  0  0  0  0
    2.0389   -2.9946   -2.4898 H   0  0  0  0  0  0  0  0  0  0  0  0
   -0.3061    1.1636    0.9638 H   0  0  0  0  0  0  0  0  0  0  0  0
  1  2  1  0
  2  3  1  0
  3  4  1  0
  4  5  2  0
  5  6  1  0
  6  7  2  0
  7  8  1  0
  8  9  2  0
  9 10  1  0
 10 11  2  0
 11 12  1  0
 12 13  2  0
 13 14  1  0
 14 15  1  0
 14 16  2  0
 16 17  1  0
 17 18  1  0
 13 19  1  0
 19 20  2  0
 19 21  1  0
  9  4  1  0
 21 10  1  0
 17 12  1  0
  1 22  1  0
  1 23  1  0
  1 24  1  0
  2 25  1  0
  2 26  1  0
  5 27  1  0
  6 28  1  0
  7 29  1  0
  8 30  1  0
 15 31  1  0
 15 32  1  0
 15 33  1  0
 18 34  1  0
 18 35  1  0
 18 36  1  0
 21 37  1  0
M  END
$$$$
