


 35 40  0  0  0  0  0  0  0  0999 V2000
    0.9152   68.4545   82.3301 C   0  0  0  0  0  0  0  0  0  0  0  0
    2.1249   67.9637   83.0707 C   0  0  0  0  0  0  0  0  0  0  0  0
    3.3313   68.5793   83.2435 N   0  0  0  0  0  0  0  0  0  0  0  0
    4.1716   67.7556   83.9650 C   0  0  0  0  0  0  0  0  0  0  0  0
    5.4802   67.9770   84.4106 C   0  0  0  0  0  0  0  0  0  0  0  0
    6.1133   66.9416   85.1047 C   0  0  0  0  0  0  0  0  0  0  0  0
    5.4655   65.7301   85.3360 C   0  0  0  0  0  0  0  0  0  0  0  0
    4.1596   65.5194   84.8785 C   0  0  0  0  0  0  0  0  0  0  0  0
    3.4960   66.5508   84.1867 C   0  0  0  0  0  0  0  0  0  0  0  0
    2.2199   66.6813   83.5827 C   0  0  0  0  0  0  0  0  0  0  0  0
    1.0996   65.7025   83.3958 C   0  0  0  0  0  0  0  0  0  0  0  0
    0.2331   66.0521   82.1452 C   0  0  0  0  0  0  0  0  0  0  0  0
    0.5125   65.0471   81.0412 C   0  0  0  0  0  0  0  0  0  0  0  0
    0.2674   63.8497   81.1106 O   0  0  0  0  0  0  0  0  0  0  0  0
    1.1368   65.6923   80.0191 N   0  0  0  0  0  0  0  0  0  0  0  0
    1.3226   67.0127   80.3151 C   0  0  0  0  0  0  0  0  0  0  0  0
    2.0414   67.7760   79.6881 O   0  0  0  0  0  0  0  0  0  0  0  0
    0.5869   67.3138   81.4703 N   0  0  0  0  0  0  0  0  0  0  0  0
    3.5907   69.4866   82.8792 H   0  0  0  0  0  0  0  0  0  0  0  0
    1.0058   72.5592   80.8591 C   0  0  0  0  0  0  0  0  0  0  0  0
   -0.1883   71.8398   80.8629 C   0  0  0  0  0  0  0  0  0  0  0  0
   -0.2330   70.5173   81.3202 C   0  0  0  0  0  0  0  0  0  0  0  0
    0.9246   69.8629   81.7606 C   0  0  0  0  0  0  0  0  0  0  0  0
    2.1110   70.6227   81.8008 C   0  0  0  0  0  0  0  0  0  0  0  0
    2.1561   71.9476   81.3452 C   0  0  0  0  0  0  0  0  0  0  0  0
    0.8997   73.8380   80.3925 O   0  0  0  0  0  0  0  0  0  0  0  0
    0.4369   75.2276   82.3223 C   0  0  0  0  0  0  0  0  0  0  0  0
   -0.0621   74.7085   80.9852 C   0  0  0  0  0  0  0  0  0  0  0  0
    1.6657   65.0439   78.8431 C   0  0  0  0  0  0  0  0  0  0  0  0
    0.5718   64.3517   78.0650 C   0  0  0  0  0  0  0  0  0  0  0  0
    0.6217   62.9669   77.8490 C   0  0  0  0  0  0  0  0  0  0  0  0
   -0.3751   62.3310   77.1078 C   0  0  0  0  0  0  0  0  0  0  0  0
   -1.4251   63.0727   76.5693 C   0  0  0  0  0  0  0  0  0  0  0  0
   -1.4773   64.4515   76.7666 C   0  0  0  0  0  0  0  0  0  0  0  0
   -0.4817   65.0901   77.5072 C   0  0  0  0  0  0  0  0  0  0  0  0
 27 28  1  0  0  0
 28 26  1  0  0  0
 26 20  1  0  0  0
 20 21  1  0  0  0
 21 22  2  0  0  0
 22 23  1  0  0  0
 23  1  1  0  0  0
  1  2  1  0  0  0
  2  3  1  0  0  0
  3  4  1  0  0  0
  4  5  2  0  0  0
  5  6  1  0  0  0
  6  7  2  0  0  0
  7  8  1  0  0  0
  8  9  2  0  0  0
  9 10  1  0  0  0
 10 11  1  0  0  0
 11 12  1  0  0  0
 12 13  1  0  0  0
 13 14  2  0  0  0
 13 15  1  0  0  0
 15 29  1  0  0  0
 29 30  1  0  0  0
 30 31  2  0  0  0
 31 32  1  0  0  0
 32 33  2  0  0  0
 33 34  1  0  0  0
 34 35  2  0  0  0
 15 16  1  0  0  0
 16 17  2  0  0  0
 16 18  1  0  0  0
 23 24  2  0  0  0
 24 25  1  0  0  0
 25 20  2  0  0  0
 18  1  1  0  0  0
 10  2  2  0  0  0
 18 12  1  0  0  0
  9  4  1  0  0  0
 35 30  1  0  0  0
  3 19  1  0  0  0
M  END
> <minimizedAffinity>
-9.88698

$$$$



 35 40  0  0  0  0  0  0  0  0999 V2000
    0.6036   64.3871   80.2775 C   0  0  0  0  0  0  0  0  0  0  0  0
   -0.1922   63.5097   79.3556 C   0  0  0  0  0  0  0  0  0  0  0  0
   -1.1592   63.8638   78.4592 N   0  0  0  0  0  0  0  0  0  0  0  0
   -1.6537   62.7329   77.8415 C   0  0  0  0  0  0  0  0  0  0  0  0
   -2.6198   62.6092   76.8358 C   0  0  0  0  0  0  0  0  0  0  0  0
   -2.9542   61.3195   76.4123 C   0  0  0  0  0  0  0  0  0  0  0  0
   -2.3521   60.1982   76.9788 C   0  0  0  0  0  0  0  0  0  0  0  0
   -1.3930   60.3359   77.9889 C   0  0  0  0  0  0  0  0  0  0  0  0
   -1.0304   61.6247   78.4251 C   0  0  0  0  0  0  0  0  0  0  0  0
   -0.1392   62.1276   79.4066 C   0  0  0  0  0  0  0  0  0  0  0  0
    0.7203   61.4360   80.4219 C   0  0  0  0  0  0  0  0  0  0  0  0
    0.9766   62.3390   81.6693 C   0  0  0  0  0  0  0  0  0  0  0  0
    0.1783   61.8091   82.8479 C   0  0  0  0  0  0  0  0  0  0  0  0
    0.3494   60.7150   83.3698 O   0  0  0  0  0  0  0  0  0  0  0  0
   -0.7846   62.7180   83.1595 N   0  0  0  0  0  0  0  0  0  0  0  0
   -0.7352   63.7916   82.3165 C   0  0  0  0  0  0  0  0  0  0  0  0
   -1.6030   64.6459   82.2197 O   0  0  0  0  0  0  0  0  0  0  0  0
    0.4484   63.7114   81.5688 N   0  0  0  0  0  0  0  0  0  0  0  0
   -1.4908   64.8038   78.2862 H   0  0  0  0  0  0  0  0  0  0  0  0
    0.1612   68.7246   80.1791 C   0  0  0  0  0  0  0  0  0  0  0  0
   -0.8694   67.9023   79.7263 C   0  0  0  0  0  0  0  0  0  0  0  0
   -0.7394   66.5084   79.7394 C   0  0  0  0  0  0  0  0  0  0  0  0
    0.4403   65.8943   80.1791 C   0  0  0  0  0  0  0  0  0  0  0  0
    1.4496   66.7388   80.6837 C   0  0  0  0  0  0  0  0  0  0  0  0
    1.3194   68.1344   80.6730 C   0  0  0  0  0  0  0  0  0  0  0  0
   -0.1059   70.0621   80.1140 O   0  0  0  0  0  0  0  0  0  0  0  0
   -0.8803   71.8909   81.5017 C   0  0  0  0  0  0  0  0  0  0  0  0
    0.2244   70.8843   81.2317 C   0  0  0  0  0  0  0  0  0  0  0  0
   -1.8145   62.5128   84.1497 C   0  0  0  0  0  0  0  0  0  0  0  0
   -1.3459   62.9428   85.5196 C   0  0  0  0  0  0  0  0  0  0  0  0
   -2.0942   62.6178   86.6603 C   0  0  0  0  0  0  0  0  0  0  0  0
   -1.6752   63.0374   87.9234 C   0  0  0  0  0  0  0  0  0  0  0  0
   -0.5108   63.7914   88.0579 C   0  0  0  0  0  0  0  0  0  0  0  0
    0.2335   64.1313   86.9294 C   0  0  0  0  0  0  0  0  0  0  0  0
   -0.1833   63.7133   85.6649 C   0  0  0  0  0  0  0  0  0  0  0  0
 27 28  1  0  0  0
 28 26  1  0  0  0
 26 20  1  0  0  0
 20 21  1  0  0  0
 21 22  2  0  0  0
 22 23  1  0  0  0
 23  1  1  0  0  0
  1  2  1  0  0  0
  2  3  1  0  0  0
  3  4  1  0  0  0
  4  5  2  0  0  0
  5  6  1  0  0  0
  6  7  2  0  0  0
  7  8  1  0  0  0
  8  9  2  0  0  0
  9 10  1  0  0  0
 10 11  1  0  0  0
 11 12  1  0  0  0
 12 13  1  0  0  0
 13 14  2  0  0  0
 13 15  1  0  0  0
 15 29  1  0  0  0
 29 30  1  0  0  0
 30 31  2  0  0  0
 31 32  1  0  0  0
 32 33  2  0  0  0
 33 34  1  0  0  0
 34 35  2  0  0  0
 15 16  1  0  0  0
 16 17  2  0  0  0
 16 18  1  0  0  0
 23 24  2  0  0  0
 24 25  1  0  0  0
 25 20  2  0  0  0
 18  1  1  0  0  0
 10  2  2  0  0  0
 18 12  1  0  0  0
  9  4  1  0  0  0
 35 30  1  0  0  0
  3 19  1  0  0  0
M  END
> <minimizedAffinity>
-9.51866

$$$$



 35 40  0  0  0  0  0  0  0  0999 V2000
    0.6096   63.1631   82.1090 C   0  0  0  0  0  0  0  0  0  0  0  0
   -0.1012   63.1463   83.4309 C   0  0  0  0  0  0  0  0  0  0  0  0
   -1.3311   62.6378   83.7354 N   0  0  0  0  0  0  0  0  0  0  0  0
   -1.6090   62.8663   85.0680 C   0  0  0  0  0  0  0  0  0  0  0  0
   -2.7239   62.4946   85.8289 C   0  0  0  0  0  0  0  0  0  0  0  0
   -2.7560   62.8906   87.1693 C   0  0  0  0  0  0  0  0  0  0  0  0
   -1.7179   63.6361   87.7236 C   0  0  0  0  0  0  0  0  0  0  0  0
   -0.6125   64.0074   86.9494 C   0  0  0  0  0  0  0  0  0  0  0  0
   -0.5509   63.6111   85.5997 C   0  0  0  0  0  0  0  0  0  0  0  0
    0.3753   63.8145   84.5455 C   0  0  0  0  0  0  0  0  0  0  0  0
    1.6395   64.6169   84.4689 C   0  0  0  0  0  0  0  0  0  0  0  0
    1.9343   65.0878   83.0100 C   0  0  0  0  0  0  0  0  0  0  0  0
    1.6740   66.5801   82.8994 C   0  0  0  0  0  0  0  0  0  0  0  0
    2.2972   67.4428   83.5046 O   0  0  0  0  0  0  0  0  0  0  0  0
    0.6017   66.7713   82.0845 N   0  0  0  0  0  0  0  0  0  0  0  0
    0.1017   65.5782   81.6461 C   0  0  0  0  0  0  0  0  0  0  0  0
   -0.9754   65.4334   81.0882 O   0  0  0  0  0  0  0  0  0  0  0  0
    1.0122   64.5669   81.9848 N   0  0  0  0  0  0  0  0  0  0  0  0
   -1.9626   62.1867   83.0866 H   0  0  0  0  0  0  0  0  0  0  0  0
   -1.1499   60.9278   78.8033 C   0  0  0  0  0  0  0  0  0  0  0  0
   -0.1055   61.8214   78.5708 C   0  0  0  0  0  0  0  0  0  0  0  0
    0.4628   62.5560   79.6184 C   0  0  0  0  0  0  0  0  0  0  0  0
   -0.0180   62.4408   80.9290 C   0  0  0  0  0  0  0  0  0  0  0  0
   -1.0368   61.4932   81.1540 C   0  0  0  0  0  0  0  0  0  0  0  0
   -1.6049   60.7556   80.1060 C   0  0  0  0  0  0  0  0  0  0  0  0
   -1.6014   60.2764   77.6914 O   0  0  0  0  0  0  0  0  0  0  0  0
   -3.3965   61.7549   77.0124 C   0  0  0  0  0  0  0  0  0  0  0  0
   -2.9910   60.3371   77.3758 C   0  0  0  0  0  0  0  0  0  0  0  0
   -0.0182   68.0503   81.8334 C   0  0  0  0  0  0  0  0  0  0  0  0
    0.9858   69.0472   81.3050 C   0  0  0  0  0  0  0  0  0  0  0  0
    1.7470   68.7518   80.1647 C   0  0  0  0  0  0  0  0  0  0  0  0
    2.6933   69.6616   79.6916 C   0  0  0  0  0  0  0  0  0  0  0  0
    2.8936   70.8699   80.3568 C   0  0  0  0  0  0  0  0  0  0  0  0
    2.1520   71.1679   81.4988 C   0  0  0  0  0  0  0  0  0  0  0  0
    1.2051   70.2597   81.9743 C   0  0  0  0  0  0  0  0  0  0  0  0
 27 28  1  0  0  0
 28 26  1  0  0  0
 26 20  1  0  0  0
 20 21  1  0  0  0
 21 22  2  0  0  0
 22 23  1  0  0  0
 23  1  1  0  0  0
  1  2  1  0  0  0
  2  3  1  0  0  0
  3  4  1  0  0  0
  4  5  2  0  0  0
  5  6  1  0  0  0
  6  7  2  0  0  0
  7  8  1  0  0  0
  8  9  2  0  0  0
  9 10  1  0  0  0
 10 11  1  0  0  0
 11 12  1  0  0  0
 12 13  1  0  0  0
 13 14  2  0  0  0
 13 15  1  0  0  0
 15 29  1  0  0  0
 29 30  1  0  0  0
 30 31  2  0  0  0
 31 32  1  0  0  0
 32 33  2  0  0  0
 33 34  1  0  0  0
 34 35  2  0  0  0
 15 16  1  0  0  0
 16 17  2  0  0  0
 16 18  1  0  0  0
 23 24  2  0  0  0
 24 25  1  0  0  0
 25 20  2  0  0  0
 18  1  1  0  0  0
 10  2  2  0  0  0
 18 12  1  0  0  0
  9  4  1  0  0  0
 35 30  1  0  0  0
  3 19  1  0  0  0
M  END
> <minimizedAffinity>
-9.35210

$$$$



 35 40  0  0  0  0  0  0  0  0999 V2000
    3.2756   67.4132   82.5425 C   0  0  0  0  0  0  0  0  0  0  0  0
    2.6015   68.7287   82.2822 C   0  0  0  0  0  0  0  0  0  0  0  0
    2.3686   69.7578   83.1487 N   0  0  0  0  0  0  0  0  0  0  0  0
    1.6890   70.7667   82.4965 C   0  0  0  0  0  0  0  0  0  0  0  0
    1.2732   72.0183   82.9664 C   0  0  0  0  0  0  0  0  0  0  0  0
    0.5664   72.8407   82.0840 C   0  0  0  0  0  0  0  0  0  0  0  0
    0.2798   72.4235   80.7860 C   0  0  0  0  0  0  0  0  0  0  0  0
    0.6951   71.1665   80.3314 C   0  0  0  0  0  0  0  0  0  0  0  0
    1.4185   70.3241   81.1972 C   0  0  0  0  0  0  0  0  0  0  0  0
    1.9655   69.0205   81.0880 C   0  0  0  0  0  0  0  0  0  0  0  0
    1.9064   68.0025   79.9889 C   0  0  0  0  0  0  0  0  0  0  0  0
    2.0398   66.5493   80.5432 C   0  0  0  0  0  0  0  0  0  0  0  0
    0.6922   65.8532   80.4626 C   0  0  0  0  0  0  0  0  0  0  0  0
    0.0982   65.6033   79.4217 O   0  0  0  0  0  0  0  0  0  0  0  0
    0.2449   65.6324   81.7282 N   0  0  0  0  0  0  0  0  0  0  0  0
    1.1299   66.1133   82.6507 C   0  0  0  0  0  0  0  0  0  0  0  0
    0.8941   66.2513   83.8413 O   0  0  0  0  0  0  0  0  0  0  0  0
    2.3181   66.4524   81.9874 N   0  0  0  0  0  0  0  0  0  0  0  0
    2.6243   69.7775   84.1273 H   0  0  0  0  0  0  0  0  0  0  0  0
    5.2389   66.7700   86.3833 C   0  0  0  0  0  0  0  0  0  0  0  0
    4.6414   65.7044   85.7119 C   0  0  0  0  0  0  0  0  0  0  0  0
    3.9963   65.8953   84.4841 C   0  0  0  0  0  0  0  0  0  0  0  0
    3.9033   67.1668   83.9039 C   0  0  0  0  0  0  0  0  0  0  0  0
    4.5599   68.2215   84.5694 C   0  0  0  0  0  0  0  0  0  0  0  0
    5.2078   68.0309   85.7977 C   0  0  0  0  0  0  0  0  0  0  0  0
    5.8359   66.4367   87.5653 O   0  0  0  0  0  0  0  0  0  0  0  0
    5.6517   65.4340   89.7631 C   0  0  0  0  0  0  0  0  0  0  0  0
    5.3591   65.2977   88.2790 C   0  0  0  0  0  0  0  0  0  0  0  0
   -1.0550   65.0972   82.0556 C   0  0  0  0  0  0  0  0  0  0  0  0
   -1.0706   63.5920   81.9322 C   0  0  0  0  0  0  0  0  0  0  0  0
   -2.2375   62.9245   81.5326 C   0  0  0  0  0  0  0  0  0  0  0  0
   -2.2599   61.5322   81.4439 C   0  0  0  0  0  0  0  0  0  0  0  0
   -1.1208   60.7941   81.7608 C   0  0  0  0  0  0  0  0  0  0  0  0
    0.0403   61.4465   82.1718 C   0  0  0  0  0  0  0  0  0  0  0  0
    0.0654   62.8389   82.2617 C   0  0  0  0  0  0  0  0  0  0  0  0
 27 28  1  0  0  0
 28 26  1  0  0  0
 26 20  1  0  0  0
 20 21  1  0  0  0
 21 22  2  0  0  0
 22 23  1  0  0  0
 23  1  1  0  0  0
  1  2  1  0  0  0
  2  3  1  0  0  0
  3  4  1  0  0  0
  4  5  2  0  0  0
  5  6  1  0  0  0
  6  7  2  0  0  0
  7  8  1  0  0  0
  8  9  2  0  0  0
  9 10  1  0  0  0
 10 11  1  0  0  0
 11 12  1  0  0  0
 12 13  1  0  0  0
 13 14  2  0  0  0
 13 15  1  0  0  0
 15 29  1  0  0  0
 29 30  1  0  0  0
 30 31  2  0  0  0
 31 32  1  0  0  0
 32 33  2  0  0  0
 33 34  1  0  0  0
 34 35  2  0  0  0
 15 16  1  0  0  0
 16 17  2  0  0  0
 16 18  1  0  0  0
 23 24  2  0  0  0
 24 25  1  0  0  0
 25 20  2  0  0  0
 18  1  1  0  0  0
 10  2  2  0  0  0
 18 12  1  0  0  0
  9  4  1  0  0  0
 35 30  1  0  0  0
  3 19  1  0  0  0
M  END
> <minimizedAffinity>
-8.91026

$$$$



 35 40  0  0  0  0  0  0  0  0999 V2000
    1.9138   68.0109   83.6145 C   0  0  0  0  0  0  0  0  0  0  0  0
    3.2420   67.4452   84.0253 C   0  0  0  0  0  0  0  0  0  0  0  0
    4.4915   67.8037   83.6079 N   0  0  0  0  0  0  0  0  0  0  0  0
    5.4318   66.9988   84.2185 C   0  0  0  0  0  0  0  0  0  0  0  0
    6.8286   67.0216   84.1264 C   0  0  0  0  0  0  0  0  0  0  0  0
    7.5420   66.0549   84.8413 C   0  0  0  0  0  0  0  0  0  0  0  0
    6.8833   65.0983   85.6107 C   0  0  0  0  0  0  0  0  0  0  0  0
    5.4858   65.0823   85.6881 C   0  0  0  0  0  0  0  0  0  0  0  0
    4.7447   66.0525   84.9864 C   0  0  0  0  0  0  0  0  0  0  0  0
    3.3620   66.3212   84.8240 C   0  0  0  0  0  0  0  0  0  0  0  0
    2.1413   65.5957   85.3052 C   0  0  0  0  0  0  0  0  0  0  0  0
    0.9200   65.8378   84.3635 C   0  0  0  0  0  0  0  0  0  0  0  0
    0.6385   64.5750   83.5679 C   0  0  0  0  0  0  0  0  0  0  0  0
    0.2909   63.5072   84.0555 O   0  0  0  0  0  0  0  0  0  0  0  0
    0.9092   64.8219   82.2578 N   0  0  0  0  0  0  0  0  0  0  0  0
    1.3545   66.1013   82.0830 C   0  0  0  0  0  0  0  0  0  0  0  0
    1.8746   66.5281   81.0634 O   0  0  0  0  0  0  0  0  0  0  0  0
    1.1486   66.8073   83.2770 N   0  0  0  0  0  0  0  0  0  0  0  0
    4.7058   68.5269   82.9338 H   0  0  0  0  0  0  0  0  0  0  0  0
    1.8425   71.5880   81.1206 C   0  0  0  0  0  0  0  0  0  0  0  0
    0.7786   70.6877   81.0893 C   0  0  0  0  0  0  0  0  0  0  0  0
    0.7906   69.5284   81.8742 C   0  0  0  0  0  0  0  0  0  0  0  0
    1.8836   69.2188   82.6936 C   0  0  0  0  0  0  0  0  0  0  0  0
    2.9248   70.1668   82.7538 C   0  0  0  0  0  0  0  0  0  0  0  0
    2.9127   71.3289   81.9700 C   0  0  0  0  0  0  0  0  0  0  0  0
    1.6928   72.6762   80.3096 O   0  0  0  0  0  0  0  0  0  0  0  0
    0.6620   74.3124   81.7690 C   0  0  0  0  0  0  0  0  0  0  0  0
    0.5497   73.5113   80.4837 C   0  0  0  0  0  0  0  0  0  0  0  0
    0.8741   63.8269   81.2128 C   0  0  0  0  0  0  0  0  0  0  0  0
   -0.3887   63.0019   81.2891 C   0  0  0  0  0  0  0  0  0  0  0  0
   -1.6435   63.6268   81.3316 C   0  0  0  0  0  0  0  0  0  0  0  0
   -2.8090   62.8657   81.4285 C   0  0  0  0  0  0  0  0  0  0  0  0
   -2.7317   61.4756   81.4921 C   0  0  0  0  0  0  0  0  0  0  0  0
   -1.4890   60.8448   81.4641 C   0  0  0  0  0  0  0  0  0  0  0  0
   -0.3218   61.6035   81.3674 C   0  0  0  0  0  0  0  0  0  0  0  0
 27 28  1  0  0  0
 28 26  1  0  0  0
 26 20  1  0  0  0
 20 21  1  0  0  0
 21 22  2  0  0  0
 22 23  1  0  0  0
 23  1  1  0  0  0
  1  2  1  0  0  0
  2  3  1  0  0  0
  3  4  1  0  0  0
  4  5  2  0  0  0
  5  6  1  0  0  0
  6  7  2  0  0  0
  7  8  1  0  0  0
  8  9  2  0  0  0
  9 10  1  0  0  0
 10 11  1  0  0  0
 11 12  1  0  0  0
 12 13  1  0  0  0
 13 14  2  0  0  0
 13 15  1  0  0  0
 15 29  1  0  0  0
 29 30  1  0  0  0
 30 31  2  0  0  0
 31 32  1  0  0  0
 32 33  2  0  0  0
 33 34  1  0  0  0
 34 35  2  0  0  0
 15 16  1  0  0  0
 16 17  2  0  0  0
 16 18  1  0  0  0
 23 24  2  0  0  0
 24 25  1  0  0  0
 25 20  2  0  0  0
 18  1  1  0  0  0
 10  2  2  0  0  0
 18 12  1  0  0  0
  9  4  1  0  0  0
 35 30  1  0  0  0
  3 19  1  0  0  0
M  END
> <minimizedAffinity>
-8.83475

$$$$



 35 40  0  0  0  0  0  0  0  0999 V2000
    1.0104   64.5468   81.2188 C   0  0  0  0  0  0  0  0  0  0  0  0
    0.4521   64.2307   82.5758 C   0  0  0  0  0  0  0  0  0  0  0  0
   -0.7257   63.6189   82.8959 N   0  0  0  0  0  0  0  0  0  0  0  0
   -0.8577   63.5591   84.2686 C   0  0  0  0  0  0  0  0  0  0  0  0
   -1.8729   62.9930   85.0488 C   0  0  0  0  0  0  0  0  0  0  0  0
   -1.7632   63.1059   86.4380 C   0  0  0  0  0  0  0  0  0  0  0  0
   -0.6848   63.7666   87.0224 C   0  0  0  0  0  0  0  0  0  0  0  0
    0.3196   64.3346   86.2302 C   0  0  0  0  0  0  0  0  0  0  0  0
    0.2381   64.2245   84.8288 C   0  0  0  0  0  0  0  0  0  0  0  0
    1.0365   64.6777   83.7482 C   0  0  0  0  0  0  0  0  0  0  0  0
    2.2678   65.5321   83.7071 C   0  0  0  0  0  0  0  0  0  0  0  0
    2.3884   66.3023   82.3546 C   0  0  0  0  0  0  0  0  0  0  0  0
    2.0875   67.7734   82.5835 C   0  0  0  0  0  0  0  0  0  0  0  0
    2.7568   68.5205   83.2854 O   0  0  0  0  0  0  0  0  0  0  0  0
    0.9273   68.0806   81.9432 N   0  0  0  0  0  0  0  0  0  0  0  0
    0.4055   66.9816   81.3222 C   0  0  0  0  0  0  0  0  0  0  0  0
   -0.7240   66.9077   80.8628 O   0  0  0  0  0  0  0  0  0  0  0  0
    1.3683   65.9623   81.3465 N   0  0  0  0  0  0  0  0  0  0  0  0
   -1.4165   63.2828   82.2377 H   0  0  0  0  0  0  0  0  0  0  0  0
   -1.0429   62.9629   77.7124 C   0  0  0  0  0  0  0  0  0  0  0  0
   -0.1588   64.0333   77.5857 C   0  0  0  0  0  0  0  0  0  0  0  0
    0.4995   64.5619   78.7025 C   0  0  0  0  0  0  0  0  0  0  0  0
    0.2696   64.0539   79.9874 C   0  0  0  0  0  0  0  0  0  0  0  0
   -0.5849   62.9376   80.0889 C   0  0  0  0  0  0  0  0  0  0  0  0
   -1.2427   62.4062   78.9709 C   0  0  0  0  0  0  0  0  0  0  0  0
   -1.6072   62.5475   76.5404 O   0  0  0  0  0  0  0  0  0  0  0  0
   -3.5000   61.0411   76.4080 C   0  0  0  0  0  0  0  0  0  0  0  0
   -1.9876   61.1793   76.4076 C   0  0  0  0  0  0  0  0  0  0  0  0
    0.2577   69.3563   82.0290 C   0  0  0  0  0  0  0  0  0  0  0  0
    1.1864   70.4850   81.6487 C   0  0  0  0  0  0  0  0  0  0  0  0
    2.0408   70.3597   80.5437 C   0  0  0  0  0  0  0  0  0  0  0  0
    2.9176   71.3919   80.2077 C   0  0  0  0  0  0  0  0  0  0  0  0
    2.9549   72.5540   80.9763 C   0  0  0  0  0  0  0  0  0  0  0  0
    2.1196   72.6836   82.0846 C   0  0  0  0  0  0  0  0  0  0  0  0
    1.2419   71.6528   82.4230 C   0  0  0  0  0  0  0  0  0  0  0  0
 27 28  1  0  0  0
 28 26  1  0  0  0
 26 20  1  0  0  0
 20 21  1  0  0  0
 21 22  2  0  0  0
 22 23  1  0  0  0
 23  1  1  0  0  0
  1  2  1  0  0  0
  2  3  1  0  0  0
  3  4  1  0  0  0
  4  5  2  0  0  0
  5  6  1  0  0  0
  6  7  2  0  0  0
  7  8  1  0  0  0
  8  9  2  0  0  0
  9 10  1  0  0  0
 10 11  1  0  0  0
 11 12  1  0  0  0
 12 13  1  0  0  0
 13 14  2  0  0  0
 13 15  1  0  0  0
 15 29  1  0  0  0
 29 30  1  0  0  0
 30 31  2  0  0  0
 31 32  1  0  0  0
 32 33  2  0  0  0
 33 34  1  0  0  0
 34 35  2  0  0  0
 15 16  1  0  0  0
 16 17  2  0  0  0
 16 18  1  0  0  0
 23 24  2  0  0  0
 24 25  1  0  0  0
 25 20  2  0  0  0
 18  1  1  0  0  0
 10  2  2  0  0  0
 18 12  1  0  0  0
  9  4  1  0  0  0
 35 30  1  0  0  0
  3 19  1  0  0  0
M  END
> <minimizedAffinity>
-8.73791

$$$$



 35 40  0  0  0  0  0  0  0  0999 V2000
    2.5799   67.1226   82.1393 C   0  0  0  0  0  0  0  0  0  0  0  0
    1.7409   68.3264   81.8233 C   0  0  0  0  0  0  0  0  0  0  0  0
    1.4162   69.3795   82.6294 N   0  0  0  0  0  0  0  0  0  0  0  0
    0.5949   70.2510   81.9433 C   0  0  0  0  0  0  0  0  0  0  0  0
    0.0470   71.4743   82.3477 C   0  0  0  0  0  0  0  0  0  0  0  0
   -0.7872   72.1415   81.4457 C   0  0  0  0  0  0  0  0  0  0  0  0
   -1.0685   71.6018   80.1925 C   0  0  0  0  0  0  0  0  0  0  0  0
   -0.5199   70.3742   79.8039 C   0  0  0  0  0  0  0  0  0  0  0  0
    0.3326   69.6879   80.6898 C   0  0  0  0  0  0  0  0  0  0  0  0
    1.0303   68.4545   80.6424 C   0  0  0  0  0  0  0  0  0  0  0  0
    1.0553   67.3610   79.6170 C   0  0  0  0  0  0  0  0  0  0  0  0
    1.3857   65.9772   80.2597 C   0  0  0  0  0  0  0  0  0  0  0  0
    0.1312   65.1214   80.2866 C   0  0  0  0  0  0  0  0  0  0  0  0
   -0.4660   64.7289   79.2926 O   0  0  0  0  0  0  0  0  0  0  0  0
   -0.2387   64.9395   81.5830 N   0  0  0  0  0  0  0  0  0  0  0  0
    0.6146   65.5871   82.4305 C   0  0  0  0  0  0  0  0  0  0  0  0
    0.4078   65.7803   83.6189 O   0  0  0  0  0  0  0  0  0  0  0  0
    1.7270   66.0173   81.6931 N   0  0  0  0  0  0  0  0  0  0  0  0
    1.7038   69.4991   83.5919 H   0  0  0  0  0  0  0  0  0  0  0  0
    4.7457   66.9990   85.9227 C   0  0  0  0  0  0  0  0  0  0  0  0
    4.2934   65.8198   85.3326 C   0  0  0  0  0  0  0  0  0  0  0  0
    3.5860   65.8422   84.1246 C   0  0  0  0  0  0  0  0  0  0  0  0
    3.2829   67.0505   83.4841 C   0  0  0  0  0  0  0  0  0  0  0  0
    3.7950   68.2274   84.0665 C   0  0  0  0  0  0  0  0  0  0  0  0
    4.5052   68.2057   85.2748 C   0  0  0  0  0  0  0  0  0  0  0  0
    5.4254   66.8263   87.0942 O   0  0  0  0  0  0  0  0  0  0  0  0
    5.7182   65.4322   89.0540 C   0  0  0  0  0  0  0  0  0  0  0  0
    5.7064   65.4998   87.5368 C   0  0  0  0  0  0  0  0  0  0  0  0
   -1.4504   64.2777   82.0037 C   0  0  0  0  0  0  0  0  0  0  0  0
   -1.2059   63.4164   83.2200 C   0  0  0  0  0  0  0  0  0  0  0  0
   -0.0665   62.6022   83.2959 C   0  0  0  0  0  0  0  0  0  0  0  0
    0.1463   61.7865   84.4079 C   0  0  0  0  0  0  0  0  0  0  0  0
   -0.7798   61.7705   85.4494 C   0  0  0  0  0  0  0  0  0  0  0  0
   -1.9223   62.5657   85.3782 C   0  0  0  0  0  0  0  0  0  0  0  0
   -2.1378   63.3822   84.2672 C   0  0  0  0  0  0  0  0  0  0  0  0
 27 28  1  0  0  0
 28 26  1  0  0  0
 26 20  1  0  0  0
 20 21  1  0  0  0
 21 22  2  0  0  0
 22 23  1  0  0  0
 23  1  1  0  0  0
  1  2  1  0  0  0
  2  3  1  0  0  0
  3  4  1  0  0  0
  4  5  2  0  0  0
  5  6  1  0  0  0
  6  7  2  0  0  0
  7  8  1  0  0  0
  8  9  2  0  0  0
  9 10  1  0  0  0
 10 11  1  0  0  0
 11 12  1  0  0  0
 12 13  1  0  0  0
 13 14  2  0  0  0
 13 15  1  0  0  0
 15 29  1  0  0  0
 29 30  1  0  0  0
 30 31  2  0  0  0
 31 32  1  0  0  0
 32 33  2  0  0  0
 33 34  1  0  0  0
 34 35  2  0  0  0
 15 16  1  0  0  0
 16 17  2  0  0  0
 16 18  1  0  0  0
 23 24  2  0  0  0
 24 25  1  0  0  0
 25 20  2  0  0  0
 18  1  1  0  0  0
 10  2  2  0  0  0
 18 12  1  0  0  0
  9  4  1  0  0  0
 35 30  1  0  0  0
  3 19  1  0  0  0
M  END
> <minimizedAffinity>
-8.58194

$$$$



 35 40  0  0  0  0  0  0  0  0999 V2000
    2.0619   68.5964   83.3087 C   0  0  0  0  0  0  0  0  0  0  0  0
    1.4392   67.8478   82.1665 C   0  0  0  0  0  0  0  0  0  0  0  0
    1.7943   66.6393   81.6396 N   0  0  0  0  0  0  0  0  0  0  0  0
    0.9705   66.3396   80.5735 C   0  0  0  0  0  0  0  0  0  0  0  0
    0.9354   65.2017   79.7586 C   0  0  0  0  0  0  0  0  0  0  0  0
    0.0026   65.1776   78.7175 C   0  0  0  0  0  0  0  0  0  0  0  0
   -0.8548   66.2530   78.4957 C   0  0  0  0  0  0  0  0  0  0  0  0
   -0.8040   67.3878   79.3135 C   0  0  0  0  0  0  0  0  0  0  0  0
    0.1189   67.4318   80.3761 C   0  0  0  0  0  0  0  0  0  0  0  0
    0.4522   68.3930   81.3637 C   0  0  0  0  0  0  0  0  0  0  0  0
   -0.0309   69.7931   81.5966 C   0  0  0  0  0  0  0  0  0  0  0  0
    1.0472   70.6608   82.3190 C   0  0  0  0  0  0  0  0  0  0  0  0
    1.6376   71.6547   81.3337 C   0  0  0  0  0  0  0  0  0  0  0  0
    1.0087   72.5523   80.7883 O   0  0  0  0  0  0  0  0  0  0  0  0
    2.9398   71.3258   81.1180 N   0  0  0  0  0  0  0  0  0  0  0  0
    3.2890   70.2160   81.8336 C   0  0  0  0  0  0  0  0  0  0  0  0
    4.3141   69.5719   81.6702 O   0  0  0  0  0  0  0  0  0  0  0  0
    2.2578   69.9333   82.7408 N   0  0  0  0  0  0  0  0  0  0  0  0
    2.5595   66.0576   81.9550 H   0  0  0  0  0  0  0  0  0  0  0  0
    5.1280   66.5872   85.6714 C   0  0  0  0  0  0  0  0  0  0  0  0
    4.9886   67.9729   85.7328 C   0  0  0  0  0  0  0  0  0  0  0  0
    4.0178   68.6352   84.9719 C   0  0  0  0  0  0  0  0  0  0  0  0
    3.1748   67.9324   84.1016 C   0  0  0  0  0  0  0  0  0  0  0  0
    3.2935   66.5280   84.0937 C   0  0  0  0  0  0  0  0  0  0  0  0
    4.2638   65.8639   84.8568 C   0  0  0  0  0  0  0  0  0  0  0  0
    6.1103   66.0768   86.4709 O   0  0  0  0  0  0  0  0  0  0  0  0
    5.5955   65.5064   88.7685 C   0  0  0  0  0  0  0  0  0  0  0  0
    5.7909   65.0002   87.3501 C   0  0  0  0  0  0  0  0  0  0  0  0
    3.7977   71.9695   80.1522 C   0  0  0  0  0  0  0  0  0  0  0  0
    4.5564   73.1162   80.7772 C   0  0  0  0  0  0  0  0  0  0  0  0
    4.0691   73.7438   81.9328 C   0  0  0  0  0  0  0  0  0  0  0  0
    4.7561   74.8201   82.4955 C   0  0  0  0  0  0  0  0  0  0  0  0
    5.9303   75.2843   81.9052 C   0  0  0  0  0  0  0  0  0  0  0  0
    6.4164   74.6764   80.7489 C   0  0  0  0  0  0  0  0  0  0  0  0
    5.7313   73.5999   80.1839 C   0  0  0  0  0  0  0  0  0  0  0  0
 27 28  1  0  0  0
 28 26  1  0  0  0
 26 20  1  0  0  0
 20 21  1  0  0  0
 21 22  2  0  0  0
 22 23  1  0  0  0
 23  1  1  0  0  0
  1  2  1  0  0  0
  2  3  1  0  0  0
  3  4  1  0  0  0
  4  5  2  0  0  0
  5  6  1  0  0  0
  6  7  2  0  0  0
  7  8  1  0  0  0
  8  9  2  0  0  0
  9 10  1  0  0  0
 10 11  1  0  0  0
 11 12  1  0  0  0
 12 13  1  0  0  0
 13 14  2  0  0  0
 13 15  1  0  0  0
 15 29  1  0  0  0
 29 30  1  0  0  0
 30 31  2  0  0  0
 31 32  1  0  0  0
 32 33  2  0  0  0
 33 34  1  0  0  0
 34 35  2  0  0  0
 15 16  1  0  0  0
 16 17  2  0  0  0
 16 18  1  0  0  0
 23 24  2  0  0  0
 24 25  1  0  0  0
 25 20  2  0  0  0
 18  1  1  0  0  0
 10  2  2  0  0  0
 18 12  1  0  0  0
  9  4  1  0  0  0
 35 30  1  0  0  0
  3 19  1  0  0  0
M  END
> <minimizedAffinity>
-8.40946

$$$$



 35 40  0  0  0  0  0  0  0  0999 V2000
    0.0084   65.3026   83.4121 C   0  0  0  0  0  0  0  0  0  0  0  0
    0.1489   64.7769   82.0132 C   0  0  0  0  0  0  0  0  0  0  0  0
    0.2459   63.4823   81.5907 N   0  0  0  0  0  0  0  0  0  0  0  0
    0.3939   63.4534   80.2187 C   0  0  0  0  0  0  0  0  0  0  0  0
    0.4932   62.3604   79.3495 C   0  0  0  0  0  0  0  0  0  0  0  0
    0.6698   62.6275   77.9886 C   0  0  0  0  0  0  0  0  0  0  0  0
    0.7524   63.9361   77.5177 C   0  0  0  0  0  0  0  0  0  0  0  0
    0.6591   65.0196   78.3988 C   0  0  0  0  0  0  0  0  0  0  0  0
    0.4696   64.7773   79.7729 C   0  0  0  0  0  0  0  0  0  0  0  0
    0.3531   65.6017   80.9206 C   0  0  0  0  0  0  0  0  0  0  0  0
    0.4646   67.0863   81.0982 C   0  0  0  0  0  0  0  0  0  0  0  0
    0.9347   67.4593   82.5394 C   0  0  0  0  0  0  0  0  0  0  0  0
    2.3721   67.9479   82.4903 C   0  0  0  0  0  0  0  0  0  0  0  0
    2.7458   68.9556   81.9042 O   0  0  0  0  0  0  0  0  0  0  0  0
    3.1567   67.0438   83.1364 N   0  0  0  0  0  0  0  0  0  0  0  0
    2.4144   65.9959   83.6016 C   0  0  0  0  0  0  0  0  0  0  0  0
    2.8737   64.9445   84.0210 O   0  0  0  0  0  0  0  0  0  0  0  0
    1.0573   66.3246   83.4721 N   0  0  0  0  0  0  0  0  0  0  0  0
    0.2403   62.6635   82.1847 H   0  0  0  0  0  0  0  0  0  0  0  0
   -0.6664   62.4800   86.6674 C   0  0  0  0  0  0  0  0  0  0  0  0
    0.0371   63.6616   86.8958 C   0  0  0  0  0  0  0  0  0  0  0  0
    0.2733   64.5730   85.8596 C   0  0  0  0  0  0  0  0  0  0  0  0
   -0.1624   64.3149   84.5536 C   0  0  0  0  0  0  0  0  0  0  0  0
   -0.9185   63.1425   84.3531 C   0  0  0  0  0  0  0  0  0  0  0  0
   -1.1574   62.2305   85.3905 C   0  0  0  0  0  0  0  0  0  0  0  0
   -0.8271   61.6898   87.7693 O   0  0  0  0  0  0  0  0  0  0  0  0
    0.4880   62.1996   89.7391 C   0  0  0  0  0  0  0  0  0  0  0  0
   -0.8644   62.3038   89.0561 C   0  0  0  0  0  0  0  0  0  0  0  0
    4.5976   67.1048   83.1959 C   0  0  0  0  0  0  0  0  0  0  0  0
    5.0933   66.8939   84.6069 C   0  0  0  0  0  0  0  0  0  0  0  0
    5.7462   65.7038   84.9595 C   0  0  0  0  0  0  0  0  0  0  0  0
    6.1811   65.4978   86.2693 C   0  0  0  0  0  0  0  0  0  0  0  0
    5.9609   66.4737   87.2396 C   0  0  0  0  0  0  0  0  0  0  0  0
    5.3012   67.6546   86.9032 C   0  0  0  0  0  0  0  0  0  0  0  0
    4.8650   67.8632   85.5941 C   0  0  0  0  0  0  0  0  0  0  0  0
 27 28  1  0  0  0
 28 26  1  0  0  0
 26 20  1  0  0  0
 20 21  1  0  0  0
 21 22  2  0  0  0
 22 23  1  0  0  0
 23  1  1  0  0  0
  1  2  1  0  0  0
  2  3  1  0  0  0
  3  4  1  0  0  0
  4  5  2  0  0  0
  5  6  1  0  0  0
  6  7  2  0  0  0
  7  8  1  0  0  0
  8  9  2  0  0  0
  9 10  1  0  0  0
 10 11  1  0  0  0
 11 12  1  0  0  0
 12 13  1  0  0  0
 13 14  2  0  0  0
 13 15  1  0  0  0
 15 29  1  0  0  0
 29 30  1  0  0  0
 30 31  2  0  0  0
 31 32  1  0  0  0
 32 33  2  0  0  0
 33 34  1  0  0  0
 34 35  2  0  0  0
 15 16  1  0  0  0
 16 17  2  0  0  0
 16 18  1  0  0  0
 23 24  2  0  0  0
 24 25  1  0  0  0
 25 20  2  0  0  0
 18  1  1  0  0  0
 10  2  2  0  0  0
 18 12  1  0  0  0
  9  4  1  0  0  0
 35 30  1  0  0  0
  3 19  1  0  0  0
M  END
> <minimizedAffinity>
-8.32781

$$$$
