


 27 30  0  0  0  0  0  0  0  0999 V2000
   -1.2970   62.2632   84.0937 C   0  0  0  0  0  0  0  0  0  0  0  0
   -0.7480   63.0522   83.0884 C   0  0  0  0  0  0  0  0  0  0  0  0
    0.0406   64.1642   83.4236 C   0  0  0  0  0  0  0  0  0  0  0  0
    0.6413   64.9797   82.3467 C   0  0  0  0  0  0  0  0  0  0  0  0
    0.4065   64.7063   81.1721 O   0  0  0  0  0  0  0  0  0  0  0  0
    1.4460   66.0296   82.7515 N   0  0  0  0  0  0  0  0  0  0  0  0
    1.6480   66.2889   84.0814 C   0  0  0  0  0  0  0  0  0  0  0  0
    1.1260   65.6232   85.0530 N   0  0  0  0  0  0  0  0  0  0  0  0
    0.2941   64.5268   84.7532 C   0  0  0  0  0  0  0  0  0  0  0  0
   -0.2831   63.7459   85.7723 C   0  0  0  0  0  0  0  0  0  0  0  0
   -1.0681   62.6242   85.4316 C   0  0  0  0  0  0  0  0  0  0  0  0
   -2.7015   61.0239   82.6164 C   0  0  0  0  0  0  0  0  0  0  0  0
   -2.0701   61.1521   83.8838 O   0  0  0  0  0  0  0  0  0  0  0  0
   -0.1007   63.9455   87.1217 O   0  0  0  0  0  0  0  0  0  0  0  0
    1.1815   63.6059   87.6352 C   0  0  0  0  0  0  0  0  0  0  0  0
   -1.5693   61.8222   86.4354 O   0  0  0  0  0  0  0  0  0  0  0  0
   -2.7666   62.3910   86.9621 C   0  0  0  0  0  0  0  0  0  0  0  0
    2.0925   66.8613   81.7477 C   0  0  0  0  0  0  0  0  0  0  0  0
    1.3195   68.1358   81.4866 C   0  0  0  0  0  0  0  0  0  0  0  0
    0.3596   68.1823   80.4476 C   0  0  0  0  0  0  0  0  0  0  0  0
   -0.3527   69.3543   80.1745 C   0  0  0  0  0  0  0  0  0  0  0  0
   -0.0855   70.4611   80.9487 C   0  0  0  0  0  0  0  0  0  0  0  0
    0.8465   70.4287   81.9582 C   0  0  0  0  0  0  0  0  0  0  0  0
    1.5647   69.2882   82.2520 C   0  0  0  0  0  0  0  0  0  0  0  0
    0.9600   71.6229   82.5989 O   0  0  0  0  0  0  0  0  0  0  0  0
   -0.0044   72.4128   81.8713 C   0  0  0  0  0  0  0  0  0  0  0  0
   -0.6766   71.6793   80.8268 O   0  0  0  0  0  0  0  0  0  0  0  0
 12 13  1  0  0  0
 13  1  1  0  0  0
  1  2  2  0  0  0
  2  3  1  0  0  0
  3  4  1  0  0  0
  4  5  2  0  0  0
  4  6  1  0  0  0
  6 18  1  0  0  0
 18 19  1  0  0  0
 19 20  1  0  0  0
 20 21  2  0  0  0
 21 22  1  0  0  0
 22 23  2  0  0  0
 23 24  1  0  0  0
 23 25  1  0  0  0
 25 26  1  0  0  0
 26 27  1  0  0  0
  6  7  1  0  0  0
  7  8  2  0  0  0
  8  9  1  0  0  0
  9 10  1  0  0  0
 10 14  1  0  0  0
 14 15  1  0  0  0
 10 11  2  0  0  0
 11 16  1  0  0  0
 16 17  1  0  0  0
 11  1  1  0  0  0
  9  3  2  0  0  0
 24 19  2  0  0  0
 27 22  1  0  0  0
M  END
> <minimizedAffinity>
-8.94588

$$$$



 27 30  0  0  0  0  0  0  0  0999 V2000
   -1.2697   62.3507   84.1628 C   0  0  0  0  0  0  0  0  0  0  0  0
   -0.7381   63.1300   83.1408 C   0  0  0  0  0  0  0  0  0  0  0  0
    0.0630   64.2401   83.4517 C   0  0  0  0  0  0  0  0  0  0  0  0
    0.6449   65.0452   82.3568 C   0  0  0  0  0  0  0  0  0  0  0  0
    0.3838   64.7653   81.1893 O   0  0  0  0  0  0  0  0  0  0  0  0
    1.4634   66.0936   82.7373 N   0  0  0  0  0  0  0  0  0  0  0  0
    1.6950   66.3606   84.0609 C   0  0  0  0  0  0  0  0  0  0  0  0
    1.1904   65.7042   85.0478 N   0  0  0  0  0  0  0  0  0  0  0  0
    0.3466   64.6102   84.7731 C   0  0  0  0  0  0  0  0  0  0  0  0
   -0.2128   63.8391   85.8095 C   0  0  0  0  0  0  0  0  0  0  0  0
   -1.0105   62.7193   85.4931 C   0  0  0  0  0  0  0  0  0  0  0  0
   -2.2885   60.8244   82.6386 C   0  0  0  0  0  0  0  0  0  0  0  0
   -2.0528   61.2423   83.9769 O   0  0  0  0  0  0  0  0  0  0  0  0
   -0.0007   64.0467   87.1533 O   0  0  0  0  0  0  0  0  0  0  0  0
    1.2454   63.5916   87.6662 C   0  0  0  0  0  0  0  0  0  0  0  0
   -1.4944   61.9266   86.5127 O   0  0  0  0  0  0  0  0  0  0  0  0
   -2.7422   62.4378   86.9776 C   0  0  0  0  0  0  0  0  0  0  0  0
    2.0927   66.9151   81.7144 C   0  0  0  0  0  0  0  0  0  0  0  0
    1.8360   68.3899   81.9370 C   0  0  0  0  0  0  0  0  0  0  0  0
    2.7845   69.1772   82.6324 C   0  0  0  0  0  0  0  0  0  0  0  0
    2.5603   70.5374   82.8676 C   0  0  0  0  0  0  0  0  0  0  0  0
    1.3845   71.0824   82.4026 C   0  0  0  0  0  0  0  0  0  0  0  0
    0.4548   70.3269   81.7289 C   0  0  0  0  0  0  0  0  0  0  0  0
    0.6471   68.9837   81.4811 C   0  0  0  0  0  0  0  0  0  0  0  0
   -0.6336   71.0527   81.3575 O   0  0  0  0  0  0  0  0  0  0  0  0
   -0.2841   72.3516   81.8811 C   0  0  0  0  0  0  0  0  0  0  0  0
    0.9990   72.3788   82.5398 O   0  0  0  0  0  0  0  0  0  0  0  0
 12 13  1  0  0  0
 13  1  1  0  0  0
  1  2  2  0  0  0
  2  3  1  0  0  0
  3  4  1  0  0  0
  4  5  2  0  0  0
  4  6  1  0  0  0
  6 18  1  0  0  0
 18 19  1  0  0  0
 19 20  1  0  0  0
 20 21  2  0  0  0
 21 22  1  0  0  0
 22 23  2  0  0  0
 23 24  1  0  0  0
 23 25  1  0  0  0
 25 26  1  0  0  0
 26 27  1  0  0  0
  6  7  1  0  0  0
  7  8  2  0  0  0
  8  9  1  0  0  0
  9 10  1  0  0  0
 10 14  1  0  0  0
 14 15  1  0  0  0
 10 11  2  0  0  0
 11 16  1  0  0  0
 16 17  1  0  0  0
 11  1  1  0  0  0
  9  3  2  0  0  0
 24 19  2  0  0  0
 27 22  1  0  0  0
M  END
> <minimizedAffinity>
-8.87961

$$$$



 27 30  0  0  0  0  0  0  0  0999 V2000
   -0.1535   63.6564   86.2797 C   0  0  0  0  0  0  0  0  0  0  0  0
    0.6657   64.6284   85.7152 C   0  0  0  0  0  0  0  0  0  0  0  0
    0.6556   64.8315   84.3261 C   0  0  0  0  0  0  0  0  0  0  0  0
    1.5104   65.8858   83.7401 C   0  0  0  0  0  0  0  0  0  0  0  0
    2.2550   66.5402   84.4659 O   0  0  0  0  0  0  0  0  0  0  0  0
    1.4119   66.0620   82.3714 N   0  0  0  0  0  0  0  0  0  0  0  0
    0.5737   65.2812   81.6202 C   0  0  0  0  0  0  0  0  0  0  0  0
   -0.1690   64.3353   82.0821 N   0  0  0  0  0  0  0  0  0  0  0  0
   -0.1517   64.0748   83.4662 C   0  0  0  0  0  0  0  0  0  0  0  0
   -0.9611   63.0720   84.0324 C   0  0  0  0  0  0  0  0  0  0  0  0
   -0.9546   62.8765   85.4296 C   0  0  0  0  0  0  0  0  0  0  0  0
    0.9862   63.3005   88.3449 C   0  0  0  0  0  0  0  0  0  0  0  0
   -0.2336   63.3803   87.6189 O   0  0  0  0  0  0  0  0  0  0  0  0
   -1.8352   62.2717   83.3327 O   0  0  0  0  0  0  0  0  0  0  0  0
   -1.2528   61.1939   82.6101 C   0  0  0  0  0  0  0  0  0  0  0  0
   -1.8044   61.9421   85.9835 O   0  0  0  0  0  0  0  0  0  0  0  0
   -2.9628   62.5873   86.5092 C   0  0  0  0  0  0  0  0  0  0  0  0
    2.2040   67.0984   81.7267 C   0  0  0  0  0  0  0  0  0  0  0  0
    1.4058   68.3653   81.5070 C   0  0  0  0  0  0  0  0  0  0  0  0
    0.4229   68.4162   80.4899 C   0  0  0  0  0  0  0  0  0  0  0  0
   -0.3133   69.5818   80.2550 C   0  0  0  0  0  0  0  0  0  0  0  0
   -0.0466   70.6777   81.0447 C   0  0  0  0  0  0  0  0  0  0  0  0
    0.9076   70.6408   82.0331 C   0  0  0  0  0  0  0  0  0  0  0  0
    1.6496   69.5066   82.2893 C   0  0  0  0  0  0  0  0  0  0  0  0
    1.0164   71.8242   82.6944 O   0  0  0  0  0  0  0  0  0  0  0  0
    0.0243   72.6125   82.0031 C   0  0  0  0  0  0  0  0  0  0  0  0
   -0.6590   71.8884   80.9592 O   0  0  0  0  0  0  0  0  0  0  0  0
 12 13  1  0  0  0
 13  1  1  0  0  0
  1  2  2  0  0  0
  2  3  1  0  0  0
  3  4  1  0  0  0
  4  5  2  0  0  0
  4  6  1  0  0  0
  6 18  1  0  0  0
 18 19  1  0  0  0
 19 20  1  0  0  0
 20 21  2  0  0  0
 21 22  1  0  0  0
 22 23  2  0  0  0
 23 24  1  0  0  0
 23 25  1  0  0  0
 25 26  1  0  0  0
 26 27  1  0  0  0
  6  7  1  0  0  0
  7  8  2  0  0  0
  8  9  1  0  0  0
  9 10  1  0  0  0
 10 14  1  0  0  0
 14 15  1  0  0  0
 10 11  2  0  0  0
 11 16  1  0  0  0
 16 17  1  0  0  0
 11  1  1  0  0  0
  9  3  2  0  0  0
 24 19  2  0  0  0
 27 22  1  0  0  0
M  END
> <minimizedAffinity>
-8.62254

$$$$



 27 30  0  0  0  0  0  0  0  0999 V2000
   -0.9860   61.9079   81.2109 C   0  0  0  0  0  0  0  0  0  0  0  0
   -0.3179   63.1193   81.0675 C   0  0  0  0  0  0  0  0  0  0  0  0
   -0.0171   63.8910   82.2010 C   0  0  0  0  0  0  0  0  0  0  0  0
    0.7172   65.1639   82.0390 C   0  0  0  0  0  0  0  0  0  0  0  0
    1.0144   65.5571   80.9136 O   0  0  0  0  0  0  0  0  0  0  0  0
    1.0220   65.8461   83.2032 N   0  0  0  0  0  0  0  0  0  0  0  0
    0.6411   65.3576   84.4251 C   0  0  0  0  0  0  0  0  0  0  0  0
   -0.0211   64.2687   84.6133 N   0  0  0  0  0  0  0  0  0  0  0  0
   -0.3778   63.4907   83.4945 C   0  0  0  0  0  0  0  0  0  0  0  0
   -1.0782   62.2783   83.6395 C   0  0  0  0  0  0  0  0  0  0  0  0
   -1.3713   61.5014   82.4989 C   0  0  0  0  0  0  0  0  0  0  0  0
   -1.7720   61.6675   78.9714 C   0  0  0  0  0  0  0  0  0  0  0  0
   -1.3200   61.0703   80.1798 O   0  0  0  0  0  0  0  0  0  0  0  0
   -1.4689   61.7287   84.8392 O   0  0  0  0  0  0  0  0  0  0  0  0
   -2.6207   62.3039   85.4437 C   0  0  0  0  0  0  0  0  0  0  0  0
   -1.9928   60.2804   82.6565 O   0  0  0  0  0  0  0  0  0  0  0  0
   -3.3873   60.4041   82.3833 C   0  0  0  0  0  0  0  0  0  0  0  0
    1.7659   67.0942   83.1249 C   0  0  0  0  0  0  0  0  0  0  0  0
    2.9446   67.1101   84.0741 C   0  0  0  0  0  0  0  0  0  0  0  0
    3.3184   68.3129   84.7195 C   0  0  0  0  0  0  0  0  0  0  0  0
    4.4159   68.3568   85.5853 C   0  0  0  0  0  0  0  0  0  0  0  0
    5.1210   67.1911   85.7849 C   0  0  0  0  0  0  0  0  0  0  0  0
    4.7691   66.0181   85.1611 C   0  0  0  0  0  0  0  0  0  0  0  0
    3.6922   65.9427   84.3024 C   0  0  0  0  0  0  0  0  0  0  0  0
    5.5926   64.9872   85.4907 O   0  0  0  0  0  0  0  0  0  0  0  0
    6.5078   65.6490   86.3896 C   0  0  0  0  0  0  0  0  0  0  0  0
    6.2098   67.0467   86.5860 O   0  0  0  0  0  0  0  0  0  0  0  0
 12 13  1  0  0  0
 13  1  1  0  0  0
  1  2  2  0  0  0
  2  3  1  0  0  0
  3  4  1  0  0  0
  4  5  2  0  0  0
  4  6  1  0  0  0
  6 18  1  0  0  0
 18 19  1  0  0  0
 19 20  1  0  0  0
 20 21  2  0  0  0
 21 22  1  0  0  0
 22 23  2  0  0  0
 23 24  1  0  0  0
 23 25  1  0  0  0
 25 26  1  0  0  0
 26 27  1  0  0  0
  6  7  1  0  0  0
  7  8  2  0  0  0
  8  9  1  0  0  0
  9 10  1  0  0  0
 10 14  1  0  0  0
 14 15  1  0  0  0
 10 11  2  0  0  0
 11 16  1  0  0  0
 16 17  1  0  0  0
 11  1  1  0  0  0
  9  3  2  0  0  0
 24 19  2  0  0  0
 27 22  1  0  0  0
M  END
> <minimizedAffinity>
-8.41148

$$$$



 27 30  0  0  0  0  0  0  0  0999 V2000
   -1.1881   61.5294   81.7767 C   0  0  0  0  0  0  0  0  0  0  0  0
   -0.7493   62.3076   82.8428 C   0  0  0  0  0  0  0  0  0  0  0  0
   -0.1177   63.5373   82.5982 C   0  0  0  0  0  0  0  0  0  0  0  0
    0.3202   64.3685   83.7396 C   0  0  0  0  0  0  0  0  0  0  0  0
    0.1713   63.9553   84.8870 O   0  0  0  0  0  0  0  0  0  0  0  0
    0.8899   65.5890   83.4240 N   0  0  0  0  0  0  0  0  0  0  0  0
    1.0430   65.9774   82.1192 C   0  0  0  0  0  0  0  0  0  0  0  0
    0.7011   65.2772   81.0934 N   0  0  0  0  0  0  0  0  0  0  0  0
    0.1037   64.0185   81.3009 C   0  0  0  0  0  0  0  0  0  0  0  0
   -0.3149   63.2200   80.2199 C   0  0  0  0  0  0  0  0  0  0  0  0
   -0.9568   61.9887   80.4697 C   0  0  0  0  0  0  0  0  0  0  0  0
   -3.0997   60.3147   82.5257 C   0  0  0  0  0  0  0  0  0  0  0  0
   -1.8244   60.3225   81.8972 O   0  0  0  0  0  0  0  0  0  0  0  0
   -0.2057   63.5651   78.8921 O   0  0  0  0  0  0  0  0  0  0  0  0
    1.0012   63.1816   78.2446 C   0  0  0  0  0  0  0  0  0  0  0  0
   -1.4291   61.2469   79.4073 O   0  0  0  0  0  0  0  0  0  0  0  0
   -2.7404   61.6824   79.0531 C   0  0  0  0  0  0  0  0  0  0  0  0
    1.3221   66.4733   84.4957 C   0  0  0  0  0  0  0  0  0  0  0  0
    2.8225   66.6706   84.4951 C   0  0  0  0  0  0  0  0  0  0  0  0
    3.3792   67.8709   83.9929 C   0  0  0  0  0  0  0  0  0  0  0  0
    4.7635   68.0680   83.9637 C   0  0  0  0  0  0  0  0  0  0  0  0
    5.5648   67.0534   84.4370 C   0  0  0  0  0  0  0  0  0  0  0  0
    5.0356   65.8822   84.9241 C   0  0  0  0  0  0  0  0  0  0  0  0
    3.6752   65.6582   84.9664 C   0  0  0  0  0  0  0  0  0  0  0  0
    5.9946   65.0119   85.3392 O   0  0  0  0  0  0  0  0  0  0  0  0
    7.1895   65.7687   85.0510 C   0  0  0  0  0  0  0  0  0  0  0  0
    6.9234   67.0683   84.4844 O   0  0  0  0  0  0  0  0  0  0  0  0
 12 13  1  0  0  0
 13  1  1  0  0  0
  1  2  2  0  0  0
  2  3  1  0  0  0
  3  4  1  0  0  0
  4  5  2  0  0  0
  4  6  1  0  0  0
  6 18  1  0  0  0
 18 19  1  0  0  0
 19 20  1  0  0  0
 20 21  2  0  0  0
 21 22  1  0  0  0
 22 23  2  0  0  0
 23 24  1  0  0  0
 23 25  1  0  0  0
 25 26  1  0  0  0
 26 27  1  0  0  0
  6  7  1  0  0  0
  7  8  2  0  0  0
  8  9  1  0  0  0
  9 10  1  0  0  0
 10 14  1  0  0  0
 14 15  1  0  0  0
 10 11  2  0  0  0
 11 16  1  0  0  0
 16 17  1  0  0  0
 11  1  1  0  0  0
  9  3  2  0  0  0
 24 19  2  0  0  0
 27 22  1  0  0  0
M  END
> <minimizedAffinity>
-8.36593

$$$$



 27 30  0  0  0  0  0  0  0  0999 V2000
   -0.6250   62.4777   81.3571 C   0  0  0  0  0  0  0  0  0  0  0  0
    0.1386   63.6303   81.5085 C   0  0  0  0  0  0  0  0  0  0  0  0
    0.3693   64.1535   82.7907 C   0  0  0  0  0  0  0  0  0  0  0  0
    1.2049   65.3636   82.9417 C   0  0  0  0  0  0  0  0  0  0  0  0
    1.6487   65.9263   81.9437 O   0  0  0  0  0  0  0  0  0  0  0  0
    1.4300   65.7933   84.2373 N   0  0  0  0  0  0  0  0  0  0  0  0
    0.8860   65.1273   85.3037 C   0  0  0  0  0  0  0  0  0  0  0  0
    0.1321   64.0861   85.2199 N   0  0  0  0  0  0  0  0  0  0  0  0
   -0.1560   63.5590   83.9458 C   0  0  0  0  0  0  0  0  0  0  0  0
   -0.9519   62.4081   83.7927 C   0  0  0  0  0  0  0  0  0  0  0  0
   -1.1746   61.8804   82.5033 C   0  0  0  0  0  0  0  0  0  0  0  0
   -1.2681   62.7150   79.0722 C   0  0  0  0  0  0  0  0  0  0  0  0
   -0.9042   61.8744   80.1595 O   0  0  0  0  0  0  0  0  0  0  0  0
   -1.5075   61.6871   84.8250 O   0  0  0  0  0  0  0  0  0  0  0  0
   -2.6989   62.2212   85.3891 C   0  0  0  0  0  0  0  0  0  0  0  0
   -1.8942   60.7117   82.3683 O   0  0  0  0  0  0  0  0  0  0  0  0
   -3.2209   61.0034   81.9333 C   0  0  0  0  0  0  0  0  0  0  0  0
    2.2643   66.9632   84.4664 C   0  0  0  0  0  0  0  0  0  0  0  0
    3.6978   66.5844   84.7696 C   0  0  0  0  0  0  0  0  0  0  0  0
    3.9765   65.5313   85.6730 C   0  0  0  0  0  0  0  0  0  0  0  0
    5.2929   65.1763   85.9842 C   0  0  0  0  0  0  0  0  0  0  0  0
    6.3070   65.8885   85.3841 C   0  0  0  0  0  0  0  0  0  0  0  0
    6.0483   66.9151   84.5078 C   0  0  0  0  0  0  0  0  0  0  0  0
    4.7614   67.2885   84.1806 C   0  0  0  0  0  0  0  0  0  0  0  0
    7.1849   67.4884   84.0292 O   0  0  0  0  0  0  0  0  0  0  0  0
    8.1894   66.7076   84.7111 C   0  0  0  0  0  0  0  0  0  0  0  0
    7.6387   65.6857   85.5675 O   0  0  0  0  0  0  0  0  0  0  0  0
 12 13  1  0  0  0
 13  1  1  0  0  0
  1  2  2  0  0  0
  2  3  1  0  0  0
  3  4  1  0  0  0
  4  5  2  0  0  0
  4  6  1  0  0  0
  6 18  1  0  0  0
 18 19  1  0  0  0
 19 20  1  0  0  0
 20 21  2  0  0  0
 21 22  1  0  0  0
 22 23  2  0  0  0
 23 24  1  0  0  0
 23 25  1  0  0  0
 25 26  1  0  0  0
 26 27  1  0  0  0
  6  7  1  0  0  0
  7  8  2  0  0  0
  8  9  1  0  0  0
  9 10  1  0  0  0
 10 14  1  0  0  0
 14 15  1  0  0  0
 10 11  2  0  0  0
 11 16  1  0  0  0
 16 17  1  0  0  0
 11  1  1  0  0  0
  9  3  2  0  0  0
 24 19  2  0  0  0
 27 22  1  0  0  0
M  END
> <minimizedAffinity>
-8.33938

$$$$



 27 30  0  0  0  0  0  0  0  0999 V2000
   -2.0916   62.3317   83.7064 C   0  0  0  0  0  0  0  0  0  0  0  0
   -1.1420   63.3313   83.8891 C   0  0  0  0  0  0  0  0  0  0  0  0
   -0.5396   63.9365   82.7748 C   0  0  0  0  0  0  0  0  0  0  0  0
    0.4485   65.0166   82.9806 C   0  0  0  0  0  0  0  0  0  0  0  0
    0.7683   65.3409   84.1217 O   0  0  0  0  0  0  0  0  0  0  0  0
    0.9636   65.6001   81.8368 N   0  0  0  0  0  0  0  0  0  0  0  0
    0.5759   65.1737   80.5940 C   0  0  0  0  0  0  0  0  0  0  0  0
   -0.2606   64.2209   80.3658 N   0  0  0  0  0  0  0  0  0  0  0  0
   -0.8521   63.5618   81.4612 C   0  0  0  0  0  0  0  0  0  0  0  0
   -1.7928   62.5314   81.2743 C   0  0  0  0  0  0  0  0  0  0  0  0
   -2.4022   61.9314   82.3965 C   0  0  0  0  0  0  0  0  0  0  0  0
   -2.7471   62.2941   85.9998 C   0  0  0  0  0  0  0  0  0  0  0  0
   -2.7498   61.6818   84.7167 O   0  0  0  0  0  0  0  0  0  0  0  0
   -2.2348   62.0752   80.0535 O   0  0  0  0  0  0  0  0  0  0  0  0
   -1.3793   61.1579   79.3828 C   0  0  0  0  0  0  0  0  0  0  0  0
   -3.3758   60.9740   82.2033 O   0  0  0  0  0  0  0  0  0  0  0  0
   -2.8081   59.6706   82.3192 C   0  0  0  0  0  0  0  0  0  0  0  0
    1.9224   66.6875   81.9602 C   0  0  0  0  0  0  0  0  0  0  0  0
    1.2876   68.0343   81.6891 C   0  0  0  0  0  0  0  0  0  0  0  0
    0.3392   68.1740   80.6480 C   0  0  0  0  0  0  0  0  0  0  0  0
   -0.2461   69.4123   80.3657 C   0  0  0  0  0  0  0  0  0  0  0  0
    0.1347   70.4903   81.1331 C   0  0  0  0  0  0  0  0  0  0  0  0
    1.0570   70.3672   82.1446 C   0  0  0  0  0  0  0  0  0  0  0  0
    1.6513   69.1598   82.4474 C   0  0  0  0  0  0  0  0  0  0  0  0
    1.2942   71.5472   82.7776 O   0  0  0  0  0  0  0  0  0  0  0  0
    0.4188   72.4289   82.0429 C   0  0  0  0  0  0  0  0  0  0  0  0
   -0.3253   71.7628   81.0020 O   0  0  0  0  0  0  0  0  0  0  0  0
 12 13  1  0  0  0
 13  1  1  0  0  0
  1  2  2  0  0  0
  2  3  1  0  0  0
  3  4  1  0  0  0
  4  5  2  0  0  0
  4  6  1  0  0  0
  6 18  1  0  0  0
 18 19  1  0  0  0
 19 20  1  0  0  0
 20 21  2  0  0  0
 21 22  1  0  0  0
 22 23  2  0  0  0
 23 24  1  0  0  0
 23 25  1  0  0  0
 25 26  1  0  0  0
 26 27  1  0  0  0
  6  7  1  0  0  0
  7  8  2  0  0  0
  8  9  1  0  0  0
  9 10  1  0  0  0
 10 14  1  0  0  0
 14 15  1  0  0  0
 10 11  2  0  0  0
 11 16  1  0  0  0
 16 17  1  0  0  0
 11  1  1  0  0  0
  9  3  2  0  0  0
 24 19  2  0  0  0
 27 22  1  0  0  0
M  END
> <minimizedAffinity>
-8.18887

$$$$



 27 30  0  0  0  0  0  0  0  0999 V2000
   -0.6999   72.0946   81.0827 C   0  0  0  0  0  0  0  0  0  0  0  0
   -0.4999   70.7383   80.8485 C   0  0  0  0  0  0  0  0  0  0  0  0
    0.5753   70.0738   81.4595 C   0  0  0  0  0  0  0  0  0  0  0  0
    0.7621   68.6261   81.2248 C   0  0  0  0  0  0  0  0  0  0  0  0
    0.0060   68.0298   80.4619 O   0  0  0  0  0  0  0  0  0  0  0  0
    1.8124   68.0283   81.8982 N   0  0  0  0  0  0  0  0  0  0  0  0
    2.6291   68.7601   82.7192 C   0  0  0  0  0  0  0  0  0  0  0  0
    2.5211   70.0258   82.9337 N   0  0  0  0  0  0  0  0  0  0  0  0
    1.4794   70.7334   82.3027 C   0  0  0  0  0  0  0  0  0  0  0  0
    1.2951   72.1120   82.5193 C   0  0  0  0  0  0  0  0  0  0  0  0
    0.2085   72.7747   81.9103 C   0  0  0  0  0  0  0  0  0  0  0  0
   -2.2899   72.3901   79.3290 C   0  0  0  0  0  0  0  0  0  0  0  0
   -1.7186   72.8399   80.5507 O   0  0  0  0  0  0  0  0  0  0  0  0
    2.0692   72.8937   83.3462 O   0  0  0  0  0  0  0  0  0  0  0  0
    3.3186   73.3175   82.8148 C   0  0  0  0  0  0  0  0  0  0  0  0
   -0.0076   74.1086   82.1857 O   0  0  0  0  0  0  0  0  0  0  0  0
    0.5177   74.9153   81.1331 C   0  0  0  0  0  0  0  0  0  0  0  0
    2.0430   66.6007   81.7369 C   0  0  0  0  0  0  0  0  0  0  0  0
    1.3111   65.7882   82.7830 C   0  0  0  0  0  0  0  0  0  0  0  0
    1.6320   65.9427   84.1527 C   0  0  0  0  0  0  0  0  0  0  0  0
    0.9833   65.1887   85.1358 C   0  0  0  0  0  0  0  0  0  0  0  0
    0.0251   64.2895   84.7247 C   0  0  0  0  0  0  0  0  0  0  0  0
   -0.2926   64.1287   83.3973 C   0  0  0  0  0  0  0  0  0  0  0  0
    0.3289   64.8575   82.4047 C   0  0  0  0  0  0  0  0  0  0  0  0
   -1.2602   63.1927   83.2045 O   0  0  0  0  0  0  0  0  0  0  0  0
   -1.5103   62.7783   84.5643 C   0  0  0  0  0  0  0  0  0  0  0  0
   -0.7025   63.4756   85.5349 O   0  0  0  0  0  0  0  0  0  0  0  0
 12 13  1  0  0  0
 13  1  1  0  0  0
  1  2  2  0  0  0
  2  3  1  0  0  0
  3  4  1  0  0  0
  4  5  2  0  0  0
  4  6  1  0  0  0
  6 18  1  0  0  0
 18 19  1  0  0  0
 19 20  1  0  0  0
 20 21  2  0  0  0
 21 22  1  0  0  0
 22 23  2  0  0  0
 23 24  1  0  0  0
 23 25  1  0  0  0
 25 26  1  0  0  0
 26 27  1  0  0  0
  6  7  1  0  0  0
  7  8  2  0  0  0
  8  9  1  0  0  0
  9 10  1  0  0  0
 10 14  1  0  0  0
 14 15  1  0  0  0
 10 11  2  0  0  0
 11 16  1  0  0  0
 16 17  1  0  0  0
 11  1  1  0  0  0
  9  3  2  0  0  0
 24 19  2  0  0  0
 27 22  1  0  0  0
M  END
> <minimizedAffinity>
-8.15744

$$$$



 27 30  0  0  0  0  0  0  0  0999 V2000
    0.1269   63.7982   78.9518 C   0  0  0  0  0  0  0  0  0  0  0  0
    0.4360   64.8568   79.7994 C   0  0  0  0  0  0  0  0  0  0  0  0
    0.4948   64.6485   81.1865 C   0  0  0  0  0  0  0  0  0  0  0  0
    0.8509   65.7748   82.0755 C   0  0  0  0  0  0  0  0  0  0  0  0
    1.0444   66.8903   81.5984 O   0  0  0  0  0  0  0  0  0  0  0  0
    0.9379   65.4842   83.4253 N   0  0  0  0  0  0  0  0  0  0  0  0
    0.6889   64.2198   83.8900 C   0  0  0  0  0  0  0  0  0  0  0  0
    0.3508   63.2152   83.1579 N   0  0  0  0  0  0  0  0  0  0  0  0
    0.2398   63.3983   81.7657 C   0  0  0  0  0  0  0  0  0  0  0  0
   -0.1001   62.3319   80.9120 C   0  0  0  0  0  0  0  0  0  0  0  0
   -0.1500   62.5431   79.5180 C   0  0  0  0  0  0  0  0  0  0  0  0
   -0.8419   64.8421   77.0380 C   0  0  0  0  0  0  0  0  0  0  0  0
    0.0529   63.8832   77.5867 O   0  0  0  0  0  0  0  0  0  0  0  0
   -0.3413   61.0392   81.3180 O   0  0  0  0  0  0  0  0  0  0  0  0
   -1.6195   60.7931   81.8911 C   0  0  0  0  0  0  0  0  0  0  0  0
   -0.4119   61.4767   78.6836 O   0  0  0  0  0  0  0  0  0  0  0  0
   -1.7992   61.4448   78.3536 C   0  0  0  0  0  0  0  0  0  0  0  0
    1.3088   66.5365   84.3593 C   0  0  0  0  0  0  0  0  0  0  0  0
    2.8087   66.7235   84.4334 C   0  0  0  0  0  0  0  0  0  0  0  0
    3.3951   67.9317   83.9868 C   0  0  0  0  0  0  0  0  0  0  0  0
    4.7803   68.1200   84.0269 C   0  0  0  0  0  0  0  0  0  0  0  0
    5.5529   67.0889   84.5124 C   0  0  0  0  0  0  0  0  0  0  0  0
    4.9948   65.9101   84.9459 C   0  0  0  0  0  0  0  0  0  0  0  0
    3.6326   65.6944   84.9193 C   0  0  0  0  0  0  0  0  0  0  0  0
    5.9284   65.0236   85.3841 O   0  0  0  0  0  0  0  0  0  0  0  0
    7.1397   65.7789   85.1703 C   0  0  0  0  0  0  0  0  0  0  0  0
    6.9078   67.0935   84.6235 O   0  0  0  0  0  0  0  0  0  0  0  0
 12 13  1  0  0  0
 13  1  1  0  0  0
  1  2  2  0  0  0
  2  3  1  0  0  0
  3  4  1  0  0  0
  4  5  2  0  0  0
  4  6  1  0  0  0
  6 18  1  0  0  0
 18 19  1  0  0  0
 19 20  1  0  0  0
 20 21  2  0  0  0
 21 22  1  0  0  0
 22 23  2  0  0  0
 23 24  1  0  0  0
 23 25  1  0  0  0
 25 26  1  0  0  0
 26 27  1  0  0  0
  6  7  1  0  0  0
  7  8  2  0  0  0
  8  9  1  0  0  0
  9 10  1  0  0  0
 10 14  1  0  0  0
 14 15  1  0  0  0
 10 11  2  0  0  0
 11 16  1  0  0  0
 16 17  1  0  0  0
 11  1  1  0  0  0
  9  3  2  0  0  0
 24 19  2  0  0  0
 27 22  1  0  0  0
M  END
> <minimizedAffinity>
-8.12685

$$$$
