
     RDKit          3D

 73 76  0  0  0  0  0  0  0  0999 V2000
   -1.4862    2.8414   -2.6209 C   0  0  0  0  0  0  0  0  0  0  0  0
   -0.2634    2.3695   -3.4119 C   0  0  0  0  0  0  0  0  0  0  0  0
   -0.1559    3.1310   -4.7314 C   0  0  0  0  0  0  0  0  0  0  0  0
   -0.3202    0.8565   -3.6731 C   0  0  0  0  0  0  0  0  0  0  0  0
   -0.3875    0.1138   -2.4530 O   0  0  0  0  0  0  0  0  0  0  0  0
    0.7655   -0.2099   -1.7784 C   0  0  0  0  0  0  0  0  0  0  0  0
    2.0525    0.1264   -2.2244 C   0  0  0  0  0  0  0  0  0  0  0  0
    3.1829   -0.2410   -1.4900 C   0  0  0  0  0  0  0  0  0  0  0  0
    3.0298   -0.9530   -0.3034 C   0  0  0  0  0  0  0  0  0  0  0  0
    4.4566   -1.4250    0.6425 S   0  0  0  0  0  0  0  0  0  0  0  0
    5.5849   -0.6618    0.1517 O   0  0  0  0  0  0  0  0  0  0  0  0
    4.4847   -2.8710    0.6565 O   0  0  0  0  0  0  0  0  0  0  0  0
    4.0829   -0.8667    2.2011 N   0  0  0  0  0  0  0  0  0  0  0  0
    3.9961    0.6122    2.3985 C   0  0  0  0  0  0  0  0  0  0  0  0
    5.3760    1.2580    2.6475 C   0  0  0  0  0  0  0  0  0  0  0  0
    6.1232    0.6105    3.7450 N   0  0  0  0  0  0  0  0  0  0  0  0
    7.4476    1.2124    3.8906 C   0  0  0  0  0  0  0  0  0  0  0  0
    6.2387   -0.8401    3.4863 C   0  0  0  0  0  0  0  0  0  0  0  0
    4.8590   -1.4990    3.3096 C   0  0  0  0  0  0  0  0  0  0  0  0
    1.7588   -1.2931    0.1616 C   0  0  0  0  0  0  0  0  0  0  0  0
    0.6117   -0.9225   -0.5619 C   0  0  0  0  0  0  0  0  0  0  0  0
   -0.6975   -1.2878    0.0055 C   0  0  0  0  0  0  0  0  0  0  0  0
   -0.9120   -1.8493    1.1880 N   0  0  0  0  0  0  0  0  0  0  0  0
   -2.2762   -1.9820    1.3015 C   0  0  0  0  0  0  0  0  0  0  0  0
   -3.0576   -2.5197    2.3920 C   0  0  0  0  0  0  0  0  0  0  0  0
   -2.5523   -2.9565    3.4228 O   0  0  0  0  0  0  0  0  0  0  0  0
   -4.4425   -2.4815    2.1458 N   0  0  0  0  0  0  0  0  0  0  0  0
   -5.3195   -2.9970    3.1784 C   0  0  0  0  0  0  0  0  0  0  0  0
   -5.0799   -1.9788    0.9903 C   0  0  0  0  0  0  0  0  0  0  0  0
   -6.3099   -1.9802    0.8852 O   0  0  0  0  0  0  0  0  0  0  0  0
   -4.2579   -1.4725   -0.0332 N   0  0  0  0  0  0  0  0  0  0  0  0
   -4.8684   -0.9277   -1.2472 C   0  0  0  0  0  0  0  0  0  0  0  0
   -4.8957    0.6129   -1.2738 C   0  0  0  0  0  0  0  0  0  0  0  0
   -5.3264    1.1006   -2.6582 C   0  0  0  0  0  0  0  0  0  0  0  0
   -5.8259    1.1886   -0.2051 C   0  0  0  0  0  0  0  0  0  0  0  0
   -2.8981   -1.5043    0.1850 C   0  0  0  0  0  0  0  0  0  0  0  0
   -1.9021   -1.0766   -0.6352 N   0  0  0  0  0  0  0  0  0  0  0  0
   -1.4409    3.9217   -2.4457 H   0  0  0  0  0  0  0  0  0  0  0  0
   -2.4149    2.6255   -3.1598 H   0  0  0  0  0  0  0  0  0  0  0  0
   -1.5387    2.3505   -1.6437 H   0  0  0  0  0  0  0  0  0  0  0  0
    0.6216    2.6004   -2.8075 H   0  0  0  0  0  0  0  0  0  0  0  0
    0.7393    2.8257   -5.2834 H   0  0  0  0  0  0  0  0  0  0  0  0
   -1.0274    2.9478   -5.3693 H   0  0  0  0  0  0  0  0  0  0  0  0
   -0.0871    4.2095   -4.5539 H   0  0  0  0  0  0  0  0  0  0  0  0
   -1.2445    0.6244   -4.2174 H   0  0  0  0  0  0  0  0  0  0  0  0
    0.4895    0.5047   -4.3221 H   0  0  0  0  0  0  0  0  0  0  0  0
    2.2205    0.6803   -3.1421 H   0  0  0  0  0  0  0  0  0  0  0  0
    4.1731    0.0261   -1.8542 H   0  0  0  0  0  0  0  0  0  0  0  0
    3.5090    1.0894    1.5422 H   0  0  0  0  0  0  0  0  0  0  0  0
    3.3420    0.7937    3.2610 H   0  0  0  0  0  0  0  0  0  0  0  0
    5.2118    2.3131    2.8989 H   0  0  0  0  0  0  0  0  0  0  0  0
    5.9656    1.2426    1.7236 H   0  0  0  0  0  0  0  0  0  0  0  0
    7.9845    0.7582    4.7308 H   0  0  0  0  0  0  0  0  0  0  0  0
    7.3605    2.2815    4.1135 H   0  0  0  0  0  0  0  0  0  0  0  0
    8.0591    1.0967    2.9884 H   0  0  0  0  0  0  0  0  0  0  0  0
    6.8558   -1.0271    2.5983 H   0  0  0  0  0  0  0  0  0  0  0  0
    6.7377   -1.3202    4.3367 H   0  0  0  0  0  0  0  0  0  0  0  0
    4.9703   -2.5748    3.1399 H   0  0  0  0  0  0  0  0  0  0  0  0
    4.2734   -1.3984    4.2326 H   0  0  0  0  0  0  0  0  0  0  0  0
    1.6570   -1.8487    1.0947 H   0  0  0  0  0  0  0  0  0  0  0  0
   -5.9126   -3.8181    2.7622 H   0  0  0  0  0  0  0  0  0  0  0  0
   -6.0046   -2.2026    3.4932 H   0  0  0  0  0  0  0  0  0  0  0  0
   -4.7765   -3.3621    4.0535 H   0  0  0  0  0  0  0  0  0  0  0  0
   -4.2949   -1.3103   -2.1011 H   0  0  0  0  0  0  0  0  0  0  0  0
   -5.8852   -1.3211   -1.3625 H   0  0  0  0  0  0  0  0  0  0  0  0
   -3.8871    0.9988   -1.0834 H   0  0  0  0  0  0  0  0  0  0  0  0
   -6.3348    0.7530   -2.9070 H   0  0  0  0  0  0  0  0  0  0  0  0
   -5.3237    2.1949   -2.7038 H   0  0  0  0  0  0  0  0  0  0  0  0
   -4.6403    0.7345   -3.4295 H   0  0  0  0  0  0  0  0  0  0  0  0
   -5.8601    2.2816   -0.2693 H   0  0  0  0  0  0  0  0  0  0  0  0
   -6.8477    0.8120   -0.3222 H   0  0  0  0  0  0  0  0  0  0  0  0
   -5.4798    0.9321    0.8011 H   0  0  0  0  0  0  0  0  0  0  0  0
   -1.9859   -0.6519   -1.5480 H   0  0  0  0  0  0  0  0  0  0  0  0
  1  2  1  0
  2  3  1  0
  2  4  1  0
  4  5  1  0
  5  6  1  0
  6  7  1  0
  7  8  2  0
  8  9  1  0
  9 10  1  0
 10 11  2  0
 10 12  2  0
 10 13  1  0
 13 14  1  0
 14 15  1  0
 15 16  1  0
 16 17  1  0
 16 18  1  0
 18 19  1  0
  9 20  2  0
 20 21  1  0
 21 22  1  0
 22 23  2  0
 23 24  1  0
 24 25  1  0
 25 26  2  0
 25 27  1  0
 27 28  1  0
 27 29  1  0
 29 30  2  0
 29 31  1  0
 31 32  1  0
 32 33  1  0
 33 34  1  0
 33 35  1  0
 31 36  1  0
 36 37  1  0
 21  6  2  0
 37 22  1  0
 19 13  1  0
 36 24  2  0
  1 38  1  0
  1 39  1  0
  1 40  1  0
  2 41  1  0
  3 42  1  0
  3 43  1  0
  3 44  1  0
  4 45  1  0
  4 46  1  0
  7 47  1  0
  8 48  1  0
 14 49  1  0
 14 50  1  0
 15 51  1  0
 15 52  1  0
 17 53  1  0
 17 54  1  0
 17 55  1  0
 18 56  1  0
 18 57  1  0
 19 58  1  0
 19 59  1  0
 20 60  1  0
 28 61  1  0
 28 62  1  0
 28 63  1  0
 32 64  1  0
 32 65  1  0
 33 66  1  0
 34 67  1  0
 34 68  1  0
 34 69  1  0
 35 70  1  0
 35 71  1  0
 35 72  1  0
 37 73  1  0
M  END
$$$$
