
     RDKit          3D

 47 49  0  0  0  0  0  0  0  0999 V2000
   -2.0343    0.1098    1.4544 C   0  0  0  0  0  0  0  0  0  0  0  0
   -3.0244   -0.0942    0.3324 C   0  0  0  0  0  0  0  0  0  0  0  0
   -2.6104   -0.5870   -0.9301 C   0  0  0  0  0  0  0  0  0  0  0  0
   -1.2608   -0.9544   -1.1163 N   0  0  0  0  0  0  0  0  0  0  0  0
   -0.6286   -1.4100   -2.2595 C   0  0  0  0  0  0  0  0  0  0  0  0
   -1.1169   -1.5650   -3.3716 O   0  0  0  0  0  0  0  0  0  0  0  0
    0.8233   -1.7181   -2.0258 C   0  0  0  0  0  0  0  0  0  0  0  0
    1.6169   -2.1775   -3.0669 C   0  0  0  0  0  0  0  0  0  0  0  0
    2.9543   -2.4422   -2.7988 C   0  0  0  0  0  0  0  0  0  0  0  0
    3.4472   -2.2391   -1.5118 C   0  0  0  0  0  0  0  0  0  0  0  0
    2.5881   -1.7703   -0.5172 C   0  0  0  0  0  0  0  0  0  0  0  0
    3.0984   -1.5536    0.8922 C   0  0  0  0  0  0  0  0  0  0  0  0
    4.3200   -0.8111    0.9321 O   0  0  0  0  0  0  0  0  0  0  0  0
    4.2521    0.5543    0.8952 C   0  0  0  0  0  0  0  0  0  0  0  0
    5.4751    1.2000    1.0996 C   0  0  0  0  0  0  0  0  0  0  0  0
    5.5578    2.5933    1.0830 C   0  0  0  0  0  0  0  0  0  0  0  0
    4.4133    3.3527    0.8564 C   0  0  0  0  0  0  0  0  0  0  0  0
    3.1913    2.7170    0.6453 C   0  0  0  0  0  0  0  0  0  0  0  0
    3.1094    1.3207    0.6632 C   0  0  0  0  0  0  0  0  0  0  0  0
    1.2757   -1.5115   -0.7530 N   0  0  0  0  0  0  0  0  0  0  0  0
   -3.5521   -0.7171   -1.9601 C   0  0  0  0  0  0  0  0  0  0  0  0
   -4.8961   -0.4045   -1.7568 C   0  0  0  0  0  0  0  0  0  0  0  0
   -5.3231    0.0350   -0.5114 C   0  0  0  0  0  0  0  0  0  0  0  0
   -4.3974    0.1872    0.5308 C   0  0  0  0  0  0  0  0  0  0  0  0
   -4.9235    0.6147    1.8535 C   0  0  0  0  0  0  0  0  0  0  0  0
   -4.6027    0.0522    2.8955 O   0  0  0  0  0  0  0  0  0  0  0  0
   -5.7652    1.7051    1.8296 N   0  0  0  0  0  0  0  0  0  0  0  0
   -6.0943    2.2337    3.1009 O   0  0  0  0  0  0  0  0  0  0  0  0
   -1.8674   -0.8323    1.9849 H   0  0  0  0  0  0  0  0  0  0  0  0
   -2.3678    0.8690    2.1678 H   0  0  0  0  0  0  0  0  0  0  0  0
   -1.0786    0.4898    1.0791 H   0  0  0  0  0  0  0  0  0  0  0  0
   -0.6362   -0.9163   -0.3155 H   0  0  0  0  0  0  0  0  0  0  0  0
    1.2059   -2.3233   -4.0606 H   0  0  0  0  0  0  0  0  0  0  0  0
    3.6111   -2.8008   -3.5871 H   0  0  0  0  0  0  0  0  0  0  0  0
    4.4930   -2.4353   -1.2903 H   0  0  0  0  0  0  0  0  0  0  0  0
    3.3153   -2.5406    1.3181 H   0  0  0  0  0  0  0  0  0  0  0  0
    2.3342   -1.1097    1.5422 H   0  0  0  0  0  0  0  0  0  0  0  0
    6.3726    0.6121    1.2760 H   0  0  0  0  0  0  0  0  0  0  0  0
    6.5144    3.0826    1.2458 H   0  0  0  0  0  0  0  0  0  0  0  0
    4.4732    4.4379    0.8411 H   0  0  0  0  0  0  0  0  0  0  0  0
    2.2980    3.3088    0.4616 H   0  0  0  0  0  0  0  0  0  0  0  0
    2.1391    0.8715    0.4815 H   0  0  0  0  0  0  0  0  0  0  0  0
   -3.2713   -1.0840   -2.9430 H   0  0  0  0  0  0  0  0  0  0  0  0
   -5.6080   -0.5321   -2.5689 H   0  0  0  0  0  0  0  0  0  0  0  0
   -6.3820    0.2277   -0.3533 H   0  0  0  0  0  0  0  0  0  0  0  0
   -5.7805    2.3580    1.0529 H   0  0  0  0  0  0  0  0  0  0  0  0
   -5.6583    1.5968    3.7099 H   0  0  0  0  0  0  0  0  0  0  0  0
  1  2  1  0
  2  3  1  0
  3  4  1  0
  4  5  1  0
  5  6  2  0
  5  7  1  0
  7  8  1  0
  8  9  2  0
  9 10  1  0
 10 11  2  0
 11 12  1  0
 12 13  1  0
 13 14  1  0
 14 15  2  0
 15 16  1  0
 16 17  2  0
 17 18  1  0
 18 19  2  0
 11 20  1  0
  3 21  2  0
 21 22  1  0
 22 23  2  0
 23 24  1  0
 24 25  1  0
 25 26  2  0
 25 27  1  0
 27 28  1  0
 24  2  2  0
 20  7  2  0
 19 14  1  0
  1 29  1  0
  1 30  1  0
  1 31  1  0
  4 32  1  0
  8 33  1  0
  9 34  1  0
 10 35  1  0
 12 36  1  0
 12 37  1  0
 15 38  1  0
 16 39  1  0
 17 40  1  0
 18 41  1  0
 19 42  1  0
 21 43  1  0
 22 44  1  0
 23 45  1  0
 27 46  1  0
 28 47  1  0
M  END
$$$$
