


 44 47  0  0  0  0  0  0  0  0999 V2000
    1.9207   64.5630   86.5212 C   0  0  0  0  0  0  0  0  0  0  0  0
    1.5130   63.6513   87.5070 C   0  0  0  0  0  0  0  0  0  0  0  0
    0.2864   62.9883   87.4070 C   0  0  0  0  0  0  0  0  0  0  0  0
   -0.5468   63.2381   86.3183 C   0  0  0  0  0  0  0  0  0  0  0  0
   -0.1781   64.1720   85.3505 C   0  0  0  0  0  0  0  0  0  0  0  0
    1.0646   64.8259   85.4281 C   0  0  0  0  0  0  0  0  0  0  0  0
    1.4052   65.7502   84.2915 C   0  0  0  0  0  0  0  0  0  0  0  0
    1.0465   65.4261   83.0797 N   0  0  0  0  0  0  0  0  0  0  0  0
    1.4176   66.3485   82.1011 C   0  0  0  0  0  0  0  0  0  0  0  0
    1.1627   66.2636   80.7175 C   0  0  0  0  0  0  0  0  0  0  0  0
    1.7296   67.4069   80.1706 C   0  0  0  0  0  0  0  0  0  0  0  0
    2.3031   68.1430   81.1829 N   0  0  0  0  0  0  0  0  0  0  0  0
    2.9928   69.4015   81.0130 C   0  0  0  0  0  0  0  0  0  0  0  0
    2.1117   67.4951   82.3723 C   0  0  0  0  0  0  0  0  0  0  0  0
    2.5107   67.8449   83.6945 C   0  0  0  0  0  0  0  0  0  0  0  0
    3.1549   68.8384   84.0136 O   0  0  0  0  0  0  0  0  0  0  0  0
    2.0929   66.9114   84.6127 N   0  0  0  0  0  0  0  0  0  0  0  0
    2.3706   67.0825   85.5697 H   0  0  0  0  0  0  0  0  0  0  0  0
    0.4279   65.1844   79.9934 C   0  0  0  0  0  0  0  0  0  0  0  0
    0.9343   64.9383   78.5699 C   0  0  0  0  0  0  0  0  0  0  0  0
   -0.1878   64.8089   77.5493 C   0  0  0  0  0  0  0  0  0  0  0  0
   -2.1215   62.4146   86.1955 S   0  0  0  0  0  0  0  0  0  0  0  0
   -2.0397   61.2153   87.0024 O   0  0  0  0  0  0  0  0  0  0  0  0
   -3.1514   63.4040   86.4252 O   0  0  0  0  0  0  0  0  0  0  0  0
   -2.1875   61.9432   84.5639 N   0  0  0  0  0  0  0  0  0  0  0  0
   -2.0432   62.9893   83.5423 C   0  0  0  0  0  0  0  0  0  0  0  0
   -1.4099   62.3771   82.2919 C   0  0  0  0  0  0  0  0  0  0  0  0
   -1.8434   60.9135   82.0232 C   0  0  0  0  0  0  0  0  0  0  0  0
   -3.1981   60.6442   82.6924 C   0  0  0  0  0  0  0  0  0  0  0  0
   -3.1335   60.8614   84.2097 C   0  0  0  0  0  0  0  0  0  0  0  0
   -1.8242   60.6077   80.5022 C   0  0  0  0  0  0  0  0  0  0  0  0
   -1.0905   61.6933   79.6934 C   0  0  0  0  0  0  0  0  0  0  0  0
   -1.4840   61.5934   78.3239 O   0  0  0  0  0  0  0  0  0  0  0  0
   -0.5774   60.8259   77.5526 N   0  0  0  0  0  0  0  0  0  0  0  0
    0.2507   61.5161   76.9639 O   0  0  0  0  0  0  0  0  0  0  0  0
   -0.7276   59.6034   77.5637 O   0  0  0  0  0  0  0  0  0  0  0  0
   -3.1937   60.5969   80.0659 O   0  0  0  0  0  0  0  0  0  0  0  0
   -3.6104   59.3990   79.4339 N   0  0  0  0  0  0  0  0  0  0  0  0
   -4.0020   59.5856   78.2846 O   0  0  0  0  0  0  0  0  0  0  0  0
   -3.5469   58.3580   80.0865 O   0  0  0  0  0  0  0  0  0  0  0  0
    3.1183   65.2301   86.5614 O   0  0  0  0  0  0  0  0  0  0  0  0
    4.2000   64.6444   87.2896 C   0  0  0  0  0  0  0  0  0  0  0  0
    5.8579   65.2055   85.4567 C   0  0  0  0  0  0  0  0  0  0  0  0
    5.4881   65.3792   86.9232 C   0  0  0  0  0  0  0  0  0  0  0  0
 43 44  1  0  0  0
 44 42  1  0  0  0
 42 41  1  0  0  0
 41  1  1  0  0  0
  1  2  1  0  0  0
  2  3  2  0  0  0
  3  4  1  0  0  0
  4 22  1  0  0  0
 22 23  2  0  0  0
 22 24  2  0  0  0
 22 25  1  0  0  0
 25 26  1  0  0  0
 26 27  1  0  0  0
 27 28  1  0  0  0
 28 31  1  0  0  0
 31 32  1  0  0  0
 32 33  1  0  0  0
 33 34  1  0  0  0
 34 35  2  0  0  0
 34 36  1  0  0  0
 31 37  1  0  0  0
 37 38  1  0  0  0
 38 39  2  0  0  0
 38 40  1  0  0  0
 28 29  1  0  0  0
 29 30  1  0  0  0
  4  5  2  0  0  0
  5  6  1  0  0  0
  6  7  1  0  0  0
  7  8  2  0  0  0
  8  9  1  0  0  0
  9 10  1  0  0  0
 10 19  1  0  0  0
 19 20  1  0  0  0
 20 21  1  0  0  0
 10 11  2  0  0  0
 11 12  1  0  0  0
 12 13  1  0  0  0
 12 14  1  0  0  0
 14 15  1  0  0  0
 15 16  2  0  0  0
 15 17  1  0  0  0
  6  1  2  0  0  0
 17  7  1  0  0  0
 30 25  1  0  0  0
 14  9  2  0  0  0
 17 18  1  0  0  0
M  CHG 1  34   1
M  CHG 1  36  -1
M  CHG 1  38   1
M  CHG 1  40  -1
M  END
> <minimizedAffinity>
-9.42289

$$$$



 44 47  0  0  0  0  0  0  0  0999 V2000
    0.8656   64.9616   79.0897 C   0  0  0  0  0  0  0  0  0  0  0  0
    1.6536   65.9791   78.5301 C   0  0  0  0  0  0  0  0  0  0  0  0
    2.0133   67.1021   79.2808 C   0  0  0  0  0  0  0  0  0  0  0  0
    1.5807   67.2181   80.6004 C   0  0  0  0  0  0  0  0  0  0  0  0
    0.7620   66.2379   81.1606 C   0  0  0  0  0  0  0  0  0  0  0  0
    0.4150   65.0921   80.4227 C   0  0  0  0  0  0  0  0  0  0  0  0
   -0.4003   64.0544   81.1442 C   0  0  0  0  0  0  0  0  0  0  0  0
   -0.3283   63.9813   82.4448 N   0  0  0  0  0  0  0  0  0  0  0  0
   -1.1182   62.9810   83.0119 C   0  0  0  0  0  0  0  0  0  0  0  0
   -1.2419   62.6748   84.3822 C   0  0  0  0  0  0  0  0  0  0  0  0
   -2.1295   61.6087   84.4397 C   0  0  0  0  0  0  0  0  0  0  0  0
   -2.5175   61.2876   83.1585 N   0  0  0  0  0  0  0  0  0  0  0  0
   -3.4367   60.2301   82.8044 C   0  0  0  0  0  0  0  0  0  0  0  0
   -1.8981   62.1310   82.2775 C   0  0  0  0  0  0  0  0  0  0  0  0
   -1.9702   62.2054   80.8567 C   0  0  0  0  0  0  0  0  0  0  0  0
   -2.6236   61.4657   80.1288 O   0  0  0  0  0  0  0  0  0  0  0  0
   -1.1923   63.2253   80.3632 N   0  0  0  0  0  0  0  0  0  0  0  0
   -1.1727   63.3145   79.3563 H   0  0  0  0  0  0  0  0  0  0  0  0
   -0.5744   63.3577   85.5298 C   0  0  0  0  0  0  0  0  0  0  0  0
   -0.7931   62.6627   86.8760 C   0  0  0  0  0  0  0  0  0  0  0  0
   -1.8878   63.3097   87.7130 C   0  0  0  0  0  0  0  0  0  0  0  0
    2.0156   68.6568   81.5562 S   0  0  0  0  0  0  0  0  0  0  0  0
    2.9919   69.4002   80.7879 O   0  0  0  0  0  0  0  0  0  0  0  0
    0.7856   69.2734   82.0027 O   0  0  0  0  0  0  0  0  0  0  0  0
    2.8061   67.9999   82.9098 N   0  0  0  0  0  0  0  0  0  0  0  0
    1.9980   67.2395   83.8729 C   0  0  0  0  0  0  0  0  0  0  0  0
    2.8806   66.1784   84.5320 C   0  0  0  0  0  0  0  0  0  0  0  0
    4.3468   66.6310   84.7501 C   0  0  0  0  0  0  0  0  0  0  0  0
    4.4116   68.1634   84.8090 C   0  0  0  0  0  0  0  0  0  0  0  0
    3.8929   68.8025   83.5144 C   0  0  0  0  0  0  0  0  0  0  0  0
    4.9567   65.9300   85.9926 C   0  0  0  0  0  0  0  0  0  0  0  0
    6.3799   65.4033   85.7309 C   0  0  0  0  0  0  0  0  0  0  0  0
    7.2855   66.5079   85.7179 O   0  0  0  0  0  0  0  0  0  0  0  0
    8.3368   66.3375   84.7843 N   0  0  0  0  0  0  0  0  0  0  0  0
    8.3594   65.2124   84.2919 O   0  0  0  0  0  0  0  0  0  0  0  0
    9.0757   67.3036   84.5900 O   0  0  0  0  0  0  0  0  0  0  0  0
    4.1225   64.7946   86.2772 O   0  0  0  0  0  0  0  0  0  0  0  0
    3.8289   64.5976   87.6494 N   0  0  0  0  0  0  0  0  0  0  0  0
    4.7146   65.0248   88.3856 O   0  0  0  0  0  0  0  0  0  0  0  0
    2.7726   64.0335   87.9313 O   0  0  0  0  0  0  0  0  0  0  0  0
    0.4954   63.8329   78.4044 O   0  0  0  0  0  0  0  0  0  0  0  0
   -0.1511   63.9858   77.1387 C   0  0  0  0  0  0  0  0  0  0  0  0
   -2.4027   62.8552   76.8646 C   0  0  0  0  0  0  0  0  0  0  0  0
   -0.8902   62.6902   76.8096 C   0  0  0  0  0  0  0  0  0  0  0  0
 43 44  1  0  0  0
 44 42  1  0  0  0
 42 41  1  0  0  0
 41  1  1  0  0  0
  1  2  1  0  0  0
  2  3  2  0  0  0
  3  4  1  0  0  0
  4 22  1  0  0  0
 22 23  2  0  0  0
 22 24  2  0  0  0
 22 25  1  0  0  0
 25 26  1  0  0  0
 26 27  1  0  0  0
 27 28  1  0  0  0
 28 31  1  0  0  0
 31 32  1  0  0  0
 32 33  1  0  0  0
 33 34  1  0  0  0
 34 35  2  0  0  0
 34 36  1  0  0  0
 31 37  1  0  0  0
 37 38  1  0  0  0
 38 39  2  0  0  0
 38 40  1  0  0  0
 28 29  1  0  0  0
 29 30  1  0  0  0
  4  5  2  0  0  0
  5  6  1  0  0  0
  6  7  1  0  0  0
  7  8  2  0  0  0
  8  9  1  0  0  0
  9 10  1  0  0  0
 10 19  1  0  0  0
 19 20  1  0  0  0
 20 21  1  0  0  0
 10 11  2  0  0  0
 11 12  1  0  0  0
 12 13  1  0  0  0
 12 14  1  0  0  0
 14 15  1  0  0  0
 15 16  2  0  0  0
 15 17  1  0  0  0
  6  1  2  0  0  0
 17  7  1  0  0  0
 30 25  1  0  0  0
 14  9  2  0  0  0
 17 18  1  0  0  0
M  CHG 1  34   1
M  CHG 1  36  -1
M  CHG 1  38   1
M  CHG 1  40  -1
M  END
> <minimizedAffinity>
-9.38890

$$$$



 44 47  0  0  0  0  0  0  0  0999 V2000
    0.8903   65.2033   79.2151 C   0  0  0  0  0  0  0  0  0  0  0  0
    1.6939   66.2420   78.7205 C   0  0  0  0  0  0  0  0  0  0  0  0
    2.1164   67.2809   79.5549 C   0  0  0  0  0  0  0  0  0  0  0  0
    1.7316   67.2910   80.8942 C   0  0  0  0  0  0  0  0  0  0  0  0
    0.8986   66.2904   81.3938 C   0  0  0  0  0  0  0  0  0  0  0  0
    0.4884   65.2272   80.5697 C   0  0  0  0  0  0  0  0  0  0  0  0
   -0.3380   64.1546   81.2247 C   0  0  0  0  0  0  0  0  0  0  0  0
   -0.3172   64.0413   82.5242 N   0  0  0  0  0  0  0  0  0  0  0  0
   -1.1125   63.0113   83.0271 C   0  0  0  0  0  0  0  0  0  0  0  0
   -1.2862   62.6598   84.3810 C   0  0  0  0  0  0  0  0  0  0  0  0
   -2.1576   61.5790   84.3690 C   0  0  0  0  0  0  0  0  0  0  0  0
   -2.4883   61.2929   83.0636 N   0  0  0  0  0  0  0  0  0  0  0  0
   -3.3748   60.2333   82.6395 C   0  0  0  0  0  0  0  0  0  0  0  0
   -1.8480   62.1733   82.2354 C   0  0  0  0  0  0  0  0  0  0  0  0
   -1.8641   62.2918   80.8158 C   0  0  0  0  0  0  0  0  0  0  0  0
   -2.4752   61.5658   80.0391 O   0  0  0  0  0  0  0  0  0  0  0  0
   -1.0840   63.3387   80.3865 N   0  0  0  0  0  0  0  0  0  0  0  0
   -1.0254   63.4602   79.3845 H   0  0  0  0  0  0  0  0  0  0  0  0
   -0.6770   63.3160   85.5756 C   0  0  0  0  0  0  0  0  0  0  0  0
   -0.9199   62.5637   86.8864 C   0  0  0  0  0  0  0  0  0  0  0  0
   -1.3379   63.4757   88.0315 C   0  0  0  0  0  0  0  0  0  0  0  0
    2.2468   68.6234   81.9581 S   0  0  0  0  0  0  0  0  0  0  0  0
    3.0555   69.5193   81.1586 O   0  0  0  0  0  0  0  0  0  0  0  0
    1.0762   69.0975   82.6631 O   0  0  0  0  0  0  0  0  0  0  0  0
    3.2694   67.8543   83.0768 N   0  0  0  0  0  0  0  0  0  0  0  0
    2.6434   67.1021   84.1728 C   0  0  0  0  0  0  0  0  0  0  0  0
    3.5713   65.9571   84.5817 C   0  0  0  0  0  0  0  0  0  0  0  0
    5.0781   66.3049   84.4776 C   0  0  0  0  0  0  0  0  0  0  0  0
    5.2655   67.8255   84.5690 C   0  0  0  0  0  0  0  0  0  0  0  0
    4.5189   68.5567   83.4458 C   0  0  0  0  0  0  0  0  0  0  0  0
    5.8972   65.5086   85.5274 C   0  0  0  0  0  0  0  0  0  0  0  0
    5.1034   65.2531   86.8219 C   0  0  0  0  0  0  0  0  0  0  0  0
    5.5481   66.1686   87.8242 O   0  0  0  0  0  0  0  0  0  0  0  0
    5.9788   65.5150   89.0045 N   0  0  0  0  0  0  0  0  0  0  0  0
    6.9154   64.7449   88.8082 O   0  0  0  0  0  0  0  0  0  0  0  0
    5.3799   65.7868   90.0459 O   0  0  0  0  0  0  0  0  0  0  0  0
    7.0309   66.3227   85.8707 O   0  0  0  0  0  0  0  0  0  0  0  0
    8.1395   66.2030   84.9962 N   0  0  0  0  0  0  0  0  0  0  0  0
    8.1817   65.1096   84.4378 O   0  0  0  0  0  0  0  0  0  0  0  0
    8.9055   67.1620   84.9118 O   0  0  0  0  0  0  0  0  0  0  0  0
    0.4592   64.1531   78.4457 O   0  0  0  0  0  0  0  0  0  0  0  0
   -0.2099   64.4396   77.2155 C   0  0  0  0  0  0  0  0  0  0  0  0
   -0.3364   61.9105   77.1141 C   0  0  0  0  0  0  0  0  0  0  0  0
   -1.0477   63.2244   76.8222 C   0  0  0  0  0  0  0  0  0  0  0  0
 43 44  1  0  0  0
 44 42  1  0  0  0
 42 41  1  0  0  0
 41  1  1  0  0  0
  1  2  1  0  0  0
  2  3  2  0  0  0
  3  4  1  0  0  0
  4 22  1  0  0  0
 22 23  2  0  0  0
 22 24  2  0  0  0
 22 25  1  0  0  0
 25 26  1  0  0  0
 26 27  1  0  0  0
 27 28  1  0  0  0
 28 31  1  0  0  0
 31 32  1  0  0  0
 32 33  1  0  0  0
 33 34  1  0  0  0
 34 35  2  0  0  0
 34 36  1  0  0  0
 31 37  1  0  0  0
 37 38  1  0  0  0
 38 39  2  0  0  0
 38 40  1  0  0  0
 28 29  1  0  0  0
 29 30  1  0  0  0
  4  5  2  0  0  0
  5  6  1  0  0  0
  6  7  1  0  0  0
  7  8  2  0  0  0
  8  9  1  0  0  0
  9 10  1  0  0  0
 10 19  1  0  0  0
 19 20  1  0  0  0
 20 21  1  0  0  0
 10 11  2  0  0  0
 11 12  1  0  0  0
 12 13  1  0  0  0
 12 14  1  0  0  0
 14 15  1  0  0  0
 15 16  2  0  0  0
 15 17  1  0  0  0
  6  1  2  0  0  0
 17  7  1  0  0  0
 30 25  1  0  0  0
 14  9  2  0  0  0
 17 18  1  0  0  0
M  CHG 1  34   1
M  CHG 1  36  -1
M  CHG 1  38   1
M  CHG 1  40  -1
M  END
> <minimizedAffinity>
-9.38213

$$$$



 44 47  0  0  0  0  0  0  0  0999 V2000
    3.4614   66.8421   84.4625 C   0  0  0  0  0  0  0  0  0  0  0  0
    4.1770   67.9259   83.9309 C   0  0  0  0  0  0  0  0  0  0  0  0
    3.6133   68.7439   82.9474 C   0  0  0  0  0  0  0  0  0  0  0  0
    2.3264   68.4789   82.4831 C   0  0  0  0  0  0  0  0  0  0  0  0
    1.6160   67.3815   82.9686 C   0  0  0  0  0  0  0  0  0  0  0  0
    2.1636   66.5671   83.9759 C   0  0  0  0  0  0  0  0  0  0  0  0
    1.2847   65.4610   84.4920 C   0  0  0  0  0  0  0  0  0  0  0  0
    0.6681   64.6893   83.6398 N   0  0  0  0  0  0  0  0  0  0  0  0
   -0.1254   63.7016   84.2237 C   0  0  0  0  0  0  0  0  0  0  0  0
   -0.8974   62.7305   83.5547 C   0  0  0  0  0  0  0  0  0  0  0  0
   -1.5041   61.9897   84.5601 C   0  0  0  0  0  0  0  0  0  0  0  0
   -1.1153   62.4981   85.7791 N   0  0  0  0  0  0  0  0  0  0  0  0
   -1.5359   61.9945   87.0667 C   0  0  0  0  0  0  0  0  0  0  0  0
   -0.2658   63.5507   85.5756 C   0  0  0  0  0  0  0  0  0  0  0  0
    0.4010   64.3987   86.5062 C   0  0  0  0  0  0  0  0  0  0  0  0
    0.3060   64.3434   87.7276 O   0  0  0  0  0  0  0  0  0  0  0  0
    1.1851   65.3308   85.8696 N   0  0  0  0  0  0  0  0  0  0  0  0
    1.6633   65.9870   86.4721 H   0  0  0  0  0  0  0  0  0  0  0  0
   -1.0261   62.5291   82.0810 C   0  0  0  0  0  0  0  0  0  0  0  0
   -0.3622   61.2476   81.5710 C   0  0  0  0  0  0  0  0  0  0  0  0
    1.1230   61.1724   81.8964 C   0  0  0  0  0  0  0  0  0  0  0  0
    1.6100   69.5027   81.2137 S   0  0  0  0  0  0  0  0  0  0  0  0
    2.2116   69.1081   79.9574 O   0  0  0  0  0  0  0  0  0  0  0  0
    0.1752   69.4855   81.3961 O   0  0  0  0  0  0  0  0  0  0  0  0
    2.1794   71.0568   81.6004 N   0  0  0  0  0  0  0  0  0  0  0  0
    1.2782   71.9526   82.3380 C   0  0  0  0  0  0  0  0  0  0  0  0
    2.1160   72.9045   83.1931 C   0  0  0  0  0  0  0  0  0  0  0  0
    3.4560   73.3217   82.5354 C   0  0  0  0  0  0  0  0  0  0  0  0
    3.3515   73.1758   81.0111 C   0  0  0  0  0  0  0  0  0  0  0  0
    3.0372   71.7314   80.6005 C   0  0  0  0  0  0  0  0  0  0  0  0
    3.8758   74.7408   83.0015 C   0  0  0  0  0  0  0  0  0  0  0  0
    3.1287   75.8536   82.2436 C   0  0  0  0  0  0  0  0  0  0  0  0
    2.1032   76.3788   83.0880 O   0  0  0  0  0  0  0  0  0  0  0  0
    0.8060   76.1795   82.5557 N   0  0  0  0  0  0  0  0  0  0  0  0
    0.8231   75.6931   81.4279 O   0  0  0  0  0  0  0  0  0  0  0  0
   -0.1468   76.5101   83.2629 O   0  0  0  0  0  0  0  0  0  0  0  0
    5.2744   74.8777   82.6995 O   0  0  0  0  0  0  0  0  0  0  0  0
    6.0240   75.6063   83.6562 N   0  0  0  0  0  0  0  0  0  0  0  0
    7.0736   76.0469   83.1944 O   0  0  0  0  0  0  0  0  0  0  0  0
    5.5626   75.6974   84.7930 O   0  0  0  0  0  0  0  0  0  0  0  0
    3.9596   66.0165   85.4376 O   0  0  0  0  0  0  0  0  0  0  0  0
    5.0768   66.4677   86.2069 C   0  0  0  0  0  0  0  0  0  0  0  0
    5.6025   65.4868   88.4838 C   0  0  0  0  0  0  0  0  0  0  0  0
    5.6502   65.2793   86.9763 C   0  0  0  0  0  0  0  0  0  0  0  0
 43 44  1  0  0  0
 44 42  1  0  0  0
 42 41  1  0  0  0
 41  1  1  0  0  0
  1  2  1  0  0  0
  2  3  2  0  0  0
  3  4  1  0  0  0
  4 22  1  0  0  0
 22 23  2  0  0  0
 22 24  2  0  0  0
 22 25  1  0  0  0
 25 26  1  0  0  0
 26 27  1  0  0  0
 27 28  1  0  0  0
 28 31  1  0  0  0
 31 32  1  0  0  0
 32 33  1  0  0  0
 33 34  1  0  0  0
 34 35  2  0  0  0
 34 36  1  0  0  0
 31 37  1  0  0  0
 37 38  1  0  0  0
 38 39  2  0  0  0
 38 40  1  0  0  0
 28 29  1  0  0  0
 29 30  1  0  0  0
  4  5  2  0  0  0
  5  6  1  0  0  0
  6  7  1  0  0  0
  7  8  2  0  0  0
  8  9  1  0  0  0
  9 10  1  0  0  0
 10 19  1  0  0  0
 19 20  1  0  0  0
 20 21  1  0  0  0
 10 11  2  0  0  0
 11 12  1  0  0  0
 12 13  1  0  0  0
 12 14  1  0  0  0
 14 15  1  0  0  0
 15 16  2  0  0  0
 15 17  1  0  0  0
  6  1  2  0  0  0
 17  7  1  0  0  0
 30 25  1  0  0  0
 14  9  2  0  0  0
 17 18  1  0  0  0
M  CHG 1  34   1
M  CHG 1  36  -1
M  CHG 1  38   1
M  CHG 1  40  -1
M  END
> <minimizedAffinity>
-9.37843

$$$$



 44 47  0  0  0  0  0  0  0  0999 V2000
    3.5013   67.0654   84.4000 C   0  0  0  0  0  0  0  0  0  0  0  0
    4.1778   68.1878   83.8982 C   0  0  0  0  0  0  0  0  0  0  0  0
    3.5672   69.0377   82.9714 C   0  0  0  0  0  0  0  0  0  0  0  0
    2.2722   68.7664   82.5341 C   0  0  0  0  0  0  0  0  0  0  0  0
    1.5997   67.6326   82.9891 C   0  0  0  0  0  0  0  0  0  0  0  0
    2.1948   66.7848   83.9404 C   0  0  0  0  0  0  0  0  0  0  0  0
    1.3550   65.6373   84.4306 C   0  0  0  0  0  0  0  0  0  0  0  0
    0.6132   64.9838   83.5794 N   0  0  0  0  0  0  0  0  0  0  0  0
   -0.1298   63.9443   84.1394 C   0  0  0  0  0  0  0  0  0  0  0  0
   -1.0087   63.0729   83.4649 C   0  0  0  0  0  0  0  0  0  0  0  0
   -1.5059   62.2246   84.4451 C   0  0  0  0  0  0  0  0  0  0  0  0
   -0.9516   62.5756   85.6555 N   0  0  0  0  0  0  0  0  0  0  0  0
   -1.2217   61.9258   86.9177 C   0  0  0  0  0  0  0  0  0  0  0  0
   -0.1033   63.6326   85.4706 C   0  0  0  0  0  0  0  0  0  0  0  0
    0.7005   64.3515   86.4016 C   0  0  0  0  0  0  0  0  0  0  0  0
    0.7584   64.1499   87.6098 O   0  0  0  0  0  0  0  0  0  0  0  0
    1.4259   65.3424   85.7843 N   0  0  0  0  0  0  0  0  0  0  0  0
    1.9956   65.9136   86.3938 H   0  0  0  0  0  0  0  0  0  0  0  0
   -1.3279   63.0536   82.0066 C   0  0  0  0  0  0  0  0  0  0  0  0
   -0.1248   62.7405   81.1136 C   0  0  0  0  0  0  0  0  0  0  0  0
    0.5767   61.4423   81.4877 C   0  0  0  0  0  0  0  0  0  0  0  0
    1.4960   69.8316   81.3360 S   0  0  0  0  0  0  0  0  0  0  0  0
    1.9431   69.4000   80.0284 O   0  0  0  0  0  0  0  0  0  0  0  0
    0.0884   69.9029   81.6613 O   0  0  0  0  0  0  0  0  0  0  0  0
    2.1954   71.3479   81.6531 N   0  0  0  0  0  0  0  0  0  0  0  0
    1.4088   72.3162   82.4293 C   0  0  0  0  0  0  0  0  0  0  0  0
    2.3649   73.2205   83.2086 C   0  0  0  0  0  0  0  0  0  0  0  0
    3.6840   73.5323   82.4570 C   0  0  0  0  0  0  0  0  0  0  0  0
    3.4691   73.3700   80.9460 C   0  0  0  0  0  0  0  0  0  0  0  0
    3.0297   71.9449   80.5862 C   0  0  0  0  0  0  0  0  0  0  0  0
    4.2305   74.9256   82.8659 C   0  0  0  0  0  0  0  0  0  0  0  0
    5.7111   75.1111   82.4859 C   0  0  0  0  0  0  0  0  0  0  0  0
    6.1250   76.4235   82.8693 O   0  0  0  0  0  0  0  0  0  0  0  0
    7.3419   76.4194   83.5940 N   0  0  0  0  0  0  0  0  0  0  0  0
    8.2253   77.0735   83.0457 O   0  0  0  0  0  0  0  0  0  0  0  0
    7.3653   75.7798   84.6464 O   0  0  0  0  0  0  0  0  0  0  0  0
    4.1406   75.0003   84.2985 O   0  0  0  0  0  0  0  0  0  0  0  0
    3.6421   76.2271   84.8030 N   0  0  0  0  0  0  0  0  0  0  0  0
    2.5606   76.5341   84.3078 O   0  0  0  0  0  0  0  0  0  0  0  0
    4.3275   76.8232   85.6327 O   0  0  0  0  0  0  0  0  0  0  0  0
    4.0462   66.2069   85.3202 O   0  0  0  0  0  0  0  0  0  0  0  0
    5.2741   66.5757   85.9523 C   0  0  0  0  0  0  0  0  0  0  0  0
    7.3676   66.1198   84.5986 C   0  0  0  0  0  0  0  0  0  0  0  0
    6.3437   65.5534   85.5726 C   0  0  0  0  0  0  0  0  0  0  0  0
 43 44  1  0  0  0
 44 42  1  0  0  0
 42 41  1  0  0  0
 41  1  1  0  0  0
  1  2  1  0  0  0
  2  3  2  0  0  0
  3  4  1  0  0  0
  4 22  1  0  0  0
 22 23  2  0  0  0
 22 24  2  0  0  0
 22 25  1  0  0  0
 25 26  1  0  0  0
 26 27  1  0  0  0
 27 28  1  0  0  0
 28 31  1  0  0  0
 31 32  1  0  0  0
 32 33  1  0  0  0
 33 34  1  0  0  0
 34 35  2  0  0  0
 34 36  1  0  0  0
 31 37  1  0  0  0
 37 38  1  0  0  0
 38 39  2  0  0  0
 38 40  1  0  0  0
 28 29  1  0  0  0
 29 30  1  0  0  0
  4  5  2  0  0  0
  5  6  1  0  0  0
  6  7  1  0  0  0
  7  8  2  0  0  0
  8  9  1  0  0  0
  9 10  1  0  0  0
 10 19  1  0  0  0
 19 20  1  0  0  0
 20 21  1  0  0  0
 10 11  2  0  0  0
 11 12  1  0  0  0
 12 13  1  0  0  0
 12 14  1  0  0  0
 14 15  1  0  0  0
 15 16  2  0  0  0
 15 17  1  0  0  0
  6  1  2  0  0  0
 17  7  1  0  0  0
 30 25  1  0  0  0
 14  9  2  0  0  0
 17 18  1  0  0  0
M  CHG 1  34   1
M  CHG 1  36  -1
M  CHG 1  38   1
M  CHG 1  40  -1
M  END
> <minimizedAffinity>
-9.37840

$$$$



 44 47  0  0  0  0  0  0  0  0999 V2000
    3.4212   66.9297   84.4265 C   0  0  0  0  0  0  0  0  0  0  0  0
    4.1161   68.0311   83.9035 C   0  0  0  0  0  0  0  0  0  0  0  0
    3.5176   68.8760   82.9643 C   0  0  0  0  0  0  0  0  0  0  0  0
    2.2164   68.6207   82.5359 C   0  0  0  0  0  0  0  0  0  0  0  0
    1.5252   67.5071   83.0122 C   0  0  0  0  0  0  0  0  0  0  0  0
    2.1083   66.6650   83.9759 C   0  0  0  0  0  0  0  0  0  0  0  0
    1.2498   65.5412   84.4882 C   0  0  0  0  0  0  0  0  0  0  0  0
    0.5472   64.8412   83.6407 N   0  0  0  0  0  0  0  0  0  0  0  0
   -0.2178   63.8293   84.2213 C   0  0  0  0  0  0  0  0  0  0  0  0
   -1.0647   62.9204   83.5555 C   0  0  0  0  0  0  0  0  0  0  0  0
   -1.6031   62.1225   84.5561 C   0  0  0  0  0  0  0  0  0  0  0  0
   -1.1032   62.5384   85.7695 N   0  0  0  0  0  0  0  0  0  0  0  0
   -1.4274   61.9543   87.0510 C   0  0  0  0  0  0  0  0  0  0  0  0
   -0.2493   63.5877   85.5669 C   0  0  0  0  0  0  0  0  0  0  0  0
    0.5115   64.3575   86.4932 C   0  0  0  0  0  0  0  0  0  0  0  0
    0.5166   64.2195   87.7118 O   0  0  0  0  0  0  0  0  0  0  0  0
    1.2616   65.3177   85.8574 N   0  0  0  0  0  0  0  0  0  0  0  0
    1.8030   65.9222   86.4605 H   0  0  0  0  0  0  0  0  0  0  0  0
   -1.3195   62.8237   82.0876 C   0  0  0  0  0  0  0  0  0  0  0  0
   -0.7441   61.5612   81.4412 C   0  0  0  0  0  0  0  0  0  0  0  0
    0.7607   61.4256   81.6278 C   0  0  0  0  0  0  0  0  0  0  0  0
    1.4552   69.6793   81.3223 S   0  0  0  0  0  0  0  0  0  0  0  0
    1.9068   69.2309   80.0219 O   0  0  0  0  0  0  0  0  0  0  0  0
    0.0463   69.7644   81.6385 O   0  0  0  0  0  0  0  0  0  0  0  0
    2.1641   71.1935   81.6280 N   0  0  0  0  0  0  0  0  0  0  0  0
    1.3536   72.2009   82.3259 C   0  0  0  0  0  0  0  0  0  0  0  0
    2.2814   73.1150   83.1277 C   0  0  0  0  0  0  0  0  0  0  0  0
    3.6462   73.3787   82.4420 C   0  0  0  0  0  0  0  0  0  0  0  0
    3.5131   73.1685   80.9274 C   0  0  0  0  0  0  0  0  0  0  0  0
    3.0678   71.7395   80.5908 C   0  0  0  0  0  0  0  0  0  0  0  0
    4.1949   74.7758   82.8347 C   0  0  0  0  0  0  0  0  0  0  0  0
    3.7065   75.2305   84.2224 C   0  0  0  0  0  0  0  0  0  0  0  0
    4.8215   75.7279   84.9639 O   0  0  0  0  0  0  0  0  0  0  0  0
    5.0492   77.1080   84.7424 N   0  0  0  0  0  0  0  0  0  0  0  0
    6.2431   77.3896   84.6765 O   0  0  0  0  0  0  0  0  0  0  0  0
    4.0570   77.8319   84.6498 O   0  0  0  0  0  0  0  0  0  0  0  0
    3.6797   75.7080   81.8697 O   0  0  0  0  0  0  0  0  0  0  0  0
    4.6252   76.6406   81.3753 N   0  0  0  0  0  0  0  0  0  0  0  0
    5.7756   76.2120   81.4200 O   0  0  0  0  0  0  0  0  0  0  0  0
    4.2035   77.7295   80.9881 O   0  0  0  0  0  0  0  0  0  0  0  0
    3.9539   66.0772   85.3594 O   0  0  0  0  0  0  0  0  0  0  0  0
    5.2575   66.3589   85.8738 C   0  0  0  0  0  0  0  0  0  0  0  0
    7.4822   65.9819   84.7200 C   0  0  0  0  0  0  0  0  0  0  0  0
    6.2369   65.3326   85.3076 C   0  0  0  0  0  0  0  0  0  0  0  0
 43 44  1  0  0  0
 44 42  1  0  0  0
 42 41  1  0  0  0
 41  1  1  0  0  0
  1  2  1  0  0  0
  2  3  2  0  0  0
  3  4  1  0  0  0
  4 22  1  0  0  0
 22 23  2  0  0  0
 22 24  2  0  0  0
 22 25  1  0  0  0
 25 26  1  0  0  0
 26 27  1  0  0  0
 27 28  1  0  0  0
 28 31  1  0  0  0
 31 32  1  0  0  0
 32 33  1  0  0  0
 33 34  1  0  0  0
 34 35  2  0  0  0
 34 36  1  0  0  0
 31 37  1  0  0  0
 37 38  1  0  0  0
 38 39  2  0  0  0
 38 40  1  0  0  0
 28 29  1  0  0  0
 29 30  1  0  0  0
  4  5  2  0  0  0
  5  6  1  0  0  0
  6  7  1  0  0  0
  7  8  2  0  0  0
  8  9  1  0  0  0
  9 10  1  0  0  0
 10 19  1  0  0  0
 19 20  1  0  0  0
 20 21  1  0  0  0
 10 11  2  0  0  0
 11 12  1  0  0  0
 12 13  1  0  0  0
 12 14  1  0  0  0
 14 15  1  0  0  0
 15 16  2  0  0  0
 15 17  1  0  0  0
  6  1  2  0  0  0
 17  7  1  0  0  0
 30 25  1  0  0  0
 14  9  2  0  0  0
 17 18  1  0  0  0
M  CHG 1  34   1
M  CHG 1  36  -1
M  CHG 1  38   1
M  CHG 1  40  -1
M  END
> <minimizedAffinity>
-9.35764

$$$$



 44 47  0  0  0  0  0  0  0  0999 V2000
    1.6854   68.5263   82.1600 C   0  0  0  0  0  0  0  0  0  0  0  0
    0.9431   68.9108   81.0328 C   0  0  0  0  0  0  0  0  0  0  0  0
    0.4573   67.9562   80.1347 C   0  0  0  0  0  0  0  0  0  0  0  0
    0.7165   66.6049   80.3559 C   0  0  0  0  0  0  0  0  0  0  0  0
    1.4880   66.2066   81.4471 C   0  0  0  0  0  0  0  0  0  0  0  0
    1.9604   67.1563   82.3706 C   0  0  0  0  0  0  0  0  0  0  0  0
    2.7100   66.6179   83.5582 C   0  0  0  0  0  0  0  0  0  0  0  0
    2.0792   65.8717   84.4226 N   0  0  0  0  0  0  0  0  0  0  0  0
    2.8650   65.4315   85.4881 C   0  0  0  0  0  0  0  0  0  0  0  0
    2.4554   64.6148   86.5613 C   0  0  0  0  0  0  0  0  0  0  0  0
    3.5836   64.4625   87.3559 C   0  0  0  0  0  0  0  0  0  0  0  0
    4.6233   65.1616   86.7852 N   0  0  0  0  0  0  0  0  0  0  0  0
    5.9644   65.2461   87.3169 C   0  0  0  0  0  0  0  0  0  0  0  0
    4.1848   65.7579   85.6349 C   0  0  0  0  0  0  0  0  0  0  0  0
    4.8714   66.5797   84.6954 C   0  0  0  0  0  0  0  0  0  0  0  0
    6.0423   66.9364   84.7706 O   0  0  0  0  0  0  0  0  0  0  0  0
    4.0514   66.9572   83.6590 N   0  0  0  0  0  0  0  0  0  0  0  0
    4.4678   67.5695   82.9706 H   0  0  0  0  0  0  0  0  0  0  0  0
    1.1029   64.0256   86.7902 C   0  0  0  0  0  0  0  0  0  0  0  0
    0.8940   63.4870   88.2077 C   0  0  0  0  0  0  0  0  0  0  0  0
   -0.5569   63.1369   88.5075 C   0  0  0  0  0  0  0  0  0  0  0  0
    0.1205   65.3843   79.2038 S   0  0  0  0  0  0  0  0  0  0  0  0
   -1.0505   65.9413   78.5599 O   0  0  0  0  0  0  0  0  0  0  0  0
    1.2528   64.9227   78.4311 O   0  0  0  0  0  0  0  0  0  0  0  0
   -0.3915   64.1154   80.2120 N   0  0  0  0  0  0  0  0  0  0  0  0
   -1.0243   64.4687   81.4901 C   0  0  0  0  0  0  0  0  0  0  0  0
   -2.0182   63.3706   81.8716 C   0  0  0  0  0  0  0  0  0  0  0  0
   -1.5680   61.9469   81.4561 C   0  0  0  0  0  0  0  0  0  0  0  0
   -0.0401   61.9082   81.3149 C   0  0  0  0  0  0  0  0  0  0  0  0
    0.4564   62.9031   80.2579 C   0  0  0  0  0  0  0  0  0  0  0  0
   -2.1334   60.8861   82.4370 C   0  0  0  0  0  0  0  0  0  0  0  0
   -3.1092   59.9121   81.7512 C   0  0  0  0  0  0  0  0  0  0  0  0
   -3.4565   60.4343   80.4677 O   0  0  0  0  0  0  0  0  0  0  0  0
   -3.4729   59.4374   79.4619 N   0  0  0  0  0  0  0  0  0  0  0  0
   -3.6919   58.3140   79.9078 O   0  0  0  0  0  0  0  0  0  0  0  0
   -3.2690   59.8058   78.3044 O   0  0  0  0  0  0  0  0  0  0  0  0
   -2.8733   61.6032   83.4391 O   0  0  0  0  0  0  0  0  0  0  0  0
   -2.2517   61.6653   84.7110 N   0  0  0  0  0  0  0  0  0  0  0  0
   -3.0651   61.6813   85.6314 O   0  0  0  0  0  0  0  0  0  0  0  0
   -1.0226   61.7079   84.7436 O   0  0  0  0  0  0  0  0  0  0  0  0
    2.1737   69.4183   83.0802 O   0  0  0  0  0  0  0  0  0  0  0  0
    2.9261   70.5389   82.6099 C   0  0  0  0  0  0  0  0  0  0  0  0
    4.1535   70.7637   80.4040 C   0  0  0  0  0  0  0  0  0  0  0  0
    4.0670   70.0262   81.7331 C   0  0  0  0  0  0  0  0  0  0  0  0
 43 44  1  0  0  0
 44 42  1  0  0  0
 42 41  1  0  0  0
 41  1  1  0  0  0
  1  2  1  0  0  0
  2  3  2  0  0  0
  3  4  1  0  0  0
  4 22  1  0  0  0
 22 23  2  0  0  0
 22 24  2  0  0  0
 22 25  1  0  0  0
 25 26  1  0  0  0
 26 27  1  0  0  0
 27 28  1  0  0  0
 28 31  1  0  0  0
 31 32  1  0  0  0
 32 33  1  0  0  0
 33 34  1  0  0  0
 34 35  2  0  0  0
 34 36  1  0  0  0
 31 37  1  0  0  0
 37 38  1  0  0  0
 38 39  2  0  0  0
 38 40  1  0  0  0
 28 29  1  0  0  0
 29 30  1  0  0  0
  4  5  2  0  0  0
  5  6  1  0  0  0
  6  7  1  0  0  0
  7  8  2  0  0  0
  8  9  1  0  0  0
  9 10  1  0  0  0
 10 19  1  0  0  0
 19 20  1  0  0  0
 20 21  1  0  0  0
 10 11  2  0  0  0
 11 12  1  0  0  0
 12 13  1  0  0  0
 12 14  1  0  0  0
 14 15  1  0  0  0
 15 16  2  0  0  0
 15 17  1  0  0  0
  6  1  2  0  0  0
 17  7  1  0  0  0
 30 25  1  0  0  0
 14  9  2  0  0  0
 17 18  1  0  0  0
M  CHG 1  34   1
M  CHG 1  36  -1
M  CHG 1  38   1
M  CHG 1  40  -1
M  END
> <minimizedAffinity>
-9.12655

$$$$



 44 47  0  0  0  0  0  0  0  0999 V2000
    3.3176   66.7444   84.5880 C   0  0  0  0  0  0  0  0  0  0  0  0
    3.9199   67.8017   83.8890 C   0  0  0  0  0  0  0  0  0  0  0  0
    3.2852   68.3884   82.7904 C   0  0  0  0  0  0  0  0  0  0  0  0
    2.0408   67.9156   82.3782 C   0  0  0  0  0  0  0  0  0  0  0  0
    1.4457   66.8382   83.0337 C   0  0  0  0  0  0  0  0  0  0  0  0
    2.0636   66.2571   84.1555 C   0  0  0  0  0  0  0  0  0  0  0  0
    1.3016   65.1577   84.8432 C   0  0  0  0  0  0  0  0  0  0  0  0
    0.4046   64.4900   84.1714 N   0  0  0  0  0  0  0  0  0  0  0  0
   -0.2474   63.4986   84.9051 C   0  0  0  0  0  0  0  0  0  0  0  0
   -1.2520   62.6251   84.4421 C   0  0  0  0  0  0  0  0  0  0  0  0
   -1.5824   61.8359   85.5355 C   0  0  0  0  0  0  0  0  0  0  0  0
   -0.8117   62.2230   86.6085 N   0  0  0  0  0  0  0  0  0  0  0  0
   -0.8637   61.6375   87.9288 C   0  0  0  0  0  0  0  0  0  0  0  0
    0.0119   63.2450   86.2237 C   0  0  0  0  0  0  0  0  0  0  0  0
    0.9856   63.9799   86.9596 C   0  0  0  0  0  0  0  0  0  0  0  0
    1.2560   63.8298   88.1463 O   0  0  0  0  0  0  0  0  0  0  0  0
    1.6089   64.9206   86.1751 N   0  0  0  0  0  0  0  0  0  0  0  0
    2.2913   65.5007   86.6443 H   0  0  0  0  0  0  0  0  0  0  0  0
   -1.8291   62.5514   83.0672 C   0  0  0  0  0  0  0  0  0  0  0  0
   -2.8415   61.4185   82.8806 C   0  0  0  0  0  0  0  0  0  0  0  0
   -3.3016   61.2582   81.4384 C   0  0  0  0  0  0  0  0  0  0  0  0
    1.2362   68.6426   80.9651 S   0  0  0  0  0  0  0  0  0  0  0  0
   -0.0085   69.2166   81.4314 O   0  0  0  0  0  0  0  0  0  0  0  0
    2.2173   69.4451   80.2682 O   0  0  0  0  0  0  0  0  0  0  0  0
    0.8608   67.2973   79.9967 N   0  0  0  0  0  0  0  0  0  0  0  0
    1.8574   66.8662   79.0069 C   0  0  0  0  0  0  0  0  0  0  0  0
    1.7234   65.3577   78.7929 C   0  0  0  0  0  0  0  0  0  0  0  0
    0.2654   64.8398   78.8830 C   0  0  0  0  0  0  0  0  0  0  0  0
   -0.7100   65.9843   78.5754 C   0  0  0  0  0  0  0  0  0  0  0  0
   -0.5459   67.1486   79.5607 C   0  0  0  0  0  0  0  0  0  0  0  0
    0.0713   63.5920   77.9816 C   0  0  0  0  0  0  0  0  0  0  0  0
   -1.3889   63.1037   77.9599 C   0  0  0  0  0  0  0  0  0  0  0  0
   -1.7430   62.7671   76.6176 O   0  0  0  0  0  0  0  0  0  0  0  0
   -2.7048   61.7294   76.5533 N   0  0  0  0  0  0  0  0  0  0  0  0
   -3.8546   62.1506   76.4568 O   0  0  0  0  0  0  0  0  0  0  0  0
   -2.2851   60.5725   76.6039 O   0  0  0  0  0  0  0  0  0  0  0  0
    0.8686   62.5416   78.5532 O   0  0  0  0  0  0  0  0  0  0  0  0
    0.2770   61.8737   79.6541 N   0  0  0  0  0  0  0  0  0  0  0  0
   -0.4171   60.9211   79.3082 O   0  0  0  0  0  0  0  0  0  0  0  0
    0.5067   62.3150   80.7793 O   0  0  0  0  0  0  0  0  0  0  0  0
    3.8880   66.1418   85.6799 O   0  0  0  0  0  0  0  0  0  0  0  0
    5.2577   66.4243   85.9758 C   0  0  0  0  0  0  0  0  0  0  0  0
    7.4389   65.8176   84.8369 C   0  0  0  0  0  0  0  0  0  0  0  0
    6.1214   65.3034   85.4006 C   0  0  0  0  0  0  0  0  0  0  0  0
 43 44  1  0  0  0
 44 42  1  0  0  0
 42 41  1  0  0  0
 41  1  1  0  0  0
  1  2  1  0  0  0
  2  3  2  0  0  0
  3  4  1  0  0  0
  4 22  1  0  0  0
 22 23  2  0  0  0
 22 24  2  0  0  0
 22 25  1  0  0  0
 25 26  1  0  0  0
 26 27  1  0  0  0
 27 28  1  0  0  0
 28 31  1  0  0  0
 31 32  1  0  0  0
 32 33  1  0  0  0
 33 34  1  0  0  0
 34 35  2  0  0  0
 34 36  1  0  0  0
 31 37  1  0  0  0
 37 38  1  0  0  0
 38 39  2  0  0  0
 38 40  1  0  0  0
 28 29  1  0  0  0
 29 30  1  0  0  0
  4  5  2  0  0  0
  5  6  1  0  0  0
  6  7  1  0  0  0
  7  8  2  0  0  0
  8  9  1  0  0  0
  9 10  1  0  0  0
 10 19  1  0  0  0
 19 20  1  0  0  0
 20 21  1  0  0  0
 10 11  2  0  0  0
 11 12  1  0  0  0
 12 13  1  0  0  0
 12 14  1  0  0  0
 14 15  1  0  0  0
 15 16  2  0  0  0
 15 17  1  0  0  0
  6  1  2  0  0  0
 17  7  1  0  0  0
 30 25  1  0  0  0
 14  9  2  0  0  0
 17 18  1  0  0  0
M  CHG 1  34   1
M  CHG 1  36  -1
M  CHG 1  38   1
M  CHG 1  40  -1
M  END
> <minimizedAffinity>
-9.11555

$$$$



 44 47  0  0  0  0  0  0  0  0999 V2000
    2.2536   65.3732   85.5594 C   0  0  0  0  0  0  0  0  0  0  0  0
    1.9350   64.4007   86.5196 C   0  0  0  0  0  0  0  0  0  0  0  0
    0.8191   63.5740   86.3598 C   0  0  0  0  0  0  0  0  0  0  0  0
    0.0077   63.7189   85.2361 C   0  0  0  0  0  0  0  0  0  0  0  0
    0.2839   64.7076   84.2923 C   0  0  0  0  0  0  0  0  0  0  0  0
    1.4179   65.5278   84.4304 C   0  0  0  0  0  0  0  0  0  0  0  0
    1.6750   66.5054   83.3166 C   0  0  0  0  0  0  0  0  0  0  0  0
    1.5286   66.1135   82.0809 N   0  0  0  0  0  0  0  0  0  0  0  0
    1.7985   67.0955   81.1275 C   0  0  0  0  0  0  0  0  0  0  0  0
    1.7204   66.9596   79.7267 C   0  0  0  0  0  0  0  0  0  0  0  0
    2.0858   68.1989   79.2185 C   0  0  0  0  0  0  0  0  0  0  0  0
    2.3744   69.0397   80.2698 N   0  0  0  0  0  0  0  0  0  0  0  0
    2.7932   70.4173   80.1469 C   0  0  0  0  0  0  0  0  0  0  0  0
    2.1972   68.3642   81.4460 C   0  0  0  0  0  0  0  0  0  0  0  0
    2.3651   68.7897   82.7952 C   0  0  0  0  0  0  0  0  0  0  0  0
    2.7430   69.8981   83.1593 O   0  0  0  0  0  0  0  0  0  0  0  0
    2.0589   67.7869   83.6838 N   0  0  0  0  0  0  0  0  0  0  0  0
    2.1873   68.0124   84.6610 H   0  0  0  0  0  0  0  0  0  0  0  0
    1.3173   65.7487   78.9522 C   0  0  0  0  0  0  0  0  0  0  0  0
   -0.1953   65.5180   78.9068 C   0  0  0  0  0  0  0  0  0  0  0  0
   -0.7162   65.2363   77.5044 C   0  0  0  0  0  0  0  0  0  0  0  0
   -1.4289   62.6849   85.0367 S   0  0  0  0  0  0  0  0  0  0  0  0
   -1.1549   61.4378   85.7192 O   0  0  0  0  0  0  0  0  0  0  0  0
   -2.5901   63.4813   85.3675 O   0  0  0  0  0  0  0  0  0  0  0  0
   -1.4536   62.3718   83.3663 N   0  0  0  0  0  0  0  0  0  0  0  0
   -2.7245   61.9392   82.7692 C   0  0  0  0  0  0  0  0  0  0  0  0
   -2.7725   62.4056   81.3134 C   0  0  0  0  0  0  0  0  0  0  0  0
   -1.3946   62.3859   80.6040 C   0  0  0  0  0  0  0  0  0  0  0  0
   -0.4675   61.3819   81.3026 C   0  0  0  0  0  0  0  0  0  0  0  0
   -0.2499   61.7432   82.7776 C   0  0  0  0  0  0  0  0  0  0  0  0
   -1.5656   62.1278   79.0837 C   0  0  0  0  0  0  0  0  0  0  0  0
   -2.8240   61.2992   78.7659 C   0  0  0  0  0  0  0  0  0  0  0  0
   -2.4241   59.9859   78.3711 O   0  0  0  0  0  0  0  0  0  0  0  0
   -2.7642   59.6953   77.0273 N   0  0  0  0  0  0  0  0  0  0  0  0
   -3.5627   60.4993   76.5532 O   0  0  0  0  0  0  0  0  0  0  0  0
   -2.2387   58.7046   76.5180 O   0  0  0  0  0  0  0  0  0  0  0  0
   -0.4260   61.3587   78.6647 O   0  0  0  0  0  0  0  0  0  0  0  0
    0.2796   61.8906   77.5568 N   0  0  0  0  0  0  0  0  0  0  0  0
    1.2961   62.4933   77.8924 O   0  0  0  0  0  0  0  0  0  0  0  0
   -0.1947   61.7064   76.4368 O   0  0  0  0  0  0  0  0  0  0  0  0
    3.3428   66.2006   85.6583 O   0  0  0  0  0  0  0  0  0  0  0  0
    4.6460   65.6134   85.6645 C   0  0  0  0  0  0  0  0  0  0  0  0
    5.4512   65.4377   88.0611 C   0  0  0  0  0  0  0  0  0  0  0  0
    5.4661   66.2594   86.7796 C   0  0  0  0  0  0  0  0  0  0  0  0
 43 44  1  0  0  0
 44 42  1  0  0  0
 42 41  1  0  0  0
 41  1  1  0  0  0
  1  2  1  0  0  0
  2  3  2  0  0  0
  3  4  1  0  0  0
  4 22  1  0  0  0
 22 23  2  0  0  0
 22 24  2  0  0  0
 22 25  1  0  0  0
 25 26  1  0  0  0
 26 27  1  0  0  0
 27 28  1  0  0  0
 28 31  1  0  0  0
 31 32  1  0  0  0
 32 33  1  0  0  0
 33 34  1  0  0  0
 34 35  2  0  0  0
 34 36  1  0  0  0
 31 37  1  0  0  0
 37 38  1  0  0  0
 38 39  2  0  0  0
 38 40  1  0  0  0
 28 29  1  0  0  0
 29 30  1  0  0  0
  4  5  2  0  0  0
  5  6  1  0  0  0
  6  7  1  0  0  0
  7  8  2  0  0  0
  8  9  1  0  0  0
  9 10  1  0  0  0
 10 19  1  0  0  0
 19 20  1  0  0  0
 20 21  1  0  0  0
 10 11  2  0  0  0
 11 12  1  0  0  0
 12 13  1  0  0  0
 12 14  1  0  0  0
 14 15  1  0  0  0
 15 16  2  0  0  0
 15 17  1  0  0  0
  6  1  2  0  0  0
 17  7  1  0  0  0
 30 25  1  0  0  0
 14  9  2  0  0  0
 17 18  1  0  0  0
M  CHG 1  34   1
M  CHG 1  36  -1
M  CHG 1  38   1
M  CHG 1  40  -1
M  END
> <minimizedAffinity>
-9.06857

$$$$
