
     RDKit          3D

 36 39  0  0  0  0  0  0  0  0999 V2000
   -5.2973    3.3904    0.1334 O   0  0  0  0  0  0  0  0  0  0  0  0
   -4.3490    2.8408    0.7106 N   0  0  0  0  0  0  0  0  0  0  0  0
   -3.7850    3.2847    1.7205 O   0  0  0  0  0  0  0  0  0  0  0  0
   -3.8647    1.5668    0.1645 C   0  0  0  0  0  0  0  0  0  0  0  0
   -4.5722    0.9381   -0.8583 C   0  0  0  0  0  0  0  0  0  0  0  0
   -4.0983   -0.2714   -1.3697 C   0  0  0  0  0  0  0  0  0  0  0  0
   -2.9155   -0.8776   -0.8697 C   0  0  0  0  0  0  0  0  0  0  0  0
   -2.3866   -2.0812   -1.3500 C   0  0  0  0  0  0  0  0  0  0  0  0
   -3.1079   -3.0023   -2.6133 Cl  0  0  0  0  0  0  0  0  0  0  0  0
   -1.2630   -2.6416   -0.8688 N   0  0  0  0  0  0  0  0  0  0  0  0
   -0.5853   -2.0198    0.1387 N   0  0  0  0  0  0  0  0  0  0  0  0
   -1.0266   -0.8576    0.6679 C   0  0  0  0  0  0  0  0  0  0  0  0
   -0.3232   -0.2474    1.7306 N   0  0  0  0  0  0  0  0  0  0  0  0
    0.9595   -0.8529    2.0815 C   0  0  0  0  0  0  0  0  0  0  0  0
    2.0576   -0.3570    1.1681 C   0  0  0  0  0  0  0  0  0  0  0  0
    2.4526    1.0024    1.2032 C   0  0  0  0  0  0  0  0  0  0  0  0
    3.4658    1.4820    0.3672 C   0  0  0  0  0  0  0  0  0  0  0  0
    4.0626    0.5866   -0.4923 C   0  0  0  0  0  0  0  0  0  0  0  0
    3.6844   -0.7343   -0.5390 C   0  0  0  0  0  0  0  0  0  0  0  0
    2.6887   -1.2362    0.2726 C   0  0  0  0  0  0  0  0  0  0  0  0
    4.3951   -1.4451   -1.4553 O   0  0  0  0  0  0  0  0  0  0  0  0
    5.2556   -0.4172   -1.9870 C   0  0  0  0  0  0  0  0  0  0  0  0
    5.0578    0.8736   -1.3735 O   0  0  0  0  0  0  0  0  0  0  0  0
   -2.2046   -0.2433    0.1772 C   0  0  0  0  0  0  0  0  0  0  0  0
   -2.6953    0.9895    0.6766 C   0  0  0  0  0  0  0  0  0  0  0  0
   -5.4825    1.3706   -1.2701 H   0  0  0  0  0  0  0  0  0  0  0  0
   -4.6645   -0.7403   -2.1745 H   0  0  0  0  0  0  0  0  0  0  0  0
   -0.9390   -0.2037    2.5377 H   0  0  0  0  0  0  0  0  0  0  0  0
    0.9142   -1.9485    2.1186 H   0  0  0  0  0  0  0  0  0  0  0  0
    1.2167   -0.5419    3.1024 H   0  0  0  0  0  0  0  0  0  0  0  0
    1.9556    1.6910    1.8840 H   0  0  0  0  0  0  0  0  0  0  0  0
    3.7689    2.5223    0.3896 H   0  0  0  0  0  0  0  0  0  0  0  0
    2.3996   -2.2801    0.2029 H   0  0  0  0  0  0  0  0  0  0  0  0
    6.2980   -0.7203   -1.8358 H   0  0  0  0  0  0  0  0  0  0  0  0
    5.0693   -0.3258   -3.0634 H   0  0  0  0  0  0  0  0  0  0  0  0
   -2.1414    1.5066    1.4600 H   0  0  0  0  0  0  0  0  0  0  0  0
  1  2  2  0
  2  3  1  0
  2  4  1  0
  4  5  1  0
  5  6  2  0
  6  7  1  0
  7  8  2  0
  8  9  1  0
  8 10  1  0
 10 11  2  0
 11 12  1  0
 12 13  1  0
 13 14  1  0
 14 15  1  0
 15 16  1  0
 16 17  2  0
 17 18  1  0
 18 19  2  0
 19 20  1  0
 19 21  1  0
 21 22  1  0
 22 23  1  0
 12 24  2  0
 24 25  1  0
 25  4  2  0
 24  7  1  0
 20 15  2  0
 23 18  1  0
  5 26  1  0
  6 27  1  0
 13 28  1  0
 14 29  1  0
 14 30  1  0
 16 31  1  0
 17 32  1  0
 20 33  1  0
 22 34  1  0
 22 35  1  0
 25 36  1  0
M  CHG  2   2   1   3  -1
M  END
$$$$
