
     RDKit          3D

 74 77  0  0  0  0  0  0  0  0999 V2000
   -2.1579    5.2238    1.0224 C   0  0  0  0  0  0  0  0  0  0  0  0
   -1.4389    4.1017    0.2895 C   0  0  0  0  0  0  0  0  0  0  0  0
   -2.3884    3.1236   -0.4096 C   0  0  0  0  0  0  0  0  0  0  0  0
   -3.2158    2.3024    0.5349 C   0  0  0  0  0  0  0  0  0  0  0  0
   -4.5652    2.4454    0.8887 C   0  0  0  0  0  0  0  0  0  0  0  0
   -5.5277    3.4469    0.4713 C   0  0  0  0  0  0  0  0  0  0  0  0
   -5.2719    4.3143   -0.4557 N   0  0  0  0  0  0  0  0  0  0  0  0
   -6.3859    5.1455   -0.6326 O   0  0  0  0  0  0  0  0  0  0  0  0
   -4.8639    1.4092    1.7751 N   0  0  0  0  0  0  0  0  0  0  0  0
   -6.1715    1.1348    2.3367 C   0  0  0  0  0  0  0  0  0  0  0  0
   -3.7352    0.6770    2.0367 C   0  0  0  0  0  0  0  0  0  0  0  0
   -3.5129   -0.4302    2.9104 C   0  0  0  0  0  0  0  0  0  0  0  0
   -4.3443   -0.9465    3.6495 O   0  0  0  0  0  0  0  0  0  0  0  0
   -2.2136   -0.8741    2.8548 N   0  0  0  0  0  0  0  0  0  0  0  0
   -1.2296   -0.3104    2.0586 C   0  0  0  0  0  0  0  0  0  0  0  0
    0.1447   -0.9134    2.1449 C   0  0  0  0  0  0  0  0  0  0  0  0
    1.2006   -0.1339    1.6380 C   0  0  0  0  0  0  0  0  0  0  0  0
    2.5056   -0.6270    1.6338 C   0  0  0  0  0  0  0  0  0  0  0  0
    3.8273    0.4026    1.0299 S   0  0  0  0  0  0  0  0  0  0  0  0
    3.4583    1.7756    1.2959 O   0  0  0  0  0  0  0  0  0  0  0  0
    5.0673   -0.1512    1.5342 O   0  0  0  0  0  0  0  0  0  0  0  0
    3.7891    0.1496   -0.6352 N   0  0  0  0  0  0  0  0  0  0  0  0
    4.3228   -1.1281   -1.1728 C   0  0  0  0  0  0  0  0  0  0  0  0
    3.4041   -1.7334   -2.2524 C   0  0  0  0  0  0  0  0  0  0  0  0
    3.0551   -0.8357   -3.3739 N   0  0  0  0  0  0  0  0  0  0  0  0
    3.9812   -0.9353   -4.5138 C   0  0  0  0  0  0  0  0  0  0  0  0
    3.8262   -2.2244   -5.3353 C   0  0  0  0  0  0  0  0  0  0  0  0
    4.7362   -2.1490   -6.4327 O   0  0  0  0  0  0  0  0  0  0  0  0
    4.6785   -3.2904   -7.2646 N   0  0  0  0  0  0  0  0  0  0  0  0
    3.8727   -4.1729   -6.9629 O   0  0  0  0  0  0  0  0  0  0  0  0
    5.4796   -3.2394   -8.1963 O   0  0  0  0  0  0  0  0  0  0  0  0
    2.9660    0.5771   -2.9204 C   0  0  0  0  0  0  0  0  0  0  0  0
    2.6749    0.7423   -1.4167 C   0  0  0  0  0  0  0  0  0  0  0  0
    2.7839   -1.8822    2.1704 C   0  0  0  0  0  0  0  0  0  0  0  0
    1.7453   -2.6560    2.6969 C   0  0  0  0  0  0  0  0  0  0  0  0
    0.4227   -2.1849    2.6947 C   0  0  0  0  0  0  0  0  0  0  0  0
   -0.6309   -2.8969    3.2085 O   0  0  0  0  0  0  0  0  0  0  0  0
   -0.3550   -4.1384    3.8604 C   0  0  0  0  0  0  0  0  0  0  0  0
   -1.6677   -4.6759    4.4047 C   0  0  0  0  0  0  0  0  0  0  0  0
   -1.4313    0.7023    1.2628 N   0  0  0  0  0  0  0  0  0  0  0  0
   -2.7348    1.2002    1.2721 C   0  0  0  0  0  0  0  0  0  0  0  0
   -1.4291    5.9390    1.4184 H   0  0  0  0  0  0  0  0  0  0  0  0
   -2.7419    4.8423    1.8657 H   0  0  0  0  0  0  0  0  0  0  0  0
   -2.8321    5.7638    0.3506 H   0  0  0  0  0  0  0  0  0  0  0  0
   -0.7925    3.5688    0.9955 H   0  0  0  0  0  0  0  0  0  0  0  0
   -0.7815    4.5476   -0.4663 H   0  0  0  0  0  0  0  0  0  0  0  0
   -3.0120    3.6611   -1.1280 H   0  0  0  0  0  0  0  0  0  0  0  0
   -1.7837    2.4356   -1.0167 H   0  0  0  0  0  0  0  0  0  0  0  0
   -6.5098    3.4660    0.9751 H   0  0  0  0  0  0  0  0  0  0  0  0
   -6.0857    5.7439   -1.3423 H   0  0  0  0  0  0  0  0  0  0  0  0
   -6.2704    0.0689    2.5470 H   0  0  0  0  0  0  0  0  0  0  0  0
   -6.2802    1.7263    3.2485 H   0  0  0  0  0  0  0  0  0  0  0  0
   -6.9399    1.3985    1.6076 H   0  0  0  0  0  0  0  0  0  0  0  0
   -1.9943   -1.6719    3.4362 H   0  0  0  0  0  0  0  0  0  0  0  0
    1.0043    0.8666    1.2519 H   0  0  0  0  0  0  0  0  0  0  0  0
    5.3150   -0.9266   -1.5950 H   0  0  0  0  0  0  0  0  0  0  0  0
    4.4521   -1.8687   -0.3761 H   0  0  0  0  0  0  0  0  0  0  0  0
    2.4603   -2.0189   -1.7686 H   0  0  0  0  0  0  0  0  0  0  0  0
    3.8370   -2.6749   -2.6054 H   0  0  0  0  0  0  0  0  0  0  0  0
    5.0250   -0.8194   -4.1914 H   0  0  0  0  0  0  0  0  0  0  0  0
    3.7949   -0.1004   -5.2047 H   0  0  0  0  0  0  0  0  0  0  0  0
    4.0667   -3.1005   -4.7219 H   0  0  0  0  0  0  0  0  0  0  0  0
    2.7954   -2.3012   -5.7029 H   0  0  0  0  0  0  0  0  0  0  0  0
    3.9070    1.1050   -3.1302 H   0  0  0  0  0  0  0  0  0  0  0  0
    2.1787    1.0741   -3.4978 H   0  0  0  0  0  0  0  0  0  0  0  0
    1.7258    0.2608   -1.1626 H   0  0  0  0  0  0  0  0  0  0  0  0
    2.5947    1.8107   -1.1929 H   0  0  0  0  0  0  0  0  0  0  0  0
    3.8046   -2.2580    2.2037 H   0  0  0  0  0  0  0  0  0  0  0  0
    2.0086   -3.6248    3.1109 H   0  0  0  0  0  0  0  0  0  0  0  0
    0.0585   -4.8580    3.1448 H   0  0  0  0  0  0  0  0  0  0  0  0
    0.3432   -3.9870    4.6934 H   0  0  0  0  0  0  0  0  0  0  0  0
   -2.1367   -3.9417    5.0676 H   0  0  0  0  0  0  0  0  0  0  0  0
   -1.5085   -5.6053    4.9586 H   0  0  0  0  0  0  0  0  0  0  0  0
   -2.3735   -4.8664    3.5877 H   0  0  0  0  0  0  0  0  0  0  0  0
  1  2  1  0
  2  3  1  0
  3  4  1  0
  4  5  2  0
  5  6  1  0
  6  7  2  0
  7  8  1  0
  5  9  1  0
  9 10  1  0
  9 11  1  0
 11 12  1  0
 12 13  2  0
 12 14  1  0
 14 15  1  0
 15 16  1  0
 16 17  1  0
 17 18  2  0
 18 19  1  0
 19 20  2  0
 19 21  2  0
 19 22  1  0
 22 23  1  0
 23 24  1  0
 24 25  1  0
 25 26  1  0
 26 27  1  0
 27 28  1  0
 28 29  1  0
 29 30  2  0
 29 31  1  0
 25 32  1  0
 32 33  1  0
 18 34  1  0
 34 35  2  0
 35 36  1  0
 36 37  1  0
 37 38  1  0
 38 39  1  0
 15 40  2  0
 40 41  1  0
 41  4  1  0
 41 11  2  0
 36 16  2  0
 33 22  1  0
  1 42  1  0
  1 43  1  0
  1 44  1  0
  2 45  1  0
  2 46  1  0
  3 47  1  0
  3 48  1  0
  6 49  1  0
  8 50  1  0
 10 51  1  0
 10 52  1  0
 10 53  1  0
 14 54  1  0
 17 55  1  0
 23 56  1  0
 23 57  1  0
 24 58  1  0
 24 59  1  0
 26 60  1  0
 26 61  1  0
 27 62  1  0
 27 63  1  0
 32 64  1  0
 32 65  1  0
 33 66  1  0
 33 67  1  0
 34 68  1  0
 35 69  1  0
 38 70  1  0
 38 71  1  0
 39 72  1  0
 39 73  1  0
 39 74  1  0
M  CHG  2  29   1  31  -1
M  END
$$$$
