
     RDKit          3D

 55 61  0  0  0  0  0  0  0  0999 V2000
    1.1777    1.3907   -2.2227 O   0  0  0  0  0  0  0  0  0  0  0  0
    1.4413    0.5606   -1.3499 C   0  0  0  0  0  0  0  0  0  0  0  0
    2.8236    0.2678   -1.0023 C   0  0  0  0  0  0  0  0  0  0  0  0
    3.9923    0.7060   -1.6042 C   0  0  0  0  0  0  0  0  0  0  0  0
    5.0753    0.1560   -0.8736 C   0  0  0  0  0  0  0  0  0  0  0  0
    6.4780    0.2062   -0.9605 C   0  0  0  0  0  0  0  0  0  0  0  0
    7.2373   -0.4973   -0.0131 C   0  0  0  0  0  0  0  0  0  0  0  0
    6.6073   -1.2294    0.9937 C   0  0  0  0  0  0  0  0  0  0  0  0
    7.3378   -1.9178    1.9210 O   0  0  0  0  0  0  0  0  0  0  0  0
    5.2192   -1.2949    1.1039 C   0  0  0  0  0  0  0  0  0  0  0  0
    4.4978   -0.5860    0.1482 C   0  0  0  0  0  0  0  0  0  0  0  0
    3.1416   -0.5148    0.0753 O   0  0  0  0  0  0  0  0  0  0  0  0
    0.4195   -0.1104   -0.6974 N   0  0  0  0  0  0  0  0  0  0  0  0
    0.5448   -1.3436    0.0838 C   0  0  0  0  0  0  0  0  0  0  0  0
   -0.8472   -1.8672    0.1570 C   0  0  0  0  0  0  0  0  0  0  0  0
   -1.7333   -1.0066   -0.4628 C   0  0  0  0  0  0  0  0  0  0  0  0
   -3.0552   -1.2289   -0.5764 N   0  0  0  0  0  0  0  0  0  0  0  0
   -3.5297   -2.3600   -0.0252 C   0  0  0  0  0  0  0  0  0  0  0  0
   -4.8921   -2.6011   -0.1254 C   0  0  0  0  0  0  0  0  0  0  0  0
   -5.4822   -3.7486    0.4073 C   0  0  0  0  0  0  0  0  0  0  0  0
   -4.6954   -4.6881    1.0574 C   0  0  0  0  0  0  0  0  0  0  0  0
   -3.3217   -4.4757    1.1767 C   0  0  0  0  0  0  0  0  0  0  0  0
   -2.7120   -3.3115    0.6464 C   0  0  0  0  0  0  0  0  0  0  0  0
   -1.3307   -3.0226    0.7270 C   0  0  0  0  0  0  0  0  0  0  0  0
   -0.4127   -3.8238    1.3441 O   0  0  0  0  0  0  0  0  0  0  0  0
   -0.9845    0.2011   -1.0057 C   0  0  0  0  0  0  0  0  0  0  0  0
   -1.4239    1.5185   -0.3819 C   0  0  0  0  0  0  0  0  0  0  0  0
   -1.3531    1.7357    1.0168 C   0  0  0  0  0  0  0  0  0  0  0  0
   -1.7565    2.9483    1.5833 C   0  0  0  0  0  0  0  0  0  0  0  0
   -2.2128    3.9347    0.7371 C   0  0  0  0  0  0  0  0  0  0  0  0
   -2.2897    3.7463   -0.6326 C   0  0  0  0  0  0  0  0  0  0  0  0
   -1.9065    2.5483   -1.2107 C   0  0  0  0  0  0  0  0  0  0  0  0
   -2.8757    4.9517   -1.2579 C   0  0  0  0  0  0  0  0  0  0  0  0
   -2.7349    5.9222   -0.0844 C   0  0  0  0  0  0  0  0  0  0  0  0
   -2.6434    5.1695    1.1484 O   0  0  0  0  0  0  0  0  0  0  0  0
    4.0400    1.3514   -2.4709 H   0  0  0  0  0  0  0  0  0  0  0  0
    6.9666    0.7777   -1.7441 H   0  0  0  0  0  0  0  0  0  0  0  0
    8.3210   -0.4588   -0.0804 H   0  0  0  0  0  0  0  0  0  0  0  0
    8.2825   -1.7824    1.7404 H   0  0  0  0  0  0  0  0  0  0  0  0
    4.7290   -1.8609    1.8853 H   0  0  0  0  0  0  0  0  0  0  0  0
    1.2047   -2.0463   -0.4335 H   0  0  0  0  0  0  0  0  0  0  0  0
    0.9215   -1.0961    1.0805 H   0  0  0  0  0  0  0  0  0  0  0  0
   -5.5163   -1.8703   -0.6358 H   0  0  0  0  0  0  0  0  0  0  0  0
   -6.5537   -3.9023    0.3085 H   0  0  0  0  0  0  0  0  0  0  0  0
   -5.1484   -5.5864    1.4698 H   0  0  0  0  0  0  0  0  0  0  0  0
   -2.7414   -5.2402    1.6835 H   0  0  0  0  0  0  0  0  0  0  0  0
   -0.8654   -4.5290    1.8306 H   0  0  0  0  0  0  0  0  0  0  0  0
   -1.1022    0.2211   -2.0964 H   0  0  0  0  0  0  0  0  0  0  0  0
   -0.9835    0.9519    1.6742 H   0  0  0  0  0  0  0  0  0  0  0  0
   -1.7083    3.1123    2.6536 H   0  0  0  0  0  0  0  0  0  0  0  0
   -1.9756    2.4118   -2.2863 H   0  0  0  0  0  0  0  0  0  0  0  0
   -2.3360    5.3003   -2.1420 H   0  0  0  0  0  0  0  0  0  0  0  0
   -3.9283    4.7780   -1.5030 H   0  0  0  0  0  0  0  0  0  0  0  0
   -3.5855    6.6094   -0.0264 H   0  0  0  0  0  0  0  0  0  0  0  0
   -1.8212    6.5235   -0.1768 H   0  0  0  0  0  0  0  0  0  0  0  0
  1  2  2  0
  2  3  1  0
  3  4  2  0
  4  5  1  0
  5  6  2  0
  6  7  1  0
  7  8  2  0
  8  9  1  0
  8 10  1  0
 10 11  2  0
 11 12  1  0
  2 13  1  0
 13 14  1  0
 14 15  1  0
 15 16  1  0
 16 17  2  0
 17 18  1  0
 18 19  2  0
 19 20  1  0
 20 21  2  0
 21 22  1  0
 22 23  2  0
 23 24  1  0
 24 25  1  0
 16 26  1  0
 26 27  1  0
 27 28  1  0
 28 29  2  0
 29 30  1  0
 30 31  2  0
 31 32  1  0
 31 33  1  0
 33 34  1  0
 34 35  1  0
 12  3  1  0
 26 13  1  0
 32 27  2  0
 11  5  1  0
 24 15  2  0
 35 30  1  0
 23 18  1  0
  4 36  1  0
  6 37  1  0
  7 38  1  0
  9 39  1  0
 10 40  1  0
 14 41  1  0
 14 42  1  0
 19 43  1  0
 20 44  1  0
 21 45  1  0
 22 46  1  0
 25 47  1  0
 26 48  1  0
 28 49  1  0
 29 50  1  0
 32 51  1  0
 33 52  1  0
 33 53  1  0
 34 54  1  0
 34 55  1  0
M  END
$$$$
