


 22 24  0  0  0  0  0  0  0  0999 V2000
   -1.6269   61.5288   82.8405 C   0  0  0  0  0  0  0  0  0  0  0  0
   -2.5116   60.7286   83.3807 N   0  0  0  0  0  0  0  0  0  0  0  0
   -3.1995   59.7613   82.5960 N   0  0  0  0  0  0  0  0  0  0  0  0
   -2.9416   59.6911   81.3335 C   0  0  0  0  0  0  0  0  0  0  0  0
   -3.5543   58.8018   80.5376 O   0  0  0  0  0  0  0  0  0  0  0  0
   -2.0361   60.5026   80.6848 N   0  0  0  0  0  0  0  0  0  0  0  0
   -1.6106   60.6258   79.3855 C   0  0  0  0  0  0  0  0  0  0  0  0
   -2.1397   59.6207   77.8608 Br  0  0  0  0  0  0  0  0  0  0  0  0
   -0.7006   61.6598   79.4116 C   0  0  0  0  0  0  0  0  0  0  0  0
    0.2707   62.3659   77.9573 Br  0  0  0  0  0  0  0  0  0  0  0  0
   -0.5558   62.1641   80.6797 N   0  0  0  0  0  0  0  0  0  0  0  0
   -1.3630   61.4378   81.4244 C   0  0  0  0  0  0  0  0  0  0  0  0
   -4.1677   58.2833   81.0876 H   0  0  0  0  0  0  0  0  0  0  0  0
    1.1195   65.1845   86.2682 N   0  0  0  0  0  0  0  0  0  0  0  0
    0.3618   64.3460   85.4451 C   0  0  0  0  0  0  0  0  0  0  0  0
   -0.0862   63.1121   85.9176 C   0  0  0  0  0  0  0  0  0  0  0  0
   -0.7422   62.2155   85.0665 C   0  0  0  0  0  0  0  0  0  0  0  0
   -0.9305   62.5246   83.7119 C   0  0  0  0  0  0  0  0  0  0  0  0
   -0.4170   63.7297   83.2229 C   0  0  0  0  0  0  0  0  0  0  0  0
    0.2375   64.6216   84.0824 C   0  0  0  0  0  0  0  0  0  0  0  0
    1.1345   66.1540   85.9671 H   0  0  0  0  0  0  0  0  0  0  0  0
    0.9089   65.0923   87.2571 H   0  0  0  0  0  0  0  0  0  0  0  0
 14 15  1  0  0  0
 15 16  1  0  0  0
 16 17  2  0  0  0
 17 18  1  0  0  0
 18  1  1  0  0  0
  1  2  2  0  0  0
  2  3  1  0  0  0
  3  4  2  0  0  0
  4  5  1  0  0  0
  4  6  1  0  0  0
  6  7  1  0  0  0
  7  8  1  0  0  0
  7  9  2  0  0  0
  9 10  1  0  0  0
  9 11  1  0  0  0
 11 12  2  0  0  0
 18 19  2  0  0  0
 19 20  1  0  0  0
 20 15  2  0  0  0
 12  1  1  0  0  0
 12  6  1  0  0  0
 14 21  1  0  0  0
 14 22  1  0  0  0
  5 13  1  0  0  0
M  END
> <minimizedAffinity>
-9.12515

$$$$



 22 24  0  0  0  0  0  0  0  0999 V2000
   -1.2340   62.1590   82.8471 C   0  0  0  0  0  0  0  0  0  0  0  0
   -2.0268   61.4522   83.6130 N   0  0  0  0  0  0  0  0  0  0  0  0
   -2.7796   60.3669   83.0838 N   0  0  0  0  0  0  0  0  0  0  0  0
   -2.6740   60.0945   81.8270 C   0  0  0  0  0  0  0  0  0  0  0  0
   -3.3556   59.0847   81.2651 O   0  0  0  0  0  0  0  0  0  0  0  0
   -1.8738   60.7950   80.9503 N   0  0  0  0  0  0  0  0  0  0  0  0
   -1.6111   60.7084   79.6058 C   0  0  0  0  0  0  0  0  0  0  0  0
   -2.2946   59.4668   78.3384 Br  0  0  0  0  0  0  0  0  0  0  0  0
   -0.7310   61.7378   79.3539 C   0  0  0  0  0  0  0  0  0  0  0  0
    0.0401   62.2041   77.6971 Br  0  0  0  0  0  0  0  0  0  0  0  0
   -0.4472   62.4417   80.4974 N   0  0  0  0  0  0  0  0  0  0  0  0
   -1.1403   61.8412   81.4423 C   0  0  0  0  0  0  0  0  0  0  0  0
   -3.8850   58.6589   81.9622 H   0  0  0  0  0  0  0  0  0  0  0  0
    1.6166   66.5935   85.0530 N   0  0  0  0  0  0  0  0  0  0  0  0
    1.0097   65.4586   84.5066 C   0  0  0  0  0  0  0  0  0  0  0  0
    0.6405   65.4358   83.1614 C   0  0  0  0  0  0  0  0  0  0  0  0
   -0.0731   64.3537   82.6337 C   0  0  0  0  0  0  0  0  0  0  0  0
   -0.4629   63.2866   83.4555 C   0  0  0  0  0  0  0  0  0  0  0  0
   -0.1557   63.3447   84.8183 C   0  0  0  0  0  0  0  0  0  0  0  0
    0.5598   64.4314   85.3376 C   0  0  0  0  0  0  0  0  0  0  0  0
    2.1168   66.4170   85.9188 H   0  0  0  0  0  0  0  0  0  0  0  0
    2.1721   67.1244   84.3894 H   0  0  0  0  0  0  0  0  0  0  0  0
 14 15  1  0  0  0
 15 16  1  0  0  0
 16 17  2  0  0  0
 17 18  1  0  0  0
 18  1  1  0  0  0
  1  2  2  0  0  0
  2  3  1  0  0  0
  3  4  2  0  0  0
  4  5  1  0  0  0
  4  6  1  0  0  0
  6  7  1  0  0  0
  7  8  1  0  0  0
  7  9  2  0  0  0
  9 10  1  0  0  0
  9 11  1  0  0  0
 11 12  2  0  0  0
 18 19  2  0  0  0
 19 20  1  0  0  0
 20 15  2  0  0  0
 12  1  1  0  0  0
 12  6  1  0  0  0
 14 21  1  0  0  0
 14 22  1  0  0  0
  5 13  1  0  0  0
M  END
> <minimizedAffinity>
-8.94081

$$$$



 22 24  0  0  0  0  0  0  0  0999 V2000
   -2.1539   61.7622   83.6240 C   0  0  0  0  0  0  0  0  0  0  0  0
   -2.8923   60.6868   83.5095 N   0  0  0  0  0  0  0  0  0  0  0  0
   -3.2421   60.1717   82.2301 N   0  0  0  0  0  0  0  0  0  0  0  0
   -2.8241   60.7907   81.1779 C   0  0  0  0  0  0  0  0  0  0  0  0
   -3.1177   60.3576   79.9425 O   0  0  0  0  0  0  0  0  0  0  0  0
   -2.0549   61.9338   81.2098 N   0  0  0  0  0  0  0  0  0  0  0  0
   -1.5144   62.7586   80.2549 C   0  0  0  0  0  0  0  0  0  0  0  0
   -1.6126   62.6102   78.3619 Br  0  0  0  0  0  0  0  0  0  0  0  0
   -0.8732   63.7473   80.9684 C   0  0  0  0  0  0  0  0  0  0  0  0
    0.0810   65.2205   80.2784 Br  0  0  0  0  0  0  0  0  0  0  0  0
   -1.0015   63.5489   82.3204 N   0  0  0  0  0  0  0  0  0  0  0  0
   -1.7066   62.4426   82.4323 C   0  0  0  0  0  0  0  0  0  0  0  0
   -3.6591   59.5535   80.0299 H   0  0  0  0  0  0  0  0  0  0  0  0
   -0.9958   63.5466   88.9278 N   0  0  0  0  0  0  0  0  0  0  0  0
   -1.2735   63.2088   87.5998 C   0  0  0  0  0  0  0  0  0  0  0  0
   -2.5810   62.9270   87.2031 C   0  0  0  0  0  0  0  0  0  0  0  0
   -2.8533   62.4734   85.9075 C   0  0  0  0  0  0  0  0  0  0  0  0
   -1.8127   62.2585   84.9927 C   0  0  0  0  0  0  0  0  0  0  0  0
   -0.4967   62.4717   85.4141 C   0  0  0  0  0  0  0  0  0  0  0  0
   -0.2335   62.9267   86.7126 C   0  0  0  0  0  0  0  0  0  0  0  0
   -0.1082   64.0229   89.0552 H   0  0  0  0  0  0  0  0  0  0  0  0
   -1.7583   64.0214   89.4010 H   0  0  0  0  0  0  0  0  0  0  0  0
 14 15  1  0  0  0
 15 16  1  0  0  0
 16 17  2  0  0  0
 17 18  1  0  0  0
 18  1  1  0  0  0
  1  2  2  0  0  0
  2  3  1  0  0  0
  3  4  2  0  0  0
  4  5  1  0  0  0
  4  6  1  0  0  0
  6  7  1  0  0  0
  7  8  1  0  0  0
  7  9  2  0  0  0
  9 10  1  0  0  0
  9 11  1  0  0  0
 11 12  2  0  0  0
 18 19  2  0  0  0
 19 20  1  0  0  0
 20 15  2  0  0  0
 12  1  1  0  0  0
 12  6  1  0  0  0
 14 21  1  0  0  0
 14 22  1  0  0  0
  5 13  1  0  0  0
M  END
> <minimizedAffinity>
-8.75006

$$$$



 22 24  0  0  0  0  0  0  0  0999 V2000
   -2.1672   61.7634   83.6613 C   0  0  0  0  0  0  0  0  0  0  0  0
   -2.9022   60.6982   83.4616 N   0  0  0  0  0  0  0  0  0  0  0  0
   -3.1858   60.2408   82.1444 N   0  0  0  0  0  0  0  0  0  0  0  0
   -2.7106   60.9023   81.1435 C   0  0  0  0  0  0  0  0  0  0  0  0
   -2.9401   60.5247   79.8767 O   0  0  0  0  0  0  0  0  0  0  0  0
   -1.9403   62.0385   81.2653 N   0  0  0  0  0  0  0  0  0  0  0  0
   -1.3473   62.9007   80.3769 C   0  0  0  0  0  0  0  0  0  0  0  0
   -1.3459   62.8347   78.4768 Br  0  0  0  0  0  0  0  0  0  0  0  0
   -0.7413   63.8540   81.1655 C   0  0  0  0  0  0  0  0  0  0  0  0
    0.2531   65.3501   80.5912 Br  0  0  0  0  0  0  0  0  0  0  0  0
   -0.9415   63.5982   82.4989 N   0  0  0  0  0  0  0  0  0  0  0  0
   -1.6553   62.4921   82.5254 C   0  0  0  0  0  0  0  0  0  0  0  0
   -3.4881   59.7206   79.9005 H   0  0  0  0  0  0  0  0  0  0  0  0
   -0.9714   63.5168   88.9671 N   0  0  0  0  0  0  0  0  0  0  0  0
   -1.2826   62.9938   87.7083 C   0  0  0  0  0  0  0  0  0  0  0  0
   -0.2660   62.6638   86.8116 C   0  0  0  0  0  0  0  0  0  0  0  0
   -0.5676   62.2524   85.5083 C   0  0  0  0  0  0  0  0  0  0  0  0
   -1.8971   62.1982   85.0663 C   0  0  0  0  0  0  0  0  0  0  0  0
   -2.9104   62.5987   85.9426 C   0  0  0  0  0  0  0  0  0  0  0  0
   -2.5994   63.0082   87.2456 C   0  0  0  0  0  0  0  0  0  0  0  0
   -1.7234   63.4361   89.6445 H   0  0  0  0  0  0  0  0  0  0  0  0
   -0.0829   63.1960   89.3392 H   0  0  0  0  0  0  0  0  0  0  0  0
 14 15  1  0  0  0
 15 16  1  0  0  0
 16 17  2  0  0  0
 17 18  1  0  0  0
 18  1  1  0  0  0
  1  2  2  0  0  0
  2  3  1  0  0  0
  3  4  2  0  0  0
  4  5  1  0  0  0
  4  6  1  0  0  0
  6  7  1  0  0  0
  7  8  1  0  0  0
  7  9  2  0  0  0
  9 10  1  0  0  0
  9 11  1  0  0  0
 11 12  2  0  0  0
 18 19  2  0  0  0
 19 20  1  0  0  0
 20 15  2  0  0  0
 12  1  1  0  0  0
 12  6  1  0  0  0
 14 21  1  0  0  0
 14 22  1  0  0  0
  5 13  1  0  0  0
M  END
> <minimizedAffinity>
-8.59226

$$$$



 22 24  0  0  0  0  0  0  0  0999 V2000
   -2.1066   61.0254   82.7902 C   0  0  0  0  0  0  0  0  0  0  0  0
   -2.8654   59.9595   82.8458 N   0  0  0  0  0  0  0  0  0  0  0  0
   -3.1885   59.2287   81.6686 N   0  0  0  0  0  0  0  0  0  0  0  0
   -2.7256   59.6412   80.5369 C   0  0  0  0  0  0  0  0  0  0  0  0
   -2.9920   58.9980   79.3901 O   0  0  0  0  0  0  0  0  0  0  0  0
   -1.9322   60.7583   80.3890 N   0  0  0  0  0  0  0  0  0  0  0  0
   -1.3451   61.3887   79.3202 C   0  0  0  0  0  0  0  0  0  0  0  0
   -1.3903   60.9039   77.4823 Br  0  0  0  0  0  0  0  0  0  0  0  0
   -0.7033   62.4787   79.8659 C   0  0  0  0  0  0  0  0  0  0  0  0
    0.3039   63.7875   78.9552 Br  0  0  0  0  0  0  0  0  0  0  0  0
   -0.8761   62.5289   81.2266 N   0  0  0  0  0  0  0  0  0  0  0  0
   -1.6090   61.4727   81.5114 C   0  0  0  0  0  0  0  0  0  0  0  0
   -3.5538   58.2319   79.6021 H   0  0  0  0  0  0  0  0  0  0  0  0
   -0.7827   63.9173   87.5379 N   0  0  0  0  0  0  0  0  0  0  0  0
   -1.1013   63.1228   86.4323 C   0  0  0  0  0  0  0  0  0  0  0  0
   -0.1323   62.8308   85.4720 C   0  0  0  0  0  0  0  0  0  0  0  0
   -0.4691   62.1376   84.3038 C   0  0  0  0  0  0  0  0  0  0  0  0
   -1.7952   61.7540   84.0584 C   0  0  0  0  0  0  0  0  0  0  0  0
   -2.7778   62.1107   84.9870 C   0  0  0  0  0  0  0  0  0  0  0  0
   -2.4313   62.8039   86.1540 C   0  0  0  0  0  0  0  0  0  0  0  0
   -1.4304   63.8225   88.3140 H   0  0  0  0  0  0  0  0  0  0  0  0
    0.1856   63.8434   87.8340 H   0  0  0  0  0  0  0  0  0  0  0  0
 14 15  1  0  0  0
 15 16  1  0  0  0
 16 17  2  0  0  0
 17 18  1  0  0  0
 18  1  1  0  0  0
  1  2  2  0  0  0
  2  3  1  0  0  0
  3  4  2  0  0  0
  4  5  1  0  0  0
  4  6  1  0  0  0
  6  7  1  0  0  0
  7  8  1  0  0  0
  7  9  2  0  0  0
  9 10  1  0  0  0
  9 11  1  0  0  0
 11 12  2  0  0  0
 18 19  2  0  0  0
 19 20  1  0  0  0
 20 15  2  0  0  0
 12  1  1  0  0  0
 12  6  1  0  0  0
 14 21  1  0  0  0
 14 22  1  0  0  0
  5 13  1  0  0  0
M  END
> <minimizedAffinity>
-8.50665

$$$$



 22 24  0  0  0  0  0  0  0  0999 V2000
    0.2110   62.7275   82.8975 C   0  0  0  0  0  0  0  0  0  0  0  0
    0.4958   61.4984   82.5469 N   0  0  0  0  0  0  0  0  0  0  0  0
    0.6811   61.1514   81.1795 N   0  0  0  0  0  0  0  0  0  0  0  0
    0.5545   62.0721   80.2843 C   0  0  0  0  0  0  0  0  0  0  0  0
    0.7167   61.8120   78.9782 O   0  0  0  0  0  0  0  0  0  0  0  0
    0.2444   63.3850   80.5663 N   0  0  0  0  0  0  0  0  0  0  0  0
    0.0476   64.5129   79.8090 C   0  0  0  0  0  0  0  0  0  0  0  0
    0.1603   64.7122   77.9216 Br  0  0  0  0  0  0  0  0  0  0  0  0
   -0.2630   65.4974   80.7212 C   0  0  0  0  0  0  0  0  0  0  0  0
   -0.6604   67.3057   80.3620 Br  0  0  0  0  0  0  0  0  0  0  0  0
   -0.2568   65.0083   82.0036 N   0  0  0  0  0  0  0  0  0  0  0  0
    0.0648   63.7378   81.8771 C   0  0  0  0  0  0  0  0  0  0  0  0
    0.9304   60.8667   78.8874 H   0  0  0  0  0  0  0  0  0  0  0  0
   -0.4683   63.7212   88.4838 N   0  0  0  0  0  0  0  0  0  0  0  0
   -0.3811   63.5429   87.0998 C   0  0  0  0  0  0  0  0  0  0  0  0
   -0.8996   62.3930   86.5036 C   0  0  0  0  0  0  0  0  0  0  0  0
   -0.7131   62.1490   85.1382 C   0  0  0  0  0  0  0  0  0  0  0  0
    0.0301   63.0382   84.3490 C   0  0  0  0  0  0  0  0  0  0  0  0
    0.6106   64.1526   84.9624 C   0  0  0  0  0  0  0  0  0  0  0  0
    0.4178   64.3894   86.3296 C   0  0  0  0  0  0  0  0  0  0  0  0
   -0.3548   64.6847   88.7833 H   0  0  0  0  0  0  0  0  0  0  0  0
   -1.2793   63.2803   88.9065 H   0  0  0  0  0  0  0  0  0  0  0  0
 14 15  1  0  0  0
 15 16  1  0  0  0
 16 17  2  0  0  0
 17 18  1  0  0  0
 18  1  1  0  0  0
  1  2  2  0  0  0
  2  3  1  0  0  0
  3  4  2  0  0  0
  4  5  1  0  0  0
  4  6  1  0  0  0
  6  7  1  0  0  0
  7  8  1  0  0  0
  7  9  2  0  0  0
  9 10  1  0  0  0
  9 11  1  0  0  0
 11 12  2  0  0  0
 18 19  2  0  0  0
 19 20  1  0  0  0
 20 15  2  0  0  0
 12  1  1  0  0  0
 12  6  1  0  0  0
 14 21  1  0  0  0
 14 22  1  0  0  0
  5 13  1  0  0  0
M  END
> <minimizedAffinity>
-8.48644

$$$$



 22 24  0  0  0  0  0  0  0  0999 V2000
   -1.6358   62.3234   83.1918 C   0  0  0  0  0  0  0  0  0  0  0  0
   -1.7448   61.8260   84.3983 N   0  0  0  0  0  0  0  0  0  0  0  0
   -1.0509   62.4083   85.4956 N   0  0  0  0  0  0  0  0  0  0  0  0
   -0.3011   63.4359   85.2792 C   0  0  0  0  0  0  0  0  0  0  0  0
    0.3796   64.0326   86.2694 O   0  0  0  0  0  0  0  0  0  0  0  0
   -0.1215   64.0128   84.0405 N   0  0  0  0  0  0  0  0  0  0  0  0
    0.6138   65.0712   83.5677 C   0  0  0  0  0  0  0  0  0  0  0  0
    1.7436   66.2586   84.5312 Br  0  0  0  0  0  0  0  0  0  0  0  0
    0.3637   65.0941   82.2132 C   0  0  0  0  0  0  0  0  0  0  0  0
    1.0627   66.2982   80.9410 Br  0  0  0  0  0  0  0  0  0  0  0  0
   -0.4999   64.0915   81.8490 N   0  0  0  0  0  0  0  0  0  0  0  0
   -0.7832   63.4672   82.9731 C   0  0  0  0  0  0  0  0  0  0  0  0
    0.1863   63.5531   87.0942 H   0  0  0  0  0  0  0  0  0  0  0  0
   -4.5681   59.6981   79.0486 N   0  0  0  0  0  0  0  0  0  0  0  0
   -3.7734   60.3528   79.9945 C   0  0  0  0  0  0  0  0  0  0  0  0
   -3.0985   59.6233   80.9737 C   0  0  0  0  0  0  0  0  0  0  0  0
   -2.3977   60.2747   81.9951 C   0  0  0  0  0  0  0  0  0  0  0  0
   -2.3897   61.6745   82.0752 C   0  0  0  0  0  0  0  0  0  0  0  0
   -3.1262   62.4028   81.1359 C   0  0  0  0  0  0  0  0  0  0  0  0
   -3.8240   61.7423   80.1165 C   0  0  0  0  0  0  0  0  0  0  0  0
   -4.7602   60.2503   78.2185 H   0  0  0  0  0  0  0  0  0  0  0  0
   -4.2520   58.7604   78.8220 H   0  0  0  0  0  0  0  0  0  0  0  0
 14 15  1  0  0  0
 15 16  1  0  0  0
 16 17  2  0  0  0
 17 18  1  0  0  0
 18  1  1  0  0  0
  1  2  2  0  0  0
  2  3  1  0  0  0
  3  4  2  0  0  0
  4  5  1  0  0  0
  4  6  1  0  0  0
  6  7  1  0  0  0
  7  8  1  0  0  0
  7  9  2  0  0  0
  9 10  1  0  0  0
  9 11  1  0  0  0
 11 12  2  0  0  0
 18 19  2  0  0  0
 19 20  1  0  0  0
 20 15  2  0  0  0
 12  1  1  0  0  0
 12  6  1  0  0  0
 14 21  1  0  0  0
 14 22  1  0  0  0
  5 13  1  0  0  0
M  END
> <minimizedAffinity>
-8.41222

$$$$



 22 24  0  0  0  0  0  0  0  0999 V2000
   -1.2675   62.9011   83.4371 C   0  0  0  0  0  0  0  0  0  0  0  0
   -1.3462   62.5734   84.7025 N   0  0  0  0  0  0  0  0  0  0  0  0
   -0.6112   63.2862   85.6905 N   0  0  0  0  0  0  0  0  0  0  0  0
    0.1457   64.2618   85.3154 C   0  0  0  0  0  0  0  0  0  0  0  0
    0.8645   64.9746   86.1958 O   0  0  0  0  0  0  0  0  0  0  0  0
    0.2950   64.6627   84.0053 N   0  0  0  0  0  0  0  0  0  0  0  0
    1.0298   65.6344   83.3726 C   0  0  0  0  0  0  0  0  0  0  0  0
    2.2048   66.9210   84.1336 Br  0  0  0  0  0  0  0  0  0  0  0  0
    0.7386   65.4786   82.0352 C   0  0  0  0  0  0  0  0  0  0  0  0
    1.4146   66.4871   80.5921 Br  0  0  0  0  0  0  0  0  0  0  0  0
   -0.1494   64.4514   81.8351 N   0  0  0  0  0  0  0  0  0  0  0  0
   -0.4065   63.9897   83.0411 C   0  0  0  0  0  0  0  0  0  0  0  0
    0.6901   64.6145   87.0831 H   0  0  0  0  0  0  0  0  0  0  0  0
   -4.2835   60.0647   79.4983 N   0  0  0  0  0  0  0  0  0  0  0  0
   -3.6209   60.7370   80.5297 C   0  0  0  0  0  0  0  0  0  0  0  0
   -3.6524   62.1302   80.5968 C   0  0  0  0  0  0  0  0  0  0  0  0
   -2.8966   62.8175   81.5533 C   0  0  0  0  0  0  0  0  0  0  0  0
   -2.0641   62.1208   82.4408 C   0  0  0  0  0  0  0  0  0  0  0  0
   -1.9776   60.7301   82.3251 C   0  0  0  0  0  0  0  0  0  0  0  0
   -2.7385   60.0503   81.3652 C   0  0  0  0  0  0  0  0  0  0  0  0
   -4.4661   59.0854   79.6950 H   0  0  0  0  0  0  0  0  0  0  0  0
   -5.1072   60.5475   79.1532 H   0  0  0  0  0  0  0  0  0  0  0  0
 14 15  1  0  0  0
 15 16  1  0  0  0
 16 17  2  0  0  0
 17 18  1  0  0  0
 18  1  1  0  0  0
  1  2  2  0  0  0
  2  3  1  0  0  0
  3  4  2  0  0  0
  4  5  1  0  0  0
  4  6  1  0  0  0
  6  7  1  0  0  0
  7  8  1  0  0  0
  7  9  2  0  0  0
  9 10  1  0  0  0
  9 11  1  0  0  0
 11 12  2  0  0  0
 18 19  2  0  0  0
 19 20  1  0  0  0
 20 15  2  0  0  0
 12  1  1  0  0  0
 12  6  1  0  0  0
 14 21  1  0  0  0
 14 22  1  0  0  0
  5 13  1  0  0  0
M  END
> <minimizedAffinity>
-8.40279

$$$$



 22 24  0  0  0  0  0  0  0  0999 V2000
   -1.7972   62.0613   82.3900 C   0  0  0  0  0  0  0  0  0  0  0  0
   -2.0859   61.3794   83.4700 N   0  0  0  0  0  0  0  0  0  0  0  0
   -1.5726   61.7665   84.7393 N   0  0  0  0  0  0  0  0  0  0  0  0
   -0.8059   62.8022   84.8076 C   0  0  0  0  0  0  0  0  0  0  0  0
   -0.2893   63.2208   85.9728 O   0  0  0  0  0  0  0  0  0  0  0  0
   -0.4430   63.5665   83.7197 N   0  0  0  0  0  0  0  0  0  0  0  0
    0.3482   64.6739   83.5408 C   0  0  0  0  0  0  0  0  0  0  0  0
    1.3085   65.6720   84.8432 Br  0  0  0  0  0  0  0  0  0  0  0  0
    0.3082   64.9175   82.1855 C   0  0  0  0  0  0  0  0  0  0  0  0
    1.1850   66.2971   81.2448 Br  0  0  0  0  0  0  0  0  0  0  0  0
   -0.4820   64.0013   81.5376 N   0  0  0  0  0  0  0  0  0  0  0  0
   -0.9295   63.2103   82.4904 C   0  0  0  0  0  0  0  0  0  0  0  0
   -0.6030   62.6191   86.6707 H   0  0  0  0  0  0  0  0  0  0  0  0
   -3.8870   60.1704   77.4187 N   0  0  0  0  0  0  0  0  0  0  0  0
   -3.3472   60.7196   78.5857 C   0  0  0  0  0  0  0  0  0  0  0  0
   -2.0983   60.3038   79.0478 C   0  0  0  0  0  0  0  0  0  0  0  0
   -1.6021   60.7580   80.2750 C   0  0  0  0  0  0  0  0  0  0  0  0
   -2.3665   61.6126   81.0820 C   0  0  0  0  0  0  0  0  0  0  0  0
   -3.6477   61.9708   80.6517 C   0  0  0  0  0  0  0  0  0  0  0  0
   -4.1359   61.5120   79.4214 C   0  0  0  0  0  0  0  0  0  0  0  0
   -4.6225   60.7319   77.0007 H   0  0  0  0  0  0  0  0  0  0  0  0
   -3.1910   59.8808   76.7386 H   0  0  0  0  0  0  0  0  0  0  0  0
 14 15  1  0  0  0
 15 16  1  0  0  0
 16 17  2  0  0  0
 17 18  1  0  0  0
 18  1  1  0  0  0
  1  2  2  0  0  0
  2  3  1  0  0  0
  3  4  2  0  0  0
  4  5  1  0  0  0
  4  6  1  0  0  0
  6  7  1  0  0  0
  7  8  1  0  0  0
  7  9  2  0  0  0
  9 10  1  0  0  0
  9 11  1  0  0  0
 11 12  2  0  0  0
 18 19  2  0  0  0
 19 20  1  0  0  0
 20 15  2  0  0  0
 12  1  1  0  0  0
 12  6  1  0  0  0
 14 21  1  0  0  0
 14 22  1  0  0  0
  5 13  1  0  0  0
M  END
> <minimizedAffinity>
-8.39251

$$$$
