


 35 38  0  0  0  0  0  0  0  0999 V2000
    2.0330   67.8394   82.4661 N   0  0  0  0  0  0  0  0  0  0  0  0
    2.0815   68.5468   81.2597 C   0  0  0  0  0  0  0  0  0  0  0  0
    2.6367   69.6419   81.1978 O   0  0  0  0  0  0  0  0  0  0  0  0
    1.5133   68.0027   80.1390 N   0  0  0  0  0  0  0  0  0  0  0  0
    0.8669   66.8794   80.1621 C   0  0  0  0  0  0  0  0  0  0  0  0
    0.6777   66.1408   81.4268 C   0  0  0  0  0  0  0  0  0  0  0  0
   -0.0883   64.9924   81.5270 C   0  0  0  0  0  0  0  0  0  0  0  0
   -0.2639   64.3051   82.6802 N   0  0  0  0  0  0  0  0  0  0  0  0
    0.3257   64.7848   83.8014 C   0  0  0  0  0  0  0  0  0  0  0  0
    1.1054   65.9445   83.7744 C   0  0  0  0  0  0  0  0  0  0  0  0
    1.2819   66.6399   82.5709 C   0  0  0  0  0  0  0  0  0  0  0  0
    0.0904   64.0023   85.0270 C   0  0  0  0  0  0  0  0  0  0  0  0
    0.5668   64.4289   86.2751 C   0  0  0  0  0  0  0  0  0  0  0  0
    0.3247   63.6765   87.4245 C   0  0  0  0  0  0  0  0  0  0  0  0
   -0.3919   62.4998   87.3017 C   0  0  0  0  0  0  0  0  0  0  0  0
   -0.8660   62.0370   86.1273 N   0  0  0  0  0  0  0  0  0  0  0  0
   -0.6050   62.7910   85.0302 C   0  0  0  0  0  0  0  0  0  0  0  0
   -0.6119   61.7923   88.4658 O   0  0  0  0  0  0  0  0  0  0  0  0
    0.2906   62.1410   89.5100 C   0  0  0  0  0  0  0  0  0  0  0  0
    0.3408   66.3575   78.9909 N   0  0  0  0  0  0  0  0  0  0  0  0
   -0.6480   66.1112   79.0486 H   0  0  0  0  0  0  0  0  0  0  0  0
    1.0257   65.2800   78.2693 C   0  0  0  0  0  0  0  0  0  0  0  0
   -0.0090   64.4226   77.5090 C   0  0  0  0  0  0  0  0  0  0  0  0
    0.3953   62.9978   77.4235 N   0  0  0  0  0  0  0  0  0  0  0  0
   -0.6515   62.2166   76.7242 C   0  0  0  0  0  0  0  0  0  0  0  0
   -0.5377   60.7159   77.0282 C   0  0  0  0  0  0  0  0  0  0  0  0
   -0.7525   60.4111   78.4130 O   0  0  0  0  0  0  0  0  0  0  0  0
   -0.4413   61.5035   79.2861 C   0  0  0  0  0  0  0  0  0  0  0  0
    0.6852   62.4016   78.7483 C   0  0  0  0  0  0  0  0  0  0  0  0
    2.6751   68.4465   83.6306 C   0  0  0  0  0  0  0  0  0  0  0  0
    4.0596   67.8548   83.9180 C   0  0  0  0  0  0  0  0  0  0  0  0
    4.3842   67.9558   85.3060 O   0  0  0  0  0  0  0  0  0  0  0  0
    5.3220   66.9732   85.7392 C   0  0  0  0  0  0  0  0  0  0  0  0
    4.7472   64.8980   87.0669 C   0  0  0  0  0  0  0  0  0  0  0  0
    4.6578   65.6010   85.7197 C   0  0  0  0  0  0  0  0  0  0  0  0
 34 35  1  0  0  0
 35 33  1  0  0  0
 33 32  1  0  0  0
 32 31  1  0  0  0
 31 30  1  0  0  0
 30  1  1  0  0  0
  1  2  1  0  0  0
  2  3  2  0  0  0
  2  4  1  0  0  0
  4  5  2  0  0  0
  5 20  1  0  0  0
 20 22  1  0  0  0
 22 23  1  0  0  0
 23 24  1  0  0  0
 24 25  1  0  0  0
 25 26  1  0  0  0
 26 27  1  0  0  0
 27 28  1  0  0  0
 28 29  1  0  0  0
  5  6  1  0  0  0
  6  7  1  0  0  0
  7  8  2  0  0  0
  8  9  1  0  0  0
  9 12  1  0  0  0
 12 13  2  0  0  0
 13 14  1  0  0  0
 14 15  2  0  0  0
 15 18  1  0  0  0
 18 19  1  0  0  0
 15 16  1  0  0  0
 16 17  2  0  0  0
  9 10  2  0  0  0
 10 11  1  0  0  0
 11  1  1  0  0  0
 29 24  1  0  0  0
 11  6  2  0  0  0
 17 12  1  0  0  0
 20 21  1  0  0  0
M  END
> <minimizedAffinity>
-9.19534

$$$$



 35 38  0  0  0  0  0  0  0  0999 V2000
    0.1628   64.7484   79.3826 N   0  0  0  0  0  0  0  0  0  0  0  0
    0.0269   64.3752   78.0408 C   0  0  0  0  0  0  0  0  0  0  0  0
   -0.0405   65.2275   77.1575 O   0  0  0  0  0  0  0  0  0  0  0  0
   -0.0191   63.0461   77.7150 N   0  0  0  0  0  0  0  0  0  0  0  0
   -0.0096   62.1094   78.6109 C   0  0  0  0  0  0  0  0  0  0  0  0
    0.0134   62.4388   80.0502 C   0  0  0  0  0  0  0  0  0  0  0  0
   -0.0777   61.4842   81.0482 C   0  0  0  0  0  0  0  0  0  0  0  0
   -0.0523   61.7752   82.3702 N   0  0  0  0  0  0  0  0  0  0  0  0
    0.0441   63.0769   82.7322 C   0  0  0  0  0  0  0  0  0  0  0  0
    0.1305   64.0934   81.7769 C   0  0  0  0  0  0  0  0  0  0  0  0
    0.1092   63.7740   80.4128 C   0  0  0  0  0  0  0  0  0  0  0  0
    0.0557   63.3333   84.1827 C   0  0  0  0  0  0  0  0  0  0  0  0
    0.6551   64.4806   84.7222 C   0  0  0  0  0  0  0  0  0  0  0  0
    0.6467   64.7080   86.0985 C   0  0  0  0  0  0  0  0  0  0  0  0
    0.0372   63.7733   86.9160 C   0  0  0  0  0  0  0  0  0  0  0  0
   -0.5463   62.6491   86.4537 N   0  0  0  0  0  0  0  0  0  0  0  0
   -0.5122   62.4578   85.1110 C   0  0  0  0  0  0  0  0  0  0  0  0
    0.0482   64.0432   88.2691 O   0  0  0  0  0  0  0  0  0  0  0  0
    0.4147   62.9176   89.0599 C   0  0  0  0  0  0  0  0  0  0  0  0
   -0.0234   60.7787   78.2236 N   0  0  0  0  0  0  0  0  0  0  0  0
    0.8654   60.4406   77.8531 H   0  0  0  0  0  0  0  0  0  0  0  0
   -1.0910   60.2523   77.3669 C   0  0  0  0  0  0  0  0  0  0  0  0
   -1.8109   59.0912   78.0861 C   0  0  0  0  0  0  0  0  0  0  0  0
   -3.1380   59.4930   78.6137 N   0  0  0  0  0  0  0  0  0  0  0  0
   -3.3060   60.9602   78.4948 C   0  0  0  0  0  0  0  0  0  0  0  0
   -4.3988   61.4844   79.4373 C   0  0  0  0  0  0  0  0  0  0  0  0
   -4.0801   61.2888   80.8217 O   0  0  0  0  0  0  0  0  0  0  0  0
   -3.1895   60.1891   81.0459 C   0  0  0  0  0  0  0  0  0  0  0  0
   -3.3550   59.0609   80.0141 C   0  0  0  0  0  0  0  0  0  0  0  0
    0.2336   66.1776   79.6816 C   0  0  0  0  0  0  0  0  0  0  0  0
    1.6731   66.7033   79.7187 C   0  0  0  0  0  0  0  0  0  0  0  0
    2.1829   66.7131   81.0536 O   0  0  0  0  0  0  0  0  0  0  0  0
    2.0398   67.9742   81.7031 C   0  0  0  0  0  0  0  0  0  0  0  0
    3.1554   66.8632   83.6833 C   0  0  0  0  0  0  0  0  0  0  0  0
    2.0212   67.7630   83.2130 C   0  0  0  0  0  0  0  0  0  0  0  0
 34 35  1  0  0  0
 35 33  1  0  0  0
 33 32  1  0  0  0
 32 31  1  0  0  0
 31 30  1  0  0  0
 30  1  1  0  0  0
  1  2  1  0  0  0
  2  3  2  0  0  0
  2  4  1  0  0  0
  4  5  2  0  0  0
  5 20  1  0  0  0
 20 22  1  0  0  0
 22 23  1  0  0  0
 23 24  1  0  0  0
 24 25  1  0  0  0
 25 26  1  0  0  0
 26 27  1  0  0  0
 27 28  1  0  0  0
 28 29  1  0  0  0
  5  6  1  0  0  0
  6  7  1  0  0  0
  7  8  2  0  0  0
  8  9  1  0  0  0
  9 12  1  0  0  0
 12 13  2  0  0  0
 13 14  1  0  0  0
 14 15  2  0  0  0
 15 18  1  0  0  0
 18 19  1  0  0  0
 15 16  1  0  0  0
 16 17  2  0  0  0
  9 10  2  0  0  0
 10 11  1  0  0  0
 11  1  1  0  0  0
 29 24  1  0  0  0
 11  6  2  0  0  0
 17 12  1  0  0  0
 20 21  1  0  0  0
M  END
> <minimizedAffinity>
-9.07897

$$$$



 35 38  0  0  0  0  0  0  0  0999 V2000
    1.5067   67.5098   81.2478 N   0  0  0  0  0  0  0  0  0  0  0  0
    2.4441   68.5380   81.3963 C   0  0  0  0  0  0  0  0  0  0  0  0
    2.8064   69.2000   80.4258 O   0  0  0  0  0  0  0  0  0  0  0  0
    2.9495   68.8115   82.6391 N   0  0  0  0  0  0  0  0  0  0  0  0
    2.6448   68.1081   83.6843 C   0  0  0  0  0  0  0  0  0  0  0  0
    1.7530   66.9362   83.5743 C   0  0  0  0  0  0  0  0  0  0  0  0
    1.4759   66.0919   84.6354 C   0  0  0  0  0  0  0  0  0  0  0  0
    0.6559   65.0182   84.5464 N   0  0  0  0  0  0  0  0  0  0  0  0
    0.0958   64.7448   83.3438 C   0  0  0  0  0  0  0  0  0  0  0  0
    0.3395   65.5501   82.2276 C   0  0  0  0  0  0  0  0  0  0  0  0
    1.1858   66.6612   82.3390 C   0  0  0  0  0  0  0  0  0  0  0  0
   -0.7772   63.5591   83.3048 C   0  0  0  0  0  0  0  0  0  0  0  0
   -1.4756   63.1975   82.1437 C   0  0  0  0  0  0  0  0  0  0  0  0
   -2.2902   62.0652   82.1264 C   0  0  0  0  0  0  0  0  0  0  0  0
   -2.3946   61.3123   83.2820 C   0  0  0  0  0  0  0  0  0  0  0  0
   -1.7538   61.6171   84.4285 N   0  0  0  0  0  0  0  0  0  0  0  0
   -0.9768   62.7290   84.4102 C   0  0  0  0  0  0  0  0  0  0  0  0
   -3.2065   60.1985   83.2161 O   0  0  0  0  0  0  0  0  0  0  0  0
   -2.9501   59.3875   82.0745 C   0  0  0  0  0  0  0  0  0  0  0  0
    3.1590   68.4504   84.9250 N   0  0  0  0  0  0  0  0  0  0  0  0
    2.7416   69.2862   85.3358 H   0  0  0  0  0  0  0  0  0  0  0  0
    4.6065   68.5203   85.1497 C   0  0  0  0  0  0  0  0  0  0  0  0
    4.9454   67.9485   86.5432 C   0  0  0  0  0  0  0  0  0  0  0  0
    6.1633   67.1016   86.5227 N   0  0  0  0  0  0  0  0  0  0  0  0
    6.9936   67.4389   85.3428 C   0  0  0  0  0  0  0  0  0  0  0  0
    7.9742   66.3091   84.9974 C   0  0  0  0  0  0  0  0  0  0  0  0
    7.3123   65.0963   84.6132 O   0  0  0  0  0  0  0  0  0  0  0  0
    5.9979   64.9702   85.1692 C   0  0  0  0  0  0  0  0  0  0  0  0
    5.8565   65.6524   86.5401 C   0  0  0  0  0  0  0  0  0  0  0  0
    0.9747   67.2700   79.9075 C   0  0  0  0  0  0  0  0  0  0  0  0
    1.8909   66.3822   79.0578 C   0  0  0  0  0  0  0  0  0  0  0  0
    1.3355   65.0755   78.8961 O   0  0  0  0  0  0  0  0  0  0  0  0
    0.0304   65.0841   78.3221 C   0  0  0  0  0  0  0  0  0  0  0  0
    0.3943   62.6532   78.9202 C   0  0  0  0  0  0  0  0  0  0  0  0
   -0.6182   63.7197   78.5273 C   0  0  0  0  0  0  0  0  0  0  0  0
 34 35  1  0  0  0
 35 33  1  0  0  0
 33 32  1  0  0  0
 32 31  1  0  0  0
 31 30  1  0  0  0
 30  1  1  0  0  0
  1  2  1  0  0  0
  2  3  2  0  0  0
  2  4  1  0  0  0
  4  5  2  0  0  0
  5 20  1  0  0  0
 20 22  1  0  0  0
 22 23  1  0  0  0
 23 24  1  0  0  0
 24 25  1  0  0  0
 25 26  1  0  0  0
 26 27  1  0  0  0
 27 28  1  0  0  0
 28 29  1  0  0  0
  5  6  1  0  0  0
  6  7  1  0  0  0
  7  8  2  0  0  0
  8  9  1  0  0  0
  9 12  1  0  0  0
 12 13  2  0  0  0
 13 14  1  0  0  0
 14 15  2  0  0  0
 15 18  1  0  0  0
 18 19  1  0  0  0
 15 16  1  0  0  0
 16 17  2  0  0  0
  9 10  2  0  0  0
 10 11  1  0  0  0
 11  1  1  0  0  0
 29 24  1  0  0  0
 11  6  2  0  0  0
 17 12  1  0  0  0
 20 21  1  0  0  0
M  END
> <minimizedAffinity>
-8.74652

$$$$



 35 38  0  0  0  0  0  0  0  0999 V2000
    1.3403   67.0690   81.5539 N   0  0  0  0  0  0  0  0  0  0  0  0
    1.4373   67.3119   80.1792 C   0  0  0  0  0  0  0  0  0  0  0  0
    1.7242   68.4314   79.7599 O   0  0  0  0  0  0  0  0  0  0  0  0
    1.2209   66.2856   79.2991 N   0  0  0  0  0  0  0  0  0  0  0  0
    0.8604   65.1020   79.6855 C   0  0  0  0  0  0  0  0  0  0  0  0
    0.6257   64.8110   81.1141 C   0  0  0  0  0  0  0  0  0  0  0  0
    0.1429   63.5972   81.5714 C   0  0  0  0  0  0  0  0  0  0  0  0
   -0.0708   63.3186   82.8790 N   0  0  0  0  0  0  0  0  0  0  0  0
    0.1809   64.2932   83.7854 C   0  0  0  0  0  0  0  0  0  0  0  0
    0.6612   65.5457   83.3927 C   0  0  0  0  0  0  0  0  0  0  0  0
    0.8828   65.8150   82.0357 C   0  0  0  0  0  0  0  0  0  0  0  0
   -0.0807   63.9366   85.1904 C   0  0  0  0  0  0  0  0  0  0  0  0
   -1.1009   63.0420   85.5446 C   0  0  0  0  0  0  0  0  0  0  0  0
   -1.3255   62.7113   86.8811 C   0  0  0  0  0  0  0  0  0  0  0  0
   -0.5210   63.2900   87.8461 C   0  0  0  0  0  0  0  0  0  0  0  0
    0.4678   64.1623   87.5644 N   0  0  0  0  0  0  0  0  0  0  0  0
    0.6521   64.4659   86.2551 C   0  0  0  0  0  0  0  0  0  0  0  0
   -0.7760   62.9288   89.1532 O   0  0  0  0  0  0  0  0  0  0  0  0
    0.2678   62.1527   89.7317 C   0  0  0  0  0  0  0  0  0  0  0  0
    0.6881   64.0905   78.7538 N   0  0  0  0  0  0  0  0  0  0  0  0
    1.5557   63.6448   78.4535 H   0  0  0  0  0  0  0  0  0  0  0  0
   -0.1423   64.2942   77.5624 C   0  0  0  0  0  0  0  0  0  0  0  0
   -1.3718   63.3621   77.6189 C   0  0  0  0  0  0  0  0  0  0  0  0
   -1.0465   62.0367   78.2006 N   0  0  0  0  0  0  0  0  0  0  0  0
   -0.8697   61.0397   77.1190 C   0  0  0  0  0  0  0  0  0  0  0  0
   -1.0199   59.6036   77.6410 C   0  0  0  0  0  0  0  0  0  0  0  0
   -2.3340   59.3298   78.1457 O   0  0  0  0  0  0  0  0  0  0  0  0
   -3.0160   60.5016   78.6089 C   0  0  0  0  0  0  0  0  0  0  0  0
   -2.0632   61.5694   79.1716 C   0  0  0  0  0  0  0  0  0  0  0  0
    1.6048   68.1875   82.4571 C   0  0  0  0  0  0  0  0  0  0  0  0
    3.0812   68.2883   82.8568 C   0  0  0  0  0  0  0  0  0  0  0  0
    3.3321   67.5911   84.0787 O   0  0  0  0  0  0  0  0  0  0  0  0
    4.7170   67.5089   84.4075 C   0  0  0  0  0  0  0  0  0  0  0  0
    5.4594   65.3016   85.3956 C   0  0  0  0  0  0  0  0  0  0  0  0
    4.8841   66.6824   85.6777 C   0  0  0  0  0  0  0  0  0  0  0  0
 34 35  1  0  0  0
 35 33  1  0  0  0
 33 32  1  0  0  0
 32 31  1  0  0  0
 31 30  1  0  0  0
 30  1  1  0  0  0
  1  2  1  0  0  0
  2  3  2  0  0  0
  2  4  1  0  0  0
  4  5  2  0  0  0
  5 20  1  0  0  0
 20 22  1  0  0  0
 22 23  1  0  0  0
 23 24  1  0  0  0
 24 25  1  0  0  0
 25 26  1  0  0  0
 26 27  1  0  0  0
 27 28  1  0  0  0
 28 29  1  0  0  0
  5  6  1  0  0  0
  6  7  1  0  0  0
  7  8  2  0  0  0
  8  9  1  0  0  0
  9 12  1  0  0  0
 12 13  2  0  0  0
 13 14  1  0  0  0
 14 15  2  0  0  0
 15 18  1  0  0  0
 18 19  1  0  0  0
 15 16  1  0  0  0
 16 17  2  0  0  0
  9 10  2  0  0  0
 10 11  1  0  0  0
 11  1  1  0  0  0
 29 24  1  0  0  0
 11  6  2  0  0  0
 17 12  1  0  0  0
 20 21  1  0  0  0
M  END
> <minimizedAffinity>
-8.71679

$$$$



 35 38  0  0  0  0  0  0  0  0999 V2000
    1.4627   66.3416   81.2454 N   0  0  0  0  0  0  0  0  0  0  0  0
    1.4299   66.5910   79.8689 C   0  0  0  0  0  0  0  0  0  0  0  0
    2.0196   67.5595   79.3938 O   0  0  0  0  0  0  0  0  0  0  0  0
    0.7423   65.7377   79.0480 N   0  0  0  0  0  0  0  0  0  0  0  0
    0.0572   64.7358   79.5030 C   0  0  0  0  0  0  0  0  0  0  0  0
   -0.0461   64.4864   80.9548 C   0  0  0  0  0  0  0  0  0  0  0  0
   -0.8442   63.4953   81.4992 C   0  0  0  0  0  0  0  0  0  0  0  0
   -0.9419   63.2552   82.8280 N   0  0  0  0  0  0  0  0  0  0  0  0
   -0.2355   64.0469   83.6701 C   0  0  0  0  0  0  0  0  0  0  0  0
    0.5833   65.0726   83.1894 C   0  0  0  0  0  0  0  0  0  0  0  0
    0.6778   65.3032   81.8106 C   0  0  0  0  0  0  0  0  0  0  0  0
   -0.3900   63.7461   85.1037 C   0  0  0  0  0  0  0  0  0  0  0  0
    0.4813   64.2785   86.0651 C   0  0  0  0  0  0  0  0  0  0  0  0
    0.3112   63.9875   87.4188 C   0  0  0  0  0  0  0  0  0  0  0  0
   -0.7336   63.1594   87.7874 C   0  0  0  0  0  0  0  0  0  0  0  0
   -1.5956   62.6128   86.9064 N   0  0  0  0  0  0  0  0  0  0  0  0
   -1.3949   62.9118   85.5985 C   0  0  0  0  0  0  0  0  0  0  0  0
   -0.8662   62.9045   89.1370 O   0  0  0  0  0  0  0  0  0  0  0  0
    0.2390   62.1917   89.6819 C   0  0  0  0  0  0  0  0  0  0  0  0
   -0.5922   63.8832   78.6242 N   0  0  0  0  0  0  0  0  0  0  0  0
   -0.7349   62.9390   78.9844 H   0  0  0  0  0  0  0  0  0  0  0  0
   -0.1602   63.7655   77.2277 C   0  0  0  0  0  0  0  0  0  0  0  0
   -1.0702   62.7645   76.4837 C   0  0  0  0  0  0  0  0  0  0  0  0
   -1.3938   61.5763   77.3110 N   0  0  0  0  0  0  0  0  0  0  0  0
   -0.6114   60.4076   76.8448 C   0  0  0  0  0  0  0  0  0  0  0  0
   -1.2373   59.0845   77.3083 C   0  0  0  0  0  0  0  0  0  0  0  0
   -2.5423   58.8631   76.7566 O   0  0  0  0  0  0  0  0  0  0  0  0
   -3.2229   60.0761   76.4129 C   0  0  0  0  0  0  0  0  0  0  0  0
   -2.8407   61.2580   77.3194 C   0  0  0  0  0  0  0  0  0  0  0  0
    2.2302   67.2640   82.0803 C   0  0  0  0  0  0  0  0  0  0  0  0
    1.4268   68.5062   82.4817 C   0  0  0  0  0  0  0  0  0  0  0  0
    2.1696   69.7015   82.2338 O   0  0  0  0  0  0  0  0  0  0  0  0
    1.5871   70.5301   81.2304 C   0  0  0  0  0  0  0  0  0  0  0  0
   -0.7581   71.4397   81.4993 C   0  0  0  0  0  0  0  0  0  0  0  0
    0.0948   70.2323   81.1362 C   0  0  0  0  0  0  0  0  0  0  0  0
 34 35  1  0  0  0
 35 33  1  0  0  0
 33 32  1  0  0  0
 32 31  1  0  0  0
 31 30  1  0  0  0
 30  1  1  0  0  0
  1  2  1  0  0  0
  2  3  2  0  0  0
  2  4  1  0  0  0
  4  5  2  0  0  0
  5 20  1  0  0  0
 20 22  1  0  0  0
 22 23  1  0  0  0
 23 24  1  0  0  0
 24 25  1  0  0  0
 25 26  1  0  0  0
 26 27  1  0  0  0
 27 28  1  0  0  0
 28 29  1  0  0  0
  5  6  1  0  0  0
  6  7  1  0  0  0
  7  8  2  0  0  0
  8  9  1  0  0  0
  9 12  1  0  0  0
 12 13  2  0  0  0
 13 14  1  0  0  0
 14 15  2  0  0  0
 15 18  1  0  0  0
 18 19  1  0  0  0
 15 16  1  0  0  0
 16 17  2  0  0  0
  9 10  2  0  0  0
 10 11  1  0  0  0
 11  1  1  0  0  0
 29 24  1  0  0  0
 11  6  2  0  0  0
 17 12  1  0  0  0
 20 21  1  0  0  0
M  END
> <minimizedAffinity>
-8.65298

$$$$



 35 38  0  0  0  0  0  0  0  0999 V2000
    0.2703   63.7583   84.5669 N   0  0  0  0  0  0  0  0  0  0  0  0
   -0.3176   62.4986   84.4066 C   0  0  0  0  0  0  0  0  0  0  0  0
   -0.2282   61.6489   85.2905 O   0  0  0  0  0  0  0  0  0  0  0  0
   -1.0072   62.2209   83.2568 N   0  0  0  0  0  0  0  0  0  0  0  0
   -1.0832   63.0595   82.2713 C   0  0  0  0  0  0  0  0  0  0  0  0
   -0.3861   64.3601   82.3287 C   0  0  0  0  0  0  0  0  0  0  0  0
   -0.3493   65.2483   81.2679 C   0  0  0  0  0  0  0  0  0  0  0  0
    0.2824   66.4450   81.3120 N   0  0  0  0  0  0  0  0  0  0  0  0
    0.9335   66.7777   82.4522 C   0  0  0  0  0  0  0  0  0  0  0  0
    0.9451   65.9244   83.5591 C   0  0  0  0  0  0  0  0  0  0  0  0
    0.2808   64.6922   83.4985 C   0  0  0  0  0  0  0  0  0  0  0  0
    1.6113   68.0854   82.4378 C   0  0  0  0  0  0  0  0  0  0  0  0
    2.8774   68.2642   83.0138 C   0  0  0  0  0  0  0  0  0  0  0  0
    3.5050   69.5096   82.9809 C   0  0  0  0  0  0  0  0  0  0  0  0
    2.8466   70.5621   82.3708 C   0  0  0  0  0  0  0  0  0  0  0  0
    1.6259   70.4502   81.8092 N   0  0  0  0  0  0  0  0  0  0  0  0
    1.0433   69.2265   81.8668 C   0  0  0  0  0  0  0  0  0  0  0  0
    3.5082   71.7730   82.3571 O   0  0  0  0  0  0  0  0  0  0  0  0
    2.7859   72.8112   83.0106 C   0  0  0  0  0  0  0  0  0  0  0  0
   -1.8235   62.7401   81.1440 N   0  0  0  0  0  0  0  0  0  0  0  0
   -2.8254   62.6447   81.3135 H   0  0  0  0  0  0  0  0  0  0  0  0
   -1.4164   61.6446   80.2582 C   0  0  0  0  0  0  0  0  0  0  0  0
   -0.7677   62.2210   78.9812 C   0  0  0  0  0  0  0  0  0  0  0  0
   -1.3941   61.6927   77.7445 N   0  0  0  0  0  0  0  0  0  0  0  0
   -2.7399   61.1537   78.0502 C   0  0  0  0  0  0  0  0  0  0  0  0
   -3.2213   60.1804   76.9646 C   0  0  0  0  0  0  0  0  0  0  0  0
   -2.3998   59.0093   76.8638 O   0  0  0  0  0  0  0  0  0  0  0  0
   -1.0547   59.2235   77.3083 C   0  0  0  0  0  0  0  0  0  0  0  0
   -0.5659   60.6627   77.0751 C   0  0  0  0  0  0  0  0  0  0  0  0
    0.9744   64.0197   85.8210 C   0  0  0  0  0  0  0  0  0  0  0  0
    0.0384   64.5007   86.9355 C   0  0  0  0  0  0  0  0  0  0  0  0
    0.2816   63.7928   88.1528 O   0  0  0  0  0  0  0  0  0  0  0  0
   -0.8687   63.1127   88.6497 C   0  0  0  0  0  0  0  0  0  0  0  0
   -2.7487   62.1099   87.2860 C   0  0  0  0  0  0  0  0  0  0  0  0
   -2.0527   63.3889   87.7297 C   0  0  0  0  0  0  0  0  0  0  0  0
 34 35  1  0  0  0
 35 33  1  0  0  0
 33 32  1  0  0  0
 32 31  1  0  0  0
 31 30  1  0  0  0
 30  1  1  0  0  0
  1  2  1  0  0  0
  2  3  2  0  0  0
  2  4  1  0  0  0
  4  5  2  0  0  0
  5 20  1  0  0  0
 20 22  1  0  0  0
 22 23  1  0  0  0
 23 24  1  0  0  0
 24 25  1  0  0  0
 25 26  1  0  0  0
 26 27  1  0  0  0
 27 28  1  0  0  0
 28 29  1  0  0  0
  5  6  1  0  0  0
  6  7  1  0  0  0
  7  8  2  0  0  0
  8  9  1  0  0  0
  9 12  1  0  0  0
 12 13  2  0  0  0
 13 14  1  0  0  0
 14 15  2  0  0  0
 15 18  1  0  0  0
 18 19  1  0  0  0
 15 16  1  0  0  0
 16 17  2  0  0  0
  9 10  2  0  0  0
 10 11  1  0  0  0
 11  1  1  0  0  0
 29 24  1  0  0  0
 11  6  2  0  0  0
 17 12  1  0  0  0
 20 21  1  0  0  0
M  END
> <minimizedAffinity>
-8.58834

$$$$



 35 38  0  0  0  0  0  0  0  0999 V2000
    0.3973   64.0393   84.1762 N   0  0  0  0  0  0  0  0  0  0  0  0
    0.7599   65.0319   85.0935 C   0  0  0  0  0  0  0  0  0  0  0  0
    0.6173   64.8509   86.3011 O   0  0  0  0  0  0  0  0  0  0  0  0
    1.2887   66.2088   84.6352 N   0  0  0  0  0  0  0  0  0  0  0  0
    1.4071   66.4730   83.3717 C   0  0  0  0  0  0  0  0  0  0  0  0
    0.9343   65.5165   82.3509 C   0  0  0  0  0  0  0  0  0  0  0  0
    0.9428   65.7896   80.9940 C   0  0  0  0  0  0  0  0  0  0  0  0
    0.5165   64.9178   80.0499 N   0  0  0  0  0  0  0  0  0  0  0  0
    0.0334   63.7214   80.4621 C   0  0  0  0  0  0  0  0  0  0  0  0
   -0.0129   63.3832   81.8175 C   0  0  0  0  0  0  0  0  0  0  0  0
    0.4383   64.2949   82.7809 C   0  0  0  0  0  0  0  0  0  0  0  0
   -0.4259   62.8194   79.3920 C   0  0  0  0  0  0  0  0  0  0  0  0
    0.3192   62.6301   78.2191 C   0  0  0  0  0  0  0  0  0  0  0  0
   -0.1303   61.7641   77.2221 C   0  0  0  0  0  0  0  0  0  0  0  0
   -1.3287   61.1016   77.4174 C   0  0  0  0  0  0  0  0  0  0  0  0
   -2.0902   61.2517   78.5200 N   0  0  0  0  0  0  0  0  0  0  0  0
   -1.6253   62.1073   79.4645 C   0  0  0  0  0  0  0  0  0  0  0  0
   -1.7301   60.2513   76.4076 O   0  0  0  0  0  0  0  0  0  0  0  0
   -3.1200   59.9468   76.4536 C   0  0  0  0  0  0  0  0  0  0  0  0
    1.9812   67.6665   82.9633 N   0  0  0  0  0  0  0  0  0  0  0  0
    2.5854   67.5829   82.1450 H   0  0  0  0  0  0  0  0  0  0  0  0
    2.6526   68.5492   83.9229 C   0  0  0  0  0  0  0  0  0  0  0  0
    4.1347   68.1387   84.0595 C   0  0  0  0  0  0  0  0  0  0  0  0
    4.3452   67.1425   85.1384 N   0  0  0  0  0  0  0  0  0  0  0  0
    5.1182   67.7523   86.2456 C   0  0  0  0  0  0  0  0  0  0  0  0
    5.7761   66.6860   87.1329 C   0  0  0  0  0  0  0  0  0  0  0  0
    6.7488   65.9006   86.4302 O   0  0  0  0  0  0  0  0  0  0  0  0
    6.5071   65.8330   85.0196 C   0  0  0  0  0  0  0  0  0  0  0  0
    5.0137   65.9097   84.6607 C   0  0  0  0  0  0  0  0  0  0  0  0
   -0.1389   62.7892   84.7116 C   0  0  0  0  0  0  0  0  0  0  0  0
   -1.6668   62.8054   84.8336 C   0  0  0  0  0  0  0  0  0  0  0  0
   -2.0742   62.7486   86.2022 O   0  0  0  0  0  0  0  0  0  0  0  0
   -1.1336   62.0857   87.0440 C   0  0  0  0  0  0  0  0  0  0  0  0
    0.2347   62.6237   89.1026 C   0  0  0  0  0  0  0  0  0  0  0  0
   -1.1122   62.7666   88.4080 C   0  0  0  0  0  0  0  0  0  0  0  0
 34 35  1  0  0  0
 35 33  1  0  0  0
 33 32  1  0  0  0
 32 31  1  0  0  0
 31 30  1  0  0  0
 30  1  1  0  0  0
  1  2  1  0  0  0
  2  3  2  0  0  0
  2  4  1  0  0  0
  4  5  2  0  0  0
  5 20  1  0  0  0
 20 22  1  0  0  0
 22 23  1  0  0  0
 23 24  1  0  0  0
 24 25  1  0  0  0
 25 26  1  0  0  0
 26 27  1  0  0  0
 27 28  1  0  0  0
 28 29  1  0  0  0
  5  6  1  0  0  0
  6  7  1  0  0  0
  7  8  2  0  0  0
  8  9  1  0  0  0
  9 12  1  0  0  0
 12 13  2  0  0  0
 13 14  1  0  0  0
 14 15  2  0  0  0
 15 18  1  0  0  0
 18 19  1  0  0  0
 15 16  1  0  0  0
 16 17  2  0  0  0
  9 10  2  0  0  0
 10 11  1  0  0  0
 11  1  1  0  0  0
 29 24  1  0  0  0
 11  6  2  0  0  0
 17 12  1  0  0  0
 20 21  1  0  0  0
M  END
> <minimizedAffinity>
-8.56974

$$$$



 35 38  0  0  0  0  0  0  0  0999 V2000
   -1.6810   62.3375   83.9414 N   0  0  0  0  0  0  0  0  0  0  0  0
   -2.5252   61.4489   83.2663 C   0  0  0  0  0  0  0  0  0  0  0  0
   -3.1218   60.5650   83.8779 O   0  0  0  0  0  0  0  0  0  0  0  0
   -2.6928   61.5784   81.9136 N   0  0  0  0  0  0  0  0  0  0  0  0
   -2.0445   62.4555   81.2131 C   0  0  0  0  0  0  0  0  0  0  0  0
   -1.0505   63.3452   81.8464 C   0  0  0  0  0  0  0  0  0  0  0  0
   -0.2584   64.2274   81.1322 C   0  0  0  0  0  0  0  0  0  0  0  0
    0.6519   65.0507   81.7035 N   0  0  0  0  0  0  0  0  0  0  0  0
    0.8100   64.9877   83.0473 C   0  0  0  0  0  0  0  0  0  0  0  0
    0.0500   64.1134   83.8292 C   0  0  0  0  0  0  0  0  0  0  0  0
   -0.8923   63.2726   83.2222 C   0  0  0  0  0  0  0  0  0  0  0  0
    1.8217   65.8980   83.6109 C   0  0  0  0  0  0  0  0  0  0  0  0
    2.7784   65.4532   84.5348 C   0  0  0  0  0  0  0  0  0  0  0  0
    3.7331   66.3306   85.0492 C   0  0  0  0  0  0  0  0  0  0  0  0
    3.7098   67.6482   84.6290 C   0  0  0  0  0  0  0  0  0  0  0  0
    2.8088   68.1327   83.7506 N   0  0  0  0  0  0  0  0  0  0  0  0
    1.8912   67.2525   83.2775 C   0  0  0  0  0  0  0  0  0  0  0  0
    4.6764   68.4776   85.1598 O   0  0  0  0  0  0  0  0  0  0  0  0
    5.7378   67.7670   85.7883 C   0  0  0  0  0  0  0  0  0  0  0  0
   -2.2782   62.5661   79.8514 N   0  0  0  0  0  0  0  0  0  0  0  0
   -2.4573   63.5190   79.5328 H   0  0  0  0  0  0  0  0  0  0  0  0
   -3.2349   61.6842   79.1750 C   0  0  0  0  0  0  0  0  0  0  0  0
   -3.4765   62.1849   77.7347 C   0  0  0  0  0  0  0  0  0  0  0  0
   -2.7486   61.3742   76.7278 N   0  0  0  0  0  0  0  0  0  0  0  0
   -2.6346   59.9725   77.1943 C   0  0  0  0  0  0  0  0  0  0  0  0
   -1.5080   59.2230   76.4687 C   0  0  0  0  0  0  0  0  0  0  0  0
   -0.2117   59.7767   76.7326 O   0  0  0  0  0  0  0  0  0  0  0  0
   -0.2516   61.1660   77.0802 C   0  0  0  0  0  0  0  0  0  0  0  0
   -1.4098   61.9216   76.4074 C   0  0  0  0  0  0  0  0  0  0  0  0
   -1.5523   62.1782   85.3888 C   0  0  0  0  0  0  0  0  0  0  0  0
   -2.7487   62.7528   86.1556 C   0  0  0  0  0  0  0  0  0  0  0  0
   -2.3396   63.3051   87.4085 O   0  0  0  0  0  0  0  0  0  0  0  0
   -0.9491   63.6157   87.4611 C   0  0  0  0  0  0  0  0  0  0  0  0
    0.2314   62.0929   89.1004 C   0  0  0  0  0  0  0  0  0  0  0  0
   -0.4480   63.4388   88.8902 C   0  0  0  0  0  0  0  0  0  0  0  0
 34 35  1  0  0  0
 35 33  1  0  0  0
 33 32  1  0  0  0
 32 31  1  0  0  0
 31 30  1  0  0  0
 30  1  1  0  0  0
  1  2  1  0  0  0
  2  3  2  0  0  0
  2  4  1  0  0  0
  4  5  2  0  0  0
  5 20  1  0  0  0
 20 22  1  0  0  0
 22 23  1  0  0  0
 23 24  1  0  0  0
 24 25  1  0  0  0
 25 26  1  0  0  0
 26 27  1  0  0  0
 27 28  1  0  0  0
 28 29  1  0  0  0
  5  6  1  0  0  0
  6  7  1  0  0  0
  7  8  2  0  0  0
  8  9  1  0  0  0
  9 12  1  0  0  0
 12 13  2  0  0  0
 13 14  1  0  0  0
 14 15  2  0  0  0
 15 18  1  0  0  0
 18 19  1  0  0  0
 15 16  1  0  0  0
 16 17  2  0  0  0
  9 10  2  0  0  0
 10 11  1  0  0  0
 11  1  1  0  0  0
 29 24  1  0  0  0
 11  6  2  0  0  0
 17 12  1  0  0  0
 20 21  1  0  0  0
M  END
> <minimizedAffinity>
-8.55698

$$$$



 35 38  0  0  0  0  0  0  0  0999 V2000
   -0.2875   63.4800   85.6542 N   0  0  0  0  0  0  0  0  0  0  0  0
   -0.7746   62.1682   85.6575 C   0  0  0  0  0  0  0  0  0  0  0  0
   -0.9728   61.5765   86.7167 O   0  0  0  0  0  0  0  0  0  0  0  0
   -1.0419   61.5481   84.4663 N   0  0  0  0  0  0  0  0  0  0  0  0
   -0.7973   62.1053   83.3217 C   0  0  0  0  0  0  0  0  0  0  0  0
   -0.1736   63.4418   83.2483 C   0  0  0  0  0  0  0  0  0  0  0  0
    0.2017   64.0391   82.0576 C   0  0  0  0  0  0  0  0  0  0  0  0
    0.7694   65.2658   81.9790 N   0  0  0  0  0  0  0  0  0  0  0  0
    1.0028   65.9327   83.1347 C   0  0  0  0  0  0  0  0  0  0  0  0
    0.6575   65.3851   84.3734 C   0  0  0  0  0  0  0  0  0  0  0  0
    0.0650   64.1169   84.4360 C   0  0  0  0  0  0  0  0  0  0  0  0
    1.6320   67.2564   82.9879 C   0  0  0  0  0  0  0  0  0  0  0  0
    1.4617   68.0275   81.8289 C   0  0  0  0  0  0  0  0  0  0  0  0
    2.0596   69.2826   81.7147 C   0  0  0  0  0  0  0  0  0  0  0  0
    2.8263   69.7445   82.7692 C   0  0  0  0  0  0  0  0  0  0  0  0
    3.0315   69.0433   83.9025 N   0  0  0  0  0  0  0  0  0  0  0  0
    2.4408   67.8242   83.9750 C   0  0  0  0  0  0  0  0  0  0  0  0
    3.3929   70.9930   82.6138 O   0  0  0  0  0  0  0  0  0  0  0  0
    2.4610   72.0547   82.7889 C   0  0  0  0  0  0  0  0  0  0  0  0
   -1.1194   61.4457   82.1461 N   0  0  0  0  0  0  0  0  0  0  0  0
   -0.4408   61.5729   81.3945 H   0  0  0  0  0  0  0  0  0  0  0  0
   -2.4587   61.5581   81.5593 C   0  0  0  0  0  0  0  0  0  0  0  0
   -2.3514   62.0963   80.1162 C   0  0  0  0  0  0  0  0  0  0  0  0
   -1.0310   61.8071   79.5048 N   0  0  0  0  0  0  0  0  0  0  0  0
   -0.5485   62.9933   78.7596 C   0  0  0  0  0  0  0  0  0  0  0  0
    0.5271   62.6178   77.7304 C   0  0  0  0  0  0  0  0  0  0  0  0
    0.0342   61.7471   76.7031 O   0  0  0  0  0  0  0  0  0  0  0  0
   -1.0849   60.9568   77.1222 C   0  0  0  0  0  0  0  0  0  0  0  0
   -1.0541   60.6177   78.6218 C   0  0  0  0  0  0  0  0  0  0  0  0
   -0.0409   64.1114   86.9493 C   0  0  0  0  0  0  0  0  0  0  0  0
    1.3026   63.6995   87.5617 C   0  0  0  0  0  0  0  0  0  0  0  0
    2.3768   64.4586   87.0032 O   0  0  0  0  0  0  0  0  0  0  0  0
    3.6249   64.2343   87.6549 C   0  0  0  0  0  0  0  0  0  0  0  0
    5.6774   65.6985   87.8630 C   0  0  0  0  0  0  0  0  0  0  0  0
    4.7224   64.9893   86.9132 C   0  0  0  0  0  0  0  0  0  0  0  0
 34 35  1  0  0  0
 35 33  1  0  0  0
 33 32  1  0  0  0
 32 31  1  0  0  0
 31 30  1  0  0  0
 30  1  1  0  0  0
  1  2  1  0  0  0
  2  3  2  0  0  0
  2  4  1  0  0  0
  4  5  2  0  0  0
  5 20  1  0  0  0
 20 22  1  0  0  0
 22 23  1  0  0  0
 23 24  1  0  0  0
 24 25  1  0  0  0
 25 26  1  0  0  0
 26 27  1  0  0  0
 27 28  1  0  0  0
 28 29  1  0  0  0
  5  6  1  0  0  0
  6  7  1  0  0  0
  7  8  2  0  0  0
  8  9  1  0  0  0
  9 12  1  0  0  0
 12 13  2  0  0  0
 13 14  1  0  0  0
 14 15  2  0  0  0
 15 18  1  0  0  0
 18 19  1  0  0  0
 15 16  1  0  0  0
 16 17  2  0  0  0
  9 10  2  0  0  0
 10 11  1  0  0  0
 11  1  1  0  0  0
 29 24  1  0  0  0
 11  6  2  0  0  0
 17 12  1  0  0  0
 20 21  1  0  0  0
M  END
> <minimizedAffinity>
-8.52903

$$$$
