


 37 41  0  0  0  0  0  0  0  0999 V2000
    1.4435   66.3082   79.4150 C   0  0  0  0  0  0  0  0  0  0  0  0
    1.0960   65.7488   80.5818 N   0  0  0  0  0  0  0  0  0  0  0  0
    1.2795   66.4567   81.7102 C   0  0  0  0  0  0  0  0  0  0  0  0
    1.7895   67.7640   81.6908 C   0  0  0  0  0  0  0  0  0  0  0  0
    1.9660   68.5942   82.8285 C   0  0  0  0  0  0  0  0  0  0  0  0
    2.4921   69.8777   82.7020 C   0  0  0  0  0  0  0  0  0  0  0  0
    2.8429   70.3466   81.4441 C   0  0  0  0  0  0  0  0  0  0  0  0
    2.6574   69.5309   80.3243 C   0  0  0  0  0  0  0  0  0  0  0  0
    2.1313   68.2480   80.4262 C   0  0  0  0  0  0  0  0  0  0  0  0
    1.9707   67.5314   79.3115 N   0  0  0  0  0  0  0  0  0  0  0  0
    1.2300   65.5025   78.2988 N   0  0  0  0  0  0  0  0  0  0  0  0
    1.9470   65.7014   77.6168 H   0  0  0  0  0  0  0  0  0  0  0  0
   -1.5157   62.4143   77.4754 C   0  0  0  0  0  0  0  0  0  0  0  0
   -0.2258   62.0786   77.8819 C   0  0  0  0  0  0  0  0  0  0  0  0
    0.6976   63.0945   78.1557 C   0  0  0  0  0  0  0  0  0  0  0  0
    0.3590   64.4461   78.0130 C   0  0  0  0  0  0  0  0  0  0  0  0
   -0.9495   64.7536   77.5976 C   0  0  0  0  0  0  0  0  0  0  0  0
   -1.8834   63.7501   77.3230 C   0  0  0  0  0  0  0  0  0  0  0  0
   -2.7044   61.1447   77.1272 S   0  0  0  0  0  0  0  0  0  0  0  0
   -2.0127   59.9943   76.5849 O   0  0  0  0  0  0  0  0  0  0  0  0
   -3.7986   61.7631   76.4081 O   0  0  0  0  0  0  0  0  0  0  0  0
   -2.6954   60.5838   82.7979 C   0  0  0  0  0  0  0  0  0  0  0  0
   -2.6216   61.3698   81.5693 N   0  0  0  0  0  0  0  0  0  0  0  0
   -3.9594   61.5101   80.9590 C   0  0  0  0  0  0  0  0  0  0  0  0
   -3.8992   61.8429   79.4569 C   0  0  0  0  0  0  0  0  0  0  0  0
   -3.2684   60.7218   78.6819 N   0  0  0  0  0  0  0  0  0  0  0  0
   -2.2662   59.9522   79.4939 C   0  0  0  0  0  0  0  0  0  0  0  0
   -1.6456   60.8100   80.6112 C   0  0  0  0  0  0  0  0  0  0  0  0
    0.9140   65.8767   82.9436 N   0  0  0  0  0  0  0  0  0  0  0  0
    1.6240   66.0891   83.6387 H   0  0  0  0  0  0  0  0  0  0  0  0
    0.6410   64.4462   82.8992 C   0  0  0  0  0  0  0  0  0  0  0  0
    0.3048   63.9724   84.2952 C   0  0  0  0  0  0  0  0  0  0  0  0
   -0.3908   62.7686   84.4845 C   0  0  0  0  0  0  0  0  0  0  0  0
   -0.7146   62.3310   85.7694 C   0  0  0  0  0  0  0  0  0  0  0  0
   -0.3504   63.0935   86.8776 C   0  0  0  0  0  0  0  0  0  0  0  0
    0.3346   64.2948   86.7023 C   0  0  0  0  0  0  0  0  0  0  0  0
    0.6591   64.7347   85.4176 C   0  0  0  0  0  0  0  0  0  0  0  0
 22 23  1  0  0  0
 23 24  1  0  0  0
 24 25  1  0  0  0
 25 26  1  0  0  0
 26 19  1  0  0  0
 19 20  2  0  0  0
 19 21  2  0  0  0
 19 13  1  0  0  0
 13 14  1  0  0  0
 14 15  2  0  0  0
 15 16  1  0  0  0
 16 11  1  0  0  0
 11  1  1  0  0  0
  1  2  2  0  0  0
  2  3  1  0  0  0
  3 29  1  0  0  0
 29 31  1  0  0  0
 31 32  1  0  0  0
 32 33  2  0  0  0
 33 34  1  0  0  0
 34 35  2  0  0  0
 35 36  1  0  0  0
 36 37  2  0  0  0
  3  4  2  0  0  0
  4  5  1  0  0  0
  5  6  2  0  0  0
  6  7  1  0  0  0
  7  8  2  0  0  0
  8  9  1  0  0  0
  9 10  2  0  0  0
 16 17  2  0  0  0
 17 18  1  0  0  0
 26 27  1  0  0  0
 27 28  1  0  0  0
 28 23  1  0  0  0
 18 13  2  0  0  0
 10  1  1  0  0  0
 37 32  1  0  0  0
  9  4  1  0  0  0
 11 12  1  0  0  0
 29 30  1  0  0  0
M  END
> <minimizedAffinity>
-10.97665

$$$$



 37 41  0  0  0  0  0  0  0  0999 V2000
   -2.1749   61.8448   84.2505 C   0  0  0  0  0  0  0  0  0  0  0  0
   -1.1589   62.5730   83.7682 N   0  0  0  0  0  0  0  0  0  0  0  0
   -0.4076   63.2753   84.6345 C   0  0  0  0  0  0  0  0  0  0  0  0
   -0.6401   63.2370   86.0180 C   0  0  0  0  0  0  0  0  0  0  0  0
    0.1354   63.9067   87.0004 C   0  0  0  0  0  0  0  0  0  0  0  0
   -0.1871   63.8121   88.3521 C   0  0  0  0  0  0  0  0  0  0  0  0
   -1.2798   63.0486   88.7375 C   0  0  0  0  0  0  0  0  0  0  0  0
   -2.0346   62.3812   87.7688 C   0  0  0  0  0  0  0  0  0  0  0  0
   -1.7296   62.4587   86.4146 C   0  0  0  0  0  0  0  0  0  0  0  0
   -2.4879   61.7837   85.5478 N   0  0  0  0  0  0  0  0  0  0  0  0
   -2.9067   61.1583   83.2841 N   0  0  0  0  0  0  0  0  0  0  0  0
   -3.6346   60.6328   83.7454 H   0  0  0  0  0  0  0  0  0  0  0  0
   -2.7801   61.1699   79.0725 C   0  0  0  0  0  0  0  0  0  0  0  0
   -3.8739   61.7462   79.7155 C   0  0  0  0  0  0  0  0  0  0  0  0
   -3.9304   61.7465   81.1142 C   0  0  0  0  0  0  0  0  0  0  0  0
   -2.9174   61.1629   81.8855 C   0  0  0  0  0  0  0  0  0  0  0  0
   -1.8278   60.5858   81.2079 C   0  0  0  0  0  0  0  0  0  0  0  0
   -1.7561   60.5801   79.8117 C   0  0  0  0  0  0  0  0  0  0  0  0
   -2.6841   61.1614   77.3014 S   0  0  0  0  0  0  0  0  0  0  0  0
   -3.8751   61.7873   76.7668 O   0  0  0  0  0  0  0  0  0  0  0  0
   -2.2987   59.8258   76.8962 O   0  0  0  0  0  0  0  0  0  0  0  0
    1.2241   65.1942   78.2685 C   0  0  0  0  0  0  0  0  0  0  0  0
    0.5638   63.9260   78.5658 N   0  0  0  0  0  0  0  0  0  0  0  0
    0.9660   62.8885   77.5945 C   0  0  0  0  0  0  0  0  0  0  0  0
   -0.0423   61.7281   77.5075 C   0  0  0  0  0  0  0  0  0  0  0  0
   -1.3695   62.2055   76.9918 N   0  0  0  0  0  0  0  0  0  0  0  0
   -1.6452   63.6381   77.3488 C   0  0  0  0  0  0  0  0  0  0  0  0
   -0.9059   64.0679   78.6288 C   0  0  0  0  0  0  0  0  0  0  0  0
    0.6662   64.0431   84.1361 N   0  0  0  0  0  0  0  0  0  0  0  0
    1.0220   64.6433   84.8748 H   0  0  0  0  0  0  0  0  0  0  0  0
    0.3720   64.8144   82.9356 C   0  0  0  0  0  0  0  0  0  0  0  0
    1.1619   66.1030   82.9804 C   0  0  0  0  0  0  0  0  0  0  0  0
    1.7324   66.5406   84.1854 C   0  0  0  0  0  0  0  0  0  0  0  0
    2.4529   67.7346   84.2366 C   0  0  0  0  0  0  0  0  0  0  0  0
    2.6071   68.5053   83.0858 C   0  0  0  0  0  0  0  0  0  0  0  0
    2.0391   68.0849   81.8842 C   0  0  0  0  0  0  0  0  0  0  0  0
    1.3175   66.8908   81.8308 C   0  0  0  0  0  0  0  0  0  0  0  0
 22 23  1  0  0  0
 23 24  1  0  0  0
 24 25  1  0  0  0
 25 26  1  0  0  0
 26 19  1  0  0  0
 19 20  2  0  0  0
 19 21  2  0  0  0
 19 13  1  0  0  0
 13 14  1  0  0  0
 14 15  2  0  0  0
 15 16  1  0  0  0
 16 11  1  0  0  0
 11  1  1  0  0  0
  1  2  2  0  0  0
  2  3  1  0  0  0
  3 29  1  0  0  0
 29 31  1  0  0  0
 31 32  1  0  0  0
 32 33  2  0  0  0
 33 34  1  0  0  0
 34 35  2  0  0  0
 35 36  1  0  0  0
 36 37  2  0  0  0
  3  4  2  0  0  0
  4  5  1  0  0  0
  5  6  2  0  0  0
  6  7  1  0  0  0
  7  8  2  0  0  0
  8  9  1  0  0  0
  9 10  2  0  0  0
 16 17  2  0  0  0
 17 18  1  0  0  0
 26 27  1  0  0  0
 27 28  1  0  0  0
 28 23  1  0  0  0
 18 13  2  0  0  0
 10  1  1  0  0  0
 37 32  1  0  0  0
  9  4  1  0  0  0
 11 12  1  0  0  0
 29 30  1  0  0  0
M  END
> <minimizedAffinity>
-10.80140

$$$$



 37 41  0  0  0  0  0  0  0  0999 V2000
   -0.8877   63.6104   80.7243 C   0  0  0  0  0  0  0  0  0  0  0  0
   -0.8932   63.1559   81.9847 N   0  0  0  0  0  0  0  0  0  0  0  0
   -1.5317   62.0017   82.2456 C   0  0  0  0  0  0  0  0  0  0  0  0
   -2.1563   61.2549   81.2348 C   0  0  0  0  0  0  0  0  0  0  0  0
   -2.8061   60.0062   81.4179 C   0  0  0  0  0  0  0  0  0  0  0  0
   -3.4064   59.3491   80.3465 C   0  0  0  0  0  0  0  0  0  0  0  0
   -3.3622   59.9260   79.0853 C   0  0  0  0  0  0  0  0  0  0  0  0
   -2.7120   61.1502   78.9061 C   0  0  0  0  0  0  0  0  0  0  0  0
   -2.1032   61.8225   79.9600 C   0  0  0  0  0  0  0  0  0  0  0  0
   -1.4898   62.9816   79.7110 N   0  0  0  0  0  0  0  0  0  0  0  0
   -0.2136   64.8163   80.5452 N   0  0  0  0  0  0  0  0  0  0  0  0
   -0.4903   65.2105   79.6582 H   0  0  0  0  0  0  0  0  0  0  0  0
    2.3755   67.1797   82.8828 C   0  0  0  0  0  0  0  0  0  0  0  0
    1.4412   66.3682   83.5233 C   0  0  0  0  0  0  0  0  0  0  0  0
    0.5726   65.5802   82.7589 C   0  0  0  0  0  0  0  0  0  0  0  0
    0.6092   65.6018   81.3589 C   0  0  0  0  0  0  0  0  0  0  0  0
    1.5608   66.4336   80.7409 C   0  0  0  0  0  0  0  0  0  0  0  0
    2.4365   67.2243   81.4910 C   0  0  0  0  0  0  0  0  0  0  0  0
    3.4895   68.1836   83.8301 S   0  0  0  0  0  0  0  0  0  0  0  0
    2.7666   68.7569   84.9457 O   0  0  0  0  0  0  0  0  0  0  0  0
    4.2109   69.0252   82.8985 O   0  0  0  0  0  0  0  0  0  0  0  0
    6.6214   65.4153   87.7031 C   0  0  0  0  0  0  0  0  0  0  0  0
    5.3547   65.8981   87.1599 N   0  0  0  0  0  0  0  0  0  0  0  0
    4.9439   65.0873   85.9957 C   0  0  0  0  0  0  0  0  0  0  0  0
    3.9513   65.8220   85.0760 C   0  0  0  0  0  0  0  0  0  0  0  0
    4.5852   67.0362   84.4603 N   0  0  0  0  0  0  0  0  0  0  0  0
    5.6463   67.6391   85.3359 C   0  0  0  0  0  0  0  0  0  0  0  0
    5.4073   67.3368   86.8262 C   0  0  0  0  0  0  0  0  0  0  0  0
   -1.5407   61.5140   83.5697 N   0  0  0  0  0  0  0  0  0  0  0  0
   -1.6903   60.5091   83.5570 H   0  0  0  0  0  0  0  0  0  0  0  0
   -2.4847   62.1692   84.4653 C   0  0  0  0  0  0  0  0  0  0  0  0
   -1.7226   62.7449   85.6376 C   0  0  0  0  0  0  0  0  0  0  0  0
   -2.3128   62.7915   86.9098 C   0  0  0  0  0  0  0  0  0  0  0  0
   -1.6197   63.3319   87.9938 C   0  0  0  0  0  0  0  0  0  0  0  0
   -0.3321   63.8347   87.8169 C   0  0  0  0  0  0  0  0  0  0  0  0
    0.2623   63.8007   86.5565 C   0  0  0  0  0  0  0  0  0  0  0  0
   -0.4295   63.2608   85.4705 C   0  0  0  0  0  0  0  0  0  0  0  0
 22 23  1  0  0  0
 23 24  1  0  0  0
 24 25  1  0  0  0
 25 26  1  0  0  0
 26 19  1  0  0  0
 19 20  2  0  0  0
 19 21  2  0  0  0
 19 13  1  0  0  0
 13 14  1  0  0  0
 14 15  2  0  0  0
 15 16  1  0  0  0
 16 11  1  0  0  0
 11  1  1  0  0  0
  1  2  2  0  0  0
  2  3  1  0  0  0
  3 29  1  0  0  0
 29 31  1  0  0  0
 31 32  1  0  0  0
 32 33  2  0  0  0
 33 34  1  0  0  0
 34 35  2  0  0  0
 35 36  1  0  0  0
 36 37  2  0  0  0
  3  4  2  0  0  0
  4  5  1  0  0  0
  5  6  2  0  0  0
  6  7  1  0  0  0
  7  8  2  0  0  0
  8  9  1  0  0  0
  9 10  2  0  0  0
 16 17  2  0  0  0
 17 18  1  0  0  0
 26 27  1  0  0  0
 27 28  1  0  0  0
 28 23  1  0  0  0
 18 13  2  0  0  0
 10  1  1  0  0  0
 37 32  1  0  0  0
  9  4  1  0  0  0
 11 12  1  0  0  0
 29 30  1  0  0  0
M  END
> <minimizedAffinity>
-10.56587

$$$$



 37 41  0  0  0  0  0  0  0  0999 V2000
    2.0902   66.0183   84.8547 C   0  0  0  0  0  0  0  0  0  0  0  0
    2.1072   67.2835   84.4141 N   0  0  0  0  0  0  0  0  0  0  0  0
    3.2958   67.8972   84.2772 C   0  0  0  0  0  0  0  0  0  0  0  0
    4.5054   67.2400   84.5503 C   0  0  0  0  0  0  0  0  0  0  0  0
    5.7998   67.7984   84.3839 C   0  0  0  0  0  0  0  0  0  0  0  0
    6.9408   67.0627   84.6950 C   0  0  0  0  0  0  0  0  0  0  0  0
    6.8041   65.7661   85.1699 C   0  0  0  0  0  0  0  0  0  0  0  0
    5.5286   65.2151   85.3220 C   0  0  0  0  0  0  0  0  0  0  0  0
    4.3760   65.9294   85.0149 C   0  0  0  0  0  0  0  0  0  0  0  0
    3.1921   65.3335   85.1733 N   0  0  0  0  0  0  0  0  0  0  0  0
    0.8182   65.4636   84.9773 N   0  0  0  0  0  0  0  0  0  0  0  0
    0.2724   66.0447   85.5962 H   0  0  0  0  0  0  0  0  0  0  0  0
   -1.2506   62.3894   82.9715 C   0  0  0  0  0  0  0  0  0  0  0  0
   -0.9679   62.2381   84.3276 C   0  0  0  0  0  0  0  0  0  0  0  0
   -0.2784   63.2502   85.0057 C   0  0  0  0  0  0  0  0  0  0  0  0
    0.1513   64.4086   84.3460 C   0  0  0  0  0  0  0  0  0  0  0  0
   -0.1457   64.5311   82.9762 C   0  0  0  0  0  0  0  0  0  0  0  0
   -0.8357   63.5300   82.2862 C   0  0  0  0  0  0  0  0  0  0  0  0
   -2.1269   61.1226   82.0920 S   0  0  0  0  0  0  0  0  0  0  0  0
   -3.4738   61.0376   82.6160 O   0  0  0  0  0  0  0  0  0  0  0  0
   -1.2701   59.9562   82.0473 O   0  0  0  0  0  0  0  0  0  0  0  0
   -2.5237   61.1722   76.4076 C   0  0  0  0  0  0  0  0  0  0  0  0
   -3.0027   60.8185   77.7411 N   0  0  0  0  0  0  0  0  0  0  0  0
   -3.5820   61.9975   78.4166 C   0  0  0  0  0  0  0  0  0  0  0  0
   -3.6164   61.8514   79.9489 C   0  0  0  0  0  0  0  0  0  0  0  0
   -2.2274   61.7630   80.5127 N   0  0  0  0  0  0  0  0  0  0  0  0
   -1.2536   61.1429   79.5518 C   0  0  0  0  0  0  0  0  0  0  0  0
   -1.9460   60.1899   78.5609 C   0  0  0  0  0  0  0  0  0  0  0  0
    3.3237   69.2288   83.8114 N   0  0  0  0  0  0  0  0  0  0  0  0
    2.4748   69.7050   84.1029 H   0  0  0  0  0  0  0  0  0  0  0  0
    3.5391   69.3799   82.3784 C   0  0  0  0  0  0  0  0  0  0  0  0
    2.2308   69.1325   81.6618 C   0  0  0  0  0  0  0  0  0  0  0  0
    1.1724   70.0450   81.7879 C   0  0  0  0  0  0  0  0  0  0  0  0
   -0.0417   69.8171   81.1387 C   0  0  0  0  0  0  0  0  0  0  0  0
   -0.2119   68.6736   80.3606 C   0  0  0  0  0  0  0  0  0  0  0  0
    0.8296   67.7559   80.2332 C   0  0  0  0  0  0  0  0  0  0  0  0
    2.0450   67.9817   80.8823 C   0  0  0  0  0  0  0  0  0  0  0  0
 22 23  1  0  0  0
 23 24  1  0  0  0
 24 25  1  0  0  0
 25 26  1  0  0  0
 26 19  1  0  0  0
 19 20  2  0  0  0
 19 21  2  0  0  0
 19 13  1  0  0  0
 13 14  1  0  0  0
 14 15  2  0  0  0
 15 16  1  0  0  0
 16 11  1  0  0  0
 11  1  1  0  0  0
  1  2  2  0  0  0
  2  3  1  0  0  0
  3 29  1  0  0  0
 29 31  1  0  0  0
 31 32  1  0  0  0
 32 33  2  0  0  0
 33 34  1  0  0  0
 34 35  2  0  0  0
 35 36  1  0  0  0
 36 37  2  0  0  0
  3  4  2  0  0  0
  4  5  1  0  0  0
  5  6  2  0  0  0
  6  7  1  0  0  0
  7  8  2  0  0  0
  8  9  1  0  0  0
  9 10  2  0  0  0
 16 17  2  0  0  0
 17 18  1  0  0  0
 26 27  1  0  0  0
 27 28  1  0  0  0
 28 23  1  0  0  0
 18 13  2  0  0  0
 10  1  1  0  0  0
 37 32  1  0  0  0
  9  4  1  0  0  0
 11 12  1  0  0  0
 29 30  1  0  0  0
M  END
> <minimizedAffinity>
-10.56300

$$$$



 37 41  0  0  0  0  0  0  0  0999 V2000
    2.5912   66.3461   83.6313 C   0  0  0  0  0  0  0  0  0  0  0  0
    1.8754   65.5604   84.4471 N   0  0  0  0  0  0  0  0  0  0  0  0
    2.4707   65.0719   85.5494 C   0  0  0  0  0  0  0  0  0  0  0  0
    3.7977   65.3892   85.8778 C   0  0  0  0  0  0  0  0  0  0  0  0
    4.4814   64.9571   87.0444 C   0  0  0  0  0  0  0  0  0  0  0  0
    5.8065   65.3207   87.2721 C   0  0  0  0  0  0  0  0  0  0  0  0
    6.4605   66.1189   86.3444 C   0  0  0  0  0  0  0  0  0  0  0  0
    5.7812   66.5521   85.2023 C   0  0  0  0  0  0  0  0  0  0  0  0
    4.4578   66.2043   84.9558 C   0  0  0  0  0  0  0  0  0  0  0  0
    3.8698   66.6658   83.8498 N   0  0  0  0  0  0  0  0  0  0  0  0
    1.9012   66.7989   82.5090 N   0  0  0  0  0  0  0  0  0  0  0  0
    1.8880   67.8081   82.5254 H   0  0  0  0  0  0  0  0  0  0  0  0
    0.2720   64.8084   79.1718 C   0  0  0  0  0  0  0  0  0  0  0  0
    1.3894   65.6213   78.9923 C   0  0  0  0  0  0  0  0  0  0  0  0
    1.9391   66.2911   80.0918 C   0  0  0  0  0  0  0  0  0  0  0  0
    1.3791   66.1766   81.3705 C   0  0  0  0  0  0  0  0  0  0  0  0
    0.2493   65.3516   81.5196 C   0  0  0  0  0  0  0  0  0  0  0  0
   -0.3093   64.6744   80.4316 C   0  0  0  0  0  0  0  0  0  0  0  0
   -0.4394   63.9462   77.7947 S   0  0  0  0  0  0  0  0  0  0  0  0
    0.5930   63.1599   77.1530 O   0  0  0  0  0  0  0  0  0  0  0  0
   -1.2215   64.9047   77.0423 O   0  0  0  0  0  0  0  0  0  0  0  0
   -3.8229   59.4019   78.4063 C   0  0  0  0  0  0  0  0  0  0  0  0
   -2.5362   60.0375   78.1361 N   0  0  0  0  0  0  0  0  0  0  0  0
   -1.9270   60.5338   79.3868 C   0  0  0  0  0  0  0  0  0  0  0  0
   -0.8828   61.6393   79.1454 C   0  0  0  0  0  0  0  0  0  0  0  0
   -1.5203   62.8611   78.5489 N   0  0  0  0  0  0  0  0  0  0  0  0
   -2.7223   62.5330   77.7101 C   0  0  0  0  0  0  0  0  0  0  0  0
   -2.6494   61.1106   77.1262 C   0  0  0  0  0  0  0  0  0  0  0  0
    1.7239   64.2456   86.4158 N   0  0  0  0  0  0  0  0  0  0  0  0
    1.6020   63.3323   85.9875 H   0  0  0  0  0  0  0  0  0  0  0  0
    0.4443   64.7938   86.8453 C   0  0  0  0  0  0  0  0  0  0  0  0
   -0.6498   63.8151   86.4827 C   0  0  0  0  0  0  0  0  0  0  0  0
   -0.7298   63.2946   85.1821 C   0  0  0  0  0  0  0  0  0  0  0  0
   -1.7436   62.3998   84.8374 C   0  0  0  0  0  0  0  0  0  0  0  0
   -2.6898   62.0193   85.7871 C   0  0  0  0  0  0  0  0  0  0  0  0
   -2.6254   62.5349   87.0806 C   0  0  0  0  0  0  0  0  0  0  0  0
   -1.6121   63.4306   87.4275 C   0  0  0  0  0  0  0  0  0  0  0  0
 22 23  1  0  0  0
 23 24  1  0  0  0
 24 25  1  0  0  0
 25 26  1  0  0  0
 26 19  1  0  0  0
 19 20  2  0  0  0
 19 21  2  0  0  0
 19 13  1  0  0  0
 13 14  1  0  0  0
 14 15  2  0  0  0
 15 16  1  0  0  0
 16 11  1  0  0  0
 11  1  1  0  0  0
  1  2  2  0  0  0
  2  3  1  0  0  0
  3 29  1  0  0  0
 29 31  1  0  0  0
 31 32  1  0  0  0
 32 33  2  0  0  0
 33 34  1  0  0  0
 34 35  2  0  0  0
 35 36  1  0  0  0
 36 37  2  0  0  0
  3  4  2  0  0  0
  4  5  1  0  0  0
  5  6  2  0  0  0
  6  7  1  0  0  0
  7  8  2  0  0  0
  8  9  1  0  0  0
  9 10  2  0  0  0
 16 17  2  0  0  0
 17 18  1  0  0  0
 26 27  1  0  0  0
 27 28  1  0  0  0
 28 23  1  0  0  0
 18 13  2  0  0  0
 10  1  1  0  0  0
 37 32  1  0  0  0
  9  4  1  0  0  0
 11 12  1  0  0  0
 29 30  1  0  0  0
M  END
> <minimizedAffinity>
-10.31362

$$$$



 37 41  0  0  0  0  0  0  0  0999 V2000
    1.0156   64.6990   84.8528 C   0  0  0  0  0  0  0  0  0  0  0  0
    0.4178   64.0710   83.8313 N   0  0  0  0  0  0  0  0  0  0  0  0
   -0.6308   63.2723   84.0971 C   0  0  0  0  0  0  0  0  0  0  0  0
   -1.1274   63.1095   85.3996 C   0  0  0  0  0  0  0  0  0  0  0  0
   -2.2568   62.3271   85.7566 C   0  0  0  0  0  0  0  0  0  0  0  0
   -2.6626   62.2225   87.0849 C   0  0  0  0  0  0  0  0  0  0  0  0
   -1.9517   62.8971   88.0672 C   0  0  0  0  0  0  0  0  0  0  0  0
   -0.8469   63.6757   87.7111 C   0  0  0  0  0  0  0  0  0  0  0  0
   -0.4256   63.7973   86.3917 C   0  0  0  0  0  0  0  0  0  0  0  0
    0.6306   64.5689   86.1254 N   0  0  0  0  0  0  0  0  0  0  0  0
    2.0984   65.4967   84.4897 N   0  0  0  0  0  0  0  0  0  0  0  0
    2.9502   65.0067   84.7203 H   0  0  0  0  0  0  0  0  0  0  0  0
    2.4744   69.0435   82.2465 C   0  0  0  0  0  0  0  0  0  0  0  0
    3.0980   68.9633   83.4900 C   0  0  0  0  0  0  0  0  0  0  0  0
    2.9787   67.7921   84.2473 C   0  0  0  0  0  0  0  0  0  0  0  0
    2.2293   66.7007   83.7901 C   0  0  0  0  0  0  0  0  0  0  0  0
    1.6084   66.8129   82.5326 C   0  0  0  0  0  0  0  0  0  0  0  0
    1.7206   67.9751   81.7638 C   0  0  0  0  0  0  0  0  0  0  0  0
    2.6149   70.5155   81.2668 S   0  0  0  0  0  0  0  0  0  0  0  0
    2.1723   70.2231   79.9198 O   0  0  0  0  0  0  0  0  0  0  0  0
    3.9270   71.0756   81.5146 O   0  0  0  0  0  0  0  0  0  0  0  0
   -0.2181   75.3360   82.3666 C   0  0  0  0  0  0  0  0  0  0  0  0
    0.2727   74.2920   81.4710 N   0  0  0  0  0  0  0  0  0  0  0  0
   -0.5177   73.0544   81.6304 C   0  0  0  0  0  0  0  0  0  0  0  0
    0.2320   71.7999   81.1458 C   0  0  0  0  0  0  0  0  0  0  0  0
    1.4580   71.5507   81.9766 N   0  0  0  0  0  0  0  0  0  0  0  0
    2.0465   72.8170   82.5299 C   0  0  0  0  0  0  0  0  0  0  0  0
    1.7172   74.0391   81.6537 C   0  0  0  0  0  0  0  0  0  0  0  0
   -1.2684   62.6088   83.0274 N   0  0  0  0  0  0  0  0  0  0  0  0
   -1.2597   61.6075   83.1995 H   0  0  0  0  0  0  0  0  0  0  0  0
   -0.7389   62.9139   81.7048 C   0  0  0  0  0  0  0  0  0  0  0  0
   -1.7721   62.5337   80.6684 C   0  0  0  0  0  0  0  0  0  0  0  0
   -3.0508   62.1145   81.0658 C   0  0  0  0  0  0  0  0  0  0  0  0
   -4.0055   61.7511   80.1152 C   0  0  0  0  0  0  0  0  0  0  0  0
   -3.6911   61.7990   78.7584 C   0  0  0  0  0  0  0  0  0  0  0  0
   -2.4219   62.2068   78.3510 C   0  0  0  0  0  0  0  0  0  0  0  0
   -1.4651   62.5704   79.3005 C   0  0  0  0  0  0  0  0  0  0  0  0
 22 23  1  0  0  0
 23 24  1  0  0  0
 24 25  1  0  0  0
 25 26  1  0  0  0
 26 19  1  0  0  0
 19 20  2  0  0  0
 19 21  2  0  0  0
 19 13  1  0  0  0
 13 14  1  0  0  0
 14 15  2  0  0  0
 15 16  1  0  0  0
 16 11  1  0  0  0
 11  1  1  0  0  0
  1  2  2  0  0  0
  2  3  1  0  0  0
  3 29  1  0  0  0
 29 31  1  0  0  0
 31 32  1  0  0  0
 32 33  2  0  0  0
 33 34  1  0  0  0
 34 35  2  0  0  0
 35 36  1  0  0  0
 36 37  2  0  0  0
  3  4  2  0  0  0
  4  5  1  0  0  0
  5  6  2  0  0  0
  6  7  1  0  0  0
  7  8  2  0  0  0
  8  9  1  0  0  0
  9 10  2  0  0  0
 16 17  2  0  0  0
 17 18  1  0  0  0
 26 27  1  0  0  0
 27 28  1  0  0  0
 28 23  1  0  0  0
 18 13  2  0  0  0
 10  1  1  0  0  0
 37 32  1  0  0  0
  9  4  1  0  0  0
 11 12  1  0  0  0
 29 30  1  0  0  0
M  END
> <minimizedAffinity>
-10.28552

$$$$



 37 41  0  0  0  0  0  0  0  0999 V2000
   -0.5164   63.7321   79.9467 C   0  0  0  0  0  0  0  0  0  0  0  0
   -0.2790   63.4118   81.2259 N   0  0  0  0  0  0  0  0  0  0  0  0
   -0.9107   62.3448   81.7459 C   0  0  0  0  0  0  0  0  0  0  0  0
   -1.7767   61.5496   80.9795 C   0  0  0  0  0  0  0  0  0  0  0  0
   -2.4412   60.3817   81.4372 C   0  0  0  0  0  0  0  0  0  0  0  0
   -3.2913   59.6673   80.5965 C   0  0  0  0  0  0  0  0  0  0  0  0
   -3.4843   60.1058   79.2942 C   0  0  0  0  0  0  0  0  0  0  0  0
   -2.8198   61.2497   78.8430 C   0  0  0  0  0  0  0  0  0  0  0  0
   -1.9644   61.9767   79.6633 C   0  0  0  0  0  0  0  0  0  0  0  0
   -1.3543   63.0518   79.1594 N   0  0  0  0  0  0  0  0  0  0  0  0
    0.1703   64.8560   79.4929 N   0  0  0  0  0  0  0  0  0  0  0  0
    0.4270   64.7080   78.5281 H   0  0  0  0  0  0  0  0  0  0  0  0
    1.0544   68.5909   81.2315 C   0  0  0  0  0  0  0  0  0  0  0  0
   -0.1341   68.4435   80.5192 C   0  0  0  0  0  0  0  0  0  0  0  0
   -0.4390   67.2091   79.9337 C   0  0  0  0  0  0  0  0  0  0  0  0
    0.4349   66.1189   80.0326 C   0  0  0  0  0  0  0  0  0  0  0  0
    1.6286   66.2994   80.7549 C   0  0  0  0  0  0  0  0  0  0  0  0
    1.9456   67.5254   81.3473 C   0  0  0  0  0  0  0  0  0  0  0  0
    1.4603   70.1440   81.9859 S   0  0  0  0  0  0  0  0  0  0  0  0
    2.2991   69.8969   83.1397 O   0  0  0  0  0  0  0  0  0  0  0  0
    0.2312   70.8998   82.1068 O   0  0  0  0  0  0  0  0  0  0  0  0
    5.0781   73.9064   79.6993 C   0  0  0  0  0  0  0  0  0  0  0  0
    4.7113   72.8827   80.6740 N   0  0  0  0  0  0  0  0  0  0  0  0
    4.7328   71.5418   80.0549 C   0  0  0  0  0  0  0  0  0  0  0  0
    3.8790   70.5155   80.8220 C   0  0  0  0  0  0  0  0  0  0  0  0
    2.4269   70.8974   80.7975 N   0  0  0  0  0  0  0  0  0  0  0  0
    2.2229   72.3831   80.7129 C   0  0  0  0  0  0  0  0  0  0  0  0
    3.4072   73.1645   81.3097 C   0  0  0  0  0  0  0  0  0  0  0  0
   -0.6651   61.9984   83.0915 N   0  0  0  0  0  0  0  0  0  0  0  0
   -1.5280   61.6730   83.5181 H   0  0  0  0  0  0  0  0  0  0  0  0
   -0.0480   63.0432   83.8979 C   0  0  0  0  0  0  0  0  0  0  0  0
   -0.7541   63.1068   85.2335 C   0  0  0  0  0  0  0  0  0  0  0  0
   -2.0777   62.6571   85.3552 C   0  0  0  0  0  0  0  0  0  0  0  0
   -2.7393   62.7235   86.5821 C   0  0  0  0  0  0  0  0  0  0  0  0
   -2.0869   63.2435   87.6983 C   0  0  0  0  0  0  0  0  0  0  0  0
   -0.7744   63.7001   87.5886 C   0  0  0  0  0  0  0  0  0  0  0  0
   -0.1107   63.6350   86.3620 C   0  0  0  0  0  0  0  0  0  0  0  0
 22 23  1  0  0  0
 23 24  1  0  0  0
 24 25  1  0  0  0
 25 26  1  0  0  0
 26 19  1  0  0  0
 19 20  2  0  0  0
 19 21  2  0  0  0
 19 13  1  0  0  0
 13 14  1  0  0  0
 14 15  2  0  0  0
 15 16  1  0  0  0
 16 11  1  0  0  0
 11  1  1  0  0  0
  1  2  2  0  0  0
  2  3  1  0  0  0
  3 29  1  0  0  0
 29 31  1  0  0  0
 31 32  1  0  0  0
 32 33  2  0  0  0
 33 34  1  0  0  0
 34 35  2  0  0  0
 35 36  1  0  0  0
 36 37  2  0  0  0
  3  4  2  0  0  0
  4  5  1  0  0  0
  5  6  2  0  0  0
  6  7  1  0  0  0
  7  8  2  0  0  0
  8  9  1  0  0  0
  9 10  2  0  0  0
 16 17  2  0  0  0
 17 18  1  0  0  0
 26 27  1  0  0  0
 27 28  1  0  0  0
 28 23  1  0  0  0
 18 13  2  0  0  0
 10  1  1  0  0  0
 37 32  1  0  0  0
  9  4  1  0  0  0
 11 12  1  0  0  0
 29 30  1  0  0  0
M  END
> <minimizedAffinity>
-10.22761

$$$$



 37 41  0  0  0  0  0  0  0  0999 V2000
   -0.1647   64.5515   80.8866 C   0  0  0  0  0  0  0  0  0  0  0  0
   -0.8170   64.2050   82.0044 N   0  0  0  0  0  0  0  0  0  0  0  0
   -1.8179   63.3121   81.9102 C   0  0  0  0  0  0  0  0  0  0  0  0
   -2.1686   62.7176   80.6882 C   0  0  0  0  0  0  0  0  0  0  0  0
   -3.1757   61.7328   80.5126 C   0  0  0  0  0  0  0  0  0  0  0  0
   -3.4541   61.2125   79.2509 C   0  0  0  0  0  0  0  0  0  0  0  0
   -2.7317   61.6641   78.1557 C   0  0  0  0  0  0  0  0  0  0  0  0
   -1.7330   62.6257   78.3335 C   0  0  0  0  0  0  0  0  0  0  0  0
   -1.4357   63.1568   79.5836 C   0  0  0  0  0  0  0  0  0  0  0  0
   -0.4598   64.0626   79.6789 N   0  0  0  0  0  0  0  0  0  0  0  0
    0.8491   65.4886   81.0731 N   0  0  0  0  0  0  0  0  0  0  0  0
    1.7392   65.0207   80.9871 H   0  0  0  0  0  0  0  0  0  0  0  0
    0.9504   69.6627   81.6390 C   0  0  0  0  0  0  0  0  0  0  0  0
    0.2228   69.1452   80.5692 C   0  0  0  0  0  0  0  0  0  0  0  0
    0.1831   67.7605   80.3675 C   0  0  0  0  0  0  0  0  0  0  0  0
    0.8752   66.8804   81.2092 C   0  0  0  0  0  0  0  0  0  0  0  0
    1.6038   67.4329   82.2784 C   0  0  0  0  0  0  0  0  0  0  0  0
    1.6507   68.8134   82.4940 C   0  0  0  0  0  0  0  0  0  0  0  0
    1.0118   71.4134   81.9175 S   0  0  0  0  0  0  0  0  0  0  0  0
    1.5746   71.6575   83.2288 O   0  0  0  0  0  0  0  0  0  0  0  0
   -0.2793   71.9550   81.5485 O   0  0  0  0  0  0  0  0  0  0  0  0
    5.2328   74.5041   79.6583 C   0  0  0  0  0  0  0  0  0  0  0  0
    4.6682   73.6230   80.6770 N   0  0  0  0  0  0  0  0  0  0  0  0
    4.5709   72.2381   80.1726 C   0  0  0  0  0  0  0  0  0  0  0  0
    3.5401   71.3925   80.9428 C   0  0  0  0  0  0  0  0  0  0  0  0
    2.1527   71.9377   80.7608 N   0  0  0  0  0  0  0  0  0  0  0  0
    2.1415   73.4231   80.5389 C   0  0  0  0  0  0  0  0  0  0  0  0
    3.3642   74.1118   81.1716 C   0  0  0  0  0  0  0  0  0  0  0  0
   -2.5090   62.9393   83.0825 N   0  0  0  0  0  0  0  0  0  0  0  0
   -2.7354   63.7721   83.6188 H   0  0  0  0  0  0  0  0  0  0  0  0
   -1.8318   61.9531   83.9142 C   0  0  0  0  0  0  0  0  0  0  0  0
   -1.6396   62.5337   85.2971 C   0  0  0  0  0  0  0  0  0  0  0  0
   -0.4205   63.1328   85.6488 C   0  0  0  0  0  0  0  0  0  0  0  0
   -0.2321   63.6604   86.9269 C   0  0  0  0  0  0  0  0  0  0  0  0
   -1.2580   63.5910   87.8675 C   0  0  0  0  0  0  0  0  0  0  0  0
   -2.4713   62.9919   87.5326 C   0  0  0  0  0  0  0  0  0  0  0  0
   -2.6618   62.4631   86.2545 C   0  0  0  0  0  0  0  0  0  0  0  0
 22 23  1  0  0  0
 23 24  1  0  0  0
 24 25  1  0  0  0
 25 26  1  0  0  0
 26 19  1  0  0  0
 19 20  2  0  0  0
 19 21  2  0  0  0
 19 13  1  0  0  0
 13 14  1  0  0  0
 14 15  2  0  0  0
 15 16  1  0  0  0
 16 11  1  0  0  0
 11  1  1  0  0  0
  1  2  2  0  0  0
  2  3  1  0  0  0
  3 29  1  0  0  0
 29 31  1  0  0  0
 31 32  1  0  0  0
 32 33  2  0  0  0
 33 34  1  0  0  0
 34 35  2  0  0  0
 35 36  1  0  0  0
 36 37  2  0  0  0
  3  4  2  0  0  0
  4  5  1  0  0  0
  5  6  2  0  0  0
  6  7  1  0  0  0
  7  8  2  0  0  0
  8  9  1  0  0  0
  9 10  2  0  0  0
 16 17  2  0  0  0
 17 18  1  0  0  0
 26 27  1  0  0  0
 27 28  1  0  0  0
 28 23  1  0  0  0
 18 13  2  0  0  0
 10  1  1  0  0  0
 37 32  1  0  0  0
  9  4  1  0  0  0
 11 12  1  0  0  0
 29 30  1  0  0  0
M  END
> <minimizedAffinity>
-10.21714

$$$$



 37 41  0  0  0  0  0  0  0  0999 V2000
    1.0265   64.9054   84.5934 C   0  0  0  0  0  0  0  0  0  0  0  0
    0.2989   64.2846   83.6551 N   0  0  0  0  0  0  0  0  0  0  0  0
   -0.6945   63.4696   84.0513 C   0  0  0  0  0  0  0  0  0  0  0  0
   -1.0039   63.2827   85.4074 C   0  0  0  0  0  0  0  0  0  0  0  0
   -2.0649   62.4819   85.9054 C   0  0  0  0  0  0  0  0  0  0  0  0
   -2.2814   62.3539   87.2754 C   0  0  0  0  0  0  0  0  0  0  0  0
   -1.4478   63.0233   88.1599 C   0  0  0  0  0  0  0  0  0  0  0  0
   -0.4110   63.8201   87.6662 C   0  0  0  0  0  0  0  0  0  0  0  0
   -0.1781   63.9651   86.3032 C   0  0  0  0  0  0  0  0  0  0  0  0
    0.8231   64.7530   85.9050 N   0  0  0  0  0  0  0  0  0  0  0  0
    2.0404   65.7211   84.0962 N   0  0  0  0  0  0  0  0  0  0  0  0
    2.9167   65.2258   84.1701 H   0  0  0  0  0  0  0  0  0  0  0  0
    2.1005   69.3524   81.9598 C   0  0  0  0  0  0  0  0  0  0  0  0
    2.6905   69.3028   83.2212 C   0  0  0  0  0  0  0  0  0  0  0  0
    2.6749   68.1037   83.9434 C   0  0  0  0  0  0  0  0  0  0  0  0
    2.0621   66.9523   83.4329 C   0  0  0  0  0  0  0  0  0  0  0  0
    1.4719   67.0344   82.1584 C   0  0  0  0  0  0  0  0  0  0  0  0
    1.4817   68.2241   81.4243 C   0  0  0  0  0  0  0  0  0  0  0  0
    2.1116   70.8591   81.0240 S   0  0  0  0  0  0  0  0  0  0  0  0
    0.7567   71.3605   80.9314 O   0  0  0  0  0  0  0  0  0  0  0  0
    2.9013   70.6224   79.8336 O   0  0  0  0  0  0  0  0  0  0  0  0
    4.5065   75.7153   82.8000 C   0  0  0  0  0  0  0  0  0  0  0  0
    3.3663   74.9072   82.3765 N   0  0  0  0  0  0  0  0  0  0  0  0
    2.9506   73.9867   83.4543 C   0  0  0  0  0  0  0  0  0  0  0  0
    2.1465   72.7812   82.9337 C   0  0  0  0  0  0  0  0  0  0  0  0
    2.9869   71.9216   82.0336 N   0  0  0  0  0  0  0  0  0  0  0  0
    4.0412   72.7064   81.3067 C   0  0  0  0  0  0  0  0  0  0  0  0
    3.6387   74.1803   81.1189 C   0  0  0  0  0  0  0  0  0  0  0  0
   -1.4677   62.8135   83.0702 N   0  0  0  0  0  0  0  0  0  0  0  0
   -1.7867   61.9204   83.4350 H   0  0  0  0  0  0  0  0  0  0  0  0
   -0.8162   62.6447   81.7781 C   0  0  0  0  0  0  0  0  0  0  0  0
   -1.8712   62.3425   80.7379 C   0  0  0  0  0  0  0  0  0  0  0  0
   -3.1620   61.9580   81.1315 C   0  0  0  0  0  0  0  0  0  0  0  0
   -4.1373   61.6664   80.1770 C   0  0  0  0  0  0  0  0  0  0  0  0
   -3.8317   61.7519   78.8200 C   0  0  0  0  0  0  0  0  0  0  0  0
   -2.5509   62.1257   78.4162 C   0  0  0  0  0  0  0  0  0  0  0  0
   -1.5735   62.4175   79.3696 C   0  0  0  0  0  0  0  0  0  0  0  0
 22 23  1  0  0  0
 23 24  1  0  0  0
 24 25  1  0  0  0
 25 26  1  0  0  0
 26 19  1  0  0  0
 19 20  2  0  0  0
 19 21  2  0  0  0
 19 13  1  0  0  0
 13 14  1  0  0  0
 14 15  2  0  0  0
 15 16  1  0  0  0
 16 11  1  0  0  0
 11  1  1  0  0  0
  1  2  2  0  0  0
  2  3  1  0  0  0
  3 29  1  0  0  0
 29 31  1  0  0  0
 31 32  1  0  0  0
 32 33  2  0  0  0
 33 34  1  0  0  0
 34 35  2  0  0  0
 35 36  1  0  0  0
 36 37  2  0  0  0
  3  4  2  0  0  0
  4  5  1  0  0  0
  5  6  2  0  0  0
  6  7  1  0  0  0
  7  8  2  0  0  0
  8  9  1  0  0  0
  9 10  2  0  0  0
 16 17  2  0  0  0
 17 18  1  0  0  0
 26 27  1  0  0  0
 27 28  1  0  0  0
 28 23  1  0  0  0
 18 13  2  0  0  0
 10  1  1  0  0  0
 37 32  1  0  0  0
  9  4  1  0  0  0
 11 12  1  0  0  0
 29 30  1  0  0  0
M  END
> <minimizedAffinity>
-10.21403

$$$$
