


 35 37  0  0  0  0  0  0  0  0999 V2000
    5.8165   67.1558   85.1266 C   0  0  0  0  0  0  0  0  0  0  0  0
    5.2730   68.0372   84.1887 C   0  0  0  0  0  0  0  0  0  0  0  0
    4.0164   67.8001   83.6015 C   0  0  0  0  0  0  0  0  0  0  0  0
    3.5088   68.6998   82.6569 C   0  0  0  0  0  0  0  0  0  0  0  0
    2.2670   68.5011   82.0351 C   0  0  0  0  0  0  0  0  0  0  0  0
    1.4827   67.3815   82.3912 C   0  0  0  0  0  0  0  0  0  0  0  0
    1.9905   66.4433   83.3355 C   0  0  0  0  0  0  0  0  0  0  0  0
    3.2684   66.6564   83.9508 C   0  0  0  0  0  0  0  0  0  0  0  0
    3.8431   65.7740   84.9016 C   0  0  0  0  0  0  0  0  0  0  0  0
    5.0920   66.0121   85.4899 C   0  0  0  0  0  0  0  0  0  0  0  0
    1.2061   65.2337   83.6672 C   0  0  0  0  0  0  0  0  0  0  0  0
    0.6915   65.0456   84.9595 C   0  0  0  0  0  0  0  0  0  0  0  0
   -0.0427   63.9019   85.2705 C   0  0  0  0  0  0  0  0  0  0  0  0
   -0.2808   62.9358   84.2694 C   0  0  0  0  0  0  0  0  0  0  0  0
    0.2542   63.0911   82.9776 C   0  0  0  0  0  0  0  0  0  0  0  0
    0.9815   64.2498   82.6883 C   0  0  0  0  0  0  0  0  0  0  0  0
   -0.5765   63.6382   86.5527 N   0  0  0  0  0  0  0  0  0  0  0  0
    0.0890   63.5657   87.7573 C   0  0  0  0  0  0  0  0  0  0  0  0
   -0.8316   63.2381   88.9062 C   0  0  0  0  0  0  0  0  0  0  0  0
    1.2832   63.7663   87.9489 O   0  0  0  0  0  0  0  0  0  0  0  0
   -1.5827   63.4973   86.5493 H   0  0  0  0  0  0  0  0  0  0  0  0
   -1.0083   61.8338   84.6766 O   0  0  0  0  0  0  0  0  0  0  0  0
   -2.3823   61.8749   84.2938 C   0  0  0  0  0  0  0  0  0  0  0  0
    0.0420   62.0763   82.0821 O   0  0  0  0  0  0  0  0  0  0  0  0
    1.1069   61.1607   81.8558 C   0  0  0  0  0  0  0  0  0  0  0  0
    1.8001   69.5241   81.0271 C   0  0  0  0  0  0  0  0  0  0  0  0
    2.1232   69.1022   79.7081 O   0  0  0  0  0  0  0  0  0  0  0  0
    2.2535   68.1383   79.7306 H   0  0  0  0  0  0  0  0  0  0  0  0
    0.1345   67.1692   81.7346 C   0  0  0  0  0  0  0  0  0  0  0  0
    0.3429   66.6942   80.4109 O   0  0  0  0  0  0  0  0  0  0  0  0
   -0.5401   66.5852   80.0201 H   0  0  0  0  0  0  0  0  0  0  0  0
    8.1982   66.9828   84.9987 C   0  0  0  0  0  0  0  0  0  0  0  0
    7.0342   67.3214   85.7378 O   0  0  0  0  0  0  0  0  0  0  0  0
    5.6855   65.1866   86.4130 O   0  0  0  0  0  0  0  0  0  0  0  0
    5.1291   65.1507   87.7196 C   0  0  0  0  0  0  0  0  0  0  0  0
 32 33  1  0  0  0
 33  1  1  0  0  0
  1  2  1  0  0  0
  2  3  2  0  0  0
  3  4  1  0  0  0
  4  5  2  0  0  0
  5 26  1  0  0  0
 26 27  1  0  0  0
  5  6  1  0  0  0
  6 29  1  0  0  0
 29 30  1  0  0  0
  6  7  2  0  0  0
  7 11  1  0  0  0
 11 12  2  0  0  0
 12 13  1  0  0  0
 13 17  1  0  0  0
 17 18  1  0  0  0
 18 19  1  0  0  0
 18 20  2  0  0  0
 13 14  2  0  0  0
 14 22  1  0  0  0
 22 23  1  0  0  0
 14 15  1  0  0  0
 15 24  1  0  0  0
 24 25  1  0  0  0
 15 16  2  0  0  0
  7  8  1  0  0  0
  8  9  2  0  0  0
  9 10  1  0  0  0
 10 34  1  0  0  0
 34 35  1  0  0  0
 10  1  2  0  0  0
  8  3  1  0  0  0
 16 11  1  0  0  0
 27 28  1  0  0  0
 30 31  1  0  0  0
 17 21  1  0  0  0
M  END
> <minimizedAffinity>
-9.58009

$$$$



 35 37  0  0  0  0  0  0  0  0999 V2000
   -1.2783   62.9381   81.0366 C   0  0  0  0  0  0  0  0  0  0  0  0
   -1.8094   62.5661   82.2741 C   0  0  0  0  0  0  0  0  0  0  0  0
   -1.2718   63.0538   83.4796 C   0  0  0  0  0  0  0  0  0  0  0  0
   -1.8232   62.6500   84.7012 C   0  0  0  0  0  0  0  0  0  0  0  0
   -1.3151   63.0990   85.9293 C   0  0  0  0  0  0  0  0  0  0  0  0
   -0.2377   64.0124   85.9436 C   0  0  0  0  0  0  0  0  0  0  0  0
    0.3506   64.4197   84.7116 C   0  0  0  0  0  0  0  0  0  0  0  0
   -0.1740   63.9395   83.4662 C   0  0  0  0  0  0  0  0  0  0  0  0
    0.3509   64.2989   82.1980 C   0  0  0  0  0  0  0  0  0  0  0  0
   -0.1872   63.8173   80.9975 C   0  0  0  0  0  0  0  0  0  0  0  0
    1.5207   65.3250   84.7175 C   0  0  0  0  0  0  0  0  0  0  0  0
    1.3866   66.6713   84.3437 C   0  0  0  0  0  0  0  0  0  0  0  0
    2.4923   67.5206   84.3450 C   0  0  0  0  0  0  0  0  0  0  0  0
    3.7515   67.0211   84.7416 C   0  0  0  0  0  0  0  0  0  0  0  0
    3.9119   65.6672   85.0882 C   0  0  0  0  0  0  0  0  0  0  0  0
    2.7868   64.8368   85.0855 C   0  0  0  0  0  0  0  0  0  0  0  0
    2.4354   68.8812   83.9656 N   0  0  0  0  0  0  0  0  0  0  0  0
    2.2621   69.4106   82.7051 C   0  0  0  0  0  0  0  0  0  0  0  0
    2.2808   70.9187   82.7050 C   0  0  0  0  0  0  0  0  0  0  0  0
    2.0752   68.7863   81.6666 O   0  0  0  0  0  0  0  0  0  0  0  0
    2.5298   69.5224   84.7481 H   0  0  0  0  0  0  0  0  0  0  0  0
    4.7868   67.9354   84.6997 O   0  0  0  0  0  0  0  0  0  0  0  0
    5.2763   68.3132   85.9857 C   0  0  0  0  0  0  0  0  0  0  0  0
    5.1780   65.2405   85.3907 O   0  0  0  0  0  0  0  0  0  0  0  0
    5.4336   64.8226   86.7263 C   0  0  0  0  0  0  0  0  0  0  0  0
   -1.9732   62.6095   87.1974 C   0  0  0  0  0  0  0  0  0  0  0  0
   -3.2000   63.2951   87.4146 O   0  0  0  0  0  0  0  0  0  0  0  0
   -3.4912   63.6563   86.5594 H   0  0  0  0  0  0  0  0  0  0  0  0
    0.3058   64.5125   87.2658 C   0  0  0  0  0  0  0  0  0  0  0  0
    1.2095   63.5440   87.7818 O   0  0  0  0  0  0  0  0  0  0  0  0
    1.5234   63.8926   88.6328 H   0  0  0  0  0  0  0  0  0  0  0  0
   -3.0100   61.8504   79.7970 C   0  0  0  0  0  0  0  0  0  0  0  0
   -1.7488   62.5019   79.8233 O   0  0  0  0  0  0  0  0  0  0  0  0
    0.2882   64.1382   79.7497 O   0  0  0  0  0  0  0  0  0  0  0  0
    0.3332   65.5131   79.3948 C   0  0  0  0  0  0  0  0  0  0  0  0
 32 33  1  0  0  0
 33  1  1  0  0  0
  1  2  1  0  0  0
  2  3  2  0  0  0
  3  4  1  0  0  0
  4  5  2  0  0  0
  5 26  1  0  0  0
 26 27  1  0  0  0
  5  6  1  0  0  0
  6 29  1  0  0  0
 29 30  1  0  0  0
  6  7  2  0  0  0
  7 11  1  0  0  0
 11 12  2  0  0  0
 12 13  1  0  0  0
 13 17  1  0  0  0
 17 18  1  0  0  0
 18 19  1  0  0  0
 18 20  2  0  0  0
 13 14  2  0  0  0
 14 22  1  0  0  0
 22 23  1  0  0  0
 14 15  1  0  0  0
 15 24  1  0  0  0
 24 25  1  0  0  0
 15 16  2  0  0  0
  7  8  1  0  0  0
  8  9  2  0  0  0
  9 10  1  0  0  0
 10 34  1  0  0  0
 34 35  1  0  0  0
 10  1  2  0  0  0
  8  3  1  0  0  0
 16 11  1  0  0  0
 27 28  1  0  0  0
 30 31  1  0  0  0
 17 21  1  0  0  0
M  END
> <minimizedAffinity>
-9.44175

$$$$



 35 37  0  0  0  0  0  0  0  0999 V2000
    1.8041   69.7961   81.4015 C   0  0  0  0  0  0  0  0  0  0  0  0
    3.0042   69.7056   82.1112 C   0  0  0  0  0  0  0  0  0  0  0  0
    3.2884   68.5997   82.9335 C   0  0  0  0  0  0  0  0  0  0  0  0
    4.4967   68.5489   83.6384 C   0  0  0  0  0  0  0  0  0  0  0  0
    4.8205   67.4739   84.4797 C   0  0  0  0  0  0  0  0  0  0  0  0
    3.9229   66.3898   84.5990 C   0  0  0  0  0  0  0  0  0  0  0  0
    2.6789   66.4319   83.9057 C   0  0  0  0  0  0  0  0  0  0  0  0
    2.3595   67.5457   83.0606 C   0  0  0  0  0  0  0  0  0  0  0  0
    1.1464   67.6625   82.3342 C   0  0  0  0  0  0  0  0  0  0  0  0
    0.8652   68.7611   81.5116 C   0  0  0  0  0  0  0  0  0  0  0  0
    1.7036   65.3324   84.0746 C   0  0  0  0  0  0  0  0  0  0  0  0
    1.1201   65.0783   85.3256 C   0  0  0  0  0  0  0  0  0  0  0  0
    0.2055   64.0378   85.4829 C   0  0  0  0  0  0  0  0  0  0  0  0
   -0.1449   63.2465   84.3678 C   0  0  0  0  0  0  0  0  0  0  0  0
    0.4536   63.4653   83.1136 C   0  0  0  0  0  0  0  0  0  0  0  0
    1.3630   64.5189   82.9796 C   0  0  0  0  0  0  0  0  0  0  0  0
   -0.4085   63.7139   86.7143 N   0  0  0  0  0  0  0  0  0  0  0  0
    0.1877   63.5181   87.9413 C   0  0  0  0  0  0  0  0  0  0  0  0
   -0.8082   63.1619   89.0165 C   0  0  0  0  0  0  0  0  0  0  0  0
    1.3791   63.6368   88.2053 O   0  0  0  0  0  0  0  0  0  0  0  0
   -1.4192   63.6306   86.6515 H   0  0  0  0  0  0  0  0  0  0  0  0
   -1.0499   62.2346   84.6257 O   0  0  0  0  0  0  0  0  0  0  0  0
   -2.3832   62.5331   84.2141 C   0  0  0  0  0  0  0  0  0  0  0  0
    0.1174   62.6097   82.0978 O   0  0  0  0  0  0  0  0  0  0  0  0
    0.9502   61.4762   81.8851 C   0  0  0  0  0  0  0  0  0  0  0  0
    6.1467   67.5050   85.2014 C   0  0  0  0  0  0  0  0  0  0  0  0
    5.9977   68.0989   86.4849 O   0  0  0  0  0  0  0  0  0  0  0  0
    5.0585   68.0365   86.7313 H   0  0  0  0  0  0  0  0  0  0  0  0
    4.2731   65.2193   85.4940 C   0  0  0  0  0  0  0  0  0  0  0  0
    4.2516   65.6580   86.8460 O   0  0  0  0  0  0  0  0  0  0  0  0
    4.4947   64.8868   87.3849 H   0  0  0  0  0  0  0  0  0  0  0  0
    2.0516   72.1075   80.8403 C   0  0  0  0  0  0  0  0  0  0  0  0
    1.4590   70.8430   80.5837 O   0  0  0  0  0  0  0  0  0  0  0  0
   -0.2940   68.9153   80.7915 O   0  0  0  0  0  0  0  0  0  0  0  0
   -0.7367   67.8140   80.0109 C   0  0  0  0  0  0  0  0  0  0  0  0
 32 33  1  0  0  0
 33  1  1  0  0  0
  1  2  1  0  0  0
  2  3  2  0  0  0
  3  4  1  0  0  0
  4  5  2  0  0  0
  5 26  1  0  0  0
 26 27  1  0  0  0
  5  6  1  0  0  0
  6 29  1  0  0  0
 29 30  1  0  0  0
  6  7  2  0  0  0
  7 11  1  0  0  0
 11 12  2  0  0  0
 12 13  1  0  0  0
 13 17  1  0  0  0
 17 18  1  0  0  0
 18 19  1  0  0  0
 18 20  2  0  0  0
 13 14  2  0  0  0
 14 22  1  0  0  0
 22 23  1  0  0  0
 14 15  1  0  0  0
 15 24  1  0  0  0
 24 25  1  0  0  0
 15 16  2  0  0  0
  7  8  1  0  0  0
  8  9  2  0  0  0
  9 10  1  0  0  0
 10 34  1  0  0  0
 34 35  1  0  0  0
 10  1  2  0  0  0
  8  3  1  0  0  0
 16 11  1  0  0  0
 27 28  1  0  0  0
 30 31  1  0  0  0
 17 21  1  0  0  0
M  END
> <minimizedAffinity>
-9.32231

$$$$



 35 37  0  0  0  0  0  0  0  0999 V2000
   -0.7020   61.5248   80.7804 C   0  0  0  0  0  0  0  0  0  0  0  0
   -1.0137   61.2607   82.1165 C   0  0  0  0  0  0  0  0  0  0  0  0
   -0.6511   62.1508   83.1441 C   0  0  0  0  0  0  0  0  0  0  0  0
   -0.9706   61.8473   84.4727 C   0  0  0  0  0  0  0  0  0  0  0  0
   -0.6204   62.6966   85.5330 C   0  0  0  0  0  0  0  0  0  0  0  0
    0.0439   63.9127   85.2590 C   0  0  0  0  0  0  0  0  0  0  0  0
    0.3960   64.2304   83.9155 C   0  0  0  0  0  0  0  0  0  0  0  0
    0.0413   63.3431   82.8460 C   0  0  0  0  0  0  0  0  0  0  0  0
    0.3508   63.5870   81.4830 C   0  0  0  0  0  0  0  0  0  0  0  0
   -0.0142   62.7033   80.4592 C   0  0  0  0  0  0  0  0  0  0  0  0
    1.1490   65.4701   83.6245 C   0  0  0  0  0  0  0  0  0  0  0  0
    2.1994   65.8828   84.4592 C   0  0  0  0  0  0  0  0  0  0  0  0
    2.9036   67.0546   84.1854 C   0  0  0  0  0  0  0  0  0  0  0  0
    2.5636   67.8200   83.0493 C   0  0  0  0  0  0  0  0  0  0  0  0
    1.4931   67.4398   82.2195 C   0  0  0  0  0  0  0  0  0  0  0  0
    0.8063   66.2572   82.5110 C   0  0  0  0  0  0  0  0  0  0  0  0
    3.9602   67.5396   84.9896 N   0  0  0  0  0  0  0  0  0  0  0  0
    5.2291   67.0223   85.1370 C   0  0  0  0  0  0  0  0  0  0  0  0
    6.0659   67.8148   86.1099 C   0  0  0  0  0  0  0  0  0  0  0  0
    5.6991   66.0536   84.5506 O   0  0  0  0  0  0  0  0  0  0  0  0
    3.7213   68.3824   85.5042 H   0  0  0  0  0  0  0  0  0  0  0  0
    3.3108   68.9683   82.8685 O   0  0  0  0  0  0  0  0  0  0  0  0
    2.6071   70.1703   83.1787 C   0  0  0  0  0  0  0  0  0  0  0  0
    1.1768   68.2726   81.1788 O   0  0  0  0  0  0  0  0  0  0  0  0
   -0.0794   68.0833   80.5387 C   0  0  0  0  0  0  0  0  0  0  0  0
   -1.0056   62.2870   86.9345 C   0  0  0  0  0  0  0  0  0  0  0  0
   -2.1701   61.4713   86.9092 O   0  0  0  0  0  0  0  0  0  0  0  0
   -2.2473   61.0956   86.0150 H   0  0  0  0  0  0  0  0  0  0  0  0
    0.4116   64.8411   86.3977 C   0  0  0  0  0  0  0  0  0  0  0  0
    1.4609   64.2455   87.1495 O   0  0  0  0  0  0  0  0  0  0  0  0
    1.6571   64.8610   87.8755 H   0  0  0  0  0  0  0  0  0  0  0  0
   -2.3808   60.3240   79.5729 C   0  0  0  0  0  0  0  0  0  0  0  0
   -1.0215   60.7035   79.7282 O   0  0  0  0  0  0  0  0  0  0  0  0
    0.2642   62.8989   79.1287 O   0  0  0  0  0  0  0  0  0  0  0  0
   -0.3780   63.9835   78.4732 C   0  0  0  0  0  0  0  0  0  0  0  0
 32 33  1  0  0  0
 33  1  1  0  0  0
  1  2  1  0  0  0
  2  3  2  0  0  0
  3  4  1  0  0  0
  4  5  2  0  0  0
  5 26  1  0  0  0
 26 27  1  0  0  0
  5  6  1  0  0  0
  6 29  1  0  0  0
 29 30  1  0  0  0
  6  7  2  0  0  0
  7 11  1  0  0  0
 11 12  2  0  0  0
 12 13  1  0  0  0
 13 17  1  0  0  0
 17 18  1  0  0  0
 18 19  1  0  0  0
 18 20  2  0  0  0
 13 14  2  0  0  0
 14 22  1  0  0  0
 22 23  1  0  0  0
 14 15  1  0  0  0
 15 24  1  0  0  0
 24 25  1  0  0  0
 15 16  2  0  0  0
  7  8  1  0  0  0
  8  9  2  0  0  0
  9 10  1  0  0  0
 10 34  1  0  0  0
 34 35  1  0  0  0
 10  1  2  0  0  0
  8  3  1  0  0  0
 16 11  1  0  0  0
 27 28  1  0  0  0
 30 31  1  0  0  0
 17 21  1  0  0  0
M  END
> <minimizedAffinity>
-8.98798

$$$$



 35 37  0  0  0  0  0  0  0  0999 V2000
   -0.7359   62.6174   85.2523 C   0  0  0  0  0  0  0  0  0  0  0  0
   -0.8508   62.2348   83.9135 C   0  0  0  0  0  0  0  0  0  0  0  0
   -0.3879   63.0605   82.8724 C   0  0  0  0  0  0  0  0  0  0  0  0
   -0.5303   62.6489   81.5421 C   0  0  0  0  0  0  0  0  0  0  0  0
   -0.0956   63.4416   80.4693 C   0  0  0  0  0  0  0  0  0  0  0  0
    0.5365   64.6776   80.7300 C   0  0  0  0  0  0  0  0  0  0  0  0
    0.6726   65.1238   82.0762 C   0  0  0  0  0  0  0  0  0  0  0  0
    0.2100   64.3054   83.1593 C   0  0  0  0  0  0  0  0  0  0  0  0
    0.3111   64.6741   84.5256 C   0  0  0  0  0  0  0  0  0  0  0  0
   -0.1453   63.8501   85.5626 C   0  0  0  0  0  0  0  0  0  0  0  0
    1.2744   66.4457   82.3571 C   0  0  0  0  0  0  0  0  0  0  0  0
    2.4854   66.5468   83.0595 C   0  0  0  0  0  0  0  0  0  0  0  0
    3.0473   67.7943   83.3275 C   0  0  0  0  0  0  0  0  0  0  0  0
    2.3967   68.9614   82.8726 C   0  0  0  0  0  0  0  0  0  0  0  0
    1.1661   68.8818   82.1955 C   0  0  0  0  0  0  0  0  0  0  0  0
    0.6261   67.6190   81.9329 C   0  0  0  0  0  0  0  0  0  0  0  0
    4.2537   67.9729   84.0426 N   0  0  0  0  0  0  0  0  0  0  0  0
    4.7997   67.1619   85.0138 C   0  0  0  0  0  0  0  0  0  0  0  0
    6.0955   67.7075   85.5597 C   0  0  0  0  0  0  0  0  0  0  0  0
    4.3540   66.0912   85.4112 O   0  0  0  0  0  0  0  0  0  0  0  0
    4.7606   68.8118   83.7751 H   0  0  0  0  0  0  0  0  0  0  0  0
    3.0248   70.1490   83.1959 O   0  0  0  0  0  0  0  0  0  0  0  0
    3.5739   70.8366   82.0725 C   0  0  0  0  0  0  0  0  0  0  0  0
    0.5600   70.0609   81.8504 O   0  0  0  0  0  0  0  0  0  0  0  0
   -0.1264   70.1120   80.6055 C   0  0  0  0  0  0  0  0  0  0  0  0
   -0.2914   62.9167   79.0669 C   0  0  0  0  0  0  0  0  0  0  0  0
    0.7199   61.9694   78.7475 O   0  0  0  0  0  0  0  0  0  0  0  0
    1.0846   61.6340   79.5848 H   0  0  0  0  0  0  0  0  0  0  0  0
    1.0214   65.5314   79.5769 C   0  0  0  0  0  0  0  0  0  0  0  0
   -0.0923   66.2146   79.0168 O   0  0  0  0  0  0  0  0  0  0  0  0
    0.2554   66.7370   78.2748 H   0  0  0  0  0  0  0  0  0  0  0  0
   -2.5143   62.0176   86.7343 C   0  0  0  0  0  0  0  0  0  0  0  0
   -1.1656   61.8659   86.3175 O   0  0  0  0  0  0  0  0  0  0  0  0
   -0.0678   64.1662   86.8968 O   0  0  0  0  0  0  0  0  0  0  0  0
    1.1353   63.8463   87.5813 C   0  0  0  0  0  0  0  0  0  0  0  0
 32 33  1  0  0  0
 33  1  1  0  0  0
  1  2  1  0  0  0
  2  3  2  0  0  0
  3  4  1  0  0  0
  4  5  2  0  0  0
  5 26  1  0  0  0
 26 27  1  0  0  0
  5  6  1  0  0  0
  6 29  1  0  0  0
 29 30  1  0  0  0
  6  7  2  0  0  0
  7 11  1  0  0  0
 11 12  2  0  0  0
 12 13  1  0  0  0
 13 17  1  0  0  0
 17 18  1  0  0  0
 18 19  1  0  0  0
 18 20  2  0  0  0
 13 14  2  0  0  0
 14 22  1  0  0  0
 22 23  1  0  0  0
 14 15  1  0  0  0
 15 24  1  0  0  0
 24 25  1  0  0  0
 15 16  2  0  0  0
  7  8  1  0  0  0
  8  9  2  0  0  0
  9 10  1  0  0  0
 10 34  1  0  0  0
 34 35  1  0  0  0
 10  1  2  0  0  0
  8  3  1  0  0  0
 16 11  1  0  0  0
 27 28  1  0  0  0
 30 31  1  0  0  0
 17 21  1  0  0  0
M  END
> <minimizedAffinity>
-8.89370

$$$$



 35 37  0  0  0  0  0  0  0  0999 V2000
    1.9616   69.5372   81.4339 C   0  0  0  0  0  0  0  0  0  0  0  0
    3.1295   69.4957   82.1995 C   0  0  0  0  0  0  0  0  0  0  0  0
    3.3727   68.4511   83.1104 C   0  0  0  0  0  0  0  0  0  0  0  0
    4.5492   68.4489   83.8688 C   0  0  0  0  0  0  0  0  0  0  0  0
    4.8313   67.4365   84.7981 C   0  0  0  0  0  0  0  0  0  0  0  0
    3.9241   66.3653   84.9557 C   0  0  0  0  0  0  0  0  0  0  0  0
    2.7114   66.3597   84.2080 C   0  0  0  0  0  0  0  0  0  0  0  0
    2.4340   67.4106   83.2723 C   0  0  0  0  0  0  0  0  0  0  0  0
    1.2539   67.4772   82.4875 C   0  0  0  0  0  0  0  0  0  0  0  0
    1.0137   68.5144   81.5771 C   0  0  0  0  0  0  0  0  0  0  0  0
    1.7244   65.2769   84.4128 C   0  0  0  0  0  0  0  0  0  0  0  0
    1.2500   64.5252   83.3265 C   0  0  0  0  0  0  0  0  0  0  0  0
    0.3157   63.5090   83.5220 C   0  0  0  0  0  0  0  0  0  0  0  0
   -0.1416   63.2275   84.8273 C   0  0  0  0  0  0  0  0  0  0  0  0
    0.2978   63.9912   85.9240 C   0  0  0  0  0  0  0  0  0  0  0  0
    1.2398   65.0006   85.7034 C   0  0  0  0  0  0  0  0  0  0  0  0
   -0.2180   62.7233   82.4748 N   0  0  0  0  0  0  0  0  0  0  0  0
    0.3720   61.6698   81.8106 C   0  0  0  0  0  0  0  0  0  0  0  0
   -0.5138   61.0993   80.7314 C   0  0  0  0  0  0  0  0  0  0  0  0
    1.4722   61.1806   82.0417 O   0  0  0  0  0  0  0  0  0  0  0  0
   -1.1611   62.9923   82.2092 H   0  0  0  0  0  0  0  0  0  0  0  0
   -1.0734   62.2111   84.9178 O   0  0  0  0  0  0  0  0  0  0  0  0
   -2.4195   62.6700   85.0347 C   0  0  0  0  0  0  0  0  0  0  0  0
   -0.2467   63.7059   87.1483 O   0  0  0  0  0  0  0  0  0  0  0  0
    0.6453   63.4071   88.2153 C   0  0  0  0  0  0  0  0  0  0  0  0
    6.1253   67.5169   85.5725 C   0  0  0  0  0  0  0  0  0  0  0  0
    7.1794   66.9053   84.8397 O   0  0  0  0  0  0  0  0  0  0  0  0
    6.9142   66.8844   83.9038 H   0  0  0  0  0  0  0  0  0  0  0  0
    4.2298   65.2614   85.9465 C   0  0  0  0  0  0  0  0  0  0  0  0
    5.3885   64.5644   85.5078 O   0  0  0  0  0  0  0  0  0  0  0  0
    5.5425   63.8587   86.1579 H   0  0  0  0  0  0  0  0  0  0  0  0
    1.8015   71.8728   80.9461 C   0  0  0  0  0  0  0  0  0  0  0  0
    1.6571   70.5234   80.5291 O   0  0  0  0  0  0  0  0  0  0  0  0
   -0.1126   68.6186   80.7983 O   0  0  0  0  0  0  0  0  0  0  0  0
   -0.5420   67.4576   80.1013 C   0  0  0  0  0  0  0  0  0  0  0  0
 32 33  1  0  0  0
 33  1  1  0  0  0
  1  2  1  0  0  0
  2  3  2  0  0  0
  3  4  1  0  0  0
  4  5  2  0  0  0
  5 26  1  0  0  0
 26 27  1  0  0  0
  5  6  1  0  0  0
  6 29  1  0  0  0
 29 30  1  0  0  0
  6  7  2  0  0  0
  7 11  1  0  0  0
 11 12  2  0  0  0
 12 13  1  0  0  0
 13 17  1  0  0  0
 17 18  1  0  0  0
 18 19  1  0  0  0
 18 20  2  0  0  0
 13 14  2  0  0  0
 14 22  1  0  0  0
 22 23  1  0  0  0
 14 15  1  0  0  0
 15 24  1  0  0  0
 24 25  1  0  0  0
 15 16  2  0  0  0
  7  8  1  0  0  0
  8  9  2  0  0  0
  9 10  1  0  0  0
 10 34  1  0  0  0
 34 35  1  0  0  0
 10  1  2  0  0  0
  8  3  1  0  0  0
 16 11  1  0  0  0
 27 28  1  0  0  0
 30 31  1  0  0  0
 17 21  1  0  0  0
M  END
> <minimizedAffinity>
-8.85162

$$$$



 35 37  0  0  0  0  0  0  0  0999 V2000
    5.7110   67.1807   85.1005 C   0  0  0  0  0  0  0  0  0  0  0  0
    5.1736   68.1005   84.1965 C   0  0  0  0  0  0  0  0  0  0  0  0
    3.9353   67.8735   83.5681 C   0  0  0  0  0  0  0  0  0  0  0  0
    3.4337   68.8125   82.6591 C   0  0  0  0  0  0  0  0  0  0  0  0
    2.2102   68.6258   81.9985 C   0  0  0  0  0  0  0  0  0  0  0  0
    1.4379   67.4765   82.2776 C   0  0  0  0  0  0  0  0  0  0  0  0
    1.9404   66.4991   83.1843 C   0  0  0  0  0  0  0  0  0  0  0  0
    3.1998   66.7010   83.8401 C   0  0  0  0  0  0  0  0  0  0  0  0
    3.7680   65.7800   84.7576 C   0  0  0  0  0  0  0  0  0  0  0  0
    4.9986   66.0080   85.3871 C   0  0  0  0  0  0  0  0  0  0  0  0
    1.1701   65.2611   83.4345 C   0  0  0  0  0  0  0  0  0  0  0  0
    0.9737   64.3206   82.4113 C   0  0  0  0  0  0  0  0  0  0  0  0
    0.2426   63.1573   82.6486 C   0  0  0  0  0  0  0  0  0  0  0  0
   -0.2887   62.9211   83.9348 C   0  0  0  0  0  0  0  0  0  0  0  0
   -0.1300   63.8671   84.9638 C   0  0  0  0  0  0  0  0  0  0  0  0
    0.6127   65.0228   84.7031 C   0  0  0  0  0  0  0  0  0  0  0  0
   -0.0091   62.1755   81.6632 N   0  0  0  0  0  0  0  0  0  0  0  0
   -0.7980   62.2765   80.5378 C   0  0  0  0  0  0  0  0  0  0  0  0
   -0.8331   60.9964   79.7409 C   0  0  0  0  0  0  0  0  0  0  0  0
   -1.4019   63.2713   80.1520 O   0  0  0  0  0  0  0  0  0  0  0  0
    0.4759   61.2991   81.8340 H   0  0  0  0  0  0  0  0  0  0  0  0
   -1.0060   61.7476   84.0684 O   0  0  0  0  0  0  0  0  0  0  0  0
   -2.4179   61.9166   83.9493 C   0  0  0  0  0  0  0  0  0  0  0  0
   -0.7368   63.6008   86.1628 O   0  0  0  0  0  0  0  0  0  0  0  0
   -0.0878   64.0496   87.3464 C   0  0  0  0  0  0  0  0  0  0  0  0
    1.7486   69.6919   81.0336 C   0  0  0  0  0  0  0  0  0  0  0  0
    2.1304   69.3562   79.7056 O   0  0  0  0  0  0  0  0  0  0  0  0
    2.2888   68.3966   79.6782 H   0  0  0  0  0  0  0  0  0  0  0  0
    0.1091   67.2763   81.5790 C   0  0  0  0  0  0  0  0  0  0  0  0
    0.3563   66.8830   80.2354 O   0  0  0  0  0  0  0  0  0  0  0  0
   -0.5155   66.7795   79.8187 H   0  0  0  0  0  0  0  0  0  0  0  0
    8.0926   66.9714   85.0497 C   0  0  0  0  0  0  0  0  0  0  0  0
    6.9112   67.3344   85.7484 O   0  0  0  0  0  0  0  0  0  0  0  0
    5.5853   65.1455   86.2804 O   0  0  0  0  0  0  0  0  0  0  0  0
    5.0975   65.1458   87.6146 C   0  0  0  0  0  0  0  0  0  0  0  0
 32 33  1  0  0  0
 33  1  1  0  0  0
  1  2  1  0  0  0
  2  3  2  0  0  0
  3  4  1  0  0  0
  4  5  2  0  0  0
  5 26  1  0  0  0
 26 27  1  0  0  0
  5  6  1  0  0  0
  6 29  1  0  0  0
 29 30  1  0  0  0
  6  7  2  0  0  0
  7 11  1  0  0  0
 11 12  2  0  0  0
 12 13  1  0  0  0
 13 17  1  0  0  0
 17 18  1  0  0  0
 18 19  1  0  0  0
 18 20  2  0  0  0
 13 14  2  0  0  0
 14 22  1  0  0  0
 22 23  1  0  0  0
 14 15  1  0  0  0
 15 24  1  0  0  0
 24 25  1  0  0  0
 15 16  2  0  0  0
  7  8  1  0  0  0
  8  9  2  0  0  0
  9 10  1  0  0  0
 10 34  1  0  0  0
 34 35  1  0  0  0
 10  1  2  0  0  0
  8  3  1  0  0  0
 16 11  1  0  0  0
 27 28  1  0  0  0
 30 31  1  0  0  0
 17 21  1  0  0  0
M  END
> <minimizedAffinity>
-8.83976

$$$$



 35 37  0  0  0  0  0  0  0  0999 V2000
   -0.6819   62.6136   85.2598 C   0  0  0  0  0  0  0  0  0  0  0  0
   -0.7809   62.2327   83.9192 C   0  0  0  0  0  0  0  0  0  0  0  0
   -0.3207   63.0670   82.8837 C   0  0  0  0  0  0  0  0  0  0  0  0
   -0.4468   62.6567   81.5514 C   0  0  0  0  0  0  0  0  0  0  0  0
   -0.0141   63.4577   80.4840 C   0  0  0  0  0  0  0  0  0  0  0  0
    0.5994   64.7014   80.7526 C   0  0  0  0  0  0  0  0  0  0  0  0
    0.7187   65.1461   82.1009 C   0  0  0  0  0  0  0  0  0  0  0  0
    0.2583   64.3191   83.1784 C   0  0  0  0  0  0  0  0  0  0  0  0
    0.3435   64.6858   84.5463 C   0  0  0  0  0  0  0  0  0  0  0  0
   -0.1103   63.8534   85.5776 C   0  0  0  0  0  0  0  0  0  0  0  0
    1.3005   66.4753   82.3897 C   0  0  0  0  0  0  0  0  0  0  0  0
    0.6183   67.6488   82.0324 C   0  0  0  0  0  0  0  0  0  0  0  0
    1.1718   68.9000   82.3009 C   0  0  0  0  0  0  0  0  0  0  0  0
    2.4216   68.9815   82.9519 C   0  0  0  0  0  0  0  0  0  0  0  0
    3.1350   67.8166   83.2884 C   0  0  0  0  0  0  0  0  0  0  0  0
    2.5561   66.5736   83.0147 C   0  0  0  0  0  0  0  0  0  0  0  0
    0.5505   70.1219   81.9556 N   0  0  0  0  0  0  0  0  0  0  0  0
   -0.1562   70.4285   80.8129 C   0  0  0  0  0  0  0  0  0  0  0  0
   -0.6472   71.8546   80.8032 C   0  0  0  0  0  0  0  0  0  0  0  0
   -0.4208   69.6686   79.8879 O   0  0  0  0  0  0  0  0  0  0  0  0
    0.6509   70.8405   82.6668 H   0  0  0  0  0  0  0  0  0  0  0  0
    2.8915   70.2634   83.1646 O   0  0  0  0  0  0  0  0  0  0  0  0
    3.6100   70.8064   82.0577 C   0  0  0  0  0  0  0  0  0  0  0  0
    4.3736   67.9775   83.8512 O   0  0  0  0  0  0  0  0  0  0  0  0
    4.9080   66.8894   84.5955 C   0  0  0  0  0  0  0  0  0  0  0  0
   -0.1915   62.9336   79.0789 C   0  0  0  0  0  0  0  0  0  0  0  0
    0.7006   61.8529   78.8376 O   0  0  0  0  0  0  0  0  0  0  0  0
    0.9640   61.4898   79.7009 H   0  0  0  0  0  0  0  0  0  0  0  0
    1.0822   65.5644   79.6054 C   0  0  0  0  0  0  0  0  0  0  0  0
   -0.0332   66.2493   79.0506 O   0  0  0  0  0  0  0  0  0  0  0  0
    0.3132   66.7777   78.3123 H   0  0  0  0  0  0  0  0  0  0  0  0
   -2.4692   61.9715   86.7130 C   0  0  0  0  0  0  0  0  0  0  0  0
   -1.1101   61.8540   86.3197 O   0  0  0  0  0  0  0  0  0  0  0  0
   -0.0477   64.1673   86.9131 O   0  0  0  0  0  0  0  0  0  0  0  0
    1.1625   63.8838   87.6011 C   0  0  0  0  0  0  0  0  0  0  0  0
 32 33  1  0  0  0
 33  1  1  0  0  0
  1  2  1  0  0  0
  2  3  2  0  0  0
  3  4  1  0  0  0
  4  5  2  0  0  0
  5 26  1  0  0  0
 26 27  1  0  0  0
  5  6  1  0  0  0
  6 29  1  0  0  0
 29 30  1  0  0  0
  6  7  2  0  0  0
  7 11  1  0  0  0
 11 12  2  0  0  0
 12 13  1  0  0  0
 13 17  1  0  0  0
 17 18  1  0  0  0
 18 19  1  0  0  0
 18 20  2  0  0  0
 13 14  2  0  0  0
 14 22  1  0  0  0
 22 23  1  0  0  0
 14 15  1  0  0  0
 15 24  1  0  0  0
 24 25  1  0  0  0
 15 16  2  0  0  0
  7  8  1  0  0  0
  8  9  2  0  0  0
  9 10  1  0  0  0
 10 34  1  0  0  0
 34 35  1  0  0  0
 10  1  2  0  0  0
  8  3  1  0  0  0
 16 11  1  0  0  0
 27 28  1  0  0  0
 30 31  1  0  0  0
 17 21  1  0  0  0
M  END
> <minimizedAffinity>
-8.72396

$$$$



 35 37  0  0  0  0  0  0  0  0999 V2000
    5.6629   67.1214   84.9796 C   0  0  0  0  0  0  0  0  0  0  0  0
    5.2819   68.2233   84.2099 C   0  0  0  0  0  0  0  0  0  0  0  0
    4.0731   68.2323   83.4896 C   0  0  0  0  0  0  0  0  0  0  0  0
    3.7298   69.3500   82.7200 C   0  0  0  0  0  0  0  0  0  0  0  0
    2.5420   69.4019   81.9754 C   0  0  0  0  0  0  0  0  0  0  0  0
    1.6429   68.3135   82.0242 C   0  0  0  0  0  0  0  0  0  0  0  0
    1.9835   67.1583   82.7854 C   0  0  0  0  0  0  0  0  0  0  0  0
    3.2088   67.1182   83.5296 C   0  0  0  0  0  0  0  0  0  0  0  0
    3.6194   66.0096   84.3141 C   0  0  0  0  0  0  0  0  0  0  0  0
    4.8205   66.0023   85.0351 C   0  0  0  0  0  0  0  0  0  0  0  0
    1.0797   65.9871   82.7914 C   0  0  0  0  0  0  0  0  0  0  0  0
    0.6811   65.3961   84.0005 C   0  0  0  0  0  0  0  0  0  0  0  0
   -0.1663   64.2889   84.0027 C   0  0  0  0  0  0  0  0  0  0  0  0
   -0.6369   63.7719   82.7765 C   0  0  0  0  0  0  0  0  0  0  0  0
   -0.2227   64.3305   81.5537 C   0  0  0  0  0  0  0  0  0  0  0  0
    0.6223   65.4444   81.5777 C   0  0  0  0  0  0  0  0  0  0  0  0
   -0.5953   63.6330   85.1793 N   0  0  0  0  0  0  0  0  0  0  0  0
    0.0563   63.5359   86.3897 C   0  0  0  0  0  0  0  0  0  0  0  0
   -0.7199   62.7282   87.3997 C   0  0  0  0  0  0  0  0  0  0  0  0
    1.1283   64.0500   86.6891 O   0  0  0  0  0  0  0  0  0  0  0  0
   -1.5077   63.1956   85.0873 H   0  0  0  0  0  0  0  0  0  0  0  0
   -1.4621   62.6685   82.8813 O   0  0  0  0  0  0  0  0  0  0  0  0
   -0.7999   61.4271   82.6433 C   0  0  0  0  0  0  0  0  0  0  0  0
   -0.6634   63.7281   80.4049 O   0  0  0  0  0  0  0  0  0  0  0  0
    0.3140   63.1784   79.5297 C   0  0  0  0  0  0  0  0  0  0  0  0
    2.2548   70.6488   81.1733 C   0  0  0  0  0  0  0  0  0  0  0  0
    2.8036   70.5339   79.8665 O   0  0  0  0  0  0  0  0  0  0  0  0
    2.9307   69.5870   79.6825 H   0  0  0  0  0  0  0  0  0  0  0  0
    0.3519   68.3694   81.2344 C   0  0  0  0  0  0  0  0  0  0  0  0
    0.6632   68.3064   79.8487 O   0  0  0  0  0  0  0  0  0  0  0  0
   -0.1852   68.3598   79.3778 H   0  0  0  0  0  0  0  0  0  0  0  0
    8.0360   66.8272   84.9954 C   0  0  0  0  0  0  0  0  0  0  0  0
    6.8252   67.0416   85.7051 O   0  0  0  0  0  0  0  0  0  0  0  0
    5.2569   64.9529   85.8060 O   0  0  0  0  0  0  0  0  0  0  0  0
    4.6986   64.8121   87.1048 C   0  0  0  0  0  0  0  0  0  0  0  0
 32 33  1  0  0  0
 33  1  1  0  0  0
  1  2  1  0  0  0
  2  3  2  0  0  0
  3  4  1  0  0  0
  4  5  2  0  0  0
  5 26  1  0  0  0
 26 27  1  0  0  0
  5  6  1  0  0  0
  6 29  1  0  0  0
 29 30  1  0  0  0
  6  7  2  0  0  0
  7 11  1  0  0  0
 11 12  2  0  0  0
 12 13  1  0  0  0
 13 17  1  0  0  0
 17 18  1  0  0  0
 18 19  1  0  0  0
 18 20  2  0  0  0
 13 14  2  0  0  0
 14 22  1  0  0  0
 22 23  1  0  0  0
 14 15  1  0  0  0
 15 24  1  0  0  0
 24 25  1  0  0  0
 15 16  2  0  0  0
  7  8  1  0  0  0
  8  9  2  0  0  0
  9 10  1  0  0  0
 10 34  1  0  0  0
 34 35  1  0  0  0
 10  1  2  0  0  0
  8  3  1  0  0  0
 16 11  1  0  0  0
 27 28  1  0  0  0
 30 31  1  0  0  0
 17 21  1  0  0  0
M  END
> <minimizedAffinity>
-8.72086

$$$$
