


 23 25  0  0  0  0  0  0  0  0999 V2000
    0.5805   64.1757   85.8155 C   0  0  0  0  0  0  0  0  0  0  0  0
    0.5494   64.2238   87.1613 N   0  0  0  0  0  0  0  0  0  0  0  0
   -0.5159   63.4519   87.4929 N   0  0  0  0  0  0  0  0  0  0  0  0
   -0.8666   63.2665   88.8802 C   0  0  0  0  0  0  0  0  0  0  0  0
   -1.1502   62.9259   86.4120 C   0  0  0  0  0  0  0  0  0  0  0  0
   -2.2838   62.0837   86.3073 C   0  0  0  0  0  0  0  0  0  0  0  0
   -2.9411   61.6464   87.2444 O   0  0  0  0  0  0  0  0  0  0  0  0
   -2.5738   61.8030   84.9926 N   0  0  0  0  0  0  0  0  0  0  0  0
   -1.8513   62.2816   83.9039 C   0  0  0  0  0  0  0  0  0  0  0  0
   -0.8056   63.0579   84.0095 N   0  0  0  0  0  0  0  0  0  0  0  0
   -0.4641   63.3758   85.3248 C   0  0  0  0  0  0  0  0  0  0  0  0
   -3.3743   61.2040   84.8272 H   0  0  0  0  0  0  0  0  0  0  0  0
   -2.3360   61.8570   82.5458 C   0  0  0  0  0  0  0  0  0  0  0  0
   -2.0756   62.7133   81.4622 C   0  0  0  0  0  0  0  0  0  0  0  0
   -2.4953   62.3858   80.1706 C   0  0  0  0  0  0  0  0  0  0  0  0
   -3.1821   61.1969   79.9424 C   0  0  0  0  0  0  0  0  0  0  0  0
   -3.4511   60.3328   81.0033 C   0  0  0  0  0  0  0  0  0  0  0  0
   -3.0307   60.6607   82.2971 C   0  0  0  0  0  0  0  0  0  0  0  0
   -3.3132   59.7863   83.3167 O   0  0  0  0  0  0  0  0  0  0  0  0
   -3.7947   59.0226   82.9495 H   0  0  0  0  0  0  0  0  0  0  0  0
    1.6227   64.9108   85.0469 C   0  0  0  0  0  0  0  0  0  0  0  0
    1.1026   65.8108   82.7504 C   0  0  0  0  0  0  0  0  0  0  0  0
    1.0353   66.0738   84.2463 C   0  0  0  0  0  0  0  0  0  0  0  0
 22 23  1  0  0  0
 23 21  1  0  0  0
 21  1  1  0  0  0
  1  2  2  0  0  0
  2  3  1  0  0  0
  3  4  1  0  0  0
  3  5  1  0  0  0
  5  6  1  0  0  0
  6  7  2  0  0  0
  6  8  1  0  0  0
  8  9  1  0  0  0
  9 13  1  0  0  0
 13 14  2  0  0  0
 14 15  1  0  0  0
 15 16  2  0  0  0
 16 17  1  0  0  0
 17 18  2  0  0  0
 18 19  1  0  0  0
  9 10  2  0  0  0
 10 11  1  0  0  0
 11  1  1  0  0  0
 11  5  2  0  0  0
 18 13  1  0  0  0
  8 12  1  0  0  0
 19 20  1  0  0  0
M  END
> <minimizedAffinity>
-9.05527

$$$$



 23 25  0  0  0  0  0  0  0  0999 V2000
    0.1732   64.1547   81.6723 C   0  0  0  0  0  0  0  0  0  0  0  0
    0.7034   65.0718   80.8402 N   0  0  0  0  0  0  0  0  0  0  0  0
    1.2526   65.9917   81.6725 N   0  0  0  0  0  0  0  0  0  0  0  0
    1.9243   67.1462   81.1267 C   0  0  0  0  0  0  0  0  0  0  0  0
    1.0868   65.6878   82.9868 C   0  0  0  0  0  0  0  0  0  0  0  0
    1.4922   66.3623   84.1641 C   0  0  0  0  0  0  0  0  0  0  0  0
    2.1128   67.4180   84.2081 O   0  0  0  0  0  0  0  0  0  0  0  0
    1.0979   65.6770   85.2894 N   0  0  0  0  0  0  0  0  0  0  0  0
    0.3923   64.4777   85.2783 C   0  0  0  0  0  0  0  0  0  0  0  0
    0.0227   63.8614   84.1870 N   0  0  0  0  0  0  0  0  0  0  0  0
    0.3978   64.5132   83.0112 C   0  0  0  0  0  0  0  0  0  0  0  0
    1.3485   66.0925   86.1792 H   0  0  0  0  0  0  0  0  0  0  0  0
    0.0561   63.8916   86.6210 C   0  0  0  0  0  0  0  0  0  0  0  0
   -1.2655   63.4638   86.8345 C   0  0  0  0  0  0  0  0  0  0  0  0
   -1.6526   62.9091   88.0569 C   0  0  0  0  0  0  0  0  0  0  0  0
   -0.7241   62.7736   89.0849 C   0  0  0  0  0  0  0  0  0  0  0  0
    0.5926   63.1916   88.8944 C   0  0  0  0  0  0  0  0  0  0  0  0
    0.9804   63.7472   87.6701 C   0  0  0  0  0  0  0  0  0  0  0  0
    2.2845   64.1477   87.5186 O   0  0  0  0  0  0  0  0  0  0  0  0
    2.7654   63.9670   88.3469 H   0  0  0  0  0  0  0  0  0  0  0  0
   -0.5380   62.9591   81.1411 C   0  0  0  0  0  0  0  0  0  0  0  0
    1.0922   61.1799   81.8700 C   0  0  0  0  0  0  0  0  0  0  0  0
    0.4311   61.8672   80.6860 C   0  0  0  0  0  0  0  0  0  0  0  0
 22 23  1  0  0  0
 23 21  1  0  0  0
 21  1  1  0  0  0
  1  2  2  0  0  0
  2  3  1  0  0  0
  3  4  1  0  0  0
  3  5  1  0  0  0
  5  6  1  0  0  0
  6  7  2  0  0  0
  6  8  1  0  0  0
  8  9  1  0  0  0
  9 13  1  0  0  0
 13 14  2  0  0  0
 14 15  1  0  0  0
 15 16  2  0  0  0
 16 17  1  0  0  0
 17 18  2  0  0  0
 18 19  1  0  0  0
  9 10  2  0  0  0
 10 11  1  0  0  0
 11  1  1  0  0  0
 11  5  2  0  0  0
 18 13  1  0  0  0
  8 12  1  0  0  0
 19 20  1  0  0  0
M  END
> <minimizedAffinity>
-8.95692

$$$$



 23 25  0  0  0  0  0  0  0  0999 V2000
   -1.0855   62.6107   83.8862 C   0  0  0  0  0  0  0  0  0  0  0  0
   -1.5284   61.8228   84.8851 N   0  0  0  0  0  0  0  0  0  0  0  0
   -0.9842   62.3702   86.0008 N   0  0  0  0  0  0  0  0  0  0  0  0
   -1.2436   61.7806   87.2920 C   0  0  0  0  0  0  0  0  0  0  0  0
   -0.2210   63.4642   85.7402 C   0  0  0  0  0  0  0  0  0  0  0  0
    0.5163   64.3191   86.5951 C   0  0  0  0  0  0  0  0  0  0  0  0
    0.6006   64.2159   87.8131 O   0  0  0  0  0  0  0  0  0  0  0  0
    1.1481   65.3103   85.8810 N   0  0  0  0  0  0  0  0  0  0  0  0
    1.0759   65.4580   84.4993 C   0  0  0  0  0  0  0  0  0  0  0  0
    0.3923   64.6649   83.7177 N   0  0  0  0  0  0  0  0  0  0  0  0
   -0.2718   63.6381   84.3902 C   0  0  0  0  0  0  0  0  0  0  0  0
    1.7004   65.9685   86.4183 H   0  0  0  0  0  0  0  0  0  0  0  0
    1.8437   66.6096   83.9128 C   0  0  0  0  0  0  0  0  0  0  0  0
    1.2882   67.2667   82.8016 C   0  0  0  0  0  0  0  0  0  0  0  0
    1.9439   68.3451   82.2027 C   0  0  0  0  0  0  0  0  0  0  0  0
    3.1656   68.7832   82.7055 C   0  0  0  0  0  0  0  0  0  0  0  0
    3.7347   68.1455   83.8073 C   0  0  0  0  0  0  0  0  0  0  0  0
    3.0781   67.0653   84.4073 C   0  0  0  0  0  0  0  0  0  0  0  0
    3.6681   66.4620   85.4897 O   0  0  0  0  0  0  0  0  0  0  0  0
    4.5093   66.9157   85.6808 H   0  0  0  0  0  0  0  0  0  0  0  0
   -1.4642   62.3396   82.4718 C   0  0  0  0  0  0  0  0  0  0  0  0
    0.7373   61.3955   81.6868 C   0  0  0  0  0  0  0  0  0  0  0  0
   -0.7411   61.1168   81.9059 C   0  0  0  0  0  0  0  0  0  0  0  0
 22 23  1  0  0  0
 23 21  1  0  0  0
 21  1  1  0  0  0
  1  2  2  0  0  0
  2  3  1  0  0  0
  3  4  1  0  0  0
  3  5  1  0  0  0
  5  6  1  0  0  0
  6  7  2  0  0  0
  6  8  1  0  0  0
  8  9  1  0  0  0
  9 13  1  0  0  0
 13 14  2  0  0  0
 14 15  1  0  0  0
 15 16  2  0  0  0
 16 17  1  0  0  0
 17 18  2  0  0  0
 18 19  1  0  0  0
  9 10  2  0  0  0
 10 11  1  0  0  0
 11  1  1  0  0  0
 11  5  2  0  0  0
 18 13  1  0  0  0
  8 12  1  0  0  0
 19 20  1  0  0  0
M  END
> <minimizedAffinity>
-8.84228

$$$$



 23 25  0  0  0  0  0  0  0  0999 V2000
    4.6496   67.2513   84.7719 C   0  0  0  0  0  0  0  0  0  0  0  0
    4.9538   68.3759   84.0957 N   0  0  0  0  0  0  0  0  0  0  0  0
    3.8653   68.5949   83.3161 N   0  0  0  0  0  0  0  0  0  0  0  0
    3.8293   69.7362   82.4340 C   0  0  0  0  0  0  0  0  0  0  0  0
    2.8967   67.6550   83.4767 C   0  0  0  0  0  0  0  0  0  0  0  0
    1.6262   67.5037   82.8698 C   0  0  0  0  0  0  0  0  0  0  0  0
    1.1390   68.2518   82.0305 O   0  0  0  0  0  0  0  0  0  0  0  0
    0.9799   66.3861   83.3435 N   0  0  0  0  0  0  0  0  0  0  0  0
    1.5016   65.5144   84.2944 C   0  0  0  0  0  0  0  0  0  0  0  0
    2.6749   65.6619   84.8502 N   0  0  0  0  0  0  0  0  0  0  0  0
    3.3772   66.7832   84.4064 C   0  0  0  0  0  0  0  0  0  0  0  0
    0.0601   66.2025   82.9594 H   0  0  0  0  0  0  0  0  0  0  0  0
    0.6324   64.3487   84.6756 C   0  0  0  0  0  0  0  0  0  0  0  0
    0.2039   63.4901   83.6488 C   0  0  0  0  0  0  0  0  0  0  0  0
   -0.6059   62.3861   83.9263 C   0  0  0  0  0  0  0  0  0  0  0  0
   -1.0000   62.1235   85.2352 C   0  0  0  0  0  0  0  0  0  0  0  0
   -0.5863   62.9626   86.2692 C   0  0  0  0  0  0  0  0  0  0  0  0
    0.2248   64.0684   85.9914 C   0  0  0  0  0  0  0  0  0  0  0  0
    0.6126   64.8723   87.0341 O   0  0  0  0  0  0  0  0  0  0  0  0
    0.2344   64.5181   87.8596 H   0  0  0  0  0  0  0  0  0  0  0  0
    5.6058   66.6641   85.7508 C   0  0  0  0  0  0  0  0  0  0  0  0
    7.8801   66.0481   84.8548 C   0  0  0  0  0  0  0  0  0  0  0  0
    6.4652   65.5633   85.1275 C   0  0  0  0  0  0  0  0  0  0  0  0
 22 23  1  0  0  0
 23 21  1  0  0  0
 21  1  1  0  0  0
  1  2  2  0  0  0
  2  3  1  0  0  0
  3  4  1  0  0  0
  3  5  1  0  0  0
  5  6  1  0  0  0
  6  7  2  0  0  0
  6  8  1  0  0  0
  8  9  1  0  0  0
  9 13  1  0  0  0
 13 14  2  0  0  0
 14 15  1  0  0  0
 15 16  2  0  0  0
 16 17  1  0  0  0
 17 18  2  0  0  0
 18 19  1  0  0  0
  9 10  2  0  0  0
 10 11  1  0  0  0
 11  1  1  0  0  0
 11  5  2  0  0  0
 18 13  1  0  0  0
  8 12  1  0  0  0
 19 20  1  0  0  0
M  END
> <minimizedAffinity>
-8.74190

$$$$



 23 25  0  0  0  0  0  0  0  0999 V2000
    2.1327   67.1099   83.3098 C   0  0  0  0  0  0  0  0  0  0  0  0
    2.0746   67.2040   81.9672 N   0  0  0  0  0  0  0  0  0  0  0  0
    1.2629   66.1804   81.6012 N   0  0  0  0  0  0  0  0  0  0  0  0
    0.9638   65.9621   80.2066 C   0  0  0  0  0  0  0  0  0  0  0  0
    0.8136   65.4524   82.6573 C   0  0  0  0  0  0  0  0  0  0  0  0
   -0.0351   64.3207   82.7236 C   0  0  0  0  0  0  0  0  0  0  0  0
   -0.5546   63.7571   81.7675 O   0  0  0  0  0  0  0  0  0  0  0  0
   -0.2162   63.9117   84.0241 N   0  0  0  0  0  0  0  0  0  0  0  0
    0.3573   64.5257   85.1333 C   0  0  0  0  0  0  0  0  0  0  0  0
    1.1389   65.5705   85.0632 N   0  0  0  0  0  0  0  0  0  0  0  0
    1.3578   66.0306   83.7640 C   0  0  0  0  0  0  0  0  0  0  0  0
   -0.8126   63.1040   84.1620 H   0  0  0  0  0  0  0  0  0  0  0  0
    0.0332   63.9199   86.4702 C   0  0  0  0  0  0  0  0  0  0  0  0
   -1.2770   63.4552   86.6764 C   0  0  0  0  0  0  0  0  0  0  0  0
   -1.6525   62.8804   87.8931 C   0  0  0  0  0  0  0  0  0  0  0  0
   -0.7236   62.7614   88.9227 C   0  0  0  0  0  0  0  0  0  0  0  0
    0.5819   63.2160   88.7395 C   0  0  0  0  0  0  0  0  0  0  0  0
    0.9581   63.7918   87.5209 C   0  0  0  0  0  0  0  0  0  0  0  0
    2.2514   64.2282   87.3766 O   0  0  0  0  0  0  0  0  0  0  0  0
    2.7347   64.0537   88.2048 H   0  0  0  0  0  0  0  0  0  0  0  0
    2.9416   68.0701   84.1104 C   0  0  0  0  0  0  0  0  0  0  0  0
    4.8001   67.7932   85.7908 C   0  0  0  0  0  0  0  0  0  0  0  0
    4.3640   67.5633   84.3527 C   0  0  0  0  0  0  0  0  0  0  0  0
 22 23  1  0  0  0
 23 21  1  0  0  0
 21  1  1  0  0  0
  1  2  2  0  0  0
  2  3  1  0  0  0
  3  4  1  0  0  0
  3  5  1  0  0  0
  5  6  1  0  0  0
  6  7  2  0  0  0
  6  8  1  0  0  0
  8  9  1  0  0  0
  9 13  1  0  0  0
 13 14  2  0  0  0
 14 15  1  0  0  0
 15 16  2  0  0  0
 16 17  1  0  0  0
 17 18  2  0  0  0
 18 19  1  0  0  0
  9 10  2  0  0  0
 10 11  1  0  0  0
 11  1  1  0  0  0
 11  5  2  0  0  0
 18 13  1  0  0  0
  8 12  1  0  0  0
 19 20  1  0  0  0
M  END
> <minimizedAffinity>
-8.59520

$$$$



 23 25  0  0  0  0  0  0  0  0999 V2000
   -2.3981   62.1829   84.7740 C   0  0  0  0  0  0  0  0  0  0  0  0
   -2.9342   61.0867   84.2033 N   0  0  0  0  0  0  0  0  0  0  0  0
   -2.3558   61.0389   82.9771 N   0  0  0  0  0  0  0  0  0  0  0  0
   -2.6953   59.9762   82.0619 C   0  0  0  0  0  0  0  0  0  0  0  0
   -1.4836   62.0581   82.7588 C   0  0  0  0  0  0  0  0  0  0  0  0
   -0.6820   62.3831   81.6376 C   0  0  0  0  0  0  0  0  0  0  0  0
   -0.6284   61.7535   80.5877 O   0  0  0  0  0  0  0  0  0  0  0  0
    0.0534   63.5225   81.8668 N   0  0  0  0  0  0  0  0  0  0  0  0
    0.0179   64.2630   83.0444 C   0  0  0  0  0  0  0  0  0  0  0  0
   -0.7243   63.9554   84.0749 N   0  0  0  0  0  0  0  0  0  0  0  0
   -1.4936   62.8044   83.8981 C   0  0  0  0  0  0  0  0  0  0  0  0
    0.6568   63.8271   81.1117 H   0  0  0  0  0  0  0  0  0  0  0  0
    0.8995   65.4796   83.0916 C   0  0  0  0  0  0  0  0  0  0  0  0
    1.2075   66.1106   81.8742 C   0  0  0  0  0  0  0  0  0  0  0  0
    2.0208   67.2460   81.8389 C   0  0  0  0  0  0  0  0  0  0  0  0
    2.5389   67.7679   83.0206 C   0  0  0  0  0  0  0  0  0  0  0  0
    2.2460   67.1574   84.2396 C   0  0  0  0  0  0  0  0  0  0  0  0
    1.4313   66.0202   84.2750 C   0  0  0  0  0  0  0  0  0  0  0  0
    1.1645   65.4458   85.4927 O   0  0  0  0  0  0  0  0  0  0  0  0
    1.6168   65.9594   86.1867 H   0  0  0  0  0  0  0  0  0  0  0  0
   -2.7833   62.5948   86.1521 C   0  0  0  0  0  0  0  0  0  0  0  0
   -1.3284   63.3921   88.0501 C   0  0  0  0  0  0  0  0  0  0  0  0
   -1.7261   62.2058   87.1864 C   0  0  0  0  0  0  0  0  0  0  0  0
 22 23  1  0  0  0
 23 21  1  0  0  0
 21  1  1  0  0  0
  1  2  2  0  0  0
  2  3  1  0  0  0
  3  4  1  0  0  0
  3  5  1  0  0  0
  5  6  1  0  0  0
  6  7  2  0  0  0
  6  8  1  0  0  0
  8  9  1  0  0  0
  9 13  1  0  0  0
 13 14  2  0  0  0
 14 15  1  0  0  0
 15 16  2  0  0  0
 16 17  1  0  0  0
 17 18  2  0  0  0
 18 19  1  0  0  0
  9 10  2  0  0  0
 10 11  1  0  0  0
 11  1  1  0  0  0
 11  5  2  0  0  0
 18 13  1  0  0  0
  8 12  1  0  0  0
 19 20  1  0  0  0
M  END
> <minimizedAffinity>
-8.53125

$$$$



 23 25  0  0  0  0  0  0  0  0999 V2000
    0.5977   64.1991   85.8569 C   0  0  0  0  0  0  0  0  0  0  0  0
    0.5479   64.2556   87.2018 N   0  0  0  0  0  0  0  0  0  0  0  0
   -0.5089   63.4684   87.5246 N   0  0  0  0  0  0  0  0  0  0  0  0
   -0.8749   63.2864   88.9083 C   0  0  0  0  0  0  0  0  0  0  0  0
   -1.1199   62.9247   86.4390 C   0  0  0  0  0  0  0  0  0  0  0  0
   -2.2380   62.0631   86.3251 C   0  0  0  0  0  0  0  0  0  0  0  0
   -2.9004   61.6212   87.2564 O   0  0  0  0  0  0  0  0  0  0  0  0
   -2.5057   61.7689   85.0086 N   0  0  0  0  0  0  0  0  0  0  0  0
   -1.7767   62.2522   83.9263 C   0  0  0  0  0  0  0  0  0  0  0  0
   -0.7455   63.0464   84.0404 N   0  0  0  0  0  0  0  0  0  0  0  0
   -0.4268   63.3787   85.3579 C   0  0  0  0  0  0  0  0  0  0  0  0
   -3.2940   61.1556   84.8368 H   0  0  0  0  0  0  0  0  0  0  0  0
   -2.2361   61.8106   82.5649 C   0  0  0  0  0  0  0  0  0  0  0  0
   -2.7891   60.5239   82.4477 C   0  0  0  0  0  0  0  0  0  0  0  0
   -3.2378   60.0441   81.2148 C   0  0  0  0  0  0  0  0  0  0  0  0
   -3.1405   60.8437   80.0796 C   0  0  0  0  0  0  0  0  0  0  0  0
   -2.5951   62.1236   80.1734 C   0  0  0  0  0  0  0  0  0  0  0  0
   -2.1456   62.6043   81.4083 C   0  0  0  0  0  0  0  0  0  0  0  0
   -1.6144   63.8687   81.4628 O   0  0  0  0  0  0  0  0  0  0  0  0
   -1.6380   64.2567   80.5690 H   0  0  0  0  0  0  0  0  0  0  0  0
    1.6378   64.9462   85.0971 C   0  0  0  0  0  0  0  0  0  0  0  0
    1.2481   65.8012   82.7580 C   0  0  0  0  0  0  0  0  0  0  0  0
    1.0363   66.0613   84.2408 C   0  0  0  0  0  0  0  0  0  0  0  0
 22 23  1  0  0  0
 23 21  1  0  0  0
 21  1  1  0  0  0
  1  2  2  0  0  0
  2  3  1  0  0  0
  3  4  1  0  0  0
  3  5  1  0  0  0
  5  6  1  0  0  0
  6  7  2  0  0  0
  6  8  1  0  0  0
  8  9  1  0  0  0
  9 13  1  0  0  0
 13 14  2  0  0  0
 14 15  1  0  0  0
 15 16  2  0  0  0
 16 17  1  0  0  0
 17 18  2  0  0  0
 18 19  1  0  0  0
  9 10  2  0  0  0
 10 11  1  0  0  0
 11  1  1  0  0  0
 11  5  2  0  0  0
 18 13  1  0  0  0
  8 12  1  0  0  0
 19 20  1  0  0  0
M  END
> <minimizedAffinity>
-8.49770

$$$$



 23 25  0  0  0  0  0  0  0  0999 V2000
   -0.7571   62.5277   79.9501 C   0  0  0  0  0  0  0  0  0  0  0  0
   -1.3288   61.6469   79.1064 N   0  0  0  0  0  0  0  0  0  0  0  0
   -2.0161   60.8091   79.9226 N   0  0  0  0  0  0  0  0  0  0  0  0
   -2.7692   59.7139   79.3609 C   0  0  0  0  0  0  0  0  0  0  0  0
   -1.8967   61.1294   81.2381 C   0  0  0  0  0  0  0  0  0  0  0  0
   -2.4363   60.5304   82.4023 C   0  0  0  0  0  0  0  0  0  0  0  0
   -3.1627   59.5439   82.4302 O   0  0  0  0  0  0  0  0  0  0  0  0
   -2.0401   61.2020   83.5351 N   0  0  0  0  0  0  0  0  0  0  0  0
   -1.2166   62.3236   83.5421 C   0  0  0  0  0  0  0  0  0  0  0  0
   -0.7235   62.8707   82.4628 N   0  0  0  0  0  0  0  0  0  0  0  0
   -1.0942   62.2291   81.2801 C   0  0  0  0  0  0  0  0  0  0  0  0
   -2.3829   60.8375   84.4164 H   0  0  0  0  0  0  0  0  0  0  0  0
   -0.9008   62.9082   84.8904 C   0  0  0  0  0  0  0  0  0  0  0  0
    0.1956   63.7825   84.9827 C   0  0  0  0  0  0  0  0  0  0  0  0
    0.5500   64.3645   86.2024 C   0  0  0  0  0  0  0  0  0  0  0  0
   -0.1866   64.0810   87.3489 C   0  0  0  0  0  0  0  0  0  0  0  0
   -1.2783   63.2162   87.2798 C   0  0  0  0  0  0  0  0  0  0  0  0
   -1.6334   62.6333   86.0582 C   0  0  0  0  0  0  0  0  0  0  0  0
   -2.7135   61.7869   86.0280 O   0  0  0  0  0  0  0  0  0  0  0  0
   -3.0869   61.7241   86.9261 H   0  0  0  0  0  0  0  0  0  0  0  0
    0.1018   63.6314   79.4385 C   0  0  0  0  0  0  0  0  0  0  0  0
   -0.4589   64.6347   77.1950 C   0  0  0  0  0  0  0  0  0  0  0  0
    0.3100   63.5457   77.9259 C   0  0  0  0  0  0  0  0  0  0  0  0
 22 23  1  0  0  0
 23 21  1  0  0  0
 21  1  1  0  0  0
  1  2  2  0  0  0
  2  3  1  0  0  0
  3  4  1  0  0  0
  3  5  1  0  0  0
  5  6  1  0  0  0
  6  7  2  0  0  0
  6  8  1  0  0  0
  8  9  1  0  0  0
  9 13  1  0  0  0
 13 14  2  0  0  0
 14 15  1  0  0  0
 15 16  2  0  0  0
 16 17  1  0  0  0
 17 18  2  0  0  0
 18 19  1  0  0  0
  9 10  2  0  0  0
 10 11  1  0  0  0
 11  1  1  0  0  0
 11  5  2  0  0  0
 18 13  1  0  0  0
  8 12  1  0  0  0
 19 20  1  0  0  0
M  END
> <minimizedAffinity>
-8.45184

$$$$



 23 25  0  0  0  0  0  0  0  0999 V2000
    0.3468   65.0981   81.1419 C   0  0  0  0  0  0  0  0  0  0  0  0
    0.4449   64.5484   79.9160 N   0  0  0  0  0  0  0  0  0  0  0  0
    0.1005   63.2506   80.1096 N   0  0  0  0  0  0  0  0  0  0  0  0
    0.0916   62.3340   78.9952 C   0  0  0  0  0  0  0  0  0  0  0  0
   -0.2071   62.9678   81.4030 C   0  0  0  0  0  0  0  0  0  0  0  0
   -0.6076   61.7631   82.0304 C   0  0  0  0  0  0  0  0  0  0  0  0
   -0.7606   60.6818   81.4747 O   0  0  0  0  0  0  0  0  0  0  0  0
   -0.8116   61.9492   83.3777 N   0  0  0  0  0  0  0  0  0  0  0  0
   -0.6472   63.1606   84.0424 C   0  0  0  0  0  0  0  0  0  0  0  0
   -0.2781   64.2681   83.4555 N   0  0  0  0  0  0  0  0  0  0  0  0
   -0.0570   64.1380   82.0836 C   0  0  0  0  0  0  0  0  0  0  0  0
   -1.1013   61.1337   83.9050 H   0  0  0  0  0  0  0  0  0  0  0  0
   -0.9202   63.1502   85.5206 C   0  0  0  0  0  0  0  0  0  0  0  0
   -0.0037   63.8081   86.3586 C   0  0  0  0  0  0  0  0  0  0  0  0
   -0.1908   63.8407   87.7427 C   0  0  0  0  0  0  0  0  0  0  0  0
   -1.2974   63.2157   88.3103 C   0  0  0  0  0  0  0  0  0  0  0  0
   -2.2191   62.5571   87.4972 C   0  0  0  0  0  0  0  0  0  0  0  0
   -2.0318   62.5244   86.1109 C   0  0  0  0  0  0  0  0  0  0  0  0
   -2.9593   61.8668   85.3420 O   0  0  0  0  0  0  0  0  0  0  0  0
   -3.6491   61.5030   85.9267 H   0  0  0  0  0  0  0  0  0  0  0  0
    0.6510   66.5391   81.3614 C   0  0  0  0  0  0  0  0  0  0  0  0
    1.8031   67.2174   83.4985 C   0  0  0  0  0  0  0  0  0  0  0  0
    1.9926   66.7440   82.0663 C   0  0  0  0  0  0  0  0  0  0  0  0
 22 23  1  0  0  0
 23 21  1  0  0  0
 21  1  1  0  0  0
  1  2  2  0  0  0
  2  3  1  0  0  0
  3  4  1  0  0  0
  3  5  1  0  0  0
  5  6  1  0  0  0
  6  7  2  0  0  0
  6  8  1  0  0  0
  8  9  1  0  0  0
  9 13  1  0  0  0
 13 14  2  0  0  0
 14 15  1  0  0  0
 15 16  2  0  0  0
 16 17  1  0  0  0
 17 18  2  0  0  0
 18 19  1  0  0  0
  9 10  2  0  0  0
 10 11  1  0  0  0
 11  1  1  0  0  0
 11  5  2  0  0  0
 18 13  1  0  0  0
  8 12  1  0  0  0
 19 20  1  0  0  0
M  END
> <minimizedAffinity>
-8.44997

$$$$
