


 35 40  0  0  0  0  0  0  0  0999 V2000
    0.7789   65.9313   82.6887 N   0  0  0  0  0  0  0  0  0  0  0  0
    0.5644   64.4612   82.6445 C   0  0  0  0  0  0  0  0  0  0  0  0
    0.3289   64.0716   84.0632 C   0  0  0  0  0  0  0  0  0  0  0  0
    0.6233   65.1192   84.9141 C   0  0  0  0  0  0  0  0  0  0  0  0
    0.4990   65.0692   86.2525 N   0  0  0  0  0  0  0  0  0  0  0  0
    0.0748   63.9065   86.7793 C   0  0  0  0  0  0  0  0  0  0  0  0
   -0.0546   63.8355   88.1584 C   0  0  0  0  0  0  0  0  0  0  0  0
   -0.4901   62.6760   88.8023 C   0  0  0  0  0  0  0  0  0  0  0  0
   -0.8094   61.5523   88.0542 C   0  0  0  0  0  0  0  0  0  0  0  0
   -0.6893   61.5898   86.6647 C   0  0  0  0  0  0  0  0  0  0  0  0
   -0.2433   62.7590   85.9996 C   0  0  0  0  0  0  0  0  0  0  0  0
   -0.0936   62.8769   84.5989 C   0  0  0  0  0  0  0  0  0  0  0  0
   -0.3407   61.8696   83.7105 O   0  0  0  0  0  0  0  0  0  0  0  0
    1.1031   66.3212   84.1019 C   0  0  0  0  0  0  0  0  0  0  0  0
   -0.5228   61.0460   84.1881 H   0  0  0  0  0  0  0  0  0  0  0  0
    2.5519   66.6778   84.4036 C   0  0  0  0  0  0  0  0  0  0  0  0
    2.9931   68.0231   84.4826 C   0  0  0  0  0  0  0  0  0  0  0  0
    4.3281   68.3352   84.7627 C   0  0  0  0  0  0  0  0  0  0  0  0
    5.2026   67.2913   84.9616 C   0  0  0  0  0  0  0  0  0  0  0  0
    4.7914   65.9825   84.8922 C   0  0  0  0  0  0  0  0  0  0  0  0
    3.4827   65.6435   84.6188 C   0  0  0  0  0  0  0  0  0  0  0  0
    5.8066   65.1065   85.1206 O   0  0  0  0  0  0  0  0  0  0  0  0
    6.8986   66.0171   85.3616 C   0  0  0  0  0  0  0  0  0  0  0  0
    6.5280   67.4061   85.2431 O   0  0  0  0  0  0  0  0  0  0  0  0
    1.2549   65.9237   80.2177 O   0  0  0  0  0  0  0  0  0  0  0  0
    1.5577   66.6784   81.4163 S   0  0  0  0  0  0  0  0  0  0  0  0
    2.9287   66.8923   81.8310 O   0  0  0  0  0  0  0  0  0  0  0  0
    0.8140   68.2453   81.3125 C   0  0  0  0  0  0  0  0  0  0  0  0
    1.4318   69.3213   81.8234 C   0  0  0  0  0  0  0  0  0  0  0  0
    0.8738   70.6786   81.7777 C   0  0  0  0  0  0  0  0  0  0  0  0
   -0.4062   70.8635   81.2387 C   0  0  0  0  0  0  0  0  0  0  0  0
   -0.9866   72.1338   81.2018 C   0  0  0  0  0  0  0  0  0  0  0  0
   -0.2974   73.2305   81.7141 C   0  0  0  0  0  0  0  0  0  0  0  0
    0.9693   73.0574   82.2673 C   0  0  0  0  0  0  0  0  0  0  0  0
    1.5507   71.7870   82.3039 C   0  0  0  0  0  0  0  0  0  0  0  0
 25 26  2  0  0  0
 26 27  2  0  0  0
 26 28  1  0  0  0
 28 29  2  0  0  0
 29 30  1  0  0  0
 30 31  2  0  0  0
 31 32  1  0  0  0
 32 33  2  0  0  0
 33 34  1  0  0  0
 34 35  2  0  0  0
 26  1  1  0  0  0
  1  2  1  0  0  0
  2  3  1  0  0  0
  3  4  1  0  0  0
  4  5  2  0  0  0
  5  6  1  0  0  0
  6  7  2  0  0  0
  7  8  1  0  0  0
  8  9  2  0  0  0
  9 10  1  0  0  0
 10 11  2  0  0  0
 11 12  1  0  0  0
 12 13  1  0  0  0
  4 14  1  0  0  0
 14 16  1  0  0  0
 16 17  1  0  0  0
 17 18  2  0  0  0
 18 19  1  0  0  0
 19 20  2  0  0  0
 20 21  1  0  0  0
 20 22  1  0  0  0
 22 23  1  0  0  0
 23 24  1  0  0  0
 35 30  1  0  0  0
 14  1  1  0  0  0
 21 16  2  0  0  0
 12  3  2  0  0  0
 24 19  1  0  0  0
 11  6  1  0  0  0
 13 15  1  0  0  0
M  END
> <minimizedAffinity>
-11.50736

$$$$



 35 40  0  0  0  0  0  0  0  0999 V2000
    0.5677   65.9252   82.8307 N   0  0  0  0  0  0  0  0  0  0  0  0
    0.3315   64.4579   82.8073 C   0  0  0  0  0  0  0  0  0  0  0  0
    0.2255   64.0701   84.2420 C   0  0  0  0  0  0  0  0  0  0  0  0
    0.6117   65.1132   85.0611 C   0  0  0  0  0  0  0  0  0  0  0  0
    0.6132   65.0637   86.4053 N   0  0  0  0  0  0  0  0  0  0  0  0
    0.2258   63.9060   86.9700 C   0  0  0  0  0  0  0  0  0  0  0  0
    0.2257   63.8355   88.3553 C   0  0  0  0  0  0  0  0  0  0  0  0
   -0.1619   62.6810   89.0376 C   0  0  0  0  0  0  0  0  0  0  0  0
   -0.5642   61.5620   88.3232 C   0  0  0  0  0  0  0  0  0  0  0  0
   -0.5749   61.5992   86.9285 C   0  0  0  0  0  0  0  0  0  0  0  0
   -0.1786   62.7632   86.2241 C   0  0  0  0  0  0  0  0  0  0  0  0
   -0.1598   62.8804   84.8155 C   0  0  0  0  0  0  0  0  0  0  0  0
   -0.5019   61.8770   83.9545 O   0  0  0  0  0  0  0  0  0  0  0  0
    1.0282   66.3097   84.2070 C   0  0  0  0  0  0  0  0  0  0  0  0
   -0.6487   61.0553   84.4474 H   0  0  0  0  0  0  0  0  0  0  0  0
    2.5033   66.6478   84.3710 C   0  0  0  0  0  0  0  0  0  0  0  0
    2.9895   67.9729   84.2350 C   0  0  0  0  0  0  0  0  0  0  0  0
    4.3484   68.2685   84.3906 C   0  0  0  0  0  0  0  0  0  0  0  0
    5.2013   67.2288   84.6826 C   0  0  0  0  0  0  0  0  0  0  0  0
    4.7469   65.9399   84.8212 C   0  0  0  0  0  0  0  0  0  0  0  0
    3.4139   65.6177   84.6745 C   0  0  0  0  0  0  0  0  0  0  0  0
    5.7473   65.0649   85.1105 O   0  0  0  0  0  0  0  0  0  0  0  0
    6.8796   65.9568   85.1578 C   0  0  0  0  0  0  0  0  0  0  0  0
    6.5447   67.3295   84.8677 O   0  0  0  0  0  0  0  0  0  0  0  0
    2.6347   66.3020   81.4456 O   0  0  0  0  0  0  0  0  0  0  0  0
    1.2328   66.6635   81.4905 S   0  0  0  0  0  0  0  0  0  0  0  0
    0.8267   68.0529   81.5322 O   0  0  0  0  0  0  0  0  0  0  0  0
    0.4089   65.9395   80.1429 C   0  0  0  0  0  0  0  0  0  0  0  0
    0.8311   64.7679   79.6434 C   0  0  0  0  0  0  0  0  0  0  0  0
    0.1927   64.0892   78.5086 C   0  0  0  0  0  0  0  0  0  0  0  0
    0.3330   62.7004   78.3881 C   0  0  0  0  0  0  0  0  0  0  0  0
   -0.2814   62.0110   77.3397 C   0  0  0  0  0  0  0  0  0  0  0  0
   -1.0521   62.7020   76.4076 C   0  0  0  0  0  0  0  0  0  0  0  0
   -1.2126   64.0807   76.5256 C   0  0  0  0  0  0  0  0  0  0  0  0
   -0.5976   64.7711   77.5737 C   0  0  0  0  0  0  0  0  0  0  0  0
 25 26  2  0  0  0
 26 27  2  0  0  0
 26 28  1  0  0  0
 28 29  2  0  0  0
 29 30  1  0  0  0
 30 31  2  0  0  0
 31 32  1  0  0  0
 32 33  2  0  0  0
 33 34  1  0  0  0
 34 35  2  0  0  0
 26  1  1  0  0  0
  1  2  1  0  0  0
  2  3  1  0  0  0
  3  4  1  0  0  0
  4  5  2  0  0  0
  5  6  1  0  0  0
  6  7  2  0  0  0
  7  8  1  0  0  0
  8  9  2  0  0  0
  9 10  1  0  0  0
 10 11  2  0  0  0
 11 12  1  0  0  0
 12 13  1  0  0  0
  4 14  1  0  0  0
 14 16  1  0  0  0
 16 17  1  0  0  0
 17 18  2  0  0  0
 18 19  1  0  0  0
 19 20  2  0  0  0
 20 21  1  0  0  0
 20 22  1  0  0  0
 22 23  1  0  0  0
 23 24  1  0  0  0
 35 30  1  0  0  0
 14  1  1  0  0  0
 21 16  2  0  0  0
 12  3  2  0  0  0
 24 19  1  0  0  0
 11  6  1  0  0  0
 13 15  1  0  0  0
M  END
> <minimizedAffinity>
-11.38743

$$$$



 35 40  0  0  0  0  0  0  0  0999 V2000
    1.9128   68.3920   82.8407 N   0  0  0  0  0  0  0  0  0  0  0  0
    1.5303   67.3425   81.8601 C   0  0  0  0  0  0  0  0  0  0  0  0
    1.0712   66.1964   82.6941 C   0  0  0  0  0  0  0  0  0  0  0  0
    1.3789   66.4046   84.0245 C   0  0  0  0  0  0  0  0  0  0  0  0
    1.0803   65.5471   85.0169 N   0  0  0  0  0  0  0  0  0  0  0  0
    0.4558   64.4083   84.6671 C   0  0  0  0  0  0  0  0  0  0  0  0
    0.1445   63.5101   85.6772 C   0  0  0  0  0  0  0  0  0  0  0  0
   -0.5057   62.3022   85.4190 C   0  0  0  0  0  0  0  0  0  0  0  0
   -0.8602   61.9760   84.1182 C   0  0  0  0  0  0  0  0  0  0  0  0
   -0.5608   62.8569   83.0785 C   0  0  0  0  0  0  0  0  0  0  0  0
    0.1036   64.0837   83.3268 C   0  0  0  0  0  0  0  0  0  0  0  0
    0.4433   65.0275   82.3307 C   0  0  0  0  0  0  0  0  0  0  0  0
    0.1918   64.8652   80.9982 O   0  0  0  0  0  0  0  0  0  0  0  0
    2.0992   67.7429   84.1817 C   0  0  0  0  0  0  0  0  0  0  0  0
   -0.1474   63.9722   80.8330 H   0  0  0  0  0  0  0  0  0  0  0  0
    3.5303   67.5718   84.6717 C   0  0  0  0  0  0  0  0  0  0  0  0
    4.0325   68.2886   85.7874 C   0  0  0  0  0  0  0  0  0  0  0  0
    5.3501   68.1192   86.2273 C   0  0  0  0  0  0  0  0  0  0  0  0
    6.1457   67.2300   85.5416 C   0  0  0  0  0  0  0  0  0  0  0  0
    5.6743   66.5249   84.4611 C   0  0  0  0  0  0  0  0  0  0  0  0
    4.3809   66.6698   84.0045 C   0  0  0  0  0  0  0  0  0  0  0  0
    6.6160   65.7008   83.9280 O   0  0  0  0  0  0  0  0  0  0  0  0
    7.7272   65.9549   84.8114 C   0  0  0  0  0  0  0  0  0  0  0  0
    7.4431   66.9393   85.8267 O   0  0  0  0  0  0  0  0  0  0  0  0
    4.0061   69.0238   81.5952 O   0  0  0  0  0  0  0  0  0  0  0  0
    2.9313   69.6227   82.3594 S   0  0  0  0  0  0  0  0  0  0  0  0
    3.2126   70.4187   83.5360 O   0  0  0  0  0  0  0  0  0  0  0  0
    1.9572   70.6058   81.3089 C   0  0  0  0  0  0  0  0  0  0  0  0
    0.9291   71.3109   81.8051 C   0  0  0  0  0  0  0  0  0  0  0  0
    0.0579   72.1649   80.9881 C   0  0  0  0  0  0  0  0  0  0  0  0
    0.5232   73.4287   80.6015 C   0  0  0  0  0  0  0  0  0  0  0  0
   -0.2615   74.2620   79.8005 C   0  0  0  0  0  0  0  0  0  0  0  0
   -1.5151   73.8353   79.3683 C   0  0  0  0  0  0  0  0  0  0  0  0
   -1.9824   72.5745   79.7324 C   0  0  0  0  0  0  0  0  0  0  0  0
   -1.1982   71.7407   80.5343 C   0  0  0  0  0  0  0  0  0  0  0  0
 25 26  2  0  0  0
 26 27  2  0  0  0
 26 28  1  0  0  0
 28 29  2  0  0  0
 29 30  1  0  0  0
 30 31  2  0  0  0
 31 32  1  0  0  0
 32 33  2  0  0  0
 33 34  1  0  0  0
 34 35  2  0  0  0
 26  1  1  0  0  0
  1  2  1  0  0  0
  2  3  1  0  0  0
  3  4  1  0  0  0
  4  5  2  0  0  0
  5  6  1  0  0  0
  6  7  2  0  0  0
  7  8  1  0  0  0
  8  9  2  0  0  0
  9 10  1  0  0  0
 10 11  2  0  0  0
 11 12  1  0  0  0
 12 13  1  0  0  0
  4 14  1  0  0  0
 14 16  1  0  0  0
 16 17  1  0  0  0
 17 18  2  0  0  0
 18 19  1  0  0  0
 19 20  2  0  0  0
 20 21  1  0  0  0
 20 22  1  0  0  0
 22 23  1  0  0  0
 23 24  1  0  0  0
 35 30  1  0  0  0
 14  1  1  0  0  0
 21 16  2  0  0  0
 12  3  2  0  0  0
 24 19  1  0  0  0
 11  6  1  0  0  0
 13 15  1  0  0  0
M  END
> <minimizedAffinity>
-11.16540

$$$$



 35 40  0  0  0  0  0  0  0  0999 V2000
   -0.4921   64.0748   82.4743 N   0  0  0  0  0  0  0  0  0  0  0  0
    0.7754   64.5507   83.0877 C   0  0  0  0  0  0  0  0  0  0  0  0
    1.0969   65.8105   82.3601 C   0  0  0  0  0  0  0  0  0  0  0  0
    0.2804   65.9603   81.2560 C   0  0  0  0  0  0  0  0  0  0  0  0
    0.3296   67.0053   80.4105 N   0  0  0  0  0  0  0  0  0  0  0  0
    1.2545   67.9482   80.6648 C   0  0  0  0  0  0  0  0  0  0  0  0
    1.3226   69.0308   79.8003 C   0  0  0  0  0  0  0  0  0  0  0  0
    2.2447   70.0635   79.9786 C   0  0  0  0  0  0  0  0  0  0  0  0
    3.1255   70.0221   81.0495 C   0  0  0  0  0  0  0  0  0  0  0  0
    3.0842   68.9467   81.9374 C   0  0  0  0  0  0  0  0  0  0  0  0
    2.1565   67.8895   81.7643 C   0  0  0  0  0  0  0  0  0  0  0  0
    2.0523   66.7666   82.6167 C   0  0  0  0  0  0  0  0  0  0  0  0
    2.8487   66.5489   83.7045 O   0  0  0  0  0  0  0  0  0  0  0  0
   -0.6700   64.7683   81.1546 C   0  0  0  0  0  0  0  0  0  0  0  0
    3.5541   67.2131   83.7349 H   0  0  0  0  0  0  0  0  0  0  0  0
   -0.4221   63.9399   79.9018 C   0  0  0  0  0  0  0  0  0  0  0  0
    0.8722   63.7963   79.3407 C   0  0  0  0  0  0  0  0  0  0  0  0
    1.0848   63.0297   78.1894 C   0  0  0  0  0  0  0  0  0  0  0  0
   -0.0061   62.4157   77.6176 C   0  0  0  0  0  0  0  0  0  0  0  0
   -1.2661   62.5414   78.1498 C   0  0  0  0  0  0  0  0  0  0  0  0
   -1.5068   63.2892   79.2835 C   0  0  0  0  0  0  0  0  0  0  0  0
   -2.2013   61.8573   77.4374 O   0  0  0  0  0  0  0  0  0  0  0  0
   -1.3794   61.2707   76.4079 C   0  0  0  0  0  0  0  0  0  0  0  0
    0.0127   61.6363   76.5034 O   0  0  0  0  0  0  0  0  0  0  0  0
   -0.0517   61.6945   81.7869 O   0  0  0  0  0  0  0  0  0  0  0  0
   -0.9252   62.4723   82.6413 S   0  0  0  0  0  0  0  0  0  0  0  0
   -2.3636   62.4081   82.4856 O   0  0  0  0  0  0  0  0  0  0  0  0
   -0.5828   62.1015   84.3039 C   0  0  0  0  0  0  0  0  0  0  0  0
   -0.6275   63.0673   85.2343 C   0  0  0  0  0  0  0  0  0  0  0  0
   -0.3524   62.8392   86.6584 C   0  0  0  0  0  0  0  0  0  0  0  0
   -0.8840   61.6980   87.2733 C   0  0  0  0  0  0  0  0  0  0  0  0
   -0.6236   61.4276   88.6190 C   0  0  0  0  0  0  0  0  0  0  0  0
    0.1807   62.2898   89.3606 C   0  0  0  0  0  0  0  0  0  0  0  0
    0.7284   63.4193   88.7566 C   0  0  0  0  0  0  0  0  0  0  0  0
    0.4677   63.6908   87.4107 C   0  0  0  0  0  0  0  0  0  0  0  0
 25 26  2  0  0  0
 26 27  2  0  0  0
 26 28  1  0  0  0
 28 29  2  0  0  0
 29 30  1  0  0  0
 30 31  2  0  0  0
 31 32  1  0  0  0
 32 33  2  0  0  0
 33 34  1  0  0  0
 34 35  2  0  0  0
 26  1  1  0  0  0
  1  2  1  0  0  0
  2  3  1  0  0  0
  3  4  1  0  0  0
  4  5  2  0  0  0
  5  6  1  0  0  0
  6  7  2  0  0  0
  7  8  1  0  0  0
  8  9  2  0  0  0
  9 10  1  0  0  0
 10 11  2  0  0  0
 11 12  1  0  0  0
 12 13  1  0  0  0
  4 14  1  0  0  0
 14 16  1  0  0  0
 16 17  1  0  0  0
 17 18  2  0  0  0
 18 19  1  0  0  0
 19 20  2  0  0  0
 20 21  1  0  0  0
 20 22  1  0  0  0
 22 23  1  0  0  0
 23 24  1  0  0  0
 35 30  1  0  0  0
 14  1  1  0  0  0
 21 16  2  0  0  0
 12  3  2  0  0  0
 24 19  1  0  0  0
 11  6  1  0  0  0
 13 15  1  0  0  0
M  END
> <minimizedAffinity>
-11.15830

$$$$



 35 40  0  0  0  0  0  0  0  0999 V2000
    2.0777   68.7785   83.3034 N   0  0  0  0  0  0  0  0  0  0  0  0
    2.8034   70.0247   82.9433 C   0  0  0  0  0  0  0  0  0  0  0  0
    1.8158   70.8252   82.1663 C   0  0  0  0  0  0  0  0  0  0  0  0
    0.7064   70.0641   81.8531 C   0  0  0  0  0  0  0  0  0  0  0  0
   -0.3569   70.5176   81.1654 N   0  0  0  0  0  0  0  0  0  0  0  0
   -0.3096   71.7955   80.7485 C   0  0  0  0  0  0  0  0  0  0  0  0
   -1.3956   72.2786   80.0336 C   0  0  0  0  0  0  0  0  0  0  0  0
   -1.4454   73.5906   79.5597 C   0  0  0  0  0  0  0  0  0  0  0  0
   -0.3853   74.4512   79.8046 C   0  0  0  0  0  0  0  0  0  0  0  0
    0.7230   73.9968   80.5199 C   0  0  0  0  0  0  0  0  0  0  0  0
    0.7880   72.6657   81.0017 C   0  0  0  0  0  0  0  0  0  0  0  0
    1.8734   72.1291   81.7313 C   0  0  0  0  0  0  0  0  0  0  0  0
    3.0075   72.8220   82.0458 O   0  0  0  0  0  0  0  0  0  0  0  0
    0.8809   68.6504   82.4058 C   0  0  0  0  0  0  0  0  0  0  0  0
    2.9999   73.6848   81.6041 H   0  0  0  0  0  0  0  0  0  0  0  0
    0.9567   67.6061   81.3008 C   0  0  0  0  0  0  0  0  0  0  0  0
    1.8510   67.7333   80.2077 C   0  0  0  0  0  0  0  0  0  0  0  0
    1.9107   66.7639   79.2004 C   0  0  0  0  0  0  0  0  0  0  0  0
    1.0719   65.6779   79.3052 C   0  0  0  0  0  0  0  0  0  0  0  0
    0.2021   65.5371   80.3589 C   0  0  0  0  0  0  0  0  0  0  0  0
    0.1209   66.4750   81.3670 C   0  0  0  0  0  0  0  0  0  0  0  0
   -0.5345   64.3966   80.2755 O   0  0  0  0  0  0  0  0  0  0  0  0
   -0.0119   63.8273   79.0579 C   0  0  0  0  0  0  0  0  0  0  0  0
    0.9945   64.6442   78.4250 O   0  0  0  0  0  0  0  0  0  0  0  0
    4.0284   67.8543   84.5967 O   0  0  0  0  0  0  0  0  0  0  0  0
    2.9513   67.4227   83.7298 S   0  0  0  0  0  0  0  0  0  0  0  0
    3.2293   66.7006   82.5056 O   0  0  0  0  0  0  0  0  0  0  0  0
    1.8325   66.4547   84.6410 C   0  0  0  0  0  0  0  0  0  0  0  0
    1.4934   65.2297   84.2110 C   0  0  0  0  0  0  0  0  0  0  0  0
    0.5570   64.3484   84.9198 C   0  0  0  0  0  0  0  0  0  0  0  0
    0.5377   64.3724   86.3205 C   0  0  0  0  0  0  0  0  0  0  0  0
   -0.3570   63.5711   87.0342 C   0  0  0  0  0  0  0  0  0  0  0  0
   -1.2495   62.7460   86.3539 C   0  0  0  0  0  0  0  0  0  0  0  0
   -1.2513   62.7250   84.9610 C   0  0  0  0  0  0  0  0  0  0  0  0
   -0.3561   63.5258   84.2466 C   0  0  0  0  0  0  0  0  0  0  0  0
 25 26  2  0  0  0
 26 27  2  0  0  0
 26 28  1  0  0  0
 28 29  2  0  0  0
 29 30  1  0  0  0
 30 31  2  0  0  0
 31 32  1  0  0  0
 32 33  2  0  0  0
 33 34  1  0  0  0
 34 35  2  0  0  0
 26  1  1  0  0  0
  1  2  1  0  0  0
  2  3  1  0  0  0
  3  4  1  0  0  0
  4  5  2  0  0  0
  5  6  1  0  0  0
  6  7  2  0  0  0
  7  8  1  0  0  0
  8  9  2  0  0  0
  9 10  1  0  0  0
 10 11  2  0  0  0
 11 12  1  0  0  0
 12 13  1  0  0  0
  4 14  1  0  0  0
 14 16  1  0  0  0
 16 17  1  0  0  0
 17 18  2  0  0  0
 18 19  1  0  0  0
 19 20  2  0  0  0
 20 21  1  0  0  0
 20 22  1  0  0  0
 22 23  1  0  0  0
 23 24  1  0  0  0
 35 30  1  0  0  0
 14  1  1  0  0  0
 21 16  2  0  0  0
 12  3  2  0  0  0
 24 19  1  0  0  0
 11  6  1  0  0  0
 13 15  1  0  0  0
M  END
> <minimizedAffinity>
-10.73932

$$$$



 35 40  0  0  0  0  0  0  0  0999 V2000
    0.5723   63.8207   83.9494 N   0  0  0  0  0  0  0  0  0  0  0  0
   -0.7199   63.1488   84.2459 C   0  0  0  0  0  0  0  0  0  0  0  0
   -1.0510   62.4015   83.0002 C   0  0  0  0  0  0  0  0  0  0  0  0
   -0.2113   62.7732   81.9683 C   0  0  0  0  0  0  0  0  0  0  0  0
   -0.2627   62.2624   80.7250 N   0  0  0  0  0  0  0  0  0  0  0  0
   -1.2140   61.3420   80.4863 C   0  0  0  0  0  0  0  0  0  0  0  0
   -1.2846   60.8078   79.2082 C   0  0  0  0  0  0  0  0  0  0  0  0
   -2.2332   59.8448   78.8598 C   0  0  0  0  0  0  0  0  0  0  0  0
   -3.1387   59.3959   79.8100 C   0  0  0  0  0  0  0  0  0  0  0  0
   -3.0955   59.9133   81.1049 C   0  0  0  0  0  0  0  0  0  0  0  0
   -2.1410   60.8951   81.4697 C   0  0  0  0  0  0  0  0  0  0  0  0
   -2.0330   61.4692   82.7569 C   0  0  0  0  0  0  0  0  0  0  0  0
   -2.8508   61.1642   83.8073 O   0  0  0  0  0  0  0  0  0  0  0  0
    0.7672   63.8384   82.4608 C   0  0  0  0  0  0  0  0  0  0  0  0
   -3.5710   60.5886   83.5081 H   0  0  0  0  0  0  0  0  0  0  0  0
    0.5680   65.1726   81.7553 C   0  0  0  0  0  0  0  0  0  0  0  0
   -0.7042   65.5945   81.2924 C   0  0  0  0  0  0  0  0  0  0  0  0
   -0.8719   66.8249   80.6473 C   0  0  0  0  0  0  0  0  0  0  0  0
    0.2409   67.6165   80.4770 C   0  0  0  0  0  0  0  0  0  0  0  0
    1.4799   67.2249   80.9223 C   0  0  0  0  0  0  0  0  0  0  0  0
    1.6765   66.0188   81.5620 C   0  0  0  0  0  0  0  0  0  0  0  0
    2.4426   68.1487   80.6580 O   0  0  0  0  0  0  0  0  0  0  0  0
    1.6609   69.1750   80.0133 C   0  0  0  0  0  0  0  0  0  0  0  0
    0.2655   68.8364   79.8767 O   0  0  0  0  0  0  0  0  0  0  0  0
    0.6020   64.8878   86.2282 O   0  0  0  0  0  0  0  0  0  0  0  0
    1.0362   65.1336   84.8684 S   0  0  0  0  0  0  0  0  0  0  0  0
    0.6050   66.3181   84.1554 O   0  0  0  0  0  0  0  0  0  0  0  0
    2.7725   65.1144   84.8069 C   0  0  0  0  0  0  0  0  0  0  0  0
    3.4625   66.2645   84.8466 C   0  0  0  0  0  0  0  0  0  0  0  0
    4.9282   66.3366   84.7997 C   0  0  0  0  0  0  0  0  0  0  0  0
    5.6719   65.2346   85.2418 C   0  0  0  0  0  0  0  0  0  0  0  0
    7.0679   65.2498   85.1881 C   0  0  0  0  0  0  0  0  0  0  0  0
    7.7342   66.3629   84.6809 C   0  0  0  0  0  0  0  0  0  0  0  0
    7.0058   67.4586   84.2232 C   0  0  0  0  0  0  0  0  0  0  0  0
    5.6093   67.4443   84.2773 C   0  0  0  0  0  0  0  0  0  0  0  0
 25 26  2  0  0  0
 26 27  2  0  0  0
 26 28  1  0  0  0
 28 29  2  0  0  0
 29 30  1  0  0  0
 30 31  2  0  0  0
 31 32  1  0  0  0
 32 33  2  0  0  0
 33 34  1  0  0  0
 34 35  2  0  0  0
 26  1  1  0  0  0
  1  2  1  0  0  0
  2  3  1  0  0  0
  3  4  1  0  0  0
  4  5  2  0  0  0
  5  6  1  0  0  0
  6  7  2  0  0  0
  7  8  1  0  0  0
  8  9  2  0  0  0
  9 10  1  0  0  0
 10 11  2  0  0  0
 11 12  1  0  0  0
 12 13  1  0  0  0
  4 14  1  0  0  0
 14 16  1  0  0  0
 16 17  1  0  0  0
 17 18  2  0  0  0
 18 19  1  0  0  0
 19 20  2  0  0  0
 20 21  1  0  0  0
 20 22  1  0  0  0
 22 23  1  0  0  0
 23 24  1  0  0  0
 35 30  1  0  0  0
 14  1  1  0  0  0
 21 16  2  0  0  0
 12  3  2  0  0  0
 24 19  1  0  0  0
 11  6  1  0  0  0
 13 15  1  0  0  0
M  END
> <minimizedAffinity>
-10.49139

$$$$



 35 40  0  0  0  0  0  0  0  0999 V2000
    1.7447   65.5296   82.4591 N   0  0  0  0  0  0  0  0  0  0  0  0
    0.5225   64.6882   82.5469 C   0  0  0  0  0  0  0  0  0  0  0  0
    0.0969   64.4926   81.1325 C   0  0  0  0  0  0  0  0  0  0  0  0
    0.8060   65.3246   80.2882 C   0  0  0  0  0  0  0  0  0  0  0  0
    0.6478   65.3664   78.9531 N   0  0  0  0  0  0  0  0  0  0  0  0
   -0.2804   64.5478   78.4264 C   0  0  0  0  0  0  0  0  0  0  0  0
   -0.4603   64.5811   77.0514 C   0  0  0  0  0  0  0  0  0  0  0  0
   -1.3955   63.7690   76.4075 C   0  0  0  0  0  0  0  0  0  0  0  0
   -2.1751   62.8949   77.1506 C   0  0  0  0  0  0  0  0  0  0  0  0
   -2.0199   62.8372   78.5360 C   0  0  0  0  0  0  0  0  0  0  0  0
   -1.0780   63.6600   79.2021 C   0  0  0  0  0  0  0  0  0  0  0  0
   -0.8619   63.6625   80.5991 C   0  0  0  0  0  0  0  0  0  0  0  0
   -1.5503   62.8854   81.4863 O   0  0  0  0  0  0  0  0  0  0  0  0
    1.7814   66.1728   81.1030 C   0  0  0  0  0  0  0  0  0  0  0  0
   -2.2711   62.4243   81.0307 H   0  0  0  0  0  0  0  0  0  0  0  0
    1.4490   67.6567   81.0347 C   0  0  0  0  0  0  0  0  0  0  0  0
    0.1113   68.1273   81.0355 C   0  0  0  0  0  0  0  0  0  0  0  0
   -0.1784   69.4949   80.9742 C   0  0  0  0  0  0  0  0  0  0  0  0
    0.8799   70.3725   80.9146 C   0  0  0  0  0  0  0  0  0  0  0  0
    2.1817   69.9342   80.9164 C   0  0  0  0  0  0  0  0  0  0  0  0
    2.4988   68.5932   80.9767 C   0  0  0  0  0  0  0  0  0  0  0  0
    3.0746   70.9583   80.8540 O   0  0  0  0  0  0  0  0  0  0  0  0
    2.1831   72.0917   80.8334 C   0  0  0  0  0  0  0  0  0  0  0  0
    0.7874   71.7278   80.8517 O   0  0  0  0  0  0  0  0  0  0  0  0
    1.3771   67.5389   83.9288 O   0  0  0  0  0  0  0  0  0  0  0  0
    2.2422   66.3841   83.8029 S   0  0  0  0  0  0  0  0  0  0  0  0
    3.6775   66.5420   83.6919 O   0  0  0  0  0  0  0  0  0  0  0  0
    1.9570   65.3041   85.1338 C   0  0  0  0  0  0  0  0  0  0  0  0
    0.7041   64.9561   85.4645 C   0  0  0  0  0  0  0  0  0  0  0  0
    0.3764   64.0504   86.5728 C   0  0  0  0  0  0  0  0  0  0  0  0
   -0.7813   63.2664   86.4829 C   0  0  0  0  0  0  0  0  0  0  0  0
   -1.1156   62.3708   87.5017 C   0  0  0  0  0  0  0  0  0  0  0  0
   -0.2893   62.2416   88.6156 C   0  0  0  0  0  0  0  0  0  0  0  0
    0.8730   63.0037   88.7094 C   0  0  0  0  0  0  0  0  0  0  0  0
    1.2076   63.9004   87.6910 C   0  0  0  0  0  0  0  0  0  0  0  0
 25 26  2  0  0  0
 26 27  2  0  0  0
 26 28  1  0  0  0
 28 29  2  0  0  0
 29 30  1  0  0  0
 30 31  2  0  0  0
 31 32  1  0  0  0
 32 33  2  0  0  0
 33 34  1  0  0  0
 34 35  2  0  0  0
 26  1  1  0  0  0
  1  2  1  0  0  0
  2  3  1  0  0  0
  3  4  1  0  0  0
  4  5  2  0  0  0
  5  6  1  0  0  0
  6  7  2  0  0  0
  7  8  1  0  0  0
  8  9  2  0  0  0
  9 10  1  0  0  0
 10 11  2  0  0  0
 11 12  1  0  0  0
 12 13  1  0  0  0
  4 14  1  0  0  0
 14 16  1  0  0  0
 16 17  1  0  0  0
 17 18  2  0  0  0
 18 19  1  0  0  0
 19 20  2  0  0  0
 20 21  1  0  0  0
 20 22  1  0  0  0
 22 23  1  0  0  0
 23 24  1  0  0  0
 35 30  1  0  0  0
 14  1  1  0  0  0
 21 16  2  0  0  0
 12  3  2  0  0  0
 24 19  1  0  0  0
 11  6  1  0  0  0
 13 15  1  0  0  0
M  END
> <minimizedAffinity>
-10.44982

$$$$



 35 40  0  0  0  0  0  0  0  0999 V2000
   -0.4304   63.7787   85.6819 N   0  0  0  0  0  0  0  0  0  0  0  0
    0.7076   63.5776   86.6167 C   0  0  0  0  0  0  0  0  0  0  0  0
    1.7901   64.4536   86.0870 C   0  0  0  0  0  0  0  0  0  0  0  0
    1.4625   64.9339   84.8340 C   0  0  0  0  0  0  0  0  0  0  0  0
    2.2401   65.7573   84.1083 N   0  0  0  0  0  0  0  0  0  0  0  0
    3.4197   66.1108   84.6493 C   0  0  0  0  0  0  0  0  0  0  0  0
    4.2367   66.9557   83.9127 C   0  0  0  0  0  0  0  0  0  0  0  0
    5.4781   67.3834   84.3864 C   0  0  0  0  0  0  0  0  0  0  0  0
    5.9221   66.9616   85.6311 C   0  0  0  0  0  0  0  0  0  0  0  0
    5.1251   66.1106   86.3974 C   0  0  0  0  0  0  0  0  0  0  0  0
    3.8653   65.6650   85.9255 C   0  0  0  0  0  0  0  0  0  0  0  0
    3.0010   64.8032   86.6386 C   0  0  0  0  0  0  0  0  0  0  0  0
    3.2818   64.2739   87.8658 O   0  0  0  0  0  0  0  0  0  0  0  0
    0.0980   64.3882   84.4156 C   0  0  0  0  0  0  0  0  0  0  0  0
    4.1938   64.4870   88.1160 H   0  0  0  0  0  0  0  0  0  0  0  0
    0.1910   63.4780   83.1990 C   0  0  0  0  0  0  0  0  0  0  0  0
    0.7703   62.1856   83.2708 C   0  0  0  0  0  0  0  0  0  0  0  0
    0.8469   61.3595   82.1440 C   0  0  0  0  0  0  0  0  0  0  0  0
    0.3388   61.8419   80.9595 C   0  0  0  0  0  0  0  0  0  0  0  0
   -0.2288   63.0897   80.8730 C   0  0  0  0  0  0  0  0  0  0  0  0
   -0.3194   63.9263   81.9658 C   0  0  0  0  0  0  0  0  0  0  0  0
   -0.6698   63.3736   79.6180 O   0  0  0  0  0  0  0  0  0  0  0  0
   -0.3319   62.1514   78.9311 C   0  0  0  0  0  0  0  0  0  0  0  0
    0.3267   61.1812   79.7710 O   0  0  0  0  0  0  0  0  0  0  0  0
   -2.7979   63.1827   86.2919 O   0  0  0  0  0  0  0  0  0  0  0  0
   -1.6411   62.6327   85.6158 S   0  0  0  0  0  0  0  0  0  0  0  0
   -1.0567   61.3798   86.0472 O   0  0  0  0  0  0  0  0  0  0  0  0
   -1.9898   62.4675   83.9217 C   0  0  0  0  0  0  0  0  0  0  0  0
   -2.6930   61.4150   83.4765 C   0  0  0  0  0  0  0  0  0  0  0  0
   -3.0306   61.2002   82.0637 C   0  0  0  0  0  0  0  0  0  0  0  0
   -2.8339   59.9286   81.5094 C   0  0  0  0  0  0  0  0  0  0  0  0
   -3.1683   59.6731   80.1772 C   0  0  0  0  0  0  0  0  0  0  0  0
   -3.7136   60.6838   79.3889 C   0  0  0  0  0  0  0  0  0  0  0  0
   -3.9291   61.9480   79.9328 C   0  0  0  0  0  0  0  0  0  0  0  0
   -3.5941   62.2045   81.2652 C   0  0  0  0  0  0  0  0  0  0  0  0
 25 26  2  0  0  0
 26 27  2  0  0  0
 26 28  1  0  0  0
 28 29  2  0  0  0
 29 30  1  0  0  0
 30 31  2  0  0  0
 31 32  1  0  0  0
 32 33  2  0  0  0
 33 34  1  0  0  0
 34 35  2  0  0  0
 26  1  1  0  0  0
  1  2  1  0  0  0
  2  3  1  0  0  0
  3  4  1  0  0  0
  4  5  2  0  0  0
  5  6  1  0  0  0
  6  7  2  0  0  0
  7  8  1  0  0  0
  8  9  2  0  0  0
  9 10  1  0  0  0
 10 11  2  0  0  0
 11 12  1  0  0  0
 12 13  1  0  0  0
  4 14  1  0  0  0
 14 16  1  0  0  0
 16 17  1  0  0  0
 17 18  2  0  0  0
 18 19  1  0  0  0
 19 20  2  0  0  0
 20 21  1  0  0  0
 20 22  1  0  0  0
 22 23  1  0  0  0
 23 24  1  0  0  0
 35 30  1  0  0  0
 14  1  1  0  0  0
 21 16  2  0  0  0
 12  3  2  0  0  0
 24 19  1  0  0  0
 11  6  1  0  0  0
 13 15  1  0  0  0
M  END
> <minimizedAffinity>
-10.16022

$$$$



 35 40  0  0  0  0  0  0  0  0999 V2000
    0.5673   64.4339   82.8263 N   0  0  0  0  0  0  0  0  0  0  0  0
   -0.7861   63.8222   82.7682 C   0  0  0  0  0  0  0  0  0  0  0  0
   -0.9806   63.4725   81.3331 C   0  0  0  0  0  0  0  0  0  0  0  0
    0.0108   64.0353   80.5531 C   0  0  0  0  0  0  0  0  0  0  0  0
    0.1048   63.8872   79.2195 N   0  0  0  0  0  0  0  0  0  0  0  0
   -0.8505   63.1526   78.6221 C   0  0  0  0  0  0  0  0  0  0  0  0
   -0.7721   62.9932   77.2464 C   0  0  0  0  0  0  0  0  0  0  0  0
   -1.7118   62.2473   76.5329 C   0  0  0  0  0  0  0  0  0  0  0  0
   -2.7611   61.6384   77.2055 C   0  0  0  0  0  0  0  0  0  0  0  0
   -2.8699   61.7796   78.5893 C   0  0  0  0  0  0  0  0  0  0  0  0
   -1.9256   62.5385   79.3244 C   0  0  0  0  0  0  0  0  0  0  0  0
   -1.9663   62.7305   80.7243 C   0  0  0  0  0  0  0  0  0  0  0  0
   -2.9353   62.2247   81.5431 O   0  0  0  0  0  0  0  0  0  0  0  0
    0.9656   64.8374   81.4361 C   0  0  0  0  0  0  0  0  0  0  0  0
   -3.6361   61.8169   81.0119 H   0  0  0  0  0  0  0  0  0  0  0  0
    0.9339   66.3249   81.1143 C   0  0  0  0  0  0  0  0  0  0  0  0
   -0.2754   67.0030   80.8165 C   0  0  0  0  0  0  0  0  0  0  0  0
   -0.2888   68.3715   80.5246 C   0  0  0  0  0  0  0  0  0  0  0  0
    0.9132   69.0416   80.5373 C   0  0  0  0  0  0  0  0  0  0  0  0
    2.0933   68.4012   80.8271 C   0  0  0  0  0  0  0  0  0  0  0  0
    2.1384   67.0540   81.1194 C   0  0  0  0  0  0  0  0  0  0  0  0
    3.1628   69.2407   80.7883 O   0  0  0  0  0  0  0  0  0  0  0  0
    2.5150   70.4868   80.4608 C   0  0  0  0  0  0  0  0  0  0  0  0
    1.0891   70.3653   80.2802 O   0  0  0  0  0  0  0  0  0  0  0  0
    0.3797   64.8087   85.3076 O   0  0  0  0  0  0  0  0  0  0  0  0
    0.9671   65.4028   84.1244 S   0  0  0  0  0  0  0  0  0  0  0  0
    0.6519   66.7642   83.7444 O   0  0  0  0  0  0  0  0  0  0  0  0
    2.6983   65.2978   84.2271 C   0  0  0  0  0  0  0  0  0  0  0  0
    3.4194   66.3689   84.5921 C   0  0  0  0  0  0  0  0  0  0  0  0
    4.8835   66.3651   84.7036 C   0  0  0  0  0  0  0  0  0  0  0  0
    5.5113   65.2634   85.2996 C   0  0  0  0  0  0  0  0  0  0  0  0
    6.9036   65.2059   85.4005 C   0  0  0  0  0  0  0  0  0  0  0  0
    7.6828   66.2444   84.8961 C   0  0  0  0  0  0  0  0  0  0  0  0
    7.0715   67.3378   84.2868 C   0  0  0  0  0  0  0  0  0  0  0  0
    5.6787   67.3963   84.1862 C   0  0  0  0  0  0  0  0  0  0  0  0
 25 26  2  0  0  0
 26 27  2  0  0  0
 26 28  1  0  0  0
 28 29  2  0  0  0
 29 30  1  0  0  0
 30 31  2  0  0  0
 31 32  1  0  0  0
 32 33  2  0  0  0
 33 34  1  0  0  0
 34 35  2  0  0  0
 26  1  1  0  0  0
  1  2  1  0  0  0
  2  3  1  0  0  0
  3  4  1  0  0  0
  4  5  2  0  0  0
  5  6  1  0  0  0
  6  7  2  0  0  0
  7  8  1  0  0  0
  8  9  2  0  0  0
  9 10  1  0  0  0
 10 11  2  0  0  0
 11 12  1  0  0  0
 12 13  1  0  0  0
  4 14  1  0  0  0
 14 16  1  0  0  0
 16 17  1  0  0  0
 17 18  2  0  0  0
 18 19  1  0  0  0
 19 20  2  0  0  0
 20 21  1  0  0  0
 20 22  1  0  0  0
 22 23  1  0  0  0
 23 24  1  0  0  0
 35 30  1  0  0  0
 14  1  1  0  0  0
 21 16  2  0  0  0
 12  3  2  0  0  0
 24 19  1  0  0  0
 11  6  1  0  0  0
 13 15  1  0  0  0
M  END
> <minimizedAffinity>
-10.12132

$$$$
