


 22 24  0  0  0  0  0  0  0  0999 V2000
   -0.9017   61.9911   84.2359 C   0  0  0  0  0  0  0  0  0  0  0  0
   -2.0979   61.5250   84.0045 N   0  0  0  0  0  0  0  0  0  0  0  0
   -2.2780   60.9654   82.7397 C   0  0  0  0  0  0  0  0  0  0  0  0
   -3.4239   60.4120   82.2491 N   0  0  0  0  0  0  0  0  0  0  0  0
   -3.1152   60.0230   81.0289 C   0  0  0  0  0  0  0  0  0  0  0  0
   -1.8115   60.3075   80.7196 N   0  0  0  0  0  0  0  0  0  0  0  0
   -1.2745   60.9117   81.8160 C   0  0  0  0  0  0  0  0  0  0  0  0
    0.0255   61.4120   82.0518 C   0  0  0  0  0  0  0  0  0  0  0  0
    0.9494   61.3811   81.2482 O   0  0  0  0  0  0  0  0  0  0  0  0
    0.1340   61.9468   83.3102 N   0  0  0  0  0  0  0  0  0  0  0  0
   -1.3350   60.1103   79.8495 H   0  0  0  0  0  0  0  0  0  0  0  0
    1.0387   62.3273   83.5559 H   0  0  0  0  0  0  0  0  0  0  0  0
   -0.0226   63.9032   85.7406 C   0  0  0  0  0  0  0  0  0  0  0  0
    0.2190   64.3802   87.0385 C   0  0  0  0  0  0  0  0  0  0  0  0
   -0.0946   63.6059   88.1580 C   0  0  0  0  0  0  0  0  0  0  0  0
   -0.6536   62.3451   87.9978 C   0  0  0  0  0  0  0  0  0  0  0  0
   -0.9001   61.8566   86.7155 C   0  0  0  0  0  0  0  0  0  0  0  0
   -0.5920   62.6200   85.5727 C   0  0  0  0  0  0  0  0  0  0  0  0
    0.2681   64.6264   84.6100 O   0  0  0  0  0  0  0  0  0  0  0  0
    1.2129   65.6953   84.7115 C   0  0  0  0  0  0  0  0  0  0  0  0
    0.6382   65.5008   82.2639 C   0  0  0  0  0  0  0  0  0  0  0  0
    1.3584   66.3139   83.3242 C   0  0  0  0  0  0  0  0  0  0  0  0
 21 22  1  0  0  0
 22 20  1  0  0  0
 20 19  1  0  0  0
 19 13  1  0  0  0
 13 14  2  0  0  0
 14 15  1  0  0  0
 15 16  2  0  0  0
 16 17  1  0  0  0
 17 18  2  0  0  0
 18  1  1  0  0  0
  1  2  2  0  0  0
  2  3  1  0  0  0
  3  4  1  0  0  0
  4  5  2  0  0  0
  5  6  1  0  0  0
  6  7  1  0  0  0
  7  8  1  0  0  0
  8  9  2  0  0  0
  8 10  1  0  0  0
 18 13  1  0  0  0
 10  1  1  0  0  0
  7  3  2  0  0  0
  6 11  1  0  0  0
 10 12  1  0  0  0
M  END
> <minimizedAffinity>
-8.38698

$$$$



 22 24  0  0  0  0  0  0  0  0999 V2000
   -0.9126   63.1503   83.3105 C   0  0  0  0  0  0  0  0  0  0  0  0
   -0.9706   62.4579   82.2065 N   0  0  0  0  0  0  0  0  0  0  0  0
   -1.8559   61.3804   82.2323 C   0  0  0  0  0  0  0  0  0  0  0  0
   -2.1031   60.5043   81.2167 N   0  0  0  0  0  0  0  0  0  0  0  0
   -3.0003   59.6703   81.7015 C   0  0  0  0  0  0  0  0  0  0  0  0
   -3.3373   59.9807   82.9924 N   0  0  0  0  0  0  0  0  0  0  0  0
   -2.6039   61.0769   83.3331 C   0  0  0  0  0  0  0  0  0  0  0  0
   -2.5520   61.8170   84.5353 C   0  0  0  0  0  0  0  0  0  0  0  0
   -3.2073   61.5747   85.5414 O   0  0  0  0  0  0  0  0  0  0  0  0
   -1.6648   62.8589   84.4423 N   0  0  0  0  0  0  0  0  0  0  0  0
   -3.9999   59.4952   83.5824 H   0  0  0  0  0  0  0  0  0  0  0  0
   -1.5707   63.4386   85.2661 H   0  0  0  0  0  0  0  0  0  0  0  0
    0.7614   64.6893   84.5442 C   0  0  0  0  0  0  0  0  0  0  0  0
    1.5895   65.8220   84.5020 C   0  0  0  0  0  0  0  0  0  0  0  0
    1.6806   66.6023   83.3470 C   0  0  0  0  0  0  0  0  0  0  0  0
    0.9467   66.2631   82.2183 C   0  0  0  0  0  0  0  0  0  0  0  0
    0.1196   65.1410   82.2435 C   0  0  0  0  0  0  0  0  0  0  0  0
    0.0124   64.3399   83.3971 C   0  0  0  0  0  0  0  0  0  0  0  0
    0.6387   63.8915   85.6552 O   0  0  0  0  0  0  0  0  0  0  0  0
    0.3267   64.5115   86.9057 C   0  0  0  0  0  0  0  0  0  0  0  0
   -1.4975   63.2617   88.1178 C   0  0  0  0  0  0  0  0  0  0  0  0
   -0.0018   63.4017   87.9000 C   0  0  0  0  0  0  0  0  0  0  0  0
 21 22  1  0  0  0
 22 20  1  0  0  0
 20 19  1  0  0  0
 19 13  1  0  0  0
 13 14  2  0  0  0
 14 15  1  0  0  0
 15 16  2  0  0  0
 16 17  1  0  0  0
 17 18  2  0  0  0
 18  1  1  0  0  0
  1  2  2  0  0  0
  2  3  1  0  0  0
  3  4  1  0  0  0
  4  5  2  0  0  0
  5  6  1  0  0  0
  6  7  1  0  0  0
  7  8  1  0  0  0
  8  9  2  0  0  0
  8 10  1  0  0  0
 18 13  1  0  0  0
 10  1  1  0  0  0
  7  3  2  0  0  0
  6 11  1  0  0  0
 10 12  1  0  0  0
M  END
> <minimizedAffinity>
-8.30873

$$$$



 22 24  0  0  0  0  0  0  0  0999 V2000
    0.2664   64.3060   85.0454 C   0  0  0  0  0  0  0  0  0  0  0  0
    0.9345   64.4753   86.1529 N   0  0  0  0  0  0  0  0  0  0  0  0
    0.5258   63.6712   87.2167 C   0  0  0  0  0  0  0  0  0  0  0  0
    1.0544   63.6520   88.4737 N   0  0  0  0  0  0  0  0  0  0  0  0
    0.3519   62.7450   89.1214 C   0  0  0  0  0  0  0  0  0  0  0  0
   -0.6087   62.1817   88.3238 N   0  0  0  0  0  0  0  0  0  0  0  0
   -0.4976   62.7751   87.1027 C   0  0  0  0  0  0  0  0  0  0  0  0
   -1.2302   62.5807   85.9105 C   0  0  0  0  0  0  0  0  0  0  0  0
   -2.1530   61.7873   85.7714 O   0  0  0  0  0  0  0  0  0  0  0  0
   -0.7785   63.4000   84.9076 N   0  0  0  0  0  0  0  0  0  0  0  0
   -1.2733   61.4652   88.5844 H   0  0  0  0  0  0  0  0  0  0  0  0
   -1.2543   63.3195   84.0184 H   0  0  0  0  0  0  0  0  0  0  0  0
    0.2068   64.8196   82.5105 C   0  0  0  0  0  0  0  0  0  0  0  0
    0.6030   65.6586   81.4571 C   0  0  0  0  0  0  0  0  0  0  0  0
    1.3979   66.7825   81.6944 C   0  0  0  0  0  0  0  0  0  0  0  0
    1.8082   67.0846   82.9859 C   0  0  0  0  0  0  0  0  0  0  0  0
    1.4233   66.2617   84.0434 C   0  0  0  0  0  0  0  0  0  0  0  0
    0.6221   65.1235   83.8273 C   0  0  0  0  0  0  0  0  0  0  0  0
   -0.5735   63.7045   82.3277 O   0  0  0  0  0  0  0  0  0  0  0  0
   -0.2267   62.7972   81.2778 C   0  0  0  0  0  0  0  0  0  0  0  0
    1.4281   61.0890   82.1159 C   0  0  0  0  0  0  0  0  0  0  0  0
   -0.0384   61.4188   81.9046 C   0  0  0  0  0  0  0  0  0  0  0  0
 21 22  1  0  0  0
 22 20  1  0  0  0
 20 19  1  0  0  0
 19 13  1  0  0  0
 13 14  2  0  0  0
 14 15  1  0  0  0
 15 16  2  0  0  0
 16 17  1  0  0  0
 17 18  2  0  0  0
 18  1  1  0  0  0
  1  2  2  0  0  0
  2  3  1  0  0  0
  3  4  1  0  0  0
  4  5  2  0  0  0
  5  6  1  0  0  0
  6  7  1  0  0  0
  7  8  1  0  0  0
  8  9  2  0  0  0
  8 10  1  0  0  0
 18 13  1  0  0  0
 10  1  1  0  0  0
  7  3  2  0  0  0
  6 11  1  0  0  0
 10 12  1  0  0  0
M  END
> <minimizedAffinity>
-8.17664

$$$$



 22 24  0  0  0  0  0  0  0  0999 V2000
   -0.8662   62.3234   82.6503 C   0  0  0  0  0  0  0  0  0  0  0  0
   -0.5185   62.3570   81.3935 N   0  0  0  0  0  0  0  0  0  0  0  0
   -1.1458   61.4111   80.5828 C   0  0  0  0  0  0  0  0  0  0  0  0
   -0.9612   61.2354   79.2430 N   0  0  0  0  0  0  0  0  0  0  0  0
   -1.7581   60.2371   78.9207 C   0  0  0  0  0  0  0  0  0  0  0  0
   -2.4474   59.7664   80.0068 N   0  0  0  0  0  0  0  0  0  0  0  0
   -2.0551   60.5187   81.0725 C   0  0  0  0  0  0  0  0  0  0  0  0
   -2.4416   60.4700   82.4305 C   0  0  0  0  0  0  0  0  0  0  0  0
   -3.2530   59.6846   82.9050 O   0  0  0  0  0  0  0  0  0  0  0  0
   -1.7894   61.4236   83.1697 N   0  0  0  0  0  0  0  0  0  0  0  0
   -3.1176   59.0090   80.0213 H   0  0  0  0  0  0  0  0  0  0  0  0
   -2.0134   61.4530   84.1559 H   0  0  0  0  0  0  0  0  0  0  0  0
   -0.1249   63.0780   85.0112 C   0  0  0  0  0  0  0  0  0  0  0  0
    0.4676   64.0664   85.8127 C   0  0  0  0  0  0  0  0  0  0  0  0
    0.9307   65.2606   85.2553 C   0  0  0  0  0  0  0  0  0  0  0  0
    0.8090   65.4848   83.8905 C   0  0  0  0  0  0  0  0  0  0  0  0
    0.2231   64.5132   83.0804 C   0  0  0  0  0  0  0  0  0  0  0  0
   -0.2507   63.3019   83.6209 C   0  0  0  0  0  0  0  0  0  0  0  0
   -0.5948   61.8889   85.5123 O   0  0  0  0  0  0  0  0  0  0  0  0
   -0.9853   61.8379   86.8872 C   0  0  0  0  0  0  0  0  0  0  0  0
   -2.9845   63.3475   87.1760 C   0  0  0  0  0  0  0  0  0  0  0  0
   -2.5078   61.9263   86.9366 C   0  0  0  0  0  0  0  0  0  0  0  0
 21 22  1  0  0  0
 22 20  1  0  0  0
 20 19  1  0  0  0
 19 13  1  0  0  0
 13 14  2  0  0  0
 14 15  1  0  0  0
 15 16  2  0  0  0
 16 17  1  0  0  0
 17 18  2  0  0  0
 18  1  1  0  0  0
  1  2  2  0  0  0
  2  3  1  0  0  0
  3  4  1  0  0  0
  4  5  2  0  0  0
  5  6  1  0  0  0
  6  7  1  0  0  0
  7  8  1  0  0  0
  8  9  2  0  0  0
  8 10  1  0  0  0
 18 13  1  0  0  0
 10  1  1  0  0  0
  7  3  2  0  0  0
  6 11  1  0  0  0
 10 12  1  0  0  0
M  END
> <minimizedAffinity>
-8.15276

$$$$



 22 24  0  0  0  0  0  0  0  0999 V2000
    1.3652   65.3562   84.7765 C   0  0  0  0  0  0  0  0  0  0  0  0
    0.5795   64.7863   83.9049 N   0  0  0  0  0  0  0  0  0  0  0  0
   -0.2519   63.7929   84.4218 C   0  0  0  0  0  0  0  0  0  0  0  0
   -1.1605   63.0485   83.7286 N   0  0  0  0  0  0  0  0  0  0  0  0
   -1.6997   62.2511   84.6279 C   0  0  0  0  0  0  0  0  0  0  0  0
   -1.1690   62.4579   85.8737 N   0  0  0  0  0  0  0  0  0  0  0  0
   -0.2409   63.4462   85.7420 C   0  0  0  0  0  0  0  0  0  0  0  0
    0.6039   64.0540   86.6973 C   0  0  0  0  0  0  0  0  0  0  0  0
    0.6413   63.7693   87.8881 O   0  0  0  0  0  0  0  0  0  0  0  0
    1.3928   65.0187   86.1244 N   0  0  0  0  0  0  0  0  0  0  0  0
   -1.4140   61.9748   86.7278 H   0  0  0  0  0  0  0  0  0  0  0  0
    2.0278   65.5020   86.7463 H   0  0  0  0  0  0  0  0  0  0  0  0
    3.6605   66.5490   84.7318 C   0  0  0  0  0  0  0  0  0  0  0  0
    4.4400   67.6107   84.2466 C   0  0  0  0  0  0  0  0  0  0  0  0
    3.8986   68.5601   83.3766 C   0  0  0  0  0  0  0  0  0  0  0  0
    2.5719   68.4630   82.9790 C   0  0  0  0  0  0  0  0  0  0  0  0
    1.7840   67.4144   83.4516 C   0  0  0  0  0  0  0  0  0  0  0  0
    2.3090   66.4460   84.3293 C   0  0  0  0  0  0  0  0  0  0  0  0
    4.1471   65.5919   85.5879 O   0  0  0  0  0  0  0  0  0  0  0  0
    5.5214   65.2129   85.4728 C   0  0  0  0  0  0  0  0  0  0  0  0
    5.4216   65.4335   87.9828 C   0  0  0  0  0  0  0  0  0  0  0  0
    6.2385   65.6951   86.7304 C   0  0  0  0  0  0  0  0  0  0  0  0
 21 22  1  0  0  0
 22 20  1  0  0  0
 20 19  1  0  0  0
 19 13  1  0  0  0
 13 14  2  0  0  0
 14 15  1  0  0  0
 15 16  2  0  0  0
 16 17  1  0  0  0
 17 18  2  0  0  0
 18  1  1  0  0  0
  1  2  2  0  0  0
  2  3  1  0  0  0
  3  4  1  0  0  0
  4  5  2  0  0  0
  5  6  1  0  0  0
  6  7  1  0  0  0
  7  8  1  0  0  0
  8  9  2  0  0  0
  8 10  1  0  0  0
 18 13  1  0  0  0
 10  1  1  0  0  0
  7  3  2  0  0  0
  6 11  1  0  0  0
 10 12  1  0  0  0
M  END
> <minimizedAffinity>
-8.01495

$$$$



 22 24  0  0  0  0  0  0  0  0999 V2000
    0.7472   64.5522   85.4002 C   0  0  0  0  0  0  0  0  0  0  0  0
   -0.2576   63.8627   84.9348 N   0  0  0  0  0  0  0  0  0  0  0  0
   -0.8969   63.0483   85.8694 C   0  0  0  0  0  0  0  0  0  0  0  0
   -1.9660   62.2324   85.6431 N   0  0  0  0  0  0  0  0  0  0  0  0
   -2.2145   61.6708   86.8087 C   0  0  0  0  0  0  0  0  0  0  0  0
   -1.3422   62.0980   87.7746 N   0  0  0  0  0  0  0  0  0  0  0  0
   -0.4974   62.9810   87.1729 C   0  0  0  0  0  0  0  0  0  0  0  0
    0.5884   63.7213   87.6914 C   0  0  0  0  0  0  0  0  0  0  0  0
    0.9747   63.6864   88.8533 O   0  0  0  0  0  0  0  0  0  0  0  0
    1.1706   64.4987   86.7229 N   0  0  0  0  0  0  0  0  0  0  0  0
   -1.3237   61.8167   88.7459 H   0  0  0  0  0  0  0  0  0  0  0  0
    1.9584   65.0611   87.0172 H   0  0  0  0  0  0  0  0  0  0  0  0
    2.8584   65.8596   84.6745 C   0  0  0  0  0  0  0  0  0  0  0  0
    3.4645   66.7183   83.7441 C   0  0  0  0  0  0  0  0  0  0  0  0
    2.7584   67.1874   82.6339 C   0  0  0  0  0  0  0  0  0  0  0  0
    1.4380   66.8062   82.4368 C   0  0  0  0  0  0  0  0  0  0  0  0
    0.8213   65.9536   83.3515 C   0  0  0  0  0  0  0  0  0  0  0  0
    1.5141   65.4685   84.4778 C   0  0  0  0  0  0  0  0  0  0  0  0
    3.5106   65.3723   85.7804 O   0  0  0  0  0  0  0  0  0  0  0  0
    4.9403   65.3374   85.7655 C   0  0  0  0  0  0  0  0  0  0  0  0
    5.5545   65.4784   88.2072 C   0  0  0  0  0  0  0  0  0  0  0  0
    5.4341   66.2347   86.8966 C   0  0  0  0  0  0  0  0  0  0  0  0
 21 22  1  0  0  0
 22 20  1  0  0  0
 20 19  1  0  0  0
 19 13  1  0  0  0
 13 14  2  0  0  0
 14 15  1  0  0  0
 15 16  2  0  0  0
 16 17  1  0  0  0
 17 18  2  0  0  0
 18  1  1  0  0  0
  1  2  2  0  0  0
  2  3  1  0  0  0
  3  4  1  0  0  0
  4  5  2  0  0  0
  5  6  1  0  0  0
  6  7  1  0  0  0
  7  8  1  0  0  0
  8  9  2  0  0  0
  8 10  1  0  0  0
 18 13  1  0  0  0
 10  1  1  0  0  0
  7  3  2  0  0  0
  6 11  1  0  0  0
 10 12  1  0  0  0
M  END
> <minimizedAffinity>
-7.87831

$$$$



 22 24  0  0  0  0  0  0  0  0999 V2000
   -2.2561   61.3434   81.0266 C   0  0  0  0  0  0  0  0  0  0  0  0
   -2.3090   62.1841   80.0305 N   0  0  0  0  0  0  0  0  0  0  0  0
   -2.8640   61.6736   78.8572 C   0  0  0  0  0  0  0  0  0  0  0  0
   -3.0341   62.3396   77.6793 N   0  0  0  0  0  0  0  0  0  0  0  0
   -3.5897   61.4597   76.8714 C   0  0  0  0  0  0  0  0  0  0  0  0
   -3.7819   60.2527   77.4898 N   0  0  0  0  0  0  0  0  0  0  0  0
   -3.3168   60.3893   78.7628 C   0  0  0  0  0  0  0  0  0  0  0  0
   -3.2662   59.4677   79.8323 C   0  0  0  0  0  0  0  0  0  0  0  0
   -3.6623   58.3096   79.7844 O   0  0  0  0  0  0  0  0  0  0  0  0
   -2.7110   60.0323   80.9522 N   0  0  0  0  0  0  0  0  0  0  0  0
   -4.1887   59.4195   77.0860 H   0  0  0  0  0  0  0  0  0  0  0  0
   -2.6398   59.4332   81.7644 H   0  0  0  0  0  0  0  0  0  0  0  0
   -0.3579   61.5033   82.7771 C   0  0  0  0  0  0  0  0  0  0  0  0
    0.0688   61.9720   84.0296 C   0  0  0  0  0  0  0  0  0  0  0  0
   -0.7875   62.7103   84.8498 C   0  0  0  0  0  0  0  0  0  0  0  0
   -2.0813   62.9911   84.4316 C   0  0  0  0  0  0  0  0  0  0  0  0
   -2.5208   62.5331   83.1903 C   0  0  0  0  0  0  0  0  0  0  0  0
   -1.6745   61.7871   82.3470 C   0  0  0  0  0  0  0  0  0  0  0  0
    0.4462   60.7744   81.9358 O   0  0  0  0  0  0  0  0  0  0  0  0
    1.8161   61.1625   81.7998 C   0  0  0  0  0  0  0  0  0  0  0  0
    4.0693   60.0317   81.7433 C   0  0  0  0  0  0  0  0  0  0  0  0
    2.6732   60.0211   82.3391 C   0  0  0  0  0  0  0  0  0  0  0  0
 21 22  1  0  0  0
 22 20  1  0  0  0
 20 19  1  0  0  0
 19 13  1  0  0  0
 13 14  2  0  0  0
 14 15  1  0  0  0
 15 16  2  0  0  0
 16 17  1  0  0  0
 17 18  2  0  0  0
 18  1  1  0  0  0
  1  2  2  0  0  0
  2  3  1  0  0  0
  3  4  1  0  0  0
  4  5  2  0  0  0
  5  6  1  0  0  0
  6  7  1  0  0  0
  7  8  1  0  0  0
  8  9  2  0  0  0
  8 10  1  0  0  0
 18 13  1  0  0  0
 10  1  1  0  0  0
  7  3  2  0  0  0
  6 11  1  0  0  0
 10 12  1  0  0  0
M  END
> <minimizedAffinity>
-7.76200

$$$$



 22 24  0  0  0  0  0  0  0  0999 V2000
    0.5194   64.3837   85.0103 C   0  0  0  0  0  0  0  0  0  0  0  0
    1.0558   64.5639   86.1856 N   0  0  0  0  0  0  0  0  0  0  0  0
    0.5660   63.7307   87.1912 C   0  0  0  0  0  0  0  0  0  0  0  0
    0.9552   63.7154   88.4983 N   0  0  0  0  0  0  0  0  0  0  0  0
    0.2230   62.7736   89.0572 C   0  0  0  0  0  0  0  0  0  0  0  0
   -0.6221   62.1843   88.1545 N   0  0  0  0  0  0  0  0  0  0  0  0
   -0.4026   62.7975   86.9582 C   0  0  0  0  0  0  0  0  0  0  0  0
   -0.9928   62.5907   85.6915 C   0  0  0  0  0  0  0  0  0  0  0  0
   -1.8628   61.7643   85.4454 O   0  0  0  0  0  0  0  0  0  0  0  0
   -0.4676   63.4400   84.7512 N   0  0  0  0  0  0  0  0  0  0  0  0
   -1.2822   61.4394   88.3346 H   0  0  0  0  0  0  0  0  0  0  0  0
   -0.8403   63.3530   83.8147 H   0  0  0  0  0  0  0  0  0  0  0  0
    2.1590   65.9991   83.8294 C   0  0  0  0  0  0  0  0  0  0  0  0
    2.4740   66.7473   82.6841 C   0  0  0  0  0  0  0  0  0  0  0  0
    1.6335   66.7404   81.5684 C   0  0  0  0  0  0  0  0  0  0  0  0
    0.4674   65.9869   81.5802 C   0  0  0  0  0  0  0  0  0  0  0  0
    0.1401   65.2381   82.7097 C   0  0  0  0  0  0  0  0  0  0  0  0
    0.9727   65.2302   83.8457 C   0  0  0  0  0  0  0  0  0  0  0  0
    2.9527   65.9737   84.9497 O   0  0  0  0  0  0  0  0  0  0  0  0
    4.3074   66.4174   84.8329 C   0  0  0  0  0  0  0  0  0  0  0  0
    4.8818   65.0008   86.8384 C   0  0  0  0  0  0  0  0  0  0  0  0
    5.2025   65.3134   85.3881 C   0  0  0  0  0  0  0  0  0  0  0  0
 21 22  1  0  0  0
 22 20  1  0  0  0
 20 19  1  0  0  0
 19 13  1  0  0  0
 13 14  2  0  0  0
 14 15  1  0  0  0
 15 16  2  0  0  0
 16 17  1  0  0  0
 17 18  2  0  0  0
 18  1  1  0  0  0
  1  2  2  0  0  0
  2  3  1  0  0  0
  3  4  1  0  0  0
  4  5  2  0  0  0
  5  6  1  0  0  0
  6  7  1  0  0  0
  7  8  1  0  0  0
  8  9  2  0  0  0
  8 10  1  0  0  0
 18 13  1  0  0  0
 10  1  1  0  0  0
  7  3  2  0  0  0
  6 11  1  0  0  0
 10 12  1  0  0  0
M  END
> <minimizedAffinity>
-7.65485

$$$$



 22 24  0  0  0  0  0  0  0  0999 V2000
   -0.3714   63.0759   82.7409 C   0  0  0  0  0  0  0  0  0  0  0  0
   -1.3290   62.5077   83.4205 N   0  0  0  0  0  0  0  0  0  0  0  0
   -1.8931   61.3837   82.8175 C   0  0  0  0  0  0  0  0  0  0  0  0
   -2.9022   60.6124   83.3143 N   0  0  0  0  0  0  0  0  0  0  0  0
   -3.0921   59.6784   82.4048 C   0  0  0  0  0  0  0  0  0  0  0  0
   -2.2401   59.8235   81.3421 N   0  0  0  0  0  0  0  0  0  0  0  0
   -1.4713   60.9166   81.6062 C   0  0  0  0  0  0  0  0  0  0  0  0
   -0.4361   61.5209   80.8586 C   0  0  0  0  0  0  0  0  0  0  0  0
   -0.0318   61.1303   79.7703 O   0  0  0  0  0  0  0  0  0  0  0  0
    0.0732   62.6172   81.5065 N   0  0  0  0  0  0  0  0  0  0  0  0
   -2.1872   59.2374   80.5195 H   0  0  0  0  0  0  0  0  0  0  0  0
    0.8216   63.1065   81.0332 H   0  0  0  0  0  0  0  0  0  0  0  0
    0.5966   64.5065   84.6668 C   0  0  0  0  0  0  0  0  0  0  0  0
    1.2388   65.6903   85.0626 C   0  0  0  0  0  0  0  0  0  0  0  0
    1.5974   66.6609   84.1242 C   0  0  0  0  0  0  0  0  0  0  0  0
    1.3202   66.4636   82.7781 C   0  0  0  0  0  0  0  0  0  0  0  0
    0.6830   65.2932   82.3684 C   0  0  0  0  0  0  0  0  0  0  0  0
    0.3125   64.3012   83.2971 C   0  0  0  0  0  0  0  0  0  0  0  0
    0.2248   63.5238   85.5511 O   0  0  0  0  0  0  0  0  0  0  0  0
   -0.0601   63.8975   86.9019 C   0  0  0  0  0  0  0  0  0  0  0  0
   -2.4110   63.0647   87.2739 C   0  0  0  0  0  0  0  0  0  0  0  0
   -0.9341   62.8031   87.5074 C   0  0  0  0  0  0  0  0  0  0  0  0
 21 22  1  0  0  0
 22 20  1  0  0  0
 20 19  1  0  0  0
 19 13  1  0  0  0
 13 14  2  0  0  0
 14 15  1  0  0  0
 15 16  2  0  0  0
 16 17  1  0  0  0
 17 18  2  0  0  0
 18  1  1  0  0  0
  1  2  2  0  0  0
  2  3  1  0  0  0
  3  4  1  0  0  0
  4  5  2  0  0  0
  5  6  1  0  0  0
  6  7  1  0  0  0
  7  8  1  0  0  0
  8  9  2  0  0  0
  8 10  1  0  0  0
 18 13  1  0  0  0
 10  1  1  0  0  0
  7  3  2  0  0  0
  6 11  1  0  0  0
 10 12  1  0  0  0
M  END
> <minimizedAffinity>
-7.59920

$$$$
