
     RDKit          3D

 45 48  0  0  0  0  0  0  0  0999 V2000
   -3.7589    3.3437    1.9200 C   0  0  0  0  0  0  0  0  0  0  0  0
   -4.1756    2.3838    0.9576 O   0  0  0  0  0  0  0  0  0  0  0  0
   -3.2791    1.4078    0.6112 C   0  0  0  0  0  0  0  0  0  0  0  0
   -2.0658    1.1783    1.2513 C   0  0  0  0  0  0  0  0  0  0  0  0
   -1.2193    0.1534    0.7998 C   0  0  0  0  0  0  0  0  0  0  0  0
    0.0800   -0.0638    1.4708 C   0  0  0  0  0  0  0  0  0  0  0  0
    0.3851    0.6207    2.4444 O   0  0  0  0  0  0  0  0  0  0  0  0
    0.8829   -1.0581    0.9411 N   0  0  0  0  0  0  0  0  0  0  0  0
    2.1876   -1.3126    1.5328 C   0  0  0  0  0  0  0  0  0  0  0  0
    3.2940   -0.5927    0.7926 C   0  0  0  0  0  0  0  0  0  0  0  0
    3.5233    0.7843    1.0257 C   0  0  0  0  0  0  0  0  0  0  0  0
    4.5266    1.4756    0.3392 C   0  0  0  0  0  0  0  0  0  0  0  0
    5.2804    0.7713   -0.5727 C   0  0  0  0  0  0  0  0  0  0  0  0
    5.0647   -0.5652   -0.8096 C   0  0  0  0  0  0  0  0  0  0  0  0
    4.0836   -1.2745   -0.1485 C   0  0  0  0  0  0  0  0  0  0  0  0
    5.9128   -1.0704   -1.7450 O   0  0  0  0  0  0  0  0  0  0  0  0
    6.6834    0.1049   -2.0742 C   0  0  0  0  0  0  0  0  0  0  0  0
    6.2915    1.2759   -1.3285 O   0  0  0  0  0  0  0  0  0  0  0  0
    0.4693   -1.7970   -0.1358 C   0  0  0  0  0  0  0  0  0  0  0  0
   -0.6626   -1.6615   -0.7358 N   0  0  0  0  0  0  0  0  0  0  0  0
   -1.5557   -0.6713   -0.2820 C   0  0  0  0  0  0  0  0  0  0  0  0
   -2.7954   -0.4587   -0.9140 C   0  0  0  0  0  0  0  0  0  0  0  0
   -3.2551   -1.1543   -2.0089 O   0  0  0  0  0  0  0  0  0  0  0  0
   -2.9998   -2.5535   -2.0118 C   0  0  0  0  0  0  0  0  0  0  0  0
   -3.6397    0.5777   -0.4628 C   0  0  0  0  0  0  0  0  0  0  0  0
   -4.8189    0.8266   -1.1333 O   0  0  0  0  0  0  0  0  0  0  0  0
   -5.8806    0.0749   -0.5483 C   0  0  0  0  0  0  0  0  0  0  0  0
   -3.6243    2.8799    2.9025 H   0  0  0  0  0  0  0  0  0  0  0  0
   -2.8491    3.8613    1.5980 H   0  0  0  0  0  0  0  0  0  0  0  0
   -4.5526    4.0913    2.0116 H   0  0  0  0  0  0  0  0  0  0  0  0
   -1.7458    1.7820    2.0950 H   0  0  0  0  0  0  0  0  0  0  0  0
    2.1984   -1.0118    2.5872 H   0  0  0  0  0  0  0  0  0  0  0  0
    2.3760   -2.3935    1.5149 H   0  0  0  0  0  0  0  0  0  0  0  0
    2.9115    1.3239    1.7487 H   0  0  0  0  0  0  0  0  0  0  0  0
    4.7036    2.5306    0.5158 H   0  0  0  0  0  0  0  0  0  0  0  0
    3.9408   -2.3283   -0.3626 H   0  0  0  0  0  0  0  0  0  0  0  0
    6.5644    0.3137   -3.1437 H   0  0  0  0  0  0  0  0  0  0  0  0
    7.7407   -0.1019   -1.8719 H   0  0  0  0  0  0  0  0  0  0  0  0
    1.1867   -2.5590   -0.4801 H   0  0  0  0  0  0  0  0  0  0  0  0
   -3.7907   -3.0304   -2.5995 H   0  0  0  0  0  0  0  0  0  0  0  0
   -2.0514   -2.7685   -2.5122 H   0  0  0  0  0  0  0  0  0  0  0  0
   -3.0324   -2.9903   -1.0075 H   0  0  0  0  0  0  0  0  0  0  0  0
   -5.6940   -1.0022   -0.6185 H   0  0  0  0  0  0  0  0  0  0  0  0
   -6.0462    0.3625    0.4956 H   0  0  0  0  0  0  0  0  0  0  0  0
   -6.7945    0.2957   -1.1077 H   0  0  0  0  0  0  0  0  0  0  0  0
  1  2  1  0
  2  3  1  0
  3  4  2  0
  4  5  1  0
  5  6  1  0
  6  7  2  0
  6  8  1  0
  8  9  1  0
  9 10  1  0
 10 11  1  0
 11 12  2  0
 12 13  1  0
 13 14  2  0
 14 15  1  0
 14 16  1  0
 16 17  1  0
 17 18  1  0
  8 19  1  0
 19 20  2  0
 20 21  1  0
 21 22  1  0
 22 23  1  0
 23 24  1  0
 22 25  2  0
 25 26  1  0
 26 27  1  0
 25  3  1  0
 21  5  2  0
 15 10  2  0
 18 13  1  0
  1 28  1  0
  1 29  1  0
  1 30  1  0
  4 31  1  0
  9 32  1  0
  9 33  1  0
 11 34  1  0
 12 35  1  0
 15 36  1  0
 17 37  1  0
 17 38  1  0
 19 39  1  0
 24 40  1  0
 24 41  1  0
 24 42  1  0
 27 43  1  0
 27 44  1  0
 27 45  1  0
M  END
$$$$
