


 34 37  0  0  0  0  0  0  0  0999 V2000
   -0.3147   61.9821   82.3094 N   0  0  0  0  0  0  0  0  0  0  0  0
    0.4141   61.2991   82.4615 H   0  0  0  0  0  0  0  0  0  0  0  0
    0.6661   64.6166   84.4527 C   0  0  0  0  0  0  0  0  0  0  0  0
    0.2286   63.4250   84.0173 N   0  0  0  0  0  0  0  0  0  0  0  0
    0.1659   63.2327   82.6929 C   0  0  0  0  0  0  0  0  0  0  0  0
    0.5015   64.1637   81.7928 N   0  0  0  0  0  0  0  0  0  0  0  0
    0.9651   65.3374   82.2339 C   0  0  0  0  0  0  0  0  0  0  0  0
    1.3497   66.2998   81.3069 C   0  0  0  0  0  0  0  0  0  0  0  0
    1.8667   67.5392   81.6969 C   0  0  0  0  0  0  0  0  0  0  0  0
    2.0136   67.8304   83.0461 C   0  0  0  0  0  0  0  0  0  0  0  0
    1.6304   66.8834   83.9919 C   0  0  0  0  0  0  0  0  0  0  0  0
    1.0871   65.6361   83.5912 C   0  0  0  0  0  0  0  0  0  0  0  0
    0.6684   64.7604   85.8559 N   0  0  0  0  0  0  0  0  0  0  0  0
    1.6449   64.9910   86.0496 H   0  0  0  0  0  0  0  0  0  0  0  0
    0.3694   63.4874   86.5271 C   0  0  0  0  0  0  0  0  0  0  0  0
    0.2376   63.0225   89.0243 C   0  0  0  0  0  0  0  0  0  0  0  0
   -0.4183   63.7177   87.8301 C   0  0  0  0  0  0  0  0  0  0  0  0
   -1.8857   63.3052   87.7054 C   0  0  0  0  0  0  0  0  0  0  0  0
   -1.4406   61.5547   81.5974 C   0  0  0  0  0  0  0  0  0  0  0  0
   -2.7315   61.4982   82.1361 C   0  0  0  0  0  0  0  0  0  0  0  0
   -3.8196   61.0382   81.3839 C   0  0  0  0  0  0  0  0  0  0  0  0
   -3.6300   60.5936   80.0800 C   0  0  0  0  0  0  0  0  0  0  0  0
   -2.3420   60.5928   79.5457 C   0  0  0  0  0  0  0  0  0  0  0  0
   -1.2614   61.0886   80.2866 C   0  0  0  0  0  0  0  0  0  0  0  0
   -2.0758   60.0218   77.8806 S   0  0  0  0  0  0  0  0  0  0  0  0
   -3.3634   59.6248   77.3496 O   0  0  0  0  0  0  0  0  0  0  0  0
   -0.9626   59.0969   77.9134 O   0  0  0  0  0  0  0  0  0  0  0  0
   -1.5810   61.4157   77.0610 N   0  0  0  0  0  0  0  0  0  0  0  0
   -2.3673   62.6586   77.2915 C   0  0  0  0  0  0  0  0  0  0  0  0
   -1.6863   63.8757   76.6371 C   0  0  0  0  0  0  0  0  0  0  0  0
   -0.3133   64.1420   77.1139 N   0  0  0  0  0  0  0  0  0  0  0  0
   -0.2829   65.1734   78.1480 C   0  0  0  0  0  0  0  0  0  0  0  0
    0.3524   62.9103   77.5874 C   0  0  0  0  0  0  0  0  0  0  0  0
   -0.1213   61.6383   76.8599 C   0  0  0  0  0  0  0  0  0  0  0  0
 16 17  1  0  0  0
 17 18  1  0  0  0
 17 15  1  0  0  0
 15 13  1  0  0  0
 13  3  1  0  0  0
  3  4  1  0  0  0
  4  5  2  0  0  0
  5  1  1  0  0  0
  1 19  1  0  0  0
 19 20  1  0  0  0
 20 21  2  0  0  0
 21 22  1  0  0  0
 22 23  2  0  0  0
 23 25  1  0  0  0
 25 26  2  0  0  0
 25 27  2  0  0  0
 25 28  1  0  0  0
 28 29  1  0  0  0
 29 30  1  0  0  0
 30 31  1  0  0  0
 31 32  1  0  0  0
 31 33  1  0  0  0
 33 34  1  0  0  0
 23 24  1  0  0  0
  5  6  1  0  0  0
  6  7  2  0  0  0
  7  8  1  0  0  0
  8  9  2  0  0  0
  9 10  1  0  0  0
 10 11  2  0  0  0
 11 12  1  0  0  0
 12  3  2  0  0  0
 24 19  2  0  0  0
 12  7  1  0  0  0
 34 28  1  0  0  0
 13 14  1  0  0  0
  1  2  1  0  0  0
M  END
> <minimizedAffinity>
-10.34060

$$$$



 34 37  0  0  0  0  0  0  0  0999 V2000
   -0.5661   61.7473   82.3500 N   0  0  0  0  0  0  0  0  0  0  0  0
    0.3480   61.6176   81.9397 H   0  0  0  0  0  0  0  0  0  0  0  0
    0.3085   64.2453   84.6932 C   0  0  0  0  0  0  0  0  0  0  0  0
    0.1148   63.5996   83.5329 N   0  0  0  0  0  0  0  0  0  0  0  0
   -0.4098   62.3680   83.5878 C   0  0  0  0  0  0  0  0  0  0  0  0
   -0.7343   61.7516   84.7300 N   0  0  0  0  0  0  0  0  0  0  0  0
   -0.5668   62.4128   85.8796 C   0  0  0  0  0  0  0  0  0  0  0  0
   -0.9333   61.7950   87.0702 C   0  0  0  0  0  0  0  0  0  0  0  0
   -0.8094   62.4366   88.3065 C   0  0  0  0  0  0  0  0  0  0  0  0
   -0.3142   63.7321   88.3635 C   0  0  0  0  0  0  0  0  0  0  0  0
    0.0635   64.3683   87.1842 C   0  0  0  0  0  0  0  0  0  0  0  0
   -0.0447   63.7053   85.9351 C   0  0  0  0  0  0  0  0  0  0  0  0
    0.8992   65.5194   84.5605 N   0  0  0  0  0  0  0  0  0  0  0  0
    0.2115   66.1263   85.0111 H   0  0  0  0  0  0  0  0  0  0  0  0
    0.9946   65.9234   83.1506 C   0  0  0  0  0  0  0  0  0  0  0  0
    2.4414   67.6944   84.2641 C   0  0  0  0  0  0  0  0  0  0  0  0
    2.0821   66.9954   82.9519 C   0  0  0  0  0  0  0  0  0  0  0  0
    1.7027   68.0199   81.8816 C   0  0  0  0  0  0  0  0  0  0  0  0
   -1.6683   61.4945   81.5263 C   0  0  0  0  0  0  0  0  0  0  0  0
   -2.9993   61.6502   81.9314 C   0  0  0  0  0  0  0  0  0  0  0  0
   -4.0656   61.3589   81.0714 C   0  0  0  0  0  0  0  0  0  0  0  0
   -3.8190   60.8730   79.7919 C   0  0  0  0  0  0  0  0  0  0  0  0
   -2.5005   60.6612   79.3908 C   0  0  0  0  0  0  0  0  0  0  0  0
   -1.4348   60.9890   80.2388 C   0  0  0  0  0  0  0  0  0  0  0  0
   -2.1626   60.0338   77.7593 S   0  0  0  0  0  0  0  0  0  0  0  0
   -3.4302   59.6490   77.1740 O   0  0  0  0  0  0  0  0  0  0  0  0
   -1.0745   59.0863   77.8772 O   0  0  0  0  0  0  0  0  0  0  0  0
   -1.5939   61.3908   76.9258 N   0  0  0  0  0  0  0  0  0  0  0  0
   -2.3761   62.6505   77.0579 C   0  0  0  0  0  0  0  0  0  0  0  0
   -1.6352   63.8346   76.4082 C   0  0  0  0  0  0  0  0  0  0  0  0
   -0.2938   64.1020   76.9671 N   0  0  0  0  0  0  0  0  0  0  0  0
   -0.3183   65.1701   77.9634 C   0  0  0  0  0  0  0  0  0  0  0  0
    0.3209   62.8807   77.5284 C   0  0  0  0  0  0  0  0  0  0  0  0
   -0.1209   61.5886   76.8163 C   0  0  0  0  0  0  0  0  0  0  0  0
 16 17  1  0  0  0
 17 18  1  0  0  0
 17 15  1  0  0  0
 15 13  1  0  0  0
 13  3  1  0  0  0
  3  4  1  0  0  0
  4  5  2  0  0  0
  5  1  1  0  0  0
  1 19  1  0  0  0
 19 20  1  0  0  0
 20 21  2  0  0  0
 21 22  1  0  0  0
 22 23  2  0  0  0
 23 25  1  0  0  0
 25 26  2  0  0  0
 25 27  2  0  0  0
 25 28  1  0  0  0
 28 29  1  0  0  0
 29 30  1  0  0  0
 30 31  1  0  0  0
 31 32  1  0  0  0
 31 33  1  0  0  0
 33 34  1  0  0  0
 23 24  1  0  0  0
  5  6  1  0  0  0
  6  7  2  0  0  0
  7  8  1  0  0  0
  8  9  2  0  0  0
  9 10  1  0  0  0
 10 11  2  0  0  0
 11 12  1  0  0  0
 12  3  2  0  0  0
 24 19  2  0  0  0
 12  7  1  0  0  0
 34 28  1  0  0  0
 13 14  1  0  0  0
  1  2  1  0  0  0
M  END
> <minimizedAffinity>
-10.23439

$$$$



 34 37  0  0  0  0  0  0  0  0999 V2000
    0.9000   65.7636   84.4940 N   0  0  0  0  0  0  0  0  0  0  0  0
    0.2883   66.5532   84.6463 H   0  0  0  0  0  0  0  0  0  0  0  0
    3.6291   67.9325   83.9078 C   0  0  0  0  0  0  0  0  0  0  0  0
    2.3814   67.4415   83.9608 N   0  0  0  0  0  0  0  0  0  0  0  0
    2.2165   66.2206   84.4875 C   0  0  0  0  0  0  0  0  0  0  0  0
    3.2242   65.4697   84.9459 N   0  0  0  0  0  0  0  0  0  0  0  0
    4.4603   65.9778   84.9177 C   0  0  0  0  0  0  0  0  0  0  0  0
    5.5106   65.2199   85.4236 C   0  0  0  0  0  0  0  0  0  0  0  0
    6.8244   65.6982   85.4491 C   0  0  0  0  0  0  0  0  0  0  0  0
    7.1041   66.9688   84.9651 C   0  0  0  0  0  0  0  0  0  0  0  0
    6.0687   67.7433   84.4494 C   0  0  0  0  0  0  0  0  0  0  0  0
    4.7415   67.2452   84.4068 C   0  0  0  0  0  0  0  0  0  0  0  0
    3.7307   69.2044   83.3063 N   0  0  0  0  0  0  0  0  0  0  0  0
    3.9031   69.8121   84.1096 H   0  0  0  0  0  0  0  0  0  0  0  0
    2.4561   69.6161   82.7012 C   0  0  0  0  0  0  0  0  0  0  0  0
    2.1705   68.6469   80.3670 C   0  0  0  0  0  0  0  0  0  0  0  0
    2.6117   69.8593   81.1886 C   0  0  0  0  0  0  0  0  0  0  0  0
    4.0321   70.2801   80.8085 C   0  0  0  0  0  0  0  0  0  0  0  0
    0.3167   64.4935   84.5545 C   0  0  0  0  0  0  0  0  0  0  0  0
   -0.1869   63.9193   85.7278 C   0  0  0  0  0  0  0  0  0  0  0  0
   -0.7389   62.6322   85.7350 C   0  0  0  0  0  0  0  0  0  0  0  0
   -0.7692   61.8781   84.5669 C   0  0  0  0  0  0  0  0  0  0  0  0
   -0.2234   62.4138   83.4010 C   0  0  0  0  0  0  0  0  0  0  0  0
    0.2938   63.7156   83.3874 C   0  0  0  0  0  0  0  0  0  0  0  0
   -0.2460   61.4630   81.8960 S   0  0  0  0  0  0  0  0  0  0  0  0
   -1.3080   60.4859   82.0190 O   0  0  0  0  0  0  0  0  0  0  0  0
    1.1159   61.0571   81.6205 O   0  0  0  0  0  0  0  0  0  0  0  0
   -0.7086   62.5913   80.7246 N   0  0  0  0  0  0  0  0  0  0  0  0
    0.3198   63.0042   79.7306 C   0  0  0  0  0  0  0  0  0  0  0  0
   -0.2984   63.8775   78.6223 C   0  0  0  0  0  0  0  0  0  0  0  0
   -1.3901   63.2297   77.8662 N   0  0  0  0  0  0  0  0  0  0  0  0
   -0.9192   62.6537   76.6089 C   0  0  0  0  0  0  0  0  0  0  0  0
   -2.0895   62.2101   78.6759 C   0  0  0  0  0  0  0  0  0  0  0  0
   -2.0956   62.5225   80.1839 C   0  0  0  0  0  0  0  0  0  0  0  0
 16 17  1  0  0  0
 17 18  1  0  0  0
 17 15  1  0  0  0
 15 13  1  0  0  0
 13  3  1  0  0  0
  3  4  1  0  0  0
  4  5  2  0  0  0
  5  1  1  0  0  0
  1 19  1  0  0  0
 19 20  1  0  0  0
 20 21  2  0  0  0
 21 22  1  0  0  0
 22 23  2  0  0  0
 23 25  1  0  0  0
 25 26  2  0  0  0
 25 27  2  0  0  0
 25 28  1  0  0  0
 28 29  1  0  0  0
 29 30  1  0  0  0
 30 31  1  0  0  0
 31 32  1  0  0  0
 31 33  1  0  0  0
 33 34  1  0  0  0
 23 24  1  0  0  0
  5  6  1  0  0  0
  6  7  2  0  0  0
  7  8  1  0  0  0
  8  9  2  0  0  0
  9 10  1  0  0  0
 10 11  2  0  0  0
 11 12  1  0  0  0
 12  3  2  0  0  0
 24 19  2  0  0  0
 12  7  1  0  0  0
 34 28  1  0  0  0
 13 14  1  0  0  0
  1  2  1  0  0  0
M  END
> <minimizedAffinity>
-9.91218

$$$$



 34 37  0  0  0  0  0  0  0  0999 V2000
    0.6767   65.5372   84.5844 N   0  0  0  0  0  0  0  0  0  0  0  0
    0.0854   66.0903   85.1888 H   0  0  0  0  0  0  0  0  0  0  0  0
    3.2379   67.9383   84.1704 C   0  0  0  0  0  0  0  0  0  0  0  0
    2.0279   67.3584   84.1951 N   0  0  0  0  0  0  0  0  0  0  0  0
    1.9586   66.0835   84.6014 C   0  0  0  0  0  0  0  0  0  0  0  0
    3.0254   65.3639   84.9670 N   0  0  0  0  0  0  0  0  0  0  0  0
    4.2231   65.9575   84.9688 C   0  0  0  0  0  0  0  0  0  0  0  0
    5.3339   65.2293   85.3802 C   0  0  0  0  0  0  0  0  0  0  0  0
    6.6124   65.7935   85.4313 C   0  0  0  0  0  0  0  0  0  0  0  0
    6.7938   67.1215   85.0705 C   0  0  0  0  0  0  0  0  0  0  0  0
    5.6965   67.8683   84.6507 C   0  0  0  0  0  0  0  0  0  0  0  0
    4.4056   67.2851   84.5809 C   0  0  0  0  0  0  0  0  0  0  0  0
    3.2388   69.2666   83.6957 N   0  0  0  0  0  0  0  0  0  0  0  0
    3.1258   69.8056   84.5565 H   0  0  0  0  0  0  0  0  0  0  0  0
    2.0702   69.5343   82.8454 C   0  0  0  0  0  0  0  0  0  0  0  0
    2.2058   68.3880   80.5788 C   0  0  0  0  0  0  0  0  0  0  0  0
    2.4783   69.6704   81.3667 C   0  0  0  0  0  0  0  0  0  0  0  0
    3.9351   70.1055   81.2012 C   0  0  0  0  0  0  0  0  0  0  0  0
    0.1440   64.3332   84.1112 C   0  0  0  0  0  0  0  0  0  0  0  0
   -0.4518   63.3665   84.9299 C   0  0  0  0  0  0  0  0  0  0  0  0
   -0.9474   62.1665   84.4048 C   0  0  0  0  0  0  0  0  0  0  0  0
   -0.8271   61.8956   83.0460 C   0  0  0  0  0  0  0  0  0  0  0  0
   -0.1885   62.8240   82.2247 C   0  0  0  0  0  0  0  0  0  0  0  0
    0.2724   64.0400   82.7455 C   0  0  0  0  0  0  0  0  0  0  0  0
   -0.0181   62.4944   80.4835 S   0  0  0  0  0  0  0  0  0  0  0  0
    0.9219   61.4018   80.3412 O   0  0  0  0  0  0  0  0  0  0  0  0
    0.2040   63.7633   79.8230 O   0  0  0  0  0  0  0  0  0  0  0  0
   -1.5479   61.9275   80.0387 N   0  0  0  0  0  0  0  0  0  0  0  0
   -2.2365   62.6272   78.9196 C   0  0  0  0  0  0  0  0  0  0  0  0
   -3.5198   61.8826   78.5052 C   0  0  0  0  0  0  0  0  0  0  0  0
   -3.3077   60.4859   78.0721 N   0  0  0  0  0  0  0  0  0  0  0  0
   -3.2367   60.3681   76.6177 C   0  0  0  0  0  0  0  0  0  0  0  0
   -2.1097   59.8915   78.7015 C   0  0  0  0  0  0  0  0  0  0  0  0
   -1.8048   60.4609   80.0995 C   0  0  0  0  0  0  0  0  0  0  0  0
 16 17  1  0  0  0
 17 18  1  0  0  0
 17 15  1  0  0  0
 15 13  1  0  0  0
 13  3  1  0  0  0
  3  4  1  0  0  0
  4  5  2  0  0  0
  5  1  1  0  0  0
  1 19  1  0  0  0
 19 20  1  0  0  0
 20 21  2  0  0  0
 21 22  1  0  0  0
 22 23  2  0  0  0
 23 25  1  0  0  0
 25 26  2  0  0  0
 25 27  2  0  0  0
 25 28  1  0  0  0
 28 29  1  0  0  0
 29 30  1  0  0  0
 30 31  1  0  0  0
 31 32  1  0  0  0
 31 33  1  0  0  0
 33 34  1  0  0  0
 23 24  1  0  0  0
  5  6  1  0  0  0
  6  7  2  0  0  0
  7  8  1  0  0  0
  8  9  2  0  0  0
  9 10  1  0  0  0
 10 11  2  0  0  0
 11 12  1  0  0  0
 12  3  2  0  0  0
 24 19  2  0  0  0
 12  7  1  0  0  0
 34 28  1  0  0  0
 13 14  1  0  0  0
  1  2  1  0  0  0
M  END
> <minimizedAffinity>
-9.81199

$$$$



 34 37  0  0  0  0  0  0  0  0999 V2000
   -1.4006   62.7932   82.9654 N   0  0  0  0  0  0  0  0  0  0  0  0
   -2.3549   62.4792   83.0726 H   0  0  0  0  0  0  0  0  0  0  0  0
    0.4883   64.3549   85.5128 C   0  0  0  0  0  0  0  0  0  0  0  0
   -0.0745   64.0944   84.3228 N   0  0  0  0  0  0  0  0  0  0  0  0
   -0.8648   63.0162   84.2323 C   0  0  0  0  0  0  0  0  0  0  0  0
   -1.1075   62.1883   85.2547 N   0  0  0  0  0  0  0  0  0  0  0  0
   -0.5678   62.4712   86.4445 C   0  0  0  0  0  0  0  0  0  0  0  0
   -0.8416   61.6367   87.5226 C   0  0  0  0  0  0  0  0  0  0  0  0
   -0.3318   61.8861   88.8006 C   0  0  0  0  0  0  0  0  0  0  0  0
    0.4674   63.0000   89.0180 C   0  0  0  0  0  0  0  0  0  0  0  0
    0.7585   63.8466   87.9519 C   0  0  0  0  0  0  0  0  0  0  0  0
    0.2560   63.5776   86.6532 C   0  0  0  0  0  0  0  0  0  0  0  0
    1.3370   65.4815   85.5229 N   0  0  0  0  0  0  0  0  0  0  0  0
    0.6840   66.2445   85.7117 H   0  0  0  0  0  0  0  0  0  0  0  0
    1.9301   65.7196   84.1993 C   0  0  0  0  0  0  0  0  0  0  0  0
    4.2015   65.6484   85.3420 C   0  0  0  0  0  0  0  0  0  0  0  0
    3.3200   66.3711   84.3220 C   0  0  0  0  0  0  0  0  0  0  0  0
    3.2380   67.8643   84.6424 C   0  0  0  0  0  0  0  0  0  0  0  0
   -0.8487   62.7061   81.6828 C   0  0  0  0  0  0  0  0  0  0  0  0
   -0.5055   61.5006   81.0593 C   0  0  0  0  0  0  0  0  0  0  0  0
    0.0674   61.4737   79.7817 C   0  0  0  0  0  0  0  0  0  0  0  0
    0.3384   62.6621   79.1121 C   0  0  0  0  0  0  0  0  0  0  0  0
    0.0524   63.8735   79.7405 C   0  0  0  0  0  0  0  0  0  0  0  0
   -0.5554   63.8972   81.0024 C   0  0  0  0  0  0  0  0  0  0  0  0
    0.3973   65.4067   78.9039 S   0  0  0  0  0  0  0  0  0  0  0  0
   -0.6675   65.6248   77.9467 O   0  0  0  0  0  0  0  0  0  0  0  0
    1.7828   65.3691   78.4861 O   0  0  0  0  0  0  0  0  0  0  0  0
    0.2450   66.5650   80.1264 N   0  0  0  0  0  0  0  0  0  0  0  0
    1.4995   67.0683   80.7502 C   0  0  0  0  0  0  0  0  0  0  0  0
    1.2133   68.2477   81.6991 C   0  0  0  0  0  0  0  0  0  0  0  0
    0.5575   69.4067   81.0590 N   0  0  0  0  0  0  0  0  0  0  0  0
    1.5172   70.4445   80.6902 C   0  0  0  0  0  0  0  0  0  0  0  0
   -0.2492   69.0039   79.8878 C   0  0  0  0  0  0  0  0  0  0  0  0
   -0.8351   67.5845   80.0053 C   0  0  0  0  0  0  0  0  0  0  0  0
 16 17  1  0  0  0
 17 18  1  0  0  0
 17 15  1  0  0  0
 15 13  1  0  0  0
 13  3  1  0  0  0
  3  4  1  0  0  0
  4  5  2  0  0  0
  5  1  1  0  0  0
  1 19  1  0  0  0
 19 20  1  0  0  0
 20 21  2  0  0  0
 21 22  1  0  0  0
 22 23  2  0  0  0
 23 25  1  0  0  0
 25 26  2  0  0  0
 25 27  2  0  0  0
 25 28  1  0  0  0
 28 29  1  0  0  0
 29 30  1  0  0  0
 30 31  1  0  0  0
 31 32  1  0  0  0
 31 33  1  0  0  0
 33 34  1  0  0  0
 23 24  1  0  0  0
  5  6  1  0  0  0
  6  7  2  0  0  0
  7  8  1  0  0  0
  8  9  2  0  0  0
  9 10  1  0  0  0
 10 11  2  0  0  0
 11 12  1  0  0  0
 12  3  2  0  0  0
 24 19  2  0  0  0
 12  7  1  0  0  0
 34 28  1  0  0  0
 13 14  1  0  0  0
  1  2  1  0  0  0
M  END
> <minimizedAffinity>
-9.66164

$$$$



 34 37  0  0  0  0  0  0  0  0999 V2000
   -0.5797   64.6852   80.9859 N   0  0  0  0  0  0  0  0  0  0  0  0
   -1.2528   65.4276   80.8570 H   0  0  0  0  0  0  0  0  0  0  0  0
    0.8506   65.4703   84.1219 C   0  0  0  0  0  0  0  0  0  0  0  0
    0.5227   65.5268   82.8218 N   0  0  0  0  0  0  0  0  0  0  0  0
   -0.2958   64.5787   82.3461 C   0  0  0  0  0  0  0  0  0  0  0  0
   -0.7864   63.5819   83.0913 N   0  0  0  0  0  0  0  0  0  0  0  0
   -0.4797   63.5496   84.3920 C   0  0  0  0  0  0  0  0  0  0  0  0
   -1.0122   62.5378   85.1834 C   0  0  0  0  0  0  0  0  0  0  0  0
   -0.7544   62.4572   86.5555 C   0  0  0  0  0  0  0  0  0  0  0  0
    0.0495   63.4122   87.1624 C   0  0  0  0  0  0  0  0  0  0  0  0
    0.5973   64.4315   86.3884 C   0  0  0  0  0  0  0  0  0  0  0  0
    0.3495   64.4966   84.9935 C   0  0  0  0  0  0  0  0  0  0  0  0
    1.7451   66.4765   84.5425 N   0  0  0  0  0  0  0  0  0  0  0  0
    1.1802   67.3230   84.4493 H   0  0  0  0  0  0  0  0  0  0  0  0
    2.8865   66.5990   83.6245 C   0  0  0  0  0  0  0  0  0  0  0  0
    4.3504   65.5490   85.4201 C   0  0  0  0  0  0  0  0  0  0  0  0
    4.2157   66.6789   84.3979 C   0  0  0  0  0  0  0  0  0  0  0  0
    4.4204   68.0387   85.0673 C   0  0  0  0  0  0  0  0  0  0  0  0
   -0.3100   63.8789   79.8749 C   0  0  0  0  0  0  0  0  0  0  0  0
    0.9601   63.7328   79.3046 C   0  0  0  0  0  0  0  0  0  0  0  0
    1.1683   62.9301   78.1760 C   0  0  0  0  0  0  0  0  0  0  0  0
    0.0970   62.2791   77.5739 C   0  0  0  0  0  0  0  0  0  0  0  0
   -1.1833   62.4564   78.0969 C   0  0  0  0  0  0  0  0  0  0  0  0
   -1.3836   63.2291   79.2481 C   0  0  0  0  0  0  0  0  0  0  0  0
   -2.5698   61.6374   77.3378 S   0  0  0  0  0  0  0  0  0  0  0  0
   -2.0386   60.6615   76.4088 O   0  0  0  0  0  0  0  0  0  0  0  0
   -3.4912   62.6640   76.8989 O   0  0  0  0  0  0  0  0  0  0  0  0
   -3.2837   60.8003   78.6220 N   0  0  0  0  0  0  0  0  0  0  0  0
   -2.4270   59.8411   79.3720 C   0  0  0  0  0  0  0  0  0  0  0  0
   -3.1538   59.3071   80.6209 C   0  0  0  0  0  0  0  0  0  0  0  0
   -3.5731   60.3491   81.5809 N   0  0  0  0  0  0  0  0  0  0  0  0
   -2.6207   60.4980   82.6786 C   0  0  0  0  0  0  0  0  0  0  0  0
   -3.8068   61.6477   80.9149 C   0  0  0  0  0  0  0  0  0  0  0  0
   -4.2902   61.5122   79.4590 C   0  0  0  0  0  0  0  0  0  0  0  0
 16 17  1  0  0  0
 17 18  1  0  0  0
 17 15  1  0  0  0
 15 13  1  0  0  0
 13  3  1  0  0  0
  3  4  1  0  0  0
  4  5  2  0  0  0
  5  1  1  0  0  0
  1 19  1  0  0  0
 19 20  1  0  0  0
 20 21  2  0  0  0
 21 22  1  0  0  0
 22 23  2  0  0  0
 23 25  1  0  0  0
 25 26  2  0  0  0
 25 27  2  0  0  0
 25 28  1  0  0  0
 28 29  1  0  0  0
 29 30  1  0  0  0
 30 31  1  0  0  0
 31 32  1  0  0  0
 31 33  1  0  0  0
 33 34  1  0  0  0
 23 24  1  0  0  0
  5  6  1  0  0  0
  6  7  2  0  0  0
  7  8  1  0  0  0
  8  9  2  0  0  0
  9 10  1  0  0  0
 10 11  2  0  0  0
 11 12  1  0  0  0
 12  3  2  0  0  0
 24 19  2  0  0  0
 12  7  1  0  0  0
 34 28  1  0  0  0
 13 14  1  0  0  0
  1  2  1  0  0  0
M  END
> <minimizedAffinity>
-9.64138

$$$$



 34 37  0  0  0  0  0  0  0  0999 V2000
   -0.4134   64.7404   82.7530 N   0  0  0  0  0  0  0  0  0  0  0  0
   -1.3816   64.4628   82.6737 H   0  0  0  0  0  0  0  0  0  0  0  0
    1.6970   64.7339   85.5889 C   0  0  0  0  0  0  0  0  0  0  0  0
    1.2118   64.9853   84.3632 N   0  0  0  0  0  0  0  0  0  0  0  0
    0.0222   64.4567   84.0459 C   0  0  0  0  0  0  0  0  0  0  0  0
   -0.6917   63.6883   84.8763 N   0  0  0  0  0  0  0  0  0  0  0  0
   -0.2162   63.4674   86.1059 C   0  0  0  0  0  0  0  0  0  0  0  0
   -0.9665   62.6989   86.9890 C   0  0  0  0  0  0  0  0  0  0  0  0
   -0.5425   62.4484   88.2978 C   0  0  0  0  0  0  0  0  0  0  0  0
    0.6578   62.9818   88.7468 C   0  0  0  0  0  0  0  0  0  0  0  0
    1.4277   63.7503   87.8780 C   0  0  0  0  0  0  0  0  0  0  0  0
    1.0031   63.9838   86.5452 C   0  0  0  0  0  0  0  0  0  0  0  0
    2.9693   65.2896   85.8381 N   0  0  0  0  0  0  0  0  0  0  0  0
    2.7817   65.9219   86.6187 H   0  0  0  0  0  0  0  0  0  0  0  0
    3.4313   66.1044   84.7054 C   0  0  0  0  0  0  0  0  0  0  0  0
    5.6073   65.1616   85.6250 C   0  0  0  0  0  0  0  0  0  0  0  0
    4.9692   66.1379   84.6354 C   0  0  0  0  0  0  0  0  0  0  0  0
    5.5315   67.5469   84.8296 C   0  0  0  0  0  0  0  0  0  0  0  0
    0.2396   65.0954   81.5678 C   0  0  0  0  0  0  0  0  0  0  0  0
    1.0910   66.1999   81.4447 C   0  0  0  0  0  0  0  0  0  0  0  0
    1.7000   66.5231   80.2256 C   0  0  0  0  0  0  0  0  0  0  0  0
    1.4422   65.7605   79.0916 C   0  0  0  0  0  0  0  0  0  0  0  0
    0.5549   64.6888   79.1839 C   0  0  0  0  0  0  0  0  0  0  0  0
   -0.0235   64.3445   80.4125 C   0  0  0  0  0  0  0  0  0  0  0  0
    0.2058   63.7033   77.7430 S   0  0  0  0  0  0  0  0  0  0  0  0
    1.3341   62.8178   77.5423 O   0  0  0  0  0  0  0  0  0  0  0  0
   -0.2331   64.6046   76.6986 O   0  0  0  0  0  0  0  0  0  0  0  0
   -1.1164   62.7633   78.2201 N   0  0  0  0  0  0  0  0  0  0  0  0
   -2.3629   62.8792   77.4143 C   0  0  0  0  0  0  0  0  0  0  0  0
   -3.4035   61.8293   77.8474 C   0  0  0  0  0  0  0  0  0  0  0  0
   -2.9477   60.4284   77.7334 N   0  0  0  0  0  0  0  0  0  0  0  0
   -3.4066   59.8019   76.4959 C   0  0  0  0  0  0  0  0  0  0  0  0
   -1.4795   60.3163   77.8601 C   0  0  0  0  0  0  0  0  0  0  0  0
   -0.8570   61.3992   78.7610 C   0  0  0  0  0  0  0  0  0  0  0  0
 16 17  1  0  0  0
 17 18  1  0  0  0
 17 15  1  0  0  0
 15 13  1  0  0  0
 13  3  1  0  0  0
  3  4  1  0  0  0
  4  5  2  0  0  0
  5  1  1  0  0  0
  1 19  1  0  0  0
 19 20  1  0  0  0
 20 21  2  0  0  0
 21 22  1  0  0  0
 22 23  2  0  0  0
 23 25  1  0  0  0
 25 26  2  0  0  0
 25 27  2  0  0  0
 25 28  1  0  0  0
 28 29  1  0  0  0
 29 30  1  0  0  0
 30 31  1  0  0  0
 31 32  1  0  0  0
 31 33  1  0  0  0
 33 34  1  0  0  0
 23 24  1  0  0  0
  5  6  1  0  0  0
  6  7  2  0  0  0
  7  8  1  0  0  0
  8  9  2  0  0  0
  9 10  1  0  0  0
 10 11  2  0  0  0
 11 12  1  0  0  0
 12  3  2  0  0  0
 24 19  2  0  0  0
 12  7  1  0  0  0
 34 28  1  0  0  0
 13 14  1  0  0  0
  1  2  1  0  0  0
M  END
> <minimizedAffinity>
-9.64121

$$$$



 34 37  0  0  0  0  0  0  0  0999 V2000
    1.0863   64.8748   82.9093 N   0  0  0  0  0  0  0  0  0  0  0  0
    2.0233   65.1356   83.1828 H   0  0  0  0  0  0  0  0  0  0  0  0
   -1.1149   62.6965   84.6139 C   0  0  0  0  0  0  0  0  0  0  0  0
   -0.4806   63.3515   83.6293 N   0  0  0  0  0  0  0  0  0  0  0  0
    0.4826   64.2151   83.9781 C   0  0  0  0  0  0  0  0  0  0  0  0
    0.8305   64.4638   85.2456 N   0  0  0  0  0  0  0  0  0  0  0  0
    0.2153   63.7852   86.2192 C   0  0  0  0  0  0  0  0  0  0  0  0
    0.5932   64.0104   87.5383 C   0  0  0  0  0  0  0  0  0  0  0  0
    0.0104   63.3183   88.6044 C   0  0  0  0  0  0  0  0  0  0  0  0
   -0.9714   62.3694   88.3549 C   0  0  0  0  0  0  0  0  0  0  0  0
   -1.3689   62.1311   87.0421 C   0  0  0  0  0  0  0  0  0  0  0  0
   -0.7893   62.8508   85.9663 C   0  0  0  0  0  0  0  0  0  0  0  0
   -2.1414   61.8345   84.1746 N   0  0  0  0  0  0  0  0  0  0  0  0
   -1.9032   60.9569   84.6407 H   0  0  0  0  0  0  0  0  0  0  0  0
   -2.0661   61.6041   82.7249 C   0  0  0  0  0  0  0  0  0  0  0  0
   -2.8414   59.3021   81.9703 C   0  0  0  0  0  0  0  0  0  0  0  0
   -3.2515   60.7517   82.2353 C   0  0  0  0  0  0  0  0  0  0  0  0
   -3.9334   61.3526   81.0053 C   0  0  0  0  0  0  0  0  0  0  0  0
    0.6094   65.4071   81.7066 C   0  0  0  0  0  0  0  0  0  0  0  0
    0.0926   66.7014   81.5747 C   0  0  0  0  0  0  0  0  0  0  0  0
   -0.3942   67.1745   80.3497 C   0  0  0  0  0  0  0  0  0  0  0  0
   -0.4021   66.3451   79.2334 C   0  0  0  0  0  0  0  0  0  0  0  0
    0.0595   65.0355   79.3599 C   0  0  0  0  0  0  0  0  0  0  0  0
    0.5810   64.5766   80.5764 C   0  0  0  0  0  0  0  0  0  0  0  0
    0.0524   63.9549   77.9451 S   0  0  0  0  0  0  0  0  0  0  0  0
    1.2563   63.1522   78.0093 O   0  0  0  0  0  0  0  0  0  0  0  0
   -0.2452   64.7656   76.7832 O   0  0  0  0  0  0  0  0  0  0  0  0
   -1.2680   62.9385   78.2328 N   0  0  0  0  0  0  0  0  0  0  0  0
   -2.3090   62.8547   77.1718 C   0  0  0  0  0  0  0  0  0  0  0  0
   -3.3378   61.7529   77.4894 C   0  0  0  0  0  0  0  0  0  0  0  0
   -2.7638   60.3992   77.6350 N   0  0  0  0  0  0  0  0  0  0  0  0
   -2.8872   59.6168   76.4075 C   0  0  0  0  0  0  0  0  0  0  0  0
   -1.3563   60.4446   78.0839 C   0  0  0  0  0  0  0  0  0  0  0  0
   -1.0334   61.6636   78.9679 C   0  0  0  0  0  0  0  0  0  0  0  0
 16 17  1  0  0  0
 17 18  1  0  0  0
 17 15  1  0  0  0
 15 13  1  0  0  0
 13  3  1  0  0  0
  3  4  1  0  0  0
  4  5  2  0  0  0
  5  1  1  0  0  0
  1 19  1  0  0  0
 19 20  1  0  0  0
 20 21  2  0  0  0
 21 22  1  0  0  0
 22 23  2  0  0  0
 23 25  1  0  0  0
 25 26  2  0  0  0
 25 27  2  0  0  0
 25 28  1  0  0  0
 28 29  1  0  0  0
 29 30  1  0  0  0
 30 31  1  0  0  0
 31 32  1  0  0  0
 31 33  1  0  0  0
 33 34  1  0  0  0
 23 24  1  0  0  0
  5  6  1  0  0  0
  6  7  2  0  0  0
  7  8  1  0  0  0
  8  9  2  0  0  0
  9 10  1  0  0  0
 10 11  2  0  0  0
 11 12  1  0  0  0
 12  3  2  0  0  0
 24 19  2  0  0  0
 12  7  1  0  0  0
 34 28  1  0  0  0
 13 14  1  0  0  0
  1  2  1  0  0  0
M  END
> <minimizedAffinity>
-9.63934

$$$$



 34 37  0  0  0  0  0  0  0  0999 V2000
    0.2204   65.0139   82.5100 N   0  0  0  0  0  0  0  0  0  0  0  0
   -0.3926   65.0419   83.3126 H   0  0  0  0  0  0  0  0  0  0  0  0
    2.6261   67.2751   83.7733 C   0  0  0  0  0  0  0  0  0  0  0  0
    1.8111   66.2151   83.6594 N   0  0  0  0  0  0  0  0  0  0  0  0
    1.0571   66.1274   82.5553 C   0  0  0  0  0  0  0  0  0  0  0  0
    1.0665   67.0407   81.5779 N   0  0  0  0  0  0  0  0  0  0  0  0
    1.9030   68.0780   81.6842 C   0  0  0  0  0  0  0  0  0  0  0  0
    1.9462   69.0149   80.6577 C   0  0  0  0  0  0  0  0  0  0  0  0
    2.8147   70.1104   80.6907 C   0  0  0  0  0  0  0  0  0  0  0  0
    3.6710   70.2781   81.7702 C   0  0  0  0  0  0  0  0  0  0  0  0
    3.6414   69.3547   82.8116 C   0  0  0  0  0  0  0  0  0  0  0  0
    2.7438   68.2570   82.7829 C   0  0  0  0  0  0  0  0  0  0  0  0
    3.3594   67.3207   84.9774 N   0  0  0  0  0  0  0  0  0  0  0  0
    3.9844   68.1141   84.8219 H   0  0  0  0  0  0  0  0  0  0  0  0
    4.1936   66.1222   85.1445 C   0  0  0  0  0  0  0  0  0  0  0  0
    5.5406   65.4132   87.1823 C   0  0  0  0  0  0  0  0  0  0  0  0
    5.4163   66.4154   86.0335 C   0  0  0  0  0  0  0  0  0  0  0  0
    5.4199   67.8491   86.5661 C   0  0  0  0  0  0  0  0  0  0  0  0
    0.2161   63.8367   81.7541 C   0  0  0  0  0  0  0  0  0  0  0  0
    0.5832   62.5829   82.2573 C   0  0  0  0  0  0  0  0  0  0  0  0
    0.5836   61.4402   81.4478 C   0  0  0  0  0  0  0  0  0  0  0  0
    0.2446   61.5365   80.1025 C   0  0  0  0  0  0  0  0  0  0  0  0
   -0.0719   62.7866   79.5720 C   0  0  0  0  0  0  0  0  0  0  0  0
   -0.1084   63.9217   80.3921 C   0  0  0  0  0  0  0  0  0  0  0  0
   -0.5026   62.9335   77.8508 S   0  0  0  0  0  0  0  0  0  0  0  0
    0.5561   62.3071   77.0863 O   0  0  0  0  0  0  0  0  0  0  0  0
   -0.8810   64.3109   77.6158 O   0  0  0  0  0  0  0  0  0  0  0  0
   -1.8871   61.9732   77.7083 N   0  0  0  0  0  0  0  0  0  0  0  0
   -1.6867   60.5160   77.4788 C   0  0  0  0  0  0  0  0  0  0  0  0
   -3.0214   59.7517   77.5651 C   0  0  0  0  0  0  0  0  0  0  0  0
   -3.7266   59.8897   78.8562 N   0  0  0  0  0  0  0  0  0  0  0  0
   -3.4703   58.7582   79.7441 C   0  0  0  0  0  0  0  0  0  0  0  0
   -3.3973   61.1639   79.5286 C   0  0  0  0  0  0  0  0  0  0  0  0
   -3.0704   62.3074   78.5502 C   0  0  0  0  0  0  0  0  0  0  0  0
 16 17  1  0  0  0
 17 18  1  0  0  0
 17 15  1  0  0  0
 15 13  1  0  0  0
 13  3  1  0  0  0
  3  4  1  0  0  0
  4  5  2  0  0  0
  5  1  1  0  0  0
  1 19  1  0  0  0
 19 20  1  0  0  0
 20 21  2  0  0  0
 21 22  1  0  0  0
 22 23  2  0  0  0
 23 25  1  0  0  0
 25 26  2  0  0  0
 25 27  2  0  0  0
 25 28  1  0  0  0
 28 29  1  0  0  0
 29 30  1  0  0  0
 30 31  1  0  0  0
 31 32  1  0  0  0
 31 33  1  0  0  0
 33 34  1  0  0  0
 23 24  1  0  0  0
  5  6  1  0  0  0
  6  7  2  0  0  0
  7  8  1  0  0  0
  8  9  2  0  0  0
  9 10  1  0  0  0
 10 11  2  0  0  0
 11 12  1  0  0  0
 12  3  2  0  0  0
 24 19  2  0  0  0
 12  7  1  0  0  0
 34 28  1  0  0  0
 13 14  1  0  0  0
  1  2  1  0  0  0
M  END
> <minimizedAffinity>
-9.58013

$$$$
