
     RDKit          3D

 65 68  0  0  0  0  0  0  0  0999 V2000
   -6.7317   -1.3318   -0.7152 C   0  0  0  0  0  0  0  0  0  0  0  0
   -5.5632   -0.6831   -0.6329 C   0  0  0  0  0  0  0  0  0  0  0  0
   -4.8083   -0.4639    0.6480 C   0  0  0  0  0  0  0  0  0  0  0  0
   -4.6042    1.0179    1.0009 C   0  0  0  0  0  0  0  0  0  0  0  0
   -3.6975    1.7196    0.0873 N   0  0  0  0  0  0  0  0  0  0  0  0
   -4.2313    2.5719   -0.8975 C   0  0  0  0  0  0  0  0  0  0  0  0
   -5.4480    2.7433   -1.0114 O   0  0  0  0  0  0  0  0  0  0  0  0
   -3.3186    3.2230   -1.7564 N   0  0  0  0  0  0  0  0  0  0  0  0
   -3.9010    4.0937   -2.7583 C   0  0  0  0  0  0  0  0  0  0  0  0
   -1.9202    3.0745   -1.7629 C   0  0  0  0  0  0  0  0  0  0  0  0
   -1.1710    3.6205   -2.5687 O   0  0  0  0  0  0  0  0  0  0  0  0
   -1.4423    2.1925   -0.7230 C   0  0  0  0  0  0  0  0  0  0  0  0
   -0.1525    1.8260   -0.4189 N   0  0  0  0  0  0  0  0  0  0  0  0
   -0.2460    0.9895    0.6055 C   0  0  0  0  0  0  0  0  0  0  0  0
    0.8755    0.3173    1.2786 C   0  0  0  0  0  0  0  0  0  0  0  0
    2.1713    0.7909    1.0079 C   0  0  0  0  0  0  0  0  0  0  0  0
    3.2875    0.1647    1.5626 C   0  0  0  0  0  0  0  0  0  0  0  0
    4.9201    0.7855    1.2072 S   0  0  0  0  0  0  0  0  0  0  0  0
    5.8131    0.2141    2.1944 O   0  0  0  0  0  0  0  0  0  0  0  0
    4.8112    2.2182    1.0399 O   0  0  0  0  0  0  0  0  0  0  0  0
    5.2910    0.0936   -0.2877 N   0  0  0  0  0  0  0  0  0  0  0  0
    4.6746    0.6979   -1.5018 C   0  0  0  0  0  0  0  0  0  0  0  0
    4.9654   -0.1549   -2.7514 C   0  0  0  0  0  0  0  0  0  0  0  0
    4.4777   -1.5487   -2.6702 N   0  0  0  0  0  0  0  0  0  0  0  0
    3.1767   -1.7053   -3.3178 C   0  0  0  0  0  0  0  0  0  0  0  0
    4.4256   -2.0308   -1.2745 C   0  0  0  0  0  0  0  0  0  0  0  0
    5.4795   -1.3815   -0.3582 C   0  0  0  0  0  0  0  0  0  0  0  0
    3.1268   -0.9067    2.4403 C   0  0  0  0  0  0  0  0  0  0  0  0
    1.8439   -1.3752    2.7364 C   0  0  0  0  0  0  0  0  0  0  0  0
    0.7133   -0.7795    2.1583 C   0  0  0  0  0  0  0  0  0  0  0  0
   -0.5745   -1.1956    2.4019 O   0  0  0  0  0  0  0  0  0  0  0  0
   -0.7599   -2.3710    3.1920 C   0  0  0  0  0  0  0  0  0  0  0  0
   -2.2488   -2.6657    3.2364 C   0  0  0  0  0  0  0  0  0  0  0  0
   -1.5704    0.8282    0.9610 N   0  0  0  0  0  0  0  0  0  0  0  0
   -2.3266    1.5820    0.1184 C   0  0  0  0  0  0  0  0  0  0  0  0
   -7.2292   -1.4544   -1.6730 H   0  0  0  0  0  0  0  0  0  0  0  0
   -7.2236   -1.7468    0.1587 H   0  0  0  0  0  0  0  0  0  0  0  0
   -5.1199   -0.2891   -1.5458 H   0  0  0  0  0  0  0  0  0  0  0  0
   -5.3393   -0.9428    1.4802 H   0  0  0  0  0  0  0  0  0  0  0  0
   -3.8399   -0.9708    0.5650 H   0  0  0  0  0  0  0  0  0  0  0  0
   -4.1814    1.0957    2.0103 H   0  0  0  0  0  0  0  0  0  0  0  0
   -5.5735    1.5289    1.0330 H   0  0  0  0  0  0  0  0  0  0  0  0
   -3.1489    4.6554   -3.3176 H   0  0  0  0  0  0  0  0  0  0  0  0
   -4.5789    4.8037   -2.2730 H   0  0  0  0  0  0  0  0  0  0  0  0
   -4.4820    3.4831   -3.4572 H   0  0  0  0  0  0  0  0  0  0  0  0
    2.3004    1.6563    0.3575 H   0  0  0  0  0  0  0  0  0  0  0  0
    3.5924    0.7925   -1.3826 H   0  0  0  0  0  0  0  0  0  0  0  0
    5.0970    1.6977   -1.6494 H   0  0  0  0  0  0  0  0  0  0  0  0
    4.5761    0.3497   -3.6443 H   0  0  0  0  0  0  0  0  0  0  0  0
    6.0535   -0.2013   -2.8909 H   0  0  0  0  0  0  0  0  0  0  0  0
    2.8453   -2.7485   -3.2667 H   0  0  0  0  0  0  0  0  0  0  0  0
    3.2435   -1.4496   -4.3808 H   0  0  0  0  0  0  0  0  0  0  0  0
    2.4071   -1.0745   -2.8586 H   0  0  0  0  0  0  0  0  0  0  0  0
    4.5703   -3.1172   -1.2757 H   0  0  0  0  0  0  0  0  0  0  0  0
    3.4360   -1.8385   -0.8384 H   0  0  0  0  0  0  0  0  0  0  0  0
    6.4903   -1.5797   -0.7345 H   0  0  0  0  0  0  0  0  0  0  0  0
    5.4223   -1.8388    0.6344 H   0  0  0  0  0  0  0  0  0  0  0  0
    3.9906   -1.3771    2.9070 H   0  0  0  0  0  0  0  0  0  0  0  0
    1.7648   -2.2063    3.4305 H   0  0  0  0  0  0  0  0  0  0  0  0
   -0.2401   -3.2232    2.7393 H   0  0  0  0  0  0  0  0  0  0  0  0
   -0.3977   -2.2016    4.2121 H   0  0  0  0  0  0  0  0  0  0  0  0
   -2.7978   -1.8190    3.6622 H   0  0  0  0  0  0  0  0  0  0  0  0
   -2.4522   -3.5571    3.8361 H   0  0  0  0  0  0  0  0  0  0  0  0
   -2.6404   -2.8224    2.2258 H   0  0  0  0  0  0  0  0  0  0  0  0
   -1.8821    0.2245    1.7088 H   0  0  0  0  0  0  0  0  0  0  0  0
  1  2  2  0
  2  3  1  0
  3  4  1  0
  4  5  1  0
  5  6  1  0
  6  7  2  0
  6  8  1  0
  8  9  1  0
  8 10  1  0
 10 11  2  0
 10 12  1  0
 12 13  1  0
 13 14  2  0
 14 15  1  0
 15 16  1  0
 16 17  2  0
 17 18  1  0
 18 19  2  0
 18 20  2  0
 18 21  1  0
 21 22  1  0
 22 23  1  0
 23 24  1  0
 24 25  1  0
 24 26  1  0
 26 27  1  0
 17 28  1  0
 28 29  2  0
 29 30  1  0
 30 31  1  0
 31 32  1  0
 32 33  1  0
 14 34  1  0
 34 35  1  0
 35  5  1  0
 35 12  2  0
 30 15  2  0
 27 21  1  0
  1 36  1  0
  1 37  1  0
  2 38  1  0
  3 39  1  0
  3 40  1  0
  4 41  1  0
  4 42  1  0
  9 43  1  0
  9 44  1  0
  9 45  1  0
 16 46  1  0
 22 47  1  0
 22 48  1  0
 23 49  1  0
 23 50  1  0
 25 51  1  0
 25 52  1  0
 25 53  1  0
 26 54  1  0
 26 55  1  0
 27 56  1  0
 27 57  1  0
 28 58  1  0
 29 59  1  0
 32 60  1  0
 32 61  1  0
 33 62  1  0
 33 63  1  0
 33 64  1  0
 34 65  1  0
M  END
$$$$
