


 44 47  0  0  0  0  0  0  0  0999 V2000
    2.6556   66.3826   83.7511 C   0  0  0  0  0  0  0  0  0  0  0  0
    3.0125   67.2326   82.6926 C   0  0  0  0  0  0  0  0  0  0  0  0
    2.1522   67.4285   81.6079 C   0  0  0  0  0  0  0  0  0  0  0  0
    0.9275   66.7656   81.5709 C   0  0  0  0  0  0  0  0  0  0  0  0
    0.5741   65.8846   82.5921 C   0  0  0  0  0  0  0  0  0  0  0  0
    1.4189   65.7016   83.7011 C   0  0  0  0  0  0  0  0  0  0  0  0
    0.9020   64.8016   84.7895 C   0  0  0  0  0  0  0  0  0  0  0  0
   -0.1996   64.1319   84.5882 N   0  0  0  0  0  0  0  0  0  0  0  0
   -0.5968   63.3363   85.6628 C   0  0  0  0  0  0  0  0  0  0  0  0
   -1.7364   62.5095   85.7276 C   0  0  0  0  0  0  0  0  0  0  0  0
   -1.6995   61.9357   86.9913 C   0  0  0  0  0  0  0  0  0  0  0  0
   -0.5874   62.4020   87.6559 N   0  0  0  0  0  0  0  0  0  0  0  0
   -0.2022   62.0348   88.9996 C   0  0  0  0  0  0  0  0  0  0  0  0
    0.0941   63.2633   86.8406 C   0  0  0  0  0  0  0  0  0  0  0  0
    1.2936   63.9995   87.0628 C   0  0  0  0  0  0  0  0  0  0  0  0
    1.9541   64.0055   88.0960 O   0  0  0  0  0  0  0  0  0  0  0  0
    1.6435   64.7418   85.9602 N   0  0  0  0  0  0  0  0  0  0  0  0
    2.4708   65.3143   86.0607 H   0  0  0  0  0  0  0  0  0  0  0  0
   -2.7578   62.2844   84.6623 C   0  0  0  0  0  0  0  0  0  0  0  0
   -2.2266   61.5254   83.4437 C   0  0  0  0  0  0  0  0  0  0  0  0
   -3.1784   60.4443   82.9508 C   0  0  0  0  0  0  0  0  0  0  0  0
   -0.1772   66.9966   80.1948 S   0  0  0  0  0  0  0  0  0  0  0  0
   -1.5212   67.0798   80.7265 O   0  0  0  0  0  0  0  0  0  0  0  0
    0.3711   68.0512   79.3713 O   0  0  0  0  0  0  0  0  0  0  0  0
   -0.0604   65.5292   79.3402 N   0  0  0  0  0  0  0  0  0  0  0  0
    1.2317   64.8094   79.4326 C   0  0  0  0  0  0  0  0  0  0  0  0
    1.2475   63.6036   78.4893 C   0  0  0  0  0  0  0  0  0  0  0  0
   -0.1438   62.9522   78.3390 C   0  0  0  0  0  0  0  0  0  0  0  0
   -1.1380   63.9946   77.7771 C   0  0  0  0  0  0  0  0  0  0  0  0
   -0.7061   65.4449   78.0165 C   0  0  0  0  0  0  0  0  0  0  0  0
   -0.6343   62.3013   79.6726 C   0  0  0  0  0  0  0  0  0  0  0  0
   -2.0217   61.6296   79.5480 C   0  0  0  0  0  0  0  0  0  0  0  0
   -1.9027   60.2418   79.8636 O   0  0  0  0  0  0  0  0  0  0  0  0
   -2.8047   59.4339   79.1311 N   0  0  0  0  0  0  0  0  0  0  0  0
   -2.8062   59.5593   77.9065 O   0  0  0  0  0  0  0  0  0  0  0  0
   -3.4711   58.6951   79.8522 O   0  0  0  0  0  0  0  0  0  0  0  0
    0.3360   61.2947   80.0114 O   0  0  0  0  0  0  0  0  0  0  0  0
    0.9726   61.4955   81.2607 N   0  0  0  0  0  0  0  0  0  0  0  0
    1.8552   60.7003   81.5789 O   0  0  0  0  0  0  0  0  0  0  0  0
    0.5447   62.4821   81.8548 O   0  0  0  0  0  0  0  0  0  0  0  0
    3.4525   66.1670   84.8462 O   0  0  0  0  0  0  0  0  0  0  0  0
    4.7922   66.6652   84.8219 C   0  0  0  0  0  0  0  0  0  0  0  0
    7.1289   65.6926   84.6931 C   0  0  0  0  0  0  0  0  0  0  0  0
    5.7333   65.5551   85.2858 C   0  0  0  0  0  0  0  0  0  0  0  0
 43 44  1  0  0  0
 44 42  1  0  0  0
 42 41  1  0  0  0
 41  1  1  0  0  0
  1  2  1  0  0  0
  2  3  2  0  0  0
  3  4  1  0  0  0
  4 22  1  0  0  0
 22 23  2  0  0  0
 22 24  2  0  0  0
 22 25  1  0  0  0
 25 26  1  0  0  0
 26 27  1  0  0  0
 27 28  1  0  0  0
 28 31  1  0  0  0
 31 32  1  0  0  0
 32 33  1  0  0  0
 33 34  1  0  0  0
 34 35  2  0  0  0
 34 36  1  0  0  0
 31 37  1  0  0  0
 37 38  1  0  0  0
 38 39  2  0  0  0
 38 40  1  0  0  0
 28 29  1  0  0  0
 29 30  1  0  0  0
  4  5  2  0  0  0
  5  6  1  0  0  0
  6  7  1  0  0  0
  7  8  2  0  0  0
  8  9  1  0  0  0
  9 10  1  0  0  0
 10 19  1  0  0  0
 19 20  1  0  0  0
 20 21  1  0  0  0
 10 11  2  0  0  0
 11 12  1  0  0  0
 12 13  1  0  0  0
 12 14  1  0  0  0
 14 15  1  0  0  0
 15 16  2  0  0  0
 15 17  1  0  0  0
  6  1  2  0  0  0
 17  7  1  0  0  0
 30 25  1  0  0  0
 14  9  2  0  0  0
 17 18  1  0  0  0
M  CHG 1  34   1
M  CHG 1  36  -1
M  CHG 1  38   1
M  CHG 1  40  -1
M  END
> <minimizedAffinity>
-9.42778

$$$$



 44 47  0  0  0  0  0  0  0  0999 V2000
    3.3519   66.7878   84.3579 C   0  0  0  0  0  0  0  0  0  0  0  0
    4.0627   67.8474   83.7729 C   0  0  0  0  0  0  0  0  0  0  0  0
    3.4905   68.6229   82.7599 C   0  0  0  0  0  0  0  0  0  0  0  0
    2.2009   68.3366   82.3177 C   0  0  0  0  0  0  0  0  0  0  0  0
    1.4955   67.2616   82.8568 C   0  0  0  0  0  0  0  0  0  0  0  0
    2.0501   66.4927   83.8952 C   0  0  0  0  0  0  0  0  0  0  0  0
    1.1703   65.4161   84.4685 C   0  0  0  0  0  0  0  0  0  0  0  0
    0.4652   64.6757   83.6580 N   0  0  0  0  0  0  0  0  0  0  0  0
   -0.3237   63.7154   84.2913 C   0  0  0  0  0  0  0  0  0  0  0  0
   -1.1801   62.7822   83.6730 C   0  0  0  0  0  0  0  0  0  0  0  0
   -1.7438   62.0581   84.7149 C   0  0  0  0  0  0  0  0  0  0  0  0
   -1.2489   62.5397   85.9061 N   0  0  0  0  0  0  0  0  0  0  0  0
   -1.5975   62.0426   87.2175 C   0  0  0  0  0  0  0  0  0  0  0  0
   -0.3736   63.5589   85.6488 C   0  0  0  0  0  0  0  0  0  0  0  0
    0.3915   64.3718   86.5343 C   0  0  0  0  0  0  0  0  0  0  0  0
    0.3825   64.3089   87.7589 O   0  0  0  0  0  0  0  0  0  0  0  0
    1.1641   65.2786   85.8487 N   0  0  0  0  0  0  0  0  0  0  0  0
    1.7107   65.9098   86.4189 H   0  0  0  0  0  0  0  0  0  0  0  0
   -1.4204   62.5984   82.2111 C   0  0  0  0  0  0  0  0  0  0  0  0
   -0.7571   61.3493   81.6254 C   0  0  0  0  0  0  0  0  0  0  0  0
    0.7554   61.4753   81.5060 C   0  0  0  0  0  0  0  0  0  0  0  0
    1.4591   69.3080   81.0240 S   0  0  0  0  0  0  0  0  0  0  0  0
    2.0736   68.9091   79.7752 O   0  0  0  0  0  0  0  0  0  0  0  0
    0.0259   69.2515   81.2073 O   0  0  0  0  0  0  0  0  0  0  0  0
    1.9844   70.8909   81.3641 N   0  0  0  0  0  0  0  0  0  0  0  0
    3.1918   71.3579   80.6428 C   0  0  0  0  0  0  0  0  0  0  0  0
    3.6398   72.7249   81.1670 C   0  0  0  0  0  0  0  0  0  0  0  0
    2.4526   73.6057   81.6116 C   0  0  0  0  0  0  0  0  0  0  0  0
    1.6755   72.8854   82.7375 C   0  0  0  0  0  0  0  0  0  0  0  0
    1.8895   71.3684   82.7566 C   0  0  0  0  0  0  0  0  0  0  0  0
    1.5417   74.0136   80.4088 C   0  0  0  0  0  0  0  0  0  0  0  0
    0.0513   74.1579   80.7953 C   0  0  0  0  0  0  0  0  0  0  0  0
   -0.7609   73.6521   79.7351 O   0  0  0  0  0  0  0  0  0  0  0  0
   -1.6020   72.5912   80.1474 N   0  0  0  0  0  0  0  0  0  0  0  0
   -1.4355   72.1498   81.2844 O   0  0  0  0  0  0  0  0  0  0  0  0
   -2.4077   72.2615   79.2801 O   0  0  0  0  0  0  0  0  0  0  0  0
    2.0245   75.2891   79.9510 O   0  0  0  0  0  0  0  0  0  0  0  0
    2.5331   75.2798   78.6291 N   0  0  0  0  0  0  0  0  0  0  0  0
    3.7528   75.1975   78.4940 O   0  0  0  0  0  0  0  0  0  0  0  0
    1.6454   75.3392   77.7818 O   0  0  0  0  0  0  0  0  0  0  0  0
    3.8574   66.0061   85.3650 O   0  0  0  0  0  0  0  0  0  0  0  0
    5.1414   66.3334   85.9015 C   0  0  0  0  0  0  0  0  0  0  0  0
    7.3315   65.8765   84.7108 C   0  0  0  0  0  0  0  0  0  0  0  0
    6.1436   65.2736   85.4478 C   0  0  0  0  0  0  0  0  0  0  0  0
 43 44  1  0  0  0
 44 42  1  0  0  0
 42 41  1  0  0  0
 41  1  1  0  0  0
  1  2  1  0  0  0
  2  3  2  0  0  0
  3  4  1  0  0  0
  4 22  1  0  0  0
 22 23  2  0  0  0
 22 24  2  0  0  0
 22 25  1  0  0  0
 25 26  1  0  0  0
 26 27  1  0  0  0
 27 28  1  0  0  0
 28 31  1  0  0  0
 31 32  1  0  0  0
 32 33  1  0  0  0
 33 34  1  0  0  0
 34 35  2  0  0  0
 34 36  1  0  0  0
 31 37  1  0  0  0
 37 38  1  0  0  0
 38 39  2  0  0  0
 38 40  1  0  0  0
 28 29  1  0  0  0
 29 30  1  0  0  0
  4  5  2  0  0  0
  5  6  1  0  0  0
  6  7  1  0  0  0
  7  8  2  0  0  0
  8  9  1  0  0  0
  9 10  1  0  0  0
 10 19  1  0  0  0
 19 20  1  0  0  0
 20 21  1  0  0  0
 10 11  2  0  0  0
 11 12  1  0  0  0
 12 13  1  0  0  0
 12 14  1  0  0  0
 14 15  1  0  0  0
 15 16  2  0  0  0
 15 17  1  0  0  0
  6  1  2  0  0  0
 17  7  1  0  0  0
 30 25  1  0  0  0
 14  9  2  0  0  0
 17 18  1  0  0  0
M  CHG 1  34   1
M  CHG 1  36  -1
M  CHG 1  38   1
M  CHG 1  40  -1
M  END
> <minimizedAffinity>
-8.91652

$$$$



 44 47  0  0  0  0  0  0  0  0999 V2000
   -1.8237   62.5865   83.9554 C   0  0  0  0  0  0  0  0  0  0  0  0
   -2.6078   61.4281   84.0711 C   0  0  0  0  0  0  0  0  0  0  0  0
   -3.1687   60.8251   82.9411 C   0  0  0  0  0  0  0  0  0  0  0  0
   -2.9550   61.3846   81.6834 C   0  0  0  0  0  0  0  0  0  0  0  0
   -2.2145   62.5588   81.5532 C   0  0  0  0  0  0  0  0  0  0  0  0
   -1.6225   63.1578   82.6791 C   0  0  0  0  0  0  0  0  0  0  0  0
   -0.7686   64.3677   82.4169 C   0  0  0  0  0  0  0  0  0  0  0  0
    0.2624   64.5940   83.1840 N   0  0  0  0  0  0  0  0  0  0  0  0
    0.9802   65.7459   82.8625 C   0  0  0  0  0  0  0  0  0  0  0  0
    2.1311   66.2348   83.5129 C   0  0  0  0  0  0  0  0  0  0  0  0
    2.4655   67.3999   82.8361 C   0  0  0  0  0  0  0  0  0  0  0  0
    1.5518   67.6019   81.8261 N   0  0  0  0  0  0  0  0  0  0  0  0
    1.5627   68.7106   80.8991 C   0  0  0  0  0  0  0  0  0  0  0  0
    0.6370   66.5850   81.8388 C   0  0  0  0  0  0  0  0  0  0  0  0
   -0.4926   66.3415   81.0052 C   0  0  0  0  0  0  0  0  0  0  0  0
   -0.8774   67.0568   80.0865 O   0  0  0  0  0  0  0  0  0  0  0  0
   -1.1406   65.1815   81.3570 N   0  0  0  0  0  0  0  0  0  0  0  0
   -1.9719   64.9639   80.8242 H   0  0  0  0  0  0  0  0  0  0  0  0
    2.8484   65.6250   84.6715 C   0  0  0  0  0  0  0  0  0  0  0  0
    4.2990   66.0916   84.8186 C   0  0  0  0  0  0  0  0  0  0  0  0
    5.0620   65.3409   85.9012 C   0  0  0  0  0  0  0  0  0  0  0  0
   -3.6672   60.6354   80.2347 S   0  0  0  0  0  0  0  0  0  0  0  0
   -3.6926   59.2046   80.4541 O   0  0  0  0  0  0  0  0  0  0  0  0
   -4.8727   61.3677   79.9163 O   0  0  0  0  0  0  0  0  0  0  0  0
   -2.5140   60.9413   79.0207 N   0  0  0  0  0  0  0  0  0  0  0  0
   -2.7540   62.1248   78.1616 C   0  0  0  0  0  0  0  0  0  0  0  0
   -1.7356   62.1794   77.0198 C   0  0  0  0  0  0  0  0  0  0  0  0
   -0.3556   61.6235   77.4312 C   0  0  0  0  0  0  0  0  0  0  0  0
   -0.5096   60.1500   77.8736 C   0  0  0  0  0  0  0  0  0  0  0  0
   -1.9324   59.7866   78.3105 C   0  0  0  0  0  0  0  0  0  0  0  0
    0.3371   62.5139   78.5128 C   0  0  0  0  0  0  0  0  0  0  0  0
    1.2370   61.7088   79.4790 C   0  0  0  0  0  0  0  0  0  0  0  0
    0.6059   61.6345   80.7581 O   0  0  0  0  0  0  0  0  0  0  0  0
    1.4515   61.0935   81.7558 N   0  0  0  0  0  0  0  0  0  0  0  0
    2.5143   60.5959   81.3841 O   0  0  0  0  0  0  0  0  0  0  0  0
    0.9853   61.2121   82.8865 O   0  0  0  0  0  0  0  0  0  0  0  0
    1.1563   63.4551   77.7969 O   0  0  0  0  0  0  0  0  0  0  0  0
    0.8020   64.8110   78.0025 N   0  0  0  0  0  0  0  0  0  0  0  0
   -0.3019   65.1736   77.5989 O   0  0  0  0  0  0  0  0  0  0  0  0
    1.6755   65.4426   78.5918 O   0  0  0  0  0  0  0  0  0  0  0  0
   -1.2363   63.2093   85.0268 O   0  0  0  0  0  0  0  0  0  0  0  0
   -1.1926   62.5168   86.2766 C   0  0  0  0  0  0  0  0  0  0  0  0
    0.3843   64.4010   86.8976 C   0  0  0  0  0  0  0  0  0  0  0  0
   -0.7492   63.4967   87.3613 C   0  0  0  0  0  0  0  0  0  0  0  0
 43 44  1  0  0  0
 44 42  1  0  0  0
 42 41  1  0  0  0
 41  1  1  0  0  0
  1  2  1  0  0  0
  2  3  2  0  0  0
  3  4  1  0  0  0
  4 22  1  0  0  0
 22 23  2  0  0  0
 22 24  2  0  0  0
 22 25  1  0  0  0
 25 26  1  0  0  0
 26 27  1  0  0  0
 27 28  1  0  0  0
 28 31  1  0  0  0
 31 32  1  0  0  0
 32 33  1  0  0  0
 33 34  1  0  0  0
 34 35  2  0  0  0
 34 36  1  0  0  0
 31 37  1  0  0  0
 37 38  1  0  0  0
 38 39  2  0  0  0
 38 40  1  0  0  0
 28 29  1  0  0  0
 29 30  1  0  0  0
  4  5  2  0  0  0
  5  6  1  0  0  0
  6  7  1  0  0  0
  7  8  2  0  0  0
  8  9  1  0  0  0
  9 10  1  0  0  0
 10 19  1  0  0  0
 19 20  1  0  0  0
 20 21  1  0  0  0
 10 11  2  0  0  0
 11 12  1  0  0  0
 12 13  1  0  0  0
 12 14  1  0  0  0
 14 15  1  0  0  0
 15 16  2  0  0  0
 15 17  1  0  0  0
  6  1  2  0  0  0
 17  7  1  0  0  0
 30 25  1  0  0  0
 14  9  2  0  0  0
 17 18  1  0  0  0
M  CHG 1  34   1
M  CHG 1  36  -1
M  CHG 1  38   1
M  CHG 1  40  -1
M  END
> <minimizedAffinity>
-8.79542

$$$$



 44 47  0  0  0  0  0  0  0  0999 V2000
    3.3389   67.2920   84.1380 C   0  0  0  0  0  0  0  0  0  0  0  0
    4.0190   68.3852   83.5790 C   0  0  0  0  0  0  0  0  0  0  0  0
    3.5149   69.0453   82.4541 C   0  0  0  0  0  0  0  0  0  0  0  0
    2.3263   68.6085   81.8735 C   0  0  0  0  0  0  0  0  0  0  0  0
    1.6589   67.4980   82.3889 C   0  0  0  0  0  0  0  0  0  0  0  0
    2.1417   66.8442   83.5362 C   0  0  0  0  0  0  0  0  0  0  0  0
    1.2980   65.7165   84.0636 C   0  0  0  0  0  0  0  0  0  0  0  0
    0.6598   64.9538   83.2189 N   0  0  0  0  0  0  0  0  0  0  0  0
   -0.1011   63.9460   83.8110 C   0  0  0  0  0  0  0  0  0  0  0  0
   -0.8872   62.9804   83.1505 C   0  0  0  0  0  0  0  0  0  0  0  0
   -1.4497   62.2136   84.1620 C   0  0  0  0  0  0  0  0  0  0  0  0
   -1.0216   62.7016   85.3763 N   0  0  0  0  0  0  0  0  0  0  0  0
   -1.3902   62.1682   86.6679 C   0  0  0  0  0  0  0  0  0  0  0  0
   -0.1905   63.7670   85.1637 C   0  0  0  0  0  0  0  0  0  0  0  0
    0.5013   64.6039   86.0865 C   0  0  0  0  0  0  0  0  0  0  0  0
    0.4527   64.5224   87.3091 O   0  0  0  0  0  0  0  0  0  0  0  0
    1.2505   65.5583   85.4408 N   0  0  0  0  0  0  0  0  0  0  0  0
    1.7443   66.2075   86.0384 H   0  0  0  0  0  0  0  0  0  0  0  0
   -1.0667   62.8067   81.6786 C   0  0  0  0  0  0  0  0  0  0  0  0
   -0.5084   61.4883   81.1367 C   0  0  0  0  0  0  0  0  0  0  0  0
    0.9749   61.3032   81.4253 C   0  0  0  0  0  0  0  0  0  0  0  0
    1.6734   69.4314   80.4369 S   0  0  0  0  0  0  0  0  0  0  0  0
    2.7987   69.8518   79.6288 O   0  0  0  0  0  0  0  0  0  0  0  0
    0.6305   68.5907   79.8925 O   0  0  0  0  0  0  0  0  0  0  0  0
    0.9552   70.8364   81.0753 N   0  0  0  0  0  0  0  0  0  0  0  0
    1.8728   71.8432   81.6589 C   0  0  0  0  0  0  0  0  0  0  0  0
    1.0830   72.9657   82.3371 C   0  0  0  0  0  0  0  0  0  0  0  0
   -0.2530   73.2634   81.6233 C   0  0  0  0  0  0  0  0  0  0  0  0
   -1.1268   71.9879   81.6219 C   0  0  0  0  0  0  0  0  0  0  0  0
   -0.3240   70.6946   81.7960 C   0  0  0  0  0  0  0  0  0  0  0  0
   -0.0352   73.8528   80.1922 C   0  0  0  0  0  0  0  0  0  0  0  0
   -1.2973   74.5365   79.6167 C   0  0  0  0  0  0  0  0  0  0  0  0
   -1.7297   73.8256   78.4560 O   0  0  0  0  0  0  0  0  0  0  0  0
   -3.0911   73.4446   78.5221 N   0  0  0  0  0  0  0  0  0  0  0  0
   -3.3346   72.2721   78.8069 O   0  0  0  0  0  0  0  0  0  0  0  0
   -3.8556   74.3768   78.2843 O   0  0  0  0  0  0  0  0  0  0  0  0
    1.0064   74.8374   80.3152 O   0  0  0  0  0  0  0  0  0  0  0  0
    1.9883   74.7779   79.2960 N   0  0  0  0  0  0  0  0  0  0  0  0
    1.6644   75.1710   78.1765 O   0  0  0  0  0  0  0  0  0  0  0  0
    3.0633   74.3431   79.7016 O   0  0  0  0  0  0  0  0  0  0  0  0
    3.7785   66.6188   85.2490 O   0  0  0  0  0  0  0  0  0  0  0  0
    5.1785   66.3606   85.3788 C   0  0  0  0  0  0  0  0  0  0  0  0
    5.4479   65.4933   87.7448 C   0  0  0  0  0  0  0  0  0  0  0  0
    5.3671   65.1329   86.2679 C   0  0  0  0  0  0  0  0  0  0  0  0
 43 44  1  0  0  0
 44 42  1  0  0  0
 42 41  1  0  0  0
 41  1  1  0  0  0
  1  2  1  0  0  0
  2  3  2  0  0  0
  3  4  1  0  0  0
  4 22  1  0  0  0
 22 23  2  0  0  0
 22 24  2  0  0  0
 22 25  1  0  0  0
 25 26  1  0  0  0
 26 27  1  0  0  0
 27 28  1  0  0  0
 28 31  1  0  0  0
 31 32  1  0  0  0
 32 33  1  0  0  0
 33 34  1  0  0  0
 34 35  2  0  0  0
 34 36  1  0  0  0
 31 37  1  0  0  0
 37 38  1  0  0  0
 38 39  2  0  0  0
 38 40  1  0  0  0
 28 29  1  0  0  0
 29 30  1  0  0  0
  4  5  2  0  0  0
  5  6  1  0  0  0
  6  7  1  0  0  0
  7  8  2  0  0  0
  8  9  1  0  0  0
  9 10  1  0  0  0
 10 19  1  0  0  0
 19 20  1  0  0  0
 20 21  1  0  0  0
 10 11  2  0  0  0
 11 12  1  0  0  0
 12 13  1  0  0  0
 12 14  1  0  0  0
 14 15  1  0  0  0
 15 16  2  0  0  0
 15 17  1  0  0  0
  6  1  2  0  0  0
 17  7  1  0  0  0
 30 25  1  0  0  0
 14  9  2  0  0  0
 17 18  1  0  0  0
M  CHG 1  34   1
M  CHG 1  36  -1
M  CHG 1  38   1
M  CHG 1  40  -1
M  END
> <minimizedAffinity>
-8.75635

$$$$



 44 47  0  0  0  0  0  0  0  0999 V2000
    3.3144   66.9403   84.2996 C   0  0  0  0  0  0  0  0  0  0  0  0
    3.9912   68.0168   83.7053 C   0  0  0  0  0  0  0  0  0  0  0  0
    3.4182   68.7287   82.6470 C   0  0  0  0  0  0  0  0  0  0  0  0
    2.1625   68.3611   82.1688 C   0  0  0  0  0  0  0  0  0  0  0  0
    1.4936   67.2680   82.7181 C   0  0  0  0  0  0  0  0  0  0  0  0
    2.0478   66.5627   83.8008 C   0  0  0  0  0  0  0  0  0  0  0  0
    1.2036   65.4600   84.3781 C   0  0  0  0  0  0  0  0  0  0  0  0
    0.5595   64.6650   83.5684 N   0  0  0  0  0  0  0  0  0  0  0  0
   -0.2012   63.6844   84.2050 C   0  0  0  0  0  0  0  0  0  0  0  0
   -0.9928   62.6946   83.5884 C   0  0  0  0  0  0  0  0  0  0  0  0
   -1.5524   61.9716   84.6332 C   0  0  0  0  0  0  0  0  0  0  0  0
   -1.1173   62.5080   85.8244 N   0  0  0  0  0  0  0  0  0  0  0  0
   -1.4811   62.0290   87.1385 C   0  0  0  0  0  0  0  0  0  0  0  0
   -0.2845   63.5614   85.5644 C   0  0  0  0  0  0  0  0  0  0  0  0
    0.4138   64.4336   86.4487 C   0  0  0  0  0  0  0  0  0  0  0  0
    0.3708   64.4025   87.6738 O   0  0  0  0  0  0  0  0  0  0  0  0
    1.1624   65.3586   85.7608 N   0  0  0  0  0  0  0  0  0  0  0  0
    1.6606   66.0305   86.3289 H   0  0  0  0  0  0  0  0  0  0  0  0
   -1.1798   62.4611   82.1258 C   0  0  0  0  0  0  0  0  0  0  0  0
   -0.4227   61.2431   81.5901 C   0  0  0  0  0  0  0  0  0  0  0  0
    1.0568   61.2533   81.9486 C   0  0  0  0  0  0  0  0  0  0  0  0
    1.4207   69.2507   80.8176 S   0  0  0  0  0  0  0  0  0  0  0  0
    2.4027   69.3258   79.7564 O   0  0  0  0  0  0  0  0  0  0  0  0
    0.1115   68.6804   80.5901 O   0  0  0  0  0  0  0  0  0  0  0  0
    1.2234   70.8236   81.4374 N   0  0  0  0  0  0  0  0  0  0  0  0
    2.2969   71.3245   82.3280 C   0  0  0  0  0  0  0  0  0  0  0  0
    1.9082   72.6743   82.9370 C   0  0  0  0  0  0  0  0  0  0  0  0
    1.0524   73.5306   81.9792 C   0  0  0  0  0  0  0  0  0  0  0  0
   -0.2445   72.7647   81.6298 C   0  0  0  0  0  0  0  0  0  0  0  0
   -0.1339   71.2495   81.8279 C   0  0  0  0  0  0  0  0  0  0  0  0
    1.8551   73.9760   80.7143 C   0  0  0  0  0  0  0  0  0  0  0  0
    1.1115   75.0303   79.8615 C   0  0  0  0  0  0  0  0  0  0  0  0
    1.5073   74.8950   78.4959 O   0  0  0  0  0  0  0  0  0  0  0  0
    2.4677   75.8585   78.1056 N   0  0  0  0  0  0  0  0  0  0  0  0
    3.4750   75.4481   77.5292 O   0  0  0  0  0  0  0  0  0  0  0  0
    2.1376   77.0038   78.4044 O   0  0  0  0  0  0  0  0  0  0  0  0
    3.0805   74.5549   81.1967 O   0  0  0  0  0  0  0  0  0  0  0  0
    4.2502   74.0281   80.5963 N   0  0  0  0  0  0  0  0  0  0  0  0
    4.1161   73.0527   79.8591 O   0  0  0  0  0  0  0  0  0  0  0  0
    5.2603   74.6588   80.8982 O   0  0  0  0  0  0  0  0  0  0  0  0
    3.8214   66.2185   85.3498 O   0  0  0  0  0  0  0  0  0  0  0  0
    5.1467   66.5101   85.7993 C   0  0  0  0  0  0  0  0  0  0  0  0
    7.2989   65.7645   84.6881 C   0  0  0  0  0  0  0  0  0  0  0  0
    6.0515   65.3313   85.4457 C   0  0  0  0  0  0  0  0  0  0  0  0
 43 44  1  0  0  0
 44 42  1  0  0  0
 42 41  1  0  0  0
 41  1  1  0  0  0
  1  2  1  0  0  0
  2  3  2  0  0  0
  3  4  1  0  0  0
  4 22  1  0  0  0
 22 23  2  0  0  0
 22 24  2  0  0  0
 22 25  1  0  0  0
 25 26  1  0  0  0
 26 27  1  0  0  0
 27 28  1  0  0  0
 28 31  1  0  0  0
 31 32  1  0  0  0
 32 33  1  0  0  0
 33 34  1  0  0  0
 34 35  2  0  0  0
 34 36  1  0  0  0
 31 37  1  0  0  0
 37 38  1  0  0  0
 38 39  2  0  0  0
 38 40  1  0  0  0
 28 29  1  0  0  0
 29 30  1  0  0  0
  4  5  2  0  0  0
  5  6  1  0  0  0
  6  7  1  0  0  0
  7  8  2  0  0  0
  8  9  1  0  0  0
  9 10  1  0  0  0
 10 19  1  0  0  0
 19 20  1  0  0  0
 20 21  1  0  0  0
 10 11  2  0  0  0
 11 12  1  0  0  0
 12 13  1  0  0  0
 12 14  1  0  0  0
 14 15  1  0  0  0
 15 16  2  0  0  0
 15 17  1  0  0  0
  6  1  2  0  0  0
 17  7  1  0  0  0
 30 25  1  0  0  0
 14  9  2  0  0  0
 17 18  1  0  0  0
M  CHG 1  34   1
M  CHG 1  36  -1
M  CHG 1  38   1
M  CHG 1  40  -1
M  END
> <minimizedAffinity>
-8.73982

$$$$



 44 47  0  0  0  0  0  0  0  0999 V2000
    0.2534   63.7340   85.5628 C   0  0  0  0  0  0  0  0  0  0  0  0
   -0.9066   62.9861   85.3071 C   0  0  0  0  0  0  0  0  0  0  0  0
   -1.5650   63.0806   84.0772 C   0  0  0  0  0  0  0  0  0  0  0  0
   -1.0699   63.9341   83.0939 C   0  0  0  0  0  0  0  0  0  0  0  0
    0.0565   64.7167   83.3447 C   0  0  0  0  0  0  0  0  0  0  0  0
    0.7425   64.6090   84.5673 C   0  0  0  0  0  0  0  0  0  0  0  0
    1.9969   65.4280   84.7004 C   0  0  0  0  0  0  0  0  0  0  0  0
    2.0929   66.5512   84.0434 N   0  0  0  0  0  0  0  0  0  0  0  0
    3.2990   67.2272   84.2276 C   0  0  0  0  0  0  0  0  0  0  0  0
    3.6774   68.4555   83.6493 C   0  0  0  0  0  0  0  0  0  0  0  0
    4.9567   68.7053   84.1275 C   0  0  0  0  0  0  0  0  0  0  0  0
    5.3295   67.6689   84.9539 N   0  0  0  0  0  0  0  0  0  0  0  0
    6.5947   67.5651   85.6446 C   0  0  0  0  0  0  0  0  0  0  0  0
    4.3111   66.7582   85.0186 C   0  0  0  0  0  0  0  0  0  0  0  0
    4.2087   65.5284   85.7310 C   0  0  0  0  0  0  0  0  0  0  0  0
    5.0784   65.0312   86.4383 O   0  0  0  0  0  0  0  0  0  0  0  0
    2.9904   64.9256   85.5277 N   0  0  0  0  0  0  0  0  0  0  0  0
    2.8620   64.0308   85.9808 H   0  0  0  0  0  0  0  0  0  0  0  0
    2.8721   69.3143   82.7312 C   0  0  0  0  0  0  0  0  0  0  0  0
    2.4786   68.6248   81.4223 C   0  0  0  0  0  0  0  0  0  0  0  0
    0.9970   68.7573   81.0984 C   0  0  0  0  0  0  0  0  0  0  0  0
   -1.8989   64.0731   81.5252 S   0  0  0  0  0  0  0  0  0  0  0  0
   -3.3220   63.9885   81.7775 O   0  0  0  0  0  0  0  0  0  0  0  0
   -1.3254   65.2043   80.8307 O   0  0  0  0  0  0  0  0  0  0  0  0
   -1.4441   62.6512   80.7075 N   0  0  0  0  0  0  0  0  0  0  0  0
   -2.4518   61.5659   80.6545 C   0  0  0  0  0  0  0  0  0  0  0  0
   -1.8507   60.2995   80.0391 C   0  0  0  0  0  0  0  0  0  0  0  0
   -0.7974   60.6116   78.9547 C   0  0  0  0  0  0  0  0  0  0  0  0
    0.3497   61.4388   79.5795 C   0  0  0  0  0  0  0  0  0  0  0  0
   -0.0547   62.1792   80.8585 C   0  0  0  0  0  0  0  0  0  0  0  0
   -1.4307   61.2994   77.7022 C   0  0  0  0  0  0  0  0  0  0  0  0
   -0.6868   62.5852   77.2723 C   0  0  0  0  0  0  0  0  0  0  0  0
   -1.6401   63.6185   77.0204 O   0  0  0  0  0  0  0  0  0  0  0  0
   -1.0609   64.9098   77.0186 N   0  0  0  0  0  0  0  0  0  0  0  0
    0.0151   65.0453   77.6009 O   0  0  0  0  0  0  0  0  0  0  0  0
   -1.7394   65.7319   76.4073 O   0  0  0  0  0  0  0  0  0  0  0  0
   -1.3510   60.3415   76.6319 O   0  0  0  0  0  0  0  0  0  0  0  0
   -2.3167   59.3077   76.7015 N   0  0  0  0  0  0  0  0  0  0  0  0
   -3.4948   59.6423   76.8144 O   0  0  0  0  0  0  0  0  0  0  0  0
   -1.8166   58.1887   76.6172 O   0  0  0  0  0  0  0  0  0  0  0  0
    0.9479   63.6680   86.7435 O   0  0  0  0  0  0  0  0  0  0  0  0
    0.2901   64.0797   87.9441 C   0  0  0  0  0  0  0  0  0  0  0  0
   -0.2615   61.7517   88.7799 C   0  0  0  0  0  0  0  0  0  0  0  0
    0.5371   63.0252   89.0212 C   0  0  0  0  0  0  0  0  0  0  0  0
 43 44  1  0  0  0
 44 42  1  0  0  0
 42 41  1  0  0  0
 41  1  1  0  0  0
  1  2  1  0  0  0
  2  3  2  0  0  0
  3  4  1  0  0  0
  4 22  1  0  0  0
 22 23  2  0  0  0
 22 24  2  0  0  0
 22 25  1  0  0  0
 25 26  1  0  0  0
 26 27  1  0  0  0
 27 28  1  0  0  0
 28 31  1  0  0  0
 31 32  1  0  0  0
 32 33  1  0  0  0
 33 34  1  0  0  0
 34 35  2  0  0  0
 34 36  1  0  0  0
 31 37  1  0  0  0
 37 38  1  0  0  0
 38 39  2  0  0  0
 38 40  1  0  0  0
 28 29  1  0  0  0
 29 30  1  0  0  0
  4  5  2  0  0  0
  5  6  1  0  0  0
  6  7  1  0  0  0
  7  8  2  0  0  0
  8  9  1  0  0  0
  9 10  1  0  0  0
 10 19  1  0  0  0
 19 20  1  0  0  0
 20 21  1  0  0  0
 10 11  2  0  0  0
 11 12  1  0  0  0
 12 13  1  0  0  0
 12 14  1  0  0  0
 14 15  1  0  0  0
 15 16  2  0  0  0
 15 17  1  0  0  0
  6  1  2  0  0  0
 17  7  1  0  0  0
 30 25  1  0  0  0
 14  9  2  0  0  0
 17 18  1  0  0  0
M  CHG 1  34   1
M  CHG 1  36  -1
M  CHG 1  38   1
M  CHG 1  40  -1
M  END
> <minimizedAffinity>
-8.62159

$$$$



 44 47  0  0  0  0  0  0  0  0999 V2000
    3.2617   67.3801   83.9667 C   0  0  0  0  0  0  0  0  0  0  0  0
    4.0118   68.5243   83.6528 C   0  0  0  0  0  0  0  0  0  0  0  0
    3.6763   69.3238   82.5558 C   0  0  0  0  0  0  0  0  0  0  0  0
    2.5887   68.9774   81.7572 C   0  0  0  0  0  0  0  0  0  0  0  0
    1.8578   67.8213   82.0281 C   0  0  0  0  0  0  0  0  0  0  0  0
    2.1689   67.0255   83.1447 C   0  0  0  0  0  0  0  0  0  0  0  0
    1.2618   65.8533   83.3993 C   0  0  0  0  0  0  0  0  0  0  0  0
    1.0566   65.4660   84.6283 N   0  0  0  0  0  0  0  0  0  0  0  0
    0.2092   64.3652   84.7535 C   0  0  0  0  0  0  0  0  0  0  0  0
   -0.1891   63.7359   85.9501 C   0  0  0  0  0  0  0  0  0  0  0  0
   -1.0197   62.6955   85.5562 C   0  0  0  0  0  0  0  0  0  0  0  0
   -1.1117   62.6995   84.1824 N   0  0  0  0  0  0  0  0  0  0  0  0
   -1.8860   61.7678   83.3943 C   0  0  0  0  0  0  0  0  0  0  0  0
   -0.3575   63.7267   83.6853 C   0  0  0  0  0  0  0  0  0  0  0  0
   -0.1283   64.1456   82.3428 C   0  0  0  0  0  0  0  0  0  0  0  0
   -0.5792   63.6121   81.3349 O   0  0  0  0  0  0  0  0  0  0  0  0
    0.6924   65.2469   82.2894 N   0  0  0  0  0  0  0  0  0  0  0  0
    0.9219   65.5790   81.3623 H   0  0  0  0  0  0  0  0  0  0  0  0
    0.1869   64.1137   87.3446 C   0  0  0  0  0  0  0  0  0  0  0  0
   -0.6228   63.3899   88.4234 C   0  0  0  0  0  0  0  0  0  0  0  0
    0.1948   62.3666   89.1993 C   0  0  0  0  0  0  0  0  0  0  0  0
    2.1514   69.9787   80.3524 S   0  0  0  0  0  0  0  0  0  0  0  0
    3.3781   70.5208   79.8072 O   0  0  0  0  0  0  0  0  0  0  0  0
    1.2438   69.2052   79.5346 O   0  0  0  0  0  0  0  0  0  0  0  0
    1.2871   71.2736   81.0404 N   0  0  0  0  0  0  0  0  0  0  0  0
    2.0894   72.3256   81.7080 C   0  0  0  0  0  0  0  0  0  0  0  0
    1.1789   73.3309   82.4182 C   0  0  0  0  0  0  0  0  0  0  0  0
   -0.1578   73.5448   81.6764 C   0  0  0  0  0  0  0  0  0  0  0  0
   -0.9083   72.1967   81.5768 C   0  0  0  0  0  0  0  0  0  0  0  0
    0.0063   70.9747   81.7085 C   0  0  0  0  0  0  0  0  0  0  0  0
    0.0454   74.2317   80.2872 C   0  0  0  0  0  0  0  0  0  0  0  0
   -1.2750   74.7325   79.6568 C   0  0  0  0  0  0  0  0  0  0  0  0
   -1.6308   73.8781   78.5691 O   0  0  0  0  0  0  0  0  0  0  0  0
   -2.9433   73.3615   78.6848 N   0  0  0  0  0  0  0  0  0  0  0  0
   -3.8668   74.1743   78.7280 O   0  0  0  0  0  0  0  0  0  0  0  0
   -2.9672   72.1334   78.7185 O   0  0  0  0  0  0  0  0  0  0  0  0
    0.9038   75.3628   80.5177 O   0  0  0  0  0  0  0  0  0  0  0  0
    1.8538   75.5923   79.4925 N   0  0  0  0  0  0  0  0  0  0  0  0
    2.1338   76.7617   79.2336 O   0  0  0  0  0  0  0  0  0  0  0  0
    2.2867   74.5494   79.0085 O   0  0  0  0  0  0  0  0  0  0  0  0
    3.5355   66.5702   85.0390 O   0  0  0  0  0  0  0  0  0  0  0  0
    4.7661   65.8426   85.0459 C   0  0  0  0  0  0  0  0  0  0  0  0
    5.4855   65.4857   87.4495 C   0  0  0  0  0  0  0  0  0  0  0  0
    5.6248   66.3488   86.2032 C   0  0  0  0  0  0  0  0  0  0  0  0
 43 44  1  0  0  0
 44 42  1  0  0  0
 42 41  1  0  0  0
 41  1  1  0  0  0
  1  2  1  0  0  0
  2  3  2  0  0  0
  3  4  1  0  0  0
  4 22  1  0  0  0
 22 23  2  0  0  0
 22 24  2  0  0  0
 22 25  1  0  0  0
 25 26  1  0  0  0
 26 27  1  0  0  0
 27 28  1  0  0  0
 28 31  1  0  0  0
 31 32  1  0  0  0
 32 33  1  0  0  0
 33 34  1  0  0  0
 34 35  2  0  0  0
 34 36  1  0  0  0
 31 37  1  0  0  0
 37 38  1  0  0  0
 38 39  2  0  0  0
 38 40  1  0  0  0
 28 29  1  0  0  0
 29 30  1  0  0  0
  4  5  2  0  0  0
  5  6  1  0  0  0
  6  7  1  0  0  0
  7  8  2  0  0  0
  8  9  1  0  0  0
  9 10  1  0  0  0
 10 19  1  0  0  0
 19 20  1  0  0  0
 20 21  1  0  0  0
 10 11  2  0  0  0
 11 12  1  0  0  0
 12 13  1  0  0  0
 12 14  1  0  0  0
 14 15  1  0  0  0
 15 16  2  0  0  0
 15 17  1  0  0  0
  6  1  2  0  0  0
 17  7  1  0  0  0
 30 25  1  0  0  0
 14  9  2  0  0  0
 17 18  1  0  0  0
M  CHG 1  34   1
M  CHG 1  36  -1
M  CHG 1  38   1
M  CHG 1  40  -1
M  END
> <minimizedAffinity>
-8.59382

$$$$



 44 47  0  0  0  0  0  0  0  0999 V2000
   -0.1014   63.8668   84.1918 C   0  0  0  0  0  0  0  0  0  0  0  0
   -1.0673   63.7220   83.1836 C   0  0  0  0  0  0  0  0  0  0  0  0
   -0.9490   64.4100   81.9721 C   0  0  0  0  0  0  0  0  0  0  0  0
    0.1366   65.2578   81.7639 C   0  0  0  0  0  0  0  0  0  0  0  0
    1.0834   65.4473   82.7697 C   0  0  0  0  0  0  0  0  0  0  0  0
    0.9895   64.7393   83.9808 C   0  0  0  0  0  0  0  0  0  0  0  0
    2.1112   64.9464   84.9609 C   0  0  0  0  0  0  0  0  0  0  0  0
    3.1858   65.5753   84.5705 N   0  0  0  0  0  0  0  0  0  0  0  0
    4.1684   65.7046   85.5520 C   0  0  0  0  0  0  0  0  0  0  0  0
    5.4223   66.3338   85.4162 C   0  0  0  0  0  0  0  0  0  0  0  0
    6.0354   66.1966   86.6542 C   0  0  0  0  0  0  0  0  0  0  0  0
    5.1864   65.5113   87.4941 N   0  0  0  0  0  0  0  0  0  0  0  0
    5.4675   65.1716   88.8704 C   0  0  0  0  0  0  0  0  0  0  0  0
    4.0360   65.2081   86.8192 C   0  0  0  0  0  0  0  0  0  0  0  0
    2.8652   64.5157   87.2436 C   0  0  0  0  0  0  0  0  0  0  0  0
    2.6819   64.0223   88.3512 O   0  0  0  0  0  0  0  0  0  0  0  0
    1.9279   64.4443   86.2408 N   0  0  0  0  0  0  0  0  0  0  0  0
    1.0823   63.9374   86.4653 H   0  0  0  0  0  0  0  0  0  0  0  0
    5.9706   67.0161   84.2068 C   0  0  0  0  0  0  0  0  0  0  0  0
    7.4974   66.9689   84.1063 C   0  0  0  0  0  0  0  0  0  0  0  0
    8.0615   65.5601   84.2276 C   0  0  0  0  0  0  0  0  0  0  0  0
    0.2997   66.1477   80.2313 S   0  0  0  0  0  0  0  0  0  0  0  0
   -0.8140   67.0686   80.1435 O   0  0  0  0  0  0  0  0  0  0  0  0
    1.6664   66.6116   80.1429 O   0  0  0  0  0  0  0  0  0  0  0  0
    0.0598   64.9484   79.0475 N   0  0  0  0  0  0  0  0  0  0  0  0
    1.0843   63.8805   78.9687 C   0  0  0  0  0  0  0  0  0  0  0  0
    0.8287   62.9740   77.7617 C   0  0  0  0  0  0  0  0  0  0  0  0
   -0.6748   62.8117   77.4520 C   0  0  0  0  0  0  0  0  0  0  0  0
   -1.2879   64.1996   77.1547 C   0  0  0  0  0  0  0  0  0  0  0  0
   -0.4821   65.3639   77.7399 C   0  0  0  0  0  0  0  0  0  0  0  0
   -1.4282   62.0445   78.5862 C   0  0  0  0  0  0  0  0  0  0  0  0
   -2.7149   61.3414   78.0948 C   0  0  0  0  0  0  0  0  0  0  0  0
   -2.6726   59.9647   78.4727 O   0  0  0  0  0  0  0  0  0  0  0  0
   -3.6057   59.6461   79.4879 N   0  0  0  0  0  0  0  0  0  0  0  0
   -4.3041   60.5635   79.9190 O   0  0  0  0  0  0  0  0  0  0  0  0
   -3.5844   58.4562   79.7939 O   0  0  0  0  0  0  0  0  0  0  0  0
   -0.5149   61.0456   79.0736 O   0  0  0  0  0  0  0  0  0  0  0  0
   -0.2878   61.0952   80.4708 N   0  0  0  0  0  0  0  0  0  0  0  0
   -1.2642   60.9609   81.2066 O   0  0  0  0  0  0  0  0  0  0  0  0
    0.8980   61.2529   80.7506 O   0  0  0  0  0  0  0  0  0  0  0  0
   -0.1586   63.2043   85.3912 O   0  0  0  0  0  0  0  0  0  0  0  0
   -1.2513   62.3126   85.6249 C   0  0  0  0  0  0  0  0  0  0  0  0
   -1.6503   63.1232   87.9926 C   0  0  0  0  0  0  0  0  0  0  0  0
   -2.2275   62.9809   86.5911 C   0  0  0  0  0  0  0  0  0  0  0  0
 43 44  1  0  0  0
 44 42  1  0  0  0
 42 41  1  0  0  0
 41  1  1  0  0  0
  1  2  1  0  0  0
  2  3  2  0  0  0
  3  4  1  0  0  0
  4 22  1  0  0  0
 22 23  2  0  0  0
 22 24  2  0  0  0
 22 25  1  0  0  0
 25 26  1  0  0  0
 26 27  1  0  0  0
 27 28  1  0  0  0
 28 31  1  0  0  0
 31 32  1  0  0  0
 32 33  1  0  0  0
 33 34  1  0  0  0
 34 35  2  0  0  0
 34 36  1  0  0  0
 31 37  1  0  0  0
 37 38  1  0  0  0
 38 39  2  0  0  0
 38 40  1  0  0  0
 28 29  1  0  0  0
 29 30  1  0  0  0
  4  5  2  0  0  0
  5  6  1  0  0  0
  6  7  1  0  0  0
  7  8  2  0  0  0
  8  9  1  0  0  0
  9 10  1  0  0  0
 10 19  1  0  0  0
 19 20  1  0  0  0
 20 21  1  0  0  0
 10 11  2  0  0  0
 11 12  1  0  0  0
 12 13  1  0  0  0
 12 14  1  0  0  0
 14 15  1  0  0  0
 15 16  2  0  0  0
 15 17  1  0  0  0
  6  1  2  0  0  0
 17  7  1  0  0  0
 30 25  1  0  0  0
 14  9  2  0  0  0
 17 18  1  0  0  0
M  CHG 1  34   1
M  CHG 1  36  -1
M  CHG 1  38   1
M  CHG 1  40  -1
M  END
> <minimizedAffinity>
-8.55036

$$$$



 44 47  0  0  0  0  0  0  0  0999 V2000
    2.5644   67.8311   83.9230 C   0  0  0  0  0  0  0  0  0  0  0  0
    2.1183   66.5187   84.1447 C   0  0  0  0  0  0  0  0  0  0  0  0
    1.3924   65.8325   83.1663 C   0  0  0  0  0  0  0  0  0  0  0  0
    1.0993   66.4606   81.9579 C   0  0  0  0  0  0  0  0  0  0  0  0
    1.4971   67.7784   81.7362 C   0  0  0  0  0  0  0  0  0  0  0  0
    2.2516   68.4682   82.7015 C   0  0  0  0  0  0  0  0  0  0  0  0
    2.7083   69.8508   82.3252 C   0  0  0  0  0  0  0  0  0  0  0  0
    3.5195   69.9967   81.3137 N   0  0  0  0  0  0  0  0  0  0  0  0
    3.8898   71.3165   81.0557 C   0  0  0  0  0  0  0  0  0  0  0  0
    4.7469   71.7703   80.0329 C   0  0  0  0  0  0  0  0  0  0  0  0
    4.8079   73.1481   80.1925 C   0  0  0  0  0  0  0  0  0  0  0  0
    4.0239   73.5035   81.2671 N   0  0  0  0  0  0  0  0  0  0  0  0
    3.8302   74.8518   81.7502 C   0  0  0  0  0  0  0  0  0  0  0  0
    3.4564   72.3787   81.7998 C   0  0  0  0  0  0  0  0  0  0  0  0
    2.5757   72.2187   82.9084 C   0  0  0  0  0  0  0  0  0  0  0  0
    2.1635   73.1154   83.6362 O   0  0  0  0  0  0  0  0  0  0  0  0
    2.2297   70.9015   83.0939 N   0  0  0  0  0  0  0  0  0  0  0  0
    1.6294   70.7123   83.8852 H   0  0  0  0  0  0  0  0  0  0  0  0
    5.4317   70.9500   78.9903 C   0  0  0  0  0  0  0  0  0  0  0  0
    6.4632   71.7269   78.1681 C   0  0  0  0  0  0  0  0  0  0  0  0
    6.2463   71.6041   76.6663 C   0  0  0  0  0  0  0  0  0  0  0  0
    0.1699   65.6055   80.7040 S   0  0  0  0  0  0  0  0  0  0  0  0
   -1.0171   66.3891   80.4336 O   0  0  0  0  0  0  0  0  0  0  0  0
    1.0916   65.2503   79.6480 O   0  0  0  0  0  0  0  0  0  0  0  0
   -0.3320   64.1785   81.4844 N   0  0  0  0  0  0  0  0  0  0  0  0
   -1.7185   64.1617   82.0075 C   0  0  0  0  0  0  0  0  0  0  0  0
   -1.9735   62.8909   82.8223 C   0  0  0  0  0  0  0  0  0  0  0  0
   -1.1956   61.6737   82.2782 C   0  0  0  0  0  0  0  0  0  0  0  0
    0.3199   61.9776   82.3154 C   0  0  0  0  0  0  0  0  0  0  0  0
    0.6445   63.4748   82.3371 C   0  0  0  0  0  0  0  0  0  0  0  0
   -1.6950   61.2437   80.8610 C   0  0  0  0  0  0  0  0  0  0  0  0
   -0.5428   60.9737   79.8655 C   0  0  0  0  0  0  0  0  0  0  0  0
   -0.8228   61.6351   78.6310 O   0  0  0  0  0  0  0  0  0  0  0  0
   -0.5796   60.8158   77.5029 N   0  0  0  0  0  0  0  0  0  0  0  0
   -0.8650   59.6225   77.6014 O   0  0  0  0  0  0  0  0  0  0  0  0
   -0.1096   61.4419   76.5558 O   0  0  0  0  0  0  0  0  0  0  0  0
   -2.4379   60.0259   81.0469 O   0  0  0  0  0  0  0  0  0  0  0  0
   -3.3990   59.7696   80.0385 N   0  0  0  0  0  0  0  0  0  0  0  0
   -3.5802   58.5964   79.7164 O   0  0  0  0  0  0  0  0  0  0  0  0
   -3.9422   60.7943   79.6332 O   0  0  0  0  0  0  0  0  0  0  0  0
    3.2934   68.5443   84.8398 O   0  0  0  0  0  0  0  0  0  0  0  0
    4.4335   67.9214   85.4362 C   0  0  0  0  0  0  0  0  0  0  0  0
    6.3565   66.5484   84.5198 C   0  0  0  0  0  0  0  0  0  0  0  0
    5.5410   67.8273   84.3884 C   0  0  0  0  0  0  0  0  0  0  0  0
 43 44  1  0  0  0
 44 42  1  0  0  0
 42 41  1  0  0  0
 41  1  1  0  0  0
  1  2  1  0  0  0
  2  3  2  0  0  0
  3  4  1  0  0  0
  4 22  1  0  0  0
 22 23  2  0  0  0
 22 24  2  0  0  0
 22 25  1  0  0  0
 25 26  1  0  0  0
 26 27  1  0  0  0
 27 28  1  0  0  0
 28 31  1  0  0  0
 31 32  1  0  0  0
 32 33  1  0  0  0
 33 34  1  0  0  0
 34 35  2  0  0  0
 34 36  1  0  0  0
 31 37  1  0  0  0
 37 38  1  0  0  0
 38 39  2  0  0  0
 38 40  1  0  0  0
 28 29  1  0  0  0
 29 30  1  0  0  0
  4  5  2  0  0  0
  5  6  1  0  0  0
  6  7  1  0  0  0
  7  8  2  0  0  0
  8  9  1  0  0  0
  9 10  1  0  0  0
 10 19  1  0  0  0
 19 20  1  0  0  0
 20 21  1  0  0  0
 10 11  2  0  0  0
 11 12  1  0  0  0
 12 13  1  0  0  0
 12 14  1  0  0  0
 14 15  1  0  0  0
 15 16  2  0  0  0
 15 17  1  0  0  0
  6  1  2  0  0  0
 17  7  1  0  0  0
 30 25  1  0  0  0
 14  9  2  0  0  0
 17 18  1  0  0  0
M  CHG 1  34   1
M  CHG 1  36  -1
M  CHG 1  38   1
M  CHG 1  40  -1
M  END
> <minimizedAffinity>
-8.46642

$$$$
