
     RDKit          3D

 60 63  0  0  0  0  0  0  0  0999 V2000
   -5.8453   -4.4895   -0.0926 C   0  0  0  0  0  0  0  0  0  0  0  0
   -5.8931   -3.1694   -0.8459 C   0  0  0  0  0  0  0  0  0  0  0  0
   -4.5783   -2.3923   -0.7985 C   0  0  0  0  0  0  0  0  0  0  0  0
   -4.1935   -1.9293    0.6064 C   0  0  0  0  0  0  0  0  0  0  0  0
   -2.9880   -1.1632    0.5616 O   0  0  0  0  0  0  0  0  0  0  0  0
   -3.1556    0.2039    0.4805 C   0  0  0  0  0  0  0  0  0  0  0  0
   -4.3708    0.6783    0.0982 N   0  0  0  0  0  0  0  0  0  0  0  0
   -4.4945    2.0159   -0.0631 C   0  0  0  0  0  0  0  0  0  0  0  0
   -3.4575    2.9144    0.1241 C   0  0  0  0  0  0  0  0  0  0  0  0
   -3.6192    4.3793   -0.0666 C   0  0  0  0  0  0  0  0  0  0  0  0
   -4.9554    4.9172   -0.5078 C   0  0  0  0  0  0  0  0  0  0  0  0
   -2.6668    5.1284    0.1382 O   0  0  0  0  0  0  0  0  0  0  0  0
   -2.2180    2.3972    0.5098 C   0  0  0  0  0  0  0  0  0  0  0  0
   -2.0402    1.0144    0.7047 C   0  0  0  0  0  0  0  0  0  0  0  0
   -0.7386    0.4829    1.1190 C   0  0  0  0  0  0  0  0  0  0  0  0
   -0.7426   -0.3443    2.2157 N   0  0  0  0  0  0  0  0  0  0  0  0
    0.4341   -0.8356    2.6645 C   0  0  0  0  0  0  0  0  0  0  0  0
    0.4289   -1.6643    3.7569 O   0  0  0  0  0  0  0  0  0  0  0  0
    1.5992   -0.4470    1.9907 C   0  0  0  0  0  0  0  0  0  0  0  0
    2.8942   -0.7346    2.2173 N   0  0  0  0  0  0  0  0  0  0  0  0
    3.5631   -0.1058    1.2069 N   0  0  0  0  0  0  0  0  0  0  0  0
    5.0258   -0.1697    1.2010 C   0  0  0  0  0  0  0  0  0  0  0  0
    5.5621   -0.8469   -0.0170 C   0  0  0  0  0  0  0  0  0  0  0  0
    5.0840   -1.9428   -0.5786 N   0  0  0  0  0  0  0  0  0  0  0  0
    5.8866   -2.2065   -1.6546 C   0  0  0  0  0  0  0  0  0  0  0  0
    6.8825   -1.2676   -1.7535 C   0  0  0  0  0  0  0  0  0  0  0  0
    6.6768   -0.4160   -0.7043 N   0  0  0  0  0  0  0  0  0  0  0  0
    7.5050    0.7224   -0.3864 C   0  0  0  0  0  0  0  0  0  0  0  0
    2.7490    0.6636    0.3974 C   0  0  0  0  0  0  0  0  0  0  0  0
    3.2068    1.5188   -0.7323 C   0  0  0  0  0  0  0  0  0  0  0  0
    2.9404    0.8707   -2.0824 C   0  0  0  0  0  0  0  0  0  0  0  0
    1.4864    0.4298    0.8748 C   0  0  0  0  0  0  0  0  0  0  0  0
    0.3333    0.9434    0.3993 N   0  0  0  0  0  0  0  0  0  0  0  0
   -6.7794   -5.0407   -0.2414 H   0  0  0  0  0  0  0  0  0  0  0  0
   -5.0218   -5.1161   -0.4494 H   0  0  0  0  0  0  0  0  0  0  0  0
   -5.7213   -4.3332    0.9830 H   0  0  0  0  0  0  0  0  0  0  0  0
   -6.1377   -3.3753   -1.8948 H   0  0  0  0  0  0  0  0  0  0  0  0
   -6.7055   -2.5509   -0.4469 H   0  0  0  0  0  0  0  0  0  0  0  0
   -4.6603   -1.5239   -1.4630 H   0  0  0  0  0  0  0  0  0  0  0  0
   -3.7650   -3.0001   -1.2148 H   0  0  0  0  0  0  0  0  0  0  0  0
   -3.9681   -2.8038    1.2267 H   0  0  0  0  0  0  0  0  0  0  0  0
   -5.0117   -1.4028    1.1137 H   0  0  0  0  0  0  0  0  0  0  0  0
   -5.4908    2.3268   -0.3610 H   0  0  0  0  0  0  0  0  0  0  0  0
   -5.2323    4.4964   -1.4779 H   0  0  0  0  0  0  0  0  0  0  0  0
   -5.7179    4.6999    0.2446 H   0  0  0  0  0  0  0  0  0  0  0  0
   -4.8863    6.0040   -0.6180 H   0  0  0  0  0  0  0  0  0  0  0  0
   -1.3764    3.0723    0.6661 H   0  0  0  0  0  0  0  0  0  0  0  0
    1.3676   -1.9052    3.8688 H   0  0  0  0  0  0  0  0  0  0  0  0
    5.3758    0.8623    1.3034 H   0  0  0  0  0  0  0  0  0  0  0  0
    5.3406   -0.7213    2.0941 H   0  0  0  0  0  0  0  0  0  0  0  0
    5.7051   -3.0580   -2.2978 H   0  0  0  0  0  0  0  0  0  0  0  0
    7.6935   -1.1488   -2.4585 H   0  0  0  0  0  0  0  0  0  0  0  0
    6.9138    1.6300   -0.5301 H   0  0  0  0  0  0  0  0  0  0  0  0
    7.8360    0.6345    0.6514 H   0  0  0  0  0  0  0  0  0  0  0  0
    8.3748    0.7384   -1.0481 H   0  0  0  0  0  0  0  0  0  0  0  0
    4.2716    1.7560   -0.6456 H   0  0  0  0  0  0  0  0  0  0  0  0
    2.6795    2.4798   -0.6890 H   0  0  0  0  0  0  0  0  0  0  0  0
    1.8697    0.6995   -2.2373 H   0  0  0  0  0  0  0  0  0  0  0  0
    3.2976    1.5185   -2.8894 H   0  0  0  0  0  0  0  0  0  0  0  0
    3.4481   -0.0943   -2.1723 H   0  0  0  0  0  0  0  0  0  0  0  0
  1  2  1  0
  2  3  1  0
  3  4  1  0
  4  5  1  0
  5  6  1  0
  6  7  1  0
  7  8  2  0
  8  9  1  0
  9 10  1  0
 10 11  1  0
 10 12  2  0
  9 13  2  0
 13 14  1  0
 14 15  1  0
 15 16  1  0
 16 17  2  0
 17 18  1  0
 17 19  1  0
 19 20  2  0
 20 21  1  0
 21 22  1  0
 22 23  1  0
 23 24  2  0
 24 25  1  0
 25 26  2  0
 26 27  1  0
 27 28  1  0
 21 29  1  0
 29 30  1  0
 30 31  1  0
 29 32  2  0
 32 33  1  0
 14  6  2  0
 33 15  2  0
 32 19  1  0
 27 23  1  0
  1 34  1  0
  1 35  1  0
  1 36  1  0
  2 37  1  0
  2 38  1  0
  3 39  1  0
  3 40  1  0
  4 41  1  0
  4 42  1  0
  8 43  1  0
 11 44  1  0
 11 45  1  0
 11 46  1  0
 13 47  1  0
 18 48  1  0
 22 49  1  0
 22 50  1  0
 25 51  1  0
 26 52  1  0
 28 53  1  0
 28 54  1  0
 28 55  1  0
 30 56  1  0
 30 57  1  0
 31 58  1  0
 31 59  1  0
 31 60  1  0
M  END
$$$$
