
     RDKit          3D

 63 67  0  0  0  0  0  0  0  0999 V2000
   -4.7444    2.7469   -1.5095 C   0  0  0  0  0  0  0  0  0  0  0  0
   -3.2329    2.8678   -1.5835 C   0  0  0  0  0  0  0  0  0  0  0  0
   -2.6819    2.1514   -0.4816 O   0  0  0  0  0  0  0  0  0  0  0  0
   -1.3172    2.1232   -0.3371 C   0  0  0  0  0  0  0  0  0  0  0  0
   -0.4303    2.7682   -1.2135 C   0  0  0  0  0  0  0  0  0  0  0  0
    0.9464    2.7323   -0.9870 C   0  0  0  0  0  0  0  0  0  0  0  0
    1.4423    2.0502    0.1214 C   0  0  0  0  0  0  0  0  0  0  0  0
    3.1952    2.0241    0.4028 S   0  0  0  0  0  0  0  0  0  0  0  0
    3.6686    3.3835    0.2546 O   0  0  0  0  0  0  0  0  0  0  0  0
    3.4604    1.2570    1.6012 O   0  0  0  0  0  0  0  0  0  0  0  0
    3.7617    1.1147   -0.9225 N   0  0  0  0  0  0  0  0  0  0  0  0
    3.3521   -0.3280   -0.9484 C   0  0  0  0  0  0  0  0  0  0  0  0
    4.5313   -1.2698   -0.6437 C   0  0  0  0  0  0  0  0  0  0  0  0
    5.6745   -1.1453   -1.5742 N   0  0  0  0  0  0  0  0  0  0  0  0
    5.6357   -2.1700   -2.6259 C   0  0  0  0  0  0  0  0  0  0  0  0
    6.8960   -2.1879   -3.4851 C   0  0  0  0  0  0  0  0  0  0  0  0
    5.7659    0.2239   -2.1280 C   0  0  0  0  0  0  0  0  0  0  0  0
    5.2283    1.3048   -1.1726 C   0  0  0  0  0  0  0  0  0  0  0  0
    0.5753    1.4090    1.0075 C   0  0  0  0  0  0  0  0  0  0  0  0
   -0.8184    1.4207    0.7871 C   0  0  0  0  0  0  0  0  0  0  0  0
   -1.6975    0.7097    1.7319 C   0  0  0  0  0  0  0  0  0  0  0  0
   -1.4594    0.9291    3.0484 N   0  0  0  0  0  0  0  0  0  0  0  0
   -2.2242    0.2715    3.9346 C   0  0  0  0  0  0  0  0  0  0  0  0
   -1.9468    0.5441    5.2444 O   0  0  0  0  0  0  0  0  0  0  0  0
   -3.2130   -0.6157    3.5234 C   0  0  0  0  0  0  0  0  0  0  0  0
   -4.1167   -1.4019    4.1968 N   0  0  0  0  0  0  0  0  0  0  0  0
   -4.7928   -2.0257    3.2542 C   0  0  0  0  0  0  0  0  0  0  0  0
   -5.8558   -2.9653    3.3560 C   0  0  0  0  0  0  0  0  0  0  0  0
   -6.4042   -3.4785    2.2405 C   0  0  0  0  0  0  0  0  0  0  0  0
   -5.9374   -3.0961    0.9193 C   0  0  0  0  0  0  0  0  0  0  0  0
   -4.9297   -2.2071    0.7921 C   0  0  0  0  0  0  0  0  0  0  0  0
   -4.4127   -1.7776   -0.5479 C   0  0  0  0  0  0  0  0  0  0  0  0
   -4.3610   -1.6761    1.9696 N   0  0  0  0  0  0  0  0  0  0  0  0
   -3.3366   -0.7662    2.1508 C   0  0  0  0  0  0  0  0  0  0  0  0
   -2.6008   -0.1459    1.2080 N   0  0  0  0  0  0  0  0  0  0  0  0
   -5.0500    1.6965   -1.5526 H   0  0  0  0  0  0  0  0  0  0  0  0
   -5.2195    3.2865   -2.3336 H   0  0  0  0  0  0  0  0  0  0  0  0
   -5.1175    3.1485   -0.5615 H   0  0  0  0  0  0  0  0  0  0  0  0
   -2.8858    2.4367   -2.5294 H   0  0  0  0  0  0  0  0  0  0  0  0
   -2.9565    3.9267   -1.5256 H   0  0  0  0  0  0  0  0  0  0  0  0
   -0.7816    3.3182   -2.0809 H   0  0  0  0  0  0  0  0  0  0  0  0
    1.6242    3.2421   -1.6690 H   0  0  0  0  0  0  0  0  0  0  0  0
    2.5447   -0.5256   -0.2366 H   0  0  0  0  0  0  0  0  0  0  0  0
    2.9431   -0.5395   -1.9438 H   0  0  0  0  0  0  0  0  0  0  0  0
    4.1709   -2.3046   -0.5937 H   0  0  0  0  0  0  0  0  0  0  0  0
    4.9061   -1.0431    0.3629 H   0  0  0  0  0  0  0  0  0  0  0  0
    4.7542   -2.0438   -3.2668 H   0  0  0  0  0  0  0  0  0  0  0  0
    5.5540   -3.1596   -2.1592 H   0  0  0  0  0  0  0  0  0  0  0  0
    7.7933   -2.2955   -2.8666 H   0  0  0  0  0  0  0  0  0  0  0  0
    6.9945   -1.2770   -4.0837 H   0  0  0  0  0  0  0  0  0  0  0  0
    6.8628   -3.0354   -4.1778 H   0  0  0  0  0  0  0  0  0  0  0  0
    5.2034    0.2965   -3.0688 H   0  0  0  0  0  0  0  0  0  0  0  0
    6.8152    0.4449   -2.3536 H   0  0  0  0  0  0  0  0  0  0  0  0
    5.7862    1.2771   -0.2288 H   0  0  0  0  0  0  0  0  0  0  0  0
    5.3752    2.2886   -1.6320 H   0  0  0  0  0  0  0  0  0  0  0  0
    0.9757    0.8870    1.8765 H   0  0  0  0  0  0  0  0  0  0  0  0
   -1.2282    1.1926    5.1507 H   0  0  0  0  0  0  0  0  0  0  0  0
   -6.2033   -3.2487    4.3433 H   0  0  0  0  0  0  0  0  0  0  0  0
   -7.2167   -4.1965    2.3039 H   0  0  0  0  0  0  0  0  0  0  0  0
   -6.4239   -3.5454    0.0587 H   0  0  0  0  0  0  0  0  0  0  0  0
   -4.5326   -0.6980   -0.6829 H   0  0  0  0  0  0  0  0  0  0  0  0
   -3.3548   -2.0373   -0.6582 H   0  0  0  0  0  0  0  0  0  0  0  0
   -4.9530   -2.2675   -1.3655 H   0  0  0  0  0  0  0  0  0  0  0  0
  1  2  1  0
  2  3  1  0
  3  4  1  0
  4  5  1  0
  5  6  2  0
  6  7  1  0
  7  8  1  0
  8  9  2  0
  8 10  2  0
  8 11  1  0
 11 12  1  0
 12 13  1  0
 13 14  1  0
 14 15  1  0
 15 16  1  0
 14 17  1  0
 17 18  1  0
  7 19  2  0
 19 20  1  0
 20 21  1  0
 21 22  2  0
 22 23  1  0
 23 24  1  0
 23 25  2  0
 25 26  1  0
 26 27  2  0
 27 28  1  0
 28 29  2  0
 29 30  1  0
 30 31  2  0
 31 32  1  0
 31 33  1  0
 33 34  1  0
 34 35  2  0
 20  4  2  0
 35 21  1  0
 18 11  1  0
 34 25  1  0
 33 27  1  0
  1 36  1  0
  1 37  1  0
  1 38  1  0
  2 39  1  0
  2 40  1  0
  5 41  1  0
  6 42  1  0
 12 43  1  0
 12 44  1  0
 13 45  1  0
 13 46  1  0
 15 47  1  0
 15 48  1  0
 16 49  1  0
 16 50  1  0
 16 51  1  0
 17 52  1  0
 17 53  1  0
 18 54  1  0
 18 55  1  0
 19 56  1  0
 24 57  1  0
 28 58  1  0
 29 59  1  0
 30 60  1  0
 32 61  1  0
 32 62  1  0
 32 63  1  0
M  END
$$$$
