


 40 43  0  0  0  0  0  0  0  0999 V2000
    0.4317   63.8743   83.6975 C   0  0  0  0  0  0  0  0  0  0  0  0
    1.2052   64.9735   83.2987 C   0  0  0  0  0  0  0  0  0  0  0  0
    1.6049   65.9147   84.2429 C   0  0  0  0  0  0  0  0  0  0  0  0
    1.2926   65.7003   85.5698 C   0  0  0  0  0  0  0  0  0  0  0  0
    0.5667   64.6374   85.9931 N   0  0  0  0  0  0  0  0  0  0  0  0
    0.1405   63.7516   85.0586 C   0  0  0  0  0  0  0  0  0  0  0  0
    0.0242   62.1871   79.1313 C   0  0  0  0  0  0  0  0  0  0  0  0
   -0.1946   62.2390   80.4830 C   0  0  0  0  0  0  0  0  0  0  0  0
    0.3469   63.1313   81.4075 N   0  0  0  0  0  0  0  0  0  0  0  0
   -0.0704   62.9552   82.6309 C   0  0  0  0  0  0  0  0  0  0  0  0
   -0.9625   61.9616   83.0155 N   0  0  0  0  0  0  0  0  0  0  0  0
   -1.5453   61.0433   82.1617 C   0  0  0  0  0  0  0  0  0  0  0  0
   -2.3425   60.2019   82.5656 O   0  0  0  0  0  0  0  0  0  0  0  0
   -1.1025   61.2256   80.7976 C   0  0  0  0  0  0  0  0  0  0  0  0
   -1.4556   60.5319   79.7080 N   0  0  0  0  0  0  0  0  0  0  0  0
   -0.7577   61.1320   78.7070 N   0  0  0  0  0  0  0  0  0  0  0  0
   -1.2711   61.8917   83.9763 H   0  0  0  0  0  0  0  0  0  0  0  0
    0.0893   64.1604   77.6041 C   0  0  0  0  0  0  0  0  0  0  0  0
    0.8821   63.0379   78.2594 C   0  0  0  0  0  0  0  0  0  0  0  0
   -0.8840   60.5749   77.3682 C   0  0  0  0  0  0  0  0  0  0  0  0
   -1.4812   59.1713   77.3824 C   0  0  0  0  0  0  0  0  0  0  0  0
   -2.7146   59.1039   76.6579 O   0  0  0  0  0  0  0  0  0  0  0  0
   -3.2984   60.3801   76.4290 C   0  0  0  0  0  0  0  0  0  0  0  0
    2.5369   67.3384   83.7799 S   0  0  0  0  0  0  0  0  0  0  0  0
    2.0023   68.4558   84.5268 O   0  0  0  0  0  0  0  0  0  0  0  0
    2.5889   67.3581   82.3337 O   0  0  0  0  0  0  0  0  0  0  0  0
    4.0902   67.0054   84.3499 N   0  0  0  0  0  0  0  0  0  0  0  0
    4.7021   67.9649   85.3102 C   0  0  0  0  0  0  0  0  0  0  0  0
    5.9939   67.3969   85.9271 C   0  0  0  0  0  0  0  0  0  0  0  0
    5.8201   66.1177   86.6481 N   0  0  0  0  0  0  0  0  0  0  0  0
    4.7405   65.3007   86.0495 C   0  0  0  0  0  0  0  0  0  0  0  0
    4.4884   65.5855   84.5566 C   0  0  0  0  0  0  0  0  0  0  0  0
    5.5953   66.2821   88.0916 C   0  0  0  0  0  0  0  0  0  0  0  0
    6.1694   65.1322   88.9124 C   0  0  0  0  0  0  0  0  0  0  0  0
   -0.6142   62.6747   85.4787 O   0  0  0  0  0  0  0  0  0  0  0  0
   -1.2925   62.8293   86.7399 C   0  0  0  0  0  0  0  0  0  0  0  0
   -2.8021   62.9138   86.5104 C   0  0  0  0  0  0  0  0  0  0  0  0
   -0.9427   61.5939   87.5905 C   0  0  0  0  0  0  0  0  0  0  0  0
   -0.0012   61.8658   88.6272 O   0  0  0  0  0  0  0  0  0  0  0  0
   -0.0858   63.1936   89.1277 C   0  0  0  0  0  0  0  0  0  0  0  0
 18 19  1  0  0  0
 19  7  1  0  0  0
  7  8  2  0  0  0
  8  9  1  0  0  0
  9 10  2  0  0  0
 10  1  1  0  0  0
  1  2  1  0  0  0
  2  3  2  0  0  0
  3 24  1  0  0  0
 24 25  2  0  0  0
 24 26  2  0  0  0
 24 27  1  0  0  0
 27 28  1  0  0  0
 28 29  1  0  0  0
 29 30  1  0  0  0
 30 33  1  0  0  0
 33 34  1  0  0  0
 30 31  1  0  0  0
 31 32  1  0  0  0
  3  4  1  0  0  0
  4  5  2  0  0  0
  5  6  1  0  0  0
  6 35  1  0  0  0
 35 36  1  0  0  0
 36 37  1  0  0  0
 36 38  1  0  0  0
 38 39  1  0  0  0
 39 40  1  0  0  0
 10 11  1  0  0  0
 11 12  1  0  0  0
 12 13  2  0  0  0
 12 14  1  0  0  0
 14 15  2  0  0  0
 15 16  1  0  0  0
 16 20  1  0  0  0
 20 21  1  0  0  0
 21 22  1  0  0  0
 22 23  1  0  0  0
 16  7  1  0  0  0
 14  8  1  0  0  0
  6  1  2  0  0  0
 32 27  1  0  0  0
 11 17  1  0  0  0
M  END
> <minimizedAffinity>
-9.04452

$$$$



 40 43  0  0  0  0  0  0  0  0999 V2000
    0.5574   64.2825   83.5132 C   0  0  0  0  0  0  0  0  0  0  0  0
    0.3924   63.5554   82.3259 C   0  0  0  0  0  0  0  0  0  0  0  0
   -0.2559   62.3242   82.3555 C   0  0  0  0  0  0  0  0  0  0  0  0
   -0.7916   61.8826   83.5480 C   0  0  0  0  0  0  0  0  0  0  0  0
   -0.6708   62.5703   84.7091 N   0  0  0  0  0  0  0  0  0  0  0  0
    0.0051   63.7459   84.6791 C   0  0  0  0  0  0  0  0  0  0  0  0
    1.7988   68.6649   81.7478 C   0  0  0  0  0  0  0  0  0  0  0  0
    1.8618   67.5699   82.5692 C   0  0  0  0  0  0  0  0  0  0  0  0
    1.0407   66.4430   82.5635 N   0  0  0  0  0  0  0  0  0  0  0  0
    1.3608   65.5415   83.4503 C   0  0  0  0  0  0  0  0  0  0  0  0
    2.4120   65.6709   84.3500 N   0  0  0  0  0  0  0  0  0  0  0  0
    3.2719   66.7517   84.4169 C   0  0  0  0  0  0  0  0  0  0  0  0
    4.1944   66.7933   85.2255 O   0  0  0  0  0  0  0  0  0  0  0  0
    2.9398   67.7606   83.4362 C   0  0  0  0  0  0  0  0  0  0  0  0
    3.5501   68.9300   83.2054 N   0  0  0  0  0  0  0  0  0  0  0  0
    2.8391   69.4640   82.1766 N   0  0  0  0  0  0  0  0  0  0  0  0
    2.6294   64.9246   84.9974 H   0  0  0  0  0  0  0  0  0  0  0  0
   -0.3059   69.8394   81.0989 C   0  0  0  0  0  0  0  0  0  0  0  0
    0.8627   68.9821   80.6328 C   0  0  0  0  0  0  0  0  0  0  0  0
    3.2239   70.7862   81.7050 C   0  0  0  0  0  0  0  0  0  0  0  0
    2.9873   71.8645   82.7578 C   0  0  0  0  0  0  0  0  0  0  0  0
    1.5933   72.0739   83.0099 O   0  0  0  0  0  0  0  0  0  0  0  0
    0.9977   73.0051   82.1154 C   0  0  0  0  0  0  0  0  0  0  0  0
   -0.4435   61.3522   80.8960 S   0  0  0  0  0  0  0  0  0  0  0  0
   -1.2195   60.1870   81.2601 O   0  0  0  0  0  0  0  0  0  0  0  0
    0.8698   61.2238   80.3015 O   0  0  0  0  0  0  0  0  0  0  0  0
   -1.3786   62.3249   79.8821 N   0  0  0  0  0  0  0  0  0  0  0  0
   -0.9241   62.5075   78.4759 C   0  0  0  0  0  0  0  0  0  0  0  0
   -2.0032   63.1976   77.6209 C   0  0  0  0  0  0  0  0  0  0  0  0
   -3.2955   62.4811   77.5663 N   0  0  0  0  0  0  0  0  0  0  0  0
   -3.5584   61.7414   78.8213 C   0  0  0  0  0  0  0  0  0  0  0  0
   -2.8571   62.3315   80.0595 C   0  0  0  0  0  0  0  0  0  0  0  0
   -3.4219   61.5837   76.4087 C   0  0  0  0  0  0  0  0  0  0  0  0
   -3.1900   60.1202   76.7691 C   0  0  0  0  0  0  0  0  0  0  0  0
    0.1479   64.4451   85.8609 O   0  0  0  0  0  0  0  0  0  0  0  0
    0.2616   63.6514   87.0575 C   0  0  0  0  0  0  0  0  0  0  0  0
    1.6576   63.8169   87.6594 C   0  0  0  0  0  0  0  0  0  0  0  0
   -0.8136   64.1603   88.0358 C   0  0  0  0  0  0  0  0  0  0  0  0
   -1.6836   63.1333   88.5086 O   0  0  0  0  0  0  0  0  0  0  0  0
   -2.6092   62.6863   87.5268 C   0  0  0  0  0  0  0  0  0  0  0  0
 18 19  1  0  0  0
 19  7  1  0  0  0
  7  8  2  0  0  0
  8  9  1  0  0  0
  9 10  2  0  0  0
 10  1  1  0  0  0
  1  2  1  0  0  0
  2  3  2  0  0  0
  3 24  1  0  0  0
 24 25  2  0  0  0
 24 26  2  0  0  0
 24 27  1  0  0  0
 27 28  1  0  0  0
 28 29  1  0  0  0
 29 30  1  0  0  0
 30 33  1  0  0  0
 33 34  1  0  0  0
 30 31  1  0  0  0
 31 32  1  0  0  0
  3  4  1  0  0  0
  4  5  2  0  0  0
  5  6  1  0  0  0
  6 35  1  0  0  0
 35 36  1  0  0  0
 36 37  1  0  0  0
 36 38  1  0  0  0
 38 39  1  0  0  0
 39 40  1  0  0  0
 10 11  1  0  0  0
 11 12  1  0  0  0
 12 13  2  0  0  0
 12 14  1  0  0  0
 14 15  2  0  0  0
 15 16  1  0  0  0
 16 20  1  0  0  0
 20 21  1  0  0  0
 21 22  1  0  0  0
 22 23  1  0  0  0
 16  7  1  0  0  0
 14  8  1  0  0  0
  6  1  2  0  0  0
 32 27  1  0  0  0
 11 17  1  0  0  0
M  END
> <minimizedAffinity>
-8.92312

$$$$



 40 43  0  0  0  0  0  0  0  0999 V2000
    2.5536   66.6985   84.0123 C   0  0  0  0  0  0  0  0  0  0  0  0
    2.2170   67.5838   82.9785 C   0  0  0  0  0  0  0  0  0  0  0  0
    3.0435   68.6694   82.7037 C   0  0  0  0  0  0  0  0  0  0  0  0
    4.2212   68.8048   83.4097 C   0  0  0  0  0  0  0  0  0  0  0  0
    4.5886   67.9550   84.3991 N   0  0  0  0  0  0  0  0  0  0  0  0
    3.7525   66.9281   84.6921 C   0  0  0  0  0  0  0  0  0  0  0  0
   -1.0478   63.5348   83.0723 C   0  0  0  0  0  0  0  0  0  0  0  0
   -0.0928   64.1771   83.8160 C   0  0  0  0  0  0  0  0  0  0  0  0
    0.7964   65.1678   83.4016 N   0  0  0  0  0  0  0  0  0  0  0  0
    1.5770   65.6169   84.3454 C   0  0  0  0  0  0  0  0  0  0  0  0
    1.5615   65.1554   85.6562 N   0  0  0  0  0  0  0  0  0  0  0  0
    0.7104   64.1817   86.1455 C   0  0  0  0  0  0  0  0  0  0  0  0
    0.7367   63.8337   87.3223 O   0  0  0  0  0  0  0  0  0  0  0  0
   -0.1701   63.6752   85.1169 C   0  0  0  0  0  0  0  0  0  0  0  0
   -1.1216   62.7389   85.2224 N   0  0  0  0  0  0  0  0  0  0  0  0
   -1.6411   62.6681   83.9677 N   0  0  0  0  0  0  0  0  0  0  0  0
    2.1730   65.5624   86.3517 H   0  0  0  0  0  0  0  0  0  0  0  0
   -0.3479   63.1269   80.7113 C   0  0  0  0  0  0  0  0  0  0  0  0
   -1.4181   63.6884   81.6372 C   0  0  0  0  0  0  0  0  0  0  0  0
   -2.6896   61.6880   83.7256 C   0  0  0  0  0  0  0  0  0  0  0  0
   -2.2932   60.6723   82.6587 C   0  0  0  0  0  0  0  0  0  0  0  0
   -3.4003   60.3046   81.8280 O   0  0  0  0  0  0  0  0  0  0  0  0
   -3.1360   60.4685   80.4405 C   0  0  0  0  0  0  0  0  0  0  0  0
    2.6355   69.8360   81.4457 S   0  0  0  0  0  0  0  0  0  0  0  0
    1.5233   69.2857   80.7024 O   0  0  0  0  0  0  0  0  0  0  0  0
    3.8724   70.1984   80.7875 O   0  0  0  0  0  0  0  0  0  0  0  0
    2.0925   71.1825   82.3064 N   0  0  0  0  0  0  0  0  0  0  0  0
    3.0610   72.2840   82.5633 C   0  0  0  0  0  0  0  0  0  0  0  0
    2.3564   73.5335   83.1234 C   0  0  0  0  0  0  0  0  0  0  0  0
    1.2978   74.0855   82.2509 N   0  0  0  0  0  0  0  0  0  0  0  0
    0.6315   73.0208   81.4675 C   0  0  0  0  0  0  0  0  0  0  0  0
    0.6834   71.6284   82.1247 C   0  0  0  0  0  0  0  0  0  0  0  0
    1.7688   75.1560   81.3601 C   0  0  0  0  0  0  0  0  0  0  0  0
    1.5302   74.8446   79.8865 C   0  0  0  0  0  0  0  0  0  0  0  0
    4.1106   66.0672   85.7102 O   0  0  0  0  0  0  0  0  0  0  0  0
    5.4867   66.1216   86.1320 C   0  0  0  0  0  0  0  0  0  0  0  0
    5.5889   65.7694   87.6166 C   0  0  0  0  0  0  0  0  0  0  0  0
    6.2571   65.0969   85.2783 C   0  0  0  0  0  0  0  0  0  0  0  0
    7.1292   65.6958   84.3212 O   0  0  0  0  0  0  0  0  0  0  0  0
    8.1152   66.5347   84.9083 C   0  0  0  0  0  0  0  0  0  0  0  0
 18 19  1  0  0  0
 19  7  1  0  0  0
  7  8  2  0  0  0
  8  9  1  0  0  0
  9 10  2  0  0  0
 10  1  1  0  0  0
  1  2  1  0  0  0
  2  3  2  0  0  0
  3 24  1  0  0  0
 24 25  2  0  0  0
 24 26  2  0  0  0
 24 27  1  0  0  0
 27 28  1  0  0  0
 28 29  1  0  0  0
 29 30  1  0  0  0
 30 33  1  0  0  0
 33 34  1  0  0  0
 30 31  1  0  0  0
 31 32  1  0  0  0
  3  4  1  0  0  0
  4  5  2  0  0  0
  5  6  1  0  0  0
  6 35  1  0  0  0
 35 36  1  0  0  0
 36 37  1  0  0  0
 36 38  1  0  0  0
 38 39  1  0  0  0
 39 40  1  0  0  0
 10 11  1  0  0  0
 11 12  1  0  0  0
 12 13  2  0  0  0
 12 14  1  0  0  0
 14 15  2  0  0  0
 15 16  1  0  0  0
 16 20  1  0  0  0
 20 21  1  0  0  0
 21 22  1  0  0  0
 22 23  1  0  0  0
 16  7  1  0  0  0
 14  8  1  0  0  0
  6  1  2  0  0  0
 32 27  1  0  0  0
 11 17  1  0  0  0
M  END
> <minimizedAffinity>
-8.84440

$$$$



 40 43  0  0  0  0  0  0  0  0999 V2000
    0.0326   65.2124   80.7134 C   0  0  0  0  0  0  0  0  0  0  0  0
    0.0771   63.9881   80.0316 C   0  0  0  0  0  0  0  0  0  0  0  0
   -0.3213   63.9256   78.6995 C   0  0  0  0  0  0  0  0  0  0  0  0
   -0.6797   65.0927   78.0565 C   0  0  0  0  0  0  0  0  0  0  0  0
   -0.7119   66.2961   78.6784 N   0  0  0  0  0  0  0  0  0  0  0  0
   -0.3685   66.3384   79.9898 C   0  0  0  0  0  0  0  0  0  0  0  0
   -0.0821   63.4660   85.2741 C   0  0  0  0  0  0  0  0  0  0  0  0
    0.2549   64.3195   84.2564 C   0  0  0  0  0  0  0  0  0  0  0  0
   -0.0827   64.2233   82.9070 N   0  0  0  0  0  0  0  0  0  0  0  0
    0.3586   65.2068   82.1722 C   0  0  0  0  0  0  0  0  0  0  0  0
    1.1180   66.2642   82.6585 N   0  0  0  0  0  0  0  0  0  0  0  0
    1.4901   66.4336   83.9794 C   0  0  0  0  0  0  0  0  0  0  0  0
    2.1470   67.4037   84.3455 O   0  0  0  0  0  0  0  0  0  0  0  0
    1.0042   65.3577   84.8138 C   0  0  0  0  0  0  0  0  0  0  0  0
    1.1636   65.1901   86.1328 N   0  0  0  0  0  0  0  0  0  0  0  0
    0.4971   64.0333   86.3910 N   0  0  0  0  0  0  0  0  0  0  0  0
    1.4087   67.0134   82.0441 H   0  0  0  0  0  0  0  0  0  0  0  0
   -2.3800   62.4917   85.2975 C   0  0  0  0  0  0  0  0  0  0  0  0
   -0.8844   62.2106   85.2548 C   0  0  0  0  0  0  0  0  0  0  0  0
    0.5175   63.5332   87.7578 C   0  0  0  0  0  0  0  0  0  0  0  0
   -0.8155   63.7451   88.4685 C   0  0  0  0  0  0  0  0  0  0  0  0
   -0.9370   62.9292   89.6391 O   0  0  0  0  0  0  0  0  0  0  0  0
    0.1471   62.0239   89.8038 C   0  0  0  0  0  0  0  0  0  0  0  0
   -0.3285   62.3993   77.8161 S   0  0  0  0  0  0  0  0  0  0  0  0
    0.7441   61.5926   78.3558 O   0  0  0  0  0  0  0  0  0  0  0  0
   -0.3863   62.7261   76.4074 O   0  0  0  0  0  0  0  0  0  0  0  0
   -1.8000   61.6928   78.2452 N   0  0  0  0  0  0  0  0  0  0  0  0
   -1.7886   60.2723   78.6915 C   0  0  0  0  0  0  0  0  0  0  0  0
   -3.1475   59.8585   79.2863 C   0  0  0  0  0  0  0  0  0  0  0  0
   -3.5852   60.6697   80.4425 N   0  0  0  0  0  0  0  0  0  0  0  0
   -3.0971   62.0637   80.3421 C   0  0  0  0  0  0  0  0  0  0  0  0
   -2.8366   62.5380   78.8997 C   0  0  0  0  0  0  0  0  0  0  0  0
   -3.2132   60.0908   81.7416 C   0  0  0  0  0  0  0  0  0  0  0  0
   -1.8251   60.5214   82.2033 C   0  0  0  0  0  0  0  0  0  0  0  0
   -0.4149   67.5575   80.6360 O   0  0  0  0  0  0  0  0  0  0  0  0
    0.2161   68.6596   79.9564 C   0  0  0  0  0  0  0  0  0  0  0  0
   -0.2153   69.9797   80.5967 C   0  0  0  0  0  0  0  0  0  0  0  0
    1.7369   68.4609   80.0981 C   0  0  0  0  0  0  0  0  0  0  0  0
    2.3467   69.3731   81.0099 O   0  0  0  0  0  0  0  0  0  0  0  0
    3.4914   70.0223   80.4725 C   0  0  0  0  0  0  0  0  0  0  0  0
 18 19  1  0  0  0
 19  7  1  0  0  0
  7  8  2  0  0  0
  8  9  1  0  0  0
  9 10  2  0  0  0
 10  1  1  0  0  0
  1  2  1  0  0  0
  2  3  2  0  0  0
  3 24  1  0  0  0
 24 25  2  0  0  0
 24 26  2  0  0  0
 24 27  1  0  0  0
 27 28  1  0  0  0
 28 29  1  0  0  0
 29 30  1  0  0  0
 30 33  1  0  0  0
 33 34  1  0  0  0
 30 31  1  0  0  0
 31 32  1  0  0  0
  3  4  1  0  0  0
  4  5  2  0  0  0
  5  6  1  0  0  0
  6 35  1  0  0  0
 35 36  1  0  0  0
 36 37  1  0  0  0
 36 38  1  0  0  0
 38 39  1  0  0  0
 39 40  1  0  0  0
 10 11  1  0  0  0
 11 12  1  0  0  0
 12 13  2  0  0  0
 12 14  1  0  0  0
 14 15  2  0  0  0
 15 16  1  0  0  0
 16 20  1  0  0  0
 20 21  1  0  0  0
 21 22  1  0  0  0
 22 23  1  0  0  0
 16  7  1  0  0  0
 14  8  1  0  0  0
  6  1  2  0  0  0
 32 27  1  0  0  0
 11 17  1  0  0  0
M  END
> <minimizedAffinity>
-8.67363

$$$$



 40 43  0  0  0  0  0  0  0  0999 V2000
   -1.6600   62.5792   82.9517 C   0  0  0  0  0  0  0  0  0  0  0  0
   -2.0596   62.3814   81.6224 C   0  0  0  0  0  0  0  0  0  0  0  0
   -2.8368   61.2748   81.2933 C   0  0  0  0  0  0  0  0  0  0  0  0
   -3.2618   60.4359   82.3030 C   0  0  0  0  0  0  0  0  0  0  0  0
   -2.9136   60.6102   83.6008 N   0  0  0  0  0  0  0  0  0  0  0  0
   -2.1157   61.6642   83.9042 C   0  0  0  0  0  0  0  0  0  0  0  0
    0.9266   66.5725   81.8441 C   0  0  0  0  0  0  0  0  0  0  0  0
    0.4313   65.5665   82.6317 C   0  0  0  0  0  0  0  0  0  0  0  0
   -0.4607   64.5559   82.2751 N   0  0  0  0  0  0  0  0  0  0  0  0
   -0.7310   63.7155   83.2354 C   0  0  0  0  0  0  0  0  0  0  0  0
   -0.2065   63.8029   84.5194 N   0  0  0  0  0  0  0  0  0  0  0  0
    0.6840   64.7693   84.9496 C   0  0  0  0  0  0  0  0  0  0  0  0
    1.1242   64.7769   86.0954 O   0  0  0  0  0  0  0  0  0  0  0  0
    1.0039   65.7078   83.8976 C   0  0  0  0  0  0  0  0  0  0  0  0
    1.8273   66.7628   83.9452 N   0  0  0  0  0  0  0  0  0  0  0  0
    1.7637   67.2748   82.6870 N   0  0  0  0  0  0  0  0  0  0  0  0
   -0.4320   63.1043   85.2154 H   0  0  0  0  0  0  0  0  0  0  0  0
   -0.6623   67.5962   80.2138 C   0  0  0  0  0  0  0  0  0  0  0  0
    0.6719   66.8899   80.4107 C   0  0  0  0  0  0  0  0  0  0  0  0
    2.5250   68.4845   82.4115 C   0  0  0  0  0  0  0  0  0  0  0  0
    3.3205   68.9534   83.6257 C   0  0  0  0  0  0  0  0  0  0  0  0
    4.7096   68.6219   83.5197 O   0  0  0  0  0  0  0  0  0  0  0  0
    5.1884   67.8627   84.6225 C   0  0  0  0  0  0  0  0  0  0  0  0
   -3.3222   60.9588   79.6276 S   0  0  0  0  0  0  0  0  0  0  0  0
   -4.1658   62.0595   79.2163 O   0  0  0  0  0  0  0  0  0  0  0  0
   -3.7939   59.5916   79.5764 O   0  0  0  0  0  0  0  0  0  0  0  0
   -1.8742   61.0402   78.7642 N   0  0  0  0  0  0  0  0  0  0  0  0
   -1.7742   62.0354   77.6610 C   0  0  0  0  0  0  0  0  0  0  0  0
   -0.3275   62.1645   77.1491 C   0  0  0  0  0  0  0  0  0  0  0  0
    0.6559   62.5628   78.1791 N   0  0  0  0  0  0  0  0  0  0  0  0
    0.2760   62.0542   79.5164 C   0  0  0  0  0  0  0  0  0  0  0  0
   -0.5958   60.7844   79.4836 C   0  0  0  0  0  0  0  0  0  0  0  0
    0.8961   64.0121   78.2334 C   0  0  0  0  0  0  0  0  0  0  0  0
   -0.1482   64.8123   77.4623 C   0  0  0  0  0  0  0  0  0  0  0  0
   -1.7419   61.8399   85.2215 O   0  0  0  0  0  0  0  0  0  0  0  0
   -2.8033   62.1437   86.1467 C   0  0  0  0  0  0  0  0  0  0  0  0
   -3.1106   60.9161   87.0053 C   0  0  0  0  0  0  0  0  0  0  0  0
   -2.3111   63.3092   87.0250 C   0  0  0  0  0  0  0  0  0  0  0  0
   -2.0813   62.9393   88.3836 O   0  0  0  0  0  0  0  0  0  0  0  0
   -0.7612   63.2244   88.8269 C   0  0  0  0  0  0  0  0  0  0  0  0
 18 19  1  0  0  0
 19  7  1  0  0  0
  7  8  2  0  0  0
  8  9  1  0  0  0
  9 10  2  0  0  0
 10  1  1  0  0  0
  1  2  1  0  0  0
  2  3  2  0  0  0
  3 24  1  0  0  0
 24 25  2  0  0  0
 24 26  2  0  0  0
 24 27  1  0  0  0
 27 28  1  0  0  0
 28 29  1  0  0  0
 29 30  1  0  0  0
 30 33  1  0  0  0
 33 34  1  0  0  0
 30 31  1  0  0  0
 31 32  1  0  0  0
  3  4  1  0  0  0
  4  5  2  0  0  0
  5  6  1  0  0  0
  6 35  1  0  0  0
 35 36  1  0  0  0
 36 37  1  0  0  0
 36 38  1  0  0  0
 38 39  1  0  0  0
 39 40  1  0  0  0
 10 11  1  0  0  0
 11 12  1  0  0  0
 12 13  2  0  0  0
 12 14  1  0  0  0
 14 15  2  0  0  0
 15 16  1  0  0  0
 16 20  1  0  0  0
 20 21  1  0  0  0
 21 22  1  0  0  0
 22 23  1  0  0  0
 16  7  1  0  0  0
 14  8  1  0  0  0
  6  1  2  0  0  0
 32 27  1  0  0  0
 11 17  1  0  0  0
M  END
> <minimizedAffinity>
-8.63785

$$$$



 40 43  0  0  0  0  0  0  0  0999 V2000
    2.6478   66.9302   84.1678 C   0  0  0  0  0  0  0  0  0  0  0  0
    2.1753   68.0539   83.4752 C   0  0  0  0  0  0  0  0  0  0  0  0
    3.0168   69.1440   83.2738 C   0  0  0  0  0  0  0  0  0  0  0  0
    4.3276   69.0601   83.6965 C   0  0  0  0  0  0  0  0  0  0  0  0
    4.8235   67.9807   84.3482 N   0  0  0  0  0  0  0  0  0  0  0  0
    3.9820   66.9432   84.5827 C   0  0  0  0  0  0  0  0  0  0  0  0
   -0.9186   63.7677   83.0988 C   0  0  0  0  0  0  0  0  0  0  0  0
    0.0211   64.3978   83.8718 C   0  0  0  0  0  0  0  0  0  0  0  0
    0.9099   65.4038   83.4946 N   0  0  0  0  0  0  0  0  0  0  0  0
    1.6735   65.8348   84.4604 C   0  0  0  0  0  0  0  0  0  0  0  0
    1.6418   65.3418   85.7593 N   0  0  0  0  0  0  0  0  0  0  0  0
    0.7900   64.3513   86.2125 C   0  0  0  0  0  0  0  0  0  0  0  0
    0.8013   63.9752   87.3808 O   0  0  0  0  0  0  0  0  0  0  0  0
   -0.0719   63.8642   85.1590 C   0  0  0  0  0  0  0  0  0  0  0  0
   -1.0187   62.9198   85.2279 N   0  0  0  0  0  0  0  0  0  0  0  0
   -1.5192   62.8761   83.9643 N   0  0  0  0  0  0  0  0  0  0  0  0
    2.2403   65.7357   86.4734 H   0  0  0  0  0  0  0  0  0  0  0  0
   -0.4766   63.0185   80.7592 C   0  0  0  0  0  0  0  0  0  0  0  0
   -1.2688   63.9536   81.6625 C   0  0  0  0  0  0  0  0  0  0  0  0
   -2.5576   61.8955   83.6832 C   0  0  0  0  0  0  0  0  0  0  0  0
   -2.0440   60.7422   82.8270 C   0  0  0  0  0  0  0  0  0  0  0  0
   -3.1124   59.9784   82.2561 O   0  0  0  0  0  0  0  0  0  0  0  0
   -3.1242   60.0103   80.8346 C   0  0  0  0  0  0  0  0  0  0  0  0
    2.4515   70.5980   82.4512 S   0  0  0  0  0  0  0  0  0  0  0  0
    3.6210   71.3910   82.1415 O   0  0  0  0  0  0  0  0  0  0  0  0
    1.3668   71.1375   83.2430 O   0  0  0  0  0  0  0  0  0  0  0  0
    1.7996   70.0158   81.0073 N   0  0  0  0  0  0  0  0  0  0  0  0
    2.5721   68.9873   80.2571 C   0  0  0  0  0  0  0  0  0  0  0  0
    1.7369   68.3780   79.1157 C   0  0  0  0  0  0  0  0  0  0  0  0
    0.4765   67.7382   79.5500 N   0  0  0  0  0  0  0  0  0  0  0  0
   -0.0872   68.4071   80.7442 C   0  0  0  0  0  0  0  0  0  0  0  0
    0.3209   69.8855   80.8901 C   0  0  0  0  0  0  0  0  0  0  0  0
    0.6018   66.2926   79.7861 C   0  0  0  0  0  0  0  0  0  0  0  0
    1.4232   65.5886   78.7113 C   0  0  0  0  0  0  0  0  0  0  0  0
    4.4740   65.8462   85.2612 O   0  0  0  0  0  0  0  0  0  0  0  0
    5.7296   66.0327   85.9421 C   0  0  0  0  0  0  0  0  0  0  0  0
    5.6568   65.4210   87.3417 C   0  0  0  0  0  0  0  0  0  0  0  0
    6.8059   65.3254   85.0975 C   0  0  0  0  0  0  0  0  0  0  0  0
    8.1294   65.7894   85.3592 O   0  0  0  0  0  0  0  0  0  0  0  0
    8.4370   67.0097   84.6983 C   0  0  0  0  0  0  0  0  0  0  0  0
 18 19  1  0  0  0
 19  7  1  0  0  0
  7  8  2  0  0  0
  8  9  1  0  0  0
  9 10  2  0  0  0
 10  1  1  0  0  0
  1  2  1  0  0  0
  2  3  2  0  0  0
  3 24  1  0  0  0
 24 25  2  0  0  0
 24 26  2  0  0  0
 24 27  1  0  0  0
 27 28  1  0  0  0
 28 29  1  0  0  0
 29 30  1  0  0  0
 30 33  1  0  0  0
 33 34  1  0  0  0
 30 31  1  0  0  0
 31 32  1  0  0  0
  3  4  1  0  0  0
  4  5  2  0  0  0
  5  6  1  0  0  0
  6 35  1  0  0  0
 35 36  1  0  0  0
 36 37  1  0  0  0
 36 38  1  0  0  0
 38 39  1  0  0  0
 39 40  1  0  0  0
 10 11  1  0  0  0
 11 12  1  0  0  0
 12 13  2  0  0  0
 12 14  1  0  0  0
 14 15  2  0  0  0
 15 16  1  0  0  0
 16 20  1  0  0  0
 20 21  1  0  0  0
 21 22  1  0  0  0
 22 23  1  0  0  0
 16  7  1  0  0  0
 14  8  1  0  0  0
  6  1  2  0  0  0
 32 27  1  0  0  0
 11 17  1  0  0  0
M  END
> <minimizedAffinity>
-8.62563

$$$$



 40 43  0  0  0  0  0  0  0  0999 V2000
    0.5179   64.5508   82.9675 C   0  0  0  0  0  0  0  0  0  0  0  0
    1.2869   65.7064   82.7700 C   0  0  0  0  0  0  0  0  0  0  0  0
    1.7708   66.4090   83.8696 C   0  0  0  0  0  0  0  0  0  0  0  0
    1.5449   65.9045   85.1338 C   0  0  0  0  0  0  0  0  0  0  0  0
    0.8260   64.7785   85.3598 N   0  0  0  0  0  0  0  0  0  0  0  0
    0.3174   64.1277   84.2839 C   0  0  0  0  0  0  0  0  0  0  0  0
   -2.5767   61.6131   80.5891 C   0  0  0  0  0  0  0  0  0  0  0  0
   -1.5561   62.5146   80.7421 C   0  0  0  0  0  0  0  0  0  0  0  0
   -1.0877   63.0901   81.9226 N   0  0  0  0  0  0  0  0  0  0  0  0
   -0.0761   63.8977   81.7612 C   0  0  0  0  0  0  0  0  0  0  0  0
    0.4965   64.1946   80.5302 N   0  0  0  0  0  0  0  0  0  0  0  0
    0.0939   63.6643   79.3183 C   0  0  0  0  0  0  0  0  0  0  0  0
    0.6576   63.9553   78.2674 O   0  0  0  0  0  0  0  0  0  0  0  0
   -1.0223   62.7592   79.4751 C   0  0  0  0  0  0  0  0  0  0  0  0
   -1.6677   62.0620   78.5313 N   0  0  0  0  0  0  0  0  0  0  0  0
   -2.6096   61.3739   79.2303 N   0  0  0  0  0  0  0  0  0  0  0  0
    1.2984   64.8083   80.4709 H   0  0  0  0  0  0  0  0  0  0  0  0
   -2.8144   59.8074   82.2959 C   0  0  0  0  0  0  0  0  0  0  0  0
   -3.4747   60.9910   81.6024 C   0  0  0  0  0  0  0  0  0  0  0  0
   -3.5314   60.5365   78.4767 C   0  0  0  0  0  0  0  0  0  0  0  0
   -3.1598   60.4560   76.9994 C   0  0  0  0  0  0  0  0  0  0  0  0
   -2.7819   59.1305   76.6110 O   0  0  0  0  0  0  0  0  0  0  0  0
   -1.3786   58.9090   76.6731 C   0  0  0  0  0  0  0  0  0  0  0  0
    2.7008   67.8942   83.6708 S   0  0  0  0  0  0  0  0  0  0  0  0
    1.9889   68.9372   84.3765 O   0  0  0  0  0  0  0  0  0  0  0  0
    3.0077   68.0159   82.2618 O   0  0  0  0  0  0  0  0  0  0  0  0
    4.1424   67.5791   84.4901 N   0  0  0  0  0  0  0  0  0  0  0  0
    4.2236   67.9527   85.9292 C   0  0  0  0  0  0  0  0  0  0  0  0
    5.4884   67.3739   86.5902 C   0  0  0  0  0  0  0  0  0  0  0  0
    5.5992   65.9010   86.5207 N   0  0  0  0  0  0  0  0  0  0  0  0
    4.9699   65.3677   85.2915 C   0  0  0  0  0  0  0  0  0  0  0  0
    4.9262   66.3681   84.1207 C   0  0  0  0  0  0  0  0  0  0  0  0
    5.0660   65.2145   87.7064 C   0  0  0  0  0  0  0  0  0  0  0  0
    5.8328   65.5553   88.9797 C   0  0  0  0  0  0  0  0  0  0  0  0
   -0.4308   62.9889   84.5057 O   0  0  0  0  0  0  0  0  0  0  0  0
   -1.2884   63.0091   85.6628 C   0  0  0  0  0  0  0  0  0  0  0  0
   -2.7187   62.6535   85.2551 C   0  0  0  0  0  0  0  0  0  0  0  0
   -0.7319   61.9664   86.6503 C   0  0  0  0  0  0  0  0  0  0  0  0
   -0.1731   62.5423   87.8299 O   0  0  0  0  0  0  0  0  0  0  0  0
   -1.0989   63.3376   88.5586 C   0  0  0  0  0  0  0  0  0  0  0  0
 18 19  1  0  0  0
 19  7  1  0  0  0
  7  8  2  0  0  0
  8  9  1  0  0  0
  9 10  2  0  0  0
 10  1  1  0  0  0
  1  2  1  0  0  0
  2  3  2  0  0  0
  3 24  1  0  0  0
 24 25  2  0  0  0
 24 26  2  0  0  0
 24 27  1  0  0  0
 27 28  1  0  0  0
 28 29  1  0  0  0
 29 30  1  0  0  0
 30 33  1  0  0  0
 33 34  1  0  0  0
 30 31  1  0  0  0
 31 32  1  0  0  0
  3  4  1  0  0  0
  4  5  2  0  0  0
  5  6  1  0  0  0
  6 35  1  0  0  0
 35 36  1  0  0  0
 36 37  1  0  0  0
 36 38  1  0  0  0
 38 39  1  0  0  0
 39 40  1  0  0  0
 10 11  1  0  0  0
 11 12  1  0  0  0
 12 13  2  0  0  0
 12 14  1  0  0  0
 14 15  2  0  0  0
 15 16  1  0  0  0
 16 20  1  0  0  0
 20 21  1  0  0  0
 21 22  1  0  0  0
 22 23  1  0  0  0
 16  7  1  0  0  0
 14  8  1  0  0  0
  6  1  2  0  0  0
 32 27  1  0  0  0
 11 17  1  0  0  0
M  END
> <minimizedAffinity>
-8.54980

$$$$



 40 43  0  0  0  0  0  0  0  0999 V2000
   -0.3089   64.5837   80.7587 C   0  0  0  0  0  0  0  0  0  0  0  0
   -0.0554   65.9478   80.9597 C   0  0  0  0  0  0  0  0  0  0  0  0
    0.5143   66.7014   79.9377 C   0  0  0  0  0  0  0  0  0  0  0  0
    0.7461   66.1004   78.7174 C   0  0  0  0  0  0  0  0  0  0  0  0
    0.4917   64.7906   78.4814 N   0  0  0  0  0  0  0  0  0  0  0  0
   -0.0182   64.0532   79.4992 C   0  0  0  0  0  0  0  0  0  0  0  0
   -0.4359   63.1644   85.4313 C   0  0  0  0  0  0  0  0  0  0  0  0
   -0.8027   63.1998   84.1115 C   0  0  0  0  0  0  0  0  0  0  0  0
   -0.2818   64.0009   83.0961 N   0  0  0  0  0  0  0  0  0  0  0  0
   -0.8124   63.7923   81.9227 C   0  0  0  0  0  0  0  0  0  0  0  0
   -1.8239   62.8718   81.6764 N   0  0  0  0  0  0  0  0  0  0  0  0
   -2.3894   62.0400   82.6252 C   0  0  0  0  0  0  0  0  0  0  0  0
   -3.2685   61.2340   82.3351 O   0  0  0  0  0  0  0  0  0  0  0  0
   -1.8099   62.2491   83.9330 C   0  0  0  0  0  0  0  0  0  0  0  0
   -2.1011   61.6259   85.0819 N   0  0  0  0  0  0  0  0  0  0  0  0
   -1.2557   62.1991   85.9797 N   0  0  0  0  0  0  0  0  0  0  0  0
   -2.1770   62.7348   80.7384 H   0  0  0  0  0  0  0  0  0  0  0  0
    0.9235   65.2575   85.4647 C   0  0  0  0  0  0  0  0  0  0  0  0
    0.5968   63.9469   86.1671 C   0  0  0  0  0  0  0  0  0  0  0  0
   -1.3516   61.7689   87.3669 C   0  0  0  0  0  0  0  0  0  0  0  0
   -1.8632   62.8787   88.2799 C   0  0  0  0  0  0  0  0  0  0  0  0
   -0.9698   63.1338   89.3696 O   0  0  0  0  0  0  0  0  0  0  0  0
    0.1868   62.3069   89.3489 C   0  0  0  0  0  0  0  0  0  0  0  0
    0.8959   68.4085   80.1615 S   0  0  0  0  0  0  0  0  0  0  0  0
   -0.3166   69.1516   79.8969 O   0  0  0  0  0  0  0  0  0  0  0  0
    2.1130   68.6703   79.4234 O   0  0  0  0  0  0  0  0  0  0  0  0
    1.2514   68.5291   81.8070 N   0  0  0  0  0  0  0  0  0  0  0  0
    1.9285   67.3756   82.4613 C   0  0  0  0  0  0  0  0  0  0  0  0
    2.4108   67.7363   83.8787 C   0  0  0  0  0  0  0  0  0  0  0  0
    3.3503   68.8767   83.9367 N   0  0  0  0  0  0  0  0  0  0  0  0
    3.0781   69.8581   82.8625 C   0  0  0  0  0  0  0  0  0  0  0  0
    1.6202   69.8597   82.3646 C   0  0  0  0  0  0  0  0  0  0  0  0
    4.7644   68.4753   83.9153 C   0  0  0  0  0  0  0  0  0  0  0  0
    5.0117   67.1488   84.6256 C   0  0  0  0  0  0  0  0  0  0  0  0
   -0.2645   62.7138   79.2730 O   0  0  0  0  0  0  0  0  0  0  0  0
   -0.9668   62.3949   78.0565 C   0  0  0  0  0  0  0  0  0  0  0  0
   -0.1008   61.4901   77.1791 C   0  0  0  0  0  0  0  0  0  0  0  0
   -2.2639   61.6719   78.4652 C   0  0  0  0  0  0  0  0  0  0  0  0
   -2.0528   60.6037   79.3869 O   0  0  0  0  0  0  0  0  0  0  0  0
   -3.0886   59.6304   79.3642 C   0  0  0  0  0  0  0  0  0  0  0  0
 18 19  1  0  0  0
 19  7  1  0  0  0
  7  8  2  0  0  0
  8  9  1  0  0  0
  9 10  2  0  0  0
 10  1  1  0  0  0
  1  2  1  0  0  0
  2  3  2  0  0  0
  3 24  1  0  0  0
 24 25  2  0  0  0
 24 26  2  0  0  0
 24 27  1  0  0  0
 27 28  1  0  0  0
 28 29  1  0  0  0
 29 30  1  0  0  0
 30 33  1  0  0  0
 33 34  1  0  0  0
 30 31  1  0  0  0
 31 32  1  0  0  0
  3  4  1  0  0  0
  4  5  2  0  0  0
  5  6  1  0  0  0
  6 35  1  0  0  0
 35 36  1  0  0  0
 36 37  1  0  0  0
 36 38  1  0  0  0
 38 39  1  0  0  0
 39 40  1  0  0  0
 10 11  1  0  0  0
 11 12  1  0  0  0
 12 13  2  0  0  0
 12 14  1  0  0  0
 14 15  2  0  0  0
 15 16  1  0  0  0
 16 20  1  0  0  0
 20 21  1  0  0  0
 21 22  1  0  0  0
 22 23  1  0  0  0
 16  7  1  0  0  0
 14  8  1  0  0  0
  6  1  2  0  0  0
 32 27  1  0  0  0
 11 17  1  0  0  0
M  END
> <minimizedAffinity>
-8.53311

$$$$



 40 43  0  0  0  0  0  0  0  0999 V2000
    1.9108   66.3237   83.5209 C   0  0  0  0  0  0  0  0  0  0  0  0
    1.4412   67.3071   82.6388 C   0  0  0  0  0  0  0  0  0  0  0  0
    2.1144   68.5210   82.5375 C   0  0  0  0  0  0  0  0  0  0  0  0
    3.2792   68.6982   83.2557 C   0  0  0  0  0  0  0  0  0  0  0  0
    3.7738   67.7605   84.0996 N   0  0  0  0  0  0  0  0  0  0  0  0
    3.0838   66.5999   84.2281 C   0  0  0  0  0  0  0  0  0  0  0  0
   -0.6571   62.4755   81.9525 C   0  0  0  0  0  0  0  0  0  0  0  0
   -0.0798   63.3235   82.8610 C   0  0  0  0  0  0  0  0  0  0  0  0
    0.6983   64.4527   82.6087 N   0  0  0  0  0  0  0  0  0  0  0  0
    1.0895   65.0850   83.6805 C   0  0  0  0  0  0  0  0  0  0  0  0
    0.7895   64.6832   84.9766 N   0  0  0  0  0  0  0  0  0  0  0  0
    0.0234   63.5813   85.3094 C   0  0  0  0  0  0  0  0  0  0  0  0
   -0.2197   63.2934   86.4776 O   0  0  0  0  0  0  0  0  0  0  0  0
   -0.4279   62.8694   84.1349 C   0  0  0  0  0  0  0  0  0  0  0  0
   -1.1878   61.7687   84.0694 N   0  0  0  0  0  0  0  0  0  0  0  0
   -1.3130   61.5459   82.7338 N   0  0  0  0  0  0  0  0  0  0  0  0
    1.0985   65.2308   85.7690 H   0  0  0  0  0  0  0  0  0  0  0  0
    0.6256   61.8382   79.9083 C   0  0  0  0  0  0  0  0  0  0  0  0
   -0.6312   62.4946   80.4629 C   0  0  0  0  0  0  0  0  0  0  0  0
   -2.0590   60.3689   82.3130 C   0  0  0  0  0  0  0  0  0  0  0  0
   -3.4766   60.7143   81.8679 C   0  0  0  0  0  0  0  0  0  0  0  0
   -3.6862   60.4401   80.4781 O   0  0  0  0  0  0  0  0  0  0  0  0
   -4.1510   61.5696   79.7499 C   0  0  0  0  0  0  0  0  0  0  0  0
    1.5330   69.8054   81.4780 S   0  0  0  0  0  0  0  0  0  0  0  0
    0.1810   70.1140   81.8893 O   0  0  0  0  0  0  0  0  0  0  0  0
    1.8312   69.4017   80.1206 O   0  0  0  0  0  0  0  0  0  0  0  0
    2.5227   71.1189   81.8574 N   0  0  0  0  0  0  0  0  0  0  0  0
    3.3675   71.6925   80.7736 C   0  0  0  0  0  0  0  0  0  0  0  0
    4.0068   73.0256   81.2044 C   0  0  0  0  0  0  0  0  0  0  0  0
    3.0395   74.0730   81.5964 N   0  0  0  0  0  0  0  0  0  0  0  0
    1.8215   73.4870   82.2001 C   0  0  0  0  0  0  0  0  0  0  0  0
    2.0431   72.1118   82.8581 C   0  0  0  0  0  0  0  0  0  0  0  0
    2.6786   74.9811   80.4980 C   0  0  0  0  0  0  0  0  0  0  0  0
    3.8367   75.2362   79.5392 C   0  0  0  0  0  0  0  0  0  0  0  0
    3.5712   65.6457   85.0986 O   0  0  0  0  0  0  0  0  0  0  0  0
    4.8013   65.9721   85.7731 C   0  0  0  0  0  0  0  0  0  0  0  0
    4.8508   65.2702   87.1309 C   0  0  0  0  0  0  0  0  0  0  0  0
    5.9498   65.4849   84.8698 C   0  0  0  0  0  0  0  0  0  0  0  0
    6.9165   66.4948   84.5853 O   0  0  0  0  0  0  0  0  0  0  0  0
    8.2484   66.0953   84.8800 C   0  0  0  0  0  0  0  0  0  0  0  0
 18 19  1  0  0  0
 19  7  1  0  0  0
  7  8  2  0  0  0
  8  9  1  0  0  0
  9 10  2  0  0  0
 10  1  1  0  0  0
  1  2  1  0  0  0
  2  3  2  0  0  0
  3 24  1  0  0  0
 24 25  2  0  0  0
 24 26  2  0  0  0
 24 27  1  0  0  0
 27 28  1  0  0  0
 28 29  1  0  0  0
 29 30  1  0  0  0
 30 33  1  0  0  0
 33 34  1  0  0  0
 30 31  1  0  0  0
 31 32  1  0  0  0
  3  4  1  0  0  0
  4  5  2  0  0  0
  5  6  1  0  0  0
  6 35  1  0  0  0
 35 36  1  0  0  0
 36 37  1  0  0  0
 36 38  1  0  0  0
 38 39  1  0  0  0
 39 40  1  0  0  0
 10 11  1  0  0  0
 11 12  1  0  0  0
 12 13  2  0  0  0
 12 14  1  0  0  0
 14 15  2  0  0  0
 15 16  1  0  0  0
 16 20  1  0  0  0
 20 21  1  0  0  0
 21 22  1  0  0  0
 22 23  1  0  0  0
 16  7  1  0  0  0
 14  8  1  0  0  0
  6  1  2  0  0  0
 32 27  1  0  0  0
 11 17  1  0  0  0
M  END
> <minimizedAffinity>
-8.47539

$$$$
