
     RDKit          3D

 72 75  0  0  0  0  0  0  0  0999 V2000
    6.4807    4.0299   -1.1494 C   0  0  0  0  0  0  0  0  0  0  0  0
    5.6549    2.7930   -0.8220 C   0  0  0  0  0  0  0  0  0  0  0  0
    5.6761    1.7918   -1.9854 C   0  0  0  0  0  0  0  0  0  0  0  0
    4.9180    0.5466   -1.8092 N   0  0  0  0  0  0  0  0  0  0  0  0
    3.4665    0.7618   -1.6816 C   0  0  0  0  0  0  0  0  0  0  0  0
    2.6847   -0.5667   -1.5881 C   0  0  0  0  0  0  0  0  0  0  0  0
    3.2024   -1.4688   -0.5088 N   0  0  0  0  0  0  0  0  0  0  0  0
    2.6626   -1.1791    1.0761 S   0  0  0  0  0  0  0  0  0  0  0  0
    3.2777   -2.1530    1.9517 O   0  0  0  0  0  0  0  0  0  0  0  0
    2.7680    0.2367    1.3496 O   0  0  0  0  0  0  0  0  0  0  0  0
    0.9554   -1.5923    0.9787 C   0  0  0  0  0  0  0  0  0  0  0  0
    0.5925   -2.9224    0.9422 C   0  0  0  0  0  0  0  0  0  0  0  0
   -0.6972   -3.3298    0.8804 N   0  0  0  0  0  0  0  0  0  0  0  0
   -1.6593   -2.3741    0.8764 C   0  0  0  0  0  0  0  0  0  0  0  0
   -2.9739   -2.7851    0.7926 O   0  0  0  0  0  0  0  0  0  0  0  0
   -3.2005   -4.1992    0.9380 C   0  0  1  0  0  0  0  0  0  0  0  0
   -4.6198   -4.3462    1.4911 C   0  0  0  0  0  0  0  0  0  0  0  0
   -3.0705   -4.9099   -0.4184 C   0  0  0  0  0  0  0  0  0  0  0  0
   -3.3335   -6.3061   -0.2723 O   0  0  0  0  0  0  0  0  0  0  0  0
   -3.2070   -6.9956   -1.5088 C   0  0  0  0  0  0  0  0  0  0  0  0
   -1.3866   -1.0021    0.9176 C   0  0  0  0  0  0  0  0  0  0  0  0
   -2.4257    0.0783    0.8906 C   0  0  0  0  0  0  0  0  0  0  0  0
   -2.0414    1.3190    0.7641 N   0  0  0  0  0  0  0  0  0  0  0  0
   -3.0838    2.2453    0.7566 C   0  0  0  0  0  0  0  0  0  0  0  0
   -3.0042    3.6083    0.6521 C   0  0  0  0  0  0  0  0  0  0  0  0
   -1.8299    4.5118    0.5145 C   0  0  0  0  0  0  0  0  0  0  0  0
   -1.2478    4.8861    1.8688 C   0  0  0  0  0  0  0  0  0  0  0  0
   -4.3170    4.0251    0.7043 N   0  0  0  0  0  0  0  0  0  0  0  0
   -4.8054    5.3834    0.6373 C   0  0  0  0  0  0  0  0  0  0  0  0
   -5.2109    3.0135    0.8228 N   0  0  0  0  0  0  0  0  0  0  0  0
   -4.4390    1.9187    0.8622 C   0  0  0  0  0  0  0  0  0  0  0  0
   -4.8445    0.5378    0.9918 C   0  0  0  0  0  0  0  0  0  0  0  0
   -5.9949    0.1183    1.0763 O   0  0  0  0  0  0  0  0  0  0  0  0
   -3.7555   -0.3142    1.0065 N   0  0  0  0  0  0  0  0  0  0  0  0
   -0.0386   -0.6165    0.9799 C   0  0  0  0  0  0  0  0  0  0  0  0
    4.6847   -1.6404   -0.6479 C   0  0  0  0  0  0  0  0  0  0  0  0
    5.4162   -0.2861   -0.7002 C   0  0  0  0  0  0  0  0  0  0  0  0
    6.4567    4.7337   -0.3116 H   0  0  0  0  0  0  0  0  0  0  0  0
    6.0875    4.5413   -2.0338 H   0  0  0  0  0  0  0  0  0  0  0  0
    7.5255    3.7649   -1.3405 H   0  0  0  0  0  0  0  0  0  0  0  0
    4.6302    3.1101   -0.6024 H   0  0  0  0  0  0  0  0  0  0  0  0
    6.0608    2.3375    0.0874 H   0  0  0  0  0  0  0  0  0  0  0  0
    5.3100    2.2910   -2.8921 H   0  0  0  0  0  0  0  0  0  0  0  0
    6.7184    1.5281   -2.2078 H   0  0  0  0  0  0  0  0  0  0  0  0
    3.1006    1.3036   -2.5622 H   0  0  0  0  0  0  0  0  0  0  0  0
    3.2363    1.3812   -0.8097 H   0  0  0  0  0  0  0  0  0  0  0  0
    2.7661   -1.1100   -2.5384 H   0  0  0  0  0  0  0  0  0  0  0  0
    1.6188   -0.3659   -1.4470 H   0  0  0  0  0  0  0  0  0  0  0  0
    1.3311   -3.7209    0.9574 H   0  0  0  0  0  0  0  0  0  0  0  0
   -2.5306   -4.6485    1.6831 H   0  0  0  0  0  0  0  0  0  0  0  0
   -4.7166   -3.7994    2.4357 H   0  0  0  0  0  0  0  0  0  0  0  0
   -4.8786   -5.3938    1.6710 H   0  0  0  0  0  0  0  0  0  0  0  0
   -5.3551   -3.9147    0.8028 H   0  0  0  0  0  0  0  0  0  0  0  0
   -3.7755   -4.4729   -1.1369 H   0  0  0  0  0  0  0  0  0  0  0  0
   -2.0646   -4.7707   -0.8297 H   0  0  0  0  0  0  0  0  0  0  0  0
   -3.9234   -6.6070   -2.2390 H   0  0  0  0  0  0  0  0  0  0  0  0
   -3.4226   -8.0535   -1.3366 H   0  0  0  0  0  0  0  0  0  0  0  0
   -2.1873   -6.9051   -1.8953 H   0  0  0  0  0  0  0  0  0  0  0  0
   -2.1026    5.4217   -0.0317 H   0  0  0  0  0  0  0  0  0  0  0  0
   -1.0563    4.0148   -0.0834 H   0  0  0  0  0  0  0  0  0  0  0  0
   -0.9170    3.9977    2.4178 H   0  0  0  0  0  0  0  0  0  0  0  0
   -0.3839    5.5459    1.7404 H   0  0  0  0  0  0  0  0  0  0  0  0
   -1.9847    5.4079    2.4886 H   0  0  0  0  0  0  0  0  0  0  0  0
   -4.6530    5.7505   -0.3805 H   0  0  0  0  0  0  0  0  0  0  0  0
   -4.2519    5.9915    1.3565 H   0  0  0  0  0  0  0  0  0  0  0  0
   -5.8698    5.4010    0.8863 H   0  0  0  0  0  0  0  0  0  0  0  0
   -3.9973   -1.2940    1.0850 H   0  0  0  0  0  0  0  0  0  0  0  0
    0.2354    0.4361    1.0291 H   0  0  0  0  0  0  0  0  0  0  0  0
    5.0801   -2.2557    0.1668 H   0  0  0  0  0  0  0  0  0  0  0  0
    4.8728   -2.2053   -1.5700 H   0  0  0  0  0  0  0  0  0  0  0  0
    6.4853   -0.4840   -0.8421 H   0  0  0  0  0  0  0  0  0  0  0  0
    5.3017    0.2252    0.2621 H   0  0  0  0  0  0  0  0  0  0  0  0
  1  2  1  0
  2  3  1  0
  3  4  1  0
  4  5  1  0
  5  6  1  0
  6  7  1  0
  7  8  1  0
  8  9  2  0
  8 10  2  0
  8 11  1  0
 11 12  1  0
 12 13  2  0
 13 14  1  0
 14 15  1  0
 15 16  1  0
 16 17  1  0
 16 18  1  0
 18 19  1  0
 19 20  1  0
 14 21  2  0
 21 22  1  0
 22 23  2  0
 23 24  1  0
 24 25  2  0
 25 26  1  0
 26 27  1  0
 25 28  1  0
 28 29  1  0
 28 30  1  0
 30 31  2  0
 31 32  1  0
 32 33  2  0
 32 34  1  0
 21 35  1  0
  7 36  1  0
 36 37  1  0
 37  4  1  0
 35 11  2  0
 34 22  1  0
 31 24  1  0
  1 38  1  0
  1 39  1  0
  1 40  1  0
  2 41  1  0
  2 42  1  0
  3 43  1  0
  3 44  1  0
  5 45  1  0
  5 46  1  0
  6 47  1  0
  6 48  1  0
 12 49  1  0
 16 50  1  1
 17 51  1  0
 17 52  1  0
 17 53  1  0
 18 54  1  0
 18 55  1  0
 20 56  1  0
 20 57  1  0
 20 58  1  0
 26 59  1  0
 26 60  1  0
 27 61  1  0
 27 62  1  0
 27 63  1  0
 29 64  1  0
 29 65  1  0
 29 66  1  0
 34 67  1  0
 35 68  1  0
 36 69  1  0
 36 70  1  0
 37 71  1  0
 37 72  1  0
M  END
$$$$
