


 28 32  0  0  0  0  0  0  0  0999 V2000
   -0.5193   63.4277   87.0765 C   0  0  0  0  0  0  0  0  0  0  0  0
   -1.7749   62.8643   87.3025 C   0  0  0  0  0  0  0  0  0  0  0  0
   -2.4855   62.2483   86.2604 C   0  0  0  0  0  0  0  0  0  0  0  0
   -1.9272   62.2040   84.9699 C   0  0  0  0  0  0  0  0  0  0  0  0
   -2.3409   61.6741   83.7216 C   0  0  0  0  0  0  0  0  0  0  0  0
   -1.3663   61.9603   82.7867 C   0  0  0  0  0  0  0  0  0  0  0  0
   -0.3360   62.5809   83.4434 N   0  0  0  0  0  0  0  0  0  0  0  0
   -0.6677   62.7702   84.7675 C   0  0  0  0  0  0  0  0  0  0  0  0
    0.0532   63.3848   85.7988 C   0  0  0  0  0  0  0  0  0  0  0  0
   -1.3609   61.5849   81.3346 C   0  0  0  0  0  0  0  0  0  0  0  0
   -2.4926   60.7036   81.0537 N   0  0  0  0  0  0  0  0  0  0  0  0
   -3.1696   59.9875   82.1476 C   0  0  0  0  0  0  0  0  0  0  0  0
   -3.5437   60.8988   83.3297 C   0  0  0  0  0  0  0  0  0  0  0  0
   -2.6004   60.1899   79.7641 C   0  0  0  0  0  0  0  0  0  0  0  0
   -3.2997   59.2147   79.5050 O   0  0  0  0  0  0  0  0  0  0  0  0
   -1.8547   60.9258   78.6999 C   0  0  0  0  0  0  0  0  0  0  0  0
   -1.7152   60.4213   77.3963 C   0  0  0  0  0  0  0  0  0  0  0  0
   -1.0491   61.1646   76.4214 C   0  0  0  0  0  0  0  0  0  0  0  0
   -0.5598   62.4280   76.7303 C   0  0  0  0  0  0  0  0  0  0  0  0
   -0.7060   62.9391   78.0232 C   0  0  0  0  0  0  0  0  0  0  0  0
   -1.3331   62.1970   79.0393 C   0  0  0  0  0  0  0  0  0  0  0  0
   -1.4685   62.6696   80.3579 N   0  0  0  0  0  0  0  0  0  0  0  0
   -1.0423   64.0148   80.6990 C   0  0  0  0  0  0  0  0  0  0  0  0
    0.5352   62.8774   83.0256 H   0  0  0  0  0  0  0  0  0  0  0  0
    0.6336   63.2822   89.1537 C   0  0  0  0  0  0  0  0  0  0  0  0
    0.2598   64.0501   88.0168 O   0  0  0  0  0  0  0  0  0  0  0  0
   -2.1293   59.1630   77.0474 O   0  0  0  0  0  0  0  0  0  0  0  0
   -1.0690   58.4498   76.4081 C   0  0  0  0  0  0  0  0  0  0  0  0
 25 26  1  0  0  0
 26  1  1  0  0  0
  1  2  2  0  0  0
  2  3  1  0  0  0
  3  4  2  0  0  0
  4  5  1  0  0  0
  5  6  2  0  0  0
  6  7  1  0  0  0
  7  8  1  0  0  0
  8  9  2  0  0  0
  6 10  1  0  0  0
 10 11  1  0  0  0
 11 12  1  0  0  0
 12 13  1  0  0  0
 11 14  1  0  0  0
 14 15  2  0  0  0
 14 16  1  0  0  0
 16 17  2  0  0  0
 17 27  1  0  0  0
 27 28  1  0  0  0
 17 18  1  0  0  0
 18 19  2  0  0  0
 19 20  1  0  0  0
 20 21  2  0  0  0
 21 22  1  0  0  0
 22 23  1  0  0  0
  9  1  1  0  0  0
 22 10  1  0  0  0
  8  4  1  0  0  0
 21 16  1  0  0  0
 13  5  1  0  0  0
  7 24  1  0  0  0
M  END
> <minimizedAffinity>
-10.24117

$$$$



 28 32  0  0  0  0  0  0  0  0999 V2000
   -0.5827   63.2638   87.3548 C   0  0  0  0  0  0  0  0  0  0  0  0
    0.3576   64.2927   87.3106 C   0  0  0  0  0  0  0  0  0  0  0  0
    0.8008   64.8106   86.0835 C   0  0  0  0  0  0  0  0  0  0  0  0
    0.2947   64.2809   84.8824 C   0  0  0  0  0  0  0  0  0  0  0  0
    0.5006   64.5544   83.5066 C   0  0  0  0  0  0  0  0  0  0  0  0
   -0.2712   63.6770   82.7717 C   0  0  0  0  0  0  0  0  0  0  0  0
   -0.9998   62.9282   83.6584 N   0  0  0  0  0  0  0  0  0  0  0  0
   -0.6487   63.2547   84.9504 C   0  0  0  0  0  0  0  0  0  0  0  0
   -1.1015   62.7312   86.1677 C   0  0  0  0  0  0  0  0  0  0  0  0
   -0.3894   63.6008   81.2784 C   0  0  0  0  0  0  0  0  0  0  0  0
    0.3257   64.7231   80.6740 N   0  0  0  0  0  0  0  0  0  0  0  0
    0.6551   65.9149   81.4733 C   0  0  0  0  0  0  0  0  0  0  0  0
    1.3241   65.5784   82.8175 C   0  0  0  0  0  0  0  0  0  0  0  0
    0.2560   64.8569   79.2898 C   0  0  0  0  0  0  0  0  0  0  0  0
    0.5352   65.9077   78.7195 O   0  0  0  0  0  0  0  0  0  0  0  0
   -0.1299   63.6304   78.5304 C   0  0  0  0  0  0  0  0  0  0  0  0
   -0.4243   63.6601   77.1572 C   0  0  0  0  0  0  0  0  0  0  0  0
   -0.7357   62.4817   76.4784 C   0  0  0  0  0  0  0  0  0  0  0  0
   -0.7119   61.2680   77.1546 C   0  0  0  0  0  0  0  0  0  0  0  0
   -0.4085   61.2319   78.5188 C   0  0  0  0  0  0  0  0  0  0  0  0
   -0.1336   62.4063   79.2408 C   0  0  0  0  0  0  0  0  0  0  0  0
    0.1446   62.4075   80.6203 N   0  0  0  0  0  0  0  0  0  0  0  0
    0.2574   61.1538   81.3438 C   0  0  0  0  0  0  0  0  0  0  0  0
   -1.6830   62.2247   83.4134 H   0  0  0  0  0  0  0  0  0  0  0  0
   -0.1411   62.1669   89.4204 C   0  0  0  0  0  0  0  0  0  0  0  0
   -1.0845   62.6862   88.4920 O   0  0  0  0  0  0  0  0  0  0  0  0
   -0.5149   64.8302   76.4505 O   0  0  0  0  0  0  0  0  0  0  0  0
   -1.8699   65.2815   76.4072 C   0  0  0  0  0  0  0  0  0  0  0  0
 25 26  1  0  0  0
 26  1  1  0  0  0
  1  2  2  0  0  0
  2  3  1  0  0  0
  3  4  2  0  0  0
  4  5  1  0  0  0
  5  6  2  0  0  0
  6  7  1  0  0  0
  7  8  1  0  0  0
  8  9  2  0  0  0
  6 10  1  0  0  0
 10 11  1  0  0  0
 11 12  1  0  0  0
 12 13  1  0  0  0
 11 14  1  0  0  0
 14 15  2  0  0  0
 14 16  1  0  0  0
 16 17  2  0  0  0
 17 27  1  0  0  0
 27 28  1  0  0  0
 17 18  1  0  0  0
 18 19  2  0  0  0
 19 20  1  0  0  0
 20 21  2  0  0  0
 21 22  1  0  0  0
 22 23  1  0  0  0
  9  1  1  0  0  0
 22 10  1  0  0  0
  8  4  1  0  0  0
 21 16  1  0  0  0
 13  5  1  0  0  0
  7 24  1  0  0  0
M  END
> <minimizedAffinity>
-10.08626

$$$$



 28 32  0  0  0  0  0  0  0  0999 V2000
   -0.1866   61.3305   77.4068 C   0  0  0  0  0  0  0  0  0  0  0  0
    0.2720   62.6367   77.2382 C   0  0  0  0  0  0  0  0  0  0  0  0
    0.4211   63.4949   78.3390 C   0  0  0  0  0  0  0  0  0  0  0  0
    0.0979   63.0339   79.6283 C   0  0  0  0  0  0  0  0  0  0  0  0
    0.1319   63.5998   80.9277 C   0  0  0  0  0  0  0  0  0  0  0  0
   -0.3348   62.6571   81.8216 C   0  0  0  0  0  0  0  0  0  0  0  0
   -0.5797   61.5077   81.1168 N   0  0  0  0  0  0  0  0  0  0  0  0
   -0.3550   61.7219   79.7741 C   0  0  0  0  0  0  0  0  0  0  0  0
   -0.5053   60.8545   78.6851 C   0  0  0  0  0  0  0  0  0  0  0  0
   -0.4652   62.8003   83.3090 C   0  0  0  0  0  0  0  0  0  0  0  0
    0.1369   64.0629   83.7327 N   0  0  0  0  0  0  0  0  0  0  0  0
    1.0932   64.7633   82.8594 C   0  0  0  0  0  0  0  0  0  0  0  0
    0.5898   64.9246   81.4143 C   0  0  0  0  0  0  0  0  0  0  0  0
    0.1771   64.3272   85.0992 C   0  0  0  0  0  0  0  0  0  0  0  0
    0.9240   65.1750   85.5796 O   0  0  0  0  0  0  0  0  0  0  0  0
   -0.7800   63.5542   85.9457 C   0  0  0  0  0  0  0  0  0  0  0  0
   -0.7247   63.5738   87.3492 C   0  0  0  0  0  0  0  0  0  0  0  0
   -1.6681   62.8725   88.1007 C   0  0  0  0  0  0  0  0  0  0  0  0
   -2.6922   62.1874   87.4583 C   0  0  0  0  0  0  0  0  0  0  0  0
   -2.7580   62.1741   86.0619 C   0  0  0  0  0  0  0  0  0  0  0  0
   -1.7975   62.8341   85.2756 C   0  0  0  0  0  0  0  0  0  0  0  0
   -1.8175   62.8140   83.8686 N   0  0  0  0  0  0  0  0  0  0  0  0
   -2.9148   62.1774   83.1627 C   0  0  0  0  0  0  0  0  0  0  0  0
   -0.8963   60.6319   81.5096 H   0  0  0  0  0  0  0  0  0  0  0  0
   -1.0334   59.2034   76.7562 C   0  0  0  0  0  0  0  0  0  0  0  0
   -0.3677   60.4104   76.4072 O   0  0  0  0  0  0  0  0  0  0  0  0
    0.2901   64.1865   88.0359 O   0  0  0  0  0  0  0  0  0  0  0  0
    0.9621   63.2453   88.8750 C   0  0  0  0  0  0  0  0  0  0  0  0
 25 26  1  0  0  0
 26  1  1  0  0  0
  1  2  2  0  0  0
  2  3  1  0  0  0
  3  4  2  0  0  0
  4  5  1  0  0  0
  5  6  2  0  0  0
  6  7  1  0  0  0
  7  8  1  0  0  0
  8  9  2  0  0  0
  6 10  1  0  0  0
 10 11  1  0  0  0
 11 12  1  0  0  0
 12 13  1  0  0  0
 11 14  1  0  0  0
 14 15  2  0  0  0
 14 16  1  0  0  0
 16 17  2  0  0  0
 17 27  1  0  0  0
 27 28  1  0  0  0
 17 18  1  0  0  0
 18 19  2  0  0  0
 19 20  1  0  0  0
 20 21  2  0  0  0
 21 22  1  0  0  0
 22 23  1  0  0  0
  9  1  1  0  0  0
 22 10  1  0  0  0
  8  4  1  0  0  0
 21 16  1  0  0  0
 13  5  1  0  0  0
  7 24  1  0  0  0
M  END
> <minimizedAffinity>
-10.01167

$$$$



 28 32  0  0  0  0  0  0  0  0999 V2000
    3.3357   71.6390   81.7475 C   0  0  0  0  0  0  0  0  0  0  0  0
    3.6937   71.1757   80.4818 C   0  0  0  0  0  0  0  0  0  0  0  0
    3.3067   69.8985   80.0468 C   0  0  0  0  0  0  0  0  0  0  0  0
    2.5532   69.0723   80.9007 C   0  0  0  0  0  0  0  0  0  0  0  0
    1.9982   67.7719   80.7964 C   0  0  0  0  0  0  0  0  0  0  0  0
    1.3693   67.4739   81.9887 C   0  0  0  0  0  0  0  0  0  0  0  0
    1.4578   68.5829   82.7887 N   0  0  0  0  0  0  0  0  0  0  0  0
    2.2025   69.5580   82.1612 C   0  0  0  0  0  0  0  0  0  0  0  0
    2.5793   70.8312   82.6063 C   0  0  0  0  0  0  0  0  0  0  0  0
    0.6294   66.2167   82.3372 C   0  0  0  0  0  0  0  0  0  0  0  0
    0.5175   65.3709   81.1504 N   0  0  0  0  0  0  0  0  0  0  0  0
    0.6991   65.9440   79.8064 C   0  0  0  0  0  0  0  0  0  0  0  0
    1.9728   66.7976   79.6776 C   0  0  0  0  0  0  0  0  0  0  0  0
   -0.2126   64.1914   81.2704 C   0  0  0  0  0  0  0  0  0  0  0  0
   -0.6359   63.5819   80.2922 O   0  0  0  0  0  0  0  0  0  0  0  0
   -0.4092   63.6795   82.6594 C   0  0  0  0  0  0  0  0  0  0  0  0
   -1.2776   62.6144   82.9503 C   0  0  0  0  0  0  0  0  0  0  0  0
   -1.3954   62.1389   84.2566 C   0  0  0  0  0  0  0  0  0  0  0  0
   -0.6179   62.6930   85.2663 C   0  0  0  0  0  0  0  0  0  0  0  0
    0.2561   63.7457   84.9797 C   0  0  0  0  0  0  0  0  0  0  0  0
    0.3653   64.2765   83.6825 C   0  0  0  0  0  0  0  0  0  0  0  0
    1.2118   65.3557   83.3674 N   0  0  0  0  0  0  0  0  0  0  0  0
    2.0977   65.9079   84.3765 C   0  0  0  0  0  0  0  0  0  0  0  0
    1.0565   68.6772   83.7115 H   0  0  0  0  0  0  0  0  0  0  0  0
    2.7698   73.4001   83.2453 C   0  0  0  0  0  0  0  0  0  0  0  0
    3.6569   72.8639   82.2720 O   0  0  0  0  0  0  0  0  0  0  0  0
   -2.1067   62.0643   82.0086 O   0  0  0  0  0  0  0  0  0  0  0  0
   -1.9065   60.6516   81.9340 C   0  0  0  0  0  0  0  0  0  0  0  0
 25 26  1  0  0  0
 26  1  1  0  0  0
  1  2  2  0  0  0
  2  3  1  0  0  0
  3  4  2  0  0  0
  4  5  1  0  0  0
  5  6  2  0  0  0
  6  7  1  0  0  0
  7  8  1  0  0  0
  8  9  2  0  0  0
  6 10  1  0  0  0
 10 11  1  0  0  0
 11 12  1  0  0  0
 12 13  1  0  0  0
 11 14  1  0  0  0
 14 15  2  0  0  0
 14 16  1  0  0  0
 16 17  2  0  0  0
 17 27  1  0  0  0
 27 28  1  0  0  0
 17 18  1  0  0  0
 18 19  2  0  0  0
 19 20  1  0  0  0
 20 21  2  0  0  0
 21 22  1  0  0  0
 22 23  1  0  0  0
  9  1  1  0  0  0
 22 10  1  0  0  0
  8  4  1  0  0  0
 21 16  1  0  0  0
 13  5  1  0  0  0
  7 24  1  0  0  0
M  END
> <minimizedAffinity>
-9.32748

$$$$



 28 32  0  0  0  0  0  0  0  0999 V2000
    2.6075   69.8251   80.4014 C   0  0  0  0  0  0  0  0  0  0  0  0
    2.3105   68.9197   79.3831 C   0  0  0  0  0  0  0  0  0  0  0  0
    1.7820   67.6531   79.6776 C   0  0  0  0  0  0  0  0  0  0  0  0
    1.5546   67.2895   81.0175 C   0  0  0  0  0  0  0  0  0  0  0  0
    1.0410   66.1377   81.6652 C   0  0  0  0  0  0  0  0  0  0  0  0
    1.0784   66.3557   83.0278 C   0  0  0  0  0  0  0  0  0  0  0  0
    1.5272   67.6350   83.2275 N   0  0  0  0  0  0  0  0  0  0  0  0
    1.8549   68.2128   82.0200 C   0  0  0  0  0  0  0  0  0  0  0  0
    2.3795   69.4806   81.7398 C   0  0  0  0  0  0  0  0  0  0  0  0
    0.6234   65.4232   84.1109 C   0  0  0  0  0  0  0  0  0  0  0  0
   -0.0388   64.2658   83.5125 N   0  0  0  0  0  0  0  0  0  0  0  0
   -0.5452   64.3277   82.1314 C   0  0  0  0  0  0  0  0  0  0  0  0
    0.4895   64.8687   81.1292 C   0  0  0  0  0  0  0  0  0  0  0  0
   -0.5978   63.3288   84.3776 C   0  0  0  0  0  0  0  0  0  0  0  0
   -1.4340   62.5111   84.0043 O   0  0  0  0  0  0  0  0  0  0  0  0
   -0.0835   63.3410   85.7796 C   0  0  0  0  0  0  0  0  0  0  0  0
   -0.6819   62.5895   86.8045 C   0  0  0  0  0  0  0  0  0  0  0  0
   -0.1397   62.5953   88.0900 C   0  0  0  0  0  0  0  0  0  0  0  0
    1.0220   63.3132   88.3466 C   0  0  0  0  0  0  0  0  0  0  0  0
    1.6275   64.0538   87.3271 C   0  0  0  0  0  0  0  0  0  0  0  0
    1.0815   64.1038   86.0327 C   0  0  0  0  0  0  0  0  0  0  0  0
    1.6487   64.8641   84.9931 N   0  0  0  0  0  0  0  0  0  0  0  0
    2.9047   65.5621   85.2002 C   0  0  0  0  0  0  0  0  0  0  0  0
    1.6253   68.0918   84.1237 H   0  0  0  0  0  0  0  0  0  0  0  0
    4.5390   71.1945   80.1584 C   0  0  0  0  0  0  0  0  0  0  0  0
    3.1231   71.0832   80.2287 O   0  0  0  0  0  0  0  0  0  0  0  0
   -1.8556   61.9061   86.6250 O   0  0  0  0  0  0  0  0  0  0  0  0
   -2.9543   62.6612   87.1390 C   0  0  0  0  0  0  0  0  0  0  0  0
 25 26  1  0  0  0
 26  1  1  0  0  0
  1  2  2  0  0  0
  2  3  1  0  0  0
  3  4  2  0  0  0
  4  5  1  0  0  0
  5  6  2  0  0  0
  6  7  1  0  0  0
  7  8  1  0  0  0
  8  9  2  0  0  0
  6 10  1  0  0  0
 10 11  1  0  0  0
 11 12  1  0  0  0
 12 13  1  0  0  0
 11 14  1  0  0  0
 14 15  2  0  0  0
 14 16  1  0  0  0
 16 17  2  0  0  0
 17 27  1  0  0  0
 27 28  1  0  0  0
 17 18  1  0  0  0
 18 19  2  0  0  0
 19 20  1  0  0  0
 20 21  2  0  0  0
 21 22  1  0  0  0
 22 23  1  0  0  0
  9  1  1  0  0  0
 22 10  1  0  0  0
  8  4  1  0  0  0
 21 16  1  0  0  0
 13  5  1  0  0  0
  7 24  1  0  0  0
M  END
> <minimizedAffinity>
-9.32566

$$$$



 28 32  0  0  0  0  0  0  0  0999 V2000
    3.5985   74.5674   82.7873 C   0  0  0  0  0  0  0  0  0  0  0  0
    4.1297   74.3468   81.5168 C   0  0  0  0  0  0  0  0  0  0  0  0
    3.9632   73.1113   80.8716 C   0  0  0  0  0  0  0  0  0  0  0  0
    3.2568   72.0799   81.5172 C   0  0  0  0  0  0  0  0  0  0  0  0
    2.8980   70.7515   81.1761 C   0  0  0  0  0  0  0  0  0  0  0  0
    2.2111   70.2029   82.2405 C   0  0  0  0  0  0  0  0  0  0  0  0
    2.0734   71.1818   83.1895 N   0  0  0  0  0  0  0  0  0  0  0  0
    2.7302   72.3243   82.7863 C   0  0  0  0  0  0  0  0  0  0  0  0
    2.8863   73.5529   83.4397 C   0  0  0  0  0  0  0  0  0  0  0  0
    1.6230   68.8261   82.3310 C   0  0  0  0  0  0  0  0  0  0  0  0
    1.7362   68.1605   81.0346 N   0  0  0  0  0  0  0  0  0  0  0  0
    1.9578   68.9465   79.8096 C   0  0  0  0  0  0  0  0  0  0  0  0
    3.1081   69.9604   79.9385 C   0  0  0  0  0  0  0  0  0  0  0  0
    1.1678   66.8954   80.9118 C   0  0  0  0  0  0  0  0  0  0  0  0
    0.9226   66.3919   79.8192 O   0  0  0  0  0  0  0  0  0  0  0  0
    0.9191   66.1608   82.1879 C   0  0  0  0  0  0  0  0  0  0  0  0
    0.1830   64.9653   82.2339 C   0  0  0  0  0  0  0  0  0  0  0  0
    0.0144   64.2884   83.4422 C   0  0  0  0  0  0  0  0  0  0  0  0
    0.6139   64.7765   84.5969 C   0  0  0  0  0  0  0  0  0  0  0  0
    1.3567   65.9600   84.5541 C   0  0  0  0  0  0  0  0  0  0  0  0
    1.5084   66.6886   83.3615 C   0  0  0  0  0  0  0  0  0  0  0  0
    2.2231   67.8989   83.2912 N   0  0  0  0  0  0  0  0  0  0  0  0
    2.9298   68.3985   84.4569 C   0  0  0  0  0  0  0  0  0  0  0  0
    1.5813   71.0864   84.0672 H   0  0  0  0  0  0  0  0  0  0  0  0
    4.5878   75.7254   84.6163 C   0  0  0  0  0  0  0  0  0  0  0  0
    3.6993   75.7299   83.5062 O   0  0  0  0  0  0  0  0  0  0  0  0
   -0.4740   64.4646   81.1410 O   0  0  0  0  0  0  0  0  0  0  0  0
   -0.2516   63.0577   81.0284 C   0  0  0  0  0  0  0  0  0  0  0  0
 25 26  1  0  0  0
 26  1  1  0  0  0
  1  2  2  0  0  0
  2  3  1  0  0  0
  3  4  2  0  0  0
  4  5  1  0  0  0
  5  6  2  0  0  0
  6  7  1  0  0  0
  7  8  1  0  0  0
  8  9  2  0  0  0
  6 10  1  0  0  0
 10 11  1  0  0  0
 11 12  1  0  0  0
 12 13  1  0  0  0
 11 14  1  0  0  0
 14 15  2  0  0  0
 14 16  1  0  0  0
 16 17  2  0  0  0
 17 27  1  0  0  0
 27 28  1  0  0  0
 17 18  1  0  0  0
 18 19  2  0  0  0
 19 20  1  0  0  0
 20 21  2  0  0  0
 21 22  1  0  0  0
 22 23  1  0  0  0
  9  1  1  0  0  0
 22 10  1  0  0  0
  8  4  1  0  0  0
 21 16  1  0  0  0
 13  5  1  0  0  0
  7 24  1  0  0  0
M  END
> <minimizedAffinity>
-9.30578

$$$$



 28 32  0  0  0  0  0  0  0  0999 V2000
   -2.6593   61.6649   81.9283 C   0  0  0  0  0  0  0  0  0  0  0  0
   -1.9452   61.3051   83.0708 C   0  0  0  0  0  0  0  0  0  0  0  0
   -0.9542   62.1492   83.5959 C   0  0  0  0  0  0  0  0  0  0  0  0
   -0.6731   63.3713   82.9581 C   0  0  0  0  0  0  0  0  0  0  0  0
    0.2235   64.4417   83.2038 C   0  0  0  0  0  0  0  0  0  0  0  0
    0.0607   65.3795   82.2040 C   0  0  0  0  0  0  0  0  0  0  0  0
   -0.9616   64.9495   81.3992 N   0  0  0  0  0  0  0  0  0  0  0  0
   -1.4029   63.7131   81.8186 C   0  0  0  0  0  0  0  0  0  0  0  0
   -2.3961   62.8818   81.2863 C   0  0  0  0  0  0  0  0  0  0  0  0
    0.7831   66.6856   82.0557 C   0  0  0  0  0  0  0  0  0  0  0  0
    1.6063   66.9255   83.2394 N   0  0  0  0  0  0  0  0  0  0  0  0
    1.3366   66.2039   84.4941 C   0  0  0  0  0  0  0  0  0  0  0  0
    1.1921   64.6842   84.3013 C   0  0  0  0  0  0  0  0  0  0  0  0
    2.2904   68.1362   83.3098 C   0  0  0  0  0  0  0  0  0  0  0  0
    2.7382   68.5739   84.3659 O   0  0  0  0  0  0  0  0  0  0  0  0
    2.4945   68.8511   82.0147 C   0  0  0  0  0  0  0  0  0  0  0  0
    2.9948   70.1622   81.9525 C   0  0  0  0  0  0  0  0  0  0  0  0
    3.2126   70.7747   80.7180 C   0  0  0  0  0  0  0  0  0  0  0  0
    2.9745   70.0688   79.5450 C   0  0  0  0  0  0  0  0  0  0  0  0
    2.4871   68.7598   79.6017 C   0  0  0  0  0  0  0  0  0  0  0  0
    2.2157   68.1302   80.8290 C   0  0  0  0  0  0  0  0  0  0  0  0
    1.6955   66.8258   80.9200 N   0  0  0  0  0  0  0  0  0  0  0  0
    1.5094   66.0285   79.7210 C   0  0  0  0  0  0  0  0  0  0  0  0
   -1.3334   65.4475   80.6021 H   0  0  0  0  0  0  0  0  0  0  0  0
   -4.1972   61.4327   80.1266 C   0  0  0  0  0  0  0  0  0  0  0  0
   -3.6447   60.9213   81.3329 O   0  0  0  0  0  0  0  0  0  0  0  0
    3.1979   70.9249   83.0722 O   0  0  0  0  0  0  0  0  0  0  0  0
    2.7707   72.2689   82.8428 C   0  0  0  0  0  0  0  0  0  0  0  0
 25 26  1  0  0  0
 26  1  1  0  0  0
  1  2  2  0  0  0
  2  3  1  0  0  0
  3  4  2  0  0  0
  4  5  1  0  0  0
  5  6  2  0  0  0
  6  7  1  0  0  0
  7  8  1  0  0  0
  8  9  2  0  0  0
  6 10  1  0  0  0
 10 11  1  0  0  0
 11 12  1  0  0  0
 12 13  1  0  0  0
 11 14  1  0  0  0
 14 15  2  0  0  0
 14 16  1  0  0  0
 16 17  2  0  0  0
 17 27  1  0  0  0
 27 28  1  0  0  0
 17 18  1  0  0  0
 18 19  2  0  0  0
 19 20  1  0  0  0
 20 21  2  0  0  0
 21 22  1  0  0  0
 22 23  1  0  0  0
  9  1  1  0  0  0
 22 10  1  0  0  0
  8  4  1  0  0  0
 21 16  1  0  0  0
 13  5  1  0  0  0
  7 24  1  0  0  0
M  END
> <minimizedAffinity>
-9.19470

$$$$



 28 32  0  0  0  0  0  0  0  0999 V2000
   -2.4790   60.3990   77.0864 C   0  0  0  0  0  0  0  0  0  0  0  0
   -2.4884   61.6181   76.4094 C   0  0  0  0  0  0  0  0  0  0  0  0
   -1.9812   62.7800   77.0120 C   0  0  0  0  0  0  0  0  0  0  0  0
   -1.4624   62.7156   78.3182 C   0  0  0  0  0  0  0  0  0  0  0  0
   -0.8786   63.6532   79.2070 C   0  0  0  0  0  0  0  0  0  0  0  0
   -0.5764   63.0008   80.3855 C   0  0  0  0  0  0  0  0  0  0  0  0
   -0.8875   61.6773   80.2143 N   0  0  0  0  0  0  0  0  0  0  0  0
   -1.4591   61.4843   78.9752 C   0  0  0  0  0  0  0  0  0  0  0  0
   -1.9589   60.3172   78.3845 C   0  0  0  0  0  0  0  0  0  0  0  0
    0.0676   63.5835   81.6083 C   0  0  0  0  0  0  0  0  0  0  0  0
    0.4976   64.9522   81.3286 N   0  0  0  0  0  0  0  0  0  0  0  0
    0.6622   65.4132   79.9401 C   0  0  0  0  0  0  0  0  0  0  0  0
   -0.5478   65.0906   79.0459 C   0  0  0  0  0  0  0  0  0  0  0  0
    1.1902   65.6243   82.3323 C   0  0  0  0  0  0  0  0  0  0  0  0
    1.8627   66.6259   82.1048 O   0  0  0  0  0  0  0  0  0  0  0  0
    1.0273   65.0860   83.7157 C   0  0  0  0  0  0  0  0  0  0  0  0
    1.8072   65.5381   84.7930 C   0  0  0  0  0  0  0  0  0  0  0  0
    1.5892   65.0398   86.0778 C   0  0  0  0  0  0  0  0  0  0  0  0
    0.5672   64.1247   86.2997 C   0  0  0  0  0  0  0  0  0  0  0  0
   -0.2190   63.6802   85.2327 C   0  0  0  0  0  0  0  0  0  0  0  0
    0.0040   64.1296   83.9195 C   0  0  0  0  0  0  0  0  0  0  0  0
   -0.7487   63.6785   82.8194 N   0  0  0  0  0  0  0  0  0  0  0  0
   -1.8750   62.7851   83.0221 C   0  0  0  0  0  0  0  0  0  0  0  0
   -0.7413   60.9449   80.8953 H   0  0  0  0  0  0  0  0  0  0  0  0
   -1.9898   58.1709   76.4072 C   0  0  0  0  0  0  0  0  0  0  0  0
   -2.9450   59.2072   76.5957 O   0  0  0  0  0  0  0  0  0  0  0  0
    2.8612   66.3974   84.6273 O   0  0  0  0  0  0  0  0  0  0  0  0
    4.0646   65.8104   85.1261 C   0  0  0  0  0  0  0  0  0  0  0  0
 25 26  1  0  0  0
 26  1  1  0  0  0
  1  2  2  0  0  0
  2  3  1  0  0  0
  3  4  2  0  0  0
  4  5  1  0  0  0
  5  6  2  0  0  0
  6  7  1  0  0  0
  7  8  1  0  0  0
  8  9  2  0  0  0
  6 10  1  0  0  0
 10 11  1  0  0  0
 11 12  1  0  0  0
 12 13  1  0  0  0
 11 14  1  0  0  0
 14 15  2  0  0  0
 14 16  1  0  0  0
 16 17  2  0  0  0
 17 27  1  0  0  0
 27 28  1  0  0  0
 17 18  1  0  0  0
 18 19  2  0  0  0
 19 20  1  0  0  0
 20 21  2  0  0  0
 21 22  1  0  0  0
 22 23  1  0  0  0
  9  1  1  0  0  0
 22 10  1  0  0  0
  8  4  1  0  0  0
 21 16  1  0  0  0
 13  5  1  0  0  0
  7 24  1  0  0  0
M  END
> <minimizedAffinity>
-9.07304

$$$$



 28 32  0  0  0  0  0  0  0  0999 V2000
    2.5970   71.2467   81.2680 C   0  0  0  0  0  0  0  0  0  0  0  0
    3.2550   70.7527   80.1421 C   0  0  0  0  0  0  0  0  0  0  0  0
    3.0179   69.4469   79.6848 C   0  0  0  0  0  0  0  0  0  0  0  0
    2.1093   68.6234   80.3746 C   0  0  0  0  0  0  0  0  0  0  0  0
    1.6320   67.2999   80.2004 C   0  0  0  0  0  0  0  0  0  0  0  0
    0.7499   67.0206   81.2249 C   0  0  0  0  0  0  0  0  0  0  0  0
    0.6162   68.1600   81.9745 N   0  0  0  0  0  0  0  0  0  0  0  0
    1.4589   69.1399   81.4961 C   0  0  0  0  0  0  0  0  0  0  0  0
    1.6839   70.4415   81.9610 C   0  0  0  0  0  0  0  0  0  0  0  0
   -0.0146   65.7492   81.4456 C   0  0  0  0  0  0  0  0  0  0  0  0
    0.1794   64.8581   80.3034 N   0  0  0  0  0  0  0  0  0  0  0  0
    0.6547   65.3896   79.0152 C   0  0  0  0  0  0  0  0  0  0  0  0
    1.8979   66.2862   79.1500 C   0  0  0  0  0  0  0  0  0  0  0  0
   -0.5240   63.6566   80.3010 C   0  0  0  0  0  0  0  0  0  0  0  0
   -0.6883   62.9970   79.2786 O   0  0  0  0  0  0  0  0  0  0  0  0
   -1.0261   63.1872   81.6268 C   0  0  0  0  0  0  0  0  0  0  0  0
   -1.9075   62.1007   81.7532 C   0  0  0  0  0  0  0  0  0  0  0  0
   -2.3146   61.6678   83.0155 C   0  0  0  0  0  0  0  0  0  0  0  0
   -1.8119   62.2867   84.1535 C   0  0  0  0  0  0  0  0  0  0  0  0
   -0.9258   63.3613   84.0331 C   0  0  0  0  0  0  0  0  0  0  0  0
   -0.5307   63.8495   82.7754 C   0  0  0  0  0  0  0  0  0  0  0  0
    0.3346   64.9483   82.6198 N   0  0  0  0  0  0  0  0  0  0  0  0
    0.9427   65.5694   83.7825 C   0  0  0  0  0  0  0  0  0  0  0  0
    0.0071   68.2715   82.7733 H   0  0  0  0  0  0  0  0  0  0  0  0
    2.1410   72.7450   83.0603 C   0  0  0  0  0  0  0  0  0  0  0  0
    2.7507   72.5008   81.7991 O   0  0  0  0  0  0  0  0  0  0  0  0
   -2.4763   61.4862   80.6690 O   0  0  0  0  0  0  0  0  0  0  0  0
   -3.8504   61.8592   80.5501 C   0  0  0  0  0  0  0  0  0  0  0  0
 25 26  1  0  0  0
 26  1  1  0  0  0
  1  2  2  0  0  0
  2  3  1  0  0  0
  3  4  2  0  0  0
  4  5  1  0  0  0
  5  6  2  0  0  0
  6  7  1  0  0  0
  7  8  1  0  0  0
  8  9  2  0  0  0
  6 10  1  0  0  0
 10 11  1  0  0  0
 11 12  1  0  0  0
 12 13  1  0  0  0
 11 14  1  0  0  0
 14 15  2  0  0  0
 14 16  1  0  0  0
 16 17  2  0  0  0
 17 27  1  0  0  0
 27 28  1  0  0  0
 17 18  1  0  0  0
 18 19  2  0  0  0
 19 20  1  0  0  0
 20 21  2  0  0  0
 21 22  1  0  0  0
 22 23  1  0  0  0
  9  1  1  0  0  0
 22 10  1  0  0  0
  8  4  1  0  0  0
 21 16  1  0  0  0
 13  5  1  0  0  0
  7 24  1  0  0  0
M  END
> <minimizedAffinity>
-8.73690

$$$$
