
     RDKit          3D

 41 43  0  0  0  0  0  0  0  0999 V2000
    4.5878    1.1986    3.6846 C   0  0  0  0  0  0  0  0  0  0  0  0
    4.5334    0.5076    2.3679 C   0  0  0  0  0  0  0  0  0  0  0  0
    3.2801    0.3043    1.8030 N   0  0  0  0  0  0  0  0  0  0  0  0
    3.3986   -0.3103    0.6512 C   0  0  0  0  0  0  0  0  0  0  0  0
    2.3007   -0.6215   -0.1001 N   0  0  0  0  0  0  0  0  0  0  0  0
    2.2582   -1.2591   -1.3169 C   0  0  0  0  0  0  0  0  0  0  0  0
    3.1974   -1.6799   -1.9801 O   0  0  0  0  0  0  0  0  0  0  0  0
    0.8553   -1.4223   -1.8259 C   0  0  0  0  0  0  0  0  0  0  0  0
    0.6248   -2.0287   -3.0528 C   0  0  0  0  0  0  0  0  0  0  0  0
   -0.6910   -2.1581   -3.4797 C   0  0  0  0  0  0  0  0  0  0  0  0
   -1.7212   -1.6791   -2.6737 C   0  0  0  0  0  0  0  0  0  0  0  0
   -1.4113   -1.0731   -1.4549 C   0  0  0  0  0  0  0  0  0  0  0  0
   -2.5169   -0.5695   -0.5498 C   0  0  0  0  0  0  0  0  0  0  0  0
   -3.4180    0.2451   -1.3012 O   0  0  0  0  0  0  0  0  0  0  0  0
   -4.4981    0.7533   -0.6340 C   0  0  0  0  0  0  0  0  0  0  0  0
   -5.3621    1.5177   -1.4231 C   0  0  0  0  0  0  0  0  0  0  0  0
   -6.5064    2.0958   -0.8713 C   0  0  0  0  0  0  0  0  0  0  0  0
   -6.7935    1.9126    0.4788 C   0  0  0  0  0  0  0  0  0  0  0  0
   -5.9356    1.1535    1.2729 C   0  0  0  0  0  0  0  0  0  0  0  0
   -4.7891    0.5743    0.7194 C   0  0  0  0  0  0  0  0  0  0  0  0
   -0.1331   -0.9472   -1.0127 N   0  0  0  0  0  0  0  0  0  0  0  0
    4.9830   -0.6845    0.1726 S   0  0  0  0  0  0  0  0  0  0  0  0
    5.5943    0.0284    1.6122 C   0  0  0  0  0  0  0  0  0  0  0  0
    7.0153    0.0393    1.8374 C   0  0  0  0  0  0  0  0  0  0  0  0
    7.9070   -0.4040    1.1275 O   0  0  0  0  0  0  0  0  0  0  0  0
    7.3452    0.6324    3.0071 O   0  0  0  0  0  0  0  0  0  0  0  0
    3.5816    1.4572    4.0303 H   0  0  0  0  0  0  0  0  0  0  0  0
    5.1633    2.1264    3.6108 H   0  0  0  0  0  0  0  0  0  0  0  0
    5.0443    0.5532    4.4413 H   0  0  0  0  0  0  0  0  0  0  0  0
    1.4122   -0.3392    0.3001 H   0  0  0  0  0  0  0  0  0  0  0  0
    1.4479   -2.3904   -3.6609 H   0  0  0  0  0  0  0  0  0  0  0  0
   -0.9141   -2.6265   -4.4347 H   0  0  0  0  0  0  0  0  0  0  0  0
   -2.7547   -1.7710   -2.9973 H   0  0  0  0  0  0  0  0  0  0  0  0
   -3.0377   -1.4417   -0.1360 H   0  0  0  0  0  0  0  0  0  0  0  0
   -2.0703    0.0189    0.2610 H   0  0  0  0  0  0  0  0  0  0  0  0
   -5.1410    1.6658   -2.4773 H   0  0  0  0  0  0  0  0  0  0  0  0
   -7.1699    2.6888   -1.4951 H   0  0  0  0  0  0  0  0  0  0  0  0
   -7.6829    2.3624    0.9125 H   0  0  0  0  0  0  0  0  0  0  0  0
   -6.1582    1.0130    2.3278 H   0  0  0  0  0  0  0  0  0  0  0  0
   -4.1482   -0.0047    1.3756 H   0  0  0  0  0  0  0  0  0  0  0  0
    8.3227    0.5626    3.0140 H   0  0  0  0  0  0  0  0  0  0  0  0
  1  2  1  0
  2  3  1  0
  3  4  2  0
  4  5  1  0
  5  6  1  0
  6  7  2  0
  6  8  1  0
  8  9  1  0
  9 10  2  0
 10 11  1  0
 11 12  2  0
 12 13  1  0
 13 14  1  0
 14 15  1  0
 15 16  2  0
 16 17  1  0
 17 18  2  0
 18 19  1  0
 19 20  2  0
 12 21  1  0
  4 22  1  0
 22 23  1  0
 23 24  1  0
 24 25  2  0
 24 26  1  0
 23  2  2  0
 21  8  2  0
 20 15  1  0
  1 27  1  0
  1 28  1  0
  1 29  1  0
  5 30  1  0
  9 31  1  0
 10 32  1  0
 11 33  1  0
 13 34  1  0
 13 35  1  0
 16 36  1  0
 17 37  1  0
 18 38  1  0
 19 39  1  0
 20 40  1  0
 26 41  1  0
M  END
$$$$
