


 34 39  0  0  0  0  0  0  0  0999 V2000
    1.1811   66.2583   79.9004 C   0  0  0  0  0  0  0  0  0  0  0  0
    1.5647   66.7629   81.2723 C   0  0  0  0  0  0  0  0  0  0  0  0
    2.2472   67.8627   81.2862 N   0  0  0  0  0  0  0  0  0  0  0  0
    2.6265   68.3774   82.4968 N   0  0  0  0  0  0  0  0  0  0  0  0
    2.3327   67.7927   83.7185 C   0  0  0  0  0  0  0  0  0  0  0  0
    2.6844   68.2724   84.7976 O   0  0  0  0  0  0  0  0  0  0  0  0
    1.5449   66.5055   83.6755 C   0  0  0  0  0  0  0  0  0  0  0  0
    1.2655   65.9161   84.9062 N   0  0  0  0  0  0  0  0  0  0  0  0
    0.5861   64.8000   84.9460 C   0  0  0  0  0  0  0  0  0  0  0  0
    0.1428   64.2464   83.7272 N   0  0  0  0  0  0  0  0  0  0  0  0
   -0.6181   63.1368   83.6636 N   0  0  0  0  0  0  0  0  0  0  0  0
   -0.8385   62.9314   82.3575 C   0  0  0  0  0  0  0  0  0  0  0  0
   -0.2187   63.9550   81.5880 C   0  0  0  0  0  0  0  0  0  0  0  0
    0.3966   64.7976   82.4880 C   0  0  0  0  0  0  0  0  0  0  0  0
    1.1575   66.0013   82.4856 C   0  0  0  0  0  0  0  0  0  0  0  0
    0.3251   64.2053   86.2886 C   0  0  0  0  0  0  0  0  0  0  0  0
   -0.9298   63.7576   86.7057 C   0  0  0  0  0  0  0  0  0  0  0  0
   -1.0772   63.2064   87.9785 C   0  0  0  0  0  0  0  0  0  0  0  0
    0.0399   63.1123   88.7918 C   0  0  0  0  0  0  0  0  0  0  0  0
    1.2710   63.5188   88.4186 N   0  0  0  0  0  0  0  0  0  0  0  0
    1.3881   64.0466   87.1734 C   0  0  0  0  0  0  0  0  0  0  0  0
   -1.6296   61.7897   81.8836 C   0  0  0  0  0  0  0  0  0  0  0  0
   -2.2897   60.9551   82.7997 C   0  0  0  0  0  0  0  0  0  0  0  0
   -3.0486   59.8669   82.3609 C   0  0  0  0  0  0  0  0  0  0  0  0
   -3.1562   59.5968   80.9993 C   0  0  0  0  0  0  0  0  0  0  0  0
   -2.5049   60.4125   80.0769 C   0  0  0  0  0  0  0  0  0  0  0  0
   -1.7457   61.5023   80.5154 C   0  0  0  0  0  0  0  0  0  0  0  0
    3.3234   69.6601   82.4656 C   0  0  0  0  0  0  0  0  0  0  0  0
    2.3649   70.8253   82.3714 C   0  0  0  0  0  0  0  0  0  0  0  0
    2.7649   72.1100   82.7665 C   0  0  0  0  0  0  0  0  0  0  0  0
    1.8848   73.1886   82.6648 C   0  0  0  0  0  0  0  0  0  0  0  0
    0.6000   72.9954   82.1602 C   0  0  0  0  0  0  0  0  0  0  0  0
    0.1957   71.7256   81.7519 C   0  0  0  0  0  0  0  0  0  0  0  0
    1.0742   70.6459   81.8535 C   0  0  0  0  0  0  0  0  0  0  0  0
  1  2  1  0  0  0
  2  3  2  0  0  0
  3  4  1  0  0  0
  4 28  1  0  0  0
 28 29  1  0  0  0
 29 30  2  0  0  0
 30 31  1  0  0  0
 31 32  2  0  0  0
 32 33  1  0  0  0
 33 34  2  0  0  0
  4  5  1  0  0  0
  5  6  2  0  0  0
  5  7  1  0  0  0
  7  8  1  0  0  0
  8  9  2  0  0  0
  9 16  1  0  0  0
 16 17  1  0  0  0
 17 18  2  0  0  0
 18 19  1  0  0  0
 19 20  2  0  0  0
 20 21  1  0  0  0
  9 10  1  0  0  0
 10 11  1  0  0  0
 11 12  2  0  0  0
 12 22  1  0  0  0
 22 23  2  0  0  0
 23 24  1  0  0  0
 24 25  2  0  0  0
 25 26  1  0  0  0
 26 27  2  0  0  0
 12 13  1  0  0  0
 13 14  2  0  0  0
 14 15  1  0  0  0
 15  2  1  0  0  0
 34 29  1  0  0  0
 15  7  2  0  0  0
 21 16  2  0  0  0
 14 10  1  0  0  0
 27 22  1  0  0  0
M  END
> <minimizedAffinity>
-12.04707

$$$$



 34 39  0  0  0  0  0  0  0  0999 V2000
   -1.0159   61.0269   81.5732 C   0  0  0  0  0  0  0  0  0  0  0  0
   -0.5437   62.1848   80.7246 C   0  0  0  0  0  0  0  0  0  0  0  0
   -0.6327   62.0058   79.4457 N   0  0  0  0  0  0  0  0  0  0  0  0
   -0.2237   63.0163   78.6176 N   0  0  0  0  0  0  0  0  0  0  0  0
    0.2897   64.2257   79.0589 C   0  0  0  0  0  0  0  0  0  0  0  0
    0.6529   65.1225   78.2961 O   0  0  0  0  0  0  0  0  0  0  0  0
    0.3932   64.4064   80.5542 C   0  0  0  0  0  0  0  0  0  0  0  0
    0.9231   65.6185   80.9901 N   0  0  0  0  0  0  0  0  0  0  0  0
    1.0417   65.8453   82.2721 C   0  0  0  0  0  0  0  0  0  0  0  0
    0.6030   64.8487   83.1681 N   0  0  0  0  0  0  0  0  0  0  0  0
    0.6211   65.0102   84.5051 N   0  0  0  0  0  0  0  0  0  0  0  0
    0.1285   63.8693   85.0076 C   0  0  0  0  0  0  0  0  0  0  0  0
   -0.2293   62.9828   83.9541 C   0  0  0  0  0  0  0  0  0  0  0  0
    0.0719   63.6361   82.7788 C   0  0  0  0  0  0  0  0  0  0  0  0
   -0.0209   63.4186   81.3745 C   0  0  0  0  0  0  0  0  0  0  0  0
    1.6262   67.1540   82.6842 C   0  0  0  0  0  0  0  0  0  0  0  0
    2.6707   67.2802   83.6020 C   0  0  0  0  0  0  0  0  0  0  0  0
    3.1595   68.5471   83.9204 C   0  0  0  0  0  0  0  0  0  0  0  0
    2.5924   69.6492   83.3024 C   0  0  0  0  0  0  0  0  0  0  0  0
    1.5936   69.5666   82.3993 N   0  0  0  0  0  0  0  0  0  0  0  0
    1.1399   68.3219   82.1033 C   0  0  0  0  0  0  0  0  0  0  0  0
    0.0036   63.6598   86.4549 C   0  0  0  0  0  0  0  0  0  0  0  0
   -1.2398   63.3338   87.0196 C   0  0  0  0  0  0  0  0  0  0  0  0
   -1.3710   63.1287   88.3957 C   0  0  0  0  0  0  0  0  0  0  0  0
   -0.2604   63.2491   89.2266 C   0  0  0  0  0  0  0  0  0  0  0  0
    0.9801   63.5754   88.6833 C   0  0  0  0  0  0  0  0  0  0  0  0
    1.1123   63.7801   87.3061 C   0  0  0  0  0  0  0  0  0  0  0  0
   -0.4188   62.8002   77.1867 C   0  0  0  0  0  0  0  0  0  0  0  0
   -1.1202   61.4921   76.9002 C   0  0  0  0  0  0  0  0  0  0  0  0
   -0.3807   60.3215   76.6777 C   0  0  0  0  0  0  0  0  0  0  0  0
   -1.0289   59.1108   76.4286 C   0  0  0  0  0  0  0  0  0  0  0  0
   -2.4214   59.0564   76.4072 C   0  0  0  0  0  0  0  0  0  0  0  0
   -3.1671   60.2106   76.6402 C   0  0  0  0  0  0  0  0  0  0  0  0
   -2.5206   61.4223   76.8889 C   0  0  0  0  0  0  0  0  0  0  0  0
  1  2  1  0  0  0
  2  3  2  0  0  0
  3  4  1  0  0  0
  4 28  1  0  0  0
 28 29  1  0  0  0
 29 30  2  0  0  0
 30 31  1  0  0  0
 31 32  2  0  0  0
 32 33  1  0  0  0
 33 34  2  0  0  0
  4  5  1  0  0  0
  5  6  2  0  0  0
  5  7  1  0  0  0
  7  8  1  0  0  0
  8  9  2  0  0  0
  9 16  1  0  0  0
 16 17  1  0  0  0
 17 18  2  0  0  0
 18 19  1  0  0  0
 19 20  2  0  0  0
 20 21  1  0  0  0
  9 10  1  0  0  0
 10 11  1  0  0  0
 11 12  2  0  0  0
 12 22  1  0  0  0
 22 23  2  0  0  0
 23 24  1  0  0  0
 24 25  2  0  0  0
 25 26  1  0  0  0
 26 27  2  0  0  0
 12 13  1  0  0  0
 13 14  2  0  0  0
 14 15  1  0  0  0
 15  2  1  0  0  0
 34 29  1  0  0  0
 15  7  2  0  0  0
 21 16  2  0  0  0
 14 10  1  0  0  0
 27 22  1  0  0  0
M  END
> <minimizedAffinity>
-11.80025

$$$$



 34 39  0  0  0  0  0  0  0  0999 V2000
    1.0802   66.3169   79.5192 C   0  0  0  0  0  0  0  0  0  0  0  0
    1.4283   66.6801   80.9443 C   0  0  0  0  0  0  0  0  0  0  0  0
    2.1467   67.7479   81.0833 N   0  0  0  0  0  0  0  0  0  0  0  0
    2.4969   68.1358   82.3487 N   0  0  0  0  0  0  0  0  0  0  0  0
    2.1372   67.4538   83.5003 C   0  0  0  0  0  0  0  0  0  0  0  0
    2.4637   67.8199   84.6305 O   0  0  0  0  0  0  0  0  0  0  0  0
    1.3084   66.2061   83.3114 C   0  0  0  0  0  0  0  0  0  0  0  0
    0.9626   65.5180   84.4720 N   0  0  0  0  0  0  0  0  0  0  0  0
    0.2447   64.4290   84.3851 C   0  0  0  0  0  0  0  0  0  0  0  0
   -0.1705   64.0054   83.1057 N   0  0  0  0  0  0  0  0  0  0  0  0
   -0.9656   62.9354   82.9136 N   0  0  0  0  0  0  0  0  0  0  0  0
   -1.1430   62.8580   81.5872 C   0  0  0  0  0  0  0  0  0  0  0  0
   -0.4601   63.9234   80.9374 C   0  0  0  0  0  0  0  0  0  0  0  0
    0.1488   64.6572   81.9322 C   0  0  0  0  0  0  0  0  0  0  0  0
    0.9496   65.8270   82.0673 C   0  0  0  0  0  0  0  0  0  0  0  0
   -0.0872   63.7248   85.6572 C   0  0  0  0  0  0  0  0  0  0  0  0
    0.1080   64.2808   86.9228 C   0  0  0  0  0  0  0  0  0  0  0  0
   -0.2410   63.5498   88.0584 C   0  0  0  0  0  0  0  0  0  0  0  0
   -0.7834   62.2866   87.8906 C   0  0  0  0  0  0  0  0  0  0  0  0
   -1.0019   61.7223   86.6849 N   0  0  0  0  0  0  0  0  0  0  0  0
   -0.6585   62.4568   85.5961 C   0  0  0  0  0  0  0  0  0  0  0  0
   -1.9539   61.7943   80.9829 C   0  0  0  0  0  0  0  0  0  0  0  0
   -2.3165   60.6651   81.7344 C   0  0  0  0  0  0  0  0  0  0  0  0
   -3.0910   59.6473   81.1714 C   0  0  0  0  0  0  0  0  0  0  0  0
   -3.5117   59.7436   79.8477 C   0  0  0  0  0  0  0  0  0  0  0  0
   -3.1578   60.8554   79.0867 C   0  0  0  0  0  0  0  0  0  0  0  0
   -2.3834   61.8749   79.6498 C   0  0  0  0  0  0  0  0  0  0  0  0
    3.2376   69.3892   82.4602 C   0  0  0  0  0  0  0  0  0  0  0  0
    2.3296   70.5950   82.3773 C   0  0  0  0  0  0  0  0  0  0  0  0
    2.7960   71.8643   82.7485 C   0  0  0  0  0  0  0  0  0  0  0  0
    1.9623   72.9800   82.6571 C   0  0  0  0  0  0  0  0  0  0  0  0
    0.6579   72.8395   82.1867 C   0  0  0  0  0  0  0  0  0  0  0  0
    0.1875   71.5851   81.8022 C   0  0  0  0  0  0  0  0  0  0  0  0
    1.0196   70.4684   81.8934 C   0  0  0  0  0  0  0  0  0  0  0  0
  1  2  1  0  0  0
  2  3  2  0  0  0
  3  4  1  0  0  0
  4 28  1  0  0  0
 28 29  1  0  0  0
 29 30  2  0  0  0
 30 31  1  0  0  0
 31 32  2  0  0  0
 32 33  1  0  0  0
 33 34  2  0  0  0
  4  5  1  0  0  0
  5  6  2  0  0  0
  5  7  1  0  0  0
  7  8  1  0  0  0
  8  9  2  0  0  0
  9 16  1  0  0  0
 16 17  1  0  0  0
 17 18  2  0  0  0
 18 19  1  0  0  0
 19 20  2  0  0  0
 20 21  1  0  0  0
  9 10  1  0  0  0
 10 11  1  0  0  0
 11 12  2  0  0  0
 12 22  1  0  0  0
 22 23  2  0  0  0
 23 24  1  0  0  0
 24 25  2  0  0  0
 25 26  1  0  0  0
 26 27  2  0  0  0
 12 13  1  0  0  0
 13 14  2  0  0  0
 14 15  1  0  0  0
 15  2  1  0  0  0
 34 29  1  0  0  0
 15  7  2  0  0  0
 21 16  2  0  0  0
 14 10  1  0  0  0
 27 22  1  0  0  0
M  END
> <minimizedAffinity>
-11.53299

$$$$



 34 39  0  0  0  0  0  0  0  0999 V2000
    1.3600   66.5704   79.7419 C   0  0  0  0  0  0  0  0  0  0  0  0
    1.6579   66.9612   81.1711 C   0  0  0  0  0  0  0  0  0  0  0  0
    2.3379   68.0531   81.3158 N   0  0  0  0  0  0  0  0  0  0  0  0
    2.6415   68.4668   82.5850 N   0  0  0  0  0  0  0  0  0  0  0  0
    2.2728   67.7870   83.7351 C   0  0  0  0  0  0  0  0  0  0  0  0
    2.5569   68.1766   84.8689 O   0  0  0  0  0  0  0  0  0  0  0  0
    1.4895   66.5112   83.5399 C   0  0  0  0  0  0  0  0  0  0  0  0
    1.1346   65.8260   84.6995 N   0  0  0  0  0  0  0  0  0  0  0  0
    0.4544   64.7135   84.6072 C   0  0  0  0  0  0  0  0  0  0  0  0
    0.0875   64.2619   83.3226 N   0  0  0  0  0  0  0  0  0  0  0  0
   -0.6678   63.1647   83.1230 N   0  0  0  0  0  0  0  0  0  0  0  0
   -0.8069   63.0662   81.7934 C   0  0  0  0  0  0  0  0  0  0  0  0
   -0.1409   64.1454   81.1487 C   0  0  0  0  0  0  0  0  0  0  0  0
    0.4173   64.9099   82.1500 C   0  0  0  0  0  0  0  0  0  0  0  0
    1.1766   66.1063   82.2916 C   0  0  0  0  0  0  0  0  0  0  0  0
    0.1109   64.0139   85.8788 C   0  0  0  0  0  0  0  0  0  0  0  0
   -1.0204   63.2119   86.0393 C   0  0  0  0  0  0  0  0  0  0  0  0
   -1.2558   62.5890   87.2649 C   0  0  0  0  0  0  0  0  0  0  0  0
   -0.3450   62.7818   88.2903 C   0  0  0  0  0  0  0  0  0  0  0  0
    0.7670   63.5358   88.1687 N   0  0  0  0  0  0  0  0  0  0  0  0
    0.9752   64.1264   86.9643 C   0  0  0  0  0  0  0  0  0  0  0  0
   -1.5669   61.9700   81.1812 C   0  0  0  0  0  0  0  0  0  0  0  0
   -2.6963   61.4426   81.8273 C   0  0  0  0  0  0  0  0  0  0  0  0
   -3.4302   60.4012   81.2531 C   0  0  0  0  0  0  0  0  0  0  0  0
   -3.0431   59.8711   80.0252 C   0  0  0  0  0  0  0  0  0  0  0  0
   -1.9229   60.3802   79.3722 C   0  0  0  0  0  0  0  0  0  0  0  0
   -1.1884   61.4230   79.9460 C   0  0  0  0  0  0  0  0  0  0  0  0
    3.3386   69.7446   82.7004 C   0  0  0  0  0  0  0  0  0  0  0  0
    2.4121   70.9190   82.4822 C   0  0  0  0  0  0  0  0  0  0  0  0
    1.1058   70.7178   82.0135 C   0  0  0  0  0  0  0  0  0  0  0  0
    0.2455   71.8009   81.8269 C   0  0  0  0  0  0  0  0  0  0  0  0
    0.6792   73.0939   82.1143 C   0  0  0  0  0  0  0  0  0  0  0  0
    1.9709   73.3049   82.5934 C   0  0  0  0  0  0  0  0  0  0  0  0
    2.8327   72.2231   82.7800 C   0  0  0  0  0  0  0  0  0  0  0  0
  1  2  1  0  0  0
  2  3  2  0  0  0
  3  4  1  0  0  0
  4 28  1  0  0  0
 28 29  1  0  0  0
 29 30  2  0  0  0
 30 31  1  0  0  0
 31 32  2  0  0  0
 32 33  1  0  0  0
 33 34  2  0  0  0
  4  5  1  0  0  0
  5  6  2  0  0  0
  5  7  1  0  0  0
  7  8  1  0  0  0
  8  9  2  0  0  0
  9 16  1  0  0  0
 16 17  1  0  0  0
 17 18  2  0  0  0
 18 19  1  0  0  0
 19 20  2  0  0  0
 20 21  1  0  0  0
  9 10  1  0  0  0
 10 11  1  0  0  0
 11 12  2  0  0  0
 12 22  1  0  0  0
 22 23  2  0  0  0
 23 24  1  0  0  0
 24 25  2  0  0  0
 25 26  1  0  0  0
 26 27  2  0  0  0
 12 13  1  0  0  0
 13 14  2  0  0  0
 14 15  1  0  0  0
 15  2  1  0  0  0
 34 29  1  0  0  0
 15  7  2  0  0  0
 21 16  2  0  0  0
 14 10  1  0  0  0
 27 22  1  0  0  0
M  END
> <minimizedAffinity>
-11.52766

$$$$



 34 39  0  0  0  0  0  0  0  0999 V2000
   -0.4879   64.1378   79.7239 C   0  0  0  0  0  0  0  0  0  0  0  0
   -1.1547   63.2186   80.7212 C   0  0  0  0  0  0  0  0  0  0  0  0
   -1.9583   62.3404   80.2127 N   0  0  0  0  0  0  0  0  0  0  0  0
   -2.5950   61.4739   81.0600 N   0  0  0  0  0  0  0  0  0  0  0  0
   -2.4416   61.4772   82.4374 C   0  0  0  0  0  0  0  0  0  0  0  0
   -3.0250   60.6883   83.1827 O   0  0  0  0  0  0  0  0  0  0  0  0
   -1.5073   62.5173   83.0072 C   0  0  0  0  0  0  0  0  0  0  0  0
   -1.3690   62.5239   84.3931 N   0  0  0  0  0  0  0  0  0  0  0  0
   -0.5755   63.3966   84.9567 C   0  0  0  0  0  0  0  0  0  0  0  0
    0.1300   64.2901   84.1246 N   0  0  0  0  0  0  0  0  0  0  0  0
    1.0199   65.1823   84.6002 N   0  0  0  0  0  0  0  0  0  0  0  0
    1.4796   65.8345   83.5232 C   0  0  0  0  0  0  0  0  0  0  0  0
    0.8781   65.3174   82.3422 C   0  0  0  0  0  0  0  0  0  0  0  0
    0.0228   64.3167   82.7492 C   0  0  0  0  0  0  0  0  0  0  0  0
   -0.8674   63.3649   82.1752 C   0  0  0  0  0  0  0  0  0  0  0  0
   -0.4732   63.3679   86.4444 C   0  0  0  0  0  0  0  0  0  0  0  0
   -1.5254   63.0006   87.2852 C   0  0  0  0  0  0  0  0  0  0  0  0
   -1.3342   62.9949   88.6669 C   0  0  0  0  0  0  0  0  0  0  0  0
   -0.0909   63.3491   89.1638 C   0  0  0  0  0  0  0  0  0  0  0  0
    0.9540   63.6941   88.3833 N   0  0  0  0  0  0  0  0  0  0  0  0
    0.7429   63.6865   87.0423 C   0  0  0  0  0  0  0  0  0  0  0  0
    2.4718   66.9093   83.6433 C   0  0  0  0  0  0  0  0  0  0  0  0
    3.6972   66.6746   84.2872 C   0  0  0  0  0  0  0  0  0  0  0  0
    4.6513   67.6888   84.4050 C   0  0  0  0  0  0  0  0  0  0  0  0
    4.3920   68.9529   83.8823 C   0  0  0  0  0  0  0  0  0  0  0  0
    3.1798   69.2040   83.2435 C   0  0  0  0  0  0  0  0  0  0  0  0
    2.2247   68.1891   83.1246 C   0  0  0  0  0  0  0  0  0  0  0  0
   -3.4274   60.4503   80.4343 C   0  0  0  0  0  0  0  0  0  0  0  0
   -2.9797   60.1376   79.0246 C   0  0  0  0  0  0  0  0  0  0  0  0
   -3.7575   60.5326   77.9266 C   0  0  0  0  0  0  0  0  0  0  0  0
   -3.3363   60.2574   76.6246 C   0  0  0  0  0  0  0  0  0  0  0  0
   -2.1308   59.5926   76.4072 C   0  0  0  0  0  0  0  0  0  0  0  0
   -1.3429   59.2070   77.4903 C   0  0  0  0  0  0  0  0  0  0  0  0
   -1.7628   59.4808   78.7928 C   0  0  0  0  0  0  0  0  0  0  0  0
  1  2  1  0  0  0
  2  3  2  0  0  0
  3  4  1  0  0  0
  4 28  1  0  0  0
 28 29  1  0  0  0
 29 30  2  0  0  0
 30 31  1  0  0  0
 31 32  2  0  0  0
 32 33  1  0  0  0
 33 34  2  0  0  0
  4  5  1  0  0  0
  5  6  2  0  0  0
  5  7  1  0  0  0
  7  8  1  0  0  0
  8  9  2  0  0  0
  9 16  1  0  0  0
 16 17  1  0  0  0
 17 18  2  0  0  0
 18 19  1  0  0  0
 19 20  2  0  0  0
 20 21  1  0  0  0
  9 10  1  0  0  0
 10 11  1  0  0  0
 11 12  2  0  0  0
 12 22  1  0  0  0
 22 23  2  0  0  0
 23 24  1  0  0  0
 24 25  2  0  0  0
 25 26  1  0  0  0
 26 27  2  0  0  0
 12 13  1  0  0  0
 13 14  2  0  0  0
 14 15  1  0  0  0
 15  2  1  0  0  0
 34 29  1  0  0  0
 15  7  2  0  0  0
 21 16  2  0  0  0
 14 10  1  0  0  0
 27 22  1  0  0  0
M  END
> <minimizedAffinity>
-11.50906

$$$$



 34 39  0  0  0  0  0  0  0  0999 V2000
    2.8483   68.1215   84.6469 C   0  0  0  0  0  0  0  0  0  0  0  0
    2.4030   67.9565   83.2122 C   0  0  0  0  0  0  0  0  0  0  0  0
    2.8452   68.8524   82.3892 N   0  0  0  0  0  0  0  0  0  0  0  0
    2.4816   68.7618   81.0724 N   0  0  0  0  0  0  0  0  0  0  0  0
    1.6600   67.7716   80.5574 C   0  0  0  0  0  0  0  0  0  0  0  0
    1.3442   67.7086   79.3681 O   0  0  0  0  0  0  0  0  0  0  0  0
    1.1487   66.7446   81.5388 C   0  0  0  0  0  0  0  0  0  0  0  0
    0.3123   65.7608   81.0168 N   0  0  0  0  0  0  0  0  0  0  0  0
   -0.1676   64.8375   81.8081 C   0  0  0  0  0  0  0  0  0  0  0  0
    0.2045   64.8668   83.1680 N   0  0  0  0  0  0  0  0  0  0  0  0
   -0.1820   63.9257   84.0507 N   0  0  0  0  0  0  0  0  0  0  0  0
    0.3675   64.2871   85.2187 C   0  0  0  0  0  0  0  0  0  0  0  0
    1.1377   65.4717   85.0535 C   0  0  0  0  0  0  0  0  0  0  0  0
    1.0302   65.8216   83.7250 C   0  0  0  0  0  0  0  0  0  0  0  0
    1.5149   66.8220   82.8349 C   0  0  0  0  0  0  0  0  0  0  0  0
   -1.0675   63.8153   81.2002 C   0  0  0  0  0  0  0  0  0  0  0  0
   -2.3038   63.4545   81.7390 C   0  0  0  0  0  0  0  0  0  0  0  0
   -3.0826   62.4931   81.0951 C   0  0  0  0  0  0  0  0  0  0  0  0
   -2.6024   61.9286   79.9250 C   0  0  0  0  0  0  0  0  0  0  0  0
   -1.4213   62.2626   79.3653 N   0  0  0  0  0  0  0  0  0  0  0  0
   -0.6854   63.2043   80.0091 C   0  0  0  0  0  0  0  0  0  0  0  0
    0.1570   63.5018   86.4406 C   0  0  0  0  0  0  0  0  0  0  0  0
    0.8019   63.8615   87.6348 C   0  0  0  0  0  0  0  0  0  0  0  0
    0.6071   63.1239   88.8056 C   0  0  0  0  0  0  0  0  0  0  0  0
   -0.2340   62.0143   88.7977 C   0  0  0  0  0  0  0  0  0  0  0  0
   -0.8789   61.6414   87.6206 C   0  0  0  0  0  0  0  0  0  0  0  0
   -0.6850   62.3797   86.4486 C   0  0  0  0  0  0  0  0  0  0  0  0
    3.0699   69.7464   80.1688 C   0  0  0  0  0  0  0  0  0  0  0  0
    2.7545   71.1637   80.5897 C   0  0  0  0  0  0  0  0  0  0  0  0
    1.4263   71.5700   80.7834 C   0  0  0  0  0  0  0  0  0  0  0  0
    1.1363   72.8742   81.1871 C   0  0  0  0  0  0  0  0  0  0  0  0
    2.1702   73.7822   81.4088 C   0  0  0  0  0  0  0  0  0  0  0  0
    3.4948   73.3860   81.2324 C   0  0  0  0  0  0  0  0  0  0  0  0
    3.7866   72.0824   80.8282 C   0  0  0  0  0  0  0  0  0  0  0  0
  1  2  1  0  0  0
  2  3  2  0  0  0
  3  4  1  0  0  0
  4 28  1  0  0  0
 28 29  1  0  0  0
 29 30  2  0  0  0
 30 31  1  0  0  0
 31 32  2  0  0  0
 32 33  1  0  0  0
 33 34  2  0  0  0
  4  5  1  0  0  0
  5  6  2  0  0  0
  5  7  1  0  0  0
  7  8  1  0  0  0
  8  9  2  0  0  0
  9 16  1  0  0  0
 16 17  1  0  0  0
 17 18  2  0  0  0
 18 19  1  0  0  0
 19 20  2  0  0  0
 20 21  1  0  0  0
  9 10  1  0  0  0
 10 11  1  0  0  0
 11 12  2  0  0  0
 12 22  1  0  0  0
 22 23  2  0  0  0
 23 24  1  0  0  0
 24 25  2  0  0  0
 25 26  1  0  0  0
 26 27  2  0  0  0
 12 13  1  0  0  0
 13 14  2  0  0  0
 14 15  1  0  0  0
 15  2  1  0  0  0
 34 29  1  0  0  0
 15  7  2  0  0  0
 21 16  2  0  0  0
 14 10  1  0  0  0
 27 22  1  0  0  0
M  END
> <minimizedAffinity>
-11.46095

$$$$



 34 39  0  0  0  0  0  0  0  0999 V2000
    0.3920   64.7530   79.9544 C   0  0  0  0  0  0  0  0  0  0  0  0
   -0.5585   63.9153   80.7783 C   0  0  0  0  0  0  0  0  0  0  0  0
   -1.4655   63.2838   80.1044 N   0  0  0  0  0  0  0  0  0  0  0  0
   -2.3591   62.5043   80.7886 N   0  0  0  0  0  0  0  0  0  0  0  0
   -2.3629   62.3491   82.1658 C   0  0  0  0  0  0  0  0  0  0  0  0
   -3.1771   61.6426   82.7625 O   0  0  0  0  0  0  0  0  0  0  0  0
   -1.3020   63.1038   82.9302 C   0  0  0  0  0  0  0  0  0  0  0  0
   -1.3207   62.9544   84.3149 N   0  0  0  0  0  0  0  0  0  0  0  0
   -0.4308   63.5777   85.0417 C   0  0  0  0  0  0  0  0  0  0  0  0
    0.5336   64.3671   84.3817 N   0  0  0  0  0  0  0  0  0  0  0  0
    1.5310   64.9963   85.0324 N   0  0  0  0  0  0  0  0  0  0  0  0
    2.2336   65.6271   84.0810 C   0  0  0  0  0  0  0  0  0  0  0  0
    1.6731   65.3633   82.8003 C   0  0  0  0  0  0  0  0  0  0  0  0
    0.5882   64.5410   83.0141 C   0  0  0  0  0  0  0  0  0  0  0  0
   -0.4110   63.8628   82.2593 C   0  0  0  0  0  0  0  0  0  0  0  0
   -0.5032   63.3927   86.5198 C   0  0  0  0  0  0  0  0  0  0  0  0
    0.5961   63.5227   87.3706 C   0  0  0  0  0  0  0  0  0  0  0  0
    0.4309   63.3399   88.7435 C   0  0  0  0  0  0  0  0  0  0  0  0
   -0.8334   63.0407   89.2233 C   0  0  0  0  0  0  0  0  0  0  0  0
   -1.9220   62.9227   88.4353 N   0  0  0  0  0  0  0  0  0  0  0  0
   -1.7350   63.1107   87.1039 C   0  0  0  0  0  0  0  0  0  0  0  0
    3.4081   66.4437   84.4094 C   0  0  0  0  0  0  0  0  0  0  0  0
    3.5937   67.6958   83.8020 C   0  0  0  0  0  0  0  0  0  0  0  0
    4.7060   68.4840   84.1089 C   0  0  0  0  0  0  0  0  0  0  0  0
    5.6498   68.0296   85.0261 C   0  0  0  0  0  0  0  0  0  0  0  0
    5.4830   66.7881   85.6354 C   0  0  0  0  0  0  0  0  0  0  0  0
    4.3694   65.9990   85.3293 C   0  0  0  0  0  0  0  0  0  0  0  0
   -3.3113   61.7484   79.9799 C   0  0  0  0  0  0  0  0  0  0  0  0
   -2.6560   61.1176   78.7724 C   0  0  0  0  0  0  0  0  0  0  0  0
   -2.6520   61.7808   77.5367 C   0  0  0  0  0  0  0  0  0  0  0  0
   -2.0334   61.2051   76.4258 C   0  0  0  0  0  0  0  0  0  0  0  0
   -1.4064   59.9657   76.5407 C   0  0  0  0  0  0  0  0  0  0  0  0
   -1.3923   59.3033   77.7669 C   0  0  0  0  0  0  0  0  0  0  0  0
   -2.0109   59.8771   78.8786 C   0  0  0  0  0  0  0  0  0  0  0  0
  1  2  1  0  0  0
  2  3  2  0  0  0
  3  4  1  0  0  0
  4 28  1  0  0  0
 28 29  1  0  0  0
 29 30  2  0  0  0
 30 31  1  0  0  0
 31 32  2  0  0  0
 32 33  1  0  0  0
 33 34  2  0  0  0
  4  5  1  0  0  0
  5  6  2  0  0  0
  5  7  1  0  0  0
  7  8  1  0  0  0
  8  9  2  0  0  0
  9 16  1  0  0  0
 16 17  1  0  0  0
 17 18  2  0  0  0
 18 19  1  0  0  0
 19 20  2  0  0  0
 20 21  1  0  0  0
  9 10  1  0  0  0
 10 11  1  0  0  0
 11 12  2  0  0  0
 12 22  1  0  0  0
 22 23  2  0  0  0
 23 24  1  0  0  0
 24 25  2  0  0  0
 25 26  1  0  0  0
 26 27  2  0  0  0
 12 13  1  0  0  0
 13 14  2  0  0  0
 14 15  1  0  0  0
 15  2  1  0  0  0
 34 29  1  0  0  0
 15  7  2  0  0  0
 21 16  2  0  0  0
 14 10  1  0  0  0
 27 22  1  0  0  0
M  END
> <minimizedAffinity>
-11.06636

$$$$



 34 39  0  0  0  0  0  0  0  0999 V2000
   -0.6796   67.6407   79.9938 C   0  0  0  0  0  0  0  0  0  0  0  0
   -0.2207   66.5088   80.8838 C   0  0  0  0  0  0  0  0  0  0  0  0
   -0.8570   65.3920   80.7308 N   0  0  0  0  0  0  0  0  0  0  0  0
   -0.4909   64.3237   81.5048 N   0  0  0  0  0  0  0  0  0  0  0  0
    0.5187   64.3586   82.4536 C   0  0  0  0  0  0  0  0  0  0  0  0
    0.8323   63.3851   83.1406 O   0  0  0  0  0  0  0  0  0  0  0  0
    1.2388   65.6750   82.6207 C   0  0  0  0  0  0  0  0  0  0  0  0
    2.2426   65.7067   83.5858 N   0  0  0  0  0  0  0  0  0  0  0  0
    2.9096   66.8132   83.7848 C   0  0  0  0  0  0  0  0  0  0  0  0
    2.5934   67.9337   82.9891 N   0  0  0  0  0  0  0  0  0  0  0  0
    3.2640   69.0989   83.0701 N   0  0  0  0  0  0  0  0  0  0  0  0
    2.6867   69.9047   82.1678 C   0  0  0  0  0  0  0  0  0  0  0  0
    1.6442   69.2145   81.4889 C   0  0  0  0  0  0  0  0  0  0  0  0
    1.6085   67.9447   82.0228 C   0  0  0  0  0  0  0  0  0  0  0  0
    0.8905   66.7269   81.8511 C   0  0  0  0  0  0  0  0  0  0  0  0
    3.9653   66.7958   84.8381 C   0  0  0  0  0  0  0  0  0  0  0  0
    4.4045   67.9368   85.5122 C   0  0  0  0  0  0  0  0  0  0  0  0
    5.3921   67.8224   86.4905 C   0  0  0  0  0  0  0  0  0  0  0  0
    5.9036   66.5661   86.7699 C   0  0  0  0  0  0  0  0  0  0  0  0
    5.4937   65.4391   86.1519 N   0  0  0  0  0  0  0  0  0  0  0  0
    4.5280   65.5774   85.2079 C   0  0  0  0  0  0  0  0  0  0  0  0
    3.1418   71.2861   81.9711 C   0  0  0  0  0  0  0  0  0  0  0  0
    3.8537   71.6403   80.8139 C   0  0  0  0  0  0  0  0  0  0  0  0
    4.2896   72.9528   80.6135 C   0  0  0  0  0  0  0  0  0  0  0  0
    4.0214   73.9291   81.5692 C   0  0  0  0  0  0  0  0  0  0  0  0
    3.3194   73.5941   82.7248 C   0  0  0  0  0  0  0  0  0  0  0  0
    2.8822   72.2808   82.9257 C   0  0  0  0  0  0  0  0  0  0  0  0
   -1.1816   63.0648   81.2396 C   0  0  0  0  0  0  0  0  0  0  0  0
   -1.0518   62.6390   79.7949 C   0  0  0  0  0  0  0  0  0  0  0  0
   -2.1908   62.3201   79.0416 C   0  0  0  0  0  0  0  0  0  0  0  0
   -2.0720   61.9420   77.7033 C   0  0  0  0  0  0  0  0  0  0  0  0
   -0.8154   61.8865   77.1029 C   0  0  0  0  0  0  0  0  0  0  0  0
    0.3226   62.2141   77.8379 C   0  0  0  0  0  0  0  0  0  0  0  0
    0.2057   62.5918   79.1763 C   0  0  0  0  0  0  0  0  0  0  0  0
  1  2  1  0  0  0
  2  3  2  0  0  0
  3  4  1  0  0  0
  4 28  1  0  0  0
 28 29  1  0  0  0
 29 30  2  0  0  0
 30 31  1  0  0  0
 31 32  2  0  0  0
 32 33  1  0  0  0
 33 34  2  0  0  0
  4  5  1  0  0  0
  5  6  2  0  0  0
  5  7  1  0  0  0
  7  8  1  0  0  0
  8  9  2  0  0  0
  9 16  1  0  0  0
 16 17  1  0  0  0
 17 18  2  0  0  0
 18 19  1  0  0  0
 19 20  2  0  0  0
 20 21  1  0  0  0
  9 10  1  0  0  0
 10 11  1  0  0  0
 11 12  2  0  0  0
 12 22  1  0  0  0
 22 23  2  0  0  0
 23 24  1  0  0  0
 24 25  2  0  0  0
 25 26  1  0  0  0
 26 27  2  0  0  0
 12 13  1  0  0  0
 13 14  2  0  0  0
 14 15  1  0  0  0
 15  2  1  0  0  0
 34 29  1  0  0  0
 15  7  2  0  0  0
 21 16  2  0  0  0
 14 10  1  0  0  0
 27 22  1  0  0  0
M  END
> <minimizedAffinity>
-10.65673

$$$$



 34 39  0  0  0  0  0  0  0  0999 V2000
    1.5787   66.2063   79.7623 C   0  0  0  0  0  0  0  0  0  0  0  0
    1.6216   66.3267   81.2681 C   0  0  0  0  0  0  0  0  0  0  0  0
    2.3819   67.2688   81.7263 N   0  0  0  0  0  0  0  0  0  0  0  0
    2.4658   67.4350   83.0826 N   0  0  0  0  0  0  0  0  0  0  0  0
    1.7917   66.6524   84.0066 C   0  0  0  0  0  0  0  0  0  0  0  0
    1.8816   66.8185   85.2242 O   0  0  0  0  0  0  0  0  0  0  0  0
    0.9197   65.5538   83.4481 C   0  0  0  0  0  0  0  0  0  0  0  0
    0.2564   64.7623   84.3828 N   0  0  0  0  0  0  0  0  0  0  0  0
   -0.5172   63.7921   83.9716 C   0  0  0  0  0  0  0  0  0  0  0  0
   -0.6641   63.6008   82.5822 N   0  0  0  0  0  0  0  0  0  0  0  0
   -1.4868   62.6731   82.0562 N   0  0  0  0  0  0  0  0  0  0  0  0
   -1.3613   62.7991   80.7276 C   0  0  0  0  0  0  0  0  0  0  0  0
   -0.4546   63.8506   80.4176 C   0  0  0  0  0  0  0  0  0  0  0  0
   -0.0269   64.3616   81.6236 C   0  0  0  0  0  0  0  0  0  0  0  0
    0.8234   65.3944   82.1119 C   0  0  0  0  0  0  0  0  0  0  0  0
   -1.1941   62.9679   85.0141 C   0  0  0  0  0  0  0  0  0  0  0  0
   -0.6446   62.7060   86.2706 C   0  0  0  0  0  0  0  0  0  0  0  0
   -1.3559   61.9307   87.1862 C   0  0  0  0  0  0  0  0  0  0  0  0
   -2.6009   61.4484   86.8180 C   0  0  0  0  0  0  0  0  0  0  0  0
   -3.1716   61.6932   85.6203 N   0  0  0  0  0  0  0  0  0  0  0  0
   -2.4608   62.4547   84.7498 C   0  0  0  0  0  0  0  0  0  0  0  0
   -2.1040   61.9356   79.8020 C   0  0  0  0  0  0  0  0  0  0  0  0
   -2.6395   60.7157   80.2451 C   0  0  0  0  0  0  0  0  0  0  0  0
   -3.3513   59.8863   79.3744 C   0  0  0  0  0  0  0  0  0  0  0  0
   -3.5356   60.2647   78.0472 C   0  0  0  0  0  0  0  0  0  0  0  0
   -3.0080   61.4701   77.5900 C   0  0  0  0  0  0  0  0  0  0  0  0
   -2.2961   62.3011   78.4612 C   0  0  0  0  0  0  0  0  0  0  0  0
    3.2707   68.5606   83.5487 C   0  0  0  0  0  0  0  0  0  0  0  0
    4.4787   68.1076   84.3366 C   0  0  0  0  0  0  0  0  0  0  0  0
    4.5473   68.3222   85.7207 C   0  0  0  0  0  0  0  0  0  0  0  0
    5.6558   67.8900   86.4505 C   0  0  0  0  0  0  0  0  0  0  0  0
    6.7021   67.2324   85.8060 C   0  0  0  0  0  0  0  0  0  0  0  0
    6.6390   67.0015   84.4329 C   0  0  0  0  0  0  0  0  0  0  0  0
    5.5316   67.4336   83.7016 C   0  0  0  0  0  0  0  0  0  0  0  0
  1  2  1  0  0  0
  2  3  2  0  0  0
  3  4  1  0  0  0
  4 28  1  0  0  0
 28 29  1  0  0  0
 29 30  2  0  0  0
 30 31  1  0  0  0
 31 32  2  0  0  0
 32 33  1  0  0  0
 33 34  2  0  0  0
  4  5  1  0  0  0
  5  6  2  0  0  0
  5  7  1  0  0  0
  7  8  1  0  0  0
  8  9  2  0  0  0
  9 16  1  0  0  0
 16 17  1  0  0  0
 17 18  2  0  0  0
 18 19  1  0  0  0
 19 20  2  0  0  0
 20 21  1  0  0  0
  9 10  1  0  0  0
 10 11  1  0  0  0
 11 12  2  0  0  0
 12 22  1  0  0  0
 22 23  2  0  0  0
 23 24  1  0  0  0
 24 25  2  0  0  0
 25 26  1  0  0  0
 26 27  2  0  0  0
 12 13  1  0  0  0
 13 14  2  0  0  0
 14 15  1  0  0  0
 15  2  1  0  0  0
 34 29  1  0  0  0
 15  7  2  0  0  0
 21 16  2  0  0  0
 14 10  1  0  0  0
 27 22  1  0  0  0
M  END
> <minimizedAffinity>
-10.45026

$$$$
