
     RDKit          3D

 51 55  0  0  0  0  0  0  0  0999 V2000
    3.8941    1.2149    1.6738 C   0  0  0  0  0  0  0  0  0  0  0  0
    3.6213    0.7769    0.2431 C   0  0  0  0  0  0  0  0  0  0  0  0
    4.4558   -0.4492   -0.1332 C   0  0  0  0  0  0  0  0  0  0  0  0
    4.2247   -0.9211   -1.5736 C   0  0  0  0  0  0  0  0  0  0  0  0
    3.1363   -1.9901   -1.7283 C   0  0  0  0  0  0  0  0  0  0  0  0
    1.8010   -1.5160   -1.4387 N   0  0  0  0  0  0  0  0  0  0  0  0
    1.0734   -0.6962   -2.2613 C   0  0  0  0  0  0  0  0  0  0  0  0
    1.4270   -0.2587   -3.3481 O   0  0  0  0  0  0  0  0  0  0  0  0
   -0.2670   -0.4064   -1.6037 C   0  0  2  0  0  0  0  0  0  0  0  0
   -0.5071    1.0953   -1.4103 C   0  0  0  0  0  0  0  0  0  0  0  0
   -1.4692    1.2999   -0.2857 C   0  0  0  0  0  0  0  0  0  0  0  0
   -1.6884    0.3214    0.6698 C   0  0  0  0  0  0  0  0  0  0  0  0
   -2.6043    0.8060    1.5649 N   0  0  0  0  0  0  0  0  0  0  0  0
   -2.9851    2.0807    1.2028 C   0  0  0  0  0  0  0  0  0  0  0  0
   -3.8930    2.9544    1.8130 C   0  0  0  0  0  0  0  0  0  0  0  0
   -4.0858    4.2065    1.2216 C   0  0  0  0  0  0  0  0  0  0  0  0
   -3.3973    4.5689    0.0662 C   0  0  0  0  0  0  0  0  0  0  0  0
   -2.4934    3.6844   -0.5334 C   0  0  0  0  0  0  0  0  0  0  0  0
   -2.2829    2.4165    0.0421 C   0  0  0  0  0  0  0  0  0  0  0  0
   -1.0475   -1.0329    0.7460 C   0  0  1  0  0  0  0  0  0  0  0  0
   -1.9964   -2.2054    0.6605 C   0  0  0  0  0  0  0  0  0  0  0  0
   -1.8961   -3.4059    1.3482 C   0  0  0  0  0  0  0  0  0  0  0  0
   -2.9512   -4.3130    1.0347 C   0  0  0  0  0  0  0  0  0  0  0  0
   -3.8089   -3.7717    0.1134 C   0  0  0  0  0  0  0  0  0  0  0  0
   -5.3459   -4.6856   -0.5602 Br  0  0  0  0  0  0  0  0  0  0  0  0
   -3.3703   -2.2140   -0.3780 S   0  0  0  0  0  0  0  0  0  0  0  0
   -0.0883   -1.1218   -0.3455 N   0  0  0  0  0  0  0  0  0  0  0  0
    1.1257   -1.7651   -0.2752 C   0  0  0  0  0  0  0  0  0  0  0  0
    1.5275   -2.4122    0.6792 O   0  0  0  0  0  0  0  0  0  0  0  0
    4.9490    1.4724    1.8118 H   0  0  0  0  0  0  0  0  0  0  0  0
    3.2942    2.0965    1.9208 H   0  0  0  0  0  0  0  0  0  0  0  0
    3.6376    0.4205    2.3820 H   0  0  0  0  0  0  0  0  0  0  0  0
    3.8555    1.6056   -0.4353 H   0  0  0  0  0  0  0  0  0  0  0  0
    2.5535    0.5717    0.1398 H   0  0  0  0  0  0  0  0  0  0  0  0
    4.2755   -1.2688    0.5721 H   0  0  0  0  0  0  0  0  0  0  0  0
    5.5148   -0.1788   -0.0314 H   0  0  0  0  0  0  0  0  0  0  0  0
    4.0219   -0.0653   -2.2280 H   0  0  0  0  0  0  0  0  0  0  0  0
    5.1615   -1.3683   -1.9304 H   0  0  0  0  0  0  0  0  0  0  0  0
    3.1400   -2.3388   -2.7678 H   0  0  0  0  0  0  0  0  0  0  0  0
    3.3623   -2.8504   -1.0884 H   0  0  0  0  0  0  0  0  0  0  0  0
   -1.0694   -0.8907   -2.1697 H   0  0  0  0  0  0  0  0  0  0  0  0
    0.4302    1.6120   -1.1680 H   0  0  0  0  0  0  0  0  0  0  0  0
   -0.8871    1.5350   -2.3392 H   0  0  0  0  0  0  0  0  0  0  0  0
   -2.9692    0.3066    2.3649 H   0  0  0  0  0  0  0  0  0  0  0  0
   -4.4317    2.6770    2.7130 H   0  0  0  0  0  0  0  0  0  0  0  0
   -4.7848    4.9080    1.6716 H   0  0  0  0  0  0  0  0  0  0  0  0
   -3.5628    5.5481   -0.3765 H   0  0  0  0  0  0  0  0  0  0  0  0
   -1.9627    3.9769   -1.4344 H   0  0  0  0  0  0  0  0  0  0  0  0
   -0.4908   -1.1019    1.6901 H   0  0  0  0  0  0  0  0  0  0  0  0
   -1.0885   -3.6252    2.0389 H   0  0  0  0  0  0  0  0  0  0  0  0
   -3.0580   -5.3031    1.4603 H   0  0  0  0  0  0  0  0  0  0  0  0
  1  2  1  0
  2  3  1  0
  3  4  1  0
  4  5  1  0
  5  6  1  0
  6  7  1  0
  7  8  2  0
  7  9  1  0
  9 10  1  0
 10 11  1  0
 11 12  2  0
 12 13  1  0
 13 14  1  0
 14 15  2  0
 15 16  1  0
 16 17  2  0
 17 18  1  0
 18 19  2  0
 12 20  1  0
 20 21  1  0
 21 22  2  0
 22 23  1  0
 23 24  2  0
 24 25  1  0
 24 26  1  0
 20 27  1  0
 27 28  1  0
 28 29  2  0
 28  6  1  0
 27  9  1  0
 19 11  1  0
 26 21  1  0
 19 14  1  0
  1 30  1  0
  1 31  1  0
  1 32  1  0
  2 33  1  0
  2 34  1  0
  3 35  1  0
  3 36  1  0
  4 37  1  0
  4 38  1  0
  5 39  1  0
  5 40  1  0
  9 41  1  6
 10 42  1  0
 10 43  1  0
 13 44  1  0
 15 45  1  0
 16 46  1  0
 17 47  1  0
 18 48  1  0
 20 49  1  1
 22 50  1  0
 23 51  1  0
M  END
$$$$
