


 33 36  0  0  0  0  0  0  0  0999 V2000
    0.5255   63.7803   82.8168 N   0  0  0  0  0  0  0  0  0  0  0  0
    1.4841   63.7829   83.1355 H   0  0  0  0  0  0  0  0  0  0  0  0
   -2.0898   61.8018   84.2518 C   0  0  0  0  0  0  0  0  0  0  0  0
   -1.2222   62.3928   83.3846 N   0  0  0  0  0  0  0  0  0  0  0  0
   -0.2789   63.2548   83.8274 C   0  0  0  0  0  0  0  0  0  0  0  0
   -0.1130   63.6336   85.1040 N   0  0  0  0  0  0  0  0  0  0  0  0
   -0.9793   63.0431   85.9355 C   0  0  0  0  0  0  0  0  0  0  0  0
   -1.9757   62.1390   85.6136 C   0  0  0  0  0  0  0  0  0  0  0  0
   -2.6688   61.7661   86.7526 N   0  0  0  0  0  0  0  0  0  0  0  0
   -2.0929   62.4234   87.7371 C   0  0  0  0  0  0  0  0  0  0  0  0
   -1.0687   63.2073   87.2883 N   0  0  0  0  0  0  0  0  0  0  0  0
   -0.2295   64.0604   88.0864 C   0  0  0  0  0  0  0  0  0  0  0  0
   -2.9948   60.9124   83.6780 N   0  0  0  0  0  0  0  0  0  0  0  0
   -3.2533   60.2201   84.3730 H   0  0  0  0  0  0  0  0  0  0  0  0
   -2.7452   60.4029   82.3396 C   0  0  0  0  0  0  0  0  0  0  0  0
   -3.4286   62.3180   80.8164 C   0  0  0  0  0  0  0  0  0  0  0  0
   -3.7803   60.9344   81.3474 C   0  0  0  0  0  0  0  0  0  0  0  0
    0.2576   64.4132   81.5991 C   0  0  0  0  0  0  0  0  0  0  0  0
    0.1497   65.8156   81.5849 C   0  0  0  0  0  0  0  0  0  0  0  0
   -0.0549   66.5257   80.3968 C   0  0  0  0  0  0  0  0  0  0  0  0
   -0.1447   65.8438   79.1886 C   0  0  0  0  0  0  0  0  0  0  0  0
   -0.0336   64.4536   79.1876 C   0  0  0  0  0  0  0  0  0  0  0  0
    0.1677   63.7417   80.3775 C   0  0  0  0  0  0  0  0  0  0  0  0
   -0.1169   63.5656   77.6560 S   0  0  0  0  0  0  0  0  0  0  0  0
   -0.6866   64.4596   76.6716 O   0  0  0  0  0  0  0  0  0  0  0  0
    1.1603   62.9188   77.4330 O   0  0  0  0  0  0  0  0  0  0  0  0
   -1.2500   62.3253   77.9666 N   0  0  0  0  0  0  0  0  0  0  0  0
   -0.6592   60.9665   78.1763 C   0  0  0  0  0  0  0  0  0  0  0  0
   -1.7646   59.9648   78.5719 C   0  0  0  0  0  0  0  0  0  0  0  0
   -2.9040   59.8786   77.6327 N   0  0  0  0  0  0  0  0  0  0  0  0
   -2.5385   59.1693   76.4072 C   0  0  0  0  0  0  0  0  0  0  0  0
   -3.4076   61.2377   77.3429 C   0  0  0  0  0  0  0  0  0  0  0  0
   -2.3365   62.2711   76.9387 C   0  0  0  0  0  0  0  0  0  0  0  0
 16 17  1  0  0  0
 17 15  1  0  0  0
 15 13  1  0  0  0
 13  3  1  0  0  0
  3  4  1  0  0  0
  4  5  2  0  0  0
  5  1  1  0  0  0
  1 18  1  0  0  0
 18 19  1  0  0  0
 19 20  2  0  0  0
 20 21  1  0  0  0
 21 22  2  0  0  0
 22 24  1  0  0  0
 24 25  2  0  0  0
 24 26  2  0  0  0
 24 27  1  0  0  0
 27 28  1  0  0  0
 28 29  1  0  0  0
 29 30  1  0  0  0
 30 31  1  0  0  0
 30 32  1  0  0  0
 32 33  1  0  0  0
 22 23  1  0  0  0
  5  6  1  0  0  0
  6  7  2  0  0  0
  7  8  1  0  0  0
  8  9  1  0  0  0
  9 10  2  0  0  0
 10 11  1  0  0  0
 11 12  1  0  0  0
  8  3  2  0  0  0
 23 18  2  0  0  0
 11  7  1  0  0  0
 33 27  1  0  0  0
 13 14  1  0  0  0
  1  2  1  0  0  0
M  END
> <minimizedAffinity>
-8.93101

$$$$



 33 36  0  0  0  0  0  0  0  0999 V2000
   -1.9339   60.9459   82.6889 N   0  0  0  0  0  0  0  0  0  0  0  0
   -1.7917   60.0235   83.0755 H   0  0  0  0  0  0  0  0  0  0  0  0
   -0.8718   62.4421   85.7625 C   0  0  0  0  0  0  0  0  0  0  0  0
   -1.4300   61.6190   84.8326 N   0  0  0  0  0  0  0  0  0  0  0  0
   -1.2998   61.8766   83.5113 C   0  0  0  0  0  0  0  0  0  0  0  0
   -0.6633   62.9352   82.9871 N   0  0  0  0  0  0  0  0  0  0  0  0
   -0.1275   63.7307   83.9201 C   0  0  0  0  0  0  0  0  0  0  0  0
   -0.1767   63.5728   85.2936 C   0  0  0  0  0  0  0  0  0  0  0  0
    0.4882   64.6139   85.9184 N   0  0  0  0  0  0  0  0  0  0  0  0
    0.9360   65.3730   84.9407 C   0  0  0  0  0  0  0  0  0  0  0  0
    0.5860   64.8774   83.7173 N   0  0  0  0  0  0  0  0  0  0  0  0
    0.9024   65.4524   82.4374 C   0  0  0  0  0  0  0  0  0  0  0  0
   -1.0509   62.0542   87.0879 N   0  0  0  0  0  0  0  0  0  0  0  0
   -1.3806   61.0949   87.1028 H   0  0  0  0  0  0  0  0  0  0  0  0
   -1.7042   62.9623   88.0162 C   0  0  0  0  0  0  0  0  0  0  0  0
    0.5427   62.5746   89.1367 C   0  0  0  0  0  0  0  0  0  0  0  0
   -0.7569   63.3688   89.1456 C   0  0  0  0  0  0  0  0  0  0  0  0
   -2.5428   61.0229   81.4326 C   0  0  0  0  0  0  0  0  0  0  0  0
   -3.8848   61.4387   81.3652 C   0  0  0  0  0  0  0  0  0  0  0  0
   -4.5445   61.6005   80.1420 C   0  0  0  0  0  0  0  0  0  0  0  0
   -3.8670   61.3592   78.9522 C   0  0  0  0  0  0  0  0  0  0  0  0
   -2.5341   60.9520   79.0042 C   0  0  0  0  0  0  0  0  0  0  0  0
   -1.8742   60.7864   80.2292 C   0  0  0  0  0  0  0  0  0  0  0  0
   -1.6423   60.6659   77.4996 S   0  0  0  0  0  0  0  0  0  0  0  0
   -0.7253   59.5742   77.7448 O   0  0  0  0  0  0  0  0  0  0  0  0
   -2.5930   60.6170   76.4073 O   0  0  0  0  0  0  0  0  0  0  0  0
   -0.7265   62.0931   77.2925 N   0  0  0  0  0  0  0  0  0  0  0  0
    0.2837   62.3579   78.3643 C   0  0  0  0  0  0  0  0  0  0  0  0
    1.1280   63.5975   78.0004 C   0  0  0  0  0  0  0  0  0  0  0  0
    0.3557   64.8278   77.7217 N   0  0  0  0  0  0  0  0  0  0  0  0
   -0.1853   65.4125   78.9481 C   0  0  0  0  0  0  0  0  0  0  0  0
   -0.7136   64.5280   76.7463 C   0  0  0  0  0  0  0  0  0  0  0  0
   -1.5857   63.2987   77.0731 C   0  0  0  0  0  0  0  0  0  0  0  0
 16 17  1  0  0  0
 17 15  1  0  0  0
 15 13  1  0  0  0
 13  3  1  0  0  0
  3  4  1  0  0  0
  4  5  2  0  0  0
  5  1  1  0  0  0
  1 18  1  0  0  0
 18 19  1  0  0  0
 19 20  2  0  0  0
 20 21  1  0  0  0
 21 22  2  0  0  0
 22 24  1  0  0  0
 24 25  2  0  0  0
 24 26  2  0  0  0
 24 27  1  0  0  0
 27 28  1  0  0  0
 28 29  1  0  0  0
 29 30  1  0  0  0
 30 31  1  0  0  0
 30 32  1  0  0  0
 32 33  1  0  0  0
 22 23  1  0  0  0
  5  6  1  0  0  0
  6  7  2  0  0  0
  7  8  1  0  0  0
  8  9  1  0  0  0
  9 10  2  0  0  0
 10 11  1  0  0  0
 11 12  1  0  0  0
  8  3  2  0  0  0
 23 18  2  0  0  0
 11  7  1  0  0  0
 33 27  1  0  0  0
 13 14  1  0  0  0
  1  2  1  0  0  0
M  END
> <minimizedAffinity>
-8.82438

$$$$



 33 36  0  0  0  0  0  0  0  0999 V2000
    1.0003   65.5213   83.9772 N   0  0  0  0  0  0  0  0  0  0  0  0
    1.3072   66.4768   84.0923 H   0  0  0  0  0  0  0  0  0  0  0  0
    2.2789   64.3097   87.0934 C   0  0  0  0  0  0  0  0  0  0  0  0
    2.1555   64.8792   85.8628 N   0  0  0  0  0  0  0  0  0  0  0  0
    0.9603   64.9119   85.2309 C   0  0  0  0  0  0  0  0  0  0  0  0
   -0.1811   64.3879   85.7036 N   0  0  0  0  0  0  0  0  0  0  0  0
   -0.0333   63.8307   86.9111 C   0  0  0  0  0  0  0  0  0  0  0  0
    1.1235   63.7443   87.6650 C   0  0  0  0  0  0  0  0  0  0  0  0
    0.8703   63.0835   88.8548 N   0  0  0  0  0  0  0  0  0  0  0  0
   -0.4126   62.7904   88.8200 C   0  0  0  0  0  0  0  0  0  0  0  0
   -0.9968   63.2222   87.6636 N   0  0  0  0  0  0  0  0  0  0  0  0
   -2.3775   63.0669   87.2913 C   0  0  0  0  0  0  0  0  0  0  0  0
    3.5535   64.3646   87.6518 N   0  0  0  0  0  0  0  0  0  0  0  0
    3.4802   64.7458   88.5890 H   0  0  0  0  0  0  0  0  0  0  0  0
    4.6631   64.8582   86.8528 C   0  0  0  0  0  0  0  0  0  0  0  0
    5.7132   65.4200   89.0968 C   0  0  0  0  0  0  0  0  0  0  0  0
    5.5158   65.8472   87.6483 C   0  0  0  0  0  0  0  0  0  0  0  0
    0.5682   65.1403   82.7032 C   0  0  0  0  0  0  0  0  0  0  0  0
    0.9445   65.9346   81.6050 C   0  0  0  0  0  0  0  0  0  0  0  0
    0.6043   65.5856   80.2935 C   0  0  0  0  0  0  0  0  0  0  0  0
   -0.1144   64.4205   80.0509 C   0  0  0  0  0  0  0  0  0  0  0  0
   -0.4890   63.6205   81.1301 C   0  0  0  0  0  0  0  0  0  0  0  0
   -0.1515   63.9715   82.4440 C   0  0  0  0  0  0  0  0  0  0  0  0
   -1.3811   62.1164   80.8423 S   0  0  0  0  0  0  0  0  0  0  0  0
   -0.5535   61.0286   81.3165 O   0  0  0  0  0  0  0  0  0  0  0  0
   -2.7376   62.2913   81.3202 O   0  0  0  0  0  0  0  0  0  0  0  0
   -1.4678   62.0149   79.1391 N   0  0  0  0  0  0  0  0  0  0  0  0
   -2.8452   62.1376   78.5672 C   0  0  0  0  0  0  0  0  0  0  0  0
   -2.7775   62.1586   77.0254 C   0  0  0  0  0  0  0  0  0  0  0  0
   -2.0768   61.0113   76.4086 N   0  0  0  0  0  0  0  0  0  0  0  0
   -2.8818   59.7921   76.4723 C   0  0  0  0  0  0  0  0  0  0  0  0
   -0.7628   60.8283   77.0602 C   0  0  0  0  0  0  0  0  0  0  0  0
   -0.7842   60.7967   78.6020 C   0  0  0  0  0  0  0  0  0  0  0  0
 16 17  1  0  0  0
 17 15  1  0  0  0
 15 13  1  0  0  0
 13  3  1  0  0  0
  3  4  1  0  0  0
  4  5  2  0  0  0
  5  1  1  0  0  0
  1 18  1  0  0  0
 18 19  1  0  0  0
 19 20  2  0  0  0
 20 21  1  0  0  0
 21 22  2  0  0  0
 22 24  1  0  0  0
 24 25  2  0  0  0
 24 26  2  0  0  0
 24 27  1  0  0  0
 27 28  1  0  0  0
 28 29  1  0  0  0
 29 30  1  0  0  0
 30 31  1  0  0  0
 30 32  1  0  0  0
 32 33  1  0  0  0
 22 23  1  0  0  0
  5  6  1  0  0  0
  6  7  2  0  0  0
  7  8  1  0  0  0
  8  9  1  0  0  0
  9 10  2  0  0  0
 10 11  1  0  0  0
 11 12  1  0  0  0
  8  3  2  0  0  0
 23 18  2  0  0  0
 11  7  1  0  0  0
 33 27  1  0  0  0
 13 14  1  0  0  0
  1  2  1  0  0  0
M  END
> <minimizedAffinity>
-8.82323

$$$$



 33 36  0  0  0  0  0  0  0  0999 V2000
    1.1472   65.7647   84.8740 N   0  0  0  0  0  0  0  0  0  0  0  0
    1.0707   66.0031   85.8527 H   0  0  0  0  0  0  0  0  0  0  0  0
    3.9764   67.8623   84.2344 C   0  0  0  0  0  0  0  0  0  0  0  0
    3.1302   66.9286   84.7501 N   0  0  0  0  0  0  0  0  0  0  0  0
    1.8936   66.7521   84.2317 C   0  0  0  0  0  0  0  0  0  0  0  0
    1.3694   67.4596   83.2191 N   0  0  0  0  0  0  0  0  0  0  0  0
    2.2177   68.3729   82.7326 C   0  0  0  0  0  0  0  0  0  0  0  0
    3.5053   68.6419   83.1612 C   0  0  0  0  0  0  0  0  0  0  0  0
    4.0541   69.6678   82.4110 N   0  0  0  0  0  0  0  0  0  0  0  0
    3.1203   69.9986   81.5442 C   0  0  0  0  0  0  0  0  0  0  0  0
    1.9942   69.2426   81.7037 N   0  0  0  0  0  0  0  0  0  0  0  0
    0.7822   69.3380   80.9350 C   0  0  0  0  0  0  0  0  0  0  0  0
    5.2310   67.9280   84.8351 N   0  0  0  0  0  0  0  0  0  0  0  0
    5.8982   67.4417   84.2456 H   0  0  0  0  0  0  0  0  0  0  0  0
    5.3532   67.6847   86.2631 C   0  0  0  0  0  0  0  0  0  0  0  0
    5.3343   65.3384   87.2371 C   0  0  0  0  0  0  0  0  0  0  0  0
    6.1563   66.4127   86.5370 C   0  0  0  0  0  0  0  0  0  0  0  0
    0.6614   64.5130   84.4836 C   0  0  0  0  0  0  0  0  0  0  0  0
   -0.0479   63.7480   85.4270 C   0  0  0  0  0  0  0  0  0  0  0  0
   -0.6183   62.5144   85.0947 C   0  0  0  0  0  0  0  0  0  0  0  0
   -0.4999   62.0225   83.7998 C   0  0  0  0  0  0  0  0  0  0  0  0
    0.1959   62.7736   82.8528 C   0  0  0  0  0  0  0  0  0  0  0  0
    0.7703   64.0074   83.1860 C   0  0  0  0  0  0  0  0  0  0  0  0
    0.3354   62.1797   81.1888 S   0  0  0  0  0  0  0  0  0  0  0  0
    0.5559   63.3297   80.3393 O   0  0  0  0  0  0  0  0  0  0  0  0
    1.2477   61.0541   81.1804 O   0  0  0  0  0  0  0  0  0  0  0  0
   -1.2186   61.5572   80.8479 N   0  0  0  0  0  0  0  0  0  0  0  0
   -1.3109   60.7328   79.6025 C   0  0  0  0  0  0  0  0  0  0  0  0
   -2.7242   60.1264   79.4734 C   0  0  0  0  0  0  0  0  0  0  0  0
   -3.8357   61.1013   79.5151 N   0  0  0  0  0  0  0  0  0  0  0  0
   -3.9253   61.8683   78.2732 C   0  0  0  0  0  0  0  0  0  0  0  0
   -3.6718   61.9856   80.6880 C   0  0  0  0  0  0  0  0  0  0  0  0
   -2.2747   62.6176   80.8537 C   0  0  0  0  0  0  0  0  0  0  0  0
 16 17  1  0  0  0
 17 15  1  0  0  0
 15 13  1  0  0  0
 13  3  1  0  0  0
  3  4  1  0  0  0
  4  5  2  0  0  0
  5  1  1  0  0  0
  1 18  1  0  0  0
 18 19  1  0  0  0
 19 20  2  0  0  0
 20 21  1  0  0  0
 21 22  2  0  0  0
 22 24  1  0  0  0
 24 25  2  0  0  0
 24 26  2  0  0  0
 24 27  1  0  0  0
 27 28  1  0  0  0
 28 29  1  0  0  0
 29 30  1  0  0  0
 30 31  1  0  0  0
 30 32  1  0  0  0
 32 33  1  0  0  0
 22 23  1  0  0  0
  5  6  1  0  0  0
  6  7  2  0  0  0
  7  8  1  0  0  0
  8  9  1  0  0  0
  9 10  2  0  0  0
 10 11  1  0  0  0
 11 12  1  0  0  0
  8  3  2  0  0  0
 23 18  2  0  0  0
 11  7  1  0  0  0
 33 27  1  0  0  0
 13 14  1  0  0  0
  1  2  1  0  0  0
M  END
> <minimizedAffinity>
-8.71285

$$$$



 33 36  0  0  0  0  0  0  0  0999 V2000
    0.6892   65.3328   83.9321 N   0  0  0  0  0  0  0  0  0  0  0  0
    0.4252   65.3760   84.9062 H   0  0  0  0  0  0  0  0  0  0  0  0
    3.1486   67.8798   84.4589 C   0  0  0  0  0  0  0  0  0  0  0  0
    2.3307   66.8010   84.6044 N   0  0  0  0  0  0  0  0  0  0  0  0
    1.4604   66.4543   83.6290 C   0  0  0  0  0  0  0  0  0  0  0  0
    1.2871   67.1152   82.4740 N   0  0  0  0  0  0  0  0  0  0  0  0
    2.0983   68.1728   82.3565 C   0  0  0  0  0  0  0  0  0  0  0  0
    3.0359   68.6229   83.2687 C   0  0  0  0  0  0  0  0  0  0  0  0
    3.6673   69.7561   82.7853 N   0  0  0  0  0  0  0  0  0  0  0  0
    3.1283   69.9738   81.6043 C   0  0  0  0  0  0  0  0  0  0  0  0
    2.1753   69.0421   81.3061 N   0  0  0  0  0  0  0  0  0  0  0  0
    1.3848   68.9790   80.1061 C   0  0  0  0  0  0  0  0  0  0  0  0
    4.0196   68.1163   85.5194 N   0  0  0  0  0  0  0  0  0  0  0  0
    4.0505   69.1147   85.6965 H   0  0  0  0  0  0  0  0  0  0  0  0
    5.2983   67.4262   85.5615 C   0  0  0  0  0  0  0  0  0  0  0  0
    5.2565   65.2624   86.8921 C   0  0  0  0  0  0  0  0  0  0  0  0
    5.5198   66.7622   86.9211 C   0  0  0  0  0  0  0  0  0  0  0  0
    0.3743   64.1602   83.2384 C   0  0  0  0  0  0  0  0  0  0  0  0
   -0.0124   63.0291   83.9796 C   0  0  0  0  0  0  0  0  0  0  0  0
   -0.4023   61.8389   83.3561 C   0  0  0  0  0  0  0  0  0  0  0  0
   -0.4249   61.7588   81.9683 C   0  0  0  0  0  0  0  0  0  0  0  0
   -0.0496   62.8749   81.2209 C   0  0  0  0  0  0  0  0  0  0  0  0
    0.3444   64.0659   81.8450 C   0  0  0  0  0  0  0  0  0  0  0  0
   -0.0977   62.8049   79.4507 S   0  0  0  0  0  0  0  0  0  0  0  0
   -0.7458   64.0136   78.9904 O   0  0  0  0  0  0  0  0  0  0  0  0
    1.2174   62.4292   78.9725 O   0  0  0  0  0  0  0  0  0  0  0  0
   -1.1357   61.4878   79.1242 N   0  0  0  0  0  0  0  0  0  0  0  0
   -0.7029   60.6057   77.9955 C   0  0  0  0  0  0  0  0  0  0  0  0
   -1.6467   59.3898   77.8830 C   0  0  0  0  0  0  0  0  0  0  0  0
   -3.0828   59.7159   77.7447 N   0  0  0  0  0  0  0  0  0  0  0  0
   -3.3923   60.2262   76.4097 C   0  0  0  0  0  0  0  0  0  0  0  0
   -3.4732   60.6777   78.7970 C   0  0  0  0  0  0  0  0  0  0  0  0
   -2.5594   61.9117   78.9416 C   0  0  0  0  0  0  0  0  0  0  0  0
 16 17  1  0  0  0
 17 15  1  0  0  0
 15 13  1  0  0  0
 13  3  1  0  0  0
  3  4  1  0  0  0
  4  5  2  0  0  0
  5  1  1  0  0  0
  1 18  1  0  0  0
 18 19  1  0  0  0
 19 20  2  0  0  0
 20 21  1  0  0  0
 21 22  2  0  0  0
 22 24  1  0  0  0
 24 25  2  0  0  0
 24 26  2  0  0  0
 24 27  1  0  0  0
 27 28  1  0  0  0
 28 29  1  0  0  0
 29 30  1  0  0  0
 30 31  1  0  0  0
 30 32  1  0  0  0
 32 33  1  0  0  0
 22 23  1  0  0  0
  5  6  1  0  0  0
  6  7  2  0  0  0
  7  8  1  0  0  0
  8  9  1  0  0  0
  9 10  2  0  0  0
 10 11  1  0  0  0
 11 12  1  0  0  0
  8  3  2  0  0  0
 23 18  2  0  0  0
 11  7  1  0  0  0
 33 27  1  0  0  0
 13 14  1  0  0  0
  1  2  1  0  0  0
M  END
> <minimizedAffinity>
-8.70698

$$$$



 33 36  0  0  0  0  0  0  0  0999 V2000
    0.6335   65.2758   84.0476 N   0  0  0  0  0  0  0  0  0  0  0  0
   -0.0258   65.6219   84.7303 H   0  0  0  0  0  0  0  0  0  0  0  0
    2.8341   68.0463   83.5044 C   0  0  0  0  0  0  0  0  0  0  0  0
    1.7601   67.2093   83.5052 N   0  0  0  0  0  0  0  0  0  0  0  0
    1.8090   66.0195   84.1461 C   0  0  0  0  0  0  0  0  0  0  0  0
    2.8762   65.5339   84.7989 N   0  0  0  0  0  0  0  0  0  0  0  0
    3.9192   66.3719   84.7804 C   0  0  0  0  0  0  0  0  0  0  0  0
    3.9929   67.6146   84.1768 C   0  0  0  0  0  0  0  0  0  0  0  0
    5.2473   68.1669   84.3719 N   0  0  0  0  0  0  0  0  0  0  0  0
    5.9071   67.2799   85.0864 C   0  0  0  0  0  0  0  0  0  0  0  0
    5.1432   66.1801   85.3547 N   0  0  0  0  0  0  0  0  0  0  0  0
    5.5452   65.0196   86.1034 C   0  0  0  0  0  0  0  0  0  0  0  0
    2.6501   69.2535   82.8350 N   0  0  0  0  0  0  0  0  0  0  0  0
    2.1701   69.8975   83.4547 H   0  0  0  0  0  0  0  0  0  0  0  0
    2.1921   69.2430   81.4554 C   0  0  0  0  0  0  0  0  0  0  0  0
   -0.1559   68.9665   80.5256 C   0  0  0  0  0  0  0  0  0  0  0  0
    0.7901   69.8418   81.3372 C   0  0  0  0  0  0  0  0  0  0  0  0
    0.2783   64.1176   83.3495 C   0  0  0  0  0  0  0  0  0  0  0  0
   -0.1843   63.0106   84.0837 C   0  0  0  0  0  0  0  0  0  0  0  0
   -0.6171   61.8387   83.4537 C   0  0  0  0  0  0  0  0  0  0  0  0
   -0.6071   61.7537   82.0660 C   0  0  0  0  0  0  0  0  0  0  0  0
   -0.1565   62.8462   81.3255 C   0  0  0  0  0  0  0  0  0  0  0  0
    0.2804   64.0187   81.9561 C   0  0  0  0  0  0  0  0  0  0  0  0
   -0.1613   62.7709   79.5548 S   0  0  0  0  0  0  0  0  0  0  0  0
   -0.7736   63.9905   79.0746 O   0  0  0  0  0  0  0  0  0  0  0  0
    1.1577   62.3677   79.1111 O   0  0  0  0  0  0  0  0  0  0  0  0
   -1.2166   61.4733   79.2062 N   0  0  0  0  0  0  0  0  0  0  0  0
   -0.7691   60.5742   78.0969 C   0  0  0  0  0  0  0  0  0  0  0  0
   -1.7344   59.3773   77.9643 C   0  0  0  0  0  0  0  0  0  0  0  0
   -3.1585   59.7323   77.7810 N   0  0  0  0  0  0  0  0  0  0  0  0
   -3.4174   60.2391   76.4339 C   0  0  0  0  0  0  0  0  0  0  0  0
   -3.5598   60.7097   78.8146 C   0  0  0  0  0  0  0  0  0  0  0  0
   -2.6250   61.9254   78.9782 C   0  0  0  0  0  0  0  0  0  0  0  0
 16 17  1  0  0  0
 17 15  1  0  0  0
 15 13  1  0  0  0
 13  3  1  0  0  0
  3  4  1  0  0  0
  4  5  2  0  0  0
  5  1  1  0  0  0
  1 18  1  0  0  0
 18 19  1  0  0  0
 19 20  2  0  0  0
 20 21  1  0  0  0
 21 22  2  0  0  0
 22 24  1  0  0  0
 24 25  2  0  0  0
 24 26  2  0  0  0
 24 27  1  0  0  0
 27 28  1  0  0  0
 28 29  1  0  0  0
 29 30  1  0  0  0
 30 31  1  0  0  0
 30 32  1  0  0  0
 32 33  1  0  0  0
 22 23  1  0  0  0
  5  6  1  0  0  0
  6  7  2  0  0  0
  7  8  1  0  0  0
  8  9  1  0  0  0
  9 10  2  0  0  0
 10 11  1  0  0  0
 11 12  1  0  0  0
  8  3  2  0  0  0
 23 18  2  0  0  0
 11  7  1  0  0  0
 33 27  1  0  0  0
 13 14  1  0  0  0
  1  2  1  0  0  0
M  END
> <minimizedAffinity>
-8.58834

$$$$



 33 36  0  0  0  0  0  0  0  0999 V2000
    0.9208   63.5051   83.1420 N   0  0  0  0  0  0  0  0  0  0  0  0
    1.6830   62.9104   83.4352 H   0  0  0  0  0  0  0  0  0  0  0  0
   -2.1041   61.7814   83.9740 C   0  0  0  0  0  0  0  0  0  0  0  0
   -0.9730   62.5377   84.0250 N   0  0  0  0  0  0  0  0  0  0  0  0
   -0.2055   62.7120   82.9252 C   0  0  0  0  0  0  0  0  0  0  0  0
   -0.4389   62.1647   81.7224 N   0  0  0  0  0  0  0  0  0  0  0  0
   -1.5525   61.4232   81.6988 C   0  0  0  0  0  0  0  0  0  0  0  0
   -2.4260   61.1786   82.7434 C   0  0  0  0  0  0  0  0  0  0  0  0
   -3.4543   60.3525   82.3230 N   0  0  0  0  0  0  0  0  0  0  0  0
   -3.2089   60.1166   81.0514 C   0  0  0  0  0  0  0  0  0  0  0  0
   -2.0694   60.7427   80.6336 N   0  0  0  0  0  0  0  0  0  0  0  0
   -1.5027   60.6984   79.3123 C   0  0  0  0  0  0  0  0  0  0  0  0
   -2.8235   61.7019   85.1637 N   0  0  0  0  0  0  0  0  0  0  0  0
   -3.7223   61.2729   84.9705 H   0  0  0  0  0  0  0  0  0  0  0  0
   -2.8478   62.8446   86.0619 C   0  0  0  0  0  0  0  0  0  0  0  0
   -1.3147   63.3507   88.0235 C   0  0  0  0  0  0  0  0  0  0  0  0
   -2.4078   62.4454   87.4709 C   0  0  0  0  0  0  0  0  0  0  0  0
    1.1360   64.8859   83.1890 C   0  0  0  0  0  0  0  0  0  0  0  0
    1.7163   65.4322   84.3479 C   0  0  0  0  0  0  0  0  0  0  0  0
    2.0201   66.7945   84.4466 C   0  0  0  0  0  0  0  0  0  0  0  0
    1.7585   67.6420   83.3761 C   0  0  0  0  0  0  0  0  0  0  0  0
    1.1886   67.1124   82.2186 C   0  0  0  0  0  0  0  0  0  0  0  0
    0.8809   65.7490   82.1207 C   0  0  0  0  0  0  0  0  0  0  0  0
    0.8722   68.1688   80.8311 S   0  0  0  0  0  0  0  0  0  0  0  0
    2.0828   68.2130   80.0401 O   0  0  0  0  0  0  0  0  0  0  0  0
   -0.3950   67.7840   80.2435 O   0  0  0  0  0  0  0  0  0  0  0  0
    0.6415   69.7077   81.5363 N   0  0  0  0  0  0  0  0  0  0  0  0
   -0.3933   70.5598   80.8713 C   0  0  0  0  0  0  0  0  0  0  0  0
   -0.5983   71.8636   81.6712 C   0  0  0  0  0  0  0  0  0  0  0  0
    0.6273   72.6559   81.9118 N   0  0  0  0  0  0  0  0  0  0  0  0
    1.0758   73.3352   80.6969 C   0  0  0  0  0  0  0  0  0  0  0  0
    1.6812   71.7783   82.4630 C   0  0  0  0  0  0  0  0  0  0  0  0
    1.9230   70.4650   81.6914 C   0  0  0  0  0  0  0  0  0  0  0  0
 16 17  1  0  0  0
 17 15  1  0  0  0
 15 13  1  0  0  0
 13  3  1  0  0  0
  3  4  1  0  0  0
  4  5  2  0  0  0
  5  1  1  0  0  0
  1 18  1  0  0  0
 18 19  1  0  0  0
 19 20  2  0  0  0
 20 21  1  0  0  0
 21 22  2  0  0  0
 22 24  1  0  0  0
 24 25  2  0  0  0
 24 26  2  0  0  0
 24 27  1  0  0  0
 27 28  1  0  0  0
 28 29  1  0  0  0
 29 30  1  0  0  0
 30 31  1  0  0  0
 30 32  1  0  0  0
 32 33  1  0  0  0
 22 23  1  0  0  0
  5  6  1  0  0  0
  6  7  2  0  0  0
  7  8  1  0  0  0
  8  9  1  0  0  0
  9 10  2  0  0  0
 10 11  1  0  0  0
 11 12  1  0  0  0
  8  3  2  0  0  0
 23 18  2  0  0  0
 11  7  1  0  0  0
 33 27  1  0  0  0
 13 14  1  0  0  0
  1  2  1  0  0  0
M  END
> <minimizedAffinity>
-8.56660

$$$$



 33 36  0  0  0  0  0  0  0  0999 V2000
    0.6178   64.7302   83.2056 N   0  0  0  0  0  0  0  0  0  0  0  0
    0.1091   64.5775   84.0649 H   0  0  0  0  0  0  0  0  0  0  0  0
    3.0870   66.9947   84.4659 C   0  0  0  0  0  0  0  0  0  0  0  0
    2.3112   65.8989   84.2393 N   0  0  0  0  0  0  0  0  0  0  0  0
    1.3260   65.9266   83.3132 C   0  0  0  0  0  0  0  0  0  0  0  0
    0.9934   66.9911   82.5670 N   0  0  0  0  0  0  0  0  0  0  0  0
    1.7665   68.0556   82.8108 C   0  0  0  0  0  0  0  0  0  0  0  0
    2.8087   68.1526   83.7155 C   0  0  0  0  0  0  0  0  0  0  0  0
    3.3546   69.4243   83.6811 N   0  0  0  0  0  0  0  0  0  0  0  0
    2.6624   70.0719   82.7677 C   0  0  0  0  0  0  0  0  0  0  0  0
    1.6925   69.2835   82.2176 N   0  0  0  0  0  0  0  0  0  0  0  0
    0.7528   69.6667   81.1983 C   0  0  0  0  0  0  0  0  0  0  0  0
    4.0857   66.8319   85.4227 N   0  0  0  0  0  0  0  0  0  0  0  0
    4.6223   67.6909   85.4800 H   0  0  0  0  0  0  0  0  0  0  0  0
    4.8578   65.6005   85.4474 C   0  0  0  0  0  0  0  0  0  0  0  0
    5.6701   65.5543   87.8542 C   0  0  0  0  0  0  0  0  0  0  0  0
    4.7598   64.9177   86.8121 C   0  0  0  0  0  0  0  0  0  0  0  0
    0.6096   63.6929   82.2679 C   0  0  0  0  0  0  0  0  0  0  0  0
    0.9393   62.3966   82.7030 C   0  0  0  0  0  0  0  0  0  0  0  0
    0.8933   61.2967   81.8395 C   0  0  0  0  0  0  0  0  0  0  0  0
    0.5025   61.4703   80.5166 C   0  0  0  0  0  0  0  0  0  0  0  0
    0.1672   62.7494   80.0734 C   0  0  0  0  0  0  0  0  0  0  0  0
    0.2166   63.8517   80.9369 C   0  0  0  0  0  0  0  0  0  0  0  0
   -0.3609   62.9898   78.3987 S   0  0  0  0  0  0  0  0  0  0  0  0
   -0.6620   64.3960   78.2410 O   0  0  0  0  0  0  0  0  0  0  0  0
    0.5791   62.3203   77.5227 O   0  0  0  0  0  0  0  0  0  0  0  0
   -1.8275   62.1185   78.3061 N   0  0  0  0  0  0  0  0  0  0  0  0
   -2.6560   62.1398   79.5521 C   0  0  0  0  0  0  0  0  0  0  0  0
   -4.0039   61.4306   79.3029 C   0  0  0  0  0  0  0  0  0  0  0  0
   -3.9039   60.0474   78.7886 N   0  0  0  0  0  0  0  0  0  0  0  0
   -3.4743   59.1158   79.8308 C   0  0  0  0  0  0  0  0  0  0  0  0
   -2.9917   60.0187   77.6259 C   0  0  0  0  0  0  0  0  0  0  0  0
   -1.6299   60.7126   77.8324 C   0  0  0  0  0  0  0  0  0  0  0  0
 16 17  1  0  0  0
 17 15  1  0  0  0
 15 13  1  0  0  0
 13  3  1  0  0  0
  3  4  1  0  0  0
  4  5  2  0  0  0
  5  1  1  0  0  0
  1 18  1  0  0  0
 18 19  1  0  0  0
 19 20  2  0  0  0
 20 21  1  0  0  0
 21 22  2  0  0  0
 22 24  1  0  0  0
 24 25  2  0  0  0
 24 26  2  0  0  0
 24 27  1  0  0  0
 27 28  1  0  0  0
 28 29  1  0  0  0
 29 30  1  0  0  0
 30 31  1  0  0  0
 30 32  1  0  0  0
 32 33  1  0  0  0
 22 23  1  0  0  0
  5  6  1  0  0  0
  6  7  2  0  0  0
  7  8  1  0  0  0
  8  9  1  0  0  0
  9 10  2  0  0  0
 10 11  1  0  0  0
 11 12  1  0  0  0
  8  3  2  0  0  0
 23 18  2  0  0  0
 11  7  1  0  0  0
 33 27  1  0  0  0
 13 14  1  0  0  0
  1  2  1  0  0  0
M  END
> <minimizedAffinity>
-8.56394

$$$$



 33 36  0  0  0  0  0  0  0  0999 V2000
    0.2107   64.2551   83.3499 N   0  0  0  0  0  0  0  0  0  0  0  0
   -0.2356   65.1403   83.1555 H   0  0  0  0  0  0  0  0  0  0  0  0
    1.8430   64.3359   86.5346 C   0  0  0  0  0  0  0  0  0  0  0  0
    1.5626   64.4307   85.2056 N   0  0  0  0  0  0  0  0  0  0  0  0
    0.3366   64.1131   84.7314 C   0  0  0  0  0  0  0  0  0  0  0  0
   -0.6878   63.6618   85.4715 N   0  0  0  0  0  0  0  0  0  0  0  0
   -0.3866   63.5732   86.7722 C   0  0  0  0  0  0  0  0  0  0  0  0
    0.8168   63.8785   87.3826 C   0  0  0  0  0  0  0  0  0  0  0  0
    0.7351   63.6432   88.7444 N   0  0  0  0  0  0  0  0  0  0  0  0
   -0.4938   63.2173   88.9475 C   0  0  0  0  0  0  0  0  0  0  0  0
   -1.2055   63.1587   87.7834 N   0  0  0  0  0  0  0  0  0  0  0  0
   -2.5719   62.7347   87.6349 C   0  0  0  0  0  0  0  0  0  0  0  0
    3.1305   64.7186   86.9022 N   0  0  0  0  0  0  0  0  0  0  0  0
    3.0786   65.2332   87.7749 H   0  0  0  0  0  0  0  0  0  0  0  0
    4.0278   65.2652   85.8976 C   0  0  0  0  0  0  0  0  0  0  0  0
    5.3978   65.4660   88.0276 C   0  0  0  0  0  0  0  0  0  0  0  0
    5.3517   65.7046   86.5240 C   0  0  0  0  0  0  0  0  0  0  0  0
    0.4176   63.3949   82.2670 C   0  0  0  0  0  0  0  0  0  0  0  0
    0.9862   62.1327   82.5159 C   0  0  0  0  0  0  0  0  0  0  0  0
    1.1671   61.1930   81.4952 C   0  0  0  0  0  0  0  0  0  0  0  0
    0.7693   61.4942   80.1976 C   0  0  0  0  0  0  0  0  0  0  0  0
    0.1985   62.7400   79.9379 C   0  0  0  0  0  0  0  0  0  0  0  0
    0.0205   63.6827   80.9591 C   0  0  0  0  0  0  0  0  0  0  0  0
   -0.3418   63.1351   78.2969 S   0  0  0  0  0  0  0  0  0  0  0  0
   -0.7471   64.5239   78.3008 O   0  0  0  0  0  0  0  0  0  0  0  0
    0.6480   62.6444   77.3594 O   0  0  0  0  0  0  0  0  0  0  0  0
   -1.7387   62.1743   78.0867 N   0  0  0  0  0  0  0  0  0  0  0  0
   -2.6922   62.1830   79.2400 C   0  0  0  0  0  0  0  0  0  0  0  0
   -3.9642   61.3864   78.8804 C   0  0  0  0  0  0  0  0  0  0  0  0
   -3.7325   59.9969   78.4295 N   0  0  0  0  0  0  0  0  0  0  0  0
   -3.3612   59.1249   79.5431 C   0  0  0  0  0  0  0  0  0  0  0  0
   -2.7042   59.9884   77.3677 C   0  0  0  0  0  0  0  0  0  0  0  0
   -1.4131   60.7693   77.6868 C   0  0  0  0  0  0  0  0  0  0  0  0
 16 17  1  0  0  0
 17 15  1  0  0  0
 15 13  1  0  0  0
 13  3  1  0  0  0
  3  4  1  0  0  0
  4  5  2  0  0  0
  5  1  1  0  0  0
  1 18  1  0  0  0
 18 19  1  0  0  0
 19 20  2  0  0  0
 20 21  1  0  0  0
 21 22  2  0  0  0
 22 24  1  0  0  0
 24 25  2  0  0  0
 24 26  2  0  0  0
 24 27  1  0  0  0
 27 28  1  0  0  0
 28 29  1  0  0  0
 29 30  1  0  0  0
 30 31  1  0  0  0
 30 32  1  0  0  0
 32 33  1  0  0  0
 22 23  1  0  0  0
  5  6  1  0  0  0
  6  7  2  0  0  0
  7  8  1  0  0  0
  8  9  1  0  0  0
  9 10  2  0  0  0
 10 11  1  0  0  0
 11 12  1  0  0  0
  8  3  2  0  0  0
 23 18  2  0  0  0
 11  7  1  0  0  0
 33 27  1  0  0  0
 13 14  1  0  0  0
  1  2  1  0  0  0
M  END
> <minimizedAffinity>
-8.55176

$$$$
