


 39 43  0  0  0  0  0  0  0  0999 V2000
   -0.3267   64.2878   82.2024 C   0  0  0  0  0  0  0  0  0  0  0  0
   -0.9718   63.1446   81.7107 C   0  0  0  0  0  0  0  0  0  0  0  0
   -0.9249   62.8377   80.3496 C   0  0  0  0  0  0  0  0  0  0  0  0
   -0.2548   63.6947   79.4741 C   0  0  0  0  0  0  0  0  0  0  0  0
    0.3987   64.8327   79.9542 C   0  0  0  0  0  0  0  0  0  0  0  0
    0.3523   65.1429   81.3217 C   0  0  0  0  0  0  0  0  0  0  0  0
    1.0267   66.3966   81.7631 C   0  0  0  0  0  0  0  0  0  0  0  0
    0.4232   67.5898   81.3979 N   0  0  0  0  0  0  0  0  0  0  0  0
    1.0161   68.6620   81.7884 C   0  0  0  0  0  0  0  0  0  0  0  0
    0.5376   69.8808   81.4910 O   0  0  0  0  0  0  0  0  0  0  0  0
    2.1714   68.6691   82.5389 N   0  0  0  0  0  0  0  0  0  0  0  0
    2.9687   69.6581   83.0665 C   0  0  0  0  0  0  0  0  0  0  0  0
    2.7149   71.1102   82.9054 C   0  0  0  0  0  0  0  0  0  0  0  0
    3.9807   69.1294   83.7308 N   0  0  0  0  0  0  0  0  0  0  0  0
    3.8329   67.7606   83.6254 C   0  0  0  0  0  0  0  0  0  0  0  0
    2.7083   67.4548   82.8856 C   0  0  0  0  0  0  0  0  0  0  0  0
    2.1101   66.3014   82.4868 N   0  0  0  0  0  0  0  0  0  0  0  0
   -0.2684   69.7582   80.9612 H   0  0  0  0  0  0  0  0  0  0  0  0
    4.8064   66.8251   84.2653 C   0  0  0  0  0  0  0  0  0  0  0  0
    4.1210   65.8519   85.2421 C   0  0  0  0  0  0  0  0  0  0  0  0
    4.9686   65.8746   86.5074 C   0  0  0  0  0  0  0  0  0  0  0  0
    5.5177   67.2891   86.5435 C   0  0  0  0  0  0  0  0  0  0  0  0
    5.8823   67.5526   85.0894 C   0  0  0  0  0  0  0  0  0  0  0  0
   -0.1745   63.3114   77.7369 S   0  0  0  0  0  0  0  0  0  0  0  0
   -0.6830   64.4636   77.0242 O   0  0  0  0  0  0  0  0  0  0  0  0
    1.1503   62.7920   77.4688 O   0  0  0  0  0  0  0  0  0  0  0  0
   -1.2729   62.0440   77.5617 N   0  0  0  0  0  0  0  0  0  0  0  0
   -2.5848   62.3543   76.9241 C   0  0  0  0  0  0  0  0  0  0  0  0
   -3.3378   61.0694   76.5106 C   0  0  0  0  0  0  0  0  0  0  0  0
   -3.2084   59.9386   77.4513 N   0  0  0  0  0  0  0  0  0  0  0  0
   -1.7713   59.6123   77.6470 C   0  0  0  0  0  0  0  0  0  0  0  0
   -0.7549   60.6988   77.2184 C   0  0  0  0  0  0  0  0  0  0  0  0
   -3.8530   60.1951   78.7591 C   0  0  0  0  0  0  0  0  0  0  0  0
   -3.4513   59.2280   79.8883 C   0  0  0  0  0  0  0  0  0  0  0  0
   -4.1646   57.9948   79.8072 O   0  0  0  0  0  0  0  0  0  0  0  0
   -5.1081   58.2006   79.9285 H   0  0  0  0  0  0  0  0  0  0  0  0
   -0.4675   64.6216   83.5244 O   0  0  0  0  0  0  0  0  0  0  0  0
    0.7044   64.4108   85.5929 C   0  0  0  0  0  0  0  0  0  0  0  0
    0.1614   63.6663   84.3866 C   0  0  0  0  0  0  0  0  0  0  0  0
 38 39  1  0  0  0
 39 37  1  0  0  0
 37  1  1  0  0  0
  1  2  1  0  0  0
  2  3  2  0  0  0
  3  4  1  0  0  0
  4 24  1  0  0  0
 24 25  2  0  0  0
 24 26  2  0  0  0
 24 27  1  0  0  0
 27 28  1  0  0  0
 28 29  1  0  0  0
 29 30  1  0  0  0
 30 33  1  0  0  0
 33 34  1  0  0  0
 34 35  1  0  0  0
 30 31  1  0  0  0
 31 32  1  0  0  0
  4  5  2  0  0  0
  5  6  1  0  0  0
  6  7  1  0  0  0
  7  8  1  0  0  0
  8  9  2  0  0  0
  9 10  1  0  0  0
  9 11  1  0  0  0
 11 12  1  0  0  0
 12 13  1  0  0  0
 12 14  2  0  0  0
 14 15  1  0  0  0
 15 19  1  0  0  0
 19 20  1  0  0  0
 20 21  1  0  0  0
 21 22  1  0  0  0
 22 23  1  0  0  0
 15 16  2  0  0  0
 16 17  1  0  0  0
  6  1  2  0  0  0
 17  7  2  0  0  0
 32 27  1  0  0  0
 16 11  1  0  0  0
 23 19  1  0  0  0
 35 36  1  0  0  0
 10 18  1  0  0  0
M  END
> <minimizedAffinity>
-10.76678

$$$$



 39 43  0  0  0  0  0  0  0  0999 V2000
   -0.8654   63.1549   83.7484 C   0  0  0  0  0  0  0  0  0  0  0  0
   -1.5615   61.9690   84.0202 C   0  0  0  0  0  0  0  0  0  0  0  0
   -2.2983   61.3369   83.0171 C   0  0  0  0  0  0  0  0  0  0  0  0
   -2.3620   61.9104   81.7454 C   0  0  0  0  0  0  0  0  0  0  0  0
   -1.6655   63.0879   81.4609 C   0  0  0  0  0  0  0  0  0  0  0  0
   -0.9249   63.7248   82.4680 C   0  0  0  0  0  0  0  0  0  0  0  0
   -0.2457   65.0034   82.1143 C   0  0  0  0  0  0  0  0  0  0  0  0
   -0.6213   65.5981   80.9199 N   0  0  0  0  0  0  0  0  0  0  0  0
   -0.0278   66.7016   80.6305 C   0  0  0  0  0  0  0  0  0  0  0  0
   -0.2957   67.3704   79.4974 O   0  0  0  0  0  0  0  0  0  0  0  0
    0.9159   67.2988   81.4371 N   0  0  0  0  0  0  0  0  0  0  0  0
    1.6667   68.4481   81.3493 C   0  0  0  0  0  0  0  0  0  0  0  0
    1.6086   69.3988   80.2129 C   0  0  0  0  0  0  0  0  0  0  0  0
    2.4366   68.5785   82.4148 N   0  0  0  0  0  0  0  0  0  0  0  0
    2.1768   67.4802   83.2101 C   0  0  0  0  0  0  0  0  0  0  0  0
    1.2293   66.6708   82.6163 C   0  0  0  0  0  0  0  0  0  0  0  0
    0.6243   65.5011   82.9522 N   0  0  0  0  0  0  0  0  0  0  0  0
   -0.9649   66.8624   79.0081 H   0  0  0  0  0  0  0  0  0  0  0  0
    2.8731   67.2893   84.5183 C   0  0  0  0  0  0  0  0  0  0  0  0
    3.9088   68.3954   84.7921 C   0  0  0  0  0  0  0  0  0  0  0  0
    5.1698   67.6737   85.2492 C   0  0  0  0  0  0  0  0  0  0  0  0
    5.1178   66.3552   84.4991 C   0  0  0  0  0  0  0  0  0  0  0  0
    3.6499   65.9639   84.5948 C   0  0  0  0  0  0  0  0  0  0  0  0
   -3.2869   61.1104   80.4509 S   0  0  0  0  0  0  0  0  0  0  0  0
   -3.2357   59.6876   80.7100 O   0  0  0  0  0  0  0  0  0  0  0  0
   -4.5529   61.8030   80.3316 O   0  0  0  0  0  0  0  0  0  0  0  0
   -2.3856   61.4362   79.0635 N   0  0  0  0  0  0  0  0  0  0  0  0
   -1.2383   60.5326   78.7609 C   0  0  0  0  0  0  0  0  0  0  0  0
   -0.7290   60.7201   77.3137 C   0  0  0  0  0  0  0  0  0  0  0  0
   -0.7384   62.1125   76.8228 N   0  0  0  0  0  0  0  0  0  0  0  0
   -2.1127   62.6702   76.9252 C   0  0  0  0  0  0  0  0  0  0  0  0
   -3.0945   61.9132   77.8528 C   0  0  0  0  0  0  0  0  0  0  0  0
    0.2183   62.9866   77.5386 C   0  0  0  0  0  0  0  0  0  0  0  0
   -0.1287   64.4870   77.5252 C   0  0  0  0  0  0  0  0  0  0  0  0
    0.9677   65.2874   77.9651 O   0  0  0  0  0  0  0  0  0  0  0  0
    1.1481   65.0434   78.8899 H   0  0  0  0  0  0  0  0  0  0  0  0
   -0.2295   63.8094   84.7712 O   0  0  0  0  0  0  0  0  0  0  0  0
    0.1332   64.0866   87.1139 C   0  0  0  0  0  0  0  0  0  0  0  0
   -0.6063   63.2922   86.0526 C   0  0  0  0  0  0  0  0  0  0  0  0
 38 39  1  0  0  0
 39 37  1  0  0  0
 37  1  1  0  0  0
  1  2  1  0  0  0
  2  3  2  0  0  0
  3  4  1  0  0  0
  4 24  1  0  0  0
 24 25  2  0  0  0
 24 26  2  0  0  0
 24 27  1  0  0  0
 27 28  1  0  0  0
 28 29  1  0  0  0
 29 30  1  0  0  0
 30 33  1  0  0  0
 33 34  1  0  0  0
 34 35  1  0  0  0
 30 31  1  0  0  0
 31 32  1  0  0  0
  4  5  2  0  0  0
  5  6  1  0  0  0
  6  7  1  0  0  0
  7  8  1  0  0  0
  8  9  2  0  0  0
  9 10  1  0  0  0
  9 11  1  0  0  0
 11 12  1  0  0  0
 12 13  1  0  0  0
 12 14  2  0  0  0
 14 15  1  0  0  0
 15 19  1  0  0  0
 19 20  1  0  0  0
 20 21  1  0  0  0
 21 22  1  0  0  0
 22 23  1  0  0  0
 15 16  2  0  0  0
 16 17  1  0  0  0
  6  1  2  0  0  0
 17  7  2  0  0  0
 32 27  1  0  0  0
 16 11  1  0  0  0
 23 19  1  0  0  0
 35 36  1  0  0  0
 10 18  1  0  0  0
M  END
> <minimizedAffinity>
-10.48550

$$$$



 39 43  0  0  0  0  0  0  0  0999 V2000
   -0.7212   63.6776   82.8295 C   0  0  0  0  0  0  0  0  0  0  0  0
   -1.5640   62.8188   82.1104 C   0  0  0  0  0  0  0  0  0  0  0  0
   -1.4635   62.7311   80.7208 C   0  0  0  0  0  0  0  0  0  0  0  0
   -0.5360   63.5282   80.0467 C   0  0  0  0  0  0  0  0  0  0  0  0
    0.3149   64.3818   80.7539 C   0  0  0  0  0  0  0  0  0  0  0  0
    0.2150   64.4715   82.1505 C   0  0  0  0  0  0  0  0  0  0  0  0
    1.1163   65.4368   82.8412 C   0  0  0  0  0  0  0  0  0  0  0  0
    1.8045   64.9637   83.9474 N   0  0  0  0  0  0  0  0  0  0  0  0
    2.5796   65.8081   84.5305 C   0  0  0  0  0  0  0  0  0  0  0  0
    3.2933   65.4759   85.6182 O   0  0  0  0  0  0  0  0  0  0  0  0
    2.7571   67.1063   84.1050 N   0  0  0  0  0  0  0  0  0  0  0  0
    3.5128   68.1676   84.5464 C   0  0  0  0  0  0  0  0  0  0  0  0
    4.4019   68.1237   85.7323 C   0  0  0  0  0  0  0  0  0  0  0  0
    3.3326   69.2182   83.7662 N   0  0  0  0  0  0  0  0  0  0  0  0
    2.4325   68.8235   82.7964 C   0  0  0  0  0  0  0  0  0  0  0  0
    2.0629   67.5078   82.9914 C   0  0  0  0  0  0  0  0  0  0  0  0
    1.2320   66.6428   82.3524 N   0  0  0  0  0  0  0  0  0  0  0  0
    3.0903   64.5490   85.8305 H   0  0  0  0  0  0  0  0  0  0  0  0
    1.9880   69.7638   81.7237 C   0  0  0  0  0  0  0  0  0  0  0  0
    0.5185   70.1901   81.8969 C   0  0  0  0  0  0  0  0  0  0  0  0
   -0.1187   70.0366   80.5220 C   0  0  0  0  0  0  0  0  0  0  0  0
    0.6409   68.8769   79.9044 C   0  0  0  0  0  0  0  0  0  0  0  0
    2.0804   69.1520   80.3156 C   0  0  0  0  0  0  0  0  0  0  0  0
   -0.3859   63.4193   78.2756 S   0  0  0  0  0  0  0  0  0  0  0  0
   -0.9660   64.6257   77.7257 O   0  0  0  0  0  0  0  0  0  0  0  0
    0.9811   63.0453   77.9790 O   0  0  0  0  0  0  0  0  0  0  0  0
   -1.3780   62.1158   77.8754 N   0  0  0  0  0  0  0  0  0  0  0  0
   -2.6674   62.4182   77.1899 C   0  0  0  0  0  0  0  0  0  0  0  0
   -3.2999   61.1487   76.5755 C   0  0  0  0  0  0  0  0  0  0  0  0
   -3.1475   59.9212   77.3817 N   0  0  0  0  0  0  0  0  0  0  0  0
   -1.7052   59.6653   77.6363 C   0  0  0  0  0  0  0  0  0  0  0  0
   -0.7450   60.8589   77.4113 C   0  0  0  0  0  0  0  0  0  0  0  0
   -3.8873   59.9729   78.6629 C   0  0  0  0  0  0  0  0  0  0  0  0
   -3.1427   59.3802   79.8738 C   0  0  0  0  0  0  0  0  0  0  0  0
   -3.3719   57.9775   80.0010 O   0  0  0  0  0  0  0  0  0  0  0  0
   -4.3240   57.8560   80.1627 H   0  0  0  0  0  0  0  0  0  0  0  0
   -0.9029   63.8201   84.1807 O   0  0  0  0  0  0  0  0  0  0  0  0
   -0.8375   62.2572   85.9834 C   0  0  0  0  0  0  0  0  0  0  0  0
   -1.5975   62.7029   84.7472 C   0  0  0  0  0  0  0  0  0  0  0  0
 38 39  1  0  0  0
 39 37  1  0  0  0
 37  1  1  0  0  0
  1  2  1  0  0  0
  2  3  2  0  0  0
  3  4  1  0  0  0
  4 24  1  0  0  0
 24 25  2  0  0  0
 24 26  2  0  0  0
 24 27  1  0  0  0
 27 28  1  0  0  0
 28 29  1  0  0  0
 29 30  1  0  0  0
 30 33  1  0  0  0
 33 34  1  0  0  0
 34 35  1  0  0  0
 30 31  1  0  0  0
 31 32  1  0  0  0
  4  5  2  0  0  0
  5  6  1  0  0  0
  6  7  1  0  0  0
  7  8  1  0  0  0
  8  9  2  0  0  0
  9 10  1  0  0  0
  9 11  1  0  0  0
 11 12  1  0  0  0
 12 13  1  0  0  0
 12 14  2  0  0  0
 14 15  1  0  0  0
 15 19  1  0  0  0
 19 20  1  0  0  0
 20 21  1  0  0  0
 21 22  1  0  0  0
 22 23  1  0  0  0
 15 16  2  0  0  0
 16 17  1  0  0  0
  6  1  2  0  0  0
 17  7  2  0  0  0
 32 27  1  0  0  0
 16 11  1  0  0  0
 23 19  1  0  0  0
 35 36  1  0  0  0
 10 18  1  0  0  0
M  END
> <minimizedAffinity>
-10.46404

$$$$



 39 43  0  0  0  0  0  0  0  0999 V2000
    0.1578   63.7406   85.0342 C   0  0  0  0  0  0  0  0  0  0  0  0
   -0.6682   62.6178   85.1821 C   0  0  0  0  0  0  0  0  0  0  0  0
   -1.3096   62.0620   84.0737 C   0  0  0  0  0  0  0  0  0  0  0  0
   -1.1466   62.6508   82.8180 C   0  0  0  0  0  0  0  0  0  0  0  0
   -0.3192   63.7653   82.6573 C   0  0  0  0  0  0  0  0  0  0  0  0
    0.3259   64.3254   83.7702 C   0  0  0  0  0  0  0  0  0  0  0  0
    1.1545   65.5429   83.5409 C   0  0  0  0  0  0  0  0  0  0  0  0
    0.6545   66.4768   82.6470 N   0  0  0  0  0  0  0  0  0  0  0  0
    1.3800   67.5223   82.4620 C   0  0  0  0  0  0  0  0  0  0  0  0
    1.0111   68.4957   81.6139 O   0  0  0  0  0  0  0  0  0  0  0  0
    2.5776   67.7476   83.1045 N   0  0  0  0  0  0  0  0  0  0  0  0
    3.5067   68.7618   83.0780 C   0  0  0  0  0  0  0  0  0  0  0  0
    3.3941   69.9755   82.2337 C   0  0  0  0  0  0  0  0  0  0  0  0
    4.5010   68.4981   83.9068 N   0  0  0  0  0  0  0  0  0  0  0  0
    4.2057   67.2778   84.4811 C   0  0  0  0  0  0  0  0  0  0  0  0
    3.0083   66.7946   83.9930 C   0  0  0  0  0  0  0  0  0  0  0  0
    2.2685   65.6754   84.2102 N   0  0  0  0  0  0  0  0  0  0  0  0
    0.1629   68.2335   81.2174 H   0  0  0  0  0  0  0  0  0  0  0  0
    5.1181   66.6542   85.4867 C   0  0  0  0  0  0  0  0  0  0  0  0
    6.3455   67.5355   85.7830 C   0  0  0  0  0  0  0  0  0  0  0  0
    7.5471   66.6017   85.7184 C   0  0  0  0  0  0  0  0  0  0  0  0
    7.1398   65.5673   84.6851 C   0  0  0  0  0  0  0  0  0  0  0  0
    5.6806   65.2991   85.0251 C   0  0  0  0  0  0  0  0  0  0  0  0
   -1.9473   61.9469   81.3916 S   0  0  0  0  0  0  0  0  0  0  0  0
   -1.7551   60.5143   81.4609 O   0  0  0  0  0  0  0  0  0  0  0  0
   -3.2750   62.5196   81.3137 O   0  0  0  0  0  0  0  0  0  0  0  0
   -1.0475   62.5474   80.0981 N   0  0  0  0  0  0  0  0  0  0  0  0
    0.3890   62.1549   80.0188 C   0  0  0  0  0  0  0  0  0  0  0  0
    0.9929   62.4724   78.6319 C   0  0  0  0  0  0  0  0  0  0  0  0
    0.5228   63.7304   78.0182 N   0  0  0  0  0  0  0  0  0  0  0  0
   -0.9593   63.7084   77.9041 C   0  0  0  0  0  0  0  0  0  0  0  0
   -1.7004   62.6627   78.7728 C   0  0  0  0  0  0  0  0  0  0  0  0
    0.9565   64.9356   78.7605 C   0  0  0  0  0  0  0  0  0  0  0  0
   -0.1767   65.8917   79.1770 C   0  0  0  0  0  0  0  0  0  0  0  0
    0.2932   67.2288   79.3420 O   0  0  0  0  0  0  0  0  0  0  0  0
    0.9403   67.2178   80.0690 H   0  0  0  0  0  0  0  0  0  0  0  0
    0.6988   64.3274   86.1486 O   0  0  0  0  0  0  0  0  0  0  0  0
    0.7655   63.3787   88.3377 C   0  0  0  0  0  0  0  0  0  0  0  0
   -0.0985   64.0947   87.3155 C   0  0  0  0  0  0  0  0  0  0  0  0
 38 39  1  0  0  0
 39 37  1  0  0  0
 37  1  1  0  0  0
  1  2  1  0  0  0
  2  3  2  0  0  0
  3  4  1  0  0  0
  4 24  1  0  0  0
 24 25  2  0  0  0
 24 26  2  0  0  0
 24 27  1  0  0  0
 27 28  1  0  0  0
 28 29  1  0  0  0
 29 30  1  0  0  0
 30 33  1  0  0  0
 33 34  1  0  0  0
 34 35  1  0  0  0
 30 31  1  0  0  0
 31 32  1  0  0  0
  4  5  2  0  0  0
  5  6  1  0  0  0
  6  7  1  0  0  0
  7  8  1  0  0  0
  8  9  2  0  0  0
  9 10  1  0  0  0
  9 11  1  0  0  0
 11 12  1  0  0  0
 12 13  1  0  0  0
 12 14  2  0  0  0
 14 15  1  0  0  0
 15 19  1  0  0  0
 19 20  1  0  0  0
 20 21  1  0  0  0
 21 22  1  0  0  0
 22 23  1  0  0  0
 15 16  2  0  0  0
 16 17  1  0  0  0
  6  1  2  0  0  0
 17  7  2  0  0  0
 32 27  1  0  0  0
 16 11  1  0  0  0
 23 19  1  0  0  0
 35 36  1  0  0  0
 10 18  1  0  0  0
M  END
> <minimizedAffinity>
-10.32722

$$$$



 39 43  0  0  0  0  0  0  0  0999 V2000
   -0.0925   63.2121   85.5848 C   0  0  0  0  0  0  0  0  0  0  0  0
    0.5945   64.0564   86.4680 C   0  0  0  0  0  0  0  0  0  0  0  0
    1.3553   65.1203   85.9799 C   0  0  0  0  0  0  0  0  0  0  0  0
    1.4520   65.3211   84.6014 C   0  0  0  0  0  0  0  0  0  0  0  0
    0.7649   64.4907   83.7120 C   0  0  0  0  0  0  0  0  0  0  0  0
    0.0002   63.4208   84.2007 C   0  0  0  0  0  0  0  0  0  0  0  0
   -0.6676   62.5422   83.1990 C   0  0  0  0  0  0  0  0  0  0  0  0
   -1.6662   61.7056   83.6724 N   0  0  0  0  0  0  0  0  0  0  0  0
   -2.2340   60.9559   82.7954 C   0  0  0  0  0  0  0  0  0  0  0  0
   -3.2088   60.0946   83.1286 O   0  0  0  0  0  0  0  0  0  0  0  0
   -1.9121   60.9644   81.4559 N   0  0  0  0  0  0  0  0  0  0  0  0
   -2.3671   60.2785   80.3537 C   0  0  0  0  0  0  0  0  0  0  0  0
   -3.4334   59.2489   80.3923 C   0  0  0  0  0  0  0  0  0  0  0  0
   -1.7224   60.6693   79.2689 N   0  0  0  0  0  0  0  0  0  0  0  0
   -0.8241   61.6319   79.6847 C   0  0  0  0  0  0  0  0  0  0  0  0
   -0.9290   61.8300   81.0468 C   0  0  0  0  0  0  0  0  0  0  0  0
   -0.3051   62.6342   81.9474 N   0  0  0  0  0  0  0  0  0  0  0  0
   -3.3502   60.1684   84.0877 H   0  0  0  0  0  0  0  0  0  0  0  0
    0.0875   62.3107   78.7149 C   0  0  0  0  0  0  0  0  0  0  0  0
   -0.0514   63.8435   78.7619 C   0  0  0  0  0  0  0  0  0  0  0  0
   -0.1591   64.2912   77.3101 C   0  0  0  0  0  0  0  0  0  0  0  0
   -0.8573   63.1282   76.6292 C   0  0  0  0  0  0  0  0  0  0  0  0
   -0.1883   61.9126   77.2550 C   0  0  0  0  0  0  0  0  0  0  0  0
    2.4078   66.6811   83.9625 S   0  0  0  0  0  0  0  0  0  0  0  0
    2.7062   66.3772   82.5795 O   0  0  0  0  0  0  0  0  0  0  0  0
    1.7210   67.9024   84.3277 O   0  0  0  0  0  0  0  0  0  0  0  0
    3.8400   66.6072   84.8495 N   0  0  0  0  0  0  0  0  0  0  0  0
    4.9117   65.6981   84.3505 C   0  0  0  0  0  0  0  0  0  0  0  0
    6.2682   65.9839   85.0341 C   0  0  0  0  0  0  0  0  0  0  0  0
    6.1855   66.3326   86.4664 N   0  0  0  0  0  0  0  0  0  0  0  0
    5.2992   67.5129   86.6439 C   0  0  0  0  0  0  0  0  0  0  0  0
    4.3615   67.8529   85.4596 C   0  0  0  0  0  0  0  0  0  0  0  0
    5.7127   65.2118   87.3101 C   0  0  0  0  0  0  0  0  0  0  0  0
    5.6693   65.5027   88.8219 C   0  0  0  0  0  0  0  0  0  0  0  0
    6.6191   64.7159   89.5394 O   0  0  0  0  0  0  0  0  0  0  0  0
    6.3676   63.7832   89.4199 H   0  0  0  0  0  0  0  0  0  0  0  0
   -0.7528   62.1176   86.0796 O   0  0  0  0  0  0  0  0  0  0  0  0
   -2.7881   62.8945   87.0546 C   0  0  0  0  0  0  0  0  0  0  0  0
   -1.3822   62.3959   87.3358 C   0  0  0  0  0  0  0  0  0  0  0  0
 38 39  1  0  0  0
 39 37  1  0  0  0
 37  1  1  0  0  0
  1  2  1  0  0  0
  2  3  2  0  0  0
  3  4  1  0  0  0
  4 24  1  0  0  0
 24 25  2  0  0  0
 24 26  2  0  0  0
 24 27  1  0  0  0
 27 28  1  0  0  0
 28 29  1  0  0  0
 29 30  1  0  0  0
 30 33  1  0  0  0
 33 34  1  0  0  0
 34 35  1  0  0  0
 30 31  1  0  0  0
 31 32  1  0  0  0
  4  5  2  0  0  0
  5  6  1  0  0  0
  6  7  1  0  0  0
  7  8  1  0  0  0
  8  9  2  0  0  0
  9 10  1  0  0  0
  9 11  1  0  0  0
 11 12  1  0  0  0
 12 13  1  0  0  0
 12 14  2  0  0  0
 14 15  1  0  0  0
 15 19  1  0  0  0
 19 20  1  0  0  0
 20 21  1  0  0  0
 21 22  1  0  0  0
 22 23  1  0  0  0
 15 16  2  0  0  0
 16 17  1  0  0  0
  6  1  2  0  0  0
 17  7  2  0  0  0
 32 27  1  0  0  0
 16 11  1  0  0  0
 23 19  1  0  0  0
 35 36  1  0  0  0
 10 18  1  0  0  0
M  END
> <minimizedAffinity>
-10.17729

$$$$



 39 43  0  0  0  0  0  0  0  0999 V2000
    3.2792   67.2979   84.0841 C   0  0  0  0  0  0  0  0  0  0  0  0
    4.1024   68.4099   83.8589 C   0  0  0  0  0  0  0  0  0  0  0  0
    3.8896   69.2332   82.7518 C   0  0  0  0  0  0  0  0  0  0  0  0
    2.8678   68.9246   81.8514 C   0  0  0  0  0  0  0  0  0  0  0  0
    2.0359   67.8234   82.0703 C   0  0  0  0  0  0  0  0  0  0  0  0
    2.2485   66.9946   83.1822 C   0  0  0  0  0  0  0  0  0  0  0  0
    1.3591   65.8081   83.3323 C   0  0  0  0  0  0  0  0  0  0  0  0
    1.0227   65.1314   82.1703 N   0  0  0  0  0  0  0  0  0  0  0  0
    0.2567   64.1089   82.3171 C   0  0  0  0  0  0  0  0  0  0  0  0
   -0.1489   63.3752   81.2683 O   0  0  0  0  0  0  0  0  0  0  0  0
   -0.2091   63.6691   83.5367 N   0  0  0  0  0  0  0  0  0  0  0  0
   -1.0136   62.6286   83.9398 C   0  0  0  0  0  0  0  0  0  0  0  0
   -1.6295   61.6436   83.0183 C   0  0  0  0  0  0  0  0  0  0  0  0
   -1.1533   62.6358   85.2534 N   0  0  0  0  0  0  0  0  0  0  0  0
   -0.4207   63.7137   85.7092 C   0  0  0  0  0  0  0  0  0  0  0  0
    0.1765   64.3699   84.6517 C   0  0  0  0  0  0  0  0  0  0  0  0
    0.9824   65.4579   84.5331 N   0  0  0  0  0  0  0  0  0  0  0  0
    0.2314   63.7735   80.4670 H   0  0  0  0  0  0  0  0  0  0  0  0
   -0.3431   64.0370   87.1659 C   0  0  0  0  0  0  0  0  0  0  0  0
    1.0137   63.6418   87.7774 C   0  0  0  0  0  0  0  0  0  0  0  0
    0.6833   62.9017   89.0670 C   0  0  0  0  0  0  0  0  0  0  0  0
   -0.6415   62.2270   88.7616 C   0  0  0  0  0  0  0  0  0  0  0  0
   -1.4055   63.3005   87.9996 C   0  0  0  0  0  0  0  0  0  0  0  0
    2.5747   69.9716   80.4410 S   0  0  0  0  0  0  0  0  0  0  0  0
    3.8250   70.6338   80.1371 O   0  0  0  0  0  0  0  0  0  0  0  0
    1.8901   69.1744   79.4447 O   0  0  0  0  0  0  0  0  0  0  0  0
    1.4860   71.1205   81.0225 N   0  0  0  0  0  0  0  0  0  0  0  0
    0.0362   70.8877   80.7621 C   0  0  0  0  0  0  0  0  0  0  0  0
   -0.8552   71.8033   81.6317 C   0  0  0  0  0  0  0  0  0  0  0  0
   -0.3382   73.1717   81.8325 N   0  0  0  0  0  0  0  0  0  0  0  0
    1.0199   73.1104   82.4340 C   0  0  0  0  0  0  0  0  0  0  0  0
    1.7545   71.7509   82.3365 C   0  0  0  0  0  0  0  0  0  0  0  0
   -0.3051   73.9683   80.5851 C   0  0  0  0  0  0  0  0  0  0  0  0
    0.9906   74.7678   80.3526 C   0  0  0  0  0  0  0  0  0  0  0  0
    1.9074   74.0588   79.5203 O   0  0  0  0  0  0  0  0  0  0  0  0
    2.1542   73.2450   79.9936 H   0  0  0  0  0  0  0  0  0  0  0  0
    3.5666   66.4492   85.1215 O   0  0  0  0  0  0  0  0  0  0  0  0
    5.1928   65.1367   86.2745 C   0  0  0  0  0  0  0  0  0  0  0  0
    4.8542   65.8399   84.9725 C   0  0  0  0  0  0  0  0  0  0  0  0
 38 39  1  0  0  0
 39 37  1  0  0  0
 37  1  1  0  0  0
  1  2  1  0  0  0
  2  3  2  0  0  0
  3  4  1  0  0  0
  4 24  1  0  0  0
 24 25  2  0  0  0
 24 26  2  0  0  0
 24 27  1  0  0  0
 27 28  1  0  0  0
 28 29  1  0  0  0
 29 30  1  0  0  0
 30 33  1  0  0  0
 33 34  1  0  0  0
 34 35  1  0  0  0
 30 31  1  0  0  0
 31 32  1  0  0  0
  4  5  2  0  0  0
  5  6  1  0  0  0
  6  7  1  0  0  0
  7  8  1  0  0  0
  8  9  2  0  0  0
  9 10  1  0  0  0
  9 11  1  0  0  0
 11 12  1  0  0  0
 12 13  1  0  0  0
 12 14  2  0  0  0
 14 15  1  0  0  0
 15 19  1  0  0  0
 19 20  1  0  0  0
 20 21  1  0  0  0
 21 22  1  0  0  0
 22 23  1  0  0  0
 15 16  2  0  0  0
 16 17  1  0  0  0
  6  1  2  0  0  0
 17  7  2  0  0  0
 32 27  1  0  0  0
 16 11  1  0  0  0
 23 19  1  0  0  0
 35 36  1  0  0  0
 10 18  1  0  0  0
M  END
> <minimizedAffinity>
-9.89917

$$$$



 39 43  0  0  0  0  0  0  0  0999 V2000
    3.1171   67.0849   84.2631 C   0  0  0  0  0  0  0  0  0  0  0  0
    3.7747   68.1505   83.6329 C   0  0  0  0  0  0  0  0  0  0  0  0
    3.1916   68.7923   82.5389 C   0  0  0  0  0  0  0  0  0  0  0  0
    1.9596   68.3459   82.0561 C   0  0  0  0  0  0  0  0  0  0  0  0
    1.2913   67.2900   82.6813 C   0  0  0  0  0  0  0  0  0  0  0  0
    1.8760   66.6436   83.7808 C   0  0  0  0  0  0  0  0  0  0  0  0
    1.1361   65.4927   84.3718 C   0  0  0  0  0  0  0  0  0  0  0  0
    1.1395   65.3944   85.7544 N   0  0  0  0  0  0  0  0  0  0  0  0
    0.4949   64.3975   86.2486 C   0  0  0  0  0  0  0  0  0  0  0  0
    0.4310   64.1856   87.5730 O   0  0  0  0  0  0  0  0  0  0  0  0
   -0.1847   63.4713   85.4881 N   0  0  0  0  0  0  0  0  0  0  0  0
   -0.9307   62.3521   85.7767 C   0  0  0  0  0  0  0  0  0  0  0  0
   -1.1806   61.8457   87.1477 C   0  0  0  0  0  0  0  0  0  0  0  0
   -1.3870   61.8029   84.6653 N   0  0  0  0  0  0  0  0  0  0  0  0
   -0.9187   62.5888   83.6311 C   0  0  0  0  0  0  0  0  0  0  0  0
   -0.1671   63.6355   84.1259 C   0  0  0  0  0  0  0  0  0  0  0  0
    0.5074   64.6759   83.5692 N   0  0  0  0  0  0  0  0  0  0  0  0
    0.9430   64.8887   88.0076 H   0  0  0  0  0  0  0  0  0  0  0  0
   -1.2424   62.2691   82.2079 C   0  0  0  0  0  0  0  0  0  0  0  0
   -2.4145   63.1135   81.6747 C   0  0  0  0  0  0  0  0  0  0  0  0
   -3.3428   62.1310   80.9726 C   0  0  0  0  0  0  0  0  0  0  0  0
   -3.1610   60.8451   81.7581 C   0  0  0  0  0  0  0  0  0  0  0  0
   -1.6595   60.8027   82.0039 C   0  0  0  0  0  0  0  0  0  0  0  0
    1.1959   69.1615   80.6694 S   0  0  0  0  0  0  0  0  0  0  0  0
    2.0454   68.9306   79.5209 O   0  0  0  0  0  0  0  0  0  0  0  0
   -0.2000   68.7766   80.6556 O   0  0  0  0  0  0  0  0  0  0  0  0
    1.2786   70.7952   81.0786 N   0  0  0  0  0  0  0  0  0  0  0  0
    2.4404   71.5752   80.5629 C   0  0  0  0  0  0  0  0  0  0  0  0
    2.2165   73.0977   80.7076 C   0  0  0  0  0  0  0  0  0  0  0  0
    1.5212   73.5131   81.9421 N   0  0  0  0  0  0  0  0  0  0  0  0
    0.2077   72.8227   82.0334 C   0  0  0  0  0  0  0  0  0  0  0  0
    0.0213   71.5776   81.1321 C   0  0  0  0  0  0  0  0  0  0  0  0
    2.3132   73.2603   83.1671 C   0  0  0  0  0  0  0  0  0  0  0  0
    3.5042   74.2121   83.3853 C   0  0  0  0  0  0  0  0  0  0  0  0
    3.4241   74.8796   84.6439 O   0  0  0  0  0  0  0  0  0  0  0  0
    2.6195   75.4268   84.6277 H   0  0  0  0  0  0  0  0  0  0  0  0
    3.7510   66.4076   85.2722 O   0  0  0  0  0  0  0  0  0  0  0  0
    5.6019   65.0830   85.9906 C   0  0  0  0  0  0  0  0  0  0  0  0
    5.0532   65.9591   84.8790 C   0  0  0  0  0  0  0  0  0  0  0  0
 38 39  1  0  0  0
 39 37  1  0  0  0
 37  1  1  0  0  0
  1  2  1  0  0  0
  2  3  2  0  0  0
  3  4  1  0  0  0
  4 24  1  0  0  0
 24 25  2  0  0  0
 24 26  2  0  0  0
 24 27  1  0  0  0
 27 28  1  0  0  0
 28 29  1  0  0  0
 29 30  1  0  0  0
 30 33  1  0  0  0
 33 34  1  0  0  0
 34 35  1  0  0  0
 30 31  1  0  0  0
 31 32  1  0  0  0
  4  5  2  0  0  0
  5  6  1  0  0  0
  6  7  1  0  0  0
  7  8  1  0  0  0
  8  9  2  0  0  0
  9 10  1  0  0  0
  9 11  1  0  0  0
 11 12  1  0  0  0
 12 13  1  0  0  0
 12 14  2  0  0  0
 14 15  1  0  0  0
 15 19  1  0  0  0
 19 20  1  0  0  0
 20 21  1  0  0  0
 21 22  1  0  0  0
 22 23  1  0  0  0
 15 16  2  0  0  0
 16 17  1  0  0  0
  6  1  2  0  0  0
 17  7  2  0  0  0
 32 27  1  0  0  0
 16 11  1  0  0  0
 23 19  1  0  0  0
 35 36  1  0  0  0
 10 18  1  0  0  0
M  END
> <minimizedAffinity>
-9.78401

$$$$



 39 43  0  0  0  0  0  0  0  0999 V2000
    3.4272   65.9698   85.2827 C   0  0  0  0  0  0  0  0  0  0  0  0
    4.3616   66.8839   84.7767 C   0  0  0  0  0  0  0  0  0  0  0  0
    4.0039   67.7679   83.7571 C   0  0  0  0  0  0  0  0  0  0  0  0
    2.7149   67.7158   83.2224 C   0  0  0  0  0  0  0  0  0  0  0  0
    1.7728   66.8142   83.7246 C   0  0  0  0  0  0  0  0  0  0  0  0
    2.1306   65.9248   84.7490 C   0  0  0  0  0  0  0  0  0  0  0  0
    1.0958   64.9546   85.2064 C   0  0  0  0  0  0  0  0  0  0  0  0
    0.8511   64.9022   86.5697 N   0  0  0  0  0  0  0  0  0  0  0  0
   -0.0460   64.0620   86.9478 C   0  0  0  0  0  0  0  0  0  0  0  0
   -0.3681   63.9090   88.2423 O   0  0  0  0  0  0  0  0  0  0  0  0
   -0.7552   63.2572   86.0834 N   0  0  0  0  0  0  0  0  0  0  0  0
   -1.7397   62.3096   86.2416 C   0  0  0  0  0  0  0  0  0  0  0  0
   -2.3061   61.9043   87.5507 C   0  0  0  0  0  0  0  0  0  0  0  0
   -2.1024   61.8211   85.0690 N   0  0  0  0  0  0  0  0  0  0  0  0
   -1.3271   62.4702   84.1289 C   0  0  0  0  0  0  0  0  0  0  0  0
   -0.4809   63.3711   84.7436 C   0  0  0  0  0  0  0  0  0  0  0  0
    0.4638   64.2462   84.3091 N   0  0  0  0  0  0  0  0  0  0  0  0
    0.1902   64.5159   88.7573 H   0  0  0  0  0  0  0  0  0  0  0  0
   -1.4656   62.1718   82.6714 C   0  0  0  0  0  0  0  0  0  0  0  0
   -2.5900   62.9935   82.0143 C   0  0  0  0  0  0  0  0  0  0  0  0
   -3.3954   62.0001   81.1871 C   0  0  0  0  0  0  0  0  0  0  0  0
   -3.2705   60.7034   81.9660 C   0  0  0  0  0  0  0  0  0  0  0  0
   -1.8092   60.6988   82.3922 C   0  0  0  0  0  0  0  0  0  0  0  0
    2.2384   68.8448   81.9303 S   0  0  0  0  0  0  0  0  0  0  0  0
    1.3026   69.7835   82.5110 O   0  0  0  0  0  0  0  0  0  0  0  0
    3.4516   69.3016   81.2852 O   0  0  0  0  0  0  0  0  0  0  0  0
    1.4079   67.8653   80.8375 N   0  0  0  0  0  0  0  0  0  0  0  0
   -0.0743   68.0152   80.7685 C   0  0  0  0  0  0  0  0  0  0  0  0
   -0.6600   67.3344   79.5106 C   0  0  0  0  0  0  0  0  0  0  0  0
   -0.0152   66.0616   79.1308 N   0  0  0  0  0  0  0  0  0  0  0  0
    1.4410   66.2798   78.9259 C   0  0  0  0  0  0  0  0  0  0  0  0
    2.0325   67.5795   79.5245 C   0  0  0  0  0  0  0  0  0  0  0  0
   -0.2319   64.9831   80.1215 C   0  0  0  0  0  0  0  0  0  0  0  0
    0.1976   63.5767   79.6635 C   0  0  0  0  0  0  0  0  0  0  0  0
   -0.8225   62.9347   78.8996 O   0  0  0  0  0  0  0  0  0  0  0  0
   -1.5918   62.8227   79.4852 H   0  0  0  0  0  0  0  0  0  0  0  0
    3.8274   65.0472   86.2141 O   0  0  0  0  0  0  0  0  0  0  0  0
    5.4375   65.3616   87.9476 C   0  0  0  0  0  0  0  0  0  0  0  0
    5.2362   65.1158   86.4633 C   0  0  0  0  0  0  0  0  0  0  0  0
 38 39  1  0  0  0
 39 37  1  0  0  0
 37  1  1  0  0  0
  1  2  1  0  0  0
  2  3  2  0  0  0
  3  4  1  0  0  0
  4 24  1  0  0  0
 24 25  2  0  0  0
 24 26  2  0  0  0
 24 27  1  0  0  0
 27 28  1  0  0  0
 28 29  1  0  0  0
 29 30  1  0  0  0
 30 33  1  0  0  0
 33 34  1  0  0  0
 34 35  1  0  0  0
 30 31  1  0  0  0
 31 32  1  0  0  0
  4  5  2  0  0  0
  5  6  1  0  0  0
  6  7  1  0  0  0
  7  8  1  0  0  0
  8  9  2  0  0  0
  9 10  1  0  0  0
  9 11  1  0  0  0
 11 12  1  0  0  0
 12 13  1  0  0  0
 12 14  2  0  0  0
 14 15  1  0  0  0
 15 19  1  0  0  0
 19 20  1  0  0  0
 20 21  1  0  0  0
 21 22  1  0  0  0
 22 23  1  0  0  0
 15 16  2  0  0  0
 16 17  1  0  0  0
  6  1  2  0  0  0
 17  7  2  0  0  0
 32 27  1  0  0  0
 16 11  1  0  0  0
 23 19  1  0  0  0
 35 36  1  0  0  0
 10 18  1  0  0  0
M  END
> <minimizedAffinity>
-9.67542

$$$$



 39 43  0  0  0  0  0  0  0  0999 V2000
    3.2226   66.8446   84.2376 C   0  0  0  0  0  0  0  0  0  0  0  0
    3.9313   67.8781   83.6095 C   0  0  0  0  0  0  0  0  0  0  0  0
    3.3465   68.6062   82.5719 C   0  0  0  0  0  0  0  0  0  0  0  0
    2.0589   68.2783   82.1422 C   0  0  0  0  0  0  0  0  0  0  0  0
    1.3401   67.2554   82.7663 C   0  0  0  0  0  0  0  0  0  0  0  0
    1.9263   66.5224   83.8091 C   0  0  0  0  0  0  0  0  0  0  0  0
    1.1268   65.4118   84.3997 C   0  0  0  0  0  0  0  0  0  0  0  0
    1.0764   65.3487   85.7834 N   0  0  0  0  0  0  0  0  0  0  0  0
    0.3808   64.3864   86.2771 C   0  0  0  0  0  0  0  0  0  0  0  0
    0.2614   64.2104   87.6029 O   0  0  0  0  0  0  0  0  0  0  0  0
   -0.3016   63.4641   85.5144 N   0  0  0  0  0  0  0  0  0  0  0  0
   -1.0951   62.3778   85.8018 C   0  0  0  0  0  0  0  0  0  0  0  0
   -1.4120   61.9149   87.1744 C   0  0  0  0  0  0  0  0  0  0  0  0
   -1.5290   61.8159   84.6877 N   0  0  0  0  0  0  0  0  0  0  0  0
   -0.9969   62.5595   83.6531 C   0  0  0  0  0  0  0  0  0  0  0  0
   -0.2288   63.5931   84.1502 C   0  0  0  0  0  0  0  0  0  0  0  0
    0.5005   64.5961   83.5941 N   0  0  0  0  0  0  0  0  0  0  0  0
    0.7807   64.9069   88.0393 H   0  0  0  0  0  0  0  0  0  0  0  0
   -1.2791   62.2146   82.2269 C   0  0  0  0  0  0  0  0  0  0  0  0
   -2.4127   63.0723   81.6350 C   0  0  0  0  0  0  0  0  0  0  0  0
   -3.3388   62.0948   80.9230 C   0  0  0  0  0  0  0  0  0  0  0  0
   -3.2133   60.8234   81.7425 C   0  0  0  0  0  0  0  0  0  0  0  0
   -1.7223   60.7535   82.0410 C   0  0  0  0  0  0  0  0  0  0  0  0
    1.2934   69.2052   80.8284 S   0  0  0  0  0  0  0  0  0  0  0  0
    2.0354   68.9194   79.6193 O   0  0  0  0  0  0  0  0  0  0  0  0
   -0.1328   68.9661   80.9038 O   0  0  0  0  0  0  0  0  0  0  0  0
    1.5732   70.8101   81.2634 N   0  0  0  0  0  0  0  0  0  0  0  0
    1.4856   71.1553   82.7116 C   0  0  0  0  0  0  0  0  0  0  0  0
    2.0970   72.5439   83.0065 C   0  0  0  0  0  0  0  0  0  0  0  0
    1.8481   73.5690   81.9734 N   0  0  0  0  0  0  0  0  0  0  0  0
    2.3540   73.0895   80.6603 C   0  0  0  0  0  0  0  0  0  0  0  0
    2.6201   71.5690   80.5395 C   0  0  0  0  0  0  0  0  0  0  0  0
    0.4206   73.9444   81.8606 C   0  0  0  0  0  0  0  0  0  0  0  0
   -0.2076   73.7219   80.4721 C   0  0  0  0  0  0  0  0  0  0  0  0
   -0.9554   72.5079   80.4182 O   0  0  0  0  0  0  0  0  0  0  0  0
   -0.3292   71.7783   80.5694 H   0  0  0  0  0  0  0  0  0  0  0  0
    3.8506   66.0803   85.1865 O   0  0  0  0  0  0  0  0  0  0  0  0
    6.1319   65.4001   85.3587 C   0  0  0  0  0  0  0  0  0  0  0  0
    5.1664   66.5653   85.4782 C   0  0  0  0  0  0  0  0  0  0  0  0
 38 39  1  0  0  0
 39 37  1  0  0  0
 37  1  1  0  0  0
  1  2  1  0  0  0
  2  3  2  0  0  0
  3  4  1  0  0  0
  4 24  1  0  0  0
 24 25  2  0  0  0
 24 26  2  0  0  0
 24 27  1  0  0  0
 27 28  1  0  0  0
 28 29  1  0  0  0
 29 30  1  0  0  0
 30 33  1  0  0  0
 33 34  1  0  0  0
 34 35  1  0  0  0
 30 31  1  0  0  0
 31 32  1  0  0  0
  4  5  2  0  0  0
  5  6  1  0  0  0
  6  7  1  0  0  0
  7  8  1  0  0  0
  8  9  2  0  0  0
  9 10  1  0  0  0
  9 11  1  0  0  0
 11 12  1  0  0  0
 12 13  1  0  0  0
 12 14  2  0  0  0
 14 15  1  0  0  0
 15 19  1  0  0  0
 19 20  1  0  0  0
 20 21  1  0  0  0
 21 22  1  0  0  0
 22 23  1  0  0  0
 15 16  2  0  0  0
 16 17  1  0  0  0
  6  1  2  0  0  0
 17  7  2  0  0  0
 32 27  1  0  0  0
 16 11  1  0  0  0
 23 19  1  0  0  0
 35 36  1  0  0  0
 10 18  1  0  0  0
M  END
> <minimizedAffinity>
-9.63845

$$$$
