
     RDKit          3D

 64 67  0  0  0  0  0  0  0  0999 V2000
   -7.2263    2.6480    0.3560 C   0  0  0  0  0  0  0  0  0  0  0  0
   -7.4303    1.2415    0.0054 N   0  0  0  0  0  0  0  0  0  0  0  0
   -8.8171    0.8577    0.2835 C   0  0  0  0  0  0  0  0  0  0  0  0
   -6.5054    0.3491    0.7330 C   0  0  0  0  0  0  0  0  0  0  0  0
   -5.0209    0.4884    0.3240 C   0  0  0  0  0  0  0  0  0  0  0  0
   -4.2100   -0.4828    1.0703 N   0  0  0  0  0  0  0  0  0  0  0  0
   -2.8351   -0.4938    0.7319 C   0  0  0  0  0  0  0  0  0  0  0  0
   -2.3955    0.3368   -0.2293 N   0  0  0  0  0  0  0  0  0  0  0  0
   -1.0932    0.3182   -0.5382 C   0  0  0  0  0  0  0  0  0  0  0  0
   -0.7092    1.2191   -1.5289 N   0  0  0  0  0  0  0  0  0  0  0  0
    0.4883    1.4307   -2.2198 C   0  0  0  0  0  0  0  0  0  0  0  0
    0.6240    2.6013   -2.9869 C   0  0  0  0  0  0  0  0  0  0  0  0
    1.8179    2.9123   -3.6478 C   0  0  0  0  0  0  0  0  0  0  0  0
    2.9108    2.0585   -3.5449 C   0  0  0  0  0  0  0  0  0  0  0  0
    2.7896    0.8948   -2.7864 C   0  0  0  0  0  0  0  0  0  0  0  0
    4.1810   -0.1899   -2.6127 S   0  0  0  0  0  0  0  0  0  0  0  0
    3.8838   -1.3918   -3.3611 O   0  0  0  0  0  0  0  0  0  0  0  0
    5.3869    0.5738   -2.8639 O   0  0  0  0  0  0  0  0  0  0  0  0
    4.1839   -0.5798   -0.9551 N   0  0  0  0  0  0  0  0  0  0  0  0
    4.4314    0.5590   -0.0121 C   0  0  0  0  0  0  0  0  0  0  0  0
    5.8382    0.4841    0.6068 C   0  0  0  0  0  0  0  0  0  0  0  0
    6.0494   -0.7346    1.4183 N   0  0  0  0  0  0  0  0  0  0  0  0
    7.4767   -1.0198    1.5462 C   0  0  0  0  0  0  0  0  0  0  0  0
    5.3046   -1.8863    0.8679 C   0  0  0  0  0  0  0  0  0  0  0  0
    5.0000   -1.7936   -0.6381 C   0  0  0  0  0  0  0  0  0  0  0  0
    1.5941    0.5823   -2.1275 C   0  0  0  0  0  0  0  0  0  0  0  0
   -0.2002   -0.4658    0.0732 N   0  0  0  0  0  0  0  0  0  0  0  0
   -0.6336   -1.3054    1.0141 C   0  0  0  0  0  0  0  0  0  0  0  0
    0.2883   -2.1389    1.6368 C   0  0  0  0  0  0  0  0  0  0  0  0
   -0.0904   -3.0538    2.6228 C   0  0  0  0  0  0  0  0  0  0  0  0
   -1.4233   -3.1476    2.9983 C   0  0  0  0  0  0  0  0  0  0  0  0
   -2.3635   -2.3189    2.3897 C   0  0  0  0  0  0  0  0  0  0  0  0
   -1.9742   -1.3820    1.3972 C   0  0  0  0  0  0  0  0  0  0  0  0
   -7.3399    2.8267    1.4313 H   0  0  0  0  0  0  0  0  0  0  0  0
   -6.2348    2.9936    0.0480 H   0  0  0  0  0  0  0  0  0  0  0  0
   -7.9446    3.2843   -0.1740 H   0  0  0  0  0  0  0  0  0  0  0  0
   -9.0021   -0.1757   -0.0303 H   0  0  0  0  0  0  0  0  0  0  0  0
   -9.5124    1.4843   -0.2864 H   0  0  0  0  0  0  0  0  0  0  0  0
   -9.0647    0.9461    1.3476 H   0  0  0  0  0  0  0  0  0  0  0  0
   -6.7930   -0.6934    0.5383 H   0  0  0  0  0  0  0  0  0  0  0  0
   -6.6034    0.4963    1.8174 H   0  0  0  0  0  0  0  0  0  0  0  0
   -4.9367    0.3072   -0.7549 H   0  0  0  0  0  0  0  0  0  0  0  0
   -4.6648    1.5017    0.5415 H   0  0  0  0  0  0  0  0  0  0  0  0
   -4.2843   -0.3374    2.0739 H   0  0  0  0  0  0  0  0  0  0  0  0
   -1.5215    1.7281   -1.8453 H   0  0  0  0  0  0  0  0  0  0  0  0
   -0.2089    3.2967   -3.0684 H   0  0  0  0  0  0  0  0  0  0  0  0
    1.8920    3.8250   -4.2340 H   0  0  0  0  0  0  0  0  0  0  0  0
    3.8417    2.3005   -4.0522 H   0  0  0  0  0  0  0  0  0  0  0  0
    3.6640    0.5200    0.7708 H   0  0  0  0  0  0  0  0  0  0  0  0
    4.3097    1.5242   -0.5144 H   0  0  0  0  0  0  0  0  0  0  0  0
    6.5740    0.5403   -0.2067 H   0  0  0  0  0  0  0  0  0  0  0  0
    5.9958    1.3599    1.2468 H   0  0  0  0  0  0  0  0  0  0  0  0
    8.0040   -0.1601    1.9747 H   0  0  0  0  0  0  0  0  0  0  0  0
    7.6397   -1.8600    2.2302 H   0  0  0  0  0  0  0  0  0  0  0  0
    7.9382   -1.2648    0.5829 H   0  0  0  0  0  0  0  0  0  0  0  0
    4.3501   -1.9394    1.4082 H   0  0  0  0  0  0  0  0  0  0  0  0
    5.8180   -2.8314    1.0841 H   0  0  0  0  0  0  0  0  0  0  0  0
    5.9409   -1.7792   -1.2011 H   0  0  0  0  0  0  0  0  0  0  0  0
    4.4304   -2.6794   -0.9403 H   0  0  0  0  0  0  0  0  0  0  0  0
    1.5413   -0.3384   -1.5534 H   0  0  0  0  0  0  0  0  0  0  0  0
    1.3339   -2.0769    1.3411 H   0  0  0  0  0  0  0  0  0  0  0  0
    0.6569   -3.6931    3.0856 H   0  0  0  0  0  0  0  0  0  0  0  0
   -1.7318   -3.8644    3.7548 H   0  0  0  0  0  0  0  0  0  0  0  0
   -3.4085   -2.4124    2.6755 H   0  0  0  0  0  0  0  0  0  0  0  0
  1  2  1  0
  2  3  1  0
  2  4  1  0
  4  5  1  0
  5  6  1  0
  6  7  1  0
  7  8  1  0
  8  9  2  0
  9 10  1  0
 10 11  1  0
 11 12  1  0
 12 13  2  0
 13 14  1  0
 14 15  2  0
 15 16  1  0
 16 17  2  0
 16 18  2  0
 16 19  1  0
 19 20  1  0
 20 21  1  0
 21 22  1  0
 22 23  1  0
 22 24  1  0
 24 25  1  0
 15 26  1  0
  9 27  1  0
 27 28  2  0
 28 29  1  0
 29 30  2  0
 30 31  1  0
 31 32  2  0
 32 33  1  0
 33  7  2  0
 26 11  2  0
 33 28  1  0
 25 19  1  0
  1 34  1  0
  1 35  1  0
  1 36  1  0
  3 37  1  0
  3 38  1  0
  3 39  1  0
  4 40  1  0
  4 41  1  0
  5 42  1  0
  5 43  1  0
  6 44  1  0
 10 45  1  0
 12 46  1  0
 13 47  1  0
 14 48  1  0
 20 49  1  0
 20 50  1  0
 21 51  1  0
 21 52  1  0
 23 53  1  0
 23 54  1  0
 23 55  1  0
 24 56  1  0
 24 57  1  0
 25 58  1  0
 25 59  1  0
 26 60  1  0
 29 61  1  0
 30 62  1  0
 31 63  1  0
 32 64  1  0
M  END
$$$$
