


 21 23  0  0  0  0  0  0  0  0999 V2000
   -1.4428   62.5745   84.2269 C   0  0  0  0  0  0  0  0  0  0  0  0
   -1.6648   61.7679   85.2825 N   0  0  0  0  0  0  0  0  0  0  0  0
   -0.8633   62.2696   86.2547 N   0  0  0  0  0  0  0  0  0  0  0  0
   -0.8329   61.6457   87.5555 C   0  0  0  0  0  0  0  0  0  0  0  0
   -0.1514   63.3552   85.8511 C   0  0  0  0  0  0  0  0  0  0  0  0
    0.7891   64.1659   86.5308 C   0  0  0  0  0  0  0  0  0  0  0  0
    1.1702   64.0144   87.6855 O   0  0  0  0  0  0  0  0  0  0  0  0
    1.2585   65.1799   85.7256 N   0  0  0  0  0  0  0  0  0  0  0  0
    0.8684   65.3577   84.4002 C   0  0  0  0  0  0  0  0  0  0  0  0
    0.0163   64.5979   83.7697 N   0  0  0  0  0  0  0  0  0  0  0  0
   -0.5066   63.5685   84.5534 C   0  0  0  0  0  0  0  0  0  0  0  0
    1.9720   65.7556   86.1444 H   0  0  0  0  0  0  0  0  0  0  0  0
    1.5104   66.4970   83.6867 C   0  0  0  0  0  0  0  0  0  0  0  0
    2.3174   67.4243   84.3590 C   0  0  0  0  0  0  0  0  0  0  0  0
    2.9049   68.4778   83.6541 C   0  0  0  0  0  0  0  0  0  0  0  0
    2.6841   68.6125   82.2835 C   0  0  0  0  0  0  0  0  0  0  0  0
    1.8689   67.7011   81.6139 C   0  0  0  0  0  0  0  0  0  0  0  0
    1.2787   66.6475   82.3136 C   0  0  0  0  0  0  0  0  0  0  0  0
   -2.1447   62.3529   82.9323 C   0  0  0  0  0  0  0  0  0  0  0  0
   -2.9375   60.0382   82.3258 C   0  0  0  0  0  0  0  0  0  0  0  0
   -1.7714   61.0131   82.2966 C   0  0  0  0  0  0  0  0  0  0  0  0
 20 21  1  0  0  0
 21 19  1  0  0  0
 19  1  1  0  0  0
  1  2  2  0  0  0
  2  3  1  0  0  0
  3  4  1  0  0  0
  3  5  1  0  0  0
  5  6  1  0  0  0
  6  7  2  0  0  0
  6  8  1  0  0  0
  8  9  1  0  0  0
  9 13  1  0  0  0
 13 14  2  0  0  0
 14 15  1  0  0  0
 15 16  2  0  0  0
 16 17  1  0  0  0
 17 18  2  0  0  0
  9 10  2  0  0  0
 10 11  1  0  0  0
 11  1  1  0  0  0
 11  5  2  0  0  0
 18 13  1  0  0  0
  8 12  1  0  0  0
M  END
> <minimizedAffinity>
-8.71502

$$$$



 21 23  0  0  0  0  0  0  0  0999 V2000
   -1.2741   62.5523   83.9188 C   0  0  0  0  0  0  0  0  0  0  0  0
   -1.5838   61.7555   84.9597 N   0  0  0  0  0  0  0  0  0  0  0  0
   -0.9313   62.3154   86.0086 N   0  0  0  0  0  0  0  0  0  0  0  0
   -1.0294   61.7185   87.3187 C   0  0  0  0  0  0  0  0  0  0  0  0
   -0.2284   63.4278   85.6668 C   0  0  0  0  0  0  0  0  0  0  0  0
    0.5827   64.2977   86.4345 C   0  0  0  0  0  0  0  0  0  0  0  0
    0.8274   64.1874   87.6301 O   0  0  0  0  0  0  0  0  0  0  0  0
    1.0974   65.3186   85.6668 N   0  0  0  0  0  0  0  0  0  0  0  0
    0.8631   65.4514   84.3000 C   0  0  0  0  0  0  0  0  0  0  0  0
    0.1313   64.6378   83.5906 N   0  0  0  0  0  0  0  0  0  0  0  0
   -0.4331   63.5983   84.3309 C   0  0  0  0  0  0  0  0  0  0  0  0
    1.7263   65.9375   86.1539 H   0  0  0  0  0  0  0  0  0  0  0  0
    1.5318   66.6080   83.6409 C   0  0  0  0  0  0  0  0  0  0  0  0
    1.3143   66.9107   82.2903 C   0  0  0  0  0  0  0  0  0  0  0  0
    1.9577   68.0062   81.7087 C   0  0  0  0  0  0  0  0  0  0  0  0
    2.8216   68.7951   82.4682 C   0  0  0  0  0  0  0  0  0  0  0  0
    3.0529   68.4877   83.8081 C   0  0  0  0  0  0  0  0  0  0  0  0
    2.4137   67.3937   84.3936 C   0  0  0  0  0  0  0  0  0  0  0  0
   -1.8020   62.2712   82.5551 C   0  0  0  0  0  0  0  0  0  0  0  0
    0.3153   61.2845   81.6075 C   0  0  0  0  0  0  0  0  0  0  0  0
   -1.1502   61.0381   81.9279 C   0  0  0  0  0  0  0  0  0  0  0  0
 20 21  1  0  0  0
 21 19  1  0  0  0
 19  1  1  0  0  0
  1  2  2  0  0  0
  2  3  1  0  0  0
  3  4  1  0  0  0
  3  5  1  0  0  0
  5  6  1  0  0  0
  6  7  2  0  0  0
  6  8  1  0  0  0
  8  9  1  0  0  0
  9 13  1  0  0  0
 13 14  2  0  0  0
 14 15  1  0  0  0
 15 16  2  0  0  0
 16 17  1  0  0  0
 17 18  2  0  0  0
  9 10  2  0  0  0
 10 11  1  0  0  0
 11  1  1  0  0  0
 11  5  2  0  0  0
 18 13  1  0  0  0
  8 12  1  0  0  0
M  END
> <minimizedAffinity>
-8.63661

$$$$



 21 23  0  0  0  0  0  0  0  0999 V2000
   -0.8097   62.6126   80.1190 C   0  0  0  0  0  0  0  0  0  0  0  0
   -1.1805   61.7628   79.1419 N   0  0  0  0  0  0  0  0  0  0  0  0
   -1.8744   60.7958   79.7921 N   0  0  0  0  0  0  0  0  0  0  0  0
   -2.4344   59.6908   79.0522 C   0  0  0  0  0  0  0  0  0  0  0  0
   -1.9531   61.0063   81.1330 C   0  0  0  0  0  0  0  0  0  0  0  0
   -2.5653   60.2566   82.1659 C   0  0  0  0  0  0  0  0  0  0  0  0
   -3.1654   59.1971   82.0291 O   0  0  0  0  0  0  0  0  0  0  0  0
   -2.4036   60.8602   83.3932 N   0  0  0  0  0  0  0  0  0  0  0  0
   -1.6993   62.0469   83.5840 C   0  0  0  0  0  0  0  0  0  0  0  0
   -1.1193   62.7260   82.6337 N   0  0  0  0  0  0  0  0  0  0  0  0
   -1.2765   62.1655   81.3654 C   0  0  0  0  0  0  0  0  0  0  0  0
   -2.7753   60.3396   84.1721 H   0  0  0  0  0  0  0  0  0  0  0  0
   -1.6124   62.5255   84.9921 C   0  0  0  0  0  0  0  0  0  0  0  0
   -0.4334   63.0785   85.5089 C   0  0  0  0  0  0  0  0  0  0  0  0
   -0.3923   63.5191   86.8342 C   0  0  0  0  0  0  0  0  0  0  0  0
   -1.5205   63.4032   87.6460 C   0  0  0  0  0  0  0  0  0  0  0  0
   -2.6906   62.8388   87.1402 C   0  0  0  0  0  0  0  0  0  0  0  0
   -2.7367   62.3960   85.8173 C   0  0  0  0  0  0  0  0  0  0  0  0
   -0.0104   63.8310   79.8123 C   0  0  0  0  0  0  0  0  0  0  0  0
   -0.2426   64.7642   77.4821 C   0  0  0  0  0  0  0  0  0  0  0  0
    0.5344   63.8181   78.3834 C   0  0  0  0  0  0  0  0  0  0  0  0
 20 21  1  0  0  0
 21 19  1  0  0  0
 19  1  1  0  0  0
  1  2  2  0  0  0
  2  3  1  0  0  0
  3  4  1  0  0  0
  3  5  1  0  0  0
  5  6  1  0  0  0
  6  7  2  0  0  0
  6  8  1  0  0  0
  8  9  1  0  0  0
  9 13  1  0  0  0
 13 14  2  0  0  0
 14 15  1  0  0  0
 15 16  2  0  0  0
 16 17  1  0  0  0
 17 18  2  0  0  0
  9 10  2  0  0  0
 10 11  1  0  0  0
 11  1  1  0  0  0
 11  5  2  0  0  0
 18 13  1  0  0  0
  8 12  1  0  0  0
M  END
> <minimizedAffinity>
-8.40961

$$$$



 21 23  0  0  0  0  0  0  0  0999 V2000
   -0.5926   63.0539   80.4528 C   0  0  0  0  0  0  0  0  0  0  0  0
   -0.9404   62.2583   79.4231 N   0  0  0  0  0  0  0  0  0  0  0  0
   -1.6590   61.2647   80.0025 N   0  0  0  0  0  0  0  0  0  0  0  0
   -2.2044   60.2036   79.1910 C   0  0  0  0  0  0  0  0  0  0  0  0
   -1.7750   61.4067   81.3497 C   0  0  0  0  0  0  0  0  0  0  0  0
   -2.4215   60.6098   82.3248 C   0  0  0  0  0  0  0  0  0  0  0  0
   -3.0242   59.5635   82.1165 O   0  0  0  0  0  0  0  0  0  0  0  0
   -2.2913   61.1483   83.5856 N   0  0  0  0  0  0  0  0  0  0  0  0
   -1.5853   62.3180   83.8573 C   0  0  0  0  0  0  0  0  0  0  0  0
   -0.9738   63.0404   82.9602 N   0  0  0  0  0  0  0  0  0  0  0  0
   -1.0979   62.5471   81.6607 C   0  0  0  0  0  0  0  0  0  0  0  0
   -2.6887   60.5913   84.3257 H   0  0  0  0  0  0  0  0  0  0  0  0
   -1.5359   62.7229   85.2901 C   0  0  0  0  0  0  0  0  0  0  0  0
   -2.6216   62.5138   86.1507 C   0  0  0  0  0  0  0  0  0  0  0  0
   -2.5358   62.9046   87.4894 C   0  0  0  0  0  0  0  0  0  0  0  0
   -1.3739   63.5090   87.9693 C   0  0  0  0  0  0  0  0  0  0  0  0
   -0.2975   63.7334   87.1123 C   0  0  0  0  0  0  0  0  0  0  0  0
   -0.3785   63.3459   85.7738 C   0  0  0  0  0  0  0  0  0  0  0  0
    0.2230   64.2801   80.2322 C   0  0  0  0  0  0  0  0  0  0  0  0
    0.5194   66.2478   81.7798 C   0  0  0  0  0  0  0  0  0  0  0  0
   -0.4296   65.5230   80.8390 C   0  0  0  0  0  0  0  0  0  0  0  0
 20 21  1  0  0  0
 21 19  1  0  0  0
 19  1  1  0  0  0
  1  2  2  0  0  0
  2  3  1  0  0  0
  3  4  1  0  0  0
  3  5  1  0  0  0
  5  6  1  0  0  0
  6  7  2  0  0  0
  6  8  1  0  0  0
  8  9  1  0  0  0
  9 13  1  0  0  0
 13 14  2  0  0  0
 14 15  1  0  0  0
 15 16  2  0  0  0
 16 17  1  0  0  0
 17 18  2  0  0  0
  9 10  2  0  0  0
 10 11  1  0  0  0
 11  1  1  0  0  0
 11  5  2  0  0  0
 18 13  1  0  0  0
  8 12  1  0  0  0
M  END
> <minimizedAffinity>
-8.37073

$$$$



 21 23  0  0  0  0  0  0  0  0999 V2000
   -0.4636   61.7414   79.7780 C   0  0  0  0  0  0  0  0  0  0  0  0
   -1.2444   60.8815   79.0959 N   0  0  0  0  0  0  0  0  0  0  0  0
   -2.0867   60.3848   80.0356 N   0  0  0  0  0  0  0  0  0  0  0  0
   -3.0842   59.4102   79.6650 C   0  0  0  0  0  0  0  0  0  0  0  0
   -1.8654   60.8985   81.2747 C   0  0  0  0  0  0  0  0  0  0  0  0
   -2.4977   60.6554   82.5177 C   0  0  0  0  0  0  0  0  0  0  0  0
   -3.4157   59.8689   82.7179 O   0  0  0  0  0  0  0  0  0  0  0  0
   -1.9472   61.4187   83.5232 N   0  0  0  0  0  0  0  0  0  0  0  0
   -0.8826   62.2968   83.3324 C   0  0  0  0  0  0  0  0  0  0  0  0
   -0.2887   62.5049   82.1902 N   0  0  0  0  0  0  0  0  0  0  0  0
   -0.8283   61.7703   81.1335 C   0  0  0  0  0  0  0  0  0  0  0  0
   -2.3259   61.2448   84.4409 H   0  0  0  0  0  0  0  0  0  0  0  0
   -0.4107   63.0120   84.5510 C   0  0  0  0  0  0  0  0  0  0  0  0
    0.3584   64.1800   84.4662 C   0  0  0  0  0  0  0  0  0  0  0  0
    0.7795   64.8240   85.6324 C   0  0  0  0  0  0  0  0  0  0  0  0
    0.4417   64.3026   86.8812 C   0  0  0  0  0  0  0  0  0  0  0  0
   -0.3099   63.1319   86.9698 C   0  0  0  0  0  0  0  0  0  0  0  0
   -0.7321   62.4840   85.8079 C   0  0  0  0  0  0  0  0  0  0  0  0
    0.6149   62.5060   79.0927 C   0  0  0  0  0  0  0  0  0  0  0  0
   -0.1607   64.2875   77.4867 C   0  0  0  0  0  0  0  0  0  0  0  0
    0.2564   62.8340   77.6426 C   0  0  0  0  0  0  0  0  0  0  0  0
 20 21  1  0  0  0
 21 19  1  0  0  0
 19  1  1  0  0  0
  1  2  2  0  0  0
  2  3  1  0  0  0
  3  4  1  0  0  0
  3  5  1  0  0  0
  5  6  1  0  0  0
  6  7  2  0  0  0
  6  8  1  0  0  0
  8  9  1  0  0  0
  9 13  1  0  0  0
 13 14  2  0  0  0
 14 15  1  0  0  0
 15 16  2  0  0  0
 16 17  1  0  0  0
 17 18  2  0  0  0
  9 10  2  0  0  0
 10 11  1  0  0  0
 11  1  1  0  0  0
 11  5  2  0  0  0
 18 13  1  0  0  0
  8 12  1  0  0  0
M  END
> <minimizedAffinity>
-8.36895

$$$$



 21 23  0  0  0  0  0  0  0  0999 V2000
    0.5709   64.1791   85.7675 C   0  0  0  0  0  0  0  0  0  0  0  0
    0.5638   64.2580   87.1121 N   0  0  0  0  0  0  0  0  0  0  0  0
   -0.4872   63.4849   87.4820 N   0  0  0  0  0  0  0  0  0  0  0  0
   -0.8111   63.3314   88.8798 C   0  0  0  0  0  0  0  0  0  0  0  0
   -1.1357   62.9263   86.4257 C   0  0  0  0  0  0  0  0  0  0  0  0
   -2.2648   62.0747   86.3618 C   0  0  0  0  0  0  0  0  0  0  0  0
   -2.9178   61.6706   87.3166 O   0  0  0  0  0  0  0  0  0  0  0  0
   -2.5726   61.7394   85.0620 N   0  0  0  0  0  0  0  0  0  0  0  0
   -1.8688   62.2090   83.9553 C   0  0  0  0  0  0  0  0  0  0  0  0
   -0.8408   63.0092   84.0152 N   0  0  0  0  0  0  0  0  0  0  0  0
   -0.4749   63.3585   85.3157 C   0  0  0  0  0  0  0  0  0  0  0  0
   -3.4021   61.1766   84.9562 H   0  0  0  0  0  0  0  0  0  0  0  0
   -2.3741   61.7542   82.6297 C   0  0  0  0  0  0  0  0  0  0  0  0
   -2.5575   62.6484   81.5668 C   0  0  0  0  0  0  0  0  0  0  0  0
   -3.0305   62.1828   80.3374 C   0  0  0  0  0  0  0  0  0  0  0  0
   -3.3271   60.8305   80.1679 C   0  0  0  0  0  0  0  0  0  0  0  0
   -3.1610   59.9402   81.2278 C   0  0  0  0  0  0  0  0  0  0  0  0
   -2.6900   60.4005   82.4584 C   0  0  0  0  0  0  0  0  0  0  0  0
    1.5913   64.9061   84.9626 C   0  0  0  0  0  0  0  0  0  0  0  0
    1.0181   65.7858   82.6709 C   0  0  0  0  0  0  0  0  0  0  0  0
    0.9813   66.0601   84.1657 C   0  0  0  0  0  0  0  0  0  0  0  0
 20 21  1  0  0  0
 21 19  1  0  0  0
 19  1  1  0  0  0
  1  2  2  0  0  0
  2  3  1  0  0  0
  3  4  1  0  0  0
  3  5  1  0  0  0
  5  6  1  0  0  0
  6  7  2  0  0  0
  6  8  1  0  0  0
  8  9  1  0  0  0
  9 13  1  0  0  0
 13 14  2  0  0  0
 14 15  1  0  0  0
 15 16  2  0  0  0
 16 17  1  0  0  0
 17 18  2  0  0  0
  9 10  2  0  0  0
 10 11  1  0  0  0
 11  1  1  0  0  0
 11  5  2  0  0  0
 18 13  1  0  0  0
  8 12  1  0  0  0
M  END
> <minimizedAffinity>
-8.33008

$$$$



 21 23  0  0  0  0  0  0  0  0999 V2000
   -2.4092   62.1596   84.7166 C   0  0  0  0  0  0  0  0  0  0  0  0
   -2.9489   61.0547   84.1669 N   0  0  0  0  0  0  0  0  0  0  0  0
   -2.3927   60.9961   82.9313 N   0  0  0  0  0  0  0  0  0  0  0  0
   -2.7453   59.9229   82.0336 C   0  0  0  0  0  0  0  0  0  0  0  0
   -1.5284   62.0168   82.6870 C   0  0  0  0  0  0  0  0  0  0  0  0
   -0.7516   62.3357   81.5474 C   0  0  0  0  0  0  0  0  0  0  0  0
   -0.7285   61.7117   80.4931 O   0  0  0  0  0  0  0  0  0  0  0  0
    0.0008   63.4714   81.7496 N   0  0  0  0  0  0  0  0  0  0  0  0
   -0.0291   64.2191   82.9246 C   0  0  0  0  0  0  0  0  0  0  0  0
   -0.7603   63.9345   83.9663 N   0  0  0  0  0  0  0  0  0  0  0  0
   -1.5238   62.7759   83.8180 C   0  0  0  0  0  0  0  0  0  0  0  0
    0.5330   63.7735   80.9488 H   0  0  0  0  0  0  0  0  0  0  0  0
    0.8366   65.4314   82.9392 C   0  0  0  0  0  0  0  0  0  0  0  0
    1.2455   66.0569   81.7540 C   0  0  0  0  0  0  0  0  0  0  0  0
    2.0551   67.1942   81.8091 C   0  0  0  0  0  0  0  0  0  0  0  0
    2.4630   67.7044   83.0415 C   0  0  0  0  0  0  0  0  0  0  0  0
    2.0715   67.0756   84.2225 C   0  0  0  0  0  0  0  0  0  0  0  0
    1.2637   65.9384   84.1730 C   0  0  0  0  0  0  0  0  0  0  0  0
   -2.7726   62.5845   86.0968 C   0  0  0  0  0  0  0  0  0  0  0  0
   -1.4052   63.3372   88.0762 C   0  0  0  0  0  0  0  0  0  0  0  0
   -1.7050   62.1942   87.1197 C   0  0  0  0  0  0  0  0  0  0  0  0
 20 21  1  0  0  0
 21 19  1  0  0  0
 19  1  1  0  0  0
  1  2  2  0  0  0
  2  3  1  0  0  0
  3  4  1  0  0  0
  3  5  1  0  0  0
  5  6  1  0  0  0
  6  7  2  0  0  0
  6  8  1  0  0  0
  8  9  1  0  0  0
  9 13  1  0  0  0
 13 14  2  0  0  0
 14 15  1  0  0  0
 15 16  2  0  0  0
 16 17  1  0  0  0
 17 18  2  0  0  0
  9 10  2  0  0  0
 10 11  1  0  0  0
 11  1  1  0  0  0
 11  5  2  0  0  0
 18 13  1  0  0  0
  8 12  1  0  0  0
M  END
> <minimizedAffinity>
-8.28977

$$$$



 21 23  0  0  0  0  0  0  0  0999 V2000
    4.7820   67.1147   84.8035 C   0  0  0  0  0  0  0  0  0  0  0  0
    5.0825   68.2207   84.0960 N   0  0  0  0  0  0  0  0  0  0  0  0
    3.9638   68.4597   83.3674 N   0  0  0  0  0  0  0  0  0  0  0  0
    3.9174   69.5881   82.4692 C   0  0  0  0  0  0  0  0  0  0  0  0
    2.9780   67.5505   83.5907 C   0  0  0  0  0  0  0  0  0  0  0  0
    1.6772   67.4246   83.0467 C   0  0  0  0  0  0  0  0  0  0  0  0
    1.1745   68.1576   82.2032 O   0  0  0  0  0  0  0  0  0  0  0  0
    1.0091   66.3439   83.5780 N   0  0  0  0  0  0  0  0  0  0  0  0
    1.5658   65.4747   84.5136 C   0  0  0  0  0  0  0  0  0  0  0  0
    2.7715   65.5811   84.9991 N   0  0  0  0  0  0  0  0  0  0  0  0
    3.4809   66.6779   84.5078 C   0  0  0  0  0  0  0  0  0  0  0  0
    0.0961   66.1769   83.1849 H   0  0  0  0  0  0  0  0  0  0  0  0
    0.6925   64.3481   84.9464 C   0  0  0  0  0  0  0  0  0  0  0  0
    0.1384   63.4513   84.0234 C   0  0  0  0  0  0  0  0  0  0  0  0
   -0.6735   62.4051   84.4688 C   0  0  0  0  0  0  0  0  0  0  0  0
   -0.9393   62.2556   85.8298 C   0  0  0  0  0  0  0  0  0  0  0  0
   -0.4029   63.1552   86.7498 C   0  0  0  0  0  0  0  0  0  0  0  0
    0.4079   64.2029   86.3100 C   0  0  0  0  0  0  0  0  0  0  0  0
    5.7694   66.5142   85.7427 C   0  0  0  0  0  0  0  0  0  0  0  0
    8.1118   66.1738   84.8755 C   0  0  0  0  0  0  0  0  0  0  0  0
    6.7307   65.5586   85.0346 C   0  0  0  0  0  0  0  0  0  0  0  0
 20 21  1  0  0  0
 21 19  1  0  0  0
 19  1  1  0  0  0
  1  2  2  0  0  0
  2  3  1  0  0  0
  3  4  1  0  0  0
  3  5  1  0  0  0
  5  6  1  0  0  0
  6  7  2  0  0  0
  6  8  1  0  0  0
  8  9  1  0  0  0
  9 13  1  0  0  0
 13 14  2  0  0  0
 14 15  1  0  0  0
 15 16  2  0  0  0
 16 17  1  0  0  0
 17 18  2  0  0  0
  9 10  2  0  0  0
 10 11  1  0  0  0
 11  1  1  0  0  0
 11  5  2  0  0  0
 18 13  1  0  0  0
  8 12  1  0  0  0
M  END
> <minimizedAffinity>
-8.28737

$$$$



 21 23  0  0  0  0  0  0  0  0999 V2000
   -0.0002   64.2769   81.6289 C   0  0  0  0  0  0  0  0  0  0  0  0
    0.5556   65.1813   80.7997 N   0  0  0  0  0  0  0  0  0  0  0  0
    1.1883   66.0456   81.6315 N   0  0  0  0  0  0  0  0  0  0  0  0
    1.9071   67.1723   81.0872 C   0  0  0  0  0  0  0  0  0  0  0  0
    1.0518   65.7188   82.9441 C   0  0  0  0  0  0  0  0  0  0  0  0
    1.5351   66.3401   84.1206 C   0  0  0  0  0  0  0  0  0  0  0  0
    2.1995   67.3683   84.1721 O   0  0  0  0  0  0  0  0  0  0  0  0
    1.1595   65.6466   85.2497 N   0  0  0  0  0  0  0  0  0  0  0  0
    0.3779   64.4937   85.2244 C   0  0  0  0  0  0  0  0  0  0  0  0
   -0.0828   63.9339   84.1404 N   0  0  0  0  0  0  0  0  0  0  0  0
    0.2925   64.5881   82.9663 C   0  0  0  0  0  0  0  0  0  0  0  0
    1.4330   66.0761   86.1195 H   0  0  0  0  0  0  0  0  0  0  0  0
    0.0547   63.9049   86.5541 C   0  0  0  0  0  0  0  0  0  0  0  0
    1.0250   63.7772   87.5567 C   0  0  0  0  0  0  0  0  0  0  0  0
    0.6822   63.2224   88.7924 C   0  0  0  0  0  0  0  0  0  0  0  0
   -0.6225   62.7890   89.0276 C   0  0  0  0  0  0  0  0  0  0  0  0
   -1.5870   62.8997   88.0270 C   0  0  0  0  0  0  0  0  0  0  0  0
   -1.2494   63.4521   86.7904 C   0  0  0  0  0  0  0  0  0  0  0  0
   -0.8013   63.1400   81.0966 C   0  0  0  0  0  0  0  0  0  0  0  0
    0.8772   61.3558   81.6910 C   0  0  0  0  0  0  0  0  0  0  0  0
    0.0829   62.0083   80.5711 C   0  0  0  0  0  0  0  0  0  0  0  0
 20 21  1  0  0  0
 21 19  1  0  0  0
 19  1  1  0  0  0
  1  2  2  0  0  0
  2  3  1  0  0  0
  3  4  1  0  0  0
  3  5  1  0  0  0
  5  6  1  0  0  0
  6  7  2  0  0  0
  6  8  1  0  0  0
  8  9  1  0  0  0
  9 13  1  0  0  0
 13 14  2  0  0  0
 14 15  1  0  0  0
 15 16  2  0  0  0
 16 17  1  0  0  0
 17 18  2  0  0  0
  9 10  2  0  0  0
 10 11  1  0  0  0
 11  1  1  0  0  0
 11  5  2  0  0  0
 18 13  1  0  0  0
  8 12  1  0  0  0
M  END
> <minimizedAffinity>
-8.22955

$$$$
