


 37 40  0  0  0  0  0  0  0  0999 V2000
    3.1190   66.7720   84.3098 C   0  0  0  0  0  0  0  0  0  0  0  0
    4.0028   67.8398   84.1207 C   0  0  0  0  0  0  0  0  0  0  0  0
    3.7821   68.7515   83.0911 C   0  0  0  0  0  0  0  0  0  0  0  0
    2.6989   68.5634   82.2291 C   0  0  0  0  0  0  0  0  0  0  0  0
    1.8028   67.5025   82.4242 C   0  0  0  0  0  0  0  0  0  0  0  0
    2.0109   66.5848   83.4650 C   0  0  0  0  0  0  0  0  0  0  0  0
    1.0717   65.4802   83.6659 C   0  0  0  0  0  0  0  0  0  0  0  0
    0.5088   64.7424   82.7230 N   0  0  0  0  0  0  0  0  0  0  0  0
   -0.3062   63.8528   83.3780 C   0  0  0  0  0  0  0  0  0  0  0  0
   -1.1703   62.8335   82.8280 C   0  0  0  0  0  0  0  0  0  0  0  0
   -1.2902   62.6422   81.6205 O   0  0  0  0  0  0  0  0  0  0  0  0
   -1.8530   62.1019   83.8157 N   0  0  0  0  0  0  0  0  0  0  0  0
   -2.7494   61.0538   83.3695 C   0  0  0  0  0  0  0  0  0  0  0  0
   -1.7906   62.3101   85.2093 C   0  0  0  0  0  0  0  0  0  0  0  0
   -2.4659   61.6345   85.9914 O   0  0  0  0  0  0  0  0  0  0  0  0
   -0.9289   63.3217   85.6772 N   0  0  0  0  0  0  0  0  0  0  0  0
   -0.2316   64.0379   84.7288 C   0  0  0  0  0  0  0  0  0  0  0  0
    0.6471   65.0635   84.9124 N   0  0  0  0  0  0  0  0  0  0  0  0
    0.9187   65.4812   85.7888 H   0  0  0  0  0  0  0  0  0  0  0  0
   -0.8438   63.5556   87.1182 C   0  0  0  0  0  0  0  0  0  0  0  0
    0.2940   62.7720   87.8009 C   0  0  0  0  0  0  0  0  0  0  0  0
   -0.1266   62.2058   89.1582 C   0  0  0  0  0  0  0  0  0  0  0  0
    1.5140   63.6790   87.9756 C   0  0  0  0  0  0  0  0  0  0  0  0
    2.4074   69.7295   80.9107 S   0  0  0  0  0  0  0  0  0  0  0  0
    3.6832   70.3337   80.5892 O   0  0  0  0  0  0  0  0  0  0  0  0
    1.6168   69.0545   79.9044 O   0  0  0  0  0  0  0  0  0  0  0  0
    1.4419   70.9090   81.6406 N   0  0  0  0  0  0  0  0  0  0  0  0
   -0.0324   70.7110   81.6568 C   0  0  0  0  0  0  0  0  0  0  0  0
   -0.7487   71.8053   80.8436 C   0  0  0  0  0  0  0  0  0  0  0  0
   -0.5156   73.1566   81.3731 N   0  0  0  0  0  0  0  0  0  0  0  0
    0.7975   73.3006   82.0252 C   0  0  0  0  0  0  0  0  0  0  0  0
    1.8786   72.3273   81.5160 C   0  0  0  0  0  0  0  0  0  0  0  0
   -0.8560   74.2256   80.4324 C   0  0  0  0  0  0  0  0  0  0  0  0
   -1.6242   73.8080   79.1813 C   0  0  0  0  0  0  0  0  0  0  0  0
    3.4228   65.8541   85.2829 O   0  0  0  0  0  0  0  0  0  0  0  0
    5.1806   65.1789   86.7530 C   0  0  0  0  0  0  0  0  0  0  0  0
    4.8400   65.6413   85.3484 C   0  0  0  0  0  0  0  0  0  0  0  0
 36 37  1  0  0  0
 37 35  1  0  0  0
 35  1  1  0  0  0
  1  2  1  0  0  0
  2  3  2  0  0  0
  3  4  1  0  0  0
  4 24  1  0  0  0
 24 25  2  0  0  0
 24 26  2  0  0  0
 24 27  1  0  0  0
 27 28  1  0  0  0
 28 29  1  0  0  0
 29 30  1  0  0  0
 30 33  1  0  0  0
 33 34  1  0  0  0
 30 31  1  0  0  0
 31 32  1  0  0  0
  4  5  2  0  0  0
  5  6  1  0  0  0
  6  7  1  0  0  0
  7  8  2  0  0  0
  8  9  1  0  0  0
  9 10  1  0  0  0
 10 11  2  0  0  0
 10 12  1  0  0  0
 12 13  1  0  0  0
 12 14  1  0  0  0
 14 15  2  0  0  0
 14 16  1  0  0  0
 16 20  1  0  0  0
 20 21  1  0  0  0
 21 22  1  0  0  0
 21 23  1  0  0  0
 16 17  1  0  0  0
 17 18  1  0  0  0
  6  1  2  0  0  0
 18  7  1  0  0  0
 32 27  1  0  0  0
 17  9  2  0  0  0
 18 19  1  0  0  0
M  END
> <minimizedAffinity>
-9.46985

$$$$



 37 40  0  0  0  0  0  0  0  0999 V2000
    1.1198   65.7502   83.1273 C   0  0  0  0  0  0  0  0  0  0  0  0
    1.7124   66.7430   83.9149 C   0  0  0  0  0  0  0  0  0  0  0  0
    2.1595   67.9234   83.3259 C   0  0  0  0  0  0  0  0  0  0  0  0
    2.0485   68.0845   81.9427 C   0  0  0  0  0  0  0  0  0  0  0  0
    1.4421   67.0977   81.1520 C   0  0  0  0  0  0  0  0  0  0  0  0
    0.9792   65.9096   81.7375 C   0  0  0  0  0  0  0  0  0  0  0  0
    0.3452   64.8834   80.9084 C   0  0  0  0  0  0  0  0  0  0  0  0
    0.6581   64.5731   79.6610 N   0  0  0  0  0  0  0  0  0  0  0  0
   -0.2116   63.5772   79.2917 C   0  0  0  0  0  0  0  0  0  0  0  0
   -0.3247   62.8896   78.0257 C   0  0  0  0  0  0  0  0  0  0  0  0
    0.3912   63.1472   77.0614 O   0  0  0  0  0  0  0  0  0  0  0  0
   -1.3361   61.9130   78.0207 N   0  0  0  0  0  0  0  0  0  0  0  0
   -1.5348   61.1645   76.7954 C   0  0  0  0  0  0  0  0  0  0  0  0
   -2.2171   61.6100   79.0798 C   0  0  0  0  0  0  0  0  0  0  0  0
   -3.1016   60.7575   78.9567 O   0  0  0  0  0  0  0  0  0  0  0  0
   -2.0518   62.3195   80.2856 N   0  0  0  0  0  0  0  0  0  0  0  0
   -1.0518   63.2668   80.3223 C   0  0  0  0  0  0  0  0  0  0  0  0
   -0.6946   64.0884   81.3494 N   0  0  0  0  0  0  0  0  0  0  0  0
   -1.1259   64.1468   82.2587 H   0  0  0  0  0  0  0  0  0  0  0  0
   -2.9506   62.0219   81.4001 C   0  0  0  0  0  0  0  0  0  0  0  0
   -2.3354   61.0749   82.4485 C   0  0  0  0  0  0  0  0  0  0  0  0
   -2.9740   59.6852   82.4186 C   0  0  0  0  0  0  0  0  0  0  0  0
   -2.4858   61.6821   83.8450 C   0  0  0  0  0  0  0  0  0  0  0  0
    2.6151   69.5956   81.1819 S   0  0  0  0  0  0  0  0  0  0  0  0
    3.9268   69.8782   81.7256 O   0  0  0  0  0  0  0  0  0  0  0  0
    2.3999   69.4683   79.7568 O   0  0  0  0  0  0  0  0  0  0  0  0
    1.5428   70.7576   81.7785 N   0  0  0  0  0  0  0  0  0  0  0  0
    0.0817   70.5003   81.6682 C   0  0  0  0  0  0  0  0  0  0  0  0
   -0.5974   71.5375   80.7546 C   0  0  0  0  0  0  0  0  0  0  0  0
   -0.4651   72.9136   81.2541 N   0  0  0  0  0  0  0  0  0  0  0  0
    0.7760   73.1321   82.0170 C   0  0  0  0  0  0  0  0  0  0  0  0
    1.9354   72.1878   81.6431 C   0  0  0  0  0  0  0  0  0  0  0  0
   -0.7577   73.9368   80.2487 C   0  0  0  0  0  0  0  0  0  0  0  0
   -1.8627   73.6077   79.2485 C   0  0  0  0  0  0  0  0  0  0  0  0
    0.7709   64.5722   83.7375 O   0  0  0  0  0  0  0  0  0  0  0  0
   -0.0868   63.5948   85.7415 C   0  0  0  0  0  0  0  0  0  0  0  0
    0.7251   64.7383   85.1617 C   0  0  0  0  0  0  0  0  0  0  0  0
 36 37  1  0  0  0
 37 35  1  0  0  0
 35  1  1  0  0  0
  1  2  1  0  0  0
  2  3  2  0  0  0
  3  4  1  0  0  0
  4 24  1  0  0  0
 24 25  2  0  0  0
 24 26  2  0  0  0
 24 27  1  0  0  0
 27 28  1  0  0  0
 28 29  1  0  0  0
 29 30  1  0  0  0
 30 33  1  0  0  0
 33 34  1  0  0  0
 30 31  1  0  0  0
 31 32  1  0  0  0
  4  5  2  0  0  0
  5  6  1  0  0  0
  6  7  1  0  0  0
  7  8  2  0  0  0
  8  9  1  0  0  0
  9 10  1  0  0  0
 10 11  2  0  0  0
 10 12  1  0  0  0
 12 13  1  0  0  0
 12 14  1  0  0  0
 14 15  2  0  0  0
 14 16  1  0  0  0
 16 20  1  0  0  0
 20 21  1  0  0  0
 21 22  1  0  0  0
 21 23  1  0  0  0
 16 17  1  0  0  0
 17 18  1  0  0  0
  6  1  2  0  0  0
 18  7  1  0  0  0
 32 27  1  0  0  0
 17  9  2  0  0  0
 18 19  1  0  0  0
M  END
> <minimizedAffinity>
-9.46535

$$$$



 37 40  0  0  0  0  0  0  0  0999 V2000
    3.4269   66.2459   84.8685 C   0  0  0  0  0  0  0  0  0  0  0  0
    4.3972   67.1805   84.4914 C   0  0  0  0  0  0  0  0  0  0  0  0
    4.0904   68.1605   83.5503 C   0  0  0  0  0  0  0  0  0  0  0  0
    2.8241   68.1722   82.9603 C   0  0  0  0  0  0  0  0  0  0  0  0
    1.8444   67.2460   83.3463 C   0  0  0  0  0  0  0  0  0  0  0  0
    2.1407   66.2614   84.3011 C   0  0  0  0  0  0  0  0  0  0  0  0
    1.1142   65.2981   84.7021 C   0  0  0  0  0  0  0  0  0  0  0  0
    0.7674   64.9845   85.9397 N   0  0  0  0  0  0  0  0  0  0  0  0
   -0.2120   64.0294   85.8253 C   0  0  0  0  0  0  0  0  0  0  0  0
   -0.9243   63.3256   86.8672 C   0  0  0  0  0  0  0  0  0  0  0  0
   -0.7084   63.5086   88.0625 O   0  0  0  0  0  0  0  0  0  0  0  0
   -1.8724   62.4166   86.3654 N   0  0  0  0  0  0  0  0  0  0  0  0
   -2.6423   61.6556   87.3293 C   0  0  0  0  0  0  0  0  0  0  0  0
   -2.1269   62.1316   85.0076 C   0  0  0  0  0  0  0  0  0  0  0  0
   -2.9570   61.2810   84.6737 O   0  0  0  0  0  0  0  0  0  0  0  0
   -1.3955   62.8536   84.0441 N   0  0  0  0  0  0  0  0  0  0  0  0
   -0.4757   63.7669   84.5115 C   0  0  0  0  0  0  0  0  0  0  0  0
    0.3584   64.5759   83.7993 N   0  0  0  0  0  0  0  0  0  0  0  0
    0.4492   64.6227   82.7964 H   0  0  0  0  0  0  0  0  0  0  0  0
   -1.6428   62.5789   82.6292 C   0  0  0  0  0  0  0  0  0  0  0  0
   -0.9239   61.3170   82.1142 C   0  0  0  0  0  0  0  0  0  0  0  0
    0.5322   61.5941   81.7364 C   0  0  0  0  0  0  0  0  0  0  0  0
   -1.6726   60.7528   80.9048 C   0  0  0  0  0  0  0  0  0  0  0  0
    2.4225   69.4271   81.7574 S   0  0  0  0  0  0  0  0  0  0  0  0
    1.3938   70.2613   82.3421 O   0  0  0  0  0  0  0  0  0  0  0  0
    3.6701   69.9867   81.2846 O   0  0  0  0  0  0  0  0  0  0  0  0
    1.7239   68.5468   80.4951 N   0  0  0  0  0  0  0  0  0  0  0  0
    0.2584   68.6680   80.2696 C   0  0  0  0  0  0  0  0  0  0  0  0
   -0.4523   67.3217   80.5018 C   0  0  0  0  0  0  0  0  0  0  0  0
    0.0116   66.2652   79.5912 N   0  0  0  0  0  0  0  0  0  0  0  0
    1.4199   66.4281   79.1908 C   0  0  0  0  0  0  0  0  0  0  0  0
    2.2903   67.2014   80.2007 C   0  0  0  0  0  0  0  0  0  0  0  0
   -0.3538   64.9140   80.0204 C   0  0  0  0  0  0  0  0  0  0  0  0
   -0.4557   63.8586   78.9224 C   0  0  0  0  0  0  0  0  0  0  0  0
    3.7998   65.2503   85.7354 O   0  0  0  0  0  0  0  0  0  0  0  0
    5.3592   65.3580   87.5418 C   0  0  0  0  0  0  0  0  0  0  0  0
    5.2002   65.3412   86.0328 C   0  0  0  0  0  0  0  0  0  0  0  0
 36 37  1  0  0  0
 37 35  1  0  0  0
 35  1  1  0  0  0
  1  2  1  0  0  0
  2  3  2  0  0  0
  3  4  1  0  0  0
  4 24  1  0  0  0
 24 25  2  0  0  0
 24 26  2  0  0  0
 24 27  1  0  0  0
 27 28  1  0  0  0
 28 29  1  0  0  0
 29 30  1  0  0  0
 30 33  1  0  0  0
 33 34  1  0  0  0
 30 31  1  0  0  0
 31 32  1  0  0  0
  4  5  2  0  0  0
  5  6  1  0  0  0
  6  7  1  0  0  0
  7  8  2  0  0  0
  8  9  1  0  0  0
  9 10  1  0  0  0
 10 11  2  0  0  0
 10 12  1  0  0  0
 12 13  1  0  0  0
 12 14  1  0  0  0
 14 15  2  0  0  0
 14 16  1  0  0  0
 16 20  1  0  0  0
 20 21  1  0  0  0
 21 22  1  0  0  0
 21 23  1  0  0  0
 16 17  1  0  0  0
 17 18  1  0  0  0
  6  1  2  0  0  0
 18  7  1  0  0  0
 32 27  1  0  0  0
 17  9  2  0  0  0
 18 19  1  0  0  0
M  END
> <minimizedAffinity>
-9.45925

$$$$



 37 40  0  0  0  0  0  0  0  0999 V2000
   -0.0505   63.5765   84.6255 C   0  0  0  0  0  0  0  0  0  0  0  0
   -0.7214   62.4072   84.9995 C   0  0  0  0  0  0  0  0  0  0  0  0
   -1.5676   61.7711   84.0943 C   0  0  0  0  0  0  0  0  0  0  0  0
   -1.7700   62.3347   82.8322 C   0  0  0  0  0  0  0  0  0  0  0  0
   -1.0883   63.4987   82.4487 C   0  0  0  0  0  0  0  0  0  0  0  0
   -0.2257   64.1410   83.3499 C   0  0  0  0  0  0  0  0  0  0  0  0
    0.4851   65.3546   82.9443 C   0  0  0  0  0  0  0  0  0  0  0  0
    0.3681   65.9882   81.7889 N   0  0  0  0  0  0  0  0  0  0  0  0
    1.2363   67.0497   81.8524 C   0  0  0  0  0  0  0  0  0  0  0  0
    1.5233   68.0530   80.8528 C   0  0  0  0  0  0  0  0  0  0  0  0
    0.9908   68.0621   79.7459 O   0  0  0  0  0  0  0  0  0  0  0  0
    2.4718   68.9983   81.2813 N   0  0  0  0  0  0  0  0  0  0  0  0
    2.8333   70.0496   80.3511 C   0  0  0  0  0  0  0  0  0  0  0  0
    3.1491   69.0079   82.5185 C   0  0  0  0  0  0  0  0  0  0  0  0
    3.9982   69.8650   82.7803 O   0  0  0  0  0  0  0  0  0  0  0  0
    2.8217   67.9995   83.4463 N   0  0  0  0  0  0  0  0  0  0  0  0
    1.8778   67.0739   83.0575 C   0  0  0  0  0  0  0  0  0  0  0  0
    1.3967   66.0051   83.7529 N   0  0  0  0  0  0  0  0  0  0  0  0
    1.6738   65.7055   84.6747 H   0  0  0  0  0  0  0  0  0  0  0  0
    3.5076   67.9891   84.7377 C   0  0  0  0  0  0  0  0  0  0  0  0
    4.7603   67.0920   84.7600 C   0  0  0  0  0  0  0  0  0  0  0  0
    4.4887   65.7348   85.4111 C   0  0  0  0  0  0  0  0  0  0  0  0
    5.8927   67.8038   85.5034 C   0  0  0  0  0  0  0  0  0  0  0  0
   -2.8493   61.5232   81.6660 S   0  0  0  0  0  0  0  0  0  0  0  0
   -3.5017   60.4417   82.3737 O   0  0  0  0  0  0  0  0  0  0  0  0
   -3.6108   62.5534   80.9937 O   0  0  0  0  0  0  0  0  0  0  0  0
   -1.7766   60.8434   80.5509 N   0  0  0  0  0  0  0  0  0  0  0  0
   -0.4208   61.4400   80.4137 C   0  0  0  0  0  0  0  0  0  0  0  0
   -0.2140   62.0313   79.0069 C   0  0  0  0  0  0  0  0  0  0  0  0
   -0.3234   61.0248   77.9413 N   0  0  0  0  0  0  0  0  0  0  0  0
   -1.2479   59.9284   78.2780 C   0  0  0  0  0  0  0  0  0  0  0  0
   -2.3507   60.3042   79.2870 C   0  0  0  0  0  0  0  0  0  0  0  0
   -0.5072   61.5966   76.6061 C   0  0  0  0  0  0  0  0  0  0  0  0
   -1.4335   62.8059   76.5086 C   0  0  0  0  0  0  0  0  0  0  0  0
    0.7063   64.2125   85.5766 O   0  0  0  0  0  0  0  0  0  0  0  0
    1.2175   63.6788   87.8483 C   0  0  0  0  0  0  0  0  0  0  0  0
    0.1164   64.0569   86.8750 C   0  0  0  0  0  0  0  0  0  0  0  0
 36 37  1  0  0  0
 37 35  1  0  0  0
 35  1  1  0  0  0
  1  2  1  0  0  0
  2  3  2  0  0  0
  3  4  1  0  0  0
  4 24  1  0  0  0
 24 25  2  0  0  0
 24 26  2  0  0  0
 24 27  1  0  0  0
 27 28  1  0  0  0
 28 29  1  0  0  0
 29 30  1  0  0  0
 30 33  1  0  0  0
 33 34  1  0  0  0
 30 31  1  0  0  0
 31 32  1  0  0  0
  4  5  2  0  0  0
  5  6  1  0  0  0
  6  7  1  0  0  0
  7  8  2  0  0  0
  8  9  1  0  0  0
  9 10  1  0  0  0
 10 11  2  0  0  0
 10 12  1  0  0  0
 12 13  1  0  0  0
 12 14  1  0  0  0
 14 15  2  0  0  0
 14 16  1  0  0  0
 16 20  1  0  0  0
 20 21  1  0  0  0
 21 22  1  0  0  0
 21 23  1  0  0  0
 16 17  1  0  0  0
 17 18  1  0  0  0
  6  1  2  0  0  0
 18  7  1  0  0  0
 32 27  1  0  0  0
 17  9  2  0  0  0
 18 19  1  0  0  0
M  END
> <minimizedAffinity>
-9.33442

$$$$



 37 40  0  0  0  0  0  0  0  0999 V2000
    1.0364   65.7874   81.1928 C   0  0  0  0  0  0  0  0  0  0  0  0
    1.5052   66.6096   80.1626 C   0  0  0  0  0  0  0  0  0  0  0  0
    2.1675   67.7966   80.4669 C   0  0  0  0  0  0  0  0  0  0  0  0
    2.3189   68.1743   81.8033 C   0  0  0  0  0  0  0  0  0  0  0  0
    1.8630   67.3458   82.8388 C   0  0  0  0  0  0  0  0  0  0  0  0
    1.2038   66.1431   82.5426 C   0  0  0  0  0  0  0  0  0  0  0  0
    0.7315   65.2807   83.6269 C   0  0  0  0  0  0  0  0  0  0  0  0
    1.2652   65.1650   84.8320 N   0  0  0  0  0  0  0  0  0  0  0  0
    0.5041   64.2327   85.4924 C   0  0  0  0  0  0  0  0  0  0  0  0
    0.6598   63.7130   86.8318 C   0  0  0  0  0  0  0  0  0  0  0  0
    1.5664   64.0653   87.5819 O   0  0  0  0  0  0  0  0  0  0  0  0
   -0.3243   62.7678   87.1709 N   0  0  0  0  0  0  0  0  0  0  0  0
   -0.2581   62.1815   88.4949 C   0  0  0  0  0  0  0  0  0  0  0  0
   -1.3558   62.2917   86.3349 C   0  0  0  0  0  0  0  0  0  0  0  0
   -2.1472   61.4257   86.7195 O   0  0  0  0  0  0  0  0  0  0  0  0
   -1.4487   62.8404   85.0408 N   0  0  0  0  0  0  0  0  0  0  0  0
   -0.5084   63.7857   84.6928 C   0  0  0  0  0  0  0  0  0  0  0  0
   -0.3698   64.4548   83.5136 N   0  0  0  0  0  0  0  0  0  0  0  0
   -0.9345   64.3493   82.6853 H   0  0  0  0  0  0  0  0  0  0  0  0
   -2.5114   62.3659   84.1554 C   0  0  0  0  0  0  0  0  0  0  0  0
   -2.0222   61.3636   83.0920 C   0  0  0  0  0  0  0  0  0  0  0  0
   -1.7742   62.0312   81.7382 C   0  0  0  0  0  0  0  0  0  0  0  0
   -3.0466   60.2381   82.9325 C   0  0  0  0  0  0  0  0  0  0  0  0
    3.1698   69.6912   82.2008 S   0  0  0  0  0  0  0  0  0  0  0  0
    3.8379   69.4830   83.4682 O   0  0  0  0  0  0  0  0  0  0  0  0
    3.9003   70.0983   81.0202 O   0  0  0  0  0  0  0  0  0  0  0  0
    1.9104   70.7901   82.4504 N   0  0  0  0  0  0  0  0  0  0  0  0
    0.5506   70.4363   81.9617 C   0  0  0  0  0  0  0  0  0  0  0  0
    0.0828   71.4126   80.8663 C   0  0  0  0  0  0  0  0  0  0  0  0
   -0.0051   72.8021   81.3377 N   0  0  0  0  0  0  0  0  0  0  0  0
    0.9700   73.1130   82.3973 C   0  0  0  0  0  0  0  0  0  0  0  0
    2.2404   72.2405   82.3784 C   0  0  0  0  0  0  0  0  0  0  0  0
   -0.0757   73.7881   80.2578 C   0  0  0  0  0  0  0  0  0  0  0  0
   -1.3634   73.8046   79.4385 C   0  0  0  0  0  0  0  0  0  0  0  0
    0.3182   64.6716   80.8448 O   0  0  0  0  0  0  0  0  0  0  0  0
    0.4226   63.1936   78.9709 C   0  0  0  0  0  0  0  0  0  0  0  0
    0.1370   64.6138   79.4229 C   0  0  0  0  0  0  0  0  0  0  0  0
 36 37  1  0  0  0
 37 35  1  0  0  0
 35  1  1  0  0  0
  1  2  1  0  0  0
  2  3  2  0  0  0
  3  4  1  0  0  0
  4 24  1  0  0  0
 24 25  2  0  0  0
 24 26  2  0  0  0
 24 27  1  0  0  0
 27 28  1  0  0  0
 28 29  1  0  0  0
 29 30  1  0  0  0
 30 33  1  0  0  0
 33 34  1  0  0  0
 30 31  1  0  0  0
 31 32  1  0  0  0
  4  5  2  0  0  0
  5  6  1  0  0  0
  6  7  1  0  0  0
  7  8  2  0  0  0
  8  9  1  0  0  0
  9 10  1  0  0  0
 10 11  2  0  0  0
 10 12  1  0  0  0
 12 13  1  0  0  0
 12 14  1  0  0  0
 14 15  2  0  0  0
 14 16  1  0  0  0
 16 20  1  0  0  0
 20 21  1  0  0  0
 21 22  1  0  0  0
 21 23  1  0  0  0
 16 17  1  0  0  0
 17 18  1  0  0  0
  6  1  2  0  0  0
 18  7  1  0  0  0
 32 27  1  0  0  0
 17  9  2  0  0  0
 18 19  1  0  0  0
M  END
> <minimizedAffinity>
-9.31961

$$$$



 37 40  0  0  0  0  0  0  0  0999 V2000
    3.5539   67.5473   84.0106 C   0  0  0  0  0  0  0  0  0  0  0  0
    4.3118   68.6119   83.5113 C   0  0  0  0  0  0  0  0  0  0  0  0
    3.8124   69.3943   82.4728 C   0  0  0  0  0  0  0  0  0  0  0  0
    2.5727   69.0787   81.9113 C   0  0  0  0  0  0  0  0  0  0  0  0
    1.8039   68.0213   82.4186 C   0  0  0  0  0  0  0  0  0  0  0  0
    2.2939   67.2338   83.4715 C   0  0  0  0  0  0  0  0  0  0  0  0
    1.4868   66.1324   83.9989 C   0  0  0  0  0  0  0  0  0  0  0  0
    1.2764   65.8490   85.2740 N   0  0  0  0  0  0  0  0  0  0  0  0
    0.4840   64.7281   85.2843 C   0  0  0  0  0  0  0  0  0  0  0  0
   -0.0250   63.9826   86.4128 C   0  0  0  0  0  0  0  0  0  0  0  0
    0.2232   64.2845   87.5773 O   0  0  0  0  0  0  0  0  0  0  0  0
   -0.8178   62.8855   86.0325 N   0  0  0  0  0  0  0  0  0  0  0  0
   -1.3772   62.0680   87.0907 C   0  0  0  0  0  0  0  0  0  0  0  0
   -1.0947   62.4652   84.7148 C   0  0  0  0  0  0  0  0  0  0  0  0
   -1.7727   61.4583   84.4900 O   0  0  0  0  0  0  0  0  0  0  0  0
   -0.5657   63.2375   83.6620 N   0  0  0  0  0  0  0  0  0  0  0  0
    0.1965   64.3314   84.0098 C   0  0  0  0  0  0  0  0  0  0  0  0
    0.8249   65.2250   83.1949 N   0  0  0  0  0  0  0  0  0  0  0  0
    0.8467   65.2172   82.1871 H   0  0  0  0  0  0  0  0  0  0  0  0
   -0.8409   62.8247   82.2863 C   0  0  0  0  0  0  0  0  0  0  0  0
    0.4250   62.4398   81.4963 C   0  0  0  0  0  0  0  0  0  0  0  0
    0.1246   62.1588   80.0230 C   0  0  0  0  0  0  0  0  0  0  0  0
    1.0783   61.2115   82.1334 C   0  0  0  0  0  0  0  0  0  0  0  0
    1.9248   70.0791   80.5837 S   0  0  0  0  0  0  0  0  0  0  0  0
    3.0603   70.5974   79.8502 O   0  0  0  0  0  0  0  0  0  0  0  0
    0.8903   69.3087   79.9282 O   0  0  0  0  0  0  0  0  0  0  0  0
    1.1929   71.3708   81.3912 N   0  0  0  0  0  0  0  0  0  0  0  0
   -0.2864   71.3652   81.5478 C   0  0  0  0  0  0  0  0  0  0  0  0
   -0.9289   72.5459   80.7962 C   0  0  0  0  0  0  0  0  0  0  0  0
   -0.4744   73.8537   81.2898 N   0  0  0  0  0  0  0  0  0  0  0  0
    0.9020   73.8242   81.8143 C   0  0  0  0  0  0  0  0  0  0  0  0
    1.7954   72.7211   81.2139 C   0  0  0  0  0  0  0  0  0  0  0  0
   -0.7612   74.9612   80.3763 C   0  0  0  0  0  0  0  0  0  0  0  0
   -0.9494   74.5957   78.9063 C   0  0  0  0  0  0  0  0  0  0  0  0
    4.1213   66.7547   84.9758 O   0  0  0  0  0  0  0  0  0  0  0  0
    6.1034   65.7009   85.7930 C   0  0  0  0  0  0  0  0  0  0  0  0
    5.4587   66.3912   84.6053 C   0  0  0  0  0  0  0  0  0  0  0  0
 36 37  1  0  0  0
 37 35  1  0  0  0
 35  1  1  0  0  0
  1  2  1  0  0  0
  2  3  2  0  0  0
  3  4  1  0  0  0
  4 24  1  0  0  0
 24 25  2  0  0  0
 24 26  2  0  0  0
 24 27  1  0  0  0
 27 28  1  0  0  0
 28 29  1  0  0  0
 29 30  1  0  0  0
 30 33  1  0  0  0
 33 34  1  0  0  0
 30 31  1  0  0  0
 31 32  1  0  0  0
  4  5  2  0  0  0
  5  6  1  0  0  0
  6  7  1  0  0  0
  7  8  2  0  0  0
  8  9  1  0  0  0
  9 10  1  0  0  0
 10 11  2  0  0  0
 10 12  1  0  0  0
 12 13  1  0  0  0
 12 14  1  0  0  0
 14 15  2  0  0  0
 14 16  1  0  0  0
 16 20  1  0  0  0
 20 21  1  0  0  0
 21 22  1  0  0  0
 21 23  1  0  0  0
 16 17  1  0  0  0
 17 18  1  0  0  0
  6  1  2  0  0  0
 18  7  1  0  0  0
 32 27  1  0  0  0
 17  9  2  0  0  0
 18 19  1  0  0  0
M  END
> <minimizedAffinity>
-9.25038

$$$$



 37 40  0  0  0  0  0  0  0  0999 V2000
   -0.4285   63.5826   85.1153 C   0  0  0  0  0  0  0  0  0  0  0  0
   -1.2441   62.4737   85.3649 C   0  0  0  0  0  0  0  0  0  0  0  0
   -1.8061   61.7704   84.3021 C   0  0  0  0  0  0  0  0  0  0  0  0
   -1.5817   62.2084   82.9947 C   0  0  0  0  0  0  0  0  0  0  0  0
   -0.7532   63.3108   82.7400 C   0  0  0  0  0  0  0  0  0  0  0  0
   -0.1741   64.0196   83.8035 C   0  0  0  0  0  0  0  0  0  0  0  0
    0.6915   65.1684   83.5325 C   0  0  0  0  0  0  0  0  0  0  0  0
    0.5759   66.0239   82.5299 N   0  0  0  0  0  0  0  0  0  0  0  0
    1.6142   66.9108   82.6707 C   0  0  0  0  0  0  0  0  0  0  0  0
    1.9724   68.0341   81.8351 C   0  0  0  0  0  0  0  0  0  0  0  0
    1.3474   68.3369   80.8219 O   0  0  0  0  0  0  0  0  0  0  0  0
    3.1039   68.7259   82.3020 N   0  0  0  0  0  0  0  0  0  0  0  0
    3.5499   69.8711   81.5334 C   0  0  0  0  0  0  0  0  0  0  0  0
    3.8863   68.3944   83.4279 C   0  0  0  0  0  0  0  0  0  0  0  0
    4.8897   69.0478   83.7287 O   0  0  0  0  0  0  0  0  0  0  0  0
    3.4808   67.2862   84.1973 N   0  0  0  0  0  0  0  0  0  0  0  0
    2.3609   66.6052   83.7722 C   0  0  0  0  0  0  0  0  0  0  0  0
    1.7725   65.5063   84.3232 N   0  0  0  0  0  0  0  0  0  0  0  0
    2.0800   64.9959   85.1363 H   0  0  0  0  0  0  0  0  0  0  0  0
    4.2733   66.9235   85.3716 C   0  0  0  0  0  0  0  0  0  0  0  0
    5.1672   65.6878   85.1509 C   0  0  0  0  0  0  0  0  0  0  0  0
    5.3319   64.8577   86.4251 C   0  0  0  0  0  0  0  0  0  0  0  0
    6.5409   66.1281   84.6404 C   0  0  0  0  0  0  0  0  0  0  0  0
   -2.2947   61.3100   81.6281 S   0  0  0  0  0  0  0  0  0  0  0  0
   -1.8728   59.9314   81.7608 O   0  0  0  0  0  0  0  0  0  0  0  0
   -3.6949   61.6678   81.5601 O   0  0  0  0  0  0  0  0  0  0  0  0
   -1.5134   61.9662   80.2808 N   0  0  0  0  0  0  0  0  0  0  0  0
   -2.3425   62.4617   79.1494 C   0  0  0  0  0  0  0  0  0  0  0  0
   -2.0830   61.6435   77.8708 C   0  0  0  0  0  0  0  0  0  0  0  0
   -0.6877   61.7213   77.4150 N   0  0  0  0  0  0  0  0  0  0  0  0
    0.2694   61.9030   78.5200 C   0  0  0  0  0  0  0  0  0  0  0  0
   -0.2110   61.3644   79.8819 C   0  0  0  0  0  0  0  0  0  0  0  0
   -0.3235   60.6823   76.4500 C   0  0  0  0  0  0  0  0  0  0  0  0
   -0.8648   59.2819   76.7254 C   0  0  0  0  0  0  0  0  0  0  0  0
    0.0343   64.2926   86.1939 O   0  0  0  0  0  0  0  0  0  0  0  0
    0.8394   63.3934   88.2554 C   0  0  0  0  0  0  0  0  0  0  0  0
   -0.3936   63.6814   87.4192 C   0  0  0  0  0  0  0  0  0  0  0  0
 36 37  1  0  0  0
 37 35  1  0  0  0
 35  1  1  0  0  0
  1  2  1  0  0  0
  2  3  2  0  0  0
  3  4  1  0  0  0
  4 24  1  0  0  0
 24 25  2  0  0  0
 24 26  2  0  0  0
 24 27  1  0  0  0
 27 28  1  0  0  0
 28 29  1  0  0  0
 29 30  1  0  0  0
 30 33  1  0  0  0
 33 34  1  0  0  0
 30 31  1  0  0  0
 31 32  1  0  0  0
  4  5  2  0  0  0
  5  6  1  0  0  0
  6  7  1  0  0  0
  7  8  2  0  0  0
  8  9  1  0  0  0
  9 10  1  0  0  0
 10 11  2  0  0  0
 10 12  1  0  0  0
 12 13  1  0  0  0
 12 14  1  0  0  0
 14 15  2  0  0  0
 14 16  1  0  0  0
 16 20  1  0  0  0
 20 21  1  0  0  0
 21 22  1  0  0  0
 21 23  1  0  0  0
 16 17  1  0  0  0
 17 18  1  0  0  0
  6  1  2  0  0  0
 18  7  1  0  0  0
 32 27  1  0  0  0
 17  9  2  0  0  0
 18 19  1  0  0  0
M  END
> <minimizedAffinity>
-9.19177

$$$$



 37 40  0  0  0  0  0  0  0  0999 V2000
    1.0577   65.6540   81.2396 C   0  0  0  0  0  0  0  0  0  0  0  0
    1.5001   66.4606   80.1857 C   0  0  0  0  0  0  0  0  0  0  0  0
    2.0635   67.7062   80.4523 C   0  0  0  0  0  0  0  0  0  0  0  0
    2.1418   68.1551   81.7729 C   0  0  0  0  0  0  0  0  0  0  0  0
    1.7126   67.3434   82.8329 C   0  0  0  0  0  0  0  0  0  0  0  0
    1.1531   66.0828   82.5752 C   0  0  0  0  0  0  0  0  0  0  0  0
    0.7083   65.2384   83.6850 C   0  0  0  0  0  0  0  0  0  0  0  0
    1.2921   65.1159   84.8659 N   0  0  0  0  0  0  0  0  0  0  0  0
    0.5384   64.2066   85.5656 C   0  0  0  0  0  0  0  0  0  0  0  0
    0.7406   63.6904   86.9001 C   0  0  0  0  0  0  0  0  0  0  0  0
    1.6883   64.0239   87.6069 O   0  0  0  0  0  0  0  0  0  0  0  0
   -0.2505   62.7720   87.2887 N   0  0  0  0  0  0  0  0  0  0  0  0
   -0.1399   62.1915   88.6123 C   0  0  0  0  0  0  0  0  0  0  0  0
   -1.3297   62.3174   86.5026 C   0  0  0  0  0  0  0  0  0  0  0  0
   -2.1244   61.4736   86.9276 O   0  0  0  0  0  0  0  0  0  0  0  0
   -1.4665   62.8612   85.2102 N   0  0  0  0  0  0  0  0  0  0  0  0
   -0.5195   63.7807   84.8147 C   0  0  0  0  0  0  0  0  0  0  0  0
   -0.4171   64.4398   83.6261 N   0  0  0  0  0  0  0  0  0  0  0  0
   -1.0207   64.3440   82.8244 H   0  0  0  0  0  0  0  0  0  0  0  0
   -2.5791   62.4087   84.3760 C   0  0  0  0  0  0  0  0  0  0  0  0
   -2.1286   61.7153   83.0757 C   0  0  0  0  0  0  0  0  0  0  0  0
   -2.4017   62.5721   81.8383 C   0  0  0  0  0  0  0  0  0  0  0  0
   -2.8380   60.3666   82.9365 C   0  0  0  0  0  0  0  0  0  0  0  0
    2.8662   69.7476   82.1223 S   0  0  0  0  0  0  0  0  0  0  0  0
    2.6915   69.9914   83.5387 O   0  0  0  0  0  0  0  0  0  0  0  0
    4.1761   69.7700   81.5083 O   0  0  0  0  0  0  0  0  0  0  0  0
    1.8682   70.8220   81.2822 N   0  0  0  0  0  0  0  0  0  0  0  0
    2.4931   71.9853   80.5971 C   0  0  0  0  0  0  0  0  0  0  0  0
    2.0150   73.3141   81.2115 C   0  0  0  0  0  0  0  0  0  0  0  0
    0.5626   73.5082   81.0959 N   0  0  0  0  0  0  0  0  0  0  0  0
   -0.1903   72.2420   81.1111 C   0  0  0  0  0  0  0  0  0  0  0  0
    0.5143   71.0838   81.8444 C   0  0  0  0  0  0  0  0  0  0  0  0
    0.0343   74.5490   81.9797 C   0  0  0  0  0  0  0  0  0  0  0  0
   -0.4610   75.8248   81.3039 C   0  0  0  0  0  0  0  0  0  0  0  0
    0.4347   64.4732   80.9243 O   0  0  0  0  0  0  0  0  0  0  0  0
    0.4330   62.8351   79.1855 C   0  0  0  0  0  0  0  0  0  0  0  0
    0.3450   64.3167   79.5011 C   0  0  0  0  0  0  0  0  0  0  0  0
 36 37  1  0  0  0
 37 35  1  0  0  0
 35  1  1  0  0  0
  1  2  1  0  0  0
  2  3  2  0  0  0
  3  4  1  0  0  0
  4 24  1  0  0  0
 24 25  2  0  0  0
 24 26  2  0  0  0
 24 27  1  0  0  0
 27 28  1  0  0  0
 28 29  1  0  0  0
 29 30  1  0  0  0
 30 33  1  0  0  0
 33 34  1  0  0  0
 30 31  1  0  0  0
 31 32  1  0  0  0
  4  5  2  0  0  0
  5  6  1  0  0  0
  6  7  1  0  0  0
  7  8  2  0  0  0
  8  9  1  0  0  0
  9 10  1  0  0  0
 10 11  2  0  0  0
 10 12  1  0  0  0
 12 13  1  0  0  0
 12 14  1  0  0  0
 14 15  2  0  0  0
 14 16  1  0  0  0
 16 20  1  0  0  0
 20 21  1  0  0  0
 21 22  1  0  0  0
 21 23  1  0  0  0
 16 17  1  0  0  0
 17 18  1  0  0  0
  6  1  2  0  0  0
 18  7  1  0  0  0
 32 27  1  0  0  0
 17  9  2  0  0  0
 18 19  1  0  0  0
M  END
> <minimizedAffinity>
-9.16116

$$$$



 37 40  0  0  0  0  0  0  0  0999 V2000
    0.8732   66.5493   80.3128 C   0  0  0  0  0  0  0  0  0  0  0  0
    1.6506   67.7007   80.1480 C   0  0  0  0  0  0  0  0  0  0  0  0
    2.4426   68.1612   81.1972 C   0  0  0  0  0  0  0  0  0  0  0  0
    2.4185   67.4882   82.4212 C   0  0  0  0  0  0  0  0  0  0  0  0
    1.6517   66.3257   82.5855 C   0  0  0  0  0  0  0  0  0  0  0  0
    0.8585   65.8481   81.5312 C   0  0  0  0  0  0  0  0  0  0  0  0
    0.0614   64.6331   81.7069 C   0  0  0  0  0  0  0  0  0  0  0  0
   -0.2401   63.7458   80.7731 N   0  0  0  0  0  0  0  0  0  0  0  0
   -1.0164   62.7976   81.3920 C   0  0  0  0  0  0  0  0  0  0  0  0
   -1.6348   61.6184   80.8305 C   0  0  0  0  0  0  0  0  0  0  0  0
   -1.5374   61.3158   79.6440 O   0  0  0  0  0  0  0  0  0  0  0  0
   -2.3553   60.8723   81.7798 N   0  0  0  0  0  0  0  0  0  0  0  0
   -3.0176   59.6681   81.3189 C   0  0  0  0  0  0  0  0  0  0  0  0
   -2.5404   61.1976   83.1397 C   0  0  0  0  0  0  0  0  0  0  0  0
   -3.2293   60.4914   83.8819 O   0  0  0  0  0  0  0  0  0  0  0  0
   -1.9104   62.3622   83.6207 N   0  0  0  0  0  0  0  0  0  0  0  0
   -1.1796   63.0985   82.7138 C   0  0  0  0  0  0  0  0  0  0  0  0
   -0.4906   64.2570   82.9160 N   0  0  0  0  0  0  0  0  0  0  0  0
   -0.4193   64.7793   83.7752 H   0  0  0  0  0  0  0  0  0  0  0  0
   -2.0841   62.7200   85.0280 C   0  0  0  0  0  0  0  0  0  0  0  0
   -0.8469   62.4174   85.8953 C   0  0  0  0  0  0  0  0  0  0  0  0
   -1.2080   61.6603   87.1745 C   0  0  0  0  0  0  0  0  0  0  0  0
   -0.1338   63.7234   86.2523 C   0  0  0  0  0  0  0  0  0  0  0  0
    3.4337   68.0697   83.7682 S   0  0  0  0  0  0  0  0  0  0  0  0
    4.3339   69.0636   83.2223 O   0  0  0  0  0  0  0  0  0  0  0  0
    2.5510   68.3760   84.8728 O   0  0  0  0  0  0  0  0  0  0  0  0
    4.3483   66.7099   84.1814 N   0  0  0  0  0  0  0  0  0  0  0  0
    3.6782   65.5946   84.9027 C   0  0  0  0  0  0  0  0  0  0  0  0
    4.2770   65.4034   86.3086 C   0  0  0  0  0  0  0  0  0  0  0  0
    5.7073   65.0661   86.2804 N   0  0  0  0  0  0  0  0  0  0  0  0
    6.4129   65.6467   85.1248 C   0  0  0  0  0  0  0  0  0  0  0  0
    5.7723   66.9290   84.5582 C   0  0  0  0  0  0  0  0  0  0  0  0
    6.3816   65.2467   87.5673 C   0  0  0  0  0  0  0  0  0  0  0  0
    5.4838   65.5306   88.7687 C   0  0  0  0  0  0  0  0  0  0  0  0
    0.0469   66.1818   79.2813 O   0  0  0  0  0  0  0  0  0  0  0  0
   -0.2066   64.7172   77.4111 C   0  0  0  0  0  0  0  0  0  0  0  0
    0.7847   65.4770   78.2728 C   0  0  0  0  0  0  0  0  0  0  0  0
 36 37  1  0  0  0
 37 35  1  0  0  0
 35  1  1  0  0  0
  1  2  1  0  0  0
  2  3  2  0  0  0
  3  4  1  0  0  0
  4 24  1  0  0  0
 24 25  2  0  0  0
 24 26  2  0  0  0
 24 27  1  0  0  0
 27 28  1  0  0  0
 28 29  1  0  0  0
 29 30  1  0  0  0
 30 33  1  0  0  0
 33 34  1  0  0  0
 30 31  1  0  0  0
 31 32  1  0  0  0
  4  5  2  0  0  0
  5  6  1  0  0  0
  6  7  1  0  0  0
  7  8  2  0  0  0
  8  9  1  0  0  0
  9 10  1  0  0  0
 10 11  2  0  0  0
 10 12  1  0  0  0
 12 13  1  0  0  0
 12 14  1  0  0  0
 14 15  2  0  0  0
 14 16  1  0  0  0
 16 20  1  0  0  0
 20 21  1  0  0  0
 21 22  1  0  0  0
 21 23  1  0  0  0
 16 17  1  0  0  0
 17 18  1  0  0  0
  6  1  2  0  0  0
 18  7  1  0  0  0
 32 27  1  0  0  0
 17  9  2  0  0  0
 18 19  1  0  0  0
M  END
> <minimizedAffinity>
-9.15643

$$$$
