


 34 37  0  0  0  0  0  0  0  0999 V2000
    1.3182   67.3726   82.1122 C   0  0  0  0  0  0  0  0  0  0  0  0
    2.1581   68.4948   82.1438 C   0  0  0  0  0  0  0  0  0  0  0  0
    3.0984   68.6606   83.1639 C   0  0  0  0  0  0  0  0  0  0  0  0
    3.2238   67.7081   84.1754 C   0  0  0  0  0  0  0  0  0  0  0  0
    2.3876   66.5850   84.1493 C   0  0  0  0  0  0  0  0  0  0  0  0
    1.4323   66.3993   83.1297 C   0  0  0  0  0  0  0  0  0  0  0  0
    0.5889   65.1505   83.2135 C   0  0  0  0  0  0  0  0  0  0  0  0
    0.1781   64.7228   84.3786 N   0  0  0  0  0  0  0  0  0  0  0  0
   -0.5903   63.5595   84.3233 C   0  0  0  0  0  0  0  0  0  0  0  0
   -1.1867   62.8244   85.3604 C   0  0  0  0  0  0  0  0  0  0  0  0
   -1.8434   61.7562   84.8677 N   0  0  0  0  0  0  0  0  0  0  0  0
   -1.6472   61.8394   83.5279 N   0  0  0  0  0  0  0  0  0  0  0  0
   -2.2156   60.8423   82.6535 C   0  0  0  0  0  0  0  0  0  0  0  0
   -0.8963   62.9127   83.1649 C   0  0  0  0  0  0  0  0  0  0  0  0
   -0.4594   63.3668   81.8974 C   0  0  0  0  0  0  0  0  0  0  0  0
   -0.7043   62.8356   80.8208 O   0  0  0  0  0  0  0  0  0  0  0  0
    0.2951   64.5110   82.0127 N   0  0  0  0  0  0  0  0  0  0  0  0
    0.6389   64.9019   81.1453 H   0  0  0  0  0  0  0  0  0  0  0  0
   -1.1576   63.0965   86.8227 C   0  0  0  0  0  0  0  0  0  0  0  0
   -2.5173   62.8986   87.4748 C   0  0  0  0  0  0  0  0  0  0  0  0
    0.3790   67.1664   81.1318 O   0  0  0  0  0  0  0  0  0  0  0  0
    1.6711   66.2706   79.3441 C   0  0  0  0  0  0  0  0  0  0  0  0
    0.7551   67.4029   79.7735 C   0  0  0  0  0  0  0  0  0  0  0  0
    4.2314   67.8940   85.2821 C   0  0  0  0  0  0  0  0  0  0  0  0
    5.5917   67.3286   84.8709 C   0  0  0  0  0  0  0  0  0  0  0  0
    6.6464   67.3224   86.0030 C   0  0  0  0  0  0  0  0  0  0  0  0
    6.4195   65.8017   86.1846 C   0  0  0  0  0  0  0  0  0  0  0  0
    5.7690   65.7915   84.7811 C   0  0  0  0  0  0  0  0  0  0  0  0
    5.5474   65.3454   87.3902 C   0  0  0  0  0  0  0  0  0  0  0  0
    5.8069   65.5228   88.5843 O   0  0  0  0  0  0  0  0  0  0  0  0
    4.3804   64.7124   87.0216 N   0  0  0  0  0  0  0  0  0  0  0  0
    3.4774   64.4146   88.0667 O   0  0  0  0  0  0  0  0  0  0  0  0
    4.0116   64.7046   86.0773 H   0  0  0  0  0  0  0  0  0  0  0  0
    3.9656   64.7293   88.8597 H   0  0  0  0  0  0  0  0  0  0  0  0
 22 23  1  0  0  0
 23 21  1  0  0  0
 21  1  1  0  0  0
  1  2  1  0  0  0
  2  3  2  0  0  0
  3  4  1  0  0  0
  4 24  1  0  0  0
 24 25  1  0  0  0
 25 26  1  0  0  0
 26 27  1  0  0  0
 27 29  1  0  0  0
 29 30  2  0  0  0
 29 31  1  0  0  0
 31 32  1  0  0  0
 27 28  1  0  0  0
  4  5  2  0  0  0
  5  6  1  0  0  0
  6  7  1  0  0  0
  7  8  2  0  0  0
  8  9  1  0  0  0
  9 10  1  0  0  0
 10 19  1  0  0  0
 19 20  1  0  0  0
 10 11  2  0  0  0
 11 12  1  0  0  0
 12 13  1  0  0  0
 12 14  1  0  0  0
 14 15  1  0  0  0
 15 16  2  0  0  0
 15 17  1  0  0  0
  6  1  2  0  0  0
 17  7  1  0  0  0
 28 25  1  0  0  0
 14  9  2  0  0  0
 31 33  1  0  0  0
 32 34  1  0  0  0
 17 18  1  0  0  0
M  END
> <minimizedAffinity>
-10.54242

$$$$



 34 37  0  0  0  0  0  0  0  0999 V2000
   -0.2801   63.6433   85.6366 C   0  0  0  0  0  0  0  0  0  0  0  0
   -1.3837   62.7871   85.5158 C   0  0  0  0  0  0  0  0  0  0  0  0
   -2.0099   62.5909   84.2822 C   0  0  0  0  0  0  0  0  0  0  0  0
   -1.5471   63.2434   83.1394 C   0  0  0  0  0  0  0  0  0  0  0  0
   -0.4450   64.1001   83.2537 C   0  0  0  0  0  0  0  0  0  0  0  0
    0.2004   64.3121   84.4888 C   0  0  0  0  0  0  0  0  0  0  0  0
    1.3746   65.2602   84.4833 C   0  0  0  0  0  0  0  0  0  0  0  0
    1.3265   66.3472   83.7587 N   0  0  0  0  0  0  0  0  0  0  0  0
    2.4730   67.1388   83.8367 C   0  0  0  0  0  0  0  0  0  0  0  0
    2.7724   68.3548   83.2016 C   0  0  0  0  0  0  0  0  0  0  0  0
    4.0000   68.7838   83.5533 N   0  0  0  0  0  0  0  0  0  0  0  0
    4.4506   67.8281   84.4042 N   0  0  0  0  0  0  0  0  0  0  0  0
    5.7608   67.9505   84.9961 C   0  0  0  0  0  0  0  0  0  0  0  0
    3.5571   66.8221   84.5971 C   0  0  0  0  0  0  0  0  0  0  0  0
    3.6204   65.6494   85.3874 C   0  0  0  0  0  0  0  0  0  0  0  0
    4.5610   65.3109   86.0958 O   0  0  0  0  0  0  0  0  0  0  0  0
    2.4682   64.9076   85.2687 N   0  0  0  0  0  0  0  0  0  0  0  0
    2.4349   64.0548   85.8118 H   0  0  0  0  0  0  0  0  0  0  0  0
    1.9296   69.1381   82.2585 C   0  0  0  0  0  0  0  0  0  0  0  0
    1.9740   68.5810   80.8440 C   0  0  0  0  0  0  0  0  0  0  0  0
    0.3673   63.8686   86.8264 O   0  0  0  0  0  0  0  0  0  0  0  0
    0.3307   62.6775   88.8874 C   0  0  0  0  0  0  0  0  0  0  0  0
   -0.3742   63.7211   88.0392 C   0  0  0  0  0  0  0  0  0  0  0  0
   -2.2310   63.0396   81.8108 C   0  0  0  0  0  0  0  0  0  0  0  0
   -1.2066   62.7086   80.7243 C   0  0  0  0  0  0  0  0  0  0  0  0
   -0.7321   61.2358   80.7252 C   0  0  0  0  0  0  0  0  0  0  0  0
   -1.6477   60.9568   79.5083 C   0  0  0  0  0  0  0  0  0  0  0  0
   -1.6993   62.4847   79.2721 C   0  0  0  0  0  0  0  0  0  0  0  0
   -2.9921   60.2197   79.7759 C   0  0  0  0  0  0  0  0  0  0  0  0
   -4.0866   60.7538   79.9796 O   0  0  0  0  0  0  0  0  0  0  0  0
   -2.8865   58.8463   79.7455 N   0  0  0  0  0  0  0  0  0  0  0  0
   -4.0999   58.1271   79.8277 O   0  0  0  0  0  0  0  0  0  0  0  0
   -2.0766   58.3459   79.3970 H   0  0  0  0  0  0  0  0  0  0  0  0
   -4.7620   58.8467   79.9283 H   0  0  0  0  0  0  0  0  0  0  0  0
 22 23  1  0  0  0
 23 21  1  0  0  0
 21  1  1  0  0  0
  1  2  1  0  0  0
  2  3  2  0  0  0
  3  4  1  0  0  0
  4 24  1  0  0  0
 24 25  1  0  0  0
 25 26  1  0  0  0
 26 27  1  0  0  0
 27 29  1  0  0  0
 29 30  2  0  0  0
 29 31  1  0  0  0
 31 32  1  0  0  0
 27 28  1  0  0  0
  4  5  2  0  0  0
  5  6  1  0  0  0
  6  7  1  0  0  0
  7  8  2  0  0  0
  8  9  1  0  0  0
  9 10  1  0  0  0
 10 19  1  0  0  0
 19 20  1  0  0  0
 10 11  2  0  0  0
 11 12  1  0  0  0
 12 13  1  0  0  0
 12 14  1  0  0  0
 14 15  1  0  0  0
 15 16  2  0  0  0
 15 17  1  0  0  0
  6  1  2  0  0  0
 17  7  1  0  0  0
 28 25  1  0  0  0
 14  9  2  0  0  0
 31 33  1  0  0  0
 32 34  1  0  0  0
 17 18  1  0  0  0
M  END
> <minimizedAffinity>
-10.48968

$$$$



 34 37  0  0  0  0  0  0  0  0999 V2000
    1.4996   66.9608   82.6544 C   0  0  0  0  0  0  0  0  0  0  0  0
    2.3078   67.9876   82.1464 C   0  0  0  0  0  0  0  0  0  0  0  0
    3.4479   68.4121   82.8336 C   0  0  0  0  0  0  0  0  0  0  0  0
    3.8092   67.8192   84.0436 C   0  0  0  0  0  0  0  0  0  0  0  0
    3.0057   66.7930   84.5563 C   0  0  0  0  0  0  0  0  0  0  0  0
    1.8515   66.3507   83.8790 C   0  0  0  0  0  0  0  0  0  0  0  0
    1.0674   65.2402   84.5347 C   0  0  0  0  0  0  0  0  0  0  0  0
    0.2742   64.4930   83.8126 N   0  0  0  0  0  0  0  0  0  0  0  0
   -0.3955   63.5043   84.5343 C   0  0  0  0  0  0  0  0  0  0  0  0
   -1.3150   62.5374   84.0971 C   0  0  0  0  0  0  0  0  0  0  0  0
   -1.7264   61.7738   85.1279 N   0  0  0  0  0  0  0  0  0  0  0  0
   -1.0571   62.2757   86.1959 N   0  0  0  0  0  0  0  0  0  0  0  0
   -1.2498   61.6968   87.5035 C   0  0  0  0  0  0  0  0  0  0  0  0
   -0.2473   63.3191   85.8751 C   0  0  0  0  0  0  0  0  0  0  0  0
    0.6098   64.1200   86.6673 C   0  0  0  0  0  0  0  0  0  0  0  0
    0.7915   64.0017   87.8733 O   0  0  0  0  0  0  0  0  0  0  0  0
    1.2387   65.0777   85.9064 N   0  0  0  0  0  0  0  0  0  0  0  0
    1.8758   65.6871   86.4026 H   0  0  0  0  0  0  0  0  0  0  0  0
   -1.8291   62.3052   82.7205 C   0  0  0  0  0  0  0  0  0  0  0  0
   -2.5865   63.5065   82.1759 C   0  0  0  0  0  0  0  0  0  0  0  0
    0.3701   66.5105   82.0164 O   0  0  0  0  0  0  0  0  0  0  0  0
    0.3071   64.9499   80.2197 C   0  0  0  0  0  0  0  0  0  0  0  0
    0.3885   66.4201   80.5903 C   0  0  0  0  0  0  0  0  0  0  0  0
    5.0337   68.2861   84.7900 C   0  0  0  0  0  0  0  0  0  0  0  0
    6.2393   67.4102   84.4457 C   0  0  0  0  0  0  0  0  0  0  0  0
    7.2381   67.2164   85.6114 C   0  0  0  0  0  0  0  0  0  0  0  0
    6.6676   65.7959   85.8432 C   0  0  0  0  0  0  0  0  0  0  0  0
    6.0650   65.8704   84.4204 C   0  0  0  0  0  0  0  0  0  0  0  0
    5.6866   65.6025   87.0358 C   0  0  0  0  0  0  0  0  0  0  0  0
    5.6232   66.3077   88.0474 O   0  0  0  0  0  0  0  0  0  0  0  0
    4.8197   64.5439   86.8740 N   0  0  0  0  0  0  0  0  0  0  0  0
    3.8067   64.4145   87.8505 O   0  0  0  0  0  0  0  0  0  0  0  0
    4.6832   64.0492   85.9997 H   0  0  0  0  0  0  0  0  0  0  0  0
    4.0153   65.1521   88.4659 H   0  0  0  0  0  0  0  0  0  0  0  0
 22 23  1  0  0  0
 23 21  1  0  0  0
 21  1  1  0  0  0
  1  2  1  0  0  0
  2  3  2  0  0  0
  3  4  1  0  0  0
  4 24  1  0  0  0
 24 25  1  0  0  0
 25 26  1  0  0  0
 26 27  1  0  0  0
 27 29  1  0  0  0
 29 30  2  0  0  0
 29 31  1  0  0  0
 31 32  1  0  0  0
 27 28  1  0  0  0
  4  5  2  0  0  0
  5  6  1  0  0  0
  6  7  1  0  0  0
  7  8  2  0  0  0
  8  9  1  0  0  0
  9 10  1  0  0  0
 10 19  1  0  0  0
 19 20  1  0  0  0
 10 11  2  0  0  0
 11 12  1  0  0  0
 12 13  1  0  0  0
 12 14  1  0  0  0
 14 15  1  0  0  0
 15 16  2  0  0  0
 15 17  1  0  0  0
  6  1  2  0  0  0
 17  7  1  0  0  0
 28 25  1  0  0  0
 14  9  2  0  0  0
 31 33  1  0  0  0
 32 34  1  0  0  0
 17 18  1  0  0  0
M  END
> <minimizedAffinity>
-10.41311

$$$$



 34 37  0  0  0  0  0  0  0  0999 V2000
   -0.2245   63.1282   85.1856 C   0  0  0  0  0  0  0  0  0  0  0  0
    0.4248   64.0042   86.0669 C   0  0  0  0  0  0  0  0  0  0  0  0
    1.0418   65.1676   85.5996 C   0  0  0  0  0  0  0  0  0  0  0  0
    1.0226   65.4849   84.2414 C   0  0  0  0  0  0  0  0  0  0  0  0
    0.3755   64.6136   83.3561 C   0  0  0  0  0  0  0  0  0  0  0  0
   -0.2522   63.4349   83.8070 C   0  0  0  0  0  0  0  0  0  0  0  0
   -0.9129   62.5769   82.7557 C   0  0  0  0  0  0  0  0  0  0  0  0
   -0.7555   62.8658   81.4905 N   0  0  0  0  0  0  0  0  0  0  0  0
   -1.4172   62.0004   80.6187 C   0  0  0  0  0  0  0  0  0  0  0  0
   -1.4754   62.0065   79.2157 C   0  0  0  0  0  0  0  0  0  0  0  0
   -2.2330   60.9865   78.7680 N   0  0  0  0  0  0  0  0  0  0  0  0
   -2.6381   60.3570   79.8995 N   0  0  0  0  0  0  0  0  0  0  0  0
   -3.4853   59.1924   79.8117 C   0  0  0  0  0  0  0  0  0  0  0  0
   -2.1662   60.9412   81.0324 C   0  0  0  0  0  0  0  0  0  0  0  0
   -2.3425   60.6169   82.3989 C   0  0  0  0  0  0  0  0  0  0  0  0
   -2.9967   59.6773   82.8354 O   0  0  0  0  0  0  0  0  0  0  0  0
   -1.6733   61.5034   83.2102 N   0  0  0  0  0  0  0  0  0  0  0  0
   -1.7460   61.3325   84.2046 H   0  0  0  0  0  0  0  0  0  0  0  0
   -0.8333   62.9560   78.2673 C   0  0  0  0  0  0  0  0  0  0  0  0
    0.6694   62.7444   78.1660 C   0  0  0  0  0  0  0  0  0  0  0  0
   -0.8436   61.9735   85.5969 O   0  0  0  0  0  0  0  0  0  0  0  0
   -2.7764   62.6001   86.8376 C   0  0  0  0  0  0  0  0  0  0  0  0
   -1.4110   61.9396   86.9081 C   0  0  0  0  0  0  0  0  0  0  0  0
    1.6988   66.7351   83.7369 C   0  0  0  0  0  0  0  0  0  0  0  0
    1.4353   66.9226   82.2421 C   0  0  0  0  0  0  0  0  0  0  0  0
    0.4645   68.0802   81.9078 C   0  0  0  0  0  0  0  0  0  0  0  0
    1.6731   68.9506   81.4852 C   0  0  0  0  0  0  0  0  0  0  0  0
    2.4987   67.6468   81.3780 C   0  0  0  0  0  0  0  0  0  0  0  0
    2.1609   70.0363   82.4880 C   0  0  0  0  0  0  0  0  0  0  0  0
    3.1667   69.9685   83.2011 O   0  0  0  0  0  0  0  0  0  0  0  0
    1.3660   71.1613   82.5165 N   0  0  0  0  0  0  0  0  0  0  0  0
    1.8442   72.2414   83.2918 O   0  0  0  0  0  0  0  0  0  0  0  0
    0.6485   71.3680   81.8309 H   0  0  0  0  0  0  0  0  0  0  0  0
    2.6727   71.8738   83.6723 H   0  0  0  0  0  0  0  0  0  0  0  0
 22 23  1  0  0  0
 23 21  1  0  0  0
 21  1  1  0  0  0
  1  2  1  0  0  0
  2  3  2  0  0  0
  3  4  1  0  0  0
  4 24  1  0  0  0
 24 25  1  0  0  0
 25 26  1  0  0  0
 26 27  1  0  0  0
 27 29  1  0  0  0
 29 30  2  0  0  0
 29 31  1  0  0  0
 31 32  1  0  0  0
 27 28  1  0  0  0
  4  5  2  0  0  0
  5  6  1  0  0  0
  6  7  1  0  0  0
  7  8  2  0  0  0
  8  9  1  0  0  0
  9 10  1  0  0  0
 10 19  1  0  0  0
 19 20  1  0  0  0
 10 11  2  0  0  0
 11 12  1  0  0  0
 12 13  1  0  0  0
 12 14  1  0  0  0
 14 15  1  0  0  0
 15 16  2  0  0  0
 15 17  1  0  0  0
  6  1  2  0  0  0
 17  7  1  0  0  0
 28 25  1  0  0  0
 14  9  2  0  0  0
 31 33  1  0  0  0
 32 34  1  0  0  0
 17 18  1  0  0  0
M  END
> <minimizedAffinity>
-10.32501

$$$$



 34 37  0  0  0  0  0  0  0  0999 V2000
   -0.1579   63.6864   85.0730 C   0  0  0  0  0  0  0  0  0  0  0  0
   -0.9694   62.5434   85.0999 C   0  0  0  0  0  0  0  0  0  0  0  0
   -1.2910   61.8621   83.9232 C   0  0  0  0  0  0  0  0  0  0  0  0
   -0.8077   62.3049   82.6918 C   0  0  0  0  0  0  0  0  0  0  0  0
    0.0033   63.4462   82.6584 C   0  0  0  0  0  0  0  0  0  0  0  0
    0.3389   64.1481   83.8338 C   0  0  0  0  0  0  0  0  0  0  0  0
    1.2172   65.3640   83.6669 C   0  0  0  0  0  0  0  0  0  0  0  0
    2.2870   65.4973   84.4064 N   0  0  0  0  0  0  0  0  0  0  0  0
    3.0126   66.6631   84.1591 C   0  0  0  0  0  0  0  0  0  0  0  0
    4.1932   67.1326   84.7570 C   0  0  0  0  0  0  0  0  0  0  0  0
    4.5592   68.3132   84.2212 N   0  0  0  0  0  0  0  0  0  0  0  0
    3.6003   68.5647   83.2950 N   0  0  0  0  0  0  0  0  0  0  0  0
    3.6614   69.7701   82.5042 C   0  0  0  0  0  0  0  0  0  0  0  0
    2.6527   67.5924   83.2313 C   0  0  0  0  0  0  0  0  0  0  0  0
    1.4982   67.4585   82.4233 C   0  0  0  0  0  0  0  0  0  0  0  0
    1.1234   68.2531   81.5692 O   0  0  0  0  0  0  0  0  0  0  0  0
    0.8215   66.2965   82.7123 N   0  0  0  0  0  0  0  0  0  0  0  0
   -0.0143   66.1259   82.1686 H   0  0  0  0  0  0  0  0  0  0  0  0
    5.0004   66.4985   85.8339 C   0  0  0  0  0  0  0  0  0  0  0  0
    5.6098   65.1754   85.3967 C   0  0  0  0  0  0  0  0  0  0  0  0
    0.1844   64.3895   86.2017 O   0  0  0  0  0  0  0  0  0  0  0  0
   -0.2830   63.6033   88.3997 C   0  0  0  0  0  0  0  0  0  0  0  0
    0.7587   63.6736   87.2972 C   0  0  0  0  0  0  0  0  0  0  0  0
   -1.1650   61.5751   81.4212 C   0  0  0  0  0  0  0  0  0  0  0  0
   -1.9187   62.5000   80.4642 C   0  0  0  0  0  0  0  0  0  0  0  0
   -1.6983   62.1812   78.9662 C   0  0  0  0  0  0  0  0  0  0  0  0
   -3.0934   61.5115   78.9198 C   0  0  0  0  0  0  0  0  0  0  0  0
   -3.4321   62.2633   80.2286 C   0  0  0  0  0  0  0  0  0  0  0  0
   -3.1438   59.9562   78.9443 C   0  0  0  0  0  0  0  0  0  0  0  0
   -2.2662   59.1932   78.5293 O   0  0  0  0  0  0  0  0  0  0  0  0
   -4.2895   59.4480   79.5167 N   0  0  0  0  0  0  0  0  0  0  0  0
   -4.3220   58.0483   79.7065 O   0  0  0  0  0  0  0  0  0  0  0  0
   -4.9536   60.0007   80.0470 H   0  0  0  0  0  0  0  0  0  0  0  0
   -3.4637   57.7658   79.3195 H   0  0  0  0  0  0  0  0  0  0  0  0
 22 23  1  0  0  0
 23 21  1  0  0  0
 21  1  1  0  0  0
  1  2  1  0  0  0
  2  3  2  0  0  0
  3  4  1  0  0  0
  4 24  1  0  0  0
 24 25  1  0  0  0
 25 26  1  0  0  0
 26 27  1  0  0  0
 27 29  1  0  0  0
 29 30  2  0  0  0
 29 31  1  0  0  0
 31 32  1  0  0  0
 27 28  1  0  0  0
  4  5  2  0  0  0
  5  6  1  0  0  0
  6  7  1  0  0  0
  7  8  2  0  0  0
  8  9  1  0  0  0
  9 10  1  0  0  0
 10 19  1  0  0  0
 19 20  1  0  0  0
 10 11  2  0  0  0
 11 12  1  0  0  0
 12 13  1  0  0  0
 12 14  1  0  0  0
 14 15  1  0  0  0
 15 16  2  0  0  0
 15 17  1  0  0  0
  6  1  2  0  0  0
 17  7  1  0  0  0
 28 25  1  0  0  0
 14  9  2  0  0  0
 31 33  1  0  0  0
 32 34  1  0  0  0
 17 18  1  0  0  0
M  END
> <minimizedAffinity>
-10.24755

$$$$



 34 37  0  0  0  0  0  0  0  0999 V2000
    0.0134   63.6040   84.6919 C   0  0  0  0  0  0  0  0  0  0  0  0
    0.6343   64.6302   85.4179 C   0  0  0  0  0  0  0  0  0  0  0  0
    1.1288   65.7681   84.7752 C   0  0  0  0  0  0  0  0  0  0  0  0
    1.0125   65.9092   83.3923 C   0  0  0  0  0  0  0  0  0  0  0  0
    0.3932   64.8874   82.6615 C   0  0  0  0  0  0  0  0  0  0  0  0
   -0.1116   63.7314   83.2906 C   0  0  0  0  0  0  0  0  0  0  0  0
   -0.7542   62.7009   82.3946 C   0  0  0  0  0  0  0  0  0  0  0  0
   -0.4136   62.6351   81.1342 N   0  0  0  0  0  0  0  0  0  0  0  0
   -1.0791   61.6440   80.4120 C   0  0  0  0  0  0  0  0  0  0  0  0
   -0.9723   61.2924   79.0567 C   0  0  0  0  0  0  0  0  0  0  0  0
   -1.8021   60.2721   78.7647 N   0  0  0  0  0  0  0  0  0  0  0  0
   -2.4165   60.0007   79.9434 N   0  0  0  0  0  0  0  0  0  0  0  0
   -3.3957   58.9437   80.0187 C   0  0  0  0  0  0  0  0  0  0  0  0
   -2.0057   60.8082   80.9567 C   0  0  0  0  0  0  0  0  0  0  0  0
   -2.3815   60.8682   82.3201 C   0  0  0  0  0  0  0  0  0  0  0  0
   -3.2016   60.1438   82.8714 O   0  0  0  0  0  0  0  0  0  0  0  0
   -1.6988   61.8631   82.9803 N   0  0  0  0  0  0  0  0  0  0  0  0
   -1.9088   61.9637   83.9648 H   0  0  0  0  0  0  0  0  0  0  0  0
   -0.1033   61.8949   78.0103 C   0  0  0  0  0  0  0  0  0  0  0  0
   -0.7550   63.0928   77.3369 C   0  0  0  0  0  0  0  0  0  0  0  0
   -0.4868   62.4675   85.2782 O   0  0  0  0  0  0  0  0  0  0  0  0
   -2.5980   62.7947   86.3287 C   0  0  0  0  0  0  0  0  0  0  0  0
   -1.1118   62.5848   86.5580 C   0  0  0  0  0  0  0  0  0  0  0  0
    1.5568   67.1327   82.6985 C   0  0  0  0  0  0  0  0  0  0  0  0
    0.9107   67.3023   81.3226 C   0  0  0  0  0  0  0  0  0  0  0  0
    0.4938   68.7548   80.9905 C   0  0  0  0  0  0  0  0  0  0  0  0
    1.7367   68.8857   80.0766 C   0  0  0  0  0  0  0  0  0  0  0  0
    1.8186   67.3410   80.0672 C   0  0  0  0  0  0  0  0  0  0  0  0
    2.9581   69.6723   80.6350 C   0  0  0  0  0  0  0  0  0  0  0  0
    3.4033   69.6043   81.7847 O   0  0  0  0  0  0  0  0  0  0  0  0
    3.5681   70.4829   79.7027 N   0  0  0  0  0  0  0  0  0  0  0  0
    4.7721   71.1011   80.1086 O   0  0  0  0  0  0  0  0  0  0  0  0
    3.3834   70.4429   78.7067 H   0  0  0  0  0  0  0  0  0  0  0  0
    4.8577   70.7986   81.0400 H   0  0  0  0  0  0  0  0  0  0  0  0
 22 23  1  0  0  0
 23 21  1  0  0  0
 21  1  1  0  0  0
  1  2  1  0  0  0
  2  3  2  0  0  0
  3  4  1  0  0  0
  4 24  1  0  0  0
 24 25  1  0  0  0
 25 26  1  0  0  0
 26 27  1  0  0  0
 27 29  1  0  0  0
 29 30  2  0  0  0
 29 31  1  0  0  0
 31 32  1  0  0  0
 27 28  1  0  0  0
  4  5  2  0  0  0
  5  6  1  0  0  0
  6  7  1  0  0  0
  7  8  2  0  0  0
  8  9  1  0  0  0
  9 10  1  0  0  0
 10 19  1  0  0  0
 19 20  1  0  0  0
 10 11  2  0  0  0
 11 12  1  0  0  0
 12 13  1  0  0  0
 12 14  1  0  0  0
 14 15  1  0  0  0
 15 16  2  0  0  0
 15 17  1  0  0  0
  6  1  2  0  0  0
 17  7  1  0  0  0
 28 25  1  0  0  0
 14  9  2  0  0  0
 31 33  1  0  0  0
 32 34  1  0  0  0
 17 18  1  0  0  0
M  END
> <minimizedAffinity>
-10.21001

$$$$



 34 37  0  0  0  0  0  0  0  0999 V2000
    3.3917   66.0071   85.0056 C   0  0  0  0  0  0  0  0  0  0  0  0
    4.2799   66.9243   84.4266 C   0  0  0  0  0  0  0  0  0  0  0  0
    3.8871   67.7246   83.3506 C   0  0  0  0  0  0  0  0  0  0  0  0
    2.5967   67.6294   82.8291 C   0  0  0  0  0  0  0  0  0  0  0  0
    1.7048   66.7148   83.4033 C   0  0  0  0  0  0  0  0  0  0  0  0
    2.0816   65.8981   84.4885 C   0  0  0  0  0  0  0  0  0  0  0  0
    1.0323   64.9509   85.0173 C   0  0  0  0  0  0  0  0  0  0  0  0
    0.2966   64.2664   84.1811 N   0  0  0  0  0  0  0  0  0  0  0  0
   -0.6371   63.4291   84.7925 C   0  0  0  0  0  0  0  0  0  0  0  0
   -1.5829   62.5644   84.2185 C   0  0  0  0  0  0  0  0  0  0  0  0
   -2.2943   61.9372   85.1754 N   0  0  0  0  0  0  0  0  0  0  0  0
   -1.7820   62.4200   86.3351 N   0  0  0  0  0  0  0  0  0  0  0  0
   -2.3088   61.9660   87.5993 C   0  0  0  0  0  0  0  0  0  0  0  0
   -0.7830   63.3212   86.1420 C   0  0  0  0  0  0  0  0  0  0  0  0
    0.0086   64.0553   87.0575 C   0  0  0  0  0  0  0  0  0  0  0  0
   -0.0685   63.9996   88.2791 O   0  0  0  0  0  0  0  0  0  0  0  0
    0.9061   64.8646   86.4007 N   0  0  0  0  0  0  0  0  0  0  0  0
    1.5147   65.4175   86.9900 H   0  0  0  0  0  0  0  0  0  0  0  0
   -1.8452   62.3056   82.7772 C   0  0  0  0  0  0  0  0  0  0  0  0
   -2.5168   63.4851   82.0909 C   0  0  0  0  0  0  0  0  0  0  0  0
    3.7317   65.1992   86.0626 O   0  0  0  0  0  0  0  0  0  0  0  0
    5.3686   65.5097   87.7632 C   0  0  0  0  0  0  0  0  0  0  0  0
    5.1185   65.0098   86.3514 C   0  0  0  0  0  0  0  0  0  0  0  0
    2.1776   68.4856   81.6605 C   0  0  0  0  0  0  0  0  0  0  0  0
    1.1431   69.5235   82.0986 C   0  0  0  0  0  0  0  0  0  0  0  0
    1.7487   70.7875   82.7542 C   0  0  0  0  0  0  0  0  0  0  0  0
    1.5107   71.5654   81.4370 C   0  0  0  0  0  0  0  0  0  0  0  0
    0.5149   70.4538   81.0300 C   0  0  0  0  0  0  0  0  0  0  0  0
    2.7409   71.8086   80.5151 C   0  0  0  0  0  0  0  0  0  0  0  0
    3.2825   70.9700   79.7885 O   0  0  0  0  0  0  0  0  0  0  0  0
    3.2045   73.1058   80.5407 N   0  0  0  0  0  0  0  0  0  0  0  0
    4.2192   73.4223   79.6098 O   0  0  0  0  0  0  0  0  0  0  0  0
    2.7003   73.8818   80.9547 H   0  0  0  0  0  0  0  0  0  0  0  0
    4.3732   72.5579   79.1678 H   0  0  0  0  0  0  0  0  0  0  0  0
 22 23  1  0  0  0
 23 21  1  0  0  0
 21  1  1  0  0  0
  1  2  1  0  0  0
  2  3  2  0  0  0
  3  4  1  0  0  0
  4 24  1  0  0  0
 24 25  1  0  0  0
 25 26  1  0  0  0
 26 27  1  0  0  0
 27 29  1  0  0  0
 29 30  2  0  0  0
 29 31  1  0  0  0
 31 32  1  0  0  0
 27 28  1  0  0  0
  4  5  2  0  0  0
  5  6  1  0  0  0
  6  7  1  0  0  0
  7  8  2  0  0  0
  8  9  1  0  0  0
  9 10  1  0  0  0
 10 19  1  0  0  0
 19 20  1  0  0  0
 10 11  2  0  0  0
 11 12  1  0  0  0
 12 13  1  0  0  0
 12 14  1  0  0  0
 14 15  1  0  0  0
 15 16  2  0  0  0
 15 17  1  0  0  0
  6  1  2  0  0  0
 17  7  1  0  0  0
 28 25  1  0  0  0
 14  9  2  0  0  0
 31 33  1  0  0  0
 32 34  1  0  0  0
 17 18  1  0  0  0
M  END
> <minimizedAffinity>
-10.09537

$$$$



 34 37  0  0  0  0  0  0  0  0999 V2000
    0.8914   65.6736   81.6907 C   0  0  0  0  0  0  0  0  0  0  0  0
    1.2913   66.3956   82.8240 C   0  0  0  0  0  0  0  0  0  0  0  0
    1.0743   65.8936   84.1098 C   0  0  0  0  0  0  0  0  0  0  0  0
    0.4551   64.6572   84.2940 C   0  0  0  0  0  0  0  0  0  0  0  0
    0.0533   63.9313   83.1657 C   0  0  0  0  0  0  0  0  0  0  0  0
    0.2623   64.4202   81.8603 C   0  0  0  0  0  0  0  0  0  0  0  0
   -0.2177   63.5467   80.7270 C   0  0  0  0  0  0  0  0  0  0  0  0
   -1.2591   62.7755   80.8994 N   0  0  0  0  0  0  0  0  0  0  0  0
   -1.6013   62.0165   79.7798 C   0  0  0  0  0  0  0  0  0  0  0  0
   -2.6420   61.0902   79.6038 C   0  0  0  0  0  0  0  0  0  0  0  0
   -2.6140   60.5764   78.3588 N   0  0  0  0  0  0  0  0  0  0  0  0
   -1.5546   61.1898   77.7741 N   0  0  0  0  0  0  0  0  0  0  0  0
   -1.2085   60.8823   76.4075 C   0  0  0  0  0  0  0  0  0  0  0  0
   -0.9211   62.0628   78.6012 C   0  0  0  0  0  0  0  0  0  0  0  0
    0.2064   62.8950   78.4015 C   0  0  0  0  0  0  0  0  0  0  0  0
    0.8568   62.9870   77.3672 O   0  0  0  0  0  0  0  0  0  0  0  0
    0.4997   63.6149   79.5362 N   0  0  0  0  0  0  0  0  0  0  0  0
    1.2918   64.2405   79.4692 H   0  0  0  0  0  0  0  0  0  0  0  0
   -3.6771   60.6643   80.5838 C   0  0  0  0  0  0  0  0  0  0  0  0
   -3.0698   60.0527   81.8369 C   0  0  0  0  0  0  0  0  0  0  0  0
    1.0820   66.1255   80.4081 O   0  0  0  0  0  0  0  0  0  0  0  0
   -0.8267   67.5043   80.0566 C   0  0  0  0  0  0  0  0  0  0  0  0
    0.6906   67.4643   80.0968 C   0  0  0  0  0  0  0  0  0  0  0  0
    0.2113   64.1218   85.6827 C   0  0  0  0  0  0  0  0  0  0  0  0
   -1.0136   63.2060   85.6981 C   0  0  0  0  0  0  0  0  0  0  0  0
   -0.7719   61.8320   86.3673 C   0  0  0  0  0  0  0  0  0  0  0  0
   -1.5191   62.3322   87.6276 C   0  0  0  0  0  0  0  0  0  0  0  0
   -2.1230   63.4549   86.7513 C   0  0  0  0  0  0  0  0  0  0  0  0
   -0.6569   62.7544   88.8526 C   0  0  0  0  0  0  0  0  0  0  0  0
   -0.5472   63.8979   89.3056 O   0  0  0  0  0  0  0  0  0  0  0  0
   -0.0001   61.7043   89.4561 N   0  0  0  0  0  0  0  0  0  0  0  0
    0.6724   62.0021   90.6626 O   0  0  0  0  0  0  0  0  0  0  0  0
   -0.1929   60.7276   89.2647 H   0  0  0  0  0  0  0  0  0  0  0  0
    0.5169   62.9683   90.7546 H   0  0  0  0  0  0  0  0  0  0  0  0
 22 23  1  0  0  0
 23 21  1  0  0  0
 21  1  1  0  0  0
  1  2  1  0  0  0
  2  3  2  0  0  0
  3  4  1  0  0  0
  4 24  1  0  0  0
 24 25  1  0  0  0
 25 26  1  0  0  0
 26 27  1  0  0  0
 27 29  1  0  0  0
 29 30  2  0  0  0
 29 31  1  0  0  0
 31 32  1  0  0  0
 27 28  1  0  0  0
  4  5  2  0  0  0
  5  6  1  0  0  0
  6  7  1  0  0  0
  7  8  2  0  0  0
  8  9  1  0  0  0
  9 10  1  0  0  0
 10 19  1  0  0  0
 19 20  1  0  0  0
 10 11  2  0  0  0
 11 12  1  0  0  0
 12 13  1  0  0  0
 12 14  1  0  0  0
 14 15  1  0  0  0
 15 16  2  0  0  0
 15 17  1  0  0  0
  6  1  2  0  0  0
 17  7  1  0  0  0
 28 25  1  0  0  0
 14  9  2  0  0  0
 31 33  1  0  0  0
 32 34  1  0  0  0
 17 18  1  0  0  0
M  END
> <minimizedAffinity>
-9.93317

$$$$



 34 37  0  0  0  0  0  0  0  0999 V2000
   -0.2296   63.6355   85.7976 C   0  0  0  0  0  0  0  0  0  0  0  0
   -1.3430   62.7873   85.7158 C   0  0  0  0  0  0  0  0  0  0  0  0
   -2.0206   62.6048   84.5075 C   0  0  0  0  0  0  0  0  0  0  0  0
   -1.6006   63.2633   83.3517 C   0  0  0  0  0  0  0  0  0  0  0  0
   -0.4891   64.1120   83.4271 C   0  0  0  0  0  0  0  0  0  0  0  0
    0.2078   64.3102   84.6361 C   0  0  0  0  0  0  0  0  0  0  0  0
    1.3871   65.2508   84.5896 C   0  0  0  0  0  0  0  0  0  0  0  0
    1.3229   66.3354   83.8625 N   0  0  0  0  0  0  0  0  0  0  0  0
    2.4761   67.1199   83.9009 C   0  0  0  0  0  0  0  0  0  0  0  0
    2.7628   68.3315   83.2517 C   0  0  0  0  0  0  0  0  0  0  0  0
    4.0036   68.7541   83.5626 N   0  0  0  0  0  0  0  0  0  0  0  0
    4.4750   67.7988   84.4026 N   0  0  0  0  0  0  0  0  0  0  0  0
    5.8041   67.9151   84.9521 C   0  0  0  0  0  0  0  0  0  0  0  0
    3.5819   66.7993   84.6278 C   0  0  0  0  0  0  0  0  0  0  0  0
    3.6629   65.6292   85.4204 C   0  0  0  0  0  0  0  0  0  0  0  0
    4.6234   65.2874   86.1000 O   0  0  0  0  0  0  0  0  0  0  0  0
    2.5030   64.8943   85.3413 N   0  0  0  0  0  0  0  0  0  0  0  0
    2.4816   64.0438   85.8886 H   0  0  0  0  0  0  0  0  0  0  0  0
    1.8953   69.1166   82.3328 C   0  0  0  0  0  0  0  0  0  0  0  0
    1.5691   68.3571   81.0560 C   0  0  0  0  0  0  0  0  0  0  0  0
    0.4675   63.8474   86.9615 O   0  0  0  0  0  0  0  0  0  0  0  0
    0.4411   62.6852   89.0391 C   0  0  0  0  0  0  0  0  0  0  0  0
   -0.2385   63.7530   88.2004 C   0  0  0  0  0  0  0  0  0  0  0  0
   -2.3398   63.0742   82.0507 C   0  0  0  0  0  0  0  0  0  0  0  0
   -2.2689   61.6145   81.5997 C   0  0  0  0  0  0  0  0  0  0  0  0
   -2.3906   61.4148   80.0702 C   0  0  0  0  0  0  0  0  0  0  0  0
   -0.8612   61.1860   79.9944 C   0  0  0  0  0  0  0  0  0  0  0  0
   -0.8854   60.9209   81.5183 C   0  0  0  0  0  0  0  0  0  0  0  0
    0.0157   62.3636   79.4781 C   0  0  0  0  0  0  0  0  0  0  0  0
    0.2924   63.3926   80.1021 O   0  0  0  0  0  0  0  0  0  0  0  0
    0.5182   62.1659   78.2106 N   0  0  0  0  0  0  0  0  0  0  0  0
    1.4448   63.1287   77.7515 O   0  0  0  0  0  0  0  0  0  0  0  0
    0.4962   61.2777   77.7224 H   0  0  0  0  0  0  0  0  0  0  0  0
    1.4719   63.7651   78.5002 H   0  0  0  0  0  0  0  0  0  0  0  0
 22 23  1  0  0  0
 23 21  1  0  0  0
 21  1  1  0  0  0
  1  2  1  0  0  0
  2  3  2  0  0  0
  3  4  1  0  0  0
  4 24  1  0  0  0
 24 25  1  0  0  0
 25 26  1  0  0  0
 26 27  1  0  0  0
 27 29  1  0  0  0
 29 30  2  0  0  0
 29 31  1  0  0  0
 31 32  1  0  0  0
 27 28  1  0  0  0
  4  5  2  0  0  0
  5  6  1  0  0  0
  6  7  1  0  0  0
  7  8  2  0  0  0
  8  9  1  0  0  0
  9 10  1  0  0  0
 10 19  1  0  0  0
 19 20  1  0  0  0
 10 11  2  0  0  0
 11 12  1  0  0  0
 12 13  1  0  0  0
 12 14  1  0  0  0
 14 15  1  0  0  0
 15 16  2  0  0  0
 15 17  1  0  0  0
  6  1  2  0  0  0
 17  7  1  0  0  0
 28 25  1  0  0  0
 14  9  2  0  0  0
 31 33  1  0  0  0
 32 34  1  0  0  0
 17 18  1  0  0  0
M  END
> <minimizedAffinity>
-9.91594

$$$$
