
     RDKit          3D

 50 52  0  0  0  0  0  0  0  0999 V2000
   -5.1538    1.2625   -3.4692 O   0  0  0  0  0  0  0  0  0  0  0  0
   -6.2298    1.4189   -2.9204 C   0  0  0  0  0  0  0  0  0  0  0  0
   -7.3685    1.0062   -3.5078 O   0  0  0  0  0  0  0  0  0  0  0  0
   -6.4837    2.0954   -1.6011 C   0  0  0  0  0  0  0  0  0  0  0  0
   -5.2526    2.0997   -0.6900 C   0  0  0  0  0  0  0  0  0  0  0  0
   -4.8397    0.7076   -0.1729 C   0  0  0  0  0  0  0  0  0  0  0  0
   -5.9064    0.1507    0.7522 C   0  0  0  0  0  0  0  0  0  0  0  0
   -6.1006    0.4459    1.9215 O   0  0  0  0  0  0  0  0  0  0  0  0
   -6.7394   -0.7113    0.1303 O   0  0  0  0  0  0  0  0  0  0  0  0
   -3.5125    0.7459    0.5436 C   0  0  0  0  0  0  0  0  0  0  0  0
   -3.1526    1.5379    1.6226 C   0  0  0  0  0  0  0  0  0  0  0  0
   -1.5268    1.2258    2.0694 S   0  0  0  0  0  0  0  0  0  0  0  0
   -1.4276    0.0697    0.8190 C   0  0  0  0  0  0  0  0  0  0  0  0
   -0.2181   -0.5480    0.7294 N   0  0  0  0  0  0  0  0  0  0  0  0
    0.0699   -1.5243   -0.1939 C   0  0  0  0  0  0  0  0  0  0  0  0
   -0.6715   -1.9981   -1.0450 O   0  0  0  0  0  0  0  0  0  0  0  0
    1.4813   -2.0188   -0.0732 C   0  0  0  0  0  0  0  0  0  0  0  0
    1.9488   -3.0056   -0.9295 C   0  0  0  0  0  0  0  0  0  0  0  0
    3.2627   -3.4314   -0.7794 C   0  0  0  0  0  0  0  0  0  0  0  0
    4.0576   -2.8597    0.2112 C   0  0  0  0  0  0  0  0  0  0  0  0
    3.5197   -1.8662    1.0303 C   0  0  0  0  0  0  0  0  0  0  0  0
    4.3605   -1.2382    2.1227 C   0  0  0  0  0  0  0  0  0  0  0  0
    5.6754   -0.8843    1.6850 O   0  0  0  0  0  0  0  0  0  0  0  0
    5.8471    0.3117    1.0447 C   0  0  0  0  0  0  0  0  0  0  0  0
    4.8375    1.1778    0.6236 C   0  0  0  0  0  0  0  0  0  0  0  0
    5.1625    2.3698   -0.0324 C   0  0  0  0  0  0  0  0  0  0  0  0
    6.4949    2.7004   -0.2719 C   0  0  0  0  0  0  0  0  0  0  0  0
    7.5064    1.8378    0.1415 C   0  0  0  0  0  0  0  0  0  0  0  0
    7.1810    0.6480    0.7948 C   0  0  0  0  0  0  0  0  0  0  0  0
    2.2351   -1.4402    0.9095 N   0  0  0  0  0  0  0  0  0  0  0  0
   -2.5025   -0.0944    0.0944 N   0  0  0  0  0  0  0  0  0  0  0  0
   -7.0655    0.5903   -4.3427 H   0  0  0  0  0  0  0  0  0  0  0  0
   -7.3277    1.6107   -1.1004 H   0  0  0  0  0  0  0  0  0  0  0  0
   -6.7743    3.1293   -1.8197 H   0  0  0  0  0  0  0  0  0  0  0  0
   -5.4681    2.7594    0.1612 H   0  0  0  0  0  0  0  0  0  0  0  0
   -4.4091    2.5541   -1.2268 H   0  0  0  0  0  0  0  0  0  0  0  0
   -4.7318    0.0155   -1.0180 H   0  0  0  0  0  0  0  0  0  0  0  0
   -7.3561   -1.0041    0.8340 H   0  0  0  0  0  0  0  0  0  0  0  0
   -3.7535    2.2590    2.1589 H   0  0  0  0  0  0  0  0  0  0  0  0
    0.5111   -0.2817    1.3789 H   0  0  0  0  0  0  0  0  0  0  0  0
    1.3065   -3.4306   -1.6945 H   0  0  0  0  0  0  0  0  0  0  0  0
    3.6673   -4.2008   -1.4317 H   0  0  0  0  0  0  0  0  0  0  0  0
    5.0892   -3.1790    0.3346 H   0  0  0  0  0  0  0  0  0  0  0  0
    4.4836   -1.9891    2.9124 H   0  0  0  0  0  0  0  0  0  0  0  0
    3.8514   -0.3885    2.5944 H   0  0  0  0  0  0  0  0  0  0  0  0
    3.7863    0.9582    0.7759 H   0  0  0  0  0  0  0  0  0  0  0  0
    4.3711    3.0390   -0.3612 H   0  0  0  0  0  0  0  0  0  0  0  0
    6.7431    3.6268   -0.7832 H   0  0  0  0  0  0  0  0  0  0  0  0
    8.5473    2.0880   -0.0450 H   0  0  0  0  0  0  0  0  0  0  0  0
    7.9751   -0.0226    1.1137 H   0  0  0  0  0  0  0  0  0  0  0  0
  1  2  2  0
  2  3  1  0
  2  4  1  0
  4  5  1  0
  5  6  1  0
  6  7  1  0
  7  8  2  0
  7  9  1  0
  6 10  1  0
 10 11  2  0
 11 12  1  0
 12 13  1  0
 13 14  1  0
 14 15  1  0
 15 16  2  0
 15 17  1  0
 17 18  1  0
 18 19  2  0
 19 20  1  0
 20 21  2  0
 21 22  1  0
 22 23  1  0
 23 24  1  0
 24 25  2  0
 25 26  1  0
 26 27  2  0
 27 28  1  0
 28 29  2  0
 21 30  1  0
 13 31  2  0
 31 10  1  0
 30 17  2  0
 29 24  1  0
  3 32  1  0
  4 33  1  0
  4 34  1  0
  5 35  1  0
  5 36  1  0
  6 37  1  0
  9 38  1  0
 11 39  1  0
 14 40  1  0
 18 41  1  0
 19 42  1  0
 20 43  1  0
 22 44  1  0
 22 45  1  0
 25 46  1  0
 26 47  1  0
 27 48  1  0
 28 49  1  0
 29 50  1  0
M  END
$$$$
