


 38 41  0  0  0  0  0  0  0  0999 V2000
    2.4602   69.1520   82.2730 C   0  0  0  0  0  0  0  0  0  0  0  0
    3.7174   69.3423   82.8074 C   0  0  0  0  0  0  0  0  0  0  0  0
    4.2607   68.5045   83.7217 N   0  0  0  0  0  0  0  0  0  0  0  0
    3.5123   67.4507   84.1323 C   0  0  0  0  0  0  0  0  0  0  0  0
    2.2259   67.1817   83.6513 C   0  0  0  0  0  0  0  0  0  0  0  0
    1.6953   68.0705   82.7037 C   0  0  0  0  0  0  0  0  0  0  0  0
    1.3837   66.0132   84.0673 C   0  0  0  0  0  0  0  0  0  0  0  0
    0.6485   65.4154   83.1700 N   0  0  0  0  0  0  0  0  0  0  0  0
   -0.1006   64.3463   83.6605 C   0  0  0  0  0  0  0  0  0  0  0  0
   -0.9684   63.5368   82.9774 C   0  0  0  0  0  0  0  0  0  0  0  0
   -1.4327   62.6607   83.9349 N   0  0  0  0  0  0  0  0  0  0  0  0
   -2.3830   61.5880   83.7497 C   0  0  0  0  0  0  0  0  0  0  0  0
   -0.9046   62.8616   85.1666 N   0  0  0  0  0  0  0  0  0  0  0  0
   -0.0889   63.9099   84.9886 C   0  0  0  0  0  0  0  0  0  0  0  0
    0.7396   64.5794   85.9650 C   0  0  0  0  0  0  0  0  0  0  0  0
    0.8523   64.2875   87.1519 O   0  0  0  0  0  0  0  0  0  0  0  0
    1.4366   65.6342   85.4050 N   0  0  0  0  0  0  0  0  0  0  0  0
    2.0388   66.1241   86.0546 H   0  0  0  0  0  0  0  0  0  0  0  0
   -1.3783   63.5289   81.5470 C   0  0  0  0  0  0  0  0  0  0  0  0
   -0.3699   62.7934   80.6780 C   0  0  0  0  0  0  0  0  0  0  0  0
    1.8483   70.3153   81.1038 S   0  0  0  0  0  0  0  0  0  0  0  0
    1.0339   69.5739   80.1654 O   0  0  0  0  0  0  0  0  0  0  0  0
    2.9584   71.1218   80.6482 O   0  0  0  0  0  0  0  0  0  0  0  0
   -0.6714   73.4632   80.7412 N   0  0  0  0  0  0  0  0  0  0  0  0
    0.7638   73.6074   81.0392 C   0  0  0  0  0  0  0  0  0  0  0  0
    1.2059   72.7239   82.2261 C   0  0  0  0  0  0  0  0  0  0  0  0
    0.8239   71.2851   82.0511 N   0  0  0  0  0  0  0  0  0  0  0  0
   -0.6330   71.1759   81.7172 C   0  0  0  0  0  0  0  0  0  0  0  0
   -1.0105   72.0487   80.5057 C   0  0  0  0  0  0  0  0  0  0  0  0
   -1.1347   74.3565   79.6717 C   0  0  0  0  0  0  0  0  0  0  0  0
   -1.9616   74.3458   77.2902 C   0  0  0  0  0  0  0  0  0  0  0  0
   -2.1750   73.7936   78.6933 C   0  0  0  0  0  0  0  0  0  0  0  0
    4.0709   66.5832   85.0486 O   0  0  0  0  0  0  0  0  0  0  0  0
    5.4505   66.8240   85.3816 C   0  0  0  0  0  0  0  0  0  0  0  0
    5.4509   67.3864   86.8049 C   0  0  0  0  0  0  0  0  0  0  0  0
    6.2588   65.5187   85.3138 C   0  0  0  0  0  0  0  0  0  0  0  0
    7.3263   65.6464   84.3736 O   0  0  0  0  0  0  0  0  0  0  0  0
    8.3419   66.5200   84.8489 C   0  0  0  0  0  0  0  0  0  0  0  0
 31 32  1  0  0  0
 32 30  1  0  0  0
 30 24  1  0  0  0
 24 25  1  0  0  0
 25 26  1  0  0  0
 26 27  1  0  0  0
 27 21  1  0  0  0
 21 22  2  0  0  0
 21 23  2  0  0  0
 21  1  1  0  0  0
  1  2  1  0  0  0
  2  3  2  0  0  0
  3  4  1  0  0  0
  4 33  1  0  0  0
 33 34  1  0  0  0
 34 35  1  0  0  0
 34 36  1  0  0  0
 36 37  1  0  0  0
 37 38  1  0  0  0
  4  5  2  0  0  0
  5  7  1  0  0  0
  7  8  2  0  0  0
  8  9  1  0  0  0
  9 10  2  0  0  0
 10 19  1  0  0  0
 19 20  1  0  0  0
 10 11  1  0  0  0
 11 12  1  0  0  0
 11 13  1  0  0  0
 13 14  2  0  0  0
 14 15  1  0  0  0
 15 16  2  0  0  0
 15 17  1  0  0  0
  5  6  1  0  0  0
 27 28  1  0  0  0
 28 29  1  0  0  0
 29 24  1  0  0  0
  6  1  2  0  0  0
 17  7  1  0  0  0
 14  9  1  0  0  0
 17 18  1  0  0  0
M  END
> <minimizedAffinity>
-9.20338

$$$$



 38 41  0  0  0  0  0  0  0  0999 V2000
    2.7053   68.9395   82.6197 C   0  0  0  0  0  0  0  0  0  0  0  0
    3.9593   69.0512   83.1827 C   0  0  0  0  0  0  0  0  0  0  0  0
    4.4380   68.1672   84.0896 N   0  0  0  0  0  0  0  0  0  0  0  0
    3.6262   67.1471   84.4629 C   0  0  0  0  0  0  0  0  0  0  0  0
    2.3376   66.9573   83.9511 C   0  0  0  0  0  0  0  0  0  0  0  0
    1.8750   67.8922   83.0122 C   0  0  0  0  0  0  0  0  0  0  0  0
    1.4257   65.8277   84.3255 C   0  0  0  0  0  0  0  0  0  0  0  0
    0.7025   65.2669   83.3951 N   0  0  0  0  0  0  0  0  0  0  0  0
   -0.1149   64.2321   83.8485 C   0  0  0  0  0  0  0  0  0  0  0  0
   -0.9892   63.4653   83.1255 C   0  0  0  0  0  0  0  0  0  0  0  0
   -1.5334   62.6088   84.0583 N   0  0  0  0  0  0  0  0  0  0  0  0
   -2.5232   61.5815   83.8281 C   0  0  0  0  0  0  0  0  0  0  0  0
   -1.0493   62.7816   85.3122 N   0  0  0  0  0  0  0  0  0  0  0  0
   -0.1795   63.7918   85.1738 C   0  0  0  0  0  0  0  0  0  0  0  0
    0.6368   64.4196   86.1875 C   0  0  0  0  0  0  0  0  0  0  0  0
    0.6856   64.1194   87.3766 O   0  0  0  0  0  0  0  0  0  0  0  0
    1.4045   65.4428   85.6624 N   0  0  0  0  0  0  0  0  0  0  0  0
    2.0005   65.9026   86.3392 H   0  0  0  0  0  0  0  0  0  0  0  0
   -1.3382   63.4804   81.6791 C   0  0  0  0  0  0  0  0  0  0  0  0
   -0.2639   62.8116   80.8354 C   0  0  0  0  0  0  0  0  0  0  0  0
    2.1807   70.1573   81.4636 S   0  0  0  0  0  0  0  0  0  0  0  0
    1.2712   69.5002   80.5500 O   0  0  0  0  0  0  0  0  0  0  0  0
    3.3529   70.8488   80.9754 O   0  0  0  0  0  0  0  0  0  0  0  0
    0.6630   73.9097   81.3849 N   0  0  0  0  0  0  0  0  0  0  0  0
    2.0078   73.5927   81.8955 C   0  0  0  0  0  0  0  0  0  0  0  0
    1.9839   72.4520   82.9363 C   0  0  0  0  0  0  0  0  0  0  0  0
    1.2842   71.2249   82.4349 N   0  0  0  0  0  0  0  0  0  0  0  0
   -0.0656   71.5866   81.8934 C   0  0  0  0  0  0  0  0  0  0  0  0
    0.0213   72.7023   80.8353 C   0  0  0  0  0  0  0  0  0  0  0  0
    0.6478   75.0479   80.4573 C   0  0  0  0  0  0  0  0  0  0  0  0
   -0.5597   76.1971   82.3484 C   0  0  0  0  0  0  0  0  0  0  0  0
   -0.1545   76.2853   80.8831 C   0  0  0  0  0  0  0  0  0  0  0  0
    4.1185   66.2326   85.3714 O   0  0  0  0  0  0  0  0  0  0  0  0
    5.4770   66.4413   85.7996 C   0  0  0  0  0  0  0  0  0  0  0  0
    5.4838   66.2147   87.3130 C   0  0  0  0  0  0  0  0  0  0  0  0
    6.4226   65.4532   85.0988 C   0  0  0  0  0  0  0  0  0  0  0  0
    7.2558   66.1430   84.1661 O   0  0  0  0  0  0  0  0  0  0  0  0
    8.3566   66.7701   84.8106 C   0  0  0  0  0  0  0  0  0  0  0  0
 31 32  1  0  0  0
 32 30  1  0  0  0
 30 24  1  0  0  0
 24 25  1  0  0  0
 25 26  1  0  0  0
 26 27  1  0  0  0
 27 21  1  0  0  0
 21 22  2  0  0  0
 21 23  2  0  0  0
 21  1  1  0  0  0
  1  2  1  0  0  0
  2  3  2  0  0  0
  3  4  1  0  0  0
  4 33  1  0  0  0
 33 34  1  0  0  0
 34 35  1  0  0  0
 34 36  1  0  0  0
 36 37  1  0  0  0
 37 38  1  0  0  0
  4  5  2  0  0  0
  5  7  1  0  0  0
  7  8  2  0  0  0
  8  9  1  0  0  0
  9 10  2  0  0  0
 10 19  1  0  0  0
 19 20  1  0  0  0
 10 11  1  0  0  0
 11 12  1  0  0  0
 11 13  1  0  0  0
 13 14  2  0  0  0
 14 15  1  0  0  0
 15 16  2  0  0  0
 15 17  1  0  0  0
  5  6  1  0  0  0
 27 28  1  0  0  0
 28 29  1  0  0  0
 29 24  1  0  0  0
  6  1  2  0  0  0
 17  7  1  0  0  0
 14  9  1  0  0  0
 17 18  1  0  0  0
M  END
> <minimizedAffinity>
-8.97147

$$$$



 38 41  0  0  0  0  0  0  0  0999 V2000
   -0.4694   62.4171   82.8921 C   0  0  0  0  0  0  0  0  0  0  0  0
   -0.9591   61.9700   84.1014 C   0  0  0  0  0  0  0  0  0  0  0  0
   -0.7219   62.6096   85.2709 N   0  0  0  0  0  0  0  0  0  0  0  0
    0.0498   63.7241   85.2331 C   0  0  0  0  0  0  0  0  0  0  0  0
    0.5947   64.2478   84.0553 C   0  0  0  0  0  0  0  0  0  0  0  0
    0.3271   63.5595   82.8619 C   0  0  0  0  0  0  0  0  0  0  0  0
    1.4311   65.4897   83.9775 C   0  0  0  0  0  0  0  0  0  0  0  0
    1.0308   66.4722   83.2177 N   0  0  0  0  0  0  0  0  0  0  0  0
    1.8822   67.5767   83.2108 C   0  0  0  0  0  0  0  0  0  0  0  0
    1.7456   68.7464   82.5120 C   0  0  0  0  0  0  0  0  0  0  0  0
    2.8590   69.4785   82.8643 N   0  0  0  0  0  0  0  0  0  0  0  0
    3.2141   70.8025   82.4073 C   0  0  0  0  0  0  0  0  0  0  0  0
    3.6751   68.8494   83.7444 N   0  0  0  0  0  0  0  0  0  0  0  0
    3.0672   67.6722   83.9462 C   0  0  0  0  0  0  0  0  0  0  0  0
    3.4881   66.5767   84.7894 C   0  0  0  0  0  0  0  0  0  0  0  0
    4.4924   66.5402   85.4940 O   0  0  0  0  0  0  0  0  0  0  0  0
    2.6014   65.5173   84.7294 N   0  0  0  0  0  0  0  0  0  0  0  0
    2.8545   64.7318   85.3156 H   0  0  0  0  0  0  0  0  0  0  0  0
    0.6874   69.2066   81.5725 C   0  0  0  0  0  0  0  0  0  0  0  0
    0.9822   68.7806   80.1426 C   0  0  0  0  0  0  0  0  0  0  0  0
   -0.8267   61.4954   81.4369 S   0  0  0  0  0  0  0  0  0  0  0  0
   -1.7450   60.4461   81.8233 O   0  0  0  0  0  0  0  0  0  0  0  0
    0.4247   61.1836   80.7832 O   0  0  0  0  0  0  0  0  0  0  0  0
   -2.2307   61.9566   77.6678 N   0  0  0  0  0  0  0  0  0  0  0  0
   -0.8867   62.3888   78.0878 C   0  0  0  0  0  0  0  0  0  0  0  0
   -0.9253   63.2672   79.3573 C   0  0  0  0  0  0  0  0  0  0  0  0
   -1.6715   62.6218   80.4858 N   0  0  0  0  0  0  0  0  0  0  0  0
   -3.0198   62.1652   80.0173 C   0  0  0  0  0  0  0  0  0  0  0  0
   -2.9193   61.2648   78.7718 C   0  0  0  0  0  0  0  0  0  0  0  0
   -2.2291   61.1909   76.4149 C   0  0  0  0  0  0  0  0  0  0  0  0
   -1.3833   58.8161   76.4099 C   0  0  0  0  0  0  0  0  0  0  0  0
   -2.6144   59.7076   76.5023 C   0  0  0  0  0  0  0  0  0  0  0  0
    0.2764   64.3902   86.4202 O   0  0  0  0  0  0  0  0  0  0  0  0
    0.4453   63.5600   87.5840 C   0  0  0  0  0  0  0  0  0  0  0  0
    1.9221   63.6679   87.9706 C   0  0  0  0  0  0  0  0  0  0  0  0
   -0.4529   64.0482   88.7314 C   0  0  0  0  0  0  0  0  0  0  0  0
   -1.4055   63.0415   89.0764 O   0  0  0  0  0  0  0  0  0  0  0  0
   -2.2789   62.7529   87.9928 C   0  0  0  0  0  0  0  0  0  0  0  0
 31 32  1  0  0  0
 32 30  1  0  0  0
 30 24  1  0  0  0
 24 25  1  0  0  0
 25 26  1  0  0  0
 26 27  1  0  0  0
 27 21  1  0  0  0
 21 22  2  0  0  0
 21 23  2  0  0  0
 21  1  1  0  0  0
  1  2  1  0  0  0
  2  3  2  0  0  0
  3  4  1  0  0  0
  4 33  1  0  0  0
 33 34  1  0  0  0
 34 35  1  0  0  0
 34 36  1  0  0  0
 36 37  1  0  0  0
 37 38  1  0  0  0
  4  5  2  0  0  0
  5  7  1  0  0  0
  7  8  2  0  0  0
  8  9  1  0  0  0
  9 10  2  0  0  0
 10 19  1  0  0  0
 19 20  1  0  0  0
 10 11  1  0  0  0
 11 12  1  0  0  0
 11 13  1  0  0  0
 13 14  2  0  0  0
 14 15  1  0  0  0
 15 16  2  0  0  0
 15 17  1  0  0  0
  5  6  1  0  0  0
 27 28  1  0  0  0
 28 29  1  0  0  0
 29 24  1  0  0  0
  6  1  2  0  0  0
 17  7  1  0  0  0
 14  9  1  0  0  0
 17 18  1  0  0  0
M  END
> <minimizedAffinity>
-8.95317

$$$$



 38 41  0  0  0  0  0  0  0  0999 V2000
   -0.3877   62.5188   82.6245 C   0  0  0  0  0  0  0  0  0  0  0  0
   -1.1495   62.1414   83.7105 C   0  0  0  0  0  0  0  0  0  0  0  0
   -1.0313   62.7229   84.9274 N   0  0  0  0  0  0  0  0  0  0  0  0
   -0.1039   63.7020   85.0694 C   0  0  0  0  0  0  0  0  0  0  0  0
    0.7177   64.1460   84.0271 C   0  0  0  0  0  0  0  0  0  0  0  0
    0.5667   63.5214   82.7794 C   0  0  0  0  0  0  0  0  0  0  0  0
    1.7347   65.2411   84.1460 C   0  0  0  0  0  0  0  0  0  0  0  0
    2.8244   65.0175   84.8285 N   0  0  0  0  0  0  0  0  0  0  0  0
    3.7005   66.1011   84.8829 C   0  0  0  0  0  0  0  0  0  0  0  0
    4.9074   66.1823   85.5247 C   0  0  0  0  0  0  0  0  0  0  0  0
    5.3411   67.4638   85.2606 N   0  0  0  0  0  0  0  0  0  0  0  0
    6.5706   68.0788   85.7058 C   0  0  0  0  0  0  0  0  0  0  0  0
    4.4918   68.1837   84.4881 N   0  0  0  0  0  0  0  0  0  0  0  0
    3.4777   67.3360   84.2665 C   0  0  0  0  0  0  0  0  0  0  0  0
    2.2690   67.5602   83.5071 C   0  0  0  0  0  0  0  0  0  0  0  0
    1.9616   68.5863   82.9078 O   0  0  0  0  0  0  0  0  0  0  0  0
    1.4485   66.4471   83.5141 N   0  0  0  0  0  0  0  0  0  0  0  0
    0.5942   66.5591   82.9829 H   0  0  0  0  0  0  0  0  0  0  0  0
    5.6520   65.1831   86.3378 C   0  0  0  0  0  0  0  0  0  0  0  0
    5.4181   65.3846   87.8270 C   0  0  0  0  0  0  0  0  0  0  0  0
   -0.6145   61.6808   81.0944 S   0  0  0  0  0  0  0  0  0  0  0  0
   -1.3611   60.4762   81.3857 O   0  0  0  0  0  0  0  0  0  0  0  0
    0.6640   61.6179   80.4221 O   0  0  0  0  0  0  0  0  0  0  0  0
   -2.6427   61.9125   77.5983 N   0  0  0  0  0  0  0  0  0  0  0  0
   -1.2548   62.3785   77.7595 C   0  0  0  0  0  0  0  0  0  0  0  0
   -1.0938   63.3286   78.9663 C   0  0  0  0  0  0  0  0  0  0  0  0
   -1.6273   62.7438   80.2391 N   0  0  0  0  0  0  0  0  0  0  0  0
   -3.0272   62.2504   80.0322 C   0  0  0  0  0  0  0  0  0  0  0  0
   -3.1228   61.2803   78.8398 C   0  0  0  0  0  0  0  0  0  0  0  0
   -2.8393   61.0756   76.4078 C   0  0  0  0  0  0  0  0  0  0  0  0
   -1.5006   58.9394   76.4077 C   0  0  0  0  0  0  0  0  0  0  0  0
   -2.8767   59.5558   76.6208 C   0  0  0  0  0  0  0  0  0  0  0  0
    0.0049   64.3110   86.3029 O   0  0  0  0  0  0  0  0  0  0  0  0
    0.1221   63.4262   87.4322 C   0  0  0  0  0  0  0  0  0  0  0  0
    1.5181   63.6629   88.0128 C   0  0  0  0  0  0  0  0  0  0  0  0
   -0.9603   63.7377   88.4778 C   0  0  0  0  0  0  0  0  0  0  0  0
   -1.9628   62.7205   88.4698 O   0  0  0  0  0  0  0  0  0  0  0  0
   -2.8839   62.9006   87.4022 C   0  0  0  0  0  0  0  0  0  0  0  0
 31 32  1  0  0  0
 32 30  1  0  0  0
 30 24  1  0  0  0
 24 25  1  0  0  0
 25 26  1  0  0  0
 26 27  1  0  0  0
 27 21  1  0  0  0
 21 22  2  0  0  0
 21 23  2  0  0  0
 21  1  1  0  0  0
  1  2  1  0  0  0
  2  3  2  0  0  0
  3  4  1  0  0  0
  4 33  1  0  0  0
 33 34  1  0  0  0
 34 35  1  0  0  0
 34 36  1  0  0  0
 36 37  1  0  0  0
 37 38  1  0  0  0
  4  5  2  0  0  0
  5  7  1  0  0  0
  7  8  2  0  0  0
  8  9  1  0  0  0
  9 10  2  0  0  0
 10 19  1  0  0  0
 19 20  1  0  0  0
 10 11  1  0  0  0
 11 12  1  0  0  0
 11 13  1  0  0  0
 13 14  2  0  0  0
 14 15  1  0  0  0
 15 16  2  0  0  0
 15 17  1  0  0  0
  5  6  1  0  0  0
 27 28  1  0  0  0
 28 29  1  0  0  0
 29 24  1  0  0  0
  6  1  2  0  0  0
 17  7  1  0  0  0
 14  9  1  0  0  0
 17 18  1  0  0  0
M  END
> <minimizedAffinity>
-8.93860

$$$$



 38 41  0  0  0  0  0  0  0  0999 V2000
    2.6282   68.9028   82.7660 C   0  0  0  0  0  0  0  0  0  0  0  0
    3.8887   69.0062   83.3161 C   0  0  0  0  0  0  0  0  0  0  0  0
    4.3891   68.0927   84.1810 N   0  0  0  0  0  0  0  0  0  0  0  0
    3.5932   67.0499   84.5249 C   0  0  0  0  0  0  0  0  0  0  0  0
    2.2997   66.8662   84.0235 C   0  0  0  0  0  0  0  0  0  0  0  0
    1.8144   67.8320   83.1283 C   0  0  0  0  0  0  0  0  0  0  0  0
    1.4050   65.7128   84.3654 C   0  0  0  0  0  0  0  0  0  0  0  0
    0.6287   65.2213   83.4387 N   0  0  0  0  0  0  0  0  0  0  0  0
   -0.1669   64.1567   83.8610 C   0  0  0  0  0  0  0  0  0  0  0  0
   -1.0836   63.4448   83.1343 C   0  0  0  0  0  0  0  0  0  0  0  0
   -1.5789   62.5232   84.0316 N   0  0  0  0  0  0  0  0  0  0  0  0
   -2.5846   61.5158   83.7832 C   0  0  0  0  0  0  0  0  0  0  0  0
   -1.0251   62.6045   85.2657 N   0  0  0  0  0  0  0  0  0  0  0  0
   -0.1599   63.6216   85.1525 C   0  0  0  0  0  0  0  0  0  0  0  0
    0.7143   64.1740   86.1618 C   0  0  0  0  0  0  0  0  0  0  0  0
    0.8278   63.7884   87.3215 O   0  0  0  0  0  0  0  0  0  0  0  0
    1.4563   65.2322   85.6701 N   0  0  0  0  0  0  0  0  0  0  0  0
    2.0911   65.6414   86.3441 H   0  0  0  0  0  0  0  0  0  0  0  0
   -1.5123   63.5648   81.7144 C   0  0  0  0  0  0  0  0  0  0  0  0
   -0.5785   62.8106   80.7804 C   0  0  0  0  0  0  0  0  0  0  0  0
    2.0750   70.1591   81.6657 S   0  0  0  0  0  0  0  0  0  0  0  0
    0.6697   70.3655   81.9418 O   0  0  0  0  0  0  0  0  0  0  0  0
    2.5288   69.8233   80.3347 O   0  0  0  0  0  0  0  0  0  0  0  0
    2.0096   74.1957   81.3641 N   0  0  0  0  0  0  0  0  0  0  0  0
    2.7530   73.3281   80.4346 C   0  0  0  0  0  0  0  0  0  0  0  0
    3.6667   72.3266   81.1741 C   0  0  0  0  0  0  0  0  0  0  0  0
    2.9318   71.5238   82.2047 N   0  0  0  0  0  0  0  0  0  0  0  0
    2.1610   72.4334   83.1127 C   0  0  0  0  0  0  0  0  0  0  0  0
    1.2410   73.3847   82.3249 C   0  0  0  0  0  0  0  0  0  0  0  0
    1.1981   75.2136   80.6847 C   0  0  0  0  0  0  0  0  0  0  0  0
   -0.2535   74.9698   78.6380 C   0  0  0  0  0  0  0  0  0  0  0  0
   -0.1693   74.7712   80.1455 C   0  0  0  0  0  0  0  0  0  0  0  0
    4.1076   66.1061   85.3902 O   0  0  0  0  0  0  0  0  0  0  0  0
    5.4503   66.3428   85.8522 C   0  0  0  0  0  0  0  0  0  0  0  0
    5.4331   66.0762   87.3590 C   0  0  0  0  0  0  0  0  0  0  0  0
    6.4389   65.4018   85.1459 C   0  0  0  0  0  0  0  0  0  0  0  0
    7.2176   66.1271   84.1933 O   0  0  0  0  0  0  0  0  0  0  0  0
    8.3278   66.7705   84.8047 C   0  0  0  0  0  0  0  0  0  0  0  0
 31 32  1  0  0  0
 32 30  1  0  0  0
 30 24  1  0  0  0
 24 25  1  0  0  0
 25 26  1  0  0  0
 26 27  1  0  0  0
 27 21  1  0  0  0
 21 22  2  0  0  0
 21 23  2  0  0  0
 21  1  1  0  0  0
  1  2  1  0  0  0
  2  3  2  0  0  0
  3  4  1  0  0  0
  4 33  1  0  0  0
 33 34  1  0  0  0
 34 35  1  0  0  0
 34 36  1  0  0  0
 36 37  1  0  0  0
 37 38  1  0  0  0
  4  5  2  0  0  0
  5  7  1  0  0  0
  7  8  2  0  0  0
  8  9  1  0  0  0
  9 10  2  0  0  0
 10 19  1  0  0  0
 19 20  1  0  0  0
 10 11  1  0  0  0
 11 12  1  0  0  0
 11 13  1  0  0  0
 13 14  2  0  0  0
 14 15  1  0  0  0
 15 16  2  0  0  0
 15 17  1  0  0  0
  5  6  1  0  0  0
 27 28  1  0  0  0
 28 29  1  0  0  0
 29 24  1  0  0  0
  6  1  2  0  0  0
 17  7  1  0  0  0
 14  9  1  0  0  0
 17 18  1  0  0  0
M  END
> <minimizedAffinity>
-8.89317

$$$$



 38 41  0  0  0  0  0  0  0  0999 V2000
    1.2617   65.5151   83.3491 C   0  0  0  0  0  0  0  0  0  0  0  0
    1.1628   65.5005   84.7247 C   0  0  0  0  0  0  0  0  0  0  0  0
    0.3833   64.6196   85.3951 N   0  0  0  0  0  0  0  0  0  0  0  0
   -0.3396   63.7356   84.6636 C   0  0  0  0  0  0  0  0  0  0  0  0
   -0.3080   63.6803   83.2656 C   0  0  0  0  0  0  0  0  0  0  0  0
    0.5120   64.6077   82.6043 C   0  0  0  0  0  0  0  0  0  0  0  0
   -1.0761   62.7006   82.4302 C   0  0  0  0  0  0  0  0  0  0  0  0
   -1.0447   62.8198   81.1310 N   0  0  0  0  0  0  0  0  0  0  0  0
   -1.7963   61.8640   80.4482 C   0  0  0  0  0  0  0  0  0  0  0  0
   -1.9714   61.7323   79.0965 C   0  0  0  0  0  0  0  0  0  0  0  0
   -2.8018   60.6393   78.9716 N   0  0  0  0  0  0  0  0  0  0  0  0
   -3.3073   60.0620   77.7472 C   0  0  0  0  0  0  0  0  0  0  0  0
   -3.1474   60.0733   80.1534 N   0  0  0  0  0  0  0  0  0  0  0  0
   -2.5277   60.8416   81.0598 C   0  0  0  0  0  0  0  0  0  0  0  0
   -2.5417   60.7210   82.4997 C   0  0  0  0  0  0  0  0  0  0  0  0
   -3.1268   59.8647   83.1562 O   0  0  0  0  0  0  0  0  0  0  0  0
   -1.7879   61.7116   83.1018 N   0  0  0  0  0  0  0  0  0  0  0  0
   -1.7625   61.6563   84.1122 H   0  0  0  0  0  0  0  0  0  0  0  0
   -1.4377   62.5294   77.9589 C   0  0  0  0  0  0  0  0  0  0  0  0
    0.0105   62.1764   77.6567 C   0  0  0  0  0  0  0  0  0  0  0  0
    2.2930   66.7171   82.5835 S   0  0  0  0  0  0  0  0  0  0  0  0
    2.2979   66.4207   81.1673 O   0  0  0  0  0  0  0  0  0  0  0  0
    3.5284   66.7917   83.3309 O   0  0  0  0  0  0  0  0  0  0  0  0
    2.2915   70.5901   81.4046 N   0  0  0  0  0  0  0  0  0  0  0  0
    3.0240   70.1059   82.5871 C   0  0  0  0  0  0  0  0  0  0  0  0
    2.1267   69.2760   83.5311 C   0  0  0  0  0  0  0  0  0  0  0  0
    1.4229   68.1564   82.8255 N   0  0  0  0  0  0  0  0  0  0  0  0
    0.7158   68.6768   81.6109 C   0  0  0  0  0  0  0  0  0  0  0  0
    1.6648   69.4648   80.6887 C   0  0  0  0  0  0  0  0  0  0  0  0
    3.1001   71.4530   80.5341 C   0  0  0  0  0  0  0  0  0  0  0  0
    5.4631   71.9067   79.7817 C   0  0  0  0  0  0  0  0  0  0  0  0
    4.3819   70.8469   79.9457 C   0  0  0  0  0  0  0  0  0  0  0  0
   -1.1191   62.8229   85.3443 O   0  0  0  0  0  0  0  0  0  0  0  0
   -1.2008   63.0060   86.7698 C   0  0  0  0  0  0  0  0  0  0  0  0
   -2.6784   63.2545   87.0811 C   0  0  0  0  0  0  0  0  0  0  0  0
   -0.6942   61.7554   87.5055 C   0  0  0  0  0  0  0  0  0  0  0  0
   -0.1730   62.1125   88.7864 O   0  0  0  0  0  0  0  0  0  0  0  0
    0.6005   63.3034   88.7243 C   0  0  0  0  0  0  0  0  0  0  0  0
 31 32  1  0  0  0
 32 30  1  0  0  0
 30 24  1  0  0  0
 24 25  1  0  0  0
 25 26  1  0  0  0
 26 27  1  0  0  0
 27 21  1  0  0  0
 21 22  2  0  0  0
 21 23  2  0  0  0
 21  1  1  0  0  0
  1  2  1  0  0  0
  2  3  2  0  0  0
  3  4  1  0  0  0
  4 33  1  0  0  0
 33 34  1  0  0  0
 34 35  1  0  0  0
 34 36  1  0  0  0
 36 37  1  0  0  0
 37 38  1  0  0  0
  4  5  2  0  0  0
  5  7  1  0  0  0
  7  8  2  0  0  0
  8  9  1  0  0  0
  9 10  2  0  0  0
 10 19  1  0  0  0
 19 20  1  0  0  0
 10 11  1  0  0  0
 11 12  1  0  0  0
 11 13  1  0  0  0
 13 14  2  0  0  0
 14 15  1  0  0  0
 15 16  2  0  0  0
 15 17  1  0  0  0
  5  6  1  0  0  0
 27 28  1  0  0  0
 28 29  1  0  0  0
 29 24  1  0  0  0
  6  1  2  0  0  0
 17  7  1  0  0  0
 14  9  1  0  0  0
 17 18  1  0  0  0
M  END
> <minimizedAffinity>
-8.81552

$$$$



 38 41  0  0  0  0  0  0  0  0999 V2000
   -0.1587   63.8681   78.8921 C   0  0  0  0  0  0  0  0  0  0  0  0
   -0.4010   65.0637   78.2486 C   0  0  0  0  0  0  0  0  0  0  0  0
   -0.4004   66.2558   78.8905 N   0  0  0  0  0  0  0  0  0  0  0  0
   -0.1703   66.2506   80.2269 C   0  0  0  0  0  0  0  0  0  0  0  0
    0.0785   65.0875   80.9642 C   0  0  0  0  0  0  0  0  0  0  0  0
    0.0714   63.8701   80.2659 C   0  0  0  0  0  0  0  0  0  0  0  0
    0.3595   65.0510   82.4365 C   0  0  0  0  0  0  0  0  0  0  0  0
   -0.2179   64.1355   83.1656 N   0  0  0  0  0  0  0  0  0  0  0  0
    0.1049   64.1927   84.5210 C   0  0  0  0  0  0  0  0  0  0  0  0
   -0.3437   63.3862   85.5327 C   0  0  0  0  0  0  0  0  0  0  0  0
    0.2798   63.8822   86.6574 N   0  0  0  0  0  0  0  0  0  0  0  0
    0.1547   63.3948   88.0120 C   0  0  0  0  0  0  0  0  0  0  0  0
    1.0958   64.9364   86.4142 N   0  0  0  0  0  0  0  0  0  0  0  0
    0.9749   65.1256   85.0930 C   0  0  0  0  0  0  0  0  0  0  0  0
    1.6118   66.1254   84.2666 C   0  0  0  0  0  0  0  0  0  0  0  0
    2.4035   66.9861   84.6394 O   0  0  0  0  0  0  0  0  0  0  0  0
    1.2295   66.0116   82.9426 N   0  0  0  0  0  0  0  0  0  0  0  0
    1.6628   66.6881   82.3268 H   0  0  0  0  0  0  0  0  0  0  0  0
   -1.2806   62.2302   85.5196 C   0  0  0  0  0  0  0  0  0  0  0  0
   -2.6959   62.6505   85.8848 C   0  0  0  0  0  0  0  0  0  0  0  0
   -0.2019   62.3768   77.9599 S   0  0  0  0  0  0  0  0  0  0  0  0
    0.3277   61.3360   78.8141 O   0  0  0  0  0  0  0  0  0  0  0  0
    0.3794   62.6401   76.6625 O   0  0  0  0  0  0  0  0  0  0  0  0
   -3.2343   60.2696   79.6194 N   0  0  0  0  0  0  0  0  0  0  0  0
   -2.3960   59.7528   78.5241 C   0  0  0  0  0  0  0  0  0  0  0  0
   -2.3040   60.7420   77.3418 C   0  0  0  0  0  0  0  0  0  0  0  0
   -1.8691   62.1124   77.7656 N   0  0  0  0  0  0  0  0  0  0  0  0
   -2.7199   62.5946   78.9012 C   0  0  0  0  0  0  0  0  0  0  0  0
   -2.7469   61.5868   80.0655 C   0  0  0  0  0  0  0  0  0  0  0  0
   -3.4072   59.3123   80.7193 C   0  0  0  0  0  0  0  0  0  0  0  0
   -3.4008   60.3621   83.0113 C   0  0  0  0  0  0  0  0  0  0  0  0
   -2.5941   59.5622   81.9971 C   0  0  0  0  0  0  0  0  0  0  0  0
   -0.1484   67.4657   80.8806 O   0  0  0  0  0  0  0  0  0  0  0  0
    0.4969   68.5447   80.1795 C   0  0  0  0  0  0  0  0  0  0  0  0
   -0.1314   69.8334   80.7147 C   0  0  0  0  0  0  0  0  0  0  0  0
    2.0113   68.5302   80.4408 C   0  0  0  0  0  0  0  0  0  0  0  0
    2.2729   68.6548   81.8393 O   0  0  0  0  0  0  0  0  0  0  0  0
    3.3496   69.5472   82.0937 C   0  0  0  0  0  0  0  0  0  0  0  0
 31 32  1  0  0  0
 32 30  1  0  0  0
 30 24  1  0  0  0
 24 25  1  0  0  0
 25 26  1  0  0  0
 26 27  1  0  0  0
 27 21  1  0  0  0
 21 22  2  0  0  0
 21 23  2  0  0  0
 21  1  1  0  0  0
  1  2  1  0  0  0
  2  3  2  0  0  0
  3  4  1  0  0  0
  4 33  1  0  0  0
 33 34  1  0  0  0
 34 35  1  0  0  0
 34 36  1  0  0  0
 36 37  1  0  0  0
 37 38  1  0  0  0
  4  5  2  0  0  0
  5  7  1  0  0  0
  7  8  2  0  0  0
  8  9  1  0  0  0
  9 10  2  0  0  0
 10 19  1  0  0  0
 19 20  1  0  0  0
 10 11  1  0  0  0
 11 12  1  0  0  0
 11 13  1  0  0  0
 13 14  2  0  0  0
 14 15  1  0  0  0
 15 16  2  0  0  0
 15 17  1  0  0  0
  5  6  1  0  0  0
 27 28  1  0  0  0
 28 29  1  0  0  0
 29 24  1  0  0  0
  6  1  2  0  0  0
 17  7  1  0  0  0
 14  9  1  0  0  0
 17 18  1  0  0  0
M  END
> <minimizedAffinity>
-8.71938

$$$$



 38 41  0  0  0  0  0  0  0  0999 V2000
    2.0533   69.0795   82.1091 C   0  0  0  0  0  0  0  0  0  0  0  0
    3.2031   69.4483   82.7755 C   0  0  0  0  0  0  0  0  0  0  0  0
    3.7735   68.6814   83.7345 N   0  0  0  0  0  0  0  0  0  0  0  0
    3.1610   67.5144   84.0537 C   0  0  0  0  0  0  0  0  0  0  0  0
    1.9893   67.0619   83.4366 C   0  0  0  0  0  0  0  0  0  0  0  0
    1.4268   67.8820   82.4462 C   0  0  0  0  0  0  0  0  0  0  0  0
    1.3019   65.7669   83.7500 C   0  0  0  0  0  0  0  0  0  0  0  0
    0.9688   65.5135   84.9860 N   0  0  0  0  0  0  0  0  0  0  0  0
    0.3415   64.2819   85.1709 C   0  0  0  0  0  0  0  0  0  0  0  0
   -0.1112   63.7295   86.3392 C   0  0  0  0  0  0  0  0  0  0  0  0
   -0.6335   62.5135   85.9541 N   0  0  0  0  0  0  0  0  0  0  0  0
   -1.2464   61.5178   86.8032 C   0  0  0  0  0  0  0  0  0  0  0  0
   -0.5475   62.2748   84.6229 N   0  0  0  0  0  0  0  0  0  0  0  0
    0.0633   63.3695   84.1489 C   0  0  0  0  0  0  0  0  0  0  0  0
    0.4317   63.6732   82.7851 C   0  0  0  0  0  0  0  0  0  0  0  0
    0.2312   62.9697   81.7994 O   0  0  0  0  0  0  0  0  0  0  0  0
    1.0604   64.9010   82.6881 N   0  0  0  0  0  0  0  0  0  0  0  0
    1.3255   65.1572   81.7454 H   0  0  0  0  0  0  0  0  0  0  0  0
   -0.0874   64.2406   87.7365 C   0  0  0  0  0  0  0  0  0  0  0  0
    0.7789   63.3735   88.6368 C   0  0  0  0  0  0  0  0  0  0  0  0
    1.3909   70.1638   80.8924 S   0  0  0  0  0  0  0  0  0  0  0  0
    0.3276   69.4430   80.2265 O   0  0  0  0  0  0  0  0  0  0  0  0
    2.4921   70.7240   80.1414 O   0  0  0  0  0  0  0  0  0  0  0  0
   -0.4591   73.7402   80.4719 N   0  0  0  0  0  0  0  0  0  0  0  0
    0.9991   73.5978   80.6236 C   0  0  0  0  0  0  0  0  0  0  0  0
    1.3777   72.7274   81.8418 C   0  0  0  0  0  0  0  0  0  0  0  0
    0.6940   71.3935   81.8355 N   0  0  0  0  0  0  0  0  0  0  0  0
   -0.7820   71.5721   81.6470 C   0  0  0  0  0  0  0  0  0  0  0  0
   -1.1026   72.4166   80.3996 C   0  0  0  0  0  0  0  0  0  0  0  0
   -0.8437   74.6330   79.3713 C   0  0  0  0  0  0  0  0  0  0  0  0
   -1.8611   74.4334   77.0734 C   0  0  0  0  0  0  0  0  0  0  0  0
   -2.0945   74.2517   78.5673 C   0  0  0  0  0  0  0  0  0  0  0  0
    3.7508   66.7205   85.0160 O   0  0  0  0  0  0  0  0  0  0  0  0
    5.1601   66.9276   85.2239 C   0  0  0  0  0  0  0  0  0  0  0  0
    5.2885   67.6515   86.5661 C   0  0  0  0  0  0  0  0  0  0  0  0
    5.9047   65.5837   85.2589 C   0  0  0  0  0  0  0  0  0  0  0  0
    7.1903   65.7462   85.8595 O   0  0  0  0  0  0  0  0  0  0  0  0
    8.1916   66.0207   84.8887 C   0  0  0  0  0  0  0  0  0  0  0  0
 31 32  1  0  0  0
 32 30  1  0  0  0
 30 24  1  0  0  0
 24 25  1  0  0  0
 25 26  1  0  0  0
 26 27  1  0  0  0
 27 21  1  0  0  0
 21 22  2  0  0  0
 21 23  2  0  0  0
 21  1  1  0  0  0
  1  2  1  0  0  0
  2  3  2  0  0  0
  3  4  1  0  0  0
  4 33  1  0  0  0
 33 34  1  0  0  0
 34 35  1  0  0  0
 34 36  1  0  0  0
 36 37  1  0  0  0
 37 38  1  0  0  0
  4  5  2  0  0  0
  5  7  1  0  0  0
  7  8  2  0  0  0
  8  9  1  0  0  0
  9 10  2  0  0  0
 10 19  1  0  0  0
 19 20  1  0  0  0
 10 11  1  0  0  0
 11 12  1  0  0  0
 11 13  1  0  0  0
 13 14  2  0  0  0
 14 15  1  0  0  0
 15 16  2  0  0  0
 15 17  1  0  0  0
  5  6  1  0  0  0
 27 28  1  0  0  0
 28 29  1  0  0  0
 29 24  1  0  0  0
  6  1  2  0  0  0
 17  7  1  0  0  0
 14  9  1  0  0  0
 17 18  1  0  0  0
M  END
> <minimizedAffinity>
-8.58054

$$$$



 38 41  0  0  0  0  0  0  0  0999 V2000
    2.6244   68.3608   82.6413 C   0  0  0  0  0  0  0  0  0  0  0  0
    3.8192   68.4644   83.3226 C   0  0  0  0  0  0  0  0  0  0  0  0
    4.2182   67.5584   84.2462 N   0  0  0  0  0  0  0  0  0  0  0  0
    3.3838   66.5235   84.5137 C   0  0  0  0  0  0  0  0  0  0  0  0
    2.1506   66.3402   83.8781 C   0  0  0  0  0  0  0  0  0  0  0  0
    1.7700   67.2981   82.9255 C   0  0  0  0  0  0  0  0  0  0  0  0
    1.2173   65.1951   84.1343 C   0  0  0  0  0  0  0  0  0  0  0  0
    0.7955   64.9864   85.3514 N   0  0  0  0  0  0  0  0  0  0  0  0
   -0.0619   63.8945   85.4829 C   0  0  0  0  0  0  0  0  0  0  0  0
   -0.6556   63.4166   86.6205 C   0  0  0  0  0  0  0  0  0  0  0  0
   -1.3854   62.3309   86.1863 N   0  0  0  0  0  0  0  0  0  0  0  0
   -2.2087   61.4549   86.9881 C   0  0  0  0  0  0  0  0  0  0  0  0
   -1.2962   62.1060   84.8530 N   0  0  0  0  0  0  0  0  0  0  0  0
   -0.4703   63.0722   84.4286 C   0  0  0  0  0  0  0  0  0  0  0  0
    0.0006   63.3261   83.0862 C   0  0  0  0  0  0  0  0  0  0  0  0
   -0.2929   62.6933   82.0763 O   0  0  0  0  0  0  0  0  0  0  0  0
    0.8553   64.4122   83.0425 N   0  0  0  0  0  0  0  0  0  0  0  0
    1.1999   64.6310   82.1162 H   0  0  0  0  0  0  0  0  0  0  0  0
   -0.5875   63.8865   88.0307 C   0  0  0  0  0  0  0  0  0  0  0  0
    0.4769   63.1405   88.8204 C   0  0  0  0  0  0  0  0  0  0  0  0
    2.2002   69.6071   81.4745 S   0  0  0  0  0  0  0  0  0  0  0  0
    1.4092   68.9644   80.4475 O   0  0  0  0  0  0  0  0  0  0  0  0
    3.4023   70.3367   81.1383 O   0  0  0  0  0  0  0  0  0  0  0  0
    0.2006   73.1103   81.1298 N   0  0  0  0  0  0  0  0  0  0  0  0
    1.5805   73.0142   81.6359 C   0  0  0  0  0  0  0  0  0  0  0  0
    1.7177   71.9687   82.7642 C   0  0  0  0  0  0  0  0  0  0  0  0
    1.1807   70.6241   82.3765 N   0  0  0  0  0  0  0  0  0  0  0  0
   -0.2104   70.7612   81.8361 C   0  0  0  0  0  0  0  0  0  0  0  0
   -0.2820   71.7889   80.6912 C   0  0  0  0  0  0  0  0  0  0  0  0
    0.0261   74.1575   80.1153 C   0  0  0  0  0  0  0  0  0  0  0  0
   -1.9400   75.4113   79.1572 C   0  0  0  0  0  0  0  0  0  0  0  0
   -1.2236   74.0693   79.2283 C   0  0  0  0  0  0  0  0  0  0  0  0
    3.7965   65.5870   85.4394 O   0  0  0  0  0  0  0  0  0  0  0  0
    5.0552   65.8541   86.0848 C   0  0  0  0  0  0  0  0  0  0  0  0
    4.9777   65.1838   87.4583 C   0  0  0  0  0  0  0  0  0  0  0  0
    6.2177   65.2749   85.2633 C   0  0  0  0  0  0  0  0  0  0  0  0
    7.4522   65.8701   85.6655 O   0  0  0  0  0  0  0  0  0  0  0  0
    7.9311   66.7911   84.6945 C   0  0  0  0  0  0  0  0  0  0  0  0
 31 32  1  0  0  0
 32 30  1  0  0  0
 30 24  1  0  0  0
 24 25  1  0  0  0
 25 26  1  0  0  0
 26 27  1  0  0  0
 27 21  1  0  0  0
 21 22  2  0  0  0
 21 23  2  0  0  0
 21  1  1  0  0  0
  1  2  1  0  0  0
  2  3  2  0  0  0
  3  4  1  0  0  0
  4 33  1  0  0  0
 33 34  1  0  0  0
 34 35  1  0  0  0
 34 36  1  0  0  0
 36 37  1  0  0  0
 37 38  1  0  0  0
  4  5  2  0  0  0
  5  7  1  0  0  0
  7  8  2  0  0  0
  8  9  1  0  0  0
  9 10  2  0  0  0
 10 19  1  0  0  0
 19 20  1  0  0  0
 10 11  1  0  0  0
 11 12  1  0  0  0
 11 13  1  0  0  0
 13 14  2  0  0  0
 14 15  1  0  0  0
 15 16  2  0  0  0
 15 17  1  0  0  0
  5  6  1  0  0  0
 27 28  1  0  0  0
 28 29  1  0  0  0
 29 24  1  0  0  0
  6  1  2  0  0  0
 17  7  1  0  0  0
 14  9  1  0  0  0
 17 18  1  0  0  0
M  END
> <minimizedAffinity>
-8.57659

$$$$
