


 25 28  0  0  0  0  0  0  0  0999 V2000
   -1.5325   62.8884   81.2088 C   0  0  0  0  0  0  0  0  0  0  0  0
   -0.8705   64.0125   81.0007 N   0  0  0  0  0  0  0  0  0  0  0  0
   -0.3261   64.3533   82.2160 C   0  0  0  0  0  0  0  0  0  0  0  0
    0.4946   65.4910   82.5598 C   0  0  0  0  0  0  0  0  0  0  0  0
    0.8328   66.3367   81.7353 O   0  0  0  0  0  0  0  0  0  0  0  0
    0.8630   65.5154   83.9180 N   0  0  0  0  0  0  0  0  0  0  0  0
    0.5132   64.5625   84.8990 C   0  0  0  0  0  0  0  0  0  0  0  0
    0.8760   64.6806   86.0734 O   0  0  0  0  0  0  0  0  0  0  0  0
   -0.2722   63.4690   84.4903 N   0  0  0  0  0  0  0  0  0  0  0  0
   -0.6562   63.4327   83.1681 C   0  0  0  0  0  0  0  0  0  0  0  0
   -1.4201   62.5076   82.5275 N   0  0  0  0  0  0  0  0  0  0  0  0
   -1.8466   61.6767   82.9034 H   0  0  0  0  0  0  0  0  0  0  0  0
   -1.6508   61.0449   79.9646 C   0  0  0  0  0  0  0  0  0  0  0  0
   -2.2611   62.1041   80.3849 N   0  0  0  0  0  0  0  0  0  0  0  0
   -1.3916   59.6360   77.9753 C   0  0  0  0  0  0  0  0  0  0  0  0
   -2.1761   60.0914   79.1132 N   0  0  0  0  0  0  0  0  0  0  0  0
   -3.6199   59.9596   78.9870 C   0  0  0  0  0  0  0  0  0  0  0  0
    1.6674   66.6459   84.3555 C   0  0  0  0  0  0  0  0  0  0  0  0
    3.1186   66.4142   84.0349 C   0  0  0  0  0  0  0  0  0  0  0  0
    4.1807   67.2880   84.6537 C   0  0  0  0  0  0  0  0  0  0  0  0
    4.0640   65.8458   85.0632 C   0  0  0  0  0  0  0  0  0  0  0  0
   -0.6722   62.4799   85.4866 C   0  0  0  0  0  0  0  0  0  0  0  0
   -2.0012   62.8396   86.0832 C   0  0  0  0  0  0  0  0  0  0  0  0
   -2.7222   61.9173   87.0347 C   0  0  0  0  0  0  0  0  0  0  0  0
   -2.1010   63.1866   87.5475 C   0  0  0  0  0  0  0  0  0  0  0  0
 15 16  1  0  0  0
 16 17  1  0  0  0
 16 13  1  0  0  0
 13 14  2  0  0  0
 14  1  1  0  0  0
  1  2  2  0  0  0
  2  3  1  0  0  0
  3  4  1  0  0  0
  4  5  2  0  0  0
  4  6  1  0  0  0
  6 18  1  0  0  0
 18 19  1  0  0  0
 19 20  1  0  0  0
 20 21  1  0  0  0
  6  7  1  0  0  0
  7  8  2  0  0  0
  7  9  1  0  0  0
  9 22  1  0  0  0
 22 23  1  0  0  0
 23 24  1  0  0  0
 24 25  1  0  0  0
  9 10  1  0  0  0
 10 11  1  0  0  0
 11  1  1  0  0  0
 10  3  2  0  0  0
 21 19  1  0  0  0
 25 23  1  0  0  0
 11 12  1  0  0  0
M  END
> <minimizedAffinity>
-7.82213

$$$$



 25 28  0  0  0  0  0  0  0  0999 V2000
   -2.4275   60.8029   81.8008 C   0  0  0  0  0  0  0  0  0  0  0  0
   -2.8738   60.7552   83.0433 N   0  0  0  0  0  0  0  0  0  0  0  0
   -2.1456   61.6931   83.7357 C   0  0  0  0  0  0  0  0  0  0  0  0
   -2.2237   62.0590   85.1307 C   0  0  0  0  0  0  0  0  0  0  0  0
   -3.0217   61.5403   85.9075 O   0  0  0  0  0  0  0  0  0  0  0  0
   -1.3060   63.0640   85.4898 N   0  0  0  0  0  0  0  0  0  0  0  0
   -0.3814   63.7002   84.6336 C   0  0  0  0  0  0  0  0  0  0  0  0
    0.3956   64.5651   85.0494 O   0  0  0  0  0  0  0  0  0  0  0  0
   -0.3728   63.3083   83.2822 N   0  0  0  0  0  0  0  0  0  0  0  0
   -1.2531   62.3159   82.9120 C   0  0  0  0  0  0  0  0  0  0  0  0
   -1.4337   61.7497   81.6886 N   0  0  0  0  0  0  0  0  0  0  0  0
   -0.9556   61.9527   80.8262 H   0  0  0  0  0  0  0  0  0  0  0  0
   -2.1300   60.4532   79.6213 C   0  0  0  0  0  0  0  0  0  0  0  0
   -2.7672   60.1096   80.6923 N   0  0  0  0  0  0  0  0  0  0  0  0
   -1.1877   59.2104   77.7301 C   0  0  0  0  0  0  0  0  0  0  0  0
   -2.2995   59.9015   78.3656 N   0  0  0  0  0  0  0  0  0  0  0  0
   -3.3047   60.4531   77.4694 C   0  0  0  0  0  0  0  0  0  0  0  0
   -1.2983   63.4715   86.8863 C   0  0  0  0  0  0  0  0  0  0  0  0
   -0.3262   62.6355   87.6729 C   0  0  0  0  0  0  0  0  0  0  0  0
    0.8385   63.2867   88.3756 C   0  0  0  0  0  0  0  0  0  0  0  0
   -0.2862   62.6950   89.1792 C   0  0  0  0  0  0  0  0  0  0  0  0
    0.5893   63.9291   82.3768 C   0  0  0  0  0  0  0  0  0  0  0  0
   -0.0069   65.1416   81.7241 C   0  0  0  0  0  0  0  0  0  0  0  0
    0.6772   66.4856   81.7663 C   0  0  0  0  0  0  0  0  0  0  0  0
    0.6219   65.7128   80.4779 C   0  0  0  0  0  0  0  0  0  0  0  0
 15 16  1  0  0  0
 16 17  1  0  0  0
 16 13  1  0  0  0
 13 14  2  0  0  0
 14  1  1  0  0  0
  1  2  2  0  0  0
  2  3  1  0  0  0
  3  4  1  0  0  0
  4  5  2  0  0  0
  4  6  1  0  0  0
  6 18  1  0  0  0
 18 19  1  0  0  0
 19 20  1  0  0  0
 20 21  1  0  0  0
  6  7  1  0  0  0
  7  8  2  0  0  0
  7  9  1  0  0  0
  9 22  1  0  0  0
 22 23  1  0  0  0
 23 24  1  0  0  0
 24 25  1  0  0  0
  9 10  1  0  0  0
 10 11  1  0  0  0
 11  1  1  0  0  0
 10  3  2  0  0  0
 21 19  1  0  0  0
 25 23  1  0  0  0
 11 12  1  0  0  0
M  END
> <minimizedAffinity>
-7.73069

$$$$



 25 28  0  0  0  0  0  0  0  0999 V2000
    2.0065   66.2610   84.2088 C   0  0  0  0  0  0  0  0  0  0  0  0
    1.3645   66.0936   83.0664 N   0  0  0  0  0  0  0  0  0  0  0  0
    0.5086   65.0380   83.2727 C   0  0  0  0  0  0  0  0  0  0  0  0
   -0.4295   64.4332   82.3561 C   0  0  0  0  0  0  0  0  0  0  0  0
   -0.5860   64.8372   81.2065 O   0  0  0  0  0  0  0  0  0  0  0  0
   -1.1365   63.3553   82.9213 N   0  0  0  0  0  0  0  0  0  0  0  0
   -1.0038   62.8635   84.2378 C   0  0  0  0  0  0  0  0  0  0  0  0
   -1.6626   61.8985   84.6370 O   0  0  0  0  0  0  0  0  0  0  0  0
   -0.0851   63.5125   85.0832 N   0  0  0  0  0  0  0  0  0  0  0  0
    0.6282   64.5611   84.5460 C   0  0  0  0  0  0  0  0  0  0  0  0
    1.5773   65.3368   85.1352 N   0  0  0  0  0  0  0  0  0  0  0  0
    1.9339   65.2868   86.0754 H   0  0  0  0  0  0  0  0  0  0  0  0
    4.1405   66.6271   84.7311 C   0  0  0  0  0  0  0  0  0  0  0  0
    2.9617   67.1379   84.5873 N   0  0  0  0  0  0  0  0  0  0  0  0
    6.5569   66.9736   84.5061 C   0  0  0  0  0  0  0  0  0  0  0  0
    5.2786   67.3111   85.1142 N   0  0  0  0  0  0  0  0  0  0  0  0
    5.3405   67.9175   86.4357 C   0  0  0  0  0  0  0  0  0  0  0  0
   -2.0827   62.6697   82.0547 C   0  0  0  0  0  0  0  0  0  0  0  0
   -1.4993   61.3749   81.5590 C   0  0  0  0  0  0  0  0  0  0  0  0
   -1.4244   61.0943   80.0792 C   0  0  0  0  0  0  0  0  0  0  0  0
   -0.1631   61.3376   80.8609 C   0  0  0  0  0  0  0  0  0  0  0  0
    0.0939   63.0116   86.4426 C   0  0  0  0  0  0  0  0  0  0  0  0
   -0.8271   63.7205   87.3916 C   0  0  0  0  0  0  0  0  0  0  0  0
   -2.0838   63.0708   87.9156 C   0  0  0  0  0  0  0  0  0  0  0  0
   -0.9103   63.2801   88.8316 C   0  0  0  0  0  0  0  0  0  0  0  0
 15 16  1  0  0  0
 16 17  1  0  0  0
 16 13  1  0  0  0
 13 14  2  0  0  0
 14  1  1  0  0  0
  1  2  2  0  0  0
  2  3  1  0  0  0
  3  4  1  0  0  0
  4  5  2  0  0  0
  4  6  1  0  0  0
  6 18  1  0  0  0
 18 19  1  0  0  0
 19 20  1  0  0  0
 20 21  1  0  0  0
  6  7  1  0  0  0
  7  8  2  0  0  0
  7  9  1  0  0  0
  9 22  1  0  0  0
 22 23  1  0  0  0
 23 24  1  0  0  0
 24 25  1  0  0  0
  9 10  1  0  0  0
 10 11  1  0  0  0
 11  1  1  0  0  0
 10  3  2  0  0  0
 21 19  1  0  0  0
 25 23  1  0  0  0
 11 12  1  0  0  0
M  END
> <minimizedAffinity>
-7.57623

$$$$



 25 28  0  0  0  0  0  0  0  0999 V2000
    0.9330   64.7799   84.9338 C   0  0  0  0  0  0  0  0  0  0  0  0
    0.4551   65.3879   83.8626 N   0  0  0  0  0  0  0  0  0  0  0  0
    1.3796   66.3525   83.5397 C   0  0  0  0  0  0  0  0  0  0  0  0
    1.3604   67.3060   82.4551 C   0  0  0  0  0  0  0  0  0  0  0  0
    0.4507   67.3528   81.6307 O   0  0  0  0  0  0  0  0  0  0  0  0
    2.4847   68.1528   82.4447 N   0  0  0  0  0  0  0  0  0  0  0  0
    3.5607   68.1293   83.3582 C   0  0  0  0  0  0  0  0  0  0  0  0
    4.4989   68.9275   83.2727 O   0  0  0  0  0  0  0  0  0  0  0  0
    3.5240   67.1615   84.3789 N   0  0  0  0  0  0  0  0  0  0  0  0
    2.4256   66.3315   84.4163 C   0  0  0  0  0  0  0  0  0  0  0  0
    2.1394   65.3357   85.2974 N   0  0  0  0  0  0  0  0  0  0  0  0
    2.6796   65.0214   86.0866 H   0  0  0  0  0  0  0  0  0  0  0  0
    0.1504   64.0862   86.9003 C   0  0  0  0  0  0  0  0  0  0  0  0
    0.4531   63.7651   85.6852 N   0  0  0  0  0  0  0  0  0  0  0  0
   -1.7906   63.0511   87.9820 C   0  0  0  0  0  0  0  0  0  0  0  0
   -0.3515   63.2313   87.8631 N   0  0  0  0  0  0  0  0  0  0  0  0
    0.4264   62.9679   89.0645 C   0  0  0  0  0  0  0  0  0  0  0  0
    2.5300   69.1641   81.3999 C   0  0  0  0  0  0  0  0  0  0  0  0
    1.8975   70.4425   81.8775 C   0  0  0  0  0  0  0  0  0  0  0  0
    1.7083   71.5967   80.9254 C   0  0  0  0  0  0  0  0  0  0  0  0
    0.5122   70.8409   81.4344 C   0  0  0  0  0  0  0  0  0  0  0  0
    4.6093   67.1281   85.3547 C   0  0  0  0  0  0  0  0  0  0  0  0
    5.6218   66.0853   84.9821 C   0  0  0  0  0  0  0  0  0  0  0  0
    6.9814   66.4533   84.4419 C   0  0  0  0  0  0  0  0  0  0  0  0
    6.8534   65.8932   85.8311 C   0  0  0  0  0  0  0  0  0  0  0  0
 15 16  1  0  0  0
 16 17  1  0  0  0
 16 13  1  0  0  0
 13 14  2  0  0  0
 14  1  1  0  0  0
  1  2  2  0  0  0
  2  3  1  0  0  0
  3  4  1  0  0  0
  4  5  2  0  0  0
  4  6  1  0  0  0
  6 18  1  0  0  0
 18 19  1  0  0  0
 19 20  1  0  0  0
 20 21  1  0  0  0
  6  7  1  0  0  0
  7  8  2  0  0  0
  7  9  1  0  0  0
  9 22  1  0  0  0
 22 23  1  0  0  0
 23 24  1  0  0  0
 24 25  1  0  0  0
  9 10  1  0  0  0
 10 11  1  0  0  0
 11  1  1  0  0  0
 10  3  2  0  0  0
 21 19  1  0  0  0
 25 23  1  0  0  0
 11 12  1  0  0  0
M  END
> <minimizedAffinity>
-7.52831

$$$$



 25 28  0  0  0  0  0  0  0  0999 V2000
    1.0079   65.7476   83.6181 C   0  0  0  0  0  0  0  0  0  0  0  0
    0.6945   65.4891   82.3610 N   0  0  0  0  0  0  0  0  0  0  0  0
   -0.0124   64.3105   82.3893 C   0  0  0  0  0  0  0  0  0  0  0  0
   -0.5964   63.5718   81.2942 C   0  0  0  0  0  0  0  0  0  0  0  0
   -0.5312   63.9542   80.1284 O   0  0  0  0  0  0  0  0  0  0  0  0
   -1.2437   62.3922   81.7072 N   0  0  0  0  0  0  0  0  0  0  0  0
   -1.3584   61.9184   83.0319 C   0  0  0  0  0  0  0  0  0  0  0  0
   -1.9370   60.8589   83.2918 O   0  0  0  0  0  0  0  0  0  0  0  0
   -0.7827   62.6981   84.0519 N   0  0  0  0  0  0  0  0  0  0  0  0
   -0.1316   63.8496   83.6685 C   0  0  0  0  0  0  0  0  0  0  0  0
    0.5157   64.7610   84.4433 N   0  0  0  0  0  0  0  0  0  0  0  0
    0.6381   64.7613   85.4426 H   0  0  0  0  0  0  0  0  0  0  0  0
    2.6677   67.2254   83.4713 C   0  0  0  0  0  0  0  0  0  0  0  0
    1.6961   66.7613   84.1866 N   0  0  0  0  0  0  0  0  0  0  0  0
    3.4896   69.5025   83.0856 C   0  0  0  0  0  0  0  0  0  0  0  0
    3.5194   68.2528   83.8304 N   0  0  0  0  0  0  0  0  0  0  0  0
    4.7686   67.9445   84.5106 C   0  0  0  0  0  0  0  0  0  0  0  0
   -1.8351   61.5722   80.6611 C   0  0  0  0  0  0  0  0  0  0  0  0
   -3.1591   62.1421   80.2312 C   0  0  0  0  0  0  0  0  0  0  0  0
   -3.6761   61.8905   78.8371 C   0  0  0  0  0  0  0  0  0  0  0  0
   -4.3584   61.2536   80.0161 C   0  0  0  0  0  0  0  0  0  0  0  0
   -0.8620   62.2222   85.4296 C   0  0  0  0  0  0  0  0  0  0  0  0
   -1.9911   62.8930   86.1553 C   0  0  0  0  0  0  0  0  0  0  0  0
   -2.7584   62.1959   87.2513 C   0  0  0  0  0  0  0  0  0  0  0  0
   -1.8173   63.3176   87.5920 C   0  0  0  0  0  0  0  0  0  0  0  0
 15 16  1  0  0  0
 16 17  1  0  0  0
 16 13  1  0  0  0
 13 14  2  0  0  0
 14  1  1  0  0  0
  1  2  2  0  0  0
  2  3  1  0  0  0
  3  4  1  0  0  0
  4  5  2  0  0  0
  4  6  1  0  0  0
  6 18  1  0  0  0
 18 19  1  0  0  0
 19 20  1  0  0  0
 20 21  1  0  0  0
  6  7  1  0  0  0
  7  8  2  0  0  0
  7  9  1  0  0  0
  9 22  1  0  0  0
 22 23  1  0  0  0
 23 24  1  0  0  0
 24 25  1  0  0  0
  9 10  1  0  0  0
 10 11  1  0  0  0
 11  1  1  0  0  0
 10  3  2  0  0  0
 21 19  1  0  0  0
 25 23  1  0  0  0
 11 12  1  0  0  0
M  END
> <minimizedAffinity>
-7.48545

$$$$



 25 28  0  0  0  0  0  0  0  0999 V2000
    0.7752   64.7638   84.7152 C   0  0  0  0  0  0  0  0  0  0  0  0
    1.8857   64.5981   85.4113 N   0  0  0  0  0  0  0  0  0  0  0  0
    2.7089   65.6380   85.0503 C   0  0  0  0  0  0  0  0  0  0  0  0
    4.0442   65.9441   85.5078 C   0  0  0  0  0  0  0  0  0  0  0  0
    4.6297   65.2620   86.3453 O   0  0  0  0  0  0  0  0  0  0  0  0
    4.5843   67.0950   84.9037 N   0  0  0  0  0  0  0  0  0  0  0  0
    3.9482   67.9185   83.9499 C   0  0  0  0  0  0  0  0  0  0  0  0
    4.5140   68.9036   83.4662 O   0  0  0  0  0  0  0  0  0  0  0  0
    2.6401   67.5726   83.5636 N   0  0  0  0  0  0  0  0  0  0  0  0
    2.0974   66.4415   84.1318 C   0  0  0  0  0  0  0  0  0  0  0  0
    0.8743   65.8850   83.9217 N   0  0  0  0  0  0  0  0  0  0  0  0
    0.1386   66.1987   83.3102 H   0  0  0  0  0  0  0  0  0  0  0  0
   -0.6620   63.4067   85.7416 C   0  0  0  0  0  0  0  0  0  0  0  0
   -0.3698   64.0492   84.6586 N   0  0  0  0  0  0  0  0  0  0  0  0
   -2.5555   62.1787   84.7843 C   0  0  0  0  0  0  0  0  0  0  0  0
   -1.7710   62.6047   85.9335 N   0  0  0  0  0  0  0  0  0  0  0  0
   -2.4743   62.6458   87.2070 C   0  0  0  0  0  0  0  0  0  0  0  0
    5.9398   67.4581   85.2876 C   0  0  0  0  0  0  0  0  0  0  0  0
    6.9361   66.8472   84.3408 C   0  0  0  0  0  0  0  0  0  0  0  0
    8.4060   66.8550   84.6779 C   0  0  0  0  0  0  0  0  0  0  0  0
    7.6440   65.5587   84.6771 C   0  0  0  0  0  0  0  0  0  0  0  0
    1.9647   68.3896   82.5600 C   0  0  0  0  0  0  0  0  0  0  0  0
    2.0807   67.7605   81.2026 C   0  0  0  0  0  0  0  0  0  0  0  0
    0.8650   67.4238   80.3751 C   0  0  0  0  0  0  0  0  0  0  0  0
    1.7558   68.5647   79.9689 C   0  0  0  0  0  0  0  0  0  0  0  0
 15 16  1  0  0  0
 16 17  1  0  0  0
 16 13  1  0  0  0
 13 14  2  0  0  0
 14  1  1  0  0  0
  1  2  2  0  0  0
  2  3  1  0  0  0
  3  4  1  0  0  0
  4  5  2  0  0  0
  4  6  1  0  0  0
  6 18  1  0  0  0
 18 19  1  0  0  0
 19 20  1  0  0  0
 20 21  1  0  0  0
  6  7  1  0  0  0
  7  8  2  0  0  0
  7  9  1  0  0  0
  9 22  1  0  0  0
 22 23  1  0  0  0
 23 24  1  0  0  0
 24 25  1  0  0  0
  9 10  1  0  0  0
 10 11  1  0  0  0
 11  1  1  0  0  0
 10  3  2  0  0  0
 21 19  1  0  0  0
 25 23  1  0  0  0
 11 12  1  0  0  0
M  END
> <minimizedAffinity>
-7.33937

$$$$



 25 28  0  0  0  0  0  0  0  0999 V2000
    1.4239   66.8390   82.4790 C   0  0  0  0  0  0  0  0  0  0  0  0
    1.3887   66.4386   83.7374 N   0  0  0  0  0  0  0  0  0  0  0  0
    0.6973   65.2506   83.7300 C   0  0  0  0  0  0  0  0  0  0  0  0
    0.3673   64.3815   84.8354 C   0  0  0  0  0  0  0  0  0  0  0  0
    0.7074   64.6222   85.9911 O   0  0  0  0  0  0  0  0  0  0  0  0
   -0.3659   63.2455   84.4444 N   0  0  0  0  0  0  0  0  0  0  0  0
   -0.7672   62.9173   83.1314 C   0  0  0  0  0  0  0  0  0  0  0  0
   -1.4236   61.8994   82.8914 O   0  0  0  0  0  0  0  0  0  0  0  0
   -0.3950   63.7989   82.0999 N   0  0  0  0  0  0  0  0  0  0  0  0
    0.3108   64.9248   82.4621 C   0  0  0  0  0  0  0  0  0  0  0  0
    0.7717   65.9323   81.6732 N   0  0  0  0  0  0  0  0  0  0  0  0
    0.6812   66.0405   80.6764 H   0  0  0  0  0  0  0  0  0  0  0  0
    2.2748   68.8843   82.7096 C   0  0  0  0  0  0  0  0  0  0  0  0
    1.9610   67.9316   81.8940 N   0  0  0  0  0  0  0  0  0  0  0  0
    2.1227   71.3307   82.6754 C   0  0  0  0  0  0  0  0  0  0  0  0
    2.8317   70.0997   82.3598 N   0  0  0  0  0  0  0  0  0  0  0  0
    3.7629   70.1675   81.2434 C   0  0  0  0  0  0  0  0  0  0  0  0
   -0.7652   62.3307   85.5029 C   0  0  0  0  0  0  0  0  0  0  0  0
   -2.0851   62.7497   86.0900 C   0  0  0  0  0  0  0  0  0  0  0  0
   -2.7646   61.8849   87.1219 C   0  0  0  0  0  0  0  0  0  0  0  0
   -2.1902   63.2163   87.5202 C   0  0  0  0  0  0  0  0  0  0  0  0
   -0.8169   63.5009   80.7346 C   0  0  0  0  0  0  0  0  0  0  0  0
    0.2898   62.8302   79.9750 C   0  0  0  0  0  0  0  0  0  0  0  0
    0.0247   62.0273   78.7256 C   0  0  0  0  0  0  0  0  0  0  0  0
    0.7094   63.3621   78.6276 C   0  0  0  0  0  0  0  0  0  0  0  0
 15 16  1  0  0  0
 16 17  1  0  0  0
 16 13  1  0  0  0
 13 14  2  0  0  0
 14  1  1  0  0  0
  1  2  2  0  0  0
  2  3  1  0  0  0
  3  4  1  0  0  0
  4  5  2  0  0  0
  4  6  1  0  0  0
  6 18  1  0  0  0
 18 19  1  0  0  0
 19 20  1  0  0  0
 20 21  1  0  0  0
  6  7  1  0  0  0
  7  8  2  0  0  0
  7  9  1  0  0  0
  9 22  1  0  0  0
 22 23  1  0  0  0
 23 24  1  0  0  0
 24 25  1  0  0  0
  9 10  1  0  0  0
 10 11  1  0  0  0
 11  1  1  0  0  0
 10  3  2  0  0  0
 21 19  1  0  0  0
 25 23  1  0  0  0
 11 12  1  0  0  0
M  END
> <minimizedAffinity>
-7.31811

$$$$



 25 28  0  0  0  0  0  0  0  0999 V2000
   -1.7995   61.7817   83.9327 C   0  0  0  0  0  0  0  0  0  0  0  0
   -2.4325   60.9161   83.1612 N   0  0  0  0  0  0  0  0  0  0  0  0
   -2.0581   61.2223   81.8745 C   0  0  0  0  0  0  0  0  0  0  0  0
   -2.4524   60.5917   80.6364 C   0  0  0  0  0  0  0  0  0  0  0  0
   -3.2145   59.6289   80.5972 O   0  0  0  0  0  0  0  0  0  0  0  0
   -1.8687   61.1882   79.5030 N   0  0  0  0  0  0  0  0  0  0  0  0
   -0.9783   62.2835   79.4965 C   0  0  0  0  0  0  0  0  0  0  0  0
   -0.5293   62.7455   78.4431 O   0  0  0  0  0  0  0  0  0  0  0  0
   -0.6216   62.8369   80.7400 N   0  0  0  0  0  0  0  0  0  0  0  0
   -1.1925   62.2776   81.8617 C   0  0  0  0  0  0  0  0  0  0  0  0
   -1.0316   62.6294   83.1656 N   0  0  0  0  0  0  0  0  0  0  0  0
   -0.4638   63.3657   83.5516 H   0  0  0  0  0  0  0  0  0  0  0  0
   -0.8029   62.6639   85.7185 C   0  0  0  0  0  0  0  0  0  0  0  0
   -1.7902   61.9591   85.2718 N   0  0  0  0  0  0  0  0  0  0  0  0
   -1.6790   63.0060   87.9823 C   0  0  0  0  0  0  0  0  0  0  0  0
   -0.5680   62.9813   87.0429 N   0  0  0  0  0  0  0  0  0  0  0  0
    0.5804   63.8049   87.3904 C   0  0  0  0  0  0  0  0  0  0  0  0
   -2.2368   60.6313   78.2103 C   0  0  0  0  0  0  0  0  0  0  0  0
   -1.2154   59.6220   77.7624 C   0  0  0  0  0  0  0  0  0  0  0  0
   -1.4734   58.7718   76.5438 C   0  0  0  0  0  0  0  0  0  0  0  0
   -0.4087   59.8329   76.5058 C   0  0  0  0  0  0  0  0  0  0  0  0
    0.2773   63.9868   80.7655 C   0  0  0  0  0  0  0  0  0  0  0  0
   -0.5046   65.2668   80.8068 C   0  0  0  0  0  0  0  0  0  0  0  0
    0.1368   66.5793   81.1833 C   0  0  0  0  0  0  0  0  0  0  0  0
   -0.2722   66.3263   79.7590 C   0  0  0  0  0  0  0  0  0  0  0  0
 15 16  1  0  0  0
 16 17  1  0  0  0
 16 13  1  0  0  0
 13 14  2  0  0  0
 14  1  1  0  0  0
  1  2  2  0  0  0
  2  3  1  0  0  0
  3  4  1  0  0  0
  4  5  2  0  0  0
  4  6  1  0  0  0
  6 18  1  0  0  0
 18 19  1  0  0  0
 19 20  1  0  0  0
 20 21  1  0  0  0
  6  7  1  0  0  0
  7  8  2  0  0  0
  7  9  1  0  0  0
  9 22  1  0  0  0
 22 23  1  0  0  0
 23 24  1  0  0  0
 24 25  1  0  0  0
  9 10  1  0  0  0
 10 11  1  0  0  0
 11  1  1  0  0  0
 10  3  2  0  0  0
 21 19  1  0  0  0
 25 23  1  0  0  0
 11 12  1  0  0  0
M  END
> <minimizedAffinity>
-7.26971

$$$$



 25 28  0  0  0  0  0  0  0  0999 V2000
   -1.2477   62.1211   83.7184 C   0  0  0  0  0  0  0  0  0  0  0  0
   -1.4228   61.2746   82.7193 N   0  0  0  0  0  0  0  0  0  0  0  0
   -1.2004   62.0010   81.5738 C   0  0  0  0  0  0  0  0  0  0  0  0
   -1.2569   61.5701   80.1964 C   0  0  0  0  0  0  0  0  0  0  0  0
   -1.5170   60.4132   79.8748 O   0  0  0  0  0  0  0  0  0  0  0  0
   -0.9767   62.6036   79.2829 N   0  0  0  0  0  0  0  0  0  0  0  0
   -0.6588   63.9414   79.6019 C   0  0  0  0  0  0  0  0  0  0  0  0
   -0.4418   64.7815   78.7233 O   0  0  0  0  0  0  0  0  0  0  0  0
   -0.6022   64.2875   80.9645 N   0  0  0  0  0  0  0  0  0  0  0  0
   -0.8871   63.2947   81.8756 C   0  0  0  0  0  0  0  0  0  0  0  0
   -0.9186   63.3673   83.2333 N   0  0  0  0  0  0  0  0  0  0  0  0
   -0.7388   64.1628   83.8237 H   0  0  0  0  0  0  0  0  0  0  0  0
   -0.7561   62.8917   85.7494 C   0  0  0  0  0  0  0  0  0  0  0  0
   -1.3392   61.9685   85.0574 N   0  0  0  0  0  0  0  0  0  0  0  0
   -1.9397   62.9360   87.8957 C   0  0  0  0  0  0  0  0  0  0  0  0
   -0.7032   62.9588   87.1287 N   0  0  0  0  0  0  0  0  0  0  0  0
    0.4360   63.5953   87.7729 C   0  0  0  0  0  0  0  0  0  0  0  0
   -1.0412   62.2610   77.8705 C   0  0  0  0  0  0  0  0  0  0  0  0
   -2.3685   62.6669   77.2908 C   0  0  0  0  0  0  0  0  0  0  0  0
   -3.1348   61.7125   76.4097 C   0  0  0  0  0  0  0  0  0  0  0  0
   -3.6550   62.0501   77.7796 C   0  0  0  0  0  0  0  0  0  0  0  0
   -0.3012   65.6693   81.3265 C   0  0  0  0  0  0  0  0  0  0  0  0
    1.1263   65.7995   81.7698 C   0  0  0  0  0  0  0  0  0  0  0  0
    2.0185   66.9065   81.2653 C   0  0  0  0  0  0  0  0  0  0  0  0
    1.5310   66.9261   82.6872 C   0  0  0  0  0  0  0  0  0  0  0  0
 15 16  1  0  0  0
 16 17  1  0  0  0
 16 13  1  0  0  0
 13 14  2  0  0  0
 14  1  1  0  0  0
  1  2  2  0  0  0
  2  3  1  0  0  0
  3  4  1  0  0  0
  4  5  2  0  0  0
  4  6  1  0  0  0
  6 18  1  0  0  0
 18 19  1  0  0  0
 19 20  1  0  0  0
 20 21  1  0  0  0
  6  7  1  0  0  0
  7  8  2  0  0  0
  7  9  1  0  0  0
  9 22  1  0  0  0
 22 23  1  0  0  0
 23 24  1  0  0  0
 24 25  1  0  0  0
  9 10  1  0  0  0
 10 11  1  0  0  0
 11  1  1  0  0  0
 10  3  2  0  0  0
 21 19  1  0  0  0
 25 23  1  0  0  0
 11 12  1  0  0  0
M  END
> <minimizedAffinity>
-7.11960

$$$$
