
     RDKit          3D

 77 80  0  0  0  0  0  0  0  0999 V2000
   -3.7346   -4.5503   -2.6037 C   0  0  0  0  0  0  0  0  0  0  0  0
   -3.6552   -3.9315   -3.9924 C   0  0  0  0  0  0  0  0  0  0  0  0
   -2.4420   -3.0175   -4.1537 C   0  0  0  0  0  0  0  0  0  0  0  0
   -2.5813   -1.9126   -3.2575 O   0  0  0  0  0  0  0  0  0  0  0  0
   -1.5557   -1.0061   -3.1734 C   0  0  0  0  0  0  0  0  0  0  0  0
   -0.4387   -1.0253   -4.0227 C   0  0  0  0  0  0  0  0  0  0  0  0
    0.5852   -0.0841   -3.8818 C   0  0  0  0  0  0  0  0  0  0  0  0
    0.4957    0.8904   -2.8897 C   0  0  0  0  0  0  0  0  0  0  0  0
    1.7852    2.1072   -2.7187 S   0  0  0  0  0  0  0  0  0  0  0  0
    2.5631    2.0788   -3.9394 O   0  0  0  0  0  0  0  0  0  0  0  0
    1.1727    3.3302   -2.2482 O   0  0  0  0  0  0  0  0  0  0  0  0
    2.7504    1.4778   -1.4693 N   0  0  0  0  0  0  0  0  0  0  0  0
    3.4799    0.2293   -1.7299 C   0  0  0  0  0  0  0  0  0  0  0  0
    4.7605    0.2195   -0.8937 C   0  0  0  0  0  0  0  0  0  0  0  0
    4.6089    0.8983    0.4914 C   0  0  0  0  0  0  0  0  0  0  0  0
    5.5699    0.2535    1.5248 C   0  0  2  0  0  0  0  0  0  0  0  0
    5.5935    1.0169    2.8619 C   0  0  0  0  0  0  0  0  0  0  0  0
    6.4654    0.3368    3.7662 O   0  0  0  0  0  0  0  0  0  0  0  0
    6.5407    0.9722    5.0297 N   0  0  0  0  0  0  0  0  0  0  0  0
    7.2955    0.3959    5.8088 O   0  0  0  0  0  0  0  0  0  0  0  0
    5.8611    1.9872    5.1879 O   0  0  0  0  0  0  0  0  0  0  0  0
    6.8907    0.3277    0.9628 O   0  0  0  0  0  0  0  0  0  0  0  0
    7.6800   -0.8365    1.1353 N   0  0  0  0  0  0  0  0  0  0  0  0
    8.8027   -0.7192    0.6507 O   0  0  0  0  0  0  0  0  0  0  0  0
    7.1664   -1.7932    1.7136 O   0  0  0  0  0  0  0  0  0  0  0  0
    3.1349    0.8777    0.9189 C   0  0  0  0  0  0  0  0  0  0  0  0
    2.2433    1.6186   -0.0859 C   0  0  0  0  0  0  0  0  0  0  0  0
   -0.6262    0.9517   -2.0637 C   0  0  0  0  0  0  0  0  0  0  0  0
   -1.6501   -0.0053   -2.1802 C   0  0  0  0  0  0  0  0  0  0  0  0
   -2.7756    0.0963   -1.1876 C   0  0  0  0  0  0  0  0  0  0  0  0
   -2.6192    0.8341   -0.1231 N   0  0  0  0  0  0  0  0  0  0  0  0
   -3.7201    0.8531    0.7336 C   0  0  0  0  0  0  0  0  0  0  0  0
   -3.8366    1.5609    1.9469 C   0  0  0  0  0  0  0  0  0  0  0  0
   -2.8228    2.4578    2.5767 C   0  0  0  0  0  0  0  0  0  0  0  0
   -1.6341    1.7138    3.1903 C   0  0  0  0  0  0  0  0  0  0  0  0
   -2.0142    0.8737    4.4016 C   0  0  0  0  0  0  0  0  0  0  0  0
   -5.1034    1.2571    2.4270 C   0  0  0  0  0  0  0  0  0  0  0  0
   -5.7177    0.4007    1.5412 N   0  0  0  0  0  0  0  0  0  0  0  0
   -7.0484   -0.1426    1.6911 C   0  0  0  0  0  0  0  0  0  0  0  0
   -4.8697    0.1512    0.4973 C   0  0  0  0  0  0  0  0  0  0  0  0
   -5.0373   -0.6611   -0.6610 C   0  0  0  0  0  0  0  0  0  0  0  0
   -6.0239   -1.3381   -0.9296 O   0  0  0  0  0  0  0  0  0  0  0  0
   -3.9308   -0.6161   -1.4750 N   0  0  0  0  0  0  0  0  0  0  0  0
   -3.8420   -3.7841   -1.8298 H   0  0  0  0  0  0  0  0  0  0  0  0
   -2.8363   -5.1363   -2.3848 H   0  0  0  0  0  0  0  0  0  0  0  0
   -4.5996   -5.2177   -2.5376 H   0  0  0  0  0  0  0  0  0  0  0  0
   -3.6099   -4.7300   -4.7411 H   0  0  0  0  0  0  0  0  0  0  0  0
   -4.5727   -3.3580   -4.1694 H   0  0  0  0  0  0  0  0  0  0  0  0
   -1.5272   -3.5797   -3.9312 H   0  0  0  0  0  0  0  0  0  0  0  0
   -2.4145   -2.6524   -5.1869 H   0  0  0  0  0  0  0  0  0  0  0  0
   -0.3327   -1.7615   -4.8144 H   0  0  0  0  0  0  0  0  0  0  0  0
    1.4395   -0.1149   -4.5561 H   0  0  0  0  0  0  0  0  0  0  0  0
    2.8476   -0.6276   -1.4682 H   0  0  0  0  0  0  0  0  0  0  0  0
    3.7504    0.1254   -2.7852 H   0  0  0  0  0  0  0  0  0  0  0  0
    5.5558    0.7379   -1.4452 H   0  0  0  0  0  0  0  0  0  0  0  0
    5.0896   -0.8218   -0.7896 H   0  0  0  0  0  0  0  0  0  0  0  0
    4.9109    1.9486    0.3654 H   0  0  0  0  0  0  0  0  0  0  0  0
    5.2298   -0.7742    1.6980 H   0  0  0  0  0  0  0  0  0  0  0  0
    5.9689    2.0339    2.6912 H   0  0  0  0  0  0  0  0  0  0  0  0
    4.5883    1.0498    3.2930 H   0  0  0  0  0  0  0  0  0  0  0  0
    2.7982   -0.1637    1.0071 H   0  0  0  0  0  0  0  0  0  0  0  0
    2.9871    1.3338    1.9024 H   0  0  0  0  0  0  0  0  0  0  0  0
    1.2224    1.2414    0.0093 H   0  0  0  0  0  0  0  0  0  0  0  0
    2.2414    2.6847    0.1687 H   0  0  0  0  0  0  0  0  0  0  0  0
   -0.7046    1.7469   -1.3231 H   0  0  0  0  0  0  0  0  0  0  0  0
   -2.4473    3.1494    1.8118 H   0  0  0  0  0  0  0  0  0  0  0  0
   -3.3017    3.0804    3.3429 H   0  0  0  0  0  0  0  0  0  0  0  0
   -0.8855    2.4521    3.5022 H   0  0  0  0  0  0  0  0  0  0  0  0
   -1.1531    1.0722    2.4426 H   0  0  0  0  0  0  0  0  0  0  0  0
   -2.4992    1.4866    5.1680 H   0  0  0  0  0  0  0  0  0  0  0  0
   -2.6930    0.0602    4.1283 H   0  0  0  0  0  0  0  0  0  0  0  0
   -1.1185    0.4256    4.8436 H   0  0  0  0  0  0  0  0  0  0  0  0
   -5.6101    1.5847    3.3259 H   0  0  0  0  0  0  0  0  0  0  0  0
   -6.9746   -1.2320    1.7365 H   0  0  0  0  0  0  0  0  0  0  0  0
   -7.6503    0.1727    0.8351 H   0  0  0  0  0  0  0  0  0  0  0  0
   -7.4946    0.2355    2.6145 H   0  0  0  0  0  0  0  0  0  0  0  0
   -3.9704   -1.1967   -2.3018 H   0  0  0  0  0  0  0  0  0  0  0  0
  1  2  1  0
  2  3  1  0
  3  4  1  0
  4  5  1  0
  5  6  1  0
  6  7  2  0
  7  8  1  0
  8  9  1  0
  9 10  2  0
  9 11  2  0
  9 12  1  0
 12 13  1  0
 13 14  1  0
 14 15  1  0
 15 16  1  0
 16 17  1  0
 17 18  1  0
 18 19  1  0
 19 20  2  0
 19 21  1  0
 16 22  1  0
 22 23  1  0
 23 24  2  0
 23 25  1  0
 15 26  1  0
 26 27  1  0
  8 28  2  0
 28 29  1  0
 29 30  1  0
 30 31  2  0
 31 32  1  0
 32 33  1  0
 33 34  1  0
 34 35  1  0
 35 36  1  0
 33 37  2  0
 37 38  1  0
 38 39  1  0
 38 40  1  0
 40 41  1  0
 41 42  2  0
 41 43  1  0
 29  5  2  0
 43 30  1  0
 27 12  1  0
 40 32  2  0
  1 44  1  0
  1 45  1  0
  1 46  1  0
  2 47  1  0
  2 48  1  0
  3 49  1  0
  3 50  1  0
  6 51  1  0
  7 52  1  0
 13 53  1  0
 13 54  1  0
 14 55  1  0
 14 56  1  0
 15 57  1  0
 16 58  1  1
 17 59  1  0
 17 60  1  0
 26 61  1  0
 26 62  1  0
 27 63  1  0
 27 64  1  0
 28 65  1  0
 34 66  1  0
 34 67  1  0
 35 68  1  0
 35 69  1  0
 36 70  1  0
 36 71  1  0
 36 72  1  0
 37 73  1  0
 39 74  1  0
 39 75  1  0
 39 76  1  0
 43 77  1  0
M  CHG  4  19   1  21  -1  23   1  25  -1
M  END
$$$$
