
     RDKit          3D

 43 46  0  0  0  0  0  0  0  0999 V2000
    7.1876    2.1874    0.0280 C   0  0  0  0  0  0  0  0  0  0  0  0
    6.0567    1.6400   -0.8207 C   0  0  0  0  0  0  0  0  0  0  0  0
    5.0416    1.1388    0.0578 O   0  0  0  0  0  0  0  0  0  0  0  0
    3.9638    0.6183   -0.5785 C   0  0  0  0  0  0  0  0  0  0  0  0
    3.8101    0.5466   -1.7873 O   0  0  0  0  0  0  0  0  0  0  0  0
    2.9604    0.1301    0.4053 C   0  0  0  0  0  0  0  0  0  0  0  0
    3.1896    0.1318    1.7810 C   0  0  0  0  0  0  0  0  0  0  0  0
    2.2019   -0.3421    2.6525 C   0  0  0  0  0  0  0  0  0  0  0  0
    0.9831   -0.8264    2.1933 C   0  0  0  0  0  0  0  0  0  0  0  0
    0.0890   -1.2527    3.0872 N   0  0  0  0  0  0  0  0  0  0  0  0
   -1.0741   -1.6978    2.6006 C   0  0  0  0  0  0  0  0  0  0  0  0
   -1.4153   -1.7765    1.3105 N   0  0  0  0  0  0  0  0  0  0  0  0
   -0.5089   -1.3510    0.4154 C   0  0  0  0  0  0  0  0  0  0  0  0
   -0.8177   -1.4118   -0.9606 N   0  0  0  0  0  0  0  0  0  0  0  0
   -2.1649   -1.8513   -1.3082 C   0  0  0  0  0  0  0  0  0  0  0  0
   -3.1553   -0.7113   -1.2188 C   0  0  0  0  0  0  0  0  0  0  0  0
   -3.0137    0.4245   -2.0523 C   0  0  0  0  0  0  0  0  0  0  0  0
   -3.9228    1.4852   -1.9887 C   0  0  0  0  0  0  0  0  0  0  0  0
   -4.9583    1.3860   -1.0862 C   0  0  0  0  0  0  0  0  0  0  0  0
   -5.1045    0.2898   -0.2693 C   0  0  0  0  0  0  0  0  0  0  0  0
   -4.2246   -0.7711   -0.3100 C   0  0  0  0  0  0  0  0  0  0  0  0
   -6.1872    0.3922    0.5479 O   0  0  0  0  0  0  0  0  0  0  0  0
   -6.6977    1.6839    0.1586 C   0  0  0  0  0  0  0  0  0  0  0  0
   -5.9303    2.3160   -0.8863 O   0  0  0  0  0  0  0  0  0  0  0  0
    0.7441   -0.8436    0.8118 C   0  0  0  0  0  0  0  0  0  0  0  0
    1.7391   -0.3549   -0.0743 C   0  0  0  0  0  0  0  0  0  0  0  0
    6.8254    2.9856    0.6843 H   0  0  0  0  0  0  0  0  0  0  0  0
    7.9905    2.5833   -0.6001 H   0  0  0  0  0  0  0  0  0  0  0  0
    7.5976    1.4048    0.6750 H   0  0  0  0  0  0  0  0  0  0  0  0
    5.6430    2.4389   -1.4462 H   0  0  0  0  0  0  0  0  0  0  0  0
    6.4296    0.8286   -1.4558 H   0  0  0  0  0  0  0  0  0  0  0  0
    4.1248    0.4990    2.1969 H   0  0  0  0  0  0  0  0  0  0  0  0
    2.3900   -0.3294    3.7247 H   0  0  0  0  0  0  0  0  0  0  0  0
   -1.8114   -2.0316    3.3225 H   0  0  0  0  0  0  0  0  0  0  0  0
   -0.1144   -1.9833   -1.4192 H   0  0  0  0  0  0  0  0  0  0  0  0
   -2.1550   -2.1903   -2.3524 H   0  0  0  0  0  0  0  0  0  0  0  0
   -2.4844   -2.7249   -0.7262 H   0  0  0  0  0  0  0  0  0  0  0  0
   -2.1770    0.4812   -2.7463 H   0  0  0  0  0  0  0  0  0  0  0  0
   -3.8138    2.3577   -2.6221 H   0  0  0  0  0  0  0  0  0  0  0  0
   -4.3538   -1.6179    0.3554 H   0  0  0  0  0  0  0  0  0  0  0  0
   -7.7296    1.5615   -0.1903 H   0  0  0  0  0  0  0  0  0  0  0  0
   -6.7000    2.3392    1.0373 H   0  0  0  0  0  0  0  0  0  0  0  0
    1.5467   -0.3408   -1.1463 H   0  0  0  0  0  0  0  0  0  0  0  0
  1  2  1  0
  2  3  1  0
  3  4  1  0
  4  5  2  0
  4  6  1  0
  6  7  1  0
  7  8  2  0
  8  9  1  0
  9 10  2  0
 10 11  1  0
 11 12  2  0
 12 13  1  0
 13 14  1  0
 14 15  1  0
 15 16  1  0
 16 17  1  0
 17 18  2  0
 18 19  1  0
 19 20  2  0
 20 21  1  0
 20 22  1  0
 22 23  1  0
 23 24  1  0
 13 25  2  0
 25 26  1  0
 26  6  2  0
 25  9  1  0
 21 16  2  0
 24 19  1  0
  1 27  1  0
  1 28  1  0
  1 29  1  0
  2 30  1  0
  2 31  1  0
  7 32  1  0
  8 33  1  0
 11 34  1  0
 14 35  1  0
 15 36  1  0
 15 37  1  0
 17 38  1  0
 18 39  1  0
 21 40  1  0
 23 41  1  0
 23 42  1  0
 26 43  1  0
M  END
$$$$
