


 30 33  0  0  0  0  0  0  0  0999 V2000
   -0.4790   63.3771   81.1523 C   0  0  0  0  0  0  0  0  0  0  0  0
   -0.9429   62.9746   79.8851 C   0  0  0  0  0  0  0  0  0  0  0  0
   -0.6585   63.7964   78.7999 C   0  0  0  0  0  0  0  0  0  0  0  0
    0.0596   64.9394   78.8998 N   0  0  0  0  0  0  0  0  0  0  0  0
    0.5108   65.3178   80.1023 C   0  0  0  0  0  0  0  0  0  0  0  0
    1.2442   66.4948   80.1776 C   0  0  0  0  0  0  0  0  0  0  0  0
    1.7610   66.9693   81.3847 C   0  0  0  0  0  0  0  0  0  0  0  0
    1.5375   66.2470   82.5459 C   0  0  0  0  0  0  0  0  0  0  0  0
    2.2293   66.8669   84.1908 Br  0  0  0  0  0  0  0  0  0  0  0  0
    0.8044   65.0629   82.5025 C   0  0  0  0  0  0  0  0  0  0  0  0
    0.2776   64.5751   81.2796 C   0  0  0  0  0  0  0  0  0  0  0  0
   -1.1129   63.4210   77.4178 C   0  0  0  0  0  0  0  0  0  0  0  0
   -2.3762   62.5752   77.4684 C   0  0  0  0  0  0  0  0  0  0  0  0
   -2.1936   61.4283   78.3540 N   0  0  0  0  0  0  0  0  0  0  0  0
   -2.7533   60.1754   78.1375 C   0  0  0  0  0  0  0  0  0  0  0  0
   -3.3101   59.8926   76.7659 C   0  0  0  0  0  0  0  0  0  0  0  0
   -2.7922   59.3088   79.0121 O   0  0  0  0  0  0  0  0  0  0  0  0
   -1.7758   61.7270   79.7237 C   0  0  0  0  0  0  0  0  0  0  0  0
   -0.7228   62.5215   82.2613 N   0  0  0  0  0  0  0  0  0  0  0  0
   -0.7470   61.5478   81.9650 H   0  0  0  0  0  0  0  0  0  0  0  0
   -1.9707   62.8546   82.9581 C   0  0  0  0  0  0  0  0  0  0  0  0
   -1.2086   63.0323   87.2254 C   0  0  0  0  0  0  0  0  0  0  0  0
   -2.4094   62.5111   86.7350 C   0  0  0  0  0  0  0  0  0  0  0  0
   -2.6491   62.4523   85.3572 C   0  0  0  0  0  0  0  0  0  0  0  0
   -1.6925   62.9084   84.4402 C   0  0  0  0  0  0  0  0  0  0  0  0
   -0.4922   63.4377   84.9285 C   0  0  0  0  0  0  0  0  0  0  0  0
   -0.2535   63.4964   86.3066 C   0  0  0  0  0  0  0  0  0  0  0  0
    1.2554   64.1616   86.8323 Cl  0  0  0  0  0  0  0  0  0  0  0  0
   -0.0061   62.1534   89.0923 C   0  0  0  0  0  0  0  0  0  0  0  0
   -0.8882   63.1295   88.5544 O   0  0  0  0  0  0  0  0  0  0  0  0
 29 30  1  0  0  0
 30 22  1  0  0  0
 22 23  1  0  0  0
 23 24  2  0  0  0
 24 25  1  0  0  0
 25 21  1  0  0  0
 21 19  1  0  0  0
 19  1  1  0  0  0
  1  2  2  0  0  0
  2  3  1  0  0  0
  3  4  2  0  0  0
  4  5  1  0  0  0
  5  6  2  0  0  0
  6  7  1  0  0  0
  7  8  2  0  0  0
  8  9  1  0  0  0
  8 10  1  0  0  0
 10 11  2  0  0  0
  3 12  1  0  0  0
 12 13  1  0  0  0
 13 14  1  0  0  0
 14 15  1  0  0  0
 15 16  1  0  0  0
 15 17  2  0  0  0
 14 18  1  0  0  0
 25 26  2  0  0  0
 26 27  1  0  0  0
 27 28  1  0  0  0
 27 22  2  0  0  0
 11  1  1  0  0  0
 18  2  1  0  0  0
 11  5  1  0  0  0
 19 20  1  0  0  0
M  END
> <minimizedAffinity>
-10.77107

$$$$



 30 33  0  0  0  0  0  0  0  0999 V2000
   -0.5791   64.0734   80.7005 C   0  0  0  0  0  0  0  0  0  0  0  0
   -0.8863   63.4501   79.4757 C   0  0  0  0  0  0  0  0  0  0  0  0
   -0.2898   63.9537   78.3248 C   0  0  0  0  0  0  0  0  0  0  0  0
    0.5846   64.9869   78.3308 N   0  0  0  0  0  0  0  0  0  0  0  0
    0.8861   65.5736   79.4960 C   0  0  0  0  0  0  0  0  0  0  0  0
    1.7852   66.6320   79.4744 C   0  0  0  0  0  0  0  0  0  0  0  0
    2.1659   67.3039   80.6375 C   0  0  0  0  0  0  0  0  0  0  0  0
    1.6326   66.9062   81.8530 C   0  0  0  0  0  0  0  0  0  0  0  0
    2.1350   67.7976   83.4409 Br  0  0  0  0  0  0  0  0  0  0  0  0
    0.7274   65.8483   81.9067 C   0  0  0  0  0  0  0  0  0  0  0  0
    0.3373   65.1611   80.7291 C   0  0  0  0  0  0  0  0  0  0  0  0
   -0.5640   63.3286   76.9863 C   0  0  0  0  0  0  0  0  0  0  0  0
   -1.9427   62.6867   76.9547 C   0  0  0  0  0  0  0  0  0  0  0  0
   -2.1074   61.7635   78.0743 N   0  0  0  0  0  0  0  0  0  0  0  0
   -2.8269   60.5769   78.0109 C   0  0  0  0  0  0  0  0  0  0  0  0
   -3.1866   60.0566   76.6429 C   0  0  0  0  0  0  0  0  0  0  0  0
   -3.1575   59.9497   79.0182 O   0  0  0  0  0  0  0  0  0  0  0  0
   -1.8797   62.3164   79.4093 C   0  0  0  0  0  0  0  0  0  0  0  0
   -1.1460   63.5376   81.8892 N   0  0  0  0  0  0  0  0  0  0  0  0
   -1.4877   64.2835   82.4919 H   0  0  0  0  0  0  0  0  0  0  0  0
   -0.1956   62.7017   82.6320 C   0  0  0  0  0  0  0  0  0  0  0  0
   -0.5869   63.5376   86.8711 C   0  0  0  0  0  0  0  0  0  0  0  0
    0.4229   64.1392   86.1143 C   0  0  0  0  0  0  0  0  0  0  0  0
    0.5426   63.8693   84.7461 C   0  0  0  0  0  0  0  0  0  0  0  0
   -0.3464   62.9967   84.1041 C   0  0  0  0  0  0  0  0  0  0  0  0
   -1.3539   62.3870   84.8609 C   0  0  0  0  0  0  0  0  0  0  0  0
   -1.4727   62.6573   86.2291 C   0  0  0  0  0  0  0  0  0  0  0  0
   -2.7456   61.8671   87.0959 Cl  0  0  0  0  0  0  0  0  0  0  0  0
    0.0766   63.0518   89.1133 C   0  0  0  0  0  0  0  0  0  0  0  0
   -0.7796   63.7416   88.2126 O   0  0  0  0  0  0  0  0  0  0  0  0
 29 30  1  0  0  0
 30 22  1  0  0  0
 22 23  1  0  0  0
 23 24  2  0  0  0
 24 25  1  0  0  0
 25 21  1  0  0  0
 21 19  1  0  0  0
 19  1  1  0  0  0
  1  2  2  0  0  0
  2  3  1  0  0  0
  3  4  2  0  0  0
  4  5  1  0  0  0
  5  6  2  0  0  0
  6  7  1  0  0  0
  7  8  2  0  0  0
  8  9  1  0  0  0
  8 10  1  0  0  0
 10 11  2  0  0  0
  3 12  1  0  0  0
 12 13  1  0  0  0
 13 14  1  0  0  0
 14 15  1  0  0  0
 15 16  1  0  0  0
 15 17  2  0  0  0
 14 18  1  0  0  0
 25 26  2  0  0  0
 26 27  1  0  0  0
 27 28  1  0  0  0
 27 22  2  0  0  0
 11  1  1  0  0  0
 18  2  1  0  0  0
 11  5  1  0  0  0
 19 20  1  0  0  0
M  END
> <minimizedAffinity>
-10.59103

$$$$



 30 33  0  0  0  0  0  0  0  0999 V2000
   -0.0199   63.6762   83.3625 C   0  0  0  0  0  0  0  0  0  0  0  0
   -0.6486   63.4546   82.1221 C   0  0  0  0  0  0  0  0  0  0  0  0
   -1.8821   62.8124   82.1264 C   0  0  0  0  0  0  0  0  0  0  0  0
   -2.5126   62.4193   83.2578 N   0  0  0  0  0  0  0  0  0  0  0  0
   -1.9211   62.6391   84.4387 C   0  0  0  0  0  0  0  0  0  0  0  0
   -2.5886   62.2252   85.5841 C   0  0  0  0  0  0  0  0  0  0  0  0
   -2.0560   62.4146   86.8607 C   0  0  0  0  0  0  0  0  0  0  0  0
   -0.8236   63.0338   86.9938 C   0  0  0  0  0  0  0  0  0  0  0  0
   -0.0838   63.3043   88.7108 Br  0  0  0  0  0  0  0  0  0  0  0  0
   -0.1293   63.4592   85.8632 C   0  0  0  0  0  0  0  0  0  0  0  0
   -0.6651   63.2706   84.5637 C   0  0  0  0  0  0  0  0  0  0  0  0
   -2.6137   62.5552   80.8395 C   0  0  0  0  0  0  0  0  0  0  0  0
   -1.6423   62.4089   79.6781 C   0  0  0  0  0  0  0  0  0  0  0  0
   -0.7372   63.5534   79.6157 N   0  0  0  0  0  0  0  0  0  0  0  0
   -0.2567   64.1078   78.4361 C   0  0  0  0  0  0  0  0  0  0  0  0
   -0.9482   63.7181   77.1550 C   0  0  0  0  0  0  0  0  0  0  0  0
    0.6870   64.8992   78.4140 O   0  0  0  0  0  0  0  0  0  0  0  0
    0.0258   63.8433   80.8296 C   0  0  0  0  0  0  0  0  0  0  0  0
    1.2189   64.3737   83.3741 N   0  0  0  0  0  0  0  0  0  0  0  0
    1.8597   63.9563   84.0462 H   0  0  0  0  0  0  0  0  0  0  0  0
    1.0521   65.8005   83.6744 C   0  0  0  0  0  0  0  0  0  0  0  0
    4.7416   67.2890   85.4049 C   0  0  0  0  0  0  0  0  0  0  0  0
    3.9125   68.1303   84.6572 C   0  0  0  0  0  0  0  0  0  0  0  0
    2.7212   67.6463   84.1042 C   0  0  0  0  0  0  0  0  0  0  0  0
    2.3306   66.3134   84.2903 C   0  0  0  0  0  0  0  0  0  0  0  0
    3.1625   65.4667   85.0322 C   0  0  0  0  0  0  0  0  0  0  0  0
    4.3538   65.9514   85.5846 C   0  0  0  0  0  0  0  0  0  0  0  0
    5.3271   64.8441   86.4914 Cl  0  0  0  0  0  0  0  0  0  0  0  0
    7.1210   67.4296   85.2570 C   0  0  0  0  0  0  0  0  0  0  0  0
    5.9234   67.6744   85.9821 O   0  0  0  0  0  0  0  0  0  0  0  0
 29 30  1  0  0  0
 30 22  1  0  0  0
 22 23  1  0  0  0
 23 24  2  0  0  0
 24 25  1  0  0  0
 25 21  1  0  0  0
 21 19  1  0  0  0
 19  1  1  0  0  0
  1  2  2  0  0  0
  2  3  1  0  0  0
  3  4  2  0  0  0
  4  5  1  0  0  0
  5  6  2  0  0  0
  6  7  1  0  0  0
  7  8  2  0  0  0
  8  9  1  0  0  0
  8 10  1  0  0  0
 10 11  2  0  0  0
  3 12  1  0  0  0
 12 13  1  0  0  0
 13 14  1  0  0  0
 14 15  1  0  0  0
 15 16  1  0  0  0
 15 17  2  0  0  0
 14 18  1  0  0  0
 25 26  2  0  0  0
 26 27  1  0  0  0
 27 28  1  0  0  0
 27 22  2  0  0  0
 11  1  1  0  0  0
 18  2  1  0  0  0
 11  5  1  0  0  0
 19 20  1  0  0  0
M  END
> <minimizedAffinity>
-10.58650

$$$$



 30 33  0  0  0  0  0  0  0  0999 V2000
   -0.7483   63.6724   82.8435 C   0  0  0  0  0  0  0  0  0  0  0  0
   -0.3795   63.9318   84.1775 C   0  0  0  0  0  0  0  0  0  0  0  0
    0.5832   64.9091   84.4054 C   0  0  0  0  0  0  0  0  0  0  0  0
    1.1562   65.6343   83.4165 N   0  0  0  0  0  0  0  0  0  0  0  0
    0.7986   65.3964   82.1483 C   0  0  0  0  0  0  0  0  0  0  0  0
    1.4021   66.1535   81.1526 C   0  0  0  0  0  0  0  0  0  0  0  0
    1.0918   65.9830   79.8021 C   0  0  0  0  0  0  0  0  0  0  0  0
    0.1536   65.0299   79.4393 C   0  0  0  0  0  0  0  0  0  0  0  0
   -0.2854   64.7829   77.6187 Br  0  0  0  0  0  0  0  0  0  0  0  0
   -0.4682   64.2541   80.4155 C   0  0  0  0  0  0  0  0  0  0  0  0
   -0.1581   64.4230   81.7890 C   0  0  0  0  0  0  0  0  0  0  0  0
    1.0143   65.2449   85.8050 C   0  0  0  0  0  0  0  0  0  0  0  0
    0.8628   64.0443   86.7267 C   0  0  0  0  0  0  0  0  0  0  0  0
   -0.4907   63.5014   86.6478 N   0  0  0  0  0  0  0  0  0  0  0  0
   -1.1771   62.9509   87.7228 C   0  0  0  0  0  0  0  0  0  0  0  0
   -0.6300   63.2137   89.1023 C   0  0  0  0  0  0  0  0  0  0  0  0
   -2.2019   62.2825   87.5804 O   0  0  0  0  0  0  0  0  0  0  0  0
   -0.9632   63.1295   85.3143 C   0  0  0  0  0  0  0  0  0  0  0  0
   -1.7654   62.7089   82.6015 N   0  0  0  0  0  0  0  0  0  0  0  0
   -2.4355   62.6940   83.3678 H   0  0  0  0  0  0  0  0  0  0  0  0
   -1.2197   61.3616   82.3993 C   0  0  0  0  0  0  0  0  0  0  0  0
   -2.4698   59.9009   78.5101 C   0  0  0  0  0  0  0  0  0  0  0  0
   -3.2731   59.7083   79.6378 C   0  0  0  0  0  0  0  0  0  0  0  0
   -2.8672   60.1848   80.8898 C   0  0  0  0  0  0  0  0  0  0  0  0
   -1.6529   60.8679   81.0408 C   0  0  0  0  0  0  0  0  0  0  0  0
   -0.8429   61.0557   79.9147 C   0  0  0  0  0  0  0  0  0  0  0  0
   -1.2495   60.5785   78.6632 C   0  0  0  0  0  0  0  0  0  0  0  0
   -0.1948   60.8523   77.3184 Cl  0  0  0  0  0  0  0  0  0  0  0  0
   -3.5353   60.3486   76.4202 C   0  0  0  0  0  0  0  0  0  0  0  0
   -2.7851   59.4698   77.2479 O   0  0  0  0  0  0  0  0  0  0  0  0
 29 30  1  0  0  0
 30 22  1  0  0  0
 22 23  1  0  0  0
 23 24  2  0  0  0
 24 25  1  0  0  0
 25 21  1  0  0  0
 21 19  1  0  0  0
 19  1  1  0  0  0
  1  2  2  0  0  0
  2  3  1  0  0  0
  3  4  2  0  0  0
  4  5  1  0  0  0
  5  6  2  0  0  0
  6  7  1  0  0  0
  7  8  2  0  0  0
  8  9  1  0  0  0
  8 10  1  0  0  0
 10 11  2  0  0  0
  3 12  1  0  0  0
 12 13  1  0  0  0
 13 14  1  0  0  0
 14 15  1  0  0  0
 15 16  1  0  0  0
 15 17  2  0  0  0
 14 18  1  0  0  0
 25 26  2  0  0  0
 26 27  1  0  0  0
 27 28  1  0  0  0
 27 22  2  0  0  0
 11  1  1  0  0  0
 18  2  1  0  0  0
 11  5  1  0  0  0
 19 20  1  0  0  0
M  END
> <minimizedAffinity>
-10.55250

$$$$



 30 33  0  0  0  0  0  0  0  0999 V2000
   -0.0086   63.7526   82.9361 C   0  0  0  0  0  0  0  0  0  0  0  0
   -0.5864   63.3573   84.1579 C   0  0  0  0  0  0  0  0  0  0  0  0
   -1.7698   62.6285   84.1093 C   0  0  0  0  0  0  0  0  0  0  0  0
   -2.3711   62.2617   82.9534 N   0  0  0  0  0  0  0  0  0  0  0  0
   -1.8171   62.6275   81.7907 C   0  0  0  0  0  0  0  0  0  0  0  0
   -2.4544   62.2392   80.6194 C   0  0  0  0  0  0  0  0  0  0  0  0
   -1.9517   62.5677   79.3590 C   0  0  0  0  0  0  0  0  0  0  0  0
   -0.7813   63.3039   79.2691 C   0  0  0  0  0  0  0  0  0  0  0  0
   -0.0795   63.7578   77.5750 Br  0  0  0  0  0  0  0  0  0  0  0  0
   -0.1196   63.7089   80.4264 C   0  0  0  0  0  0  0  0  0  0  0  0
   -0.6244   63.3778   81.7097 C   0  0  0  0  0  0  0  0  0  0  0  0
   -2.4334   62.1644   85.3749 C   0  0  0  0  0  0  0  0  0  0  0  0
   -2.1205   63.1012   86.5317 C   0  0  0  0  0  0  0  0  0  0  0  0
   -0.6787   63.2919   86.6652 N   0  0  0  0  0  0  0  0  0  0  0  0
   -0.0189   63.4484   87.8777 C   0  0  0  0  0  0  0  0  0  0  0  0
   -0.7751   63.0865   89.1301 C   0  0  0  0  0  0  0  0  0  0  0  0
    1.1425   63.8524   87.9508 O   0  0  0  0  0  0  0  0  0  0  0  0
    0.0252   63.7680   85.4746 C   0  0  0  0  0  0  0  0  0  0  0  0
    1.2258   64.4571   82.9720 N   0  0  0  0  0  0  0  0  0  0  0  0
    1.8191   64.1039   83.7200 H   0  0  0  0  0  0  0  0  0  0  0  0
    1.0373   65.9034   83.1352 C   0  0  0  0  0  0  0  0  0  0  0  0
    4.3813   67.4959   85.3943 C   0  0  0  0  0  0  0  0  0  0  0  0
    3.5523   68.3423   84.6523 C   0  0  0  0  0  0  0  0  0  0  0  0
    2.4723   67.8242   83.9282 C   0  0  0  0  0  0  0  0  0  0  0  0
    2.1947   66.4505   83.9338 C   0  0  0  0  0  0  0  0  0  0  0  0
    3.0275   65.5996   84.6698 C   0  0  0  0  0  0  0  0  0  0  0  0
    4.1075   66.1186   85.3935 C   0  0  0  0  0  0  0  0  0  0  0  0
    5.0892   65.0032   86.2810 Cl  0  0  0  0  0  0  0  0  0  0  0  0
    6.7439   67.8160   85.5317 C   0  0  0  0  0  0  0  0  0  0  0  0
    5.4589   67.9130   86.1313 O   0  0  0  0  0  0  0  0  0  0  0  0
 29 30  1  0  0  0
 30 22  1  0  0  0
 22 23  1  0  0  0
 23 24  2  0  0  0
 24 25  1  0  0  0
 25 21  1  0  0  0
 21 19  1  0  0  0
 19  1  1  0  0  0
  1  2  2  0  0  0
  2  3  1  0  0  0
  3  4  2  0  0  0
  4  5  1  0  0  0
  5  6  2  0  0  0
  6  7  1  0  0  0
  7  8  2  0  0  0
  8  9  1  0  0  0
  8 10  1  0  0  0
 10 11  2  0  0  0
  3 12  1  0  0  0
 12 13  1  0  0  0
 13 14  1  0  0  0
 14 15  1  0  0  0
 15 16  1  0  0  0
 15 17  2  0  0  0
 14 18  1  0  0  0
 25 26  2  0  0  0
 26 27  1  0  0  0
 27 28  1  0  0  0
 27 22  2  0  0  0
 11  1  1  0  0  0
 18  2  1  0  0  0
 11  5  1  0  0  0
 19 20  1  0  0  0
M  END
> <minimizedAffinity>
-10.50809

$$$$



 30 33  0  0  0  0  0  0  0  0999 V2000
   -0.4761   63.3568   82.8660 C   0  0  0  0  0  0  0  0  0  0  0  0
   -0.9362   63.0667   84.1648 C   0  0  0  0  0  0  0  0  0  0  0  0
   -2.1159   62.3406   84.2872 C   0  0  0  0  0  0  0  0  0  0  0  0
   -2.8203   61.8808   83.2269 N   0  0  0  0  0  0  0  0  0  0  0  0
   -2.3782   62.1464   81.9913 C   0  0  0  0  0  0  0  0  0  0  0  0
   -3.1199   61.6640   80.9207 C   0  0  0  0  0  0  0  0  0  0  0  0
   -2.7377   61.8845   79.5961 C   0  0  0  0  0  0  0  0  0  0  0  0
   -1.5839   62.6066   79.3368 C   0  0  0  0  0  0  0  0  0  0  0  0
   -1.0444   62.9152   77.5529 Br  0  0  0  0  0  0  0  0  0  0  0  0
   -0.8193   63.1044   80.3899 C   0  0  0  0  0  0  0  0  0  0  0  0
   -1.2014   62.8832   81.7376 C   0  0  0  0  0  0  0  0  0  0  0  0
   -2.6571   61.9859   85.6433 C   0  0  0  0  0  0  0  0  0  0  0  0
   -2.2422   63.0148   86.6839 C   0  0  0  0  0  0  0  0  0  0  0  0
   -0.7950   63.2109   86.6666 N   0  0  0  0  0  0  0  0  0  0  0  0
   -0.0262   63.4657   87.7952 C   0  0  0  0  0  0  0  0  0  0  0  0
   -0.6613   63.2121   89.1383 C   0  0  0  0  0  0  0  0  0  0  0  0
    1.1352   63.8704   87.7263 O   0  0  0  0  0  0  0  0  0  0  0  0
   -0.2068   63.5837   85.3802 C   0  0  0  0  0  0  0  0  0  0  0  0
    0.7533   64.0576   82.7282 N   0  0  0  0  0  0  0  0  0  0  0  0
    1.3758   63.8468   83.5058 H   0  0  0  0  0  0  0  0  0  0  0  0
    0.5595   65.5092   82.6330 C   0  0  0  0  0  0  0  0  0  0  0  0
    3.9939   67.4733   84.4133 C   0  0  0  0  0  0  0  0  0  0  0  0
    3.5922   66.2058   84.8450 C   0  0  0  0  0  0  0  0  0  0  0  0
    2.4858   65.5746   84.2648 C   0  0  0  0  0  0  0  0  0  0  0  0
    1.7603   66.1938   83.2381 C   0  0  0  0  0  0  0  0  0  0  0  0
    2.1557   67.4662   82.8089 C   0  0  0  0  0  0  0  0  0  0  0  0
    3.2621   68.0968   83.3899 C   0  0  0  0  0  0  0  0  0  0  0  0
    3.6904   69.6678   82.8031 Cl  0  0  0  0  0  0  0  0  0  0  0  0
    5.5123   67.8175   86.2242 C   0  0  0  0  0  0  0  0  0  0  0  0
    5.0615   68.1659   84.9220 O   0  0  0  0  0  0  0  0  0  0  0  0
 29 30  1  0  0  0
 30 22  1  0  0  0
 22 23  1  0  0  0
 23 24  2  0  0  0
 24 25  1  0  0  0
 25 21  1  0  0  0
 21 19  1  0  0  0
 19  1  1  0  0  0
  1  2  2  0  0  0
  2  3  1  0  0  0
  3  4  2  0  0  0
  4  5  1  0  0  0
  5  6  2  0  0  0
  6  7  1  0  0  0
  7  8  2  0  0  0
  8  9  1  0  0  0
  8 10  1  0  0  0
 10 11  2  0  0  0
  3 12  1  0  0  0
 12 13  1  0  0  0
 13 14  1  0  0  0
 14 15  1  0  0  0
 15 16  1  0  0  0
 15 17  2  0  0  0
 14 18  1  0  0  0
 25 26  2  0  0  0
 26 27  1  0  0  0
 27 28  1  0  0  0
 27 22  2  0  0  0
 11  1  1  0  0  0
 18  2  1  0  0  0
 11  5  1  0  0  0
 19 20  1  0  0  0
M  END
> <minimizedAffinity>
-10.43501

$$$$



 30 33  0  0  0  0  0  0  0  0999 V2000
   -0.3886   63.3631   83.4048 C   0  0  0  0  0  0  0  0  0  0  0  0
   -1.0487   63.0543   82.1998 C   0  0  0  0  0  0  0  0  0  0  0  0
   -2.2662   62.3872   82.2805 C   0  0  0  0  0  0  0  0  0  0  0  0
   -2.8534   62.0489   83.4522 N   0  0  0  0  0  0  0  0  0  0  0  0
   -2.2323   62.3516   84.5990 C   0  0  0  0  0  0  0  0  0  0  0  0
   -2.8556   61.9927   85.7871 C   0  0  0  0  0  0  0  0  0  0  0  0
   -2.2898   62.2695   87.0331 C   0  0  0  0  0  0  0  0  0  0  0  0
   -1.0687   62.9219   87.0909 C   0  0  0  0  0  0  0  0  0  0  0  0
   -0.2845   63.3105   88.7651 Br  0  0  0  0  0  0  0  0  0  0  0  0
   -0.4184   63.2937   85.9161 C   0  0  0  0  0  0  0  0  0  0  0  0
   -0.9882   63.0164   84.6474 C   0  0  0  0  0  0  0  0  0  0  0  0
   -3.0296   62.0378   81.0344 C   0  0  0  0  0  0  0  0  0  0  0  0
   -2.0901   61.8432   79.8540 C   0  0  0  0  0  0  0  0  0  0  0  0
   -1.2141   63.0011   79.6959 N   0  0  0  0  0  0  0  0  0  0  0  0
   -0.7820   63.4941   78.4712 C   0  0  0  0  0  0  0  0  0  0  0  0
   -1.5021   63.0137   77.2375 C   0  0  0  0  0  0  0  0  0  0  0  0
    0.1419   64.3029   78.3731 O   0  0  0  0  0  0  0  0  0  0  0  0
   -0.4223   63.3794   80.8663 C   0  0  0  0  0  0  0  0  0  0  0  0
    0.8334   64.0865   83.3366 N   0  0  0  0  0  0  0  0  0  0  0  0
    1.4686   63.7887   84.0744 H   0  0  0  0  0  0  0  0  0  0  0  0
    0.6275   65.5371   83.4208 C   0  0  0  0  0  0  0  0  0  0  0  0
    4.4128   67.4136   84.4073 C   0  0  0  0  0  0  0  0  0  0  0  0
    4.0537   66.1875   84.9746 C   0  0  0  0  0  0  0  0  0  0  0  0
    2.8330   65.5842   84.6502 C   0  0  0  0  0  0  0  0  0  0  0  0
    1.9476   66.1904   83.7488 C   0  0  0  0  0  0  0  0  0  0  0  0
    2.3012   67.4218   83.1849 C   0  0  0  0  0  0  0  0  0  0  0  0
    3.5220   68.0245   83.5101 C   0  0  0  0  0  0  0  0  0  0  0  0
    3.8888   69.5453   82.7696 Cl  0  0  0  0  0  0  0  0  0  0  0  0
    6.3230   67.6846   85.8148 C   0  0  0  0  0  0  0  0  0  0  0  0
    5.5839   68.0768   84.6658 O   0  0  0  0  0  0  0  0  0  0  0  0
 29 30  1  0  0  0
 30 22  1  0  0  0
 22 23  1  0  0  0
 23 24  2  0  0  0
 24 25  1  0  0  0
 25 21  1  0  0  0
 21 19  1  0  0  0
 19  1  1  0  0  0
  1  2  2  0  0  0
  2  3  1  0  0  0
  3  4  2  0  0  0
  4  5  1  0  0  0
  5  6  2  0  0  0
  6  7  1  0  0  0
  7  8  2  0  0  0
  8  9  1  0  0  0
  8 10  1  0  0  0
 10 11  2  0  0  0
  3 12  1  0  0  0
 12 13  1  0  0  0
 13 14  1  0  0  0
 14 15  1  0  0  0
 15 16  1  0  0  0
 15 17  2  0  0  0
 14 18  1  0  0  0
 25 26  2  0  0  0
 26 27  1  0  0  0
 27 28  1  0  0  0
 27 22  2  0  0  0
 11  1  1  0  0  0
 18  2  1  0  0  0
 11  5  1  0  0  0
 19 20  1  0  0  0
M  END
> <minimizedAffinity>
-10.38946

$$$$



 30 33  0  0  0  0  0  0  0  0999 V2000
    0.0481   63.9072   83.4710 C   0  0  0  0  0  0  0  0  0  0  0  0
   -0.4775   63.7252   82.1774 C   0  0  0  0  0  0  0  0  0  0  0  0
   -1.6740   63.0268   82.0565 C   0  0  0  0  0  0  0  0  0  0  0  0
   -2.3637   62.5428   83.1158 N   0  0  0  0  0  0  0  0  0  0  0  0
   -1.8707   62.7246   84.3473 C   0  0  0  0  0  0  0  0  0  0  0  0
   -2.5972   62.2174   85.4169 C   0  0  0  0  0  0  0  0  0  0  0  0
   -2.1682   62.3608   86.7377 C   0  0  0  0  0  0  0  0  0  0  0  0
   -0.9815   63.0287   86.9942 C   0  0  0  0  0  0  0  0  0  0  0  0
   -0.3820   63.2384   88.7733 Br  0  0  0  0  0  0  0  0  0  0  0  0
   -0.2300   63.5477   85.9420 C   0  0  0  0  0  0  0  0  0  0  0  0
   -0.6606   63.4063   84.5982 C   0  0  0  0  0  0  0  0  0  0  0  0
   -2.2970   62.8070   80.7070 C   0  0  0  0  0  0  0  0  0  0  0  0
   -1.2384   62.7706   79.6154 C   0  0  0  0  0  0  0  0  0  0  0  0
   -0.3903   63.9579   79.6798 N   0  0  0  0  0  0  0  0  0  0  0  0
    0.1453   64.5983   78.5695 C   0  0  0  0  0  0  0  0  0  0  0  0
   -0.4315   64.2480   77.2220 C   0  0  0  0  0  0  0  0  0  0  0  0
    1.0468   65.4330   78.6588 O   0  0  0  0  0  0  0  0  0  0  0  0
    0.2676   64.2157   80.9606 C   0  0  0  0  0  0  0  0  0  0  0  0
    1.2459   64.6602   83.6110 N   0  0  0  0  0  0  0  0  0  0  0  0
    1.9603   64.1132   84.0874 H   0  0  0  0  0  0  0  0  0  0  0  0
    1.0305   65.9209   84.3308 C   0  0  0  0  0  0  0  0  0  0  0  0
    3.1377   69.1080   82.2755 C   0  0  0  0  0  0  0  0  0  0  0  0
    3.3698   68.8557   83.6307 C   0  0  0  0  0  0  0  0  0  0  0  0
    2.6903   67.8238   84.2885 C   0  0  0  0  0  0  0  0  0  0  0  0
    1.7684   67.0191   83.6054 C   0  0  0  0  0  0  0  0  0  0  0  0
    1.5284   67.2742   82.2501 C   0  0  0  0  0  0  0  0  0  0  0  0
    2.2082   68.3066   81.5932 C   0  0  0  0  0  0  0  0  0  0  0  0
    1.8593   68.5579   79.9167 Cl  0  0  0  0  0  0  0  0  0  0  0  0
    3.2826   71.4250   81.7151 C   0  0  0  0  0  0  0  0  0  0  0  0
    3.7548   70.0944   81.5513 O   0  0  0  0  0  0  0  0  0  0  0  0
 29 30  1  0  0  0
 30 22  1  0  0  0
 22 23  1  0  0  0
 23 24  2  0  0  0
 24 25  1  0  0  0
 25 21  1  0  0  0
 21 19  1  0  0  0
 19  1  1  0  0  0
  1  2  2  0  0  0
  2  3  1  0  0  0
  3  4  2  0  0  0
  4  5  1  0  0  0
  5  6  2  0  0  0
  6  7  1  0  0  0
  7  8  2  0  0  0
  8  9  1  0  0  0
  8 10  1  0  0  0
 10 11  2  0  0  0
  3 12  1  0  0  0
 12 13  1  0  0  0
 13 14  1  0  0  0
 14 15  1  0  0  0
 15 16  1  0  0  0
 15 17  2  0  0  0
 14 18  1  0  0  0
 25 26  2  0  0  0
 26 27  1  0  0  0
 27 28  1  0  0  0
 27 22  2  0  0  0
 11  1  1  0  0  0
 18  2  1  0  0  0
 11  5  1  0  0  0
 19 20  1  0  0  0
M  END
> <minimizedAffinity>
-10.36927

$$$$



 30 33  0  0  0  0  0  0  0  0999 V2000
    0.8671   66.4458   81.7998 C   0  0  0  0  0  0  0  0  0  0  0  0
    1.7543   67.5179   82.0149 C   0  0  0  0  0  0  0  0  0  0  0  0
    2.2933   67.6675   83.2881 C   0  0  0  0  0  0  0  0  0  0  0  0
    2.0289   66.8229   84.3123 N   0  0  0  0  0  0  0  0  0  0  0  0
    1.1941   65.7966   84.1063 C   0  0  0  0  0  0  0  0  0  0  0  0
    0.9388   64.9455   85.1737 C   0  0  0  0  0  0  0  0  0  0  0  0
    0.0871   63.8454   85.0563 C   0  0  0  0  0  0  0  0  0  0  0  0
   -0.5248   63.5914   83.8394 C   0  0  0  0  0  0  0  0  0  0  0  0
   -1.6788   62.1072   83.6548 Br  0  0  0  0  0  0  0  0  0  0  0  0
   -0.2893   64.4280   82.7503 C   0  0  0  0  0  0  0  0  0  0  0  0
    0.5754   65.5464   82.8627 C   0  0  0  0  0  0  0  0  0  0  0  0
    3.2560   68.7826   83.5838 C   0  0  0  0  0  0  0  0  0  0  0  0
    3.0011   69.9792   82.6799 C   0  0  0  0  0  0  0  0  0  0  0  0
    2.9921   69.5730   81.2771 N   0  0  0  0  0  0  0  0  0  0  0  0
    3.4718   70.3539   80.2331 C   0  0  0  0  0  0  0  0  0  0  0  0
    4.3324   71.5379   80.5919 C   0  0  0  0  0  0  0  0  0  0  0  0
    3.2283   70.1008   79.0524 O   0  0  0  0  0  0  0  0  0  0  0  0
    2.0570   68.5073   80.9168 C   0  0  0  0  0  0  0  0  0  0  0  0
    0.3468   66.2550   80.4906 N   0  0  0  0  0  0  0  0  0  0  0  0
   -0.5594   65.7926   80.5282 H   0  0  0  0  0  0  0  0  0  0  0  0
    1.2572   65.4838   79.6361 C   0  0  0  0  0  0  0  0  0  0  0  0
   -1.1133   62.6550   77.3556 C   0  0  0  0  0  0  0  0  0  0  0  0
   -0.8399   63.9293   76.8502 C   0  0  0  0  0  0  0  0  0  0  0  0
   -0.0714   64.8371   77.5881 C   0  0  0  0  0  0  0  0  0  0  0  0
    0.4443   64.4895   78.8440 C   0  0  0  0  0  0  0  0  0  0  0  0
    0.1659   63.2168   79.3559 C   0  0  0  0  0  0  0  0  0  0  0  0
   -0.6031   62.3098   78.6174 C   0  0  0  0  0  0  0  0  0  0  0  0
   -0.9014   60.7548   79.3165 Cl  0  0  0  0  0  0  0  0  0  0  0  0
   -3.2696   61.8391   76.7325 C   0  0  0  0  0  0  0  0  0  0  0  0
   -1.8550   61.7033   76.7056 O   0  0  0  0  0  0  0  0  0  0  0  0
 29 30  1  0  0  0
 30 22  1  0  0  0
 22 23  1  0  0  0
 23 24  2  0  0  0
 24 25  1  0  0  0
 25 21  1  0  0  0
 21 19  1  0  0  0
 19  1  1  0  0  0
  1  2  2  0  0  0
  2  3  1  0  0  0
  3  4  2  0  0  0
  4  5  1  0  0  0
  5  6  2  0  0  0
  6  7  1  0  0  0
  7  8  2  0  0  0
  8  9  1  0  0  0
  8 10  1  0  0  0
 10 11  2  0  0  0
  3 12  1  0  0  0
 12 13  1  0  0  0
 13 14  1  0  0  0
 14 15  1  0  0  0
 15 16  1  0  0  0
 15 17  2  0  0  0
 14 18  1  0  0  0
 25 26  2  0  0  0
 26 27  1  0  0  0
 27 28  1  0  0  0
 27 22  2  0  0  0
 11  1  1  0  0  0
 18  2  1  0  0  0
 11  5  1  0  0  0
 19 20  1  0  0  0
M  END
> <minimizedAffinity>
-10.26202

$$$$
