
     RDKit          3D

 75 79  0  0  0  0  0  0  0  0999 V2000
   -5.7080    0.5499   -0.1384 C   0  0  0  0  0  0  0  0  0  0  0  0
   -4.8631    0.4253   -1.3966 C   0  0  0  0  0  0  0  0  0  0  0  0
   -3.9431   -0.7437   -1.3282 C   0  0  0  0  0  0  0  0  0  0  0  0
   -2.6716   -0.8487   -0.8314 C   0  0  0  0  0  0  0  0  0  0  0  0
   -1.8949    0.1449   -0.2393 N   0  0  0  0  0  0  0  0  0  0  0  0
   -0.7037   -0.2478    0.1055 C   0  0  0  0  0  0  0  0  0  0  0  0
    0.2411    0.7091    0.7291 C   0  0  0  0  0  0  0  0  0  0  0  0
    0.9794    0.3393    1.8561 C   0  0  0  0  0  0  0  0  0  0  0  0
    1.8554    1.2698    2.4155 C   0  0  0  0  0  0  0  0  0  0  0  0
    2.7992    0.8557    3.8399 S   0  0  0  0  0  0  0  0  0  0  0  0
    3.5226    2.0297    4.2739 O   0  0  0  0  0  0  0  0  0  0  0  0
    1.9116    0.1444    4.7340 O   0  0  0  0  0  0  0  0  0  0  0  0
    3.9301   -0.2610    3.2174 N   0  0  0  0  0  0  0  0  0  0  0  0
    4.8494    0.2788    2.1556 C   0  0  0  0  0  0  0  0  0  0  0  0
    6.1298   -0.5681    2.0327 C   0  0  0  0  0  0  0  0  0  0  0  0
    6.9335   -0.5285    3.2621 N   0  0  0  0  0  0  0  0  0  0  0  0
    8.0272   -1.5010    3.2856 C   0  0  0  0  0  0  0  0  0  0  0  0
    7.6251   -2.9689    3.4031 C   0  0  0  0  0  0  0  0  0  0  0  0
    6.1070   -0.5016    4.4809 C   0  0  0  0  0  0  0  0  0  0  0  0
    4.6710   -1.0209    4.2852 C   0  0  0  0  0  0  0  0  0  0  0  0
    1.9576    2.5310    1.8607 C   0  0  0  0  0  0  0  0  0  0  0  0
    1.2595    2.9081    0.7626 N   0  0  0  0  0  0  0  0  0  0  0  0
    0.4006    2.0025    0.2270 C   0  0  0  0  0  0  0  0  0  0  0  0
   -0.2656    2.3449   -0.9256 O   0  0  0  0  0  0  0  0  0  0  0  0
   -0.3570    3.7553   -1.1407 C   0  0  0  0  0  0  0  0  0  0  0  0
   -1.3787    4.0626   -2.2185 C   0  0  0  0  0  0  0  0  0  0  0  0
   -1.6588    3.1510   -3.2371 C   0  0  0  0  0  0  0  0  0  0  0  0
   -2.5878    3.4923   -4.2169 C   0  0  0  0  0  0  0  0  0  0  0  0
   -3.2057    4.7350   -4.1664 C   0  0  0  0  0  0  0  0  0  0  0  0
   -2.8654    5.5901   -3.1332 C   0  0  0  0  0  0  0  0  0  0  0  0
   -1.9683    5.2870   -2.1689 N   0  0  0  0  0  0  0  0  0  0  0  0
   -0.2135   -1.5411   -0.0618 N   0  0  0  0  0  0  0  0  0  0  0  0
   -0.9217   -2.5746   -0.6487 C   0  0  0  0  0  0  0  0  0  0  0  0
   -0.4223   -3.6854   -0.8029 O   0  0  0  0  0  0  0  0  0  0  0  0
   -2.2500   -2.1634   -1.0455 C   0  0  0  0  0  0  0  0  0  0  0  0
   -3.2024   -2.8902   -1.6458 N   0  0  0  0  0  0  0  0  0  0  0  0
   -4.2263   -2.0099   -1.7928 N   0  0  0  0  0  0  0  0  0  0  0  0
   -5.4500   -2.4796   -2.4122 C   0  0  0  0  0  0  0  0  0  0  0  0
   -5.3553   -2.4538   -3.9322 C   0  0  0  0  0  0  0  0  0  0  0  0
   -6.6090   -2.7742   -4.5435 O   0  0  0  0  0  0  0  0  0  0  0  0
   -6.8493   -4.1752   -4.6091 C   0  0  0  0  0  0  0  0  0  0  0  0
   -6.3685    1.4199   -0.2103 H   0  0  0  0  0  0  0  0  0  0  0  0
   -5.0792    0.6741    0.7502 H   0  0  0  0  0  0  0  0  0  0  0  0
   -6.3311   -0.3380    0.0134 H   0  0  0  0  0  0  0  0  0  0  0  0
   -5.5149    0.3561   -2.2745 H   0  0  0  0  0  0  0  0  0  0  0  0
   -4.2758    1.3429   -1.5255 H   0  0  0  0  0  0  0  0  0  0  0  0
    0.8627   -0.6394    2.3151 H   0  0  0  0  0  0  0  0  0  0  0  0
    4.3171    0.2538    1.1984 H   0  0  0  0  0  0  0  0  0  0  0  0
    5.1223    1.3185    2.3683 H   0  0  0  0  0  0  0  0  0  0  0  0
    6.7306   -0.1840    1.2005 H   0  0  0  0  0  0  0  0  0  0  0  0
    5.8373   -1.5934    1.7778 H   0  0  0  0  0  0  0  0  0  0  0  0
    8.6939   -1.2546    4.1218 H   0  0  0  0  0  0  0  0  0  0  0  0
    8.6383   -1.3737    2.3831 H   0  0  0  0  0  0  0  0  0  0  0  0
    8.5234   -3.5944    3.4397 H   0  0  0  0  0  0  0  0  0  0  0  0
    7.0318   -3.2999    2.5461 H   0  0  0  0  0  0  0  0  0  0  0  0
    7.0536   -3.1631    4.3157 H   0  0  0  0  0  0  0  0  0  0  0  0
    6.5849   -1.0439    5.3057 H   0  0  0  0  0  0  0  0  0  0  0  0
    6.0530    0.5441    4.8096 H   0  0  0  0  0  0  0  0  0  0  0  0
    4.6818   -2.0773    3.9906 H   0  0  0  0  0  0  0  0  0  0  0  0
    4.1391   -0.9790    5.2414 H   0  0  0  0  0  0  0  0  0  0  0  0
    2.6131    3.2956    2.2719 H   0  0  0  0  0  0  0  0  0  0  0  0
   -0.6703    4.2675   -0.2216 H   0  0  0  0  0  0  0  0  0  0  0  0
    0.6141    4.1411   -1.4731 H   0  0  0  0  0  0  0  0  0  0  0  0
   -1.1719    2.1808   -3.2672 H   0  0  0  0  0  0  0  0  0  0  0  0
   -2.8249    2.7915   -5.0124 H   0  0  0  0  0  0  0  0  0  0  0  0
   -3.9327    5.0312   -4.9139 H   0  0  0  0  0  0  0  0  0  0  0  0
   -3.3172    6.5747   -3.0505 H   0  0  0  0  0  0  0  0  0  0  0  0
    0.7318   -1.7869    0.1900 H   0  0  0  0  0  0  0  0  0  0  0  0
   -5.6385   -3.4934   -2.0414 H   0  0  0  0  0  0  0  0  0  0  0  0
   -6.2855   -1.8661   -2.0609 H   0  0  0  0  0  0  0  0  0  0  0  0
   -4.5654   -3.1175   -4.3048 H   0  0  0  0  0  0  0  0  0  0  0  0
   -5.0973   -1.4418   -4.2648 H   0  0  0  0  0  0  0  0  0  0  0  0
   -6.0646   -4.6726   -5.1874 H   0  0  0  0  0  0  0  0  0  0  0  0
   -7.8059   -4.3337   -5.1148 H   0  0  0  0  0  0  0  0  0  0  0  0
   -6.9135   -4.6081   -3.6071 H   0  0  0  0  0  0  0  0  0  0  0  0
  1  2  1  0
  2  3  1  0
  3  4  2  0
  4  5  1  0
  5  6  2  0
  6  7  1  0
  7  8  1  0
  8  9  2  0
  9 10  1  0
 10 11  2  0
 10 12  2  0
 10 13  1  0
 13 14  1  0
 14 15  1  0
 15 16  1  0
 16 17  1  0
 17 18  1  0
 16 19  1  0
 19 20  1  0
  9 21  1  0
 21 22  2  0
 22 23  1  0
 23 24  1  0
 24 25  1  0
 25 26  1  0
 26 27  2  0
 27 28  1  0
 28 29  2  0
 29 30  1  0
 30 31  2  0
  6 32  1  0
 32 33  1  0
 33 34  2  0
 33 35  1  0
 35 36  2  0
 36 37  1  0
 37 38  1  0
 38 39  1  0
 39 40  1  0
 40 41  1  0
 37  3  1  0
 35  4  1  0
 23  7  2  0
 31 26  1  0
 20 13  1  0
  1 42  1  0
  1 43  1  0
  1 44  1  0
  2 45  1  0
  2 46  1  0
  8 47  1  0
 14 48  1  0
 14 49  1  0
 15 50  1  0
 15 51  1  0
 17 52  1  0
 17 53  1  0
 18 54  1  0
 18 55  1  0
 18 56  1  0
 19 57  1  0
 19 58  1  0
 20 59  1  0
 20 60  1  0
 21 61  1  0
 25 62  1  0
 25 63  1  0
 27 64  1  0
 28 65  1  0
 29 66  1  0
 30 67  1  0
 32 68  1  0
 38 69  1  0
 38 70  1  0
 39 71  1  0
 39 72  1  0
 41 73  1  0
 41 74  1  0
 41 75  1  0
M  END
$$$$
