


 45 48  0  0  0  0  0  0  0  0999 V2000
    2.2293   66.3642   84.2208 C   0  0  0  0  0  0  0  0  0  0  0  0
    1.6974   67.3232   83.3520 C   0  0  0  0  0  0  0  0  0  0  0  0
    2.5250   68.3509   82.8900 C   0  0  0  0  0  0  0  0  0  0  0  0
    3.8657   68.4316   83.2833 C   0  0  0  0  0  0  0  0  0  0  0  0
    4.3866   67.4736   84.1538 C   0  0  0  0  0  0  0  0  0  0  0  0
    3.5736   66.4318   84.6093 C   0  0  0  0  0  0  0  0  0  0  0  0
   -0.8714   62.5497   83.8470 C   0  0  0  0  0  0  0  0  0  0  0  0
   -1.4458   61.7830   84.7938 N   0  0  0  0  0  0  0  0  0  0  0  0
   -0.9867   62.3000   85.9605 N   0  0  0  0  0  0  0  0  0  0  0  0
   -1.4003   61.7213   87.2160 C   0  0  0  0  0  0  0  0  0  0  0  0
   -0.1467   63.3542   85.7828 C   0  0  0  0  0  0  0  0  0  0  0  0
    0.5498   64.1660   86.7118 C   0  0  0  0  0  0  0  0  0  0  0  0
    0.5251   64.0499   87.9313 O   0  0  0  0  0  0  0  0  0  0  0  0
    1.2923   65.1369   86.0776 N   0  0  0  0  0  0  0  0  0  0  0  0
    1.3589   65.2669   84.6943 C   0  0  0  0  0  0  0  0  0  0  0  0
    0.7198   64.5238   83.8366 N   0  0  0  0  0  0  0  0  0  0  0  0
   -0.0581   63.5316   84.4346 C   0  0  0  0  0  0  0  0  0  0  0  0
    1.8379   65.7284   86.6853 H   0  0  0  0  0  0  0  0  0  0  0  0
   -1.1232   62.2992   82.4003 C   0  0  0  0  0  0  0  0  0  0  0  0
    1.1452   61.2540   81.8974 C   0  0  0  0  0  0  0  0  0  0  0  0
   -0.3675   61.0891   81.8467 C   0  0  0  0  0  0  0  0  0  0  0  0
    1.8750   69.5830   81.7882 S   0  0  0  0  0  0  0  0  0  0  0  0
    0.6279   70.0418   82.3578 O   0  0  0  0  0  0  0  0  0  0  0  0
    2.9454   70.4991   81.4560 O   0  0  0  0  0  0  0  0  0  0  0  0
    1.5285   68.6849   80.3839 N   0  0  0  0  0  0  0  0  0  0  0  0
    0.0884   68.6373   79.9713 C   0  0  0  0  0  0  0  0  0  0  0  0
   -0.5435   67.2636   80.2634 C   0  0  0  0  0  0  0  0  0  0  0  0
    0.0963   66.1568   79.5152 N   0  0  0  0  0  0  0  0  0  0  0  0
    1.5428   66.4112   79.3248 C   0  0  0  0  0  0  0  0  0  0  0  0
    2.1785   67.3339   80.3804 C   0  0  0  0  0  0  0  0  0  0  0  0
   -0.1406   64.8559   80.1662 C   0  0  0  0  0  0  0  0  0  0  0  0
   -0.0862   63.6580   79.2026 C   0  0  0  0  0  0  0  0  0  0  0  0
   -0.9544   63.8732   78.0743 O   0  0  0  0  0  0  0  0  0  0  0  0
   -0.9436   62.8889   77.1327 C   0  0  0  0  0  0  0  0  0  0  0  0
    0.0541   62.3032   76.7390 O   0  0  0  0  0  0  0  0  0  0  0  0
   -2.3521   62.6382   76.6497 C   0  0  0  0  0  0  0  0  0  0  0  0
   -3.2241   62.0280   77.7487 C   0  0  0  0  0  0  0  0  0  0  0  0
   -3.1179   60.5055   77.7928 C   0  0  0  0  0  0  0  0  0  0  0  0
   -2.4471   60.1272   78.9910 O   0  0  0  0  0  0  0  0  0  0  0  0
   -3.3223   59.5633   79.9506 N   0  0  0  0  0  0  0  0  0  0  0  0
   -3.6059   58.3713   79.8248 O   0  0  0  0  0  0  0  0  0  0  0  0
   -3.6782   60.3744   80.8030 O   0  0  0  0  0  0  0  0  0  0  0  0
    4.0777   65.5456   85.5232 O   0  0  0  0  0  0  0  0  0  0  0  0
    5.1136   66.1553   86.3050 C   0  0  0  0  0  0  0  0  0  0  0  0
    5.5396   65.1643   87.3724 C   0  0  0  0  0  0  0  0  0  0  0  0
 20 21  1  0  0  0
 21 19  1  0  0  0
 19  7  1  0  0  0
  7  8  2  0  0  0
  8  9  1  0  0  0
  9 10  1  0  0  0
  9 11  1  0  0  0
 11 12  1  0  0  0
 12 13  2  0  0  0
 12 14  1  0  0  0
 14 15  1  0  0  0
 15  1  1  0  0  0
  1  2  1  0  0  0
  2  3  2  0  0  0
  3 22  1  0  0  0
 22 23  2  0  0  0
 22 24  2  0  0  0
 22 25  1  0  0  0
 25 26  1  0  0  0
 26 27  1  0  0  0
 27 28  1  0  0  0
 28 31  1  0  0  0
 31 32  1  0  0  0
 32 33  1  0  0  0
 33 34  1  0  0  0
 34 35  2  0  0  0
 34 36  1  0  0  0
 36 37  1  0  0  0
 37 38  1  0  0  0
 38 39  1  0  0  0
 39 40  1  0  0  0
 40 41  2  0  0  0
 40 42  1  0  0  0
 28 29  1  0  0  0
 29 30  1  0  0  0
  3  4  1  0  0  0
  4  5  2  0  0  0
  5  6  1  0  0  0
  6 43  1  0  0  0
 43 44  1  0  0  0
 44 45  1  0  0  0
 15 16  2  0  0  0
 16 17  1  0  0  0
 17  7  1  0  0  0
 17 11  2  0  0  0
  6  1  2  0  0  0
 30 25  1  0  0  0
 14 18  1  0  0  0
M  CHG 1  40   1
M  CHG 1  42  -1
M  END
> <minimizedAffinity>
-9.96958

$$$$



 45 48  0  0  0  0  0  0  0  0999 V2000
    0.4810   64.8937   80.8383 C   0  0  0  0  0  0  0  0  0  0  0  0
    0.0412   64.4727   79.5786 C   0  0  0  0  0  0  0  0  0  0  0  0
   -0.2229   63.1154   79.3729 C   0  0  0  0  0  0  0  0  0  0  0  0
   -0.0533   62.1818   80.4015 C   0  0  0  0  0  0  0  0  0  0  0  0
    0.3902   62.6097   81.6533 C   0  0  0  0  0  0  0  0  0  0  0  0
    0.6416   63.9665   81.8762 C   0  0  0  0  0  0  0  0  0  0  0  0
    2.7834   68.8596   82.6480 C   0  0  0  0  0  0  0  0  0  0  0  0
    2.5427   70.1740   82.4785 N   0  0  0  0  0  0  0  0  0  0  0  0
    1.4595   70.2086   81.6631 N   0  0  0  0  0  0  0  0  0  0  0  0
    0.9043   71.4774   81.2579 C   0  0  0  0  0  0  0  0  0  0  0  0
    1.0160   68.9722   81.3125 C   0  0  0  0  0  0  0  0  0  0  0  0
   -0.0595   68.5602   80.4875 C   0  0  0  0  0  0  0  0  0  0  0  0
   -0.8347   69.2983   79.8912 O   0  0  0  0  0  0  0  0  0  0  0  0
   -0.1457   67.1876   80.4174 N   0  0  0  0  0  0  0  0  0  0  0  0
    0.7422   66.3318   81.0609 C   0  0  0  0  0  0  0  0  0  0  0  0
    1.7315   66.7059   81.8209 N   0  0  0  0  0  0  0  0  0  0  0  0
    1.8508   68.0917   81.9328 C   0  0  0  0  0  0  0  0  0  0  0  0
   -0.8738   66.8312   79.8176 H   0  0  0  0  0  0  0  0  0  0  0  0
    3.9174   68.3902   83.4923 C   0  0  0  0  0  0  0  0  0  0  0  0
    4.0157   66.1364   84.6763 C   0  0  0  0  0  0  0  0  0  0  0  0
    3.4794   67.5611   84.7017 C   0  0  0  0  0  0  0  0  0  0  0  0
   -0.7800   62.5532   77.7827 S   0  0  0  0  0  0  0  0  0  0  0  0
   -1.2921   63.7099   77.0827 O   0  0  0  0  0  0  0  0  0  0  0  0
    0.2532   61.7129   77.2155 O   0  0  0  0  0  0  0  0  0  0  0  0
   -2.0892   61.5402   78.1807 N   0  0  0  0  0  0  0  0  0  0  0  0
   -3.2734   62.2107   78.8089 C   0  0  0  0  0  0  0  0  0  0  0  0
   -3.3723   61.9008   80.3142 C   0  0  0  0  0  0  0  0  0  0  0  0
   -3.5627   60.4602   80.6013 N   0  0  0  0  0  0  0  0  0  0  0  0
   -2.8662   59.6223   79.5984 C   0  0  0  0  0  0  0  0  0  0  0  0
   -1.6669   60.3019   78.9130 C   0  0  0  0  0  0  0  0  0  0  0  0
   -3.1408   60.1216   81.9723 C   0  0  0  0  0  0  0  0  0  0  0  0
   -2.5973   61.3191   82.7705 C   0  0  0  0  0  0  0  0  0  0  0  0
   -2.8760   61.1631   84.1744 O   0  0  0  0  0  0  0  0  0  0  0  0
   -2.0303   61.8220   85.0148 C   0  0  0  0  0  0  0  0  0  0  0  0
   -0.8163   61.6843   85.0410 O   0  0  0  0  0  0  0  0  0  0  0  0
   -2.8251   62.7433   85.9090 C   0  0  0  0  0  0  0  0  0  0  0  0
   -2.4934   62.5194   87.3856 C   0  0  0  0  0  0  0  0  0  0  0  0
   -1.5226   63.5669   87.9256 C   0  0  0  0  0  0  0  0  0  0  0  0
   -1.1664   63.2173   89.2596 O   0  0  0  0  0  0  0  0  0  0  0  0
    0.1925   62.8379   89.3790 N   0  0  0  0  0  0  0  0  0  0  0  0
    0.4403   61.8228   90.0311 O   0  0  0  0  0  0  0  0  0  0  0  0
    0.9524   63.6018   88.7871 O   0  0  0  0  0  0  0  0  0  0  0  0
    1.1502   64.3589   83.0853 O   0  0  0  0  0  0  0  0  0  0  0  0
    0.0963   64.5863   84.0307 C   0  0  0  0  0  0  0  0  0  0  0  0
    0.7285   65.0046   85.3453 C   0  0  0  0  0  0  0  0  0  0  0  0
 20 21  1  0  0  0
 21 19  1  0  0  0
 19  7  1  0  0  0
  7  8  2  0  0  0
  8  9  1  0  0  0
  9 10  1  0  0  0
  9 11  1  0  0  0
 11 12  1  0  0  0
 12 13  2  0  0  0
 12 14  1  0  0  0
 14 15  1  0  0  0
 15  1  1  0  0  0
  1  2  1  0  0  0
  2  3  2  0  0  0
  3 22  1  0  0  0
 22 23  2  0  0  0
 22 24  2  0  0  0
 22 25  1  0  0  0
 25 26  1  0  0  0
 26 27  1  0  0  0
 27 28  1  0  0  0
 28 31  1  0  0  0
 31 32  1  0  0  0
 32 33  1  0  0  0
 33 34  1  0  0  0
 34 35  2  0  0  0
 34 36  1  0  0  0
 36 37  1  0  0  0
 37 38  1  0  0  0
 38 39  1  0  0  0
 39 40  1  0  0  0
 40 41  2  0  0  0
 40 42  1  0  0  0
 28 29  1  0  0  0
 29 30  1  0  0  0
  3  4  1  0  0  0
  4  5  2  0  0  0
  5  6  1  0  0  0
  6 43  1  0  0  0
 43 44  1  0  0  0
 44 45  1  0  0  0
 15 16  2  0  0  0
 16 17  1  0  0  0
 17  7  1  0  0  0
 17 11  2  0  0  0
  6  1  2  0  0  0
 30 25  1  0  0  0
 14 18  1  0  0  0
M  CHG 1  40   1
M  CHG 1  42  -1
M  END
> <minimizedAffinity>
-9.12635

$$$$



 45 48  0  0  0  0  0  0  0  0999 V2000
    2.4012   66.2656   84.4089 C   0  0  0  0  0  0  0  0  0  0  0  0
    1.9373   67.2981   83.5867 C   0  0  0  0  0  0  0  0  0  0  0  0
    2.8462   68.2530   83.1216 C   0  0  0  0  0  0  0  0  0  0  0  0
    4.2011   68.1897   83.4661 C   0  0  0  0  0  0  0  0  0  0  0  0
    4.6543   67.1592   84.2905 C   0  0  0  0  0  0  0  0  0  0  0  0
    3.7583   66.1889   84.7482 C   0  0  0  0  0  0  0  0  0  0  0  0
   -1.2786   63.0000   84.0940 C   0  0  0  0  0  0  0  0  0  0  0  0
   -1.8308   62.1996   85.0261 N   0  0  0  0  0  0  0  0  0  0  0  0
   -1.1414   62.4871   86.1581 N   0  0  0  0  0  0  0  0  0  0  0  0
   -1.4647   61.8077   87.3895 C   0  0  0  0  0  0  0  0  0  0  0  0
   -0.1794   63.4296   85.9720 C   0  0  0  0  0  0  0  0  0  0  0  0
    0.7556   64.0055   86.8670 C   0  0  0  0  0  0  0  0  0  0  0  0
    0.8801   63.7313   88.0547 O   0  0  0  0  0  0  0  0  0  0  0  0
    1.5469   64.9411   86.2386 N   0  0  0  0  0  0  0  0  0  0  0  0
    1.4432   65.2452   84.8852 C   0  0  0  0  0  0  0  0  0  0  0  0
    0.5847   64.7192   84.0589 N   0  0  0  0  0  0  0  0  0  0  0  0
   -0.2494   63.7725   84.6550 C   0  0  0  0  0  0  0  0  0  0  0  0
    2.2561   65.3648   86.8169 H   0  0  0  0  0  0  0  0  0  0  0  0
   -1.7619   62.9831   82.6850 C   0  0  0  0  0  0  0  0  0  0  0  0
   -2.9216   60.7985   82.0736 C   0  0  0  0  0  0  0  0  0  0  0  0
   -3.0924   62.2495   82.5017 C   0  0  0  0  0  0  0  0  0  0  0  0
    2.2838   69.5760   82.0783 S   0  0  0  0  0  0  0  0  0  0  0  0
    1.0749   70.0982   82.6751 O   0  0  0  0  0  0  0  0  0  0  0  0
    3.4168   70.4260   81.7797 O   0  0  0  0  0  0  0  0  0  0  0  0
    1.8690   68.7676   80.6385 N   0  0  0  0  0  0  0  0  0  0  0  0
    0.4747   68.9913   80.1360 C   0  0  0  0  0  0  0  0  0  0  0  0
   -0.4179   67.7569   80.3621 C   0  0  0  0  0  0  0  0  0  0  0  0
    0.0533   66.5557   79.6347 N   0  0  0  0  0  0  0  0  0  0  0  0
    1.5311   66.5382   79.5398 C   0  0  0  0  0  0  0  0  0  0  0  0
    2.2567   67.3194   80.6502 C   0  0  0  0  0  0  0  0  0  0  0  0
   -0.4619   65.3170   80.2450 C   0  0  0  0  0  0  0  0  0  0  0  0
    0.1591   64.0333   79.6682 C   0  0  0  0  0  0  0  0  0  0  0  0
   -0.8678   63.1218   79.2348 O   0  0  0  0  0  0  0  0  0  0  0  0
   -0.5756   61.7995   79.3822 C   0  0  0  0  0  0  0  0  0  0  0  0
   -1.2607   60.8772   78.9660 O   0  0  0  0  0  0  0  0  0  0  0  0
    0.7213   61.6518   80.1416 C   0  0  0  0  0  0  0  0  0  0  0  0
    0.5121   60.9425   81.4808 C   0  0  0  0  0  0  0  0  0  0  0  0
    1.8188   60.7612   82.2496 C   0  0  0  0  0  0  0  0  0  0  0  0
    2.8866   60.6349   81.3155 O   0  0  0  0  0  0  0  0  0  0  0  0
    3.9954   59.9332   81.8472 N   0  0  0  0  0  0  0  0  0  0  0  0
    5.0640   60.0228   81.2411 O   0  0  0  0  0  0  0  0  0  0  0  0
    3.7201   59.3205   82.8768 O   0  0  0  0  0  0  0  0  0  0  0  0
    4.2034   65.2301   85.6184 O   0  0  0  0  0  0  0  0  0  0  0  0
    5.4980   65.5711   86.1322 C   0  0  0  0  0  0  0  0  0  0  0  0
    5.4173   65.5634   87.6476 C   0  0  0  0  0  0  0  0  0  0  0  0
 20 21  1  0  0  0
 21 19  1  0  0  0
 19  7  1  0  0  0
  7  8  2  0  0  0
  8  9  1  0  0  0
  9 10  1  0  0  0
  9 11  1  0  0  0
 11 12  1  0  0  0
 12 13  2  0  0  0
 12 14  1  0  0  0
 14 15  1  0  0  0
 15  1  1  0  0  0
  1  2  1  0  0  0
  2  3  2  0  0  0
  3 22  1  0  0  0
 22 23  2  0  0  0
 22 24  2  0  0  0
 22 25  1  0  0  0
 25 26  1  0  0  0
 26 27  1  0  0  0
 27 28  1  0  0  0
 28 31  1  0  0  0
 31 32  1  0  0  0
 32 33  1  0  0  0
 33 34  1  0  0  0
 34 35  2  0  0  0
 34 36  1  0  0  0
 36 37  1  0  0  0
 37 38  1  0  0  0
 38 39  1  0  0  0
 39 40  1  0  0  0
 40 41  2  0  0  0
 40 42  1  0  0  0
 28 29  1  0  0  0
 29 30  1  0  0  0
  3  4  1  0  0  0
  4  5  2  0  0  0
  5  6  1  0  0  0
  6 43  1  0  0  0
 43 44  1  0  0  0
 44 45  1  0  0  0
 15 16  2  0  0  0
 16 17  1  0  0  0
 17  7  1  0  0  0
 17 11  2  0  0  0
  6  1  2  0  0  0
 30 25  1  0  0  0
 14 18  1  0  0  0
M  CHG 1  40   1
M  CHG 1  42  -1
M  END
> <minimizedAffinity>
-9.08682

$$$$



 45 48  0  0  0  0  0  0  0  0999 V2000
    2.1861   68.3809   82.4481 C   0  0  0  0  0  0  0  0  0  0  0  0
    1.2754   67.7720   81.5778 C   0  0  0  0  0  0  0  0  0  0  0  0
    0.7713   66.5088   81.9012 C   0  0  0  0  0  0  0  0  0  0  0  0
    1.1638   65.8520   83.0730 C   0  0  0  0  0  0  0  0  0  0  0  0
    2.0760   66.4646   83.9329 C   0  0  0  0  0  0  0  0  0  0  0  0
    2.5743   67.7346   83.6290 C   0  0  0  0  0  0  0  0  0  0  0  0
    4.7480   71.7610   79.9350 C   0  0  0  0  0  0  0  0  0  0  0  0
    4.8683   73.0905   80.1143 N   0  0  0  0  0  0  0  0  0  0  0  0
    4.1038   73.3471   81.2047 N   0  0  0  0  0  0  0  0  0  0  0  0
    3.9913   74.6965   81.7033 C   0  0  0  0  0  0  0  0  0  0  0  0
    3.5075   72.2353   81.7116 C   0  0  0  0  0  0  0  0  0  0  0  0
    2.6381   72.0577   82.8159 C   0  0  0  0  0  0  0  0  0  0  0  0
    2.2307   72.9400   83.5621 O   0  0  0  0  0  0  0  0  0  0  0  0
    2.2786   70.7372   82.9690 N   0  0  0  0  0  0  0  0  0  0  0  0
    2.7045   69.7249   82.1152 C   0  0  0  0  0  0  0  0  0  0  0  0
    3.5043   69.8833   81.0996 N   0  0  0  0  0  0  0  0  0  0  0  0
    3.9066   71.2063   80.9123 C   0  0  0  0  0  0  0  0  0  0  0  0
    1.6332   70.5501   83.7209 H   0  0  0  0  0  0  0  0  0  0  0  0
    5.4468   71.0719   78.8144 C   0  0  0  0  0  0  0  0  0  0  0  0
    6.5169   72.2562   76.8285 C   0  0  0  0  0  0  0  0  0  0  0  0
    6.6613   71.8380   78.2853 C   0  0  0  0  0  0  0  0  0  0  0  0
   -0.3841   65.7118   80.8128 S   0  0  0  0  0  0  0  0  0  0  0  0
   -1.3798   65.0770   81.6472 O   0  0  0  0  0  0  0  0  0  0  0  0
   -0.7458   66.6525   79.7738 O   0  0  0  0  0  0  0  0  0  0  0  0
    0.5625   64.4984   80.0846 N   0  0  0  0  0  0  0  0  0  0  0  0
    0.8738   64.6898   78.6310 C   0  0  0  0  0  0  0  0  0  0  0  0
    0.0611   63.7298   77.7424 C   0  0  0  0  0  0  0  0  0  0  0  0
    0.3577   62.3022   78.0033 N   0  0  0  0  0  0  0  0  0  0  0  0
    0.6824   62.0797   79.4310 C   0  0  0  0  0  0  0  0  0  0  0  0
    0.0782   63.1144   80.3974 C   0  0  0  0  0  0  0  0  0  0  0  0
   -0.7452   61.4309   77.5598 C   0  0  0  0  0  0  0  0  0  0  0  0
   -1.0887   60.3068   78.5522 C   0  0  0  0  0  0  0  0  0  0  0  0
   -2.4692   59.9187   78.4230 O   0  0  0  0  0  0  0  0  0  0  0  0
   -3.0969   59.5961   79.5882 C   0  0  0  0  0  0  0  0  0  0  0  0
   -3.5728   58.5017   79.8510 O   0  0  0  0  0  0  0  0  0  0  0  0
   -3.1165   60.7998   80.4998 C   0  0  0  0  0  0  0  0  0  0  0  0
   -3.1403   60.3899   81.9735 C   0  0  0  0  0  0  0  0  0  0  0  0
   -2.2295   61.2644   82.8319 C   0  0  0  0  0  0  0  0  0  0  0  0
   -2.7136   61.2543   84.1713 O   0  0  0  0  0  0  0  0  0  0  0  0
   -2.2925   62.3856   84.9114 N   0  0  0  0  0  0  0  0  0  0  0  0
   -1.3873   63.0694   84.4316 O   0  0  0  0  0  0  0  0  0  0  0  0
   -2.9197   62.5278   85.9590 O   0  0  0  0  0  0  0  0  0  0  0  0
    3.5267   68.2877   84.4423 O   0  0  0  0  0  0  0  0  0  0  0  0
    4.4994   67.3067   84.8266 C   0  0  0  0  0  0  0  0  0  0  0  0
    5.2242   67.8224   86.0560 C   0  0  0  0  0  0  0  0  0  0  0  0
 20 21  1  0  0  0
 21 19  1  0  0  0
 19  7  1  0  0  0
  7  8  2  0  0  0
  8  9  1  0  0  0
  9 10  1  0  0  0
  9 11  1  0  0  0
 11 12  1  0  0  0
 12 13  2  0  0  0
 12 14  1  0  0  0
 14 15  1  0  0  0
 15  1  1  0  0  0
  1  2  1  0  0  0
  2  3  2  0  0  0
  3 22  1  0  0  0
 22 23  2  0  0  0
 22 24  2  0  0  0
 22 25  1  0  0  0
 25 26  1  0  0  0
 26 27  1  0  0  0
 27 28  1  0  0  0
 28 31  1  0  0  0
 31 32  1  0  0  0
 32 33  1  0  0  0
 33 34  1  0  0  0
 34 35  2  0  0  0
 34 36  1  0  0  0
 36 37  1  0  0  0
 37 38  1  0  0  0
 38 39  1  0  0  0
 39 40  1  0  0  0
 40 41  2  0  0  0
 40 42  1  0  0  0
 28 29  1  0  0  0
 29 30  1  0  0  0
  3  4  1  0  0  0
  4  5  2  0  0  0
  5  6  1  0  0  0
  6 43  1  0  0  0
 43 44  1  0  0  0
 44 45  1  0  0  0
 15 16  2  0  0  0
 16 17  1  0  0  0
 17  7  1  0  0  0
 17 11  2  0  0  0
  6  1  2  0  0  0
 30 25  1  0  0  0
 14 18  1  0  0  0
M  CHG 1  40   1
M  CHG 1  42  -1
M  END
> <minimizedAffinity>
-8.67624

$$$$



 45 48  0  0  0  0  0  0  0  0999 V2000
    0.7515   64.5628   84.7999 C   0  0  0  0  0  0  0  0  0  0  0  0
    0.0792   64.4302   83.5801 C   0  0  0  0  0  0  0  0  0  0  0  0
   -1.0877   63.6620   83.5305 C   0  0  0  0  0  0  0  0  0  0  0  0
   -1.5860   63.0294   84.6750 C   0  0  0  0  0  0  0  0  0  0  0  0
   -0.9066   63.1630   85.8864 C   0  0  0  0  0  0  0  0  0  0  0  0
    0.2519   63.9421   85.9523 C   0  0  0  0  0  0  0  0  0  0  0  0
    3.6837   68.3984   83.8030 C   0  0  0  0  0  0  0  0  0  0  0  0
    4.9344   68.6837   84.2137 N   0  0  0  0  0  0  0  0  0  0  0  0
    5.2689   67.6347   85.0057 N   0  0  0  0  0  0  0  0  0  0  0  0
    6.5669   67.5935   85.6349 C   0  0  0  0  0  0  0  0  0  0  0  0
    4.2791   66.7086   85.1106 C   0  0  0  0  0  0  0  0  0  0  0  0
    4.2074   65.4890   85.8278 C   0  0  0  0  0  0  0  0  0  0  0  0
    5.0858   65.0195   86.5415 O   0  0  0  0  0  0  0  0  0  0  0  0
    2.9971   64.8606   85.6368 N   0  0  0  0  0  0  0  0  0  0  0  0
    1.9751   65.3907   84.8560 C   0  0  0  0  0  0  0  0  0  0  0  0
    2.0368   66.5107   84.1943 N   0  0  0  0  0  0  0  0  0  0  0  0
    3.2526   67.1784   84.3474 C   0  0  0  0  0  0  0  0  0  0  0  0
    2.8721   64.0005   86.1483 H   0  0  0  0  0  0  0  0  0  0  0  0
    2.9427   69.3243   82.9014 C   0  0  0  0  0  0  0  0  0  0  0  0
    3.0358   69.9264   80.4276 C   0  0  0  0  0  0  0  0  0  0  0  0
    3.7903   69.8670   81.7486 C   0  0  0  0  0  0  0  0  0  0  0  0
   -1.9596   63.4750   81.9943 S   0  0  0  0  0  0  0  0  0  0  0  0
   -3.3093   63.9432   82.2163 O   0  0  0  0  0  0  0  0  0  0  0  0
   -1.1291   64.0123   80.9375 O   0  0  0  0  0  0  0  0  0  0  0  0
   -2.0015   61.7852   81.7904 N   0  0  0  0  0  0  0  0  0  0  0  0
   -0.8596   61.1855   81.0270 C   0  0  0  0  0  0  0  0  0  0  0  0
   -1.2854   60.7498   79.6126 C   0  0  0  0  0  0  0  0  0  0  0  0
   -2.3267   59.6964   79.6160 N   0  0  0  0  0  0  0  0  0  0  0  0
   -3.2363   59.8528   80.7742 C   0  0  0  0  0  0  0  0  0  0  0  0
   -3.3367   61.2868   81.3249 C   0  0  0  0  0  0  0  0  0  0  0  0
   -3.0728   59.6693   78.3452 C   0  0  0  0  0  0  0  0  0  0  0  0
   -2.1957   59.9009   77.1028 C   0  0  0  0  0  0  0  0  0  0  0  0
   -2.4169   61.2169   76.5622 O   0  0  0  0  0  0  0  0  0  0  0  0
   -1.3233   62.0285   76.5344 C   0  0  0  0  0  0  0  0  0  0  0  0
   -0.1684   61.6485   76.4110 O   0  0  0  0  0  0  0  0  0  0  0  0
   -1.7593   63.4666   76.6834 C   0  0  0  0  0  0  0  0  0  0  0  0
   -0.5620   64.4185   76.7073 C   0  0  0  0  0  0  0  0  0  0  0  0
   -0.5317   65.2783   77.9687 C   0  0  0  0  0  0  0  0  0  0  0  0
    0.8218   65.4380   78.3824 O   0  0  0  0  0  0  0  0  0  0  0  0
    0.9603   66.3580   79.4498 N   0  0  0  0  0  0  0  0  0  0  0  0
   -0.0639   66.9055   79.8600 O   0  0  0  0  0  0  0  0  0  0  0  0
    2.1242   66.4741   79.8282 O   0  0  0  0  0  0  0  0  0  0  0  0
    0.9489   63.9995   87.1294 O   0  0  0  0  0  0  0  0  0  0  0  0
    0.0922   63.7106   88.2424 C   0  0  0  0  0  0  0  0  0  0  0  0
    0.7231   62.5835   89.0389 C   0  0  0  0  0  0  0  0  0  0  0  0
 20 21  1  0  0  0
 21 19  1  0  0  0
 19  7  1  0  0  0
  7  8  2  0  0  0
  8  9  1  0  0  0
  9 10  1  0  0  0
  9 11  1  0  0  0
 11 12  1  0  0  0
 12 13  2  0  0  0
 12 14  1  0  0  0
 14 15  1  0  0  0
 15  1  1  0  0  0
  1  2  1  0  0  0
  2  3  2  0  0  0
  3 22  1  0  0  0
 22 23  2  0  0  0
 22 24  2  0  0  0
 22 25  1  0  0  0
 25 26  1  0  0  0
 26 27  1  0  0  0
 27 28  1  0  0  0
 28 31  1  0  0  0
 31 32  1  0  0  0
 32 33  1  0  0  0
 33 34  1  0  0  0
 34 35  2  0  0  0
 34 36  1  0  0  0
 36 37  1  0  0  0
 37 38  1  0  0  0
 38 39  1  0  0  0
 39 40  1  0  0  0
 40 41  2  0  0  0
 40 42  1  0  0  0
 28 29  1  0  0  0
 29 30  1  0  0  0
  3  4  1  0  0  0
  4  5  2  0  0  0
  5  6  1  0  0  0
  6 43  1  0  0  0
 43 44  1  0  0  0
 44 45  1  0  0  0
 15 16  2  0  0  0
 16 17  1  0  0  0
 17  7  1  0  0  0
 17 11  2  0  0  0
  6  1  2  0  0  0
 30 25  1  0  0  0
 14 18  1  0  0  0
M  CHG 1  40   1
M  CHG 1  42  -1
M  END
> <minimizedAffinity>
-8.67473

$$$$



 45 48  0  0  0  0  0  0  0  0999 V2000
    2.2190   66.3021   84.2037 C   0  0  0  0  0  0  0  0  0  0  0  0
    1.7731   67.1949   83.2231 C   0  0  0  0  0  0  0  0  0  0  0  0
    2.6460   68.1845   82.7617 C   0  0  0  0  0  0  0  0  0  0  0  0
    3.9474   68.2926   83.2648 C   0  0  0  0  0  0  0  0  0  0  0  0
    4.3823   67.4010   84.2461 C   0  0  0  0  0  0  0  0  0  0  0  0
    3.5245   66.3967   84.7034 C   0  0  0  0  0  0  0  0  0  0  0  0
   -0.9891   62.5774   83.8315 C   0  0  0  0  0  0  0  0  0  0  0  0
   -1.6129   61.8516   84.7793 N   0  0  0  0  0  0  0  0  0  0  0  0
   -1.1695   62.3819   85.9462 N   0  0  0  0  0  0  0  0  0  0  0  0
   -1.6351   61.8464   87.2026 C   0  0  0  0  0  0  0  0  0  0  0  0
   -0.2922   63.4051   85.7677 C   0  0  0  0  0  0  0  0  0  0  0  0
    0.4040   64.2169   86.6969 C   0  0  0  0  0  0  0  0  0  0  0  0
    0.3427   64.1308   87.9175 O   0  0  0  0  0  0  0  0  0  0  0  0
    1.1937   65.1490   86.0614 N   0  0  0  0  0  0  0  0  0  0  0  0
    1.3019   65.2438   84.6778 C   0  0  0  0  0  0  0  0  0  0  0  0
    0.6633   64.5005   83.8200 N   0  0  0  0  0  0  0  0  0  0  0  0
   -0.1615   63.5474   84.4188 C   0  0  0  0  0  0  0  0  0  0  0  0
    1.7411   65.7377   86.6703 H   0  0  0  0  0  0  0  0  0  0  0  0
   -1.2094   62.3003   82.3844 C   0  0  0  0  0  0  0  0  0  0  0  0
    1.0755   61.2538   81.9654 C   0  0  0  0  0  0  0  0  0  0  0  0
   -0.4346   61.0860   81.8677 C   0  0  0  0  0  0  0  0  0  0  0  0
    2.1050   69.3326   81.5191 S   0  0  0  0  0  0  0  0  0  0  0  0
    3.2727   69.7043   80.7518 O   0  0  0  0  0  0  0  0  0  0  0  0
    0.9195   68.7895   80.8906 O   0  0  0  0  0  0  0  0  0  0  0  0
    1.6139   70.6779   82.4399 N   0  0  0  0  0  0  0  0  0  0  0  0
    0.3419   71.3425   82.0080 C   0  0  0  0  0  0  0  0  0  0  0  0
    0.6100   72.6907   81.3136 C   0  0  0  0  0  0  0  0  0  0  0  0
    1.2676   73.6809   82.1974 N   0  0  0  0  0  0  0  0  0  0  0  0
    2.1796   73.0145   83.1553 C   0  0  0  0  0  0  0  0  0  0  0  0
    2.7252   71.6541   82.6847 C   0  0  0  0  0  0  0  0  0  0  0  0
    1.9681   74.7187   81.4199 C   0  0  0  0  0  0  0  0  0  0  0  0
    2.6116   75.8166   82.2843 C   0  0  0  0  0  0  0  0  0  0  0  0
    3.9758   76.0445   81.8843 O   0  0  0  0  0  0  0  0  0  0  0  0
    4.9218   75.4855   82.6893 C   0  0  0  0  0  0  0  0  0  0  0  0
    4.8511   75.4052   83.9066 O   0  0  0  0  0  0  0  0  0  0  0  0
    6.0700   74.9858   81.8454 C   0  0  0  0  0  0  0  0  0  0  0  0
    5.5749   74.2136   80.6211 C   0  0  0  0  0  0  0  0  0  0  0  0
    6.7197   73.5755   79.8378 C   0  0  0  0  0  0  0  0  0  0  0  0
    6.3125   72.2817   79.4029 O   0  0  0  0  0  0  0  0  0  0  0  0
    7.1177   71.7822   78.3508 N   0  0  0  0  0  0  0  0  0  0  0  0
    8.3392   71.8407   78.4977 O   0  0  0  0  0  0  0  0  0  0  0  0
    6.4548   71.3415   77.4140 O   0  0  0  0  0  0  0  0  0  0  0  0
    3.9393   65.5799   85.7209 O   0  0  0  0  0  0  0  0  0  0  0  0
    5.1961   66.0241   86.2495 C   0  0  0  0  0  0  0  0  0  0  0  0
    5.4070   65.3445   87.5898 C   0  0  0  0  0  0  0  0  0  0  0  0
 20 21  1  0  0  0
 21 19  1  0  0  0
 19  7  1  0  0  0
  7  8  2  0  0  0
  8  9  1  0  0  0
  9 10  1  0  0  0
  9 11  1  0  0  0
 11 12  1  0  0  0
 12 13  2  0  0  0
 12 14  1  0  0  0
 14 15  1  0  0  0
 15  1  1  0  0  0
  1  2  1  0  0  0
  2  3  2  0  0  0
  3 22  1  0  0  0
 22 23  2  0  0  0
 22 24  2  0  0  0
 22 25  1  0  0  0
 25 26  1  0  0  0
 26 27  1  0  0  0
 27 28  1  0  0  0
 28 31  1  0  0  0
 31 32  1  0  0  0
 32 33  1  0  0  0
 33 34  1  0  0  0
 34 35  2  0  0  0
 34 36  1  0  0  0
 36 37  1  0  0  0
 37 38  1  0  0  0
 38 39  1  0  0  0
 39 40  1  0  0  0
 40 41  2  0  0  0
 40 42  1  0  0  0
 28 29  1  0  0  0
 29 30  1  0  0  0
  3  4  1  0  0  0
  4  5  2  0  0  0
  5  6  1  0  0  0
  6 43  1  0  0  0
 43 44  1  0  0  0
 44 45  1  0  0  0
 15 16  2  0  0  0
 16 17  1  0  0  0
 17  7  1  0  0  0
 17 11  2  0  0  0
  6  1  2  0  0  0
 30 25  1  0  0  0
 14 18  1  0  0  0
M  CHG 1  40   1
M  CHG 1  42  -1
M  END
> <minimizedAffinity>
-8.64245

$$$$



 45 48  0  0  0  0  0  0  0  0999 V2000
    2.2157   66.3169   84.2029 C   0  0  0  0  0  0  0  0  0  0  0  0
    1.7682   67.2231   83.2354 C   0  0  0  0  0  0  0  0  0  0  0  0
    2.6439   68.2122   82.7781 C   0  0  0  0  0  0  0  0  0  0  0  0
    3.9497   68.3066   83.2726 C   0  0  0  0  0  0  0  0  0  0  0  0
    4.3862   67.4016   84.2408 C   0  0  0  0  0  0  0  0  0  0  0  0
    3.5254   66.3978   84.6937 C   0  0  0  0  0  0  0  0  0  0  0  0
   -1.0006   62.6009   83.8147 C   0  0  0  0  0  0  0  0  0  0  0  0
   -1.6274   61.8736   84.7593 N   0  0  0  0  0  0  0  0  0  0  0  0
   -1.1845   62.3993   85.9285 N   0  0  0  0  0  0  0  0  0  0  0  0
   -1.6531   61.8611   87.1826 C   0  0  0  0  0  0  0  0  0  0  0  0
   -0.3046   63.4210   85.7544 C   0  0  0  0  0  0  0  0  0  0  0  0
    0.3922   64.2284   86.6870 C   0  0  0  0  0  0  0  0  0  0  0  0
    0.3289   64.1386   87.9074 O   0  0  0  0  0  0  0  0  0  0  0  0
    1.1850   65.1606   86.0556 N   0  0  0  0  0  0  0  0  0  0  0  0
    1.2955   65.2593   84.6725 C   0  0  0  0  0  0  0  0  0  0  0  0
    0.6563   64.5202   83.8114 N   0  0  0  0  0  0  0  0  0  0  0  0
   -0.1716   63.5672   84.4061 C   0  0  0  0  0  0  0  0  0  0  0  0
    1.7329   65.7461   86.6671 H   0  0  0  0  0  0  0  0  0  0  0  0
   -1.2194   62.3287   82.3665 C   0  0  0  0  0  0  0  0  0  0  0  0
    1.0603   61.2661   81.9605 C   0  0  0  0  0  0  0  0  0  0  0  0
   -0.4501   61.1116   81.8481 C   0  0  0  0  0  0  0  0  0  0  0  0
    2.1009   69.3771   81.5522 S   0  0  0  0  0  0  0  0  0  0  0  0
    3.2593   69.7269   80.7610 O   0  0  0  0  0  0  0  0  0  0  0  0
    0.8905   68.8625   80.9477 O   0  0  0  0  0  0  0  0  0  0  0  0
    1.6592   70.7286   82.4888 N   0  0  0  0  0  0  0  0  0  0  0  0
    0.3740   71.4005   82.1103 C   0  0  0  0  0  0  0  0  0  0  0  0
    0.6206   72.7446   81.4002 C   0  0  0  0  0  0  0  0  0  0  0  0
    1.3226   73.7331   82.2511 N   0  0  0  0  0  0  0  0  0  0  0  0
    2.2709   73.0636   83.1707 C   0  0  0  0  0  0  0  0  0  0  0  0
    2.7865   71.6981   82.6816 C   0  0  0  0  0  0  0  0  0  0  0  0
    1.9954   74.7637   81.4403 C   0  0  0  0  0  0  0  0  0  0  0  0
    2.3883   74.2891   80.0308 C   0  0  0  0  0  0  0  0  0  0  0  0
    3.7545   74.6377   79.7392 O   0  0  0  0  0  0  0  0  0  0  0  0
    4.6790   73.6862   80.0486 C   0  0  0  0  0  0  0  0  0  0  0  0
    4.6485   72.5257   79.6671 O   0  0  0  0  0  0  0  0  0  0  0  0
    5.7420   74.2867   80.9372 C   0  0  0  0  0  0  0  0  0  0  0  0
    5.5797   75.8026   81.0640 C   0  0  0  0  0  0  0  0  0  0  0  0
    5.8265   76.2936   82.4886 C   0  0  0  0  0  0  0  0  0  0  0  0
    4.5791   76.6613   83.0694 O   0  0  0  0  0  0  0  0  0  0  0  0
    4.3582   76.0418   84.3233 N   0  0  0  0  0  0  0  0  0  0  0  0
    3.1974   75.9927   84.7323 O   0  0  0  0  0  0  0  0  0  0  0  0
    5.3945   75.6229   84.8348 O   0  0  0  0  0  0  0  0  0  0  0  0
    3.9426   65.5674   85.6991 O   0  0  0  0  0  0  0  0  0  0  0  0
    5.1680   66.0409   86.2743 C   0  0  0  0  0  0  0  0  0  0  0  0
    5.4429   65.2277   87.5256 C   0  0  0  0  0  0  0  0  0  0  0  0
 20 21  1  0  0  0
 21 19  1  0  0  0
 19  7  1  0  0  0
  7  8  2  0  0  0
  8  9  1  0  0  0
  9 10  1  0  0  0
  9 11  1  0  0  0
 11 12  1  0  0  0
 12 13  2  0  0  0
 12 14  1  0  0  0
 14 15  1  0  0  0
 15  1  1  0  0  0
  1  2  1  0  0  0
  2  3  2  0  0  0
  3 22  1  0  0  0
 22 23  2  0  0  0
 22 24  2  0  0  0
 22 25  1  0  0  0
 25 26  1  0  0  0
 26 27  1  0  0  0
 27 28  1  0  0  0
 28 31  1  0  0  0
 31 32  1  0  0  0
 32 33  1  0  0  0
 33 34  1  0  0  0
 34 35  2  0  0  0
 34 36  1  0  0  0
 36 37  1  0  0  0
 37 38  1  0  0  0
 38 39  1  0  0  0
 39 40  1  0  0  0
 40 41  2  0  0  0
 40 42  1  0  0  0
 28 29  1  0  0  0
 29 30  1  0  0  0
  3  4  1  0  0  0
  4  5  2  0  0  0
  5  6  1  0  0  0
  6 43  1  0  0  0
 43 44  1  0  0  0
 44 45  1  0  0  0
 15 16  2  0  0  0
 16 17  1  0  0  0
 17  7  1  0  0  0
 17 11  2  0  0  0
  6  1  2  0  0  0
 30 25  1  0  0  0
 14 18  1  0  0  0
M  CHG 1  40   1
M  CHG 1  42  -1
M  END
> <minimizedAffinity>
-8.58069

$$$$



 45 48  0  0  0  0  0  0  0  0999 V2000
    2.2242   66.2228   84.2545 C   0  0  0  0  0  0  0  0  0  0  0  0
    1.7928   67.1144   83.2664 C   0  0  0  0  0  0  0  0  0  0  0  0
    2.6785   68.0919   82.8037 C   0  0  0  0  0  0  0  0  0  0  0  0
    3.9784   68.1891   83.3128 C   0  0  0  0  0  0  0  0  0  0  0  0
    4.3988   67.2988   84.3015 C   0  0  0  0  0  0  0  0  0  0  0  0
    3.5280   66.3064   84.7603 C   0  0  0  0  0  0  0  0  0  0  0  0
   -0.8461   62.3815   83.9044 C   0  0  0  0  0  0  0  0  0  0  0  0
   -1.5359   61.7139   84.8492 N   0  0  0  0  0  0  0  0  0  0  0  0
   -1.2135   62.3486   86.0036 N   0  0  0  0  0  0  0  0  0  0  0  0
   -1.7785   61.9000   87.2533 C   0  0  0  0  0  0  0  0  0  0  0  0
   -0.3485   63.3814   85.8208 C   0  0  0  0  0  0  0  0  0  0  0  0
    0.2405   64.2857   86.7386 C   0  0  0  0  0  0  0  0  0  0  0  0
    0.0703   64.2946   87.9520 O   0  0  0  0  0  0  0  0  0  0  0  0
    1.0621   65.1888   86.1019 N   0  0  0  0  0  0  0  0  0  0  0  0
    1.2935   65.1771   84.7302 C   0  0  0  0  0  0  0  0  0  0  0  0
    0.7537   64.3486   83.8826 N   0  0  0  0  0  0  0  0  0  0  0  0
   -0.0990   63.4205   84.4817 C   0  0  0  0  0  0  0  0  0  0  0  0
    1.5374   65.8408   86.7068 H   0  0  0  0  0  0  0  0  0  0  0  0
   -0.9269   61.9840   82.4710 C   0  0  0  0  0  0  0  0  0  0  0  0
    0.5823   61.6183   80.4512 C   0  0  0  0  0  0  0  0  0  0  0  0
    0.3620   61.3570   81.9348 C   0  0  0  0  0  0  0  0  0  0  0  0
    2.1560   69.2383   81.5516 S   0  0  0  0  0  0  0  0  0  0  0  0
    3.3262   69.5714   80.7706 O   0  0  0  0  0  0  0  0  0  0  0  0
    0.9522   68.7176   80.9392 O   0  0  0  0  0  0  0  0  0  0  0  0
    1.7063   70.6063   82.4599 N   0  0  0  0  0  0  0  0  0  0  0  0
    0.4240   71.2706   82.0588 C   0  0  0  0  0  0  0  0  0  0  0  0
    0.6760   72.6017   81.3265 C   0  0  0  0  0  0  0  0  0  0  0  0
    1.3706   73.6059   82.1651 N   0  0  0  0  0  0  0  0  0  0  0  0
    2.3117   72.9536   83.1044 C   0  0  0  0  0  0  0  0  0  0  0  0
    2.8317   71.5797   82.6443 C   0  0  0  0  0  0  0  0  0  0  0  0
    2.0497   74.6219   81.3412 C   0  0  0  0  0  0  0  0  0  0  0  0
    1.2891   74.9921   80.0563 C   0  0  0  0  0  0  0  0  0  0  0  0
    0.3518   76.0555   80.3087 O   0  0  0  0  0  0  0  0  0  0  0  0
   -0.9143   75.8383   79.8554 C   0  0  0  0  0  0  0  0  0  0  0  0
   -1.9105   76.4324   80.2398 O   0  0  0  0  0  0  0  0  0  0  0  0
   -0.8950   74.7489   78.8099 C   0  0  0  0  0  0  0  0  0  0  0  0
   -2.0810   73.7956   78.9679 C   0  0  0  0  0  0  0  0  0  0  0  0
   -2.8792   73.6461   77.6749 C   0  0  0  0  0  0  0  0  0  0  0  0
   -3.8231   72.5920   77.8380 O   0  0  0  0  0  0  0  0  0  0  0  0
   -5.1568   73.0614   77.9116 N   0  0  0  0  0  0  0  0  0  0  0  0
   -5.5777   73.7185   76.9586 O   0  0  0  0  0  0  0  0  0  0  0  0
   -5.7213   72.7263   78.9510 O   0  0  0  0  0  0  0  0  0  0  0  0
    3.9290   65.4913   85.7848 O   0  0  0  0  0  0  0  0  0  0  0  0
    5.3537   65.3285   85.7774 C   0  0  0  0  0  0  0  0  0  0  0  0
    5.8397   65.3915   87.2135 C   0  0  0  0  0  0  0  0  0  0  0  0
 20 21  1  0  0  0
 21 19  1  0  0  0
 19  7  1  0  0  0
  7  8  2  0  0  0
  8  9  1  0  0  0
  9 10  1  0  0  0
  9 11  1  0  0  0
 11 12  1  0  0  0
 12 13  2  0  0  0
 12 14  1  0  0  0
 14 15  1  0  0  0
 15  1  1  0  0  0
  1  2  1  0  0  0
  2  3  2  0  0  0
  3 22  1  0  0  0
 22 23  2  0  0  0
 22 24  2  0  0  0
 22 25  1  0  0  0
 25 26  1  0  0  0
 26 27  1  0  0  0
 27 28  1  0  0  0
 28 31  1  0  0  0
 31 32  1  0  0  0
 32 33  1  0  0  0
 33 34  1  0  0  0
 34 35  2  0  0  0
 34 36  1  0  0  0
 36 37  1  0  0  0
 37 38  1  0  0  0
 38 39  1  0  0  0
 39 40  1  0  0  0
 40 41  2  0  0  0
 40 42  1  0  0  0
 28 29  1  0  0  0
 29 30  1  0  0  0
  3  4  1  0  0  0
  4  5  2  0  0  0
  5  6  1  0  0  0
  6 43  1  0  0  0
 43 44  1  0  0  0
 44 45  1  0  0  0
 15 16  2  0  0  0
 16 17  1  0  0  0
 17  7  1  0  0  0
 17 11  2  0  0  0
  6  1  2  0  0  0
 30 25  1  0  0  0
 14 18  1  0  0  0
M  CHG 1  40   1
M  CHG 1  42  -1
M  END
> <minimizedAffinity>
-8.52105

$$$$



 45 48  0  0  0  0  0  0  0  0999 V2000
    0.7981   66.4548   81.4684 C   0  0  0  0  0  0  0  0  0  0  0  0
    0.6119   65.9678   80.1701 C   0  0  0  0  0  0  0  0  0  0  0  0
    0.4086   64.5972   79.9841 C   0  0  0  0  0  0  0  0  0  0  0  0
    0.3904   63.7150   81.0703 C   0  0  0  0  0  0  0  0  0  0  0  0
    0.5816   64.2087   82.3613 C   0  0  0  0  0  0  0  0  0  0  0  0
    0.7691   65.5792   82.5617 C   0  0  0  0  0  0  0  0  0  0  0  0
   -0.2046   71.2648   81.0658 C   0  0  0  0  0  0  0  0  0  0  0  0
    0.4428   72.3446   81.5446 N   0  0  0  0  0  0  0  0  0  0  0  0
    1.5104   71.8254   82.2003 N   0  0  0  0  0  0  0  0  0  0  0  0
    2.4503   72.7039   82.8538 C   0  0  0  0  0  0  0  0  0  0  0  0
    1.5552   70.4673   82.1553 C   0  0  0  0  0  0  0  0  0  0  0  0
    2.4755   69.5401   82.7033 C   0  0  0  0  0  0  0  0  0  0  0  0
    3.4642   69.8154   83.3727 O   0  0  0  0  0  0  0  0  0  0  0  0
    2.1285   68.2429   82.3982 N   0  0  0  0  0  0  0  0  0  0  0  0
    0.9942   67.9067   81.6665 C   0  0  0  0  0  0  0  0  0  0  0  0
    0.1460   68.7554   81.1599 N   0  0  0  0  0  0  0  0  0  0  0  0
    0.4643   70.0864   81.4328 C   0  0  0  0  0  0  0  0  0  0  0  0
    2.7287   67.5326   82.7883 H   0  0  0  0  0  0  0  0  0  0  0  0
   -1.4581   71.4107   80.2742 C   0  0  0  0  0  0  0  0  0  0  0  0
   -2.9075   72.9365   78.8382 C   0  0  0  0  0  0  0  0  0  0  0  0
   -1.6794   72.8241   79.7309 C   0  0  0  0  0  0  0  0  0  0  0  0
    0.1722   63.9518   78.3463 S   0  0  0  0  0  0  0  0  0  0  0  0
   -0.5246   64.9677   77.5896 O   0  0  0  0  0  0  0  0  0  0  0  0
    1.4298   63.3932   77.8971 O   0  0  0  0  0  0  0  0  0  0  0  0
   -0.8918   62.6484   78.6069 N   0  0  0  0  0  0  0  0  0  0  0  0
   -2.2572   63.0041   79.1124 C   0  0  0  0  0  0  0  0  0  0  0  0
   -2.4276   62.6406   80.5992 C   0  0  0  0  0  0  0  0  0  0  0  0
   -2.2980   61.1887   80.8628 N   0  0  0  0  0  0  0  0  0  0  0  0
   -1.3271   60.5652   79.9344 C   0  0  0  0  0  0  0  0  0  0  0  0
   -0.2620   61.5261   79.3760 C   0  0  0  0  0  0  0  0  0  0  0  0
   -1.9450   60.9238   82.2690 C   0  0  0  0  0  0  0  0  0  0  0  0
   -2.3089   62.0693   83.2291 C   0  0  0  0  0  0  0  0  0  0  0  0
   -2.8697   61.5509   84.4497 O   0  0  0  0  0  0  0  0  0  0  0  0
   -2.3331   62.0506   85.5977 C   0  0  0  0  0  0  0  0  0  0  0  0
   -2.6536   61.7149   86.7281 O   0  0  0  0  0  0  0  0  0  0  0  0
   -1.2863   63.0840   85.2563 C   0  0  0  0  0  0  0  0  0  0  0  0
   -0.0756   62.9880   86.1866 C   0  0  0  0  0  0  0  0  0  0  0  0
   -0.0420   64.1199   87.2108 C   0  0  0  0  0  0  0  0  0  0  0  0
    0.6995   63.6878   88.3475 O   0  0  0  0  0  0  0  0  0  0  0  0
   -0.0800   62.9216   89.2475 N   0  0  0  0  0  0  0  0  0  0  0  0
   -1.2766   63.1999   89.3366 O   0  0  0  0  0  0  0  0  0  0  0  0
    0.5747   62.0553   89.8238 O   0  0  0  0  0  0  0  0  0  0  0  0
    1.0327   66.0369   83.8249 O   0  0  0  0  0  0  0  0  0  0  0  0
    2.0657   65.2576   84.4429 C   0  0  0  0  0  0  0  0  0  0  0  0
    3.2988   66.1326   84.5719 C   0  0  0  0  0  0  0  0  0  0  0  0
 20 21  1  0  0  0
 21 19  1  0  0  0
 19  7  1  0  0  0
  7  8  2  0  0  0
  8  9  1  0  0  0
  9 10  1  0  0  0
  9 11  1  0  0  0
 11 12  1  0  0  0
 12 13  2  0  0  0
 12 14  1  0  0  0
 14 15  1  0  0  0
 15  1  1  0  0  0
  1  2  1  0  0  0
  2  3  2  0  0  0
  3 22  1  0  0  0
 22 23  2  0  0  0
 22 24  2  0  0  0
 22 25  1  0  0  0
 25 26  1  0  0  0
 26 27  1  0  0  0
 27 28  1  0  0  0
 28 31  1  0  0  0
 31 32  1  0  0  0
 32 33  1  0  0  0
 33 34  1  0  0  0
 34 35  2  0  0  0
 34 36  1  0  0  0
 36 37  1  0  0  0
 37 38  1  0  0  0
 38 39  1  0  0  0
 39 40  1  0  0  0
 40 41  2  0  0  0
 40 42  1  0  0  0
 28 29  1  0  0  0
 29 30  1  0  0  0
  3  4  1  0  0  0
  4  5  2  0  0  0
  5  6  1  0  0  0
  6 43  1  0  0  0
 43 44  1  0  0  0
 44 45  1  0  0  0
 15 16  2  0  0  0
 16 17  1  0  0  0
 17  7  1  0  0  0
 17 11  2  0  0  0
  6  1  2  0  0  0
 30 25  1  0  0  0
 14 18  1  0  0  0
M  CHG 1  40   1
M  CHG 1  42  -1
M  END
> <minimizedAffinity>
-8.46653

$$$$
