


 37 41  0  0  0  0  0  0  0  0999 V2000
   -0.2453   63.4464   85.9784 N   0  0  0  0  0  0  0  0  0  0  0  0
    0.5755   64.4985   86.1886 N   0  0  0  0  0  0  0  0  0  0  0  0
    0.8188   64.9461   84.9523 C   0  0  0  0  0  0  0  0  0  0  0  0
    0.1365   64.2174   83.9454 C   0  0  0  0  0  0  0  0  0  0  0  0
   -0.0014   64.2370   82.5235 C   0  0  0  0  0  0  0  0  0  0  0  0
    0.5804   65.2082   81.6800 C   0  0  0  0  0  0  0  0  0  0  0  0
    0.4360   65.1059   80.3443 N   0  0  0  0  0  0  0  0  0  0  0  0
   -0.2978   64.0892   79.7798 N   0  0  0  0  0  0  0  0  0  0  0  0
   -0.8913   63.1476   80.5430 C   0  0  0  0  0  0  0  0  0  0  0  0
   -0.7712   63.1997   81.9439 C   0  0  0  0  0  0  0  0  0  0  0  0
   -1.3944   62.2844   82.8090 C   0  0  0  0  0  0  0  0  0  0  0  0
   -1.3188   62.2585   84.1617 N   0  0  0  0  0  0  0  0  0  0  0  0
   -0.5345   63.2320   84.6569 C   0  0  0  0  0  0  0  0  0  0  0  0
   -1.6135   62.0955   79.9203 N   0  0  0  0  0  0  0  0  0  0  0  0
   -2.4776   62.5815   78.8412 C   0  0  0  0  0  0  0  0  0  0  0  0
   -3.4658   61.4693   78.4759 C   0  0  0  0  0  0  0  0  0  0  0  0
   -2.8544   60.0616   78.5920 C   0  0  0  0  0  0  0  0  0  0  0  0
   -1.3290   60.1105   78.4535 C   0  0  0  0  0  0  0  0  0  0  0  0
   -0.6714   61.0435   79.4812 C   0  0  0  0  0  0  0  0  0  0  0  0
   -3.2497   59.3861   79.8914 C   0  0  0  0  0  0  0  0  0  0  0  0
   -3.5384   59.9253   80.9468 O   0  0  0  0  0  0  0  0  0  0  0  0
   -3.1862   58.0414   79.8172 O   0  0  0  0  0  0  0  0  0  0  0  0
   -3.4405   57.7433   80.7159 H   0  0  0  0  0  0  0  0  0  0  0  0
   -2.0124   63.2240   87.6773 C   0  0  0  0  0  0  0  0  0  0  0  0
   -0.7236   62.6660   87.1009 C   0  0  0  0  0  0  0  0  0  0  0  0
    1.3003   66.2905   82.2249 N   0  0  0  0  0  0  0  0  0  0  0  0
    0.6715   66.8269   82.8182 H   0  0  0  0  0  0  0  0  0  0  0  0
    1.9376   67.1527   81.2368 C   0  0  0  0  0  0  0  0  0  0  0  0
    1.8460   68.5816   81.7209 C   0  0  0  0  0  0  0  0  0  0  0  0
    2.9102   69.1811   82.4052 C   0  0  0  0  0  0  0  0  0  0  0  0
    2.8247   70.5106   82.8380 C   0  0  0  0  0  0  0  0  0  0  0  0
    1.6751   71.2680   82.5904 C   0  0  0  0  0  0  0  0  0  0  0  0
    0.6111   70.6684   81.8981 C   0  0  0  0  0  0  0  0  0  0  0  0
   -0.8426   71.5391   81.5487 Cl  0  0  0  0  0  0  0  0  0  0  0  0
    0.6961   69.3411   81.4660 C   0  0  0  0  0  0  0  0  0  0  0  0
    1.5055   72.5717   82.9777 O   0  0  0  0  0  0  0  0  0  0  0  0
    2.6697   73.3329   83.2672 C   0  0  0  0  0  0  0  0  0  0  0  0
 24 25  1  0  0  0
 25  1  1  0  0  0
  1  2  1  0  0  0
  2  3  2  0  0  0
  3  4  1  0  0  0
  4  5  1  0  0  0
  5  6  2  0  0  0
  6 26  1  0  0  0
 26 28  1  0  0  0
 28 29  1  0  0  0
 29 30  1  0  0  0
 30 31  2  0  0  0
 31 32  1  0  0  0
 32 36  1  0  0  0
 36 37  1  0  0  0
 32 33  2  0  0  0
 33 34  1  0  0  0
 33 35  1  0  0  0
  6  7  1  0  0  0
  7  8  2  0  0  0
  8  9  1  0  0  0
  9 14  1  0  0  0
 14 15  1  0  0  0
 15 16  1  0  0  0
 16 17  1  0  0  0
 17 20  1  0  0  0
 20 21  2  0  0  0
 20 22  1  0  0  0
 17 18  1  0  0  0
 18 19  1  0  0  0
  9 10  2  0  0  0
 10 11  1  0  0  0
 11 12  2  0  0  0
 12 13  1  0  0  0
 13  1  1  0  0  0
 13  4  2  0  0  0
 10  5  1  0  0  0
 35 29  2  0  0  0
 19 14  1  0  0  0
 26 27  1  0  0  0
 22 23  1  0  0  0
M  END
> <minimizedAffinity>
-11.40347

$$$$



 37 41  0  0  0  0  0  0  0  0999 V2000
   -0.1789   62.8137   87.2887 N   0  0  0  0  0  0  0  0  0  0  0  0
    0.6446   63.8454   87.5756 N   0  0  0  0  0  0  0  0  0  0  0  0
    0.7796   64.4634   86.3975 C   0  0  0  0  0  0  0  0  0  0  0  0
    0.0244   63.8641   85.3578 C   0  0  0  0  0  0  0  0  0  0  0  0
   -0.2311   64.0750   83.9680 C   0  0  0  0  0  0  0  0  0  0  0  0
    0.2677   65.1654   83.2227 C   0  0  0  0  0  0  0  0  0  0  0  0
    0.0143   65.2436   81.9018 N   0  0  0  0  0  0  0  0  0  0  0  0
   -0.7523   64.2974   81.2631 N   0  0  0  0  0  0  0  0  0  0  0  0
   -1.2697   63.2470   81.9341 C   0  0  0  0  0  0  0  0  0  0  0  0
   -1.0345   63.1096   83.3145 C   0  0  0  0  0  0  0  0  0  0  0  0
   -1.5735   62.0707   84.0921 C   0  0  0  0  0  0  0  0  0  0  0  0
   -1.3857   61.8617   85.4177 N   0  0  0  0  0  0  0  0  0  0  0  0
   -0.5741   62.7757   85.9779 C   0  0  0  0  0  0  0  0  0  0  0  0
   -2.0291   62.2740   81.2322 N   0  0  0  0  0  0  0  0  0  0  0  0
   -3.3114   62.8064   80.7635 C   0  0  0  0  0  0  0  0  0  0  0  0
   -4.2001   61.6296   80.3486 C   0  0  0  0  0  0  0  0  0  0  0  0
   -3.4066   60.4721   79.7166 C   0  0  0  0  0  0  0  0  0  0  0  0
   -2.0874   60.9714   79.1174 C   0  0  0  0  0  0  0  0  0  0  0  0
   -1.2076   61.6972   80.1460 C   0  0  0  0  0  0  0  0  0  0  0  0
   -3.1503   59.3594   80.7152 C   0  0  0  0  0  0  0  0  0  0  0  0
   -2.8882   59.4762   81.9009 O   0  0  0  0  0  0  0  0  0  0  0  0
   -3.1616   58.1378   80.1449 O   0  0  0  0  0  0  0  0  0  0  0  0
   -2.9635   57.5291   80.8875 H   0  0  0  0  0  0  0  0  0  0  0  0
    0.2187   62.1094   89.6134 C   0  0  0  0  0  0  0  0  0  0  0  0
   -0.5536   61.8764   88.3274 C   0  0  0  0  0  0  0  0  0  0  0  0
    1.0180   66.1790   83.8523 N   0  0  0  0  0  0  0  0  0  0  0  0
    0.3723   66.8156   84.3136 H   0  0  0  0  0  0  0  0  0  0  0  0
    1.9153   66.9085   82.9643 C   0  0  0  0  0  0  0  0  0  0  0  0
    3.2650   67.0185   83.6356 C   0  0  0  0  0  0  0  0  0  0  0  0
    4.0831   68.1363   83.4318 C   0  0  0  0  0  0  0  0  0  0  0  0
    5.3264   68.2391   84.0688 C   0  0  0  0  0  0  0  0  0  0  0  0
    5.7737   67.2281   84.9259 C   0  0  0  0  0  0  0  0  0  0  0  0
    4.9498   66.1109   85.1352 C   0  0  0  0  0  0  0  0  0  0  0  0
    5.4287   64.8206   86.1836 Cl  0  0  0  0  0  0  0  0  0  0  0  0
    3.7085   66.0079   84.4993 C   0  0  0  0  0  0  0  0  0  0  0  0
    6.9735   67.2455   85.5880 O   0  0  0  0  0  0  0  0  0  0  0  0
    8.1160   66.7546   84.9005 C   0  0  0  0  0  0  0  0  0  0  0  0
 24 25  1  0  0  0
 25  1  1  0  0  0
  1  2  1  0  0  0
  2  3  2  0  0  0
  3  4  1  0  0  0
  4  5  1  0  0  0
  5  6  2  0  0  0
  6 26  1  0  0  0
 26 28  1  0  0  0
 28 29  1  0  0  0
 29 30  1  0  0  0
 30 31  2  0  0  0
 31 32  1  0  0  0
 32 36  1  0  0  0
 36 37  1  0  0  0
 32 33  2  0  0  0
 33 34  1  0  0  0
 33 35  1  0  0  0
  6  7  1  0  0  0
  7  8  2  0  0  0
  8  9  1  0  0  0
  9 14  1  0  0  0
 14 15  1  0  0  0
 15 16  1  0  0  0
 16 17  1  0  0  0
 17 20  1  0  0  0
 20 21  2  0  0  0
 20 22  1  0  0  0
 17 18  1  0  0  0
 18 19  1  0  0  0
  9 10  2  0  0  0
 10 11  1  0  0  0
 11 12  2  0  0  0
 12 13  1  0  0  0
 13  1  1  0  0  0
 13  4  2  0  0  0
 10  5  1  0  0  0
 35 29  2  0  0  0
 19 14  1  0  0  0
 26 27  1  0  0  0
 22 23  1  0  0  0
M  END
> <minimizedAffinity>
-11.28426

$$$$



 37 41  0  0  0  0  0  0  0  0999 V2000
   -0.4275   63.2780   86.1848 N   0  0  0  0  0  0  0  0  0  0  0  0
    0.4114   64.3062   86.4377 N   0  0  0  0  0  0  0  0  0  0  0  0
    0.7071   64.7647   85.2169 C   0  0  0  0  0  0  0  0  0  0  0  0
    0.0414   64.0673   84.1772 C   0  0  0  0  0  0  0  0  0  0  0  0
   -0.0480   64.1100   82.7520 C   0  0  0  0  0  0  0  0  0  0  0  0
    0.5855   65.0779   81.9426 C   0  0  0  0  0  0  0  0  0  0  0  0
    0.4837   64.9977   80.6015 N   0  0  0  0  0  0  0  0  0  0  0  0
   -0.2554   64.0076   79.9980 N   0  0  0  0  0  0  0  0  0  0  0  0
   -0.8971   63.0706   80.7272 C   0  0  0  0  0  0  0  0  0  0  0  0
   -0.8231   63.1003   82.1319 C   0  0  0  0  0  0  0  0  0  0  0  0
   -1.4973   62.1891   82.9622 C   0  0  0  0  0  0  0  0  0  0  0  0
   -1.4680   62.1426   84.3161 N   0  0  0  0  0  0  0  0  0  0  0  0
   -0.6771   63.0892   84.8514 C   0  0  0  0  0  0  0  0  0  0  0  0
   -1.6235   62.0457   80.0654 N   0  0  0  0  0  0  0  0  0  0  0  0
   -2.5110   62.5787   79.0282 C   0  0  0  0  0  0  0  0  0  0  0  0
   -3.4981   61.4786   78.6254 C   0  0  0  0  0  0  0  0  0  0  0  0
   -2.8750   60.0717   78.6588 C   0  0  0  0  0  0  0  0  0  0  0  0
   -1.3528   60.1395   78.4951 C   0  0  0  0  0  0  0  0  0  0  0  0
   -0.6825   61.0246   79.5563 C   0  0  0  0  0  0  0  0  0  0  0  0
   -3.2411   59.3283   79.9294 C   0  0  0  0  0  0  0  0  0  0  0  0
   -3.4910   59.8103   81.0218 O   0  0  0  0  0  0  0  0  0  0  0  0
   -3.1987   57.9894   79.7775 O   0  0  0  0  0  0  0  0  0  0  0  0
   -3.4304   57.6439   80.6653 H   0  0  0  0  0  0  0  0  0  0  0  0
   -2.3767   62.9096   87.6419 C   0  0  0  0  0  0  0  0  0  0  0  0
   -0.9623   62.4943   87.2792 C   0  0  0  0  0  0  0  0  0  0  0  0
    1.3130   66.1343   82.5271 N   0  0  0  0  0  0  0  0  0  0  0  0
    0.6566   66.7535   82.9969 H   0  0  0  0  0  0  0  0  0  0  0  0
    2.1501   66.8811   81.5957 C   0  0  0  0  0  0  0  0  0  0  0  0
    1.6639   68.3117   81.5594 C   0  0  0  0  0  0  0  0  0  0  0  0
    0.4407   68.6431   80.9642 C   0  0  0  0  0  0  0  0  0  0  0  0
   -0.0112   69.9688   80.9471 C   0  0  0  0  0  0  0  0  0  0  0  0
    0.7491   70.9884   81.5295 C   0  0  0  0  0  0  0  0  0  0  0  0
    1.9722   70.6543   82.1323 C   0  0  0  0  0  0  0  0  0  0  0  0
    2.9683   71.8563   82.8781 Cl  0  0  0  0  0  0  0  0  0  0  0  0
    2.4237   69.3309   82.1494 C   0  0  0  0  0  0  0  0  0  0  0  0
    0.3852   72.3094   81.5576 O   0  0  0  0  0  0  0  0  0  0  0  0
   -1.0011   72.6127   81.6287 C   0  0  0  0  0  0  0  0  0  0  0  0
 24 25  1  0  0  0
 25  1  1  0  0  0
  1  2  1  0  0  0
  2  3  2  0  0  0
  3  4  1  0  0  0
  4  5  1  0  0  0
  5  6  2  0  0  0
  6 26  1  0  0  0
 26 28  1  0  0  0
 28 29  1  0  0  0
 29 30  1  0  0  0
 30 31  2  0  0  0
 31 32  1  0  0  0
 32 36  1  0  0  0
 36 37  1  0  0  0
 32 33  2  0  0  0
 33 34  1  0  0  0
 33 35  1  0  0  0
  6  7  1  0  0  0
  7  8  2  0  0  0
  8  9  1  0  0  0
  9 14  1  0  0  0
 14 15  1  0  0  0
 15 16  1  0  0  0
 16 17  1  0  0  0
 17 20  1  0  0  0
 20 21  2  0  0  0
 20 22  1  0  0  0
 17 18  1  0  0  0
 18 19  1  0  0  0
  9 10  2  0  0  0
 10 11  1  0  0  0
 11 12  2  0  0  0
 12 13  1  0  0  0
 13  1  1  0  0  0
 13  4  2  0  0  0
 10  5  1  0  0  0
 35 29  2  0  0  0
 19 14  1  0  0  0
 26 27  1  0  0  0
 22 23  1  0  0  0
M  END
> <minimizedAffinity>
-10.90969

$$$$



 37 41  0  0  0  0  0  0  0  0999 V2000
   -0.0303   64.0977   85.2924 N   0  0  0  0  0  0  0  0  0  0  0  0
    0.8301   65.1371   85.3590 N   0  0  0  0  0  0  0  0  0  0  0  0
    1.0576   65.4262   84.0734 C   0  0  0  0  0  0  0  0  0  0  0  0
    0.3268   64.6085   83.1747 C   0  0  0  0  0  0  0  0  0  0  0  0
    0.1546   64.4648   81.7637 C   0  0  0  0  0  0  0  0  0  0  0  0
    0.7475   65.3077   80.7987 C   0  0  0  0  0  0  0  0  0  0  0  0
    0.5669   65.0534   79.4880 N   0  0  0  0  0  0  0  0  0  0  0  0
   -0.2140   64.0041   79.0638 N   0  0  0  0  0  0  0  0  0  0  0  0
   -0.8195   63.1813   79.9457 C   0  0  0  0  0  0  0  0  0  0  0  0
   -0.6633   63.3945   81.3277 C   0  0  0  0  0  0  0  0  0  0  0  0
   -1.2951   62.6110   82.3082 C   0  0  0  0  0  0  0  0  0  0  0  0
   -1.1872   62.7427   83.6525 N   0  0  0  0  0  0  0  0  0  0  0  0
   -0.3589   63.7390   84.0121 C   0  0  0  0  0  0  0  0  0  0  0  0
   -1.5915   62.0897   79.4677 N   0  0  0  0  0  0  0  0  0  0  0  0
   -2.4839   62.4811   78.3733 C   0  0  0  0  0  0  0  0  0  0  0  0
   -3.5132   61.3654   78.1670 C   0  0  0  0  0  0  0  0  0  0  0  0
   -2.9336   59.9612   78.4144 C   0  0  0  0  0  0  0  0  0  0  0  0
   -1.4138   59.9501   78.2173 C   0  0  0  0  0  0  0  0  0  0  0  0
   -0.6938   60.9692   79.1129 C   0  0  0  0  0  0  0  0  0  0  0  0
   -3.2954   59.4421   79.7929 C   0  0  0  0  0  0  0  0  0  0  0  0
   -3.5690   60.1009   80.7825 O   0  0  0  0  0  0  0  0  0  0  0  0
   -3.2188   58.0987   79.8780 O   0  0  0  0  0  0  0  0  0  0  0  0
   -3.4518   57.9079   80.8110 H   0  0  0  0  0  0  0  0  0  0  0  0
    0.4779   63.6285   87.6546 C   0  0  0  0  0  0  0  0  0  0  0  0
   -0.5065   63.4733   86.5095 C   0  0  0  0  0  0  0  0  0  0  0  0
    1.5162   66.4203   81.1960 N   0  0  0  0  0  0  0  0  0  0  0  0
    1.0792   66.8351   82.0157 H   0  0  0  0  0  0  0  0  0  0  0  0
    1.7149   67.4218   80.1552 C   0  0  0  0  0  0  0  0  0  0  0  0
    1.3371   68.7737   80.7159 C   0  0  0  0  0  0  0  0  0  0  0  0
    0.0350   69.2710   80.5843 C   0  0  0  0  0  0  0  0  0  0  0  0
   -0.3125   70.5179   81.1193 C   0  0  0  0  0  0  0  0  0  0  0  0
    0.6343   71.2898   81.8008 C   0  0  0  0  0  0  0  0  0  0  0  0
    1.9380   70.7874   81.9384 C   0  0  0  0  0  0  0  0  0  0  0  0
    3.1650   71.6787   82.7712 Cl  0  0  0  0  0  0  0  0  0  0  0  0
    2.2853   69.5426   81.4043 C   0  0  0  0  0  0  0  0  0  0  0  0
    0.3825   72.5183   82.3537 O   0  0  0  0  0  0  0  0  0  0  0  0
   -0.4250   73.4239   81.6143 C   0  0  0  0  0  0  0  0  0  0  0  0
 24 25  1  0  0  0
 25  1  1  0  0  0
  1  2  1  0  0  0
  2  3  2  0  0  0
  3  4  1  0  0  0
  4  5  1  0  0  0
  5  6  2  0  0  0
  6 26  1  0  0  0
 26 28  1  0  0  0
 28 29  1  0  0  0
 29 30  1  0  0  0
 30 31  2  0  0  0
 31 32  1  0  0  0
 32 36  1  0  0  0
 36 37  1  0  0  0
 32 33  2  0  0  0
 33 34  1  0  0  0
 33 35  1  0  0  0
  6  7  1  0  0  0
  7  8  2  0  0  0
  8  9  1  0  0  0
  9 14  1  0  0  0
 14 15  1  0  0  0
 15 16  1  0  0  0
 16 17  1  0  0  0
 17 20  1  0  0  0
 20 21  2  0  0  0
 20 22  1  0  0  0
 17 18  1  0  0  0
 18 19  1  0  0  0
  9 10  2  0  0  0
 10 11  1  0  0  0
 11 12  2  0  0  0
 12 13  1  0  0  0
 13  1  1  0  0  0
 13  4  2  0  0  0
 10  5  1  0  0  0
 35 29  2  0  0  0
 19 14  1  0  0  0
 26 27  1  0  0  0
 22 23  1  0  0  0
M  END
> <minimizedAffinity>
-10.85380

$$$$



 37 41  0  0  0  0  0  0  0  0999 V2000
   -0.6782   62.6592   86.4238 N   0  0  0  0  0  0  0  0  0  0  0  0
    0.0247   63.6823   86.9568 N   0  0  0  0  0  0  0  0  0  0  0  0
    0.3870   64.3937   85.8841 C   0  0  0  0  0  0  0  0  0  0  0  0
   -0.1032   63.8622   84.6644 C   0  0  0  0  0  0  0  0  0  0  0  0
   -0.0610   64.1763   83.2713 C   0  0  0  0  0  0  0  0  0  0  0  0
    0.5454   65.3321   82.7333 C   0  0  0  0  0  0  0  0  0  0  0  0
    0.5799   65.5087   81.3980 N   0  0  0  0  0  0  0  0  0  0  0  0
    0.0052   64.5997   80.5411 N   0  0  0  0  0  0  0  0  0  0  0  0
   -0.6048   63.4891   81.0057 C   0  0  0  0  0  0  0  0  0  0  0  0
   -0.6677   63.2486   82.3906 C   0  0  0  0  0  0  0  0  0  0  0  0
   -1.3221   62.1407   82.9550 C   0  0  0  0  0  0  0  0  0  0  0  0
   -1.4168   61.8320   84.2711 N   0  0  0  0  0  0  0  0  0  0  0  0
   -0.7800   62.7160   85.0591 C   0  0  0  0  0  0  0  0  0  0  0  0
   -1.1580   62.5585   80.0869 N   0  0  0  0  0  0  0  0  0  0  0  0
   -1.5720   63.1975   78.8348 C   0  0  0  0  0  0  0  0  0  0  0  0
   -2.4655   62.2192   78.0659 C   0  0  0  0  0  0  0  0  0  0  0  0
   -2.0399   60.7509   78.2441 C   0  0  0  0  0  0  0  0  0  0  0  0
   -0.5567   60.6487   78.6159 C   0  0  0  0  0  0  0  0  0  0  0  0
   -0.2086   61.4429   79.8836 C   0  0  0  0  0  0  0  0  0  0  0  0
   -2.8972   60.0416   79.2750 C   0  0  0  0  0  0  0  0  0  0  0  0
   -3.7306   60.5407   80.0129 O   0  0  0  0  0  0  0  0  0  0  0  0
   -2.6032   58.7301   79.3805 O   0  0  0  0  0  0  0  0  0  0  0  0
   -3.2053   58.4093   80.0846 H   0  0  0  0  0  0  0  0  0  0  0  0
   -2.7196   61.8298   87.5207 C   0  0  0  0  0  0  0  0  0  0  0  0
   -1.2325   61.6354   87.2855 C   0  0  0  0  0  0  0  0  0  0  0  0
    1.1037   66.3087   83.5826 N   0  0  0  0  0  0  0  0  0  0  0  0
    0.3438   66.8178   84.0280 H   0  0  0  0  0  0  0  0  0  0  0  0
    2.0246   67.2282   82.9251 C   0  0  0  0  0  0  0  0  0  0  0  0
    3.3501   67.1748   83.6495 C   0  0  0  0  0  0  0  0  0  0  0  0
    4.3007   68.1902   83.4902 C   0  0  0  0  0  0  0  0  0  0  0  0
    5.5211   68.1423   84.1761 C   0  0  0  0  0  0  0  0  0  0  0  0
    5.8126   67.0803   85.0385 C   0  0  0  0  0  0  0  0  0  0  0  0
    4.8560   66.0659   85.2031 C   0  0  0  0  0  0  0  0  0  0  0  0
    5.1387   64.7216   86.2548 Cl  0  0  0  0  0  0  0  0  0  0  0  0
    3.6376   66.1134   84.5184 C   0  0  0  0  0  0  0  0  0  0  0  0
    6.9789   66.9525   85.7469 O   0  0  0  0  0  0  0  0  0  0  0  0
    8.1229   66.4692   85.0566 C   0  0  0  0  0  0  0  0  0  0  0  0
 24 25  1  0  0  0
 25  1  1  0  0  0
  1  2  1  0  0  0
  2  3  2  0  0  0
  3  4  1  0  0  0
  4  5  1  0  0  0
  5  6  2  0  0  0
  6 26  1  0  0  0
 26 28  1  0  0  0
 28 29  1  0  0  0
 29 30  1  0  0  0
 30 31  2  0  0  0
 31 32  1  0  0  0
 32 36  1  0  0  0
 36 37  1  0  0  0
 32 33  2  0  0  0
 33 34  1  0  0  0
 33 35  1  0  0  0
  6  7  1  0  0  0
  7  8  2  0  0  0
  8  9  1  0  0  0
  9 14  1  0  0  0
 14 15  1  0  0  0
 15 16  1  0  0  0
 16 17  1  0  0  0
 17 20  1  0  0  0
 20 21  2  0  0  0
 20 22  1  0  0  0
 17 18  1  0  0  0
 18 19  1  0  0  0
  9 10  2  0  0  0
 10 11  1  0  0  0
 11 12  2  0  0  0
 12 13  1  0  0  0
 13  1  1  0  0  0
 13  4  2  0  0  0
 10  5  1  0  0  0
 35 29  2  0  0  0
 19 14  1  0  0  0
 26 27  1  0  0  0
 22 23  1  0  0  0
M  END
> <minimizedAffinity>
-10.49614

$$$$



 37 41  0  0  0  0  0  0  0  0999 V2000
    1.7100   68.1370   80.7714 N   0  0  0  0  0  0  0  0  0  0  0  0
    2.0379   68.6283   81.9863 N   0  0  0  0  0  0  0  0  0  0  0  0
    1.6142   67.6759   82.8238 C   0  0  0  0  0  0  0  0  0  0  0  0
    1.0473   66.5568   82.1631 C   0  0  0  0  0  0  0  0  0  0  0  0
    0.4706   65.2956   82.5065 C   0  0  0  0  0  0  0  0  0  0  0  0
    0.3861   64.7898   83.8219 C   0  0  0  0  0  0  0  0  0  0  0  0
   -0.2277   63.6117   84.0467 N   0  0  0  0  0  0  0  0  0  0  0  0
   -0.7489   62.8680   83.0141 N   0  0  0  0  0  0  0  0  0  0  0  0
   -0.6760   63.2971   81.7367 C   0  0  0  0  0  0  0  0  0  0  0  0
   -0.0508   64.5225   81.4411 C   0  0  0  0  0  0  0  0  0  0  0  0
    0.1049   65.0170   80.1352 C   0  0  0  0  0  0  0  0  0  0  0  0
    0.6808   66.1877   79.7691 N   0  0  0  0  0  0  0  0  0  0  0  0
    1.1115   66.9061   80.8209 C   0  0  0  0  0  0  0  0  0  0  0  0
   -1.2549   62.5155   80.7021 N   0  0  0  0  0  0  0  0  0  0  0  0
   -0.4005   61.3891   80.3164 C   0  0  0  0  0  0  0  0  0  0  0  0
   -0.9126   60.8281   78.9861 C   0  0  0  0  0  0  0  0  0  0  0  0
   -2.4446   60.8985   78.8552 C   0  0  0  0  0  0  0  0  0  0  0  0
   -3.1139   60.9354   80.2333 C   0  0  0  0  0  0  0  0  0  0  0  0
   -2.6174   62.1013   81.1011 C   0  0  0  0  0  0  0  0  0  0  0  0
   -2.8801   62.0874   78.0199 C   0  0  0  0  0  0  0  0  0  0  0  0
   -2.1722   62.9722   77.5678 O   0  0  0  0  0  0  0  0  0  0  0  0
   -4.2172   62.1453   77.8574 O   0  0  0  0  0  0  0  0  0  0  0  0
   -4.3554   62.9590   77.3282 H   0  0  0  0  0  0  0  0  0  0  0  0
    2.9225   70.0752   79.8594 C   0  0  0  0  0  0  0  0  0  0  0  0
    1.9933   68.9080   79.5784 C   0  0  0  0  0  0  0  0  0  0  0  0
    0.9500   65.5017   84.8998 N   0  0  0  0  0  0  0  0  0  0  0  0
    1.5073   66.2648   84.5229 H   0  0  0  0  0  0  0  0  0  0  0  0
    1.7417   64.6881   85.8148 C   0  0  0  0  0  0  0  0  0  0  0  0
    3.1716   65.1761   85.7713 C   0  0  0  0  0  0  0  0  0  0  0  0
    3.6649   65.8660   84.6574 C   0  0  0  0  0  0  0  0  0  0  0  0
    4.9867   66.3287   84.6296 C   0  0  0  0  0  0  0  0  0  0  0  0
    5.8396   66.1148   85.7175 C   0  0  0  0  0  0  0  0  0  0  0  0
    5.3422   65.4290   86.8370 C   0  0  0  0  0  0  0  0  0  0  0  0
    6.3319   65.1286   88.2239 Cl  0  0  0  0  0  0  0  0  0  0  0  0
    4.0226   64.9668   86.8650 C   0  0  0  0  0  0  0  0  0  0  0  0
    7.1442   66.5306   85.7753 O   0  0  0  0  0  0  0  0  0  0  0  0
    8.0826   65.8860   84.9251 C   0  0  0  0  0  0  0  0  0  0  0  0
 24 25  1  0  0  0
 25  1  1  0  0  0
  1  2  1  0  0  0
  2  3  2  0  0  0
  3  4  1  0  0  0
  4  5  1  0  0  0
  5  6  2  0  0  0
  6 26  1  0  0  0
 26 28  1  0  0  0
 28 29  1  0  0  0
 29 30  1  0  0  0
 30 31  2  0  0  0
 31 32  1  0  0  0
 32 36  1  0  0  0
 36 37  1  0  0  0
 32 33  2  0  0  0
 33 34  1  0  0  0
 33 35  1  0  0  0
  6  7  1  0  0  0
  7  8  2  0  0  0
  8  9  1  0  0  0
  9 14  1  0  0  0
 14 15  1  0  0  0
 15 16  1  0  0  0
 16 17  1  0  0  0
 17 20  1  0  0  0
 20 21  2  0  0  0
 20 22  1  0  0  0
 17 18  1  0  0  0
 18 19  1  0  0  0
  9 10  2  0  0  0
 10 11  1  0  0  0
 11 12  2  0  0  0
 12 13  1  0  0  0
 13  1  1  0  0  0
 13  4  2  0  0  0
 10  5  1  0  0  0
 35 29  2  0  0  0
 19 14  1  0  0  0
 26 27  1  0  0  0
 22 23  1  0  0  0
M  END
> <minimizedAffinity>
-10.11496

$$$$



 37 41  0  0  0  0  0  0  0  0999 V2000
    0.3065   63.5978   86.4067 N   0  0  0  0  0  0  0  0  0  0  0  0
   -0.4084   62.4876   86.1217 N   0  0  0  0  0  0  0  0  0  0  0  0
   -0.6926   62.6340   84.8233 C   0  0  0  0  0  0  0  0  0  0  0  0
   -0.1397   63.8095   84.2552 C   0  0  0  0  0  0  0  0  0  0  0  0
   -0.0924   64.4582   82.9832 C   0  0  0  0  0  0  0  0  0  0  0  0
   -0.6441   63.9274   81.7970 C   0  0  0  0  0  0  0  0  0  0  0  0
   -0.5950   64.6449   80.6577 N   0  0  0  0  0  0  0  0  0  0  0  0
    0.0135   65.8772   80.6139 N   0  0  0  0  0  0  0  0  0  0  0  0
    0.5741   66.4200   81.7150 C   0  0  0  0  0  0  0  0  0  0  0  0
    0.5493   65.7194   82.9349 C   0  0  0  0  0  0  0  0  0  0  0  0
    1.1483   66.1954   84.1134 C   0  0  0  0  0  0  0  0  0  0  0  0
    1.1580   65.5904   85.3259 N   0  0  0  0  0  0  0  0  0  0  0  0
    0.4912   64.4228   85.3292 C   0  0  0  0  0  0  0  0  0  0  0  0
    1.1645   67.7090   81.6362 N   0  0  0  0  0  0  0  0  0  0  0  0
    2.1584   67.7971   80.5629 C   0  0  0  0  0  0  0  0  0  0  0  0
    2.9857   69.0689   80.7742 C   0  0  0  0  0  0  0  0  0  0  0  0
    2.1604   70.2326   81.3517 C   0  0  0  0  0  0  0  0  0  0  0  0
    0.6720   70.0667   81.0266 C   0  0  0  0  0  0  0  0  0  0  0  0
    0.1019   68.7321   81.5294 C   0  0  0  0  0  0  0  0  0  0  0  0
    2.3658   70.3751   82.8478 C   0  0  0  0  0  0  0  0  0  0  0  0
    2.8890   69.5715   83.6019 O   0  0  0  0  0  0  0  0  0  0  0  0
    1.8246   71.5075   83.3403 O   0  0  0  0  0  0  0  0  0  0  0  0
    2.0090   71.4582   84.3019 H   0  0  0  0  0  0  0  0  0  0  0  0
    0.3226   62.7433   88.7150 C   0  0  0  0  0  0  0  0  0  0  0  0
    0.7893   63.8217   87.7539 C   0  0  0  0  0  0  0  0  0  0  0  0
   -1.2346   62.6475   81.7928 N   0  0  0  0  0  0  0  0  0  0  0  0
   -0.6422   62.0235   81.2501 H   0  0  0  0  0  0  0  0  0  0  0  0
   -2.6063   62.6150   81.2996 C   0  0  0  0  0  0  0  0  0  0  0  0
   -2.6515   61.7317   80.0739 C   0  0  0  0  0  0  0  0  0  0  0  0
   -3.4551   60.5858   80.0397 C   0  0  0  0  0  0  0  0  0  0  0  0
   -3.5041   59.7797   78.8953 C   0  0  0  0  0  0  0  0  0  0  0  0
   -2.7540   60.1066   77.7608 C   0  0  0  0  0  0  0  0  0  0  0  0
   -1.9537   61.2597   77.7933 C   0  0  0  0  0  0  0  0  0  0  0  0
   -1.0004   61.7348   76.4300 Cl  0  0  0  0  0  0  0  0  0  0  0  0
   -1.9046   62.0646   78.9358 C   0  0  0  0  0  0  0  0  0  0  0  0
   -2.7408   59.3761   76.6013 O   0  0  0  0  0  0  0  0  0  0  0  0
   -1.6710   58.4613   76.4075 C   0  0  0  0  0  0  0  0  0  0  0  0
 24 25  1  0  0  0
 25  1  1  0  0  0
  1  2  1  0  0  0
  2  3  2  0  0  0
  3  4  1  0  0  0
  4  5  1  0  0  0
  5  6  2  0  0  0
  6 26  1  0  0  0
 26 28  1  0  0  0
 28 29  1  0  0  0
 29 30  1  0  0  0
 30 31  2  0  0  0
 31 32  1  0  0  0
 32 36  1  0  0  0
 36 37  1  0  0  0
 32 33  2  0  0  0
 33 34  1  0  0  0
 33 35  1  0  0  0
  6  7  1  0  0  0
  7  8  2  0  0  0
  8  9  1  0  0  0
  9 14  1  0  0  0
 14 15  1  0  0  0
 15 16  1  0  0  0
 16 17  1  0  0  0
 17 20  1  0  0  0
 20 21  2  0  0  0
 20 22  1  0  0  0
 17 18  1  0  0  0
 18 19  1  0  0  0
  9 10  2  0  0  0
 10 11  1  0  0  0
 11 12  2  0  0  0
 12 13  1  0  0  0
 13  1  1  0  0  0
 13  4  2  0  0  0
 10  5  1  0  0  0
 35 29  2  0  0  0
 19 14  1  0  0  0
 26 27  1  0  0  0
 22 23  1  0  0  0
M  END
> <minimizedAffinity>
-10.10571

$$$$



 37 41  0  0  0  0  0  0  0  0999 V2000
    5.0537   66.7342   85.4126 N   0  0  0  0  0  0  0  0  0  0  0  0
    4.7073   65.4413   85.5950 N   0  0  0  0  0  0  0  0  0  0  0  0
    3.6104   65.3112   84.8414 C   0  0  0  0  0  0  0  0  0  0  0  0
    3.2623   66.4961   84.1448 C   0  0  0  0  0  0  0  0  0  0  0  0
    2.2598   66.9381   83.2278 C   0  0  0  0  0  0  0  0  0  0  0  0
    1.2566   66.1076   82.6829 C   0  0  0  0  0  0  0  0  0  0  0  0
    0.3223   66.6350   81.8679 N   0  0  0  0  0  0  0  0  0  0  0  0
    0.3416   67.9664   81.5246 N   0  0  0  0  0  0  0  0  0  0  0  0
    1.2912   68.7982   82.0018 C   0  0  0  0  0  0  0  0  0  0  0  0
    2.2903   68.3053   82.8613 C   0  0  0  0  0  0  0  0  0  0  0  0
    3.3375   69.0955   83.3645 C   0  0  0  0  0  0  0  0  0  0  0  0
    4.3267   68.7019   84.2028 N   0  0  0  0  0  0  0  0  0  0  0  0
    4.2211   67.4100   84.5605 C   0  0  0  0  0  0  0  0  0  0  0  0
    1.2578   70.1733   81.6495 N   0  0  0  0  0  0  0  0  0  0  0  0
    2.1579   70.4802   80.5345 C   0  0  0  0  0  0  0  0  0  0  0  0
    2.3320   72.0002   80.4589 C   0  0  0  0  0  0  0  0  0  0  0  0
    1.0547   72.7701   80.8394 C   0  0  0  0  0  0  0  0  0  0  0  0
   -0.1934   71.9081   80.6214 C   0  0  0  0  0  0  0  0  0  0  0  0
   -0.1405   70.5836   81.3973 C   0  0  0  0  0  0  0  0  0  0  0  0
    1.1108   73.2738   82.2691 C   0  0  0  0  0  0  0  0  0  0  0  0
    1.8359   72.8751   83.1654 O   0  0  0  0  0  0  0  0  0  0  0  0
    0.1823   74.2178   82.5233 O   0  0  0  0  0  0  0  0  0  0  0  0
    0.3163   74.4312   83.4708 H   0  0  0  0  0  0  0  0  0  0  0  0
    7.4814   67.1197   85.2869 C   0  0  0  0  0  0  0  0  0  0  0  0
    6.2081   67.2779   86.0981 C   0  0  0  0  0  0  0  0  0  0  0  0
    1.2323   64.7289   82.9750 N   0  0  0  0  0  0  0  0  0  0  0  0
    1.7086   64.2342   82.2244 H   0  0  0  0  0  0  0  0  0  0  0  0
   -0.1007   64.1788   83.1904 C   0  0  0  0  0  0  0  0  0  0  0  0
   -0.2580   63.8726   84.6621 C   0  0  0  0  0  0  0  0  0  0  0  0
    0.6165   64.4175   85.6100 C   0  0  0  0  0  0  0  0  0  0  0  0
    0.4562   64.1419   86.9739 C   0  0  0  0  0  0  0  0  0  0  0  0
   -0.5852   63.3197   87.4170 C   0  0  0  0  0  0  0  0  0  0  0  0
   -1.4659   62.7792   86.4667 C   0  0  0  0  0  0  0  0  0  0  0  0
   -2.7813   61.7572   86.9344 Cl  0  0  0  0  0  0  0  0  0  0  0  0
   -1.3060   63.0542   85.1049 C   0  0  0  0  0  0  0  0  0  0  0  0
   -0.8154   62.9968   88.7289 O   0  0  0  0  0  0  0  0  0  0  0  0
    0.1757   62.2375   89.4073 C   0  0  0  0  0  0  0  0  0  0  0  0
 24 25  1  0  0  0
 25  1  1  0  0  0
  1  2  1  0  0  0
  2  3  2  0  0  0
  3  4  1  0  0  0
  4  5  1  0  0  0
  5  6  2  0  0  0
  6 26  1  0  0  0
 26 28  1  0  0  0
 28 29  1  0  0  0
 29 30  1  0  0  0
 30 31  2  0  0  0
 31 32  1  0  0  0
 32 36  1  0  0  0
 36 37  1  0  0  0
 32 33  2  0  0  0
 33 34  1  0  0  0
 33 35  1  0  0  0
  6  7  1  0  0  0
  7  8  2  0  0  0
  8  9  1  0  0  0
  9 14  1  0  0  0
 14 15  1  0  0  0
 15 16  1  0  0  0
 16 17  1  0  0  0
 17 20  1  0  0  0
 20 21  2  0  0  0
 20 22  1  0  0  0
 17 18  1  0  0  0
 18 19  1  0  0  0
  9 10  2  0  0  0
 10 11  1  0  0  0
 11 12  2  0  0  0
 12 13  1  0  0  0
 13  1  1  0  0  0
 13  4  2  0  0  0
 10  5  1  0  0  0
 35 29  2  0  0  0
 19 14  1  0  0  0
 26 27  1  0  0  0
 22 23  1  0  0  0
M  END
> <minimizedAffinity>
-10.09850

$$$$



 37 41  0  0  0  0  0  0  0  0999 V2000
    4.3912   66.8753   85.3466 N   0  0  0  0  0  0  0  0  0  0  0  0
    3.9921   65.5850   85.3181 N   0  0  0  0  0  0  0  0  0  0  0  0
    3.0421   65.5813   84.3772 C   0  0  0  0  0  0  0  0  0  0  0  0
    2.8456   66.8478   83.7706 C   0  0  0  0  0  0  0  0  0  0  0  0
    2.0288   67.4263   82.7512 C   0  0  0  0  0  0  0  0  0  0  0  0
    1.1201   66.7005   81.9508 C   0  0  0  0  0  0  0  0  0  0  0  0
    0.3543   67.3501   81.0526 N   0  0  0  0  0  0  0  0  0  0  0  0
    0.4605   68.7090   80.8716 N   0  0  0  0  0  0  0  0  0  0  0  0
    1.3282   69.4456   81.5968 C   0  0  0  0  0  0  0  0  0  0  0  0
    2.1508   68.8230   82.5535 C   0  0  0  0  0  0  0  0  0  0  0  0
    3.1093   69.5115   83.3161 C   0  0  0  0  0  0  0  0  0  0  0  0
    3.9278   68.9901   84.2618 N   0  0  0  0  0  0  0  0  0  0  0  0
    3.7349   67.6723   84.4465 C   0  0  0  0  0  0  0  0  0  0  0  0
    1.3851   70.8511   81.4029 N   0  0  0  0  0  0  0  0  0  0  0  0
    2.4074   71.2333   80.4250 C   0  0  0  0  0  0  0  0  0  0  0  0
    2.6473   72.7417   80.5417 C   0  0  0  0  0  0  0  0  0  0  0  0
    1.3682   73.5283   80.8798 C   0  0  0  0  0  0  0  0  0  0  0  0
    0.1170   72.7594   80.4421 C   0  0  0  0  0  0  0  0  0  0  0  0
    0.0375   71.3565   81.0623 C   0  0  0  0  0  0  0  0  0  0  0  0
    1.2949   73.8680   82.3563 C   0  0  0  0  0  0  0  0  0  0  0  0
    2.0202   73.4561   83.2465 O   0  0  0  0  0  0  0  0  0  0  0  0
    0.2472   74.6625   82.6545 O   0  0  0  0  0  0  0  0  0  0  0  0
    0.3093   74.7800   83.6258 H   0  0  0  0  0  0  0  0  0  0  0  0
    5.7613   66.2064   87.2789 C   0  0  0  0  0  0  0  0  0  0  0  0
    5.4181   67.2949   86.2779 C   0  0  0  0  0  0  0  0  0  0  0  0
    1.0171   65.3003   82.0753 N   0  0  0  0  0  0  0  0  0  0  0  0
    1.6370   64.8717   81.3921 H   0  0  0  0  0  0  0  0  0  0  0  0
   -0.3377   64.7784   81.9412 C   0  0  0  0  0  0  0  0  0  0  0  0
   -0.6618   63.9699   83.1764 C   0  0  0  0  0  0  0  0  0  0  0  0
   -1.6415   62.9702   83.1477 C   0  0  0  0  0  0  0  0  0  0  0  0
   -1.9266   62.2142   84.2919 C   0  0  0  0  0  0  0  0  0  0  0  0
   -1.2338   62.4399   85.4859 C   0  0  0  0  0  0  0  0  0  0  0  0
   -0.2466   63.4378   85.5121 C   0  0  0  0  0  0  0  0  0  0  0  0
    0.6576   63.7749   86.9481 Cl  0  0  0  0  0  0  0  0  0  0  0  0
    0.0381   64.1928   84.3699 C   0  0  0  0  0  0  0  0  0  0  0  0
   -1.4479   61.7500   86.6506 O   0  0  0  0  0  0  0  0  0  0  0  0
   -2.6858   61.9485   87.3193 C   0  0  0  0  0  0  0  0  0  0  0  0
 24 25  1  0  0  0
 25  1  1  0  0  0
  1  2  1  0  0  0
  2  3  2  0  0  0
  3  4  1  0  0  0
  4  5  1  0  0  0
  5  6  2  0  0  0
  6 26  1  0  0  0
 26 28  1  0  0  0
 28 29  1  0  0  0
 29 30  1  0  0  0
 30 31  2  0  0  0
 31 32  1  0  0  0
 32 36  1  0  0  0
 36 37  1  0  0  0
 32 33  2  0  0  0
 33 34  1  0  0  0
 33 35  1  0  0  0
  6  7  1  0  0  0
  7  8  2  0  0  0
  8  9  1  0  0  0
  9 14  1  0  0  0
 14 15  1  0  0  0
 15 16  1  0  0  0
 16 17  1  0  0  0
 17 20  1  0  0  0
 20 21  2  0  0  0
 20 22  1  0  0  0
 17 18  1  0  0  0
 18 19  1  0  0  0
  9 10  2  0  0  0
 10 11  1  0  0  0
 11 12  2  0  0  0
 12 13  1  0  0  0
 13  1  1  0  0  0
 13  4  2  0  0  0
 10  5  1  0  0  0
 35 29  2  0  0  0
 19 14  1  0  0  0
 26 27  1  0  0  0
 22 23  1  0  0  0
M  END
> <minimizedAffinity>
-9.85745

$$$$
