
     RDKit          3D

 78 82  0  0  0  0  0  0  0  0999 V2000
   -1.8970   -2.8765   -2.6355 C   0  0  0  0  0  0  0  0  0  0  0  0
   -2.4470   -2.8685   -1.2168 C   0  0  0  0  0  0  0  0  0  0  0  0
   -3.1155   -1.5770   -0.8922 C   0  0  0  0  0  0  0  0  0  0  0  0
   -2.5863   -0.3569   -0.5647 C   0  0  0  0  0  0  0  0  0  0  0  0
   -1.2423   -0.0097   -0.4362 N   0  0  0  0  0  0  0  0  0  0  0  0
   -1.0346    1.2426   -0.1333 C   0  0  0  0  0  0  0  0  0  0  0  0
    0.3813    1.7139    0.0328 C   0  0  0  0  0  0  0  0  0  0  0  0
    1.4203    0.8245   -0.2783 C   0  0  0  0  0  0  0  0  0  0  0  0
    2.7423    1.2259   -0.0982 C   0  0  0  0  0  0  0  0  0  0  0  0
    4.0950    0.1718   -0.4847 S   0  0  0  0  0  0  0  0  0  0  0  0
    3.5836   -1.0255   -1.1156 O   0  0  0  0  0  0  0  0  0  0  0  0
    5.0988    0.9901   -1.1299 O   0  0  0  0  0  0  0  0  0  0  0  0
    4.6780   -0.2665    1.0526 N   0  0  0  0  0  0  0  0  0  0  0  0
    3.7744   -1.1363    1.8781 C   0  0  0  0  0  0  0  0  0  0  0  0
    4.2583   -2.5977    1.9025 C   0  0  0  0  0  0  0  0  0  0  0  0
    5.5929   -2.7595    2.5214 N   0  0  0  0  0  0  0  0  0  0  0  0
    6.2622   -3.9897    2.0739 C   0  0  0  0  0  0  0  0  0  0  0  0
    5.5038   -5.2552    2.4616 C   0  0  0  0  0  0  0  0  0  0  0  0
    6.4370   -1.5664    2.2910 C   0  0  0  0  0  0  0  0  0  0  0  0
    6.0904   -0.7743    1.0179 C   0  0  0  0  0  0  0  0  0  0  0  0
    3.0045    2.5013    0.3606 C   0  0  0  0  0  0  0  0  0  0  0  0
    2.0288    3.3870    0.6701 N   0  0  0  0  0  0  0  0  0  0  0  0
    0.7459    2.9826    0.4942 C   0  0  0  0  0  0  0  0  0  0  0  0
   -0.2573    3.8635    0.8138 O   0  0  0  0  0  0  0  0  0  0  0  0
    0.1171    5.2277    1.0681 C   0  0  1  0  0  0  0  0  0  0  0  0
    0.3898    5.9582   -0.2473 C   0  0  0  0  0  0  0  0  0  0  0  0
   -1.0818    5.8541    1.8013 C   0  0  0  0  0  0  0  0  0  0  0  0
   -2.2423    5.7752    0.9657 O   0  0  0  0  0  0  0  0  0  0  0  0
   -3.4181    6.1959    1.6442 C   0  0  0  0  0  0  0  0  0  0  0  0
   -2.0541    2.1758    0.0514 N   0  0  0  0  0  0  0  0  0  0  0  0
   -3.4081    1.9036   -0.0265 C   0  0  0  0  0  0  0  0  0  0  0  0
   -4.2637    2.7559    0.1923 O   0  0  0  0  0  0  0  0  0  0  0  0
   -3.6545    0.5221   -0.3754 C   0  0  0  0  0  0  0  0  0  0  0  0
   -4.8323   -0.0910   -0.5566 N   0  0  0  0  0  0  0  0  0  0  0  0
   -4.4815   -1.3685   -0.8760 N   0  0  0  0  0  0  0  0  0  0  0  0
   -5.5435   -2.3387   -1.1122 C   0  0  0  0  0  0  0  0  0  0  0  0
   -5.7305   -2.6116   -2.5808 C   0  0  0  0  0  0  0  0  0  0  0  0
   -6.1517   -1.6021   -3.4466 C   0  0  0  0  0  0  0  0  0  0  0  0
   -6.3165   -1.8963   -4.7969 C   0  0  0  0  0  0  0  0  0  0  0  0
   -6.0641   -3.1851   -5.2490 C   0  0  0  0  0  0  0  0  0  0  0  0
   -5.6566   -4.1329   -4.3267 C   0  0  0  0  0  0  0  0  0  0  0  0
   -5.4873   -3.8784   -3.0100 N   0  0  0  0  0  0  0  0  0  0  0  0
   -1.4247   -3.8398   -2.8526 H   0  0  0  0  0  0  0  0  0  0  0  0
   -2.6885   -2.7116   -3.3734 H   0  0  0  0  0  0  0  0  0  0  0  0
   -1.1439   -2.0932   -2.7740 H   0  0  0  0  0  0  0  0  0  0  0  0
   -1.6215   -3.0313   -0.5131 H   0  0  0  0  0  0  0  0  0  0  0  0
   -3.1276   -3.7154   -1.0866 H   0  0  0  0  0  0  0  0  0  0  0  0
    1.2018   -0.1730   -0.6558 H   0  0  0  0  0  0  0  0  0  0  0  0
    3.7459   -0.7229    2.8938 H   0  0  0  0  0  0  0  0  0  0  0  0
    2.7455   -1.1043    1.5074 H   0  0  0  0  0  0  0  0  0  0  0  0
    3.5335   -3.1947    2.4674 H   0  0  0  0  0  0  0  0  0  0  0  0
    4.2626   -2.9742    0.8711 H   0  0  0  0  0  0  0  0  0  0  0  0
    6.4275   -3.9764    0.9894 H   0  0  0  0  0  0  0  0  0  0  0  0
    7.2496   -4.0522    2.5484 H   0  0  0  0  0  0  0  0  0  0  0  0
    6.0979   -6.1388    2.2059 H   0  0  0  0  0  0  0  0  0  0  0  0
    4.5490   -5.3364    1.9331 H   0  0  0  0  0  0  0  0  0  0  0  0
    5.3081   -5.2832    3.5387 H   0  0  0  0  0  0  0  0  0  0  0  0
    7.5028   -1.8255    2.2845 H   0  0  0  0  0  0  0  0  0  0  0  0
    6.3025   -0.9044    3.1566 H   0  0  0  0  0  0  0  0  0  0  0  0
    6.2459   -1.4114    0.1388 H   0  0  0  0  0  0  0  0  0  0  0  0
    6.7611    0.0888    0.9414 H   0  0  0  0  0  0  0  0  0  0  0  0
    4.0206    2.8630    0.5012 H   0  0  0  0  0  0  0  0  0  0  0  0
    0.9830    5.2866    1.7388 H   0  0  0  0  0  0  0  0  0  0  0  0
   -0.4359    5.8271   -0.9552 H   0  0  0  0  0  0  0  0  0  0  0  0
    0.5444    7.0283   -0.0784 H   0  0  0  0  0  0  0  0  0  0  0  0
    1.2836    5.5627   -0.7400 H   0  0  0  0  0  0  0  0  0  0  0  0
   -0.8799    6.9024    2.0477 H   0  0  0  0  0  0  0  0  0  0  0  0
   -1.2737    5.2950    2.7250 H   0  0  0  0  0  0  0  0  0  0  0  0
   -3.6212    5.5416    2.4974 H   0  0  0  0  0  0  0  0  0  0  0  0
   -4.2587    6.1325    0.9481 H   0  0  0  0  0  0  0  0  0  0  0  0
   -3.3162    7.2325    1.9790 H   0  0  0  0  0  0  0  0  0  0  0  0
   -1.8410    3.1381    0.2964 H   0  0  0  0  0  0  0  0  0  0  0  0
   -5.2874   -3.2505   -0.5626 H   0  0  0  0  0  0  0  0  0  0  0  0
   -6.4717   -1.9469   -0.6801 H   0  0  0  0  0  0  0  0  0  0  0  0
   -6.3427   -0.5969   -3.0788 H   0  0  0  0  0  0  0  0  0  0  0  0
   -6.6379   -1.1232   -5.4892 H   0  0  0  0  0  0  0  0  0  0  0  0
   -6.1824   -3.4446   -6.2949 H   0  0  0  0  0  0  0  0  0  0  0  0
   -5.4482   -5.1547   -4.6311 H   0  0  0  0  0  0  0  0  0  0  0  0
  1  2  1  0
  2  3  1  0
  3  4  2  0
  4  5  1  0
  5  6  2  0
  6  7  1  0
  7  8  1  0
  8  9  2  0
  9 10  1  0
 10 11  2  0
 10 12  2  0
 10 13  1  0
 13 14  1  0
 14 15  1  0
 15 16  1  0
 16 17  1  0
 17 18  1  0
 16 19  1  0
 19 20  1  0
  9 21  1  0
 21 22  2  0
 22 23  1  0
 23 24  1  0
 24 25  1  0
 25 26  1  0
 25 27  1  0
 27 28  1  0
 28 29  1  0
  6 30  1  0
 30 31  1  0
 31 32  2  0
 31 33  1  0
 33 34  2  0
 34 35  1  0
 35 36  1  0
 36 37  1  0
 37 38  2  0
 38 39  1  0
 39 40  2  0
 40 41  1  0
 41 42  2  0
 35  3  1  0
 42 37  1  0
 33  4  1  0
 23  7  2  0
 20 13  1  0
  1 43  1  0
  1 44  1  0
  1 45  1  0
  2 46  1  0
  2 47  1  0
  8 48  1  0
 14 49  1  0
 14 50  1  0
 15 51  1  0
 15 52  1  0
 17 53  1  0
 17 54  1  0
 18 55  1  0
 18 56  1  0
 18 57  1  0
 19 58  1  0
 19 59  1  0
 20 60  1  0
 20 61  1  0
 21 62  1  0
 25 63  1  1
 26 64  1  0
 26 65  1  0
 26 66  1  0
 27 67  1  0
 27 68  1  0
 29 69  1  0
 29 70  1  0
 29 71  1  0
 30 72  1  0
 36 73  1  0
 36 74  1  0
 38 75  1  0
 39 76  1  0
 40 77  1  0
 41 78  1  0
M  END
$$$$
