


 37 39  0  0  0  0  0  0  0  0999 V2000
    3.7795   66.3440   84.7779 C   0  0  0  0  0  0  0  0  0  0  0  0
    4.6952   67.3354   84.3970 C   0  0  0  0  0  0  0  0  0  0  0  0
    4.2878   68.4293   83.6283 C   0  0  0  0  0  0  0  0  0  0  0  0
    2.9567   68.5381   83.2307 C   0  0  0  0  0  0  0  0  0  0  0  0
    2.0278   67.5720   83.6171 C   0  0  0  0  0  0  0  0  0  0  0  0
    2.4271   66.4533   84.3704 C   0  0  0  0  0  0  0  0  0  0  0  0
    1.3989   65.4460   84.6798 C   0  0  0  0  0  0  0  0  0  0  0  0
    0.9570   65.1286   85.8889 N   0  0  0  0  0  0  0  0  0  0  0  0
    0.0074   64.1527   85.6980 C   0  0  0  0  0  0  0  0  0  0  0  0
   -0.7982   63.4613   86.6773 C   0  0  0  0  0  0  0  0  0  0  0  0
   -0.7471   63.7100   87.8793 O   0  0  0  0  0  0  0  0  0  0  0  0
   -1.6521   62.5014   86.1064 N   0  0  0  0  0  0  0  0  0  0  0  0
   -2.5082   61.7636   87.0139 C   0  0  0  0  0  0  0  0  0  0  0  0
   -1.8440   62.2622   84.7293 C   0  0  0  0  0  0  0  0  0  0  0  0
   -2.7148   61.4834   84.3307 O   0  0  0  0  0  0  0  0  0  0  0  0
   -1.0095   62.9532   83.8271 N   0  0  0  0  0  0  0  0  0  0  0  0
   -0.1360   63.8723   84.3697 C   0  0  0  0  0  0  0  0  0  0  0  0
    0.7351   64.6971   83.7288 N   0  0  0  0  0  0  0  0  0  0  0  0
    0.8954   64.7842   82.7352 H   0  0  0  0  0  0  0  0  0  0  0  0
   -1.1561   62.7100   82.3902 C   0  0  0  0  0  0  0  0  0  0  0  0
   -0.5461   61.3888   81.8725 C   0  0  0  0  0  0  0  0  0  0  0  0
    0.9758   61.3388   82.0017 C   0  0  0  0  0  0  0  0  0  0  0  0
   -0.9645   61.0569   80.4405 C   0  0  0  0  0  0  0  0  0  0  0  0
    2.4187   69.9530   82.2897 S   0  0  0  0  0  0  0  0  0  0  0  0
    0.9726   69.9632   82.3222 O   0  0  0  0  0  0  0  0  0  0  0  0
    3.1812   71.0893   82.7631 O   0  0  0  0  0  0  0  0  0  0  0  0
    2.9267   69.5976   80.7086 N   0  0  0  0  0  0  0  0  0  0  0  0
    3.8634   70.5391   80.0702 C   0  0  0  0  0  0  0  0  0  0  0  0
    1.9314   69.0115   79.7755 C   0  0  0  0  0  0  0  0  0  0  0  0
    1.8481   67.4703   79.8785 C   0  0  0  0  0  0  0  0  0  0  0  0
    0.6439   66.8397   80.4484 N   0  0  0  0  0  0  0  0  0  0  0  0
   -0.5816   67.5826   80.1877 C   0  0  0  0  0  0  0  0  0  0  0  0
    0.5056   65.4360   80.0717 C   0  0  0  0  0  0  0  0  0  0  0  0
    4.1094   65.2444   85.5325 O   0  0  0  0  0  0  0  0  0  0  0  0
    5.3809   65.1788   86.1815 C   0  0  0  0  0  0  0  0  0  0  0  0
    5.7074   65.3693   88.6859 C   0  0  0  0  0  0  0  0  0  0  0  0
    5.4462   66.1170   87.3853 C   0  0  0  0  0  0  0  0  0  0  0  0
 36 37  1  0  0  0
 37 35  1  0  0  0
 35 34  1  0  0  0
 34  1  1  0  0  0
  1  2  1  0  0  0
  2  3  2  0  0  0
  3  4  1  0  0  0
  4 24  1  0  0  0
 24 25  2  0  0  0
 24 26  2  0  0  0
 24 27  1  0  0  0
 27 28  1  0  0  0
 27 29  1  0  0  0
 29 30  1  0  0  0
 30 31  1  0  0  0
 31 32  1  0  0  0
 31 33  1  0  0  0
  4  5  2  0  0  0
  5  6  1  0  0  0
  6  7  1  0  0  0
  7  8  2  0  0  0
  8  9  1  0  0  0
  9 10  1  0  0  0
 10 11  2  0  0  0
 10 12  1  0  0  0
 12 13  1  0  0  0
 12 14  1  0  0  0
 14 15  2  0  0  0
 14 16  1  0  0  0
 16 20  1  0  0  0
 20 21  1  0  0  0
 21 22  1  0  0  0
 21 23  1  0  0  0
 16 17  1  0  0  0
 17 18  1  0  0  0
  6  1  2  0  0  0
 18  7  1  0  0  0
 17  9  2  0  0  0
 18 19  1  0  0  0
M  END
> <minimizedAffinity>
-9.22926

$$$$



 37 39  0  0  0  0  0  0  0  0999 V2000
    3.7187   66.6465   84.6700 C   0  0  0  0  0  0  0  0  0  0  0  0
    4.6226   67.7011   84.4768 C   0  0  0  0  0  0  0  0  0  0  0  0
    4.2740   68.8097   83.7002 C   0  0  0  0  0  0  0  0  0  0  0  0
    3.0149   68.8700   83.1063 C   0  0  0  0  0  0  0  0  0  0  0  0
    2.0957   67.8397   83.3041 C   0  0  0  0  0  0  0  0  0  0  0  0
    2.4401   66.7067   84.0632 C   0  0  0  0  0  0  0  0  0  0  0  0
    1.4371   65.6341   84.1678 C   0  0  0  0  0  0  0  0  0  0  0  0
    0.9014   64.9660   83.1556 N   0  0  0  0  0  0  0  0  0  0  0  0
    0.0268   64.0671   83.7193 C   0  0  0  0  0  0  0  0  0  0  0  0
   -0.8123   63.0848   83.0735 C   0  0  0  0  0  0  0  0  0  0  0  0
   -0.8143   62.9040   81.8584 O   0  0  0  0  0  0  0  0  0  0  0  0
   -1.5986   62.3533   83.9808 N   0  0  0  0  0  0  0  0  0  0  0  0
   -2.4665   61.3352   83.4230 C   0  0  0  0  0  0  0  0  0  0  0  0
   -1.5458   62.4298   85.3885 C   0  0  0  0  0  0  0  0  0  0  0  0
   -2.1890   61.6492   86.0961 O   0  0  0  0  0  0  0  0  0  0  0  0
   -0.7239   63.4254   85.9549 N   0  0  0  0  0  0  0  0  0  0  0  0
    0.0273   64.1815   85.0797 C   0  0  0  0  0  0  0  0  0  0  0  0
    0.9258   65.1633   85.3606 N   0  0  0  0  0  0  0  0  0  0  0  0
    1.2049   65.5127   86.2664 H   0  0  0  0  0  0  0  0  0  0  0  0
   -0.6648   63.5580   87.4124 C   0  0  0  0  0  0  0  0  0  0  0  0
    0.4983   62.8120   88.1026 C   0  0  0  0  0  0  0  0  0  0  0  0
    0.1263   62.2619   89.4790 C   0  0  0  0  0  0  0  0  0  0  0  0
    1.7740   63.6486   88.1968 C   0  0  0  0  0  0  0  0  0  0  0  0
    2.5451   70.3007   82.1527 S   0  0  0  0  0  0  0  0  0  0  0  0
    1.1105   70.4418   82.2723 O   0  0  0  0  0  0  0  0  0  0  0  0
    3.4331   71.3767   82.5409 O   0  0  0  0  0  0  0  0  0  0  0  0
    2.9189   69.8571   80.5566 N   0  0  0  0  0  0  0  0  0  0  0  0
    3.8109   70.7503   79.7963 C   0  0  0  0  0  0  0  0  0  0  0  0
    1.8447   69.2391   79.7388 C   0  0  0  0  0  0  0  0  0  0  0  0
    1.9032   67.6933   79.7416 C   0  0  0  0  0  0  0  0  0  0  0  0
    0.7161   66.9175   80.1432 N   0  0  0  0  0  0  0  0  0  0  0  0
   -0.4953   67.7193   80.2493 C   0  0  0  0  0  0  0  0  0  0  0  0
    0.5016   65.7365   79.3122 C   0  0  0  0  0  0  0  0  0  0  0  0
    3.9933   65.5290   85.4205 O   0  0  0  0  0  0  0  0  0  0  0  0
    5.3290   65.0257   85.4902 C   0  0  0  0  0  0  0  0  0  0  0  0
    5.2603   65.3500   88.0012 C   0  0  0  0  0  0  0  0  0  0  0  0
    6.0632   65.5503   86.7228 C   0  0  0  0  0  0  0  0  0  0  0  0
 36 37  1  0  0  0
 37 35  1  0  0  0
 35 34  1  0  0  0
 34  1  1  0  0  0
  1  2  1  0  0  0
  2  3  2  0  0  0
  3  4  1  0  0  0
  4 24  1  0  0  0
 24 25  2  0  0  0
 24 26  2  0  0  0
 24 27  1  0  0  0
 27 28  1  0  0  0
 27 29  1  0  0  0
 29 30  1  0  0  0
 30 31  1  0  0  0
 31 32  1  0  0  0
 31 33  1  0  0  0
  4  5  2  0  0  0
  5  6  1  0  0  0
  6  7  1  0  0  0
  7  8  2  0  0  0
  8  9  1  0  0  0
  9 10  1  0  0  0
 10 11  2  0  0  0
 10 12  1  0  0  0
 12 13  1  0  0  0
 12 14  1  0  0  0
 14 15  2  0  0  0
 14 16  1  0  0  0
 16 20  1  0  0  0
 20 21  1  0  0  0
 21 22  1  0  0  0
 21 23  1  0  0  0
 16 17  1  0  0  0
 17 18  1  0  0  0
  6  1  2  0  0  0
 18  7  1  0  0  0
 17  9  2  0  0  0
 18 19  1  0  0  0
M  END
> <minimizedAffinity>
-9.13656

$$$$



 37 39  0  0  0  0  0  0  0  0999 V2000
   -0.2330   63.7408   84.4667 C   0  0  0  0  0  0  0  0  0  0  0  0
   -0.8565   62.5030   84.6799 C   0  0  0  0  0  0  0  0  0  0  0  0
   -1.2383   61.6985   83.6025 C   0  0  0  0  0  0  0  0  0  0  0  0
   -1.0012   62.1297   82.2990 C   0  0  0  0  0  0  0  0  0  0  0  0
   -0.3641   63.3489   82.0682 C   0  0  0  0  0  0  0  0  0  0  0  0
    0.0046   64.1804   83.1411 C   0  0  0  0  0  0  0  0  0  0  0  0
    0.6113   65.4803   82.8100 C   0  0  0  0  0  0  0  0  0  0  0  0
    0.3401   66.2182   81.7424 N   0  0  0  0  0  0  0  0  0  0  0  0
    1.1310   67.3379   81.8484 C   0  0  0  0  0  0  0  0  0  0  0  0
    1.2252   68.4742   80.9618 C   0  0  0  0  0  0  0  0  0  0  0  0
    0.5320   68.5941   79.9546 O   0  0  0  0  0  0  0  0  0  0  0  0
    2.1694   69.4250   81.3869 N   0  0  0  0  0  0  0  0  0  0  0  0
    2.3253   70.6074   80.5630 C   0  0  0  0  0  0  0  0  0  0  0  0
    2.8993   69.4012   82.5940 C   0  0  0  0  0  0  0  0  0  0  0  0
    3.6089   70.3533   82.9313 O   0  0  0  0  0  0  0  0  0  0  0  0
    2.7798   68.2529   83.4032 N   0  0  0  0  0  0  0  0  0  0  0  0
    1.8871   67.2889   82.9840 C   0  0  0  0  0  0  0  0  0  0  0  0
    1.5494   66.1212   83.5943 N   0  0  0  0  0  0  0  0  0  0  0  0
    1.8937   65.7527   84.4696 H   0  0  0  0  0  0  0  0  0  0  0  0
    3.5449   68.1757   84.6498 C   0  0  0  0  0  0  0  0  0  0  0  0
    4.7744   67.2414   84.6200 C   0  0  0  0  0  0  0  0  0  0  0  0
    4.4838   65.8483   85.1770 C   0  0  0  0  0  0  0  0  0  0  0  0
    5.9985   67.8405   85.3119 C   0  0  0  0  0  0  0  0  0  0  0  0
   -1.4426   61.0900   80.9202 S   0  0  0  0  0  0  0  0  0  0  0  0
   -0.2500   60.9093   80.1220 O   0  0  0  0  0  0  0  0  0  0  0  0
   -2.1547   59.9512   81.4616 O   0  0  0  0  0  0  0  0  0  0  0  0
   -2.5478   62.0362   80.0442 N   0  0  0  0  0  0  0  0  0  0  0  0
   -3.9686   61.9445   80.4241 C   0  0  0  0  0  0  0  0  0  0  0  0
   -2.3227   62.1929   78.5850 C   0  0  0  0  0  0  0  0  0  0  0  0
   -2.7458   60.9444   77.7756 C   0  0  0  0  0  0  0  0  0  0  0  0
   -1.7481   60.2297   76.9593 N   0  0  0  0  0  0  0  0  0  0  0  0
   -0.5834   61.0376   76.6236 C   0  0  0  0  0  0  0  0  0  0  0  0
   -1.3574   58.9462   77.5351 C   0  0  0  0  0  0  0  0  0  0  0  0
    0.1693   64.5809   85.4765 O   0  0  0  0  0  0  0  0  0  0  0  0
    0.8125   64.0475   86.6359 C   0  0  0  0  0  0  0  0  0  0  0  0
    0.3232   62.9485   88.8647 C   0  0  0  0  0  0  0  0  0  0  0  0
   -0.1520   63.9453   87.8162 C   0  0  0  0  0  0  0  0  0  0  0  0
 36 37  1  0  0  0
 37 35  1  0  0  0
 35 34  1  0  0  0
 34  1  1  0  0  0
  1  2  1  0  0  0
  2  3  2  0  0  0
  3  4  1  0  0  0
  4 24  1  0  0  0
 24 25  2  0  0  0
 24 26  2  0  0  0
 24 27  1  0  0  0
 27 28  1  0  0  0
 27 29  1  0  0  0
 29 30  1  0  0  0
 30 31  1  0  0  0
 31 32  1  0  0  0
 31 33  1  0  0  0
  4  5  2  0  0  0
  5  6  1  0  0  0
  6  7  1  0  0  0
  7  8  2  0  0  0
  8  9  1  0  0  0
  9 10  1  0  0  0
 10 11  2  0  0  0
 10 12  1  0  0  0
 12 13  1  0  0  0
 12 14  1  0  0  0
 14 15  2  0  0  0
 14 16  1  0  0  0
 16 20  1  0  0  0
 20 21  1  0  0  0
 21 22  1  0  0  0
 21 23  1  0  0  0
 16 17  1  0  0  0
 17 18  1  0  0  0
  6  1  2  0  0  0
 18  7  1  0  0  0
 17  9  2  0  0  0
 18 19  1  0  0  0
M  END
> <minimizedAffinity>
-9.03379

$$$$



 37 39  0  0  0  0  0  0  0  0999 V2000
    3.5933   67.6458   83.9154 C   0  0  0  0  0  0  0  0  0  0  0  0
    4.2575   68.7426   83.3476 C   0  0  0  0  0  0  0  0  0  0  0  0
    3.6337   69.5349   82.3798 C   0  0  0  0  0  0  0  0  0  0  0  0
    2.3371   69.2325   81.9689 C   0  0  0  0  0  0  0  0  0  0  0  0
    1.6536   68.1576   82.5372 C   0  0  0  0  0  0  0  0  0  0  0  0
    2.2763   67.3368   83.4948 C   0  0  0  0  0  0  0  0  0  0  0  0
    1.5105   66.1834   83.9955 C   0  0  0  0  0  0  0  0  0  0  0  0
    1.3063   65.8766   85.2691 N   0  0  0  0  0  0  0  0  0  0  0  0
    0.5426   64.7332   85.2627 C   0  0  0  0  0  0  0  0  0  0  0  0
    0.0245   63.9772   86.3789 C   0  0  0  0  0  0  0  0  0  0  0  0
    0.1908   64.3149   87.5484 O   0  0  0  0  0  0  0  0  0  0  0  0
   -0.7009   62.8402   85.9821 N   0  0  0  0  0  0  0  0  0  0  0  0
   -1.2691   62.0244   87.0370 C   0  0  0  0  0  0  0  0  0  0  0  0
   -1.0299   62.4739   84.6600 C   0  0  0  0  0  0  0  0  0  0  0  0
   -1.7827   61.5236   84.4281 O   0  0  0  0  0  0  0  0  0  0  0  0
   -0.4731   63.2402   83.6157 N   0  0  0  0  0  0  0  0  0  0  0  0
    0.2753   64.3387   83.9833 C   0  0  0  0  0  0  0  0  0  0  0  0
    0.8779   65.2613   83.1860 N   0  0  0  0  0  0  0  0  0  0  0  0
    0.8816   65.3061   82.1768 H   0  0  0  0  0  0  0  0  0  0  0  0
   -0.7654   62.8741   82.2279 C   0  0  0  0  0  0  0  0  0  0  0  0
    0.4357   62.3507   81.4100 C   0  0  0  0  0  0  0  0  0  0  0  0
    0.0715   61.9942   79.9692 C   0  0  0  0  0  0  0  0  0  0  0  0
    1.1494   61.1763   82.0789 C   0  0  0  0  0  0  0  0  0  0  0  0
    1.5169   70.2647   80.7693 S   0  0  0  0  0  0  0  0  0  0  0  0
    2.5470   70.9340   80.0057 O   0  0  0  0  0  0  0  0  0  0  0  0
    0.5220   69.4413   80.1142 O   0  0  0  0  0  0  0  0  0  0  0  0
    0.7072   71.4157   81.7200 N   0  0  0  0  0  0  0  0  0  0  0  0
   -0.7649   71.4332   81.6554 C   0  0  0  0  0  0  0  0  0  0  0  0
    1.3210   72.7612   81.8526 C   0  0  0  0  0  0  0  0  0  0  0  0
    2.2420   72.8807   83.0897 C   0  0  0  0  0  0  0  0  0  0  0  0
    3.5578   73.5324   82.9613 N   0  0  0  0  0  0  0  0  0  0  0  0
    3.9730   73.7396   81.5806 C   0  0  0  0  0  0  0  0  0  0  0  0
    3.6597   74.7642   83.7383 C   0  0  0  0  0  0  0  0  0  0  0  0
    4.1441   66.8262   84.8705 O   0  0  0  0  0  0  0  0  0  0  0  0
    5.4227   67.1374   85.4278 C   0  0  0  0  0  0  0  0  0  0  0  0
    5.4560   65.2353   87.0998 C   0  0  0  0  0  0  0  0  0  0  0  0
    5.5037   66.7444   86.9018 C   0  0  0  0  0  0  0  0  0  0  0  0
 36 37  1  0  0  0
 37 35  1  0  0  0
 35 34  1  0  0  0
 34  1  1  0  0  0
  1  2  1  0  0  0
  2  3  2  0  0  0
  3  4  1  0  0  0
  4 24  1  0  0  0
 24 25  2  0  0  0
 24 26  2  0  0  0
 24 27  1  0  0  0
 27 28  1  0  0  0
 27 29  1  0  0  0
 29 30  1  0  0  0
 30 31  1  0  0  0
 31 32  1  0  0  0
 31 33  1  0  0  0
  4  5  2  0  0  0
  5  6  1  0  0  0
  6  7  1  0  0  0
  7  8  2  0  0  0
  8  9  1  0  0  0
  9 10  1  0  0  0
 10 11  2  0  0  0
 10 12  1  0  0  0
 12 13  1  0  0  0
 12 14  1  0  0  0
 14 15  2  0  0  0
 14 16  1  0  0  0
 16 20  1  0  0  0
 20 21  1  0  0  0
 21 22  1  0  0  0
 21 23  1  0  0  0
 16 17  1  0  0  0
 17 18  1  0  0  0
  6  1  2  0  0  0
 18  7  1  0  0  0
 17  9  2  0  0  0
 18 19  1  0  0  0
M  END
> <minimizedAffinity>
-8.92260

$$$$



 37 39  0  0  0  0  0  0  0  0999 V2000
    3.4165   67.1514   84.2042 C   0  0  0  0  0  0  0  0  0  0  0  0
    4.2347   68.2577   83.9340 C   0  0  0  0  0  0  0  0  0  0  0  0
    3.8366   69.2364   83.0189 C   0  0  0  0  0  0  0  0  0  0  0  0
    2.6137   69.1131   82.3625 C   0  0  0  0  0  0  0  0  0  0  0  0
    1.7778   68.0299   82.6337 C   0  0  0  0  0  0  0  0  0  0  0  0
    2.1749   67.0248   83.5340 C   0  0  0  0  0  0  0  0  0  0  0  0
    1.2648   65.8816   83.7135 C   0  0  0  0  0  0  0  0  0  0  0  0
    0.7479   65.1369   82.7460 N   0  0  0  0  0  0  0  0  0  0  0  0
   -0.0316   64.1937   83.3731 C   0  0  0  0  0  0  0  0  0  0  0  0
   -0.8127   63.1258   82.7939 C   0  0  0  0  0  0  0  0  0  0  0  0
   -0.8440   62.9009   81.5865 O   0  0  0  0  0  0  0  0  0  0  0  0
   -1.5051   62.3688   83.7551 N   0  0  0  0  0  0  0  0  0  0  0  0
   -2.3088   61.2661   83.2660 C   0  0  0  0  0  0  0  0  0  0  0  0
   -1.4078   62.5007   85.1564 C   0  0  0  0  0  0  0  0  0  0  0  0
   -1.9610   61.6986   85.9142 O   0  0  0  0  0  0  0  0  0  0  0  0
   -0.6479   63.5777   85.6566 N   0  0  0  0  0  0  0  0  0  0  0  0
    0.0088   64.3576   84.7278 C   0  0  0  0  0  0  0  0  0  0  0  0
    0.8359   65.4163   84.9404 N   0  0  0  0  0  0  0  0  0  0  0  0
    1.1187   65.8194   85.8225 H   0  0  0  0  0  0  0  0  0  0  0  0
   -0.5470   63.7678   87.1054 C   0  0  0  0  0  0  0  0  0  0  0  0
    0.5799   62.9759   87.8043 C   0  0  0  0  0  0  0  0  0  0  0  0
    0.1830   62.4603   89.1872 C   0  0  0  0  0  0  0  0  0  0  0  0
    1.8937   63.7522   87.8886 C   0  0  0  0  0  0  0  0  0  0  0  0
    2.0771   70.3796   81.2289 S   0  0  0  0  0  0  0  0  0  0  0  0
    3.2638   71.0478   80.7415 O   0  0  0  0  0  0  0  0  0  0  0  0
    1.1444   69.7577   80.3123 O   0  0  0  0  0  0  0  0  0  0  0  0
    1.2101   71.4568   82.2149 N   0  0  0  0  0  0  0  0  0  0  0  0
   -0.1237   71.8770   81.7500 C   0  0  0  0  0  0  0  0  0  0  0  0
    1.9705   72.5256   82.9106 C   0  0  0  0  0  0  0  0  0  0  0  0
    1.6663   73.9367   82.3548 C   0  0  0  0  0  0  0  0  0  0  0  0
    2.4957   75.0814   82.7723 N   0  0  0  0  0  0  0  0  0  0  0  0
    1.7216   76.2639   83.1245 C   0  0  0  0  0  0  0  0  0  0  0  0
    3.4503   74.7380   83.8221 C   0  0  0  0  0  0  0  0  0  0  0  0
    3.7434   66.1542   85.0908 O   0  0  0  0  0  0  0  0  0  0  0  0
    5.1151   65.8761   85.3793 C   0  0  0  0  0  0  0  0  0  0  0  0
    5.4358   65.6235   87.8790 C   0  0  0  0  0  0  0  0  0  0  0  0
    5.2571   64.9038   86.5490 C   0  0  0  0  0  0  0  0  0  0  0  0
 36 37  1  0  0  0
 37 35  1  0  0  0
 35 34  1  0  0  0
 34  1  1  0  0  0
  1  2  1  0  0  0
  2  3  2  0  0  0
  3  4  1  0  0  0
  4 24  1  0  0  0
 24 25  2  0  0  0
 24 26  2  0  0  0
 24 27  1  0  0  0
 27 28  1  0  0  0
 27 29  1  0  0  0
 29 30  1  0  0  0
 30 31  1  0  0  0
 31 32  1  0  0  0
 31 33  1  0  0  0
  4  5  2  0  0  0
  5  6  1  0  0  0
  6  7  1  0  0  0
  7  8  2  0  0  0
  8  9  1  0  0  0
  9 10  1  0  0  0
 10 11  2  0  0  0
 10 12  1  0  0  0
 12 13  1  0  0  0
 12 14  1  0  0  0
 14 15  2  0  0  0
 14 16  1  0  0  0
 16 20  1  0  0  0
 20 21  1  0  0  0
 21 22  1  0  0  0
 21 23  1  0  0  0
 16 17  1  0  0  0
 17 18  1  0  0  0
  6  1  2  0  0  0
 18  7  1  0  0  0
 17  9  2  0  0  0
 18 19  1  0  0  0
M  END
> <minimizedAffinity>
-8.89547

$$$$



 37 39  0  0  0  0  0  0  0  0999 V2000
   -0.1497   63.5520   84.6375 C   0  0  0  0  0  0  0  0  0  0  0  0
   -0.8982   62.3999   84.9184 C   0  0  0  0  0  0  0  0  0  0  0  0
   -1.6839   61.7981   83.9314 C   0  0  0  0  0  0  0  0  0  0  0  0
   -1.7292   62.3487   82.6522 C   0  0  0  0  0  0  0  0  0  0  0  0
   -0.9757   63.4827   82.3492 C   0  0  0  0  0  0  0  0  0  0  0  0
   -0.1989   64.1134   83.3378 C   0  0  0  0  0  0  0  0  0  0  0  0
    0.5132   65.3434   82.9539 C   0  0  0  0  0  0  0  0  0  0  0  0
    0.4415   65.9512   81.7778 N   0  0  0  0  0  0  0  0  0  0  0  0
    1.2612   67.0511   81.8723 C   0  0  0  0  0  0  0  0  0  0  0  0
    1.5425   68.0654   80.8834 C   0  0  0  0  0  0  0  0  0  0  0  0
    1.0148   68.0806   79.7740 O   0  0  0  0  0  0  0  0  0  0  0  0
    2.4575   69.0327   81.3346 N   0  0  0  0  0  0  0  0  0  0  0  0
    2.7926   70.0987   80.4113 C   0  0  0  0  0  0  0  0  0  0  0  0
    2.9961   69.1366   82.6344 C   0  0  0  0  0  0  0  0  0  0  0  0
    3.6927   70.1012   82.9629 O   0  0  0  0  0  0  0  0  0  0  0  0
    2.7008   68.1014   83.5448 N   0  0  0  0  0  0  0  0  0  0  0  0
    1.8351   67.1203   83.1090 C   0  0  0  0  0  0  0  0  0  0  0  0
    1.3532   66.0478   83.7929 N   0  0  0  0  0  0  0  0  0  0  0  0
    1.5440   65.7803   84.7482 H   0  0  0  0  0  0  0  0  0  0  0  0
    3.2656   68.1561   84.8951 C   0  0  0  0  0  0  0  0  0  0  0  0
    4.6607   67.5141   85.0602 C   0  0  0  0  0  0  0  0  0  0  0  0
    4.6243   65.9864   85.0459 C   0  0  0  0  0  0  0  0  0  0  0  0
    5.4061   68.0117   86.2982 C   0  0  0  0  0  0  0  0  0  0  0  0
   -2.6918   61.5618   81.3750 S   0  0  0  0  0  0  0  0  0  0  0  0
   -3.1688   60.3061   81.9115 O   0  0  0  0  0  0  0  0  0  0  0  0
   -3.6176   62.5551   80.8719 O   0  0  0  0  0  0  0  0  0  0  0  0
   -1.5520   61.2379   80.1583 N   0  0  0  0  0  0  0  0  0  0  0  0
   -0.1474   61.0727   80.5723 C   0  0  0  0  0  0  0  0  0  0  0  0
   -1.7189   61.9229   78.8515 C   0  0  0  0  0  0  0  0  0  0  0  0
   -0.4883   61.7611   77.9284 C   0  0  0  0  0  0  0  0  0  0  0  0
    0.1238   62.9512   77.3106 N   0  0  0  0  0  0  0  0  0  0  0  0
   -0.8441   63.8572   76.7073 C   0  0  0  0  0  0  0  0  0  0  0  0
    1.0251   63.6601   78.2143 C   0  0  0  0  0  0  0  0  0  0  0  0
    0.6438   64.1941   85.5571 O   0  0  0  0  0  0  0  0  0  0  0  0
    0.1955   64.3454   86.9055 C   0  0  0  0  0  0  0  0  0  0  0  0
    0.2967   62.8451   88.9436 C   0  0  0  0  0  0  0  0  0  0  0  0
    1.0952   63.5928   87.8843 C   0  0  0  0  0  0  0  0  0  0  0  0
 36 37  1  0  0  0
 37 35  1  0  0  0
 35 34  1  0  0  0
 34  1  1  0  0  0
  1  2  1  0  0  0
  2  3  2  0  0  0
  3  4  1  0  0  0
  4 24  1  0  0  0
 24 25  2  0  0  0
 24 26  2  0  0  0
 24 27  1  0  0  0
 27 28  1  0  0  0
 27 29  1  0  0  0
 29 30  1  0  0  0
 30 31  1  0  0  0
 31 32  1  0  0  0
 31 33  1  0  0  0
  4  5  2  0  0  0
  5  6  1  0  0  0
  6  7  1  0  0  0
  7  8  2  0  0  0
  8  9  1  0  0  0
  9 10  1  0  0  0
 10 11  2  0  0  0
 10 12  1  0  0  0
 12 13  1  0  0  0
 12 14  1  0  0  0
 14 15  2  0  0  0
 14 16  1  0  0  0
 16 20  1  0  0  0
 20 21  1  0  0  0
 21 22  1  0  0  0
 21 23  1  0  0  0
 16 17  1  0  0  0
 17 18  1  0  0  0
  6  1  2  0  0  0
 18  7  1  0  0  0
 17  9  2  0  0  0
 18 19  1  0  0  0
M  END
> <minimizedAffinity>
-8.88491

$$$$



 37 39  0  0  0  0  0  0  0  0999 V2000
    0.8289   65.4170   80.9873 C   0  0  0  0  0  0  0  0  0  0  0  0
    1.2536   66.2792   79.9662 C   0  0  0  0  0  0  0  0  0  0  0  0
    1.8722   67.4959   80.2674 C   0  0  0  0  0  0  0  0  0  0  0  0
    2.0682   67.8617   81.5976 C   0  0  0  0  0  0  0  0  0  0  0  0
    1.6704   67.0076   82.6261 C   0  0  0  0  0  0  0  0  0  0  0  0
    1.0252   65.7910   82.3395 C   0  0  0  0  0  0  0  0  0  0  0  0
    0.5770   64.9790   83.4829 C   0  0  0  0  0  0  0  0  0  0  0  0
    1.1489   64.9326   84.6781 N   0  0  0  0  0  0  0  0  0  0  0  0
    0.3962   64.0541   85.4212 C   0  0  0  0  0  0  0  0  0  0  0  0
    0.5676   63.6434   86.7953 C   0  0  0  0  0  0  0  0  0  0  0  0
    1.4514   64.0925   87.5209 O   0  0  0  0  0  0  0  0  0  0  0  0
   -0.3910   62.7025   87.2103 N   0  0  0  0  0  0  0  0  0  0  0  0
   -0.3039   62.2395   88.5812 C   0  0  0  0  0  0  0  0  0  0  0  0
   -1.4987   62.2480   86.4641 C   0  0  0  0  0  0  0  0  0  0  0  0
   -2.3543   61.5165   86.9705 O   0  0  0  0  0  0  0  0  0  0  0  0
   -1.5948   62.6686   85.1219 N   0  0  0  0  0  0  0  0  0  0  0  0
   -0.6409   63.5623   84.6821 C   0  0  0  0  0  0  0  0  0  0  0  0
   -0.5308   64.1556   83.4632 N   0  0  0  0  0  0  0  0  0  0  0  0
   -1.1340   64.0472   82.6601 H   0  0  0  0  0  0  0  0  0  0  0  0
   -2.7135   62.1944   84.3039 C   0  0  0  0  0  0  0  0  0  0  0  0
   -2.3281   61.5786   82.9409 C   0  0  0  0  0  0  0  0  0  0  0  0
   -2.7041   62.4644   81.7538 C   0  0  0  0  0  0  0  0  0  0  0  0
   -2.8832   60.1685   82.7427 C   0  0  0  0  0  0  0  0  0  0  0  0
    2.8976   69.3896   81.9905 S   0  0  0  0  0  0  0  0  0  0  0  0
    3.6985   69.1499   83.1710 O   0  0  0  0  0  0  0  0  0  0  0  0
    3.5036   69.8679   80.7654 O   0  0  0  0  0  0  0  0  0  0  0  0
    1.6271   70.4406   82.3969 N   0  0  0  0  0  0  0  0  0  0  0  0
    0.3465   70.2607   81.6902 C   0  0  0  0  0  0  0  0  0  0  0  0
    1.9641   71.8582   82.6826 C   0  0  0  0  0  0  0  0  0  0  0  0
    1.3285   72.8411   81.6712 C   0  0  0  0  0  0  0  0  0  0  0  0
    2.0790   73.2368   80.4659 N   0  0  0  0  0  0  0  0  0  0  0  0
    1.5376   74.4155   79.8033 C   0  0  0  0  0  0  0  0  0  0  0  0
    3.5121   73.3739   80.7088 C   0  0  0  0  0  0  0  0  0  0  0  0
    0.2162   64.2077   80.7645 O   0  0  0  0  0  0  0  0  0  0  0  0
    0.2791   63.6025   79.4714 C   0  0  0  0  0  0  0  0  0  0  0  0
    0.7912   61.6324   80.9785 C   0  0  0  0  0  0  0  0  0  0  0  0
    0.4398   62.0864   79.5681 C   0  0  0  0  0  0  0  0  0  0  0  0
 36 37  1  0  0  0
 37 35  1  0  0  0
 35 34  1  0  0  0
 34  1  1  0  0  0
  1  2  1  0  0  0
  2  3  2  0  0  0
  3  4  1  0  0  0
  4 24  1  0  0  0
 24 25  2  0  0  0
 24 26  2  0  0  0
 24 27  1  0  0  0
 27 28  1  0  0  0
 27 29  1  0  0  0
 29 30  1  0  0  0
 30 31  1  0  0  0
 31 32  1  0  0  0
 31 33  1  0  0  0
  4  5  2  0  0  0
  5  6  1  0  0  0
  6  7  1  0  0  0
  7  8  2  0  0  0
  8  9  1  0  0  0
  9 10  1  0  0  0
 10 11  2  0  0  0
 10 12  1  0  0  0
 12 13  1  0  0  0
 12 14  1  0  0  0
 14 15  2  0  0  0
 14 16  1  0  0  0
 16 20  1  0  0  0
 20 21  1  0  0  0
 21 22  1  0  0  0
 21 23  1  0  0  0
 16 17  1  0  0  0
 17 18  1  0  0  0
  6  1  2  0  0  0
 18  7  1  0  0  0
 17  9  2  0  0  0
 18 19  1  0  0  0
M  END
> <minimizedAffinity>
-8.85106

$$$$



 37 39  0  0  0  0  0  0  0  0999 V2000
    3.5457   67.0285   84.2657 C   0  0  0  0  0  0  0  0  0  0  0  0
    4.3811   68.1297   84.0299 C   0  0  0  0  0  0  0  0  0  0  0  0
    3.9284   69.2270   83.2919 C   0  0  0  0  0  0  0  0  0  0  0  0
    2.6325   69.2290   82.7797 C   0  0  0  0  0  0  0  0  0  0  0  0
    1.7808   68.1511   83.0213 C   0  0  0  0  0  0  0  0  0  0  0  0
    2.2295   67.0295   83.7418 C   0  0  0  0  0  0  0  0  0  0  0  0
    1.2904   65.9060   83.8952 C   0  0  0  0  0  0  0  0  0  0  0  0
    0.7459   65.2049   82.9104 N   0  0  0  0  0  0  0  0  0  0  0  0
   -0.0536   64.2643   83.5160 C   0  0  0  0  0  0  0  0  0  0  0  0
   -0.8677   63.2355   82.9121 C   0  0  0  0  0  0  0  0  0  0  0  0
   -0.9148   63.0479   81.6989 O   0  0  0  0  0  0  0  0  0  0  0  0
   -1.5725   62.4686   83.8564 N   0  0  0  0  0  0  0  0  0  0  0  0
   -2.4095   61.4029   83.3417 C   0  0  0  0  0  0  0  0  0  0  0  0
   -1.4605   62.5557   85.2600 C   0  0  0  0  0  0  0  0  0  0  0  0
   -2.0289   61.7462   85.9985 O   0  0  0  0  0  0  0  0  0  0  0  0
   -0.6678   63.5965   85.7854 N   0  0  0  0  0  0  0  0  0  0  0  0
    0.0021   64.3863   84.8746 C   0  0  0  0  0  0  0  0  0  0  0  0
    0.8590   65.4156   85.1114 N   0  0  0  0  0  0  0  0  0  0  0  0
    1.1597   65.7843   86.0025 H   0  0  0  0  0  0  0  0  0  0  0  0
   -0.5502   63.7401   87.2383 C   0  0  0  0  0  0  0  0  0  0  0  0
    0.6038   62.9507   87.8946 C   0  0  0  0  0  0  0  0  0  0  0  0
    0.2370   62.3768   89.2626 C   0  0  0  0  0  0  0  0  0  0  0  0
    1.9002   63.7546   87.9909 C   0  0  0  0  0  0  0  0  0  0  0  0
    2.0314   70.6435   81.8770 S   0  0  0  0  0  0  0  0  0  0  0  0
    1.3208   70.1425   80.7210 O   0  0  0  0  0  0  0  0  0  0  0  0
    1.3756   71.5082   82.8358 O   0  0  0  0  0  0  0  0  0  0  0  0
    3.4504   71.4156   81.3534 N   0  0  0  0  0  0  0  0  0  0  0  0
    3.5807   72.8565   81.6335 C   0  0  0  0  0  0  0  0  0  0  0  0
    4.0247   71.0007   80.0485 C   0  0  0  0  0  0  0  0  0  0  0  0
    5.3941   71.6595   79.7595 C   0  0  0  0  0  0  0  0  0  0  0  0
    5.6653   72.2277   78.4268 N   0  0  0  0  0  0  0  0  0  0  0  0
    6.4444   73.4579   78.4656 C   0  0  0  0  0  0  0  0  0  0  0  0
    6.2474   71.2580   77.5036 C   0  0  0  0  0  0  0  0  0  0  0  0
    3.9234   65.9188   84.9822 O   0  0  0  0  0  0  0  0  0  0  0  0
    5.0206   65.9970   85.8945 C   0  0  0  0  0  0  0  0  0  0  0  0
    7.2749   65.8953   84.7444 C   0  0  0  0  0  0  0  0  0  0  0  0
    6.1818   65.1075   85.4539 C   0  0  0  0  0  0  0  0  0  0  0  0
 36 37  1  0  0  0
 37 35  1  0  0  0
 35 34  1  0  0  0
 34  1  1  0  0  0
  1  2  1  0  0  0
  2  3  2  0  0  0
  3  4  1  0  0  0
  4 24  1  0  0  0
 24 25  2  0  0  0
 24 26  2  0  0  0
 24 27  1  0  0  0
 27 28  1  0  0  0
 27 29  1  0  0  0
 29 30  1  0  0  0
 30 31  1  0  0  0
 31 32  1  0  0  0
 31 33  1  0  0  0
  4  5  2  0  0  0
  5  6  1  0  0  0
  6  7  1  0  0  0
  7  8  2  0  0  0
  8  9  1  0  0  0
  9 10  1  0  0  0
 10 11  2  0  0  0
 10 12  1  0  0  0
 12 13  1  0  0  0
 12 14  1  0  0  0
 14 15  2  0  0  0
 14 16  1  0  0  0
 16 20  1  0  0  0
 20 21  1  0  0  0
 21 22  1  0  0  0
 21 23  1  0  0  0
 16 17  1  0  0  0
 17 18  1  0  0  0
  6  1  2  0  0  0
 18  7  1  0  0  0
 17  9  2  0  0  0
 18 19  1  0  0  0
M  END
> <minimizedAffinity>
-8.84697

$$$$



 37 39  0  0  0  0  0  0  0  0999 V2000
    2.9793   66.9612   84.0121 C   0  0  0  0  0  0  0  0  0  0  0  0
    3.7286   68.1399   84.1367 C   0  0  0  0  0  0  0  0  0  0  0  0
    3.2983   69.3284   83.5400 C   0  0  0  0  0  0  0  0  0  0  0  0
    2.1124   69.3455   82.8087 C   0  0  0  0  0  0  0  0  0  0  0  0
    1.3439   68.1874   82.6910 C   0  0  0  0  0  0  0  0  0  0  0  0
    1.7754   66.9783   83.2656 C   0  0  0  0  0  0  0  0  0  0  0  0
    0.9405   65.7871   83.0384 C   0  0  0  0  0  0  0  0  0  0  0  0
    0.4230   65.4073   81.8783 N   0  0  0  0  0  0  0  0  0  0  0  0
   -0.2726   64.2500   82.1377 C   0  0  0  0  0  0  0  0  0  0  0  0
   -1.0176   63.4113   81.2280 C   0  0  0  0  0  0  0  0  0  0  0  0
   -1.0910   63.6350   80.0222 O   0  0  0  0  0  0  0  0  0  0  0  0
   -1.6217   62.3129   81.8643 N   0  0  0  0  0  0  0  0  0  0  0  0
   -2.3833   61.4078   81.0265 C   0  0  0  0  0  0  0  0  0  0  0  0
   -1.4686   61.9374   83.2156 C   0  0  0  0  0  0  0  0  0  0  0  0
   -1.9405   60.8800   83.6431 O   0  0  0  0  0  0  0  0  0  0  0  0
   -0.7487   62.8116   84.0554 N   0  0  0  0  0  0  0  0  0  0  0  0
   -0.1800   63.9172   83.4584 C   0  0  0  0  0  0  0  0  0  0  0  0
    0.5947   64.8826   84.0222 N   0  0  0  0  0  0  0  0  0  0  0  0
    0.8941   64.9593   84.9840 H   0  0  0  0  0  0  0  0  0  0  0  0
   -0.5931   62.4734   85.4720 C   0  0  0  0  0  0  0  0  0  0  0  0
   -1.4682   63.2865   86.4511 C   0  0  0  0  0  0  0  0  0  0  0  0
   -0.7226   63.7043   87.7180 C   0  0  0  0  0  0  0  0  0  0  0  0
   -2.7729   62.5793   86.8167 C   0  0  0  0  0  0  0  0  0  0  0  0
    1.5325   70.8668   82.0834 S   0  0  0  0  0  0  0  0  0  0  0  0
    0.1767   70.6369   81.6346 O   0  0  0  0  0  0  0  0  0  0  0  0
    1.8349   71.9251   83.0244 O   0  0  0  0  0  0  0  0  0  0  0  0
    2.5309   71.0673   80.7243 N   0  0  0  0  0  0  0  0  0  0  0  0
    2.7498   69.8904   79.8648 C   0  0  0  0  0  0  0  0  0  0  0  0
    3.7217   71.9434   80.8616 C   0  0  0  0  0  0  0  0  0  0  0  0
    4.9215   71.4618   80.0123 C   0  0  0  0  0  0  0  0  0  0  0  0
    5.4855   72.3457   78.9763 N   0  0  0  0  0  0  0  0  0  0  0  0
    6.1215   73.5409   79.5135 C   0  0  0  0  0  0  0  0  0  0  0  0
    6.3688   71.6434   78.0500 C   0  0  0  0  0  0  0  0  0  0  0  0
    3.3408   65.7599   84.5721 O   0  0  0  0  0  0  0  0  0  0  0  0
    4.6474   65.5946   85.1266 C   0  0  0  0  0  0  0  0  0  0  0  0
    5.8782   65.4649   87.3365 C   0  0  0  0  0  0  0  0  0  0  0  0
    4.5858   65.1618   86.5904 C   0  0  0  0  0  0  0  0  0  0  0  0
 36 37  1  0  0  0
 37 35  1  0  0  0
 35 34  1  0  0  0
 34  1  1  0  0  0
  1  2  1  0  0  0
  2  3  2  0  0  0
  3  4  1  0  0  0
  4 24  1  0  0  0
 24 25  2  0  0  0
 24 26  2  0  0  0
 24 27  1  0  0  0
 27 28  1  0  0  0
 27 29  1  0  0  0
 29 30  1  0  0  0
 30 31  1  0  0  0
 31 32  1  0  0  0
 31 33  1  0  0  0
  4  5  2  0  0  0
  5  6  1  0  0  0
  6  7  1  0  0  0
  7  8  2  0  0  0
  8  9  1  0  0  0
  9 10  1  0  0  0
 10 11  2  0  0  0
 10 12  1  0  0  0
 12 13  1  0  0  0
 12 14  1  0  0  0
 14 15  2  0  0  0
 14 16  1  0  0  0
 16 20  1  0  0  0
 20 21  1  0  0  0
 21 22  1  0  0  0
 21 23  1  0  0  0
 16 17  1  0  0  0
 17 18  1  0  0  0
  6  1  2  0  0  0
 18  7  1  0  0  0
 17  9  2  0  0  0
 18 19  1  0  0  0
M  END
> <minimizedAffinity>
-8.81644

$$$$
