


 35 38  0  0  0  0  0  0  0  0999 V2000
    1.5265   66.4878   83.6810 C   0  0  0  0  0  0  0  0  0  0  0  0
    0.9903   65.3045   84.0183 N   0  0  0  0  0  0  0  0  0  0  0  0
    0.1587   64.7253   83.1428 C   0  0  0  0  0  0  0  0  0  0  0  0
   -0.1525   65.2561   81.9554 N   0  0  0  0  0  0  0  0  0  0  0  0
    0.3467   66.4564   81.6456 C   0  0  0  0  0  0  0  0  0  0  0  0
   -0.0152   67.0415   80.4372 C   0  0  0  0  0  0  0  0  0  0  0  0
    0.4482   68.3050   80.0582 C   0  0  0  0  0  0  0  0  0  0  0  0
    1.2887   69.0129   80.9058 C   0  0  0  0  0  0  0  0  0  0  0  0
    1.6660   68.4448   82.1197 C   0  0  0  0  0  0  0  0  0  0  0  0
    1.2109   67.1535   82.4908 C   0  0  0  0  0  0  0  0  0  0  0  0
    2.4292   67.0045   84.6268 N   0  0  0  0  0  0  0  0  0  0  0  0
    2.0899   66.6287   85.5143 H   0  0  0  0  0  0  0  0  0  0  0  0
    6.6199   66.4903   85.3796 N   0  0  0  0  0  0  0  0  0  0  0  0
    5.7665   65.2871   85.4009 C   0  0  0  0  0  0  0  0  0  0  0  0
    4.2826   65.6248   85.5475 C   0  0  0  0  0  0  0  0  0  0  0  0
    3.8240   66.5600   84.4298 C   0  0  0  0  0  0  0  0  0  0  0  0
    4.7212   67.7948   84.4174 C   0  0  0  0  0  0  0  0  0  0  0  0
    6.1929   67.4018   84.3006 C   0  0  0  0  0  0  0  0  0  0  0  0
    8.9230   67.3406   84.8247 C   0  0  0  0  0  0  0  0  0  0  0  0
    8.0653   66.1435   85.2727 C   0  0  0  0  0  0  0  0  0  0  0  0
    8.3211   65.0020   84.2724 C   0  0  0  0  0  0  0  0  0  0  0  0
   -0.3509   63.4939   83.5494 N   0  0  0  0  0  0  0  0  0  0  0  0
   -0.1072   62.8001   82.8569 H   0  0  0  0  0  0  0  0  0  0  0  0
   -0.9510   63.0339   84.7259 C   0  0  0  0  0  0  0  0  0  0  0  0
   -2.2735   62.5591   84.6618 C   0  0  0  0  0  0  0  0  0  0  0  0
   -2.9528   62.1168   85.8024 C   0  0  0  0  0  0  0  0  0  0  0  0
   -2.3247   62.1554   87.0420 C   0  0  0  0  0  0  0  0  0  0  0  0
   -1.0203   62.6409   87.1232 C   0  0  0  0  0  0  0  0  0  0  0  0
   -0.3343   63.0692   85.9789 C   0  0  0  0  0  0  0  0  0  0  0  0
   -0.2054   62.7235   88.6937 S   0  0  0  0  0  0  0  0  0  0  0  0
    1.0834   63.7539   88.3478 N   0  0  0  0  0  0  0  0  0  0  0  0
    0.3825   61.4352   88.9779 O   0  0  0  0  0  0  0  0  0  0  0  0
   -1.0679   63.4063   89.6290 O   0  0  0  0  0  0  0  0  0  0  0  0
    1.0047   64.1936   87.4312 H   0  0  0  0  0  0  0  0  0  0  0  0
    1.9540   63.2280   88.4412 H   0  0  0  0  0  0  0  0  0  0  0  0
 19 20  1  0  0  0
 20 21  1  0  0  0
 20 13  1  0  0  0
 13 14  1  0  0  0
 14 15  1  0  0  0
 15 16  1  0  0  0
 16 11  1  0  0  0
 11  1  1  0  0  0
  1  2  1  0  0  0
  2  3  2  0  0  0
  3 22  1  0  0  0
 22 24  1  0  0  0
 24 25  1  0  0  0
 25 26  2  0  0  0
 26 27  1  0  0  0
 27 28  2  0  0  0
 28 30  1  0  0  0
 30 31  1  0  0  0
 30 32  2  0  0  0
 30 33  2  0  0  0
 28 29  1  0  0  0
  3  4  1  0  0  0
  4  5  2  0  0  0
  5  6  1  0  0  0
  6  7  2  0  0  0
  7  8  1  0  0  0
  8  9  2  0  0  0
  9 10  1  0  0  0
 16 17  1  0  0  0
 17 18  1  0  0  0
 18 13  1  0  0  0
 10  1  2  0  0  0
 29 24  2  0  0  0
 10  5  1  0  0  0
 11 12  1  0  0  0
 22 23  1  0  0  0
 31 34  1  0  0  0
 31 35  1  0  0  0
M  END
> <minimizedAffinity>
-10.93909

$$$$



 35 38  0  0  0  0  0  0  0  0999 V2000
   -0.0863   63.0544   83.6756 C   0  0  0  0  0  0  0  0  0  0  0  0
   -0.6531   62.2294   82.7814 N   0  0  0  0  0  0  0  0  0  0  0  0
   -1.7236   61.5267   83.1733 C   0  0  0  0  0  0  0  0  0  0  0  0
   -2.2585   61.6134   84.3961 N   0  0  0  0  0  0  0  0  0  0  0  0
   -1.6615   62.4002   85.2962 C   0  0  0  0  0  0  0  0  0  0  0  0
   -2.1775   62.4545   86.5863 C   0  0  0  0  0  0  0  0  0  0  0  0
   -1.5908   63.2360   87.5862 C   0  0  0  0  0  0  0  0  0  0  0  0
   -0.4540   63.9793   87.3010 C   0  0  0  0  0  0  0  0  0  0  0  0
    0.0781   63.9419   86.0149 C   0  0  0  0  0  0  0  0  0  0  0  0
   -0.5329   63.1646   84.9976 C   0  0  0  0  0  0  0  0  0  0  0  0
    0.9972   63.7959   83.1729 N   0  0  0  0  0  0  0  0  0  0  0  0
    1.2822   63.2735   82.3424 H   0  0  0  0  0  0  0  0  0  0  0  0
    1.3930   67.6792   81.3963 N   0  0  0  0  0  0  0  0  0  0  0  0
    0.3671   66.7739   80.8447 C   0  0  0  0  0  0  0  0  0  0  0  0
    0.5960   65.3165   81.2459 C   0  0  0  0  0  0  0  0  0  0  0  0
    0.6451   65.1716   82.7661 C   0  0  0  0  0  0  0  0  0  0  0  0
    1.7054   66.1194   83.3203 C   0  0  0  0  0  0  0  0  0  0  0  0
    1.4487   67.5552   82.8656 C   0  0  0  0  0  0  0  0  0  0  0  0
    1.2379   70.0768   82.1466 C   0  0  0  0  0  0  0  0  0  0  0  0
    1.1770   69.0899   80.9669 C   0  0  0  0  0  0  0  0  0  0  0  0
   -0.1844   69.2900   80.2774 C   0  0  0  0  0  0  0  0  0  0  0  0
   -2.2703   60.7011   82.1930 N   0  0  0  0  0  0  0  0  0  0  0  0
   -2.5086   59.8148   82.6149 H   0  0  0  0  0  0  0  0  0  0  0  0
   -2.6741   60.9040   80.8696 C   0  0  0  0  0  0  0  0  0  0  0  0
   -3.8318   61.6670   80.6321 C   0  0  0  0  0  0  0  0  0  0  0  0
   -4.3184   61.8827   79.3381 C   0  0  0  0  0  0  0  0  0  0  0  0
   -3.6619   61.3227   78.2481 C   0  0  0  0  0  0  0  0  0  0  0  0
   -2.5237   60.5488   78.4701 C   0  0  0  0  0  0  0  0  0  0  0  0
   -2.0271   60.3455   79.7645 C   0  0  0  0  0  0  0  0  0  0  0  0
   -1.6821   59.8037   77.1012 S   0  0  0  0  0  0  0  0  0  0  0  0
   -0.5582   58.8266   77.8913 N   0  0  0  0  0  0  0  0  0  0  0  0
   -0.9143   60.8208   76.4214 O   0  0  0  0  0  0  0  0  0  0  0  0
   -2.6025   58.9334   76.4082 O   0  0  0  0  0  0  0  0  0  0  0  0
   -0.7237   58.7641   78.8955 H   0  0  0  0  0  0  0  0  0  0  0  0
    0.3789   59.1759   77.6837 H   0  0  0  0  0  0  0  0  0  0  0  0
 19 20  1  0  0  0
 20 21  1  0  0  0
 20 13  1  0  0  0
 13 14  1  0  0  0
 14 15  1  0  0  0
 15 16  1  0  0  0
 16 11  1  0  0  0
 11  1  1  0  0  0
  1  2  1  0  0  0
  2  3  2  0  0  0
  3 22  1  0  0  0
 22 24  1  0  0  0
 24 25  1  0  0  0
 25 26  2  0  0  0
 26 27  1  0  0  0
 27 28  2  0  0  0
 28 30  1  0  0  0
 30 31  1  0  0  0
 30 32  2  0  0  0
 30 33  2  0  0  0
 28 29  1  0  0  0
  3  4  1  0  0  0
  4  5  2  0  0  0
  5  6  1  0  0  0
  6  7  2  0  0  0
  7  8  1  0  0  0
  8  9  2  0  0  0
  9 10  1  0  0  0
 16 17  1  0  0  0
 17 18  1  0  0  0
 18 13  1  0  0  0
 10  1  2  0  0  0
 29 24  2  0  0  0
 10  5  1  0  0  0
 11 12  1  0  0  0
 22 23  1  0  0  0
 31 34  1  0  0  0
 31 35  1  0  0  0
M  END
> <minimizedAffinity>
-10.81102

$$$$



 35 38  0  0  0  0  0  0  0  0999 V2000
   -1.5179   62.9739   83.9013 C   0  0  0  0  0  0  0  0  0  0  0  0
   -0.6059   63.7149   83.2526 N   0  0  0  0  0  0  0  0  0  0  0  0
    0.2872   64.3885   83.9889 C   0  0  0  0  0  0  0  0  0  0  0  0
    0.3230   64.3513   85.3254 N   0  0  0  0  0  0  0  0  0  0  0  0
   -0.6166   63.6502   85.9667 C   0  0  0  0  0  0  0  0  0  0  0  0
   -0.6210   63.6503   87.3573 C   0  0  0  0  0  0  0  0  0  0  0  0
   -1.5878   62.9601   88.0947 C   0  0  0  0  0  0  0  0  0  0  0  0
   -2.5845   62.2556   87.4341 C   0  0  0  0  0  0  0  0  0  0  0  0
   -2.5976   62.2398   86.0419 C   0  0  0  0  0  0  0  0  0  0  0  0
   -1.6022   62.9235   85.2976 C   0  0  0  0  0  0  0  0  0  0  0  0
   -2.3845   62.2555   83.0591 N   0  0  0  0  0  0  0  0  0  0  0  0
   -3.2724   62.7536   83.1455 H   0  0  0  0  0  0  0  0  0  0  0  0
   -1.7937   60.8420   79.0534 N   0  0  0  0  0  0  0  0  0  0  0  0
   -2.7285   61.9656   79.2534 C   0  0  0  0  0  0  0  0  0  0  0  0
   -3.1804   62.0991   80.7078 C   0  0  0  0  0  0  0  0  0  0  0  0
   -1.9793   62.2582   81.6387 C   0  0  0  0  0  0  0  0  0  0  0  0
   -1.0200   61.0926   81.4137 C   0  0  0  0  0  0  0  0  0  0  0  0
   -0.6243   60.9844   79.9420 C   0  0  0  0  0  0  0  0  0  0  0  0
   -0.9849   59.2613   77.2694 C   0  0  0  0  0  0  0  0  0  0  0  0
   -1.3910   60.7027   77.6253 C   0  0  0  0  0  0  0  0  0  0  0  0
   -0.2040   61.6120   77.2604 C   0  0  0  0  0  0  0  0  0  0  0  0
    1.2125   65.1258   83.2530 N   0  0  0  0  0  0  0  0  0  0  0  0
    1.1332   64.8632   82.2808 H   0  0  0  0  0  0  0  0  0  0  0  0
    2.0564   66.1995   83.5543 C   0  0  0  0  0  0  0  0  0  0  0  0
    1.8569   67.4178   82.8801 C   0  0  0  0  0  0  0  0  0  0  0  0
    2.6831   68.5252   83.1013 C   0  0  0  0  0  0  0  0  0  0  0  0
    3.7432   68.4317   83.9957 C   0  0  0  0  0  0  0  0  0  0  0  0
    3.9641   67.2245   84.6573 C   0  0  0  0  0  0  0  0  0  0  0  0
    3.1274   66.1201   84.4478 C   0  0  0  0  0  0  0  0  0  0  0  0
    5.3222   67.0709   85.7838 S   0  0  0  0  0  0  0  0  0  0  0  0
    5.0048   68.3263   86.8634 N   0  0  0  0  0  0  0  0  0  0  0  0
    6.5377   67.4381   85.0955 O   0  0  0  0  0  0  0  0  0  0  0  0
    5.1858   65.8299   86.5092 O   0  0  0  0  0  0  0  0  0  0  0  0
    4.0839   68.7425   86.7279 H   0  0  0  0  0  0  0  0  0  0  0  0
    5.7492   69.0209   86.7821 H   0  0  0  0  0  0  0  0  0  0  0  0
 19 20  1  0  0  0
 20 21  1  0  0  0
 20 13  1  0  0  0
 13 14  1  0  0  0
 14 15  1  0  0  0
 15 16  1  0  0  0
 16 11  1  0  0  0
 11  1  1  0  0  0
  1  2  1  0  0  0
  2  3  2  0  0  0
  3 22  1  0  0  0
 22 24  1  0  0  0
 24 25  1  0  0  0
 25 26  2  0  0  0
 26 27  1  0  0  0
 27 28  2  0  0  0
 28 30  1  0  0  0
 30 31  1  0  0  0
 30 32  2  0  0  0
 30 33  2  0  0  0
 28 29  1  0  0  0
  3  4  1  0  0  0
  4  5  2  0  0  0
  5  6  1  0  0  0
  6  7  2  0  0  0
  7  8  1  0  0  0
  8  9  2  0  0  0
  9 10  1  0  0  0
 16 17  1  0  0  0
 17 18  1  0  0  0
 18 13  1  0  0  0
 10  1  2  0  0  0
 29 24  2  0  0  0
 10  5  1  0  0  0
 11 12  1  0  0  0
 22 23  1  0  0  0
 31 34  1  0  0  0
 31 35  1  0  0  0
M  END
> <minimizedAffinity>
-10.81017

$$$$



 35 38  0  0  0  0  0  0  0  0999 V2000
    0.2775   65.0309   81.9927 C   0  0  0  0  0  0  0  0  0  0  0  0
   -0.1430   64.1919   82.9523 N   0  0  0  0  0  0  0  0  0  0  0  0
   -0.4088   62.9272   82.6012 C   0  0  0  0  0  0  0  0  0  0  0  0
   -0.2667   62.4593   81.3564 N   0  0  0  0  0  0  0  0  0  0  0  0
    0.1063   63.3109   80.3965 C   0  0  0  0  0  0  0  0  0  0  0  0
    0.2034   62.8469   79.0892 C   0  0  0  0  0  0  0  0  0  0  0  0
    0.5636   63.6860   78.0305 C   0  0  0  0  0  0  0  0  0  0  0  0
    0.8275   65.0266   78.2736 C   0  0  0  0  0  0  0  0  0  0  0  0
    0.7390   65.5120   79.5755 C   0  0  0  0  0  0  0  0  0  0  0  0
    0.3943   64.6525   80.6501 C   0  0  0  0  0  0  0  0  0  0  0  0
    0.5870   66.3239   82.4496 N   0  0  0  0  0  0  0  0  0  0  0  0
   -0.0122   66.4398   83.2690 H   0  0  0  0  0  0  0  0  0  0  0  0
    3.9529   67.5665   84.7989 N   0  0  0  0  0  0  0  0  0  0  0  0
    3.6882   66.1192   84.6916 C   0  0  0  0  0  0  0  0  0  0  0  0
    2.2684   65.8180   84.2113 C   0  0  0  0  0  0  0  0  0  0  0  0
    1.9938   66.4915   82.8676 C   0  0  0  0  0  0  0  0  0  0  0  0
    2.2793   67.9855   82.9945 C   0  0  0  0  0  0  0  0  0  0  0  0
    3.6977   68.2310   83.5064 C   0  0  0  0  0  0  0  0  0  0  0  0
    6.4062   67.0849   84.5077 C   0  0  0  0  0  0  0  0  0  0  0  0
    5.3280   67.8433   85.3025 C   0  0  0  0  0  0  0  0  0  0  0  0
    5.4985   67.4564   86.7824 C   0  0  0  0  0  0  0  0  0  0  0  0
   -0.8274   62.1073   83.6471 N   0  0  0  0  0  0  0  0  0  0  0  0
   -0.7100   61.1437   83.3675 H   0  0  0  0  0  0  0  0  0  0  0  0
   -1.1989   62.3430   84.9746 C   0  0  0  0  0  0  0  0  0  0  0  0
   -2.5663   62.4847   85.2723 C   0  0  0  0  0  0  0  0  0  0  0  0
   -3.0125   62.7580   86.5701 C   0  0  0  0  0  0  0  0  0  0  0  0
   -2.0930   62.9121   87.6013 C   0  0  0  0  0  0  0  0  0  0  0  0
   -0.7334   62.7926   87.3172 C   0  0  0  0  0  0  0  0  0  0  0  0
   -0.2870   62.5034   86.0208 C   0  0  0  0  0  0  0  0  0  0  0  0
    0.4604   63.0083   88.6078 S   0  0  0  0  0  0  0  0  0  0  0  0
   -0.3331   64.1000   89.6182 N   0  0  0  0  0  0  0  0  0  0  0  0
    1.5976   63.7192   88.0716 O   0  0  0  0  0  0  0  0  0  0  0  0
    0.5926   61.7653   89.3305 O   0  0  0  0  0  0  0  0  0  0  0  0
   -1.3098   64.2403   89.3612 H   0  0  0  0  0  0  0  0  0  0  0  0
    0.1873   64.9789   89.6195 H   0  0  0  0  0  0  0  0  0  0  0  0
 19 20  1  0  0  0
 20 21  1  0  0  0
 20 13  1  0  0  0
 13 14  1  0  0  0
 14 15  1  0  0  0
 15 16  1  0  0  0
 16 11  1  0  0  0
 11  1  1  0  0  0
  1  2  1  0  0  0
  2  3  2  0  0  0
  3 22  1  0  0  0
 22 24  1  0  0  0
 24 25  1  0  0  0
 25 26  2  0  0  0
 26 27  1  0  0  0
 27 28  2  0  0  0
 28 30  1  0  0  0
 30 31  1  0  0  0
 30 32  2  0  0  0
 30 33  2  0  0  0
 28 29  1  0  0  0
  3  4  1  0  0  0
  4  5  2  0  0  0
  5  6  1  0  0  0
  6  7  2  0  0  0
  7  8  1  0  0  0
  8  9  2  0  0  0
  9 10  1  0  0  0
 16 17  1  0  0  0
 17 18  1  0  0  0
 18 13  1  0  0  0
 10  1  2  0  0  0
 29 24  2  0  0  0
 10  5  1  0  0  0
 11 12  1  0  0  0
 22 23  1  0  0  0
 31 34  1  0  0  0
 31 35  1  0  0  0
M  END
> <minimizedAffinity>
-10.76426

$$$$



 35 38  0  0  0  0  0  0  0  0999 V2000
   -0.2418   63.1748   83.9619 C   0  0  0  0  0  0  0  0  0  0  0  0
   -0.7935   62.5166   82.9304 N   0  0  0  0  0  0  0  0  0  0  0  0
   -1.9362   61.8549   83.1532 C   0  0  0  0  0  0  0  0  0  0  0  0
   -2.5559   61.8266   84.3381 N   0  0  0  0  0  0  0  0  0  0  0  0
   -1.9773   62.4439   85.3724 C   0  0  0  0  0  0  0  0  0  0  0  0
   -2.5856   62.3736   86.6209 C   0  0  0  0  0  0  0  0  0  0  0  0
   -2.0252   62.9737   87.7525 C   0  0  0  0  0  0  0  0  0  0  0  0
   -0.8219   63.6569   87.6450 C   0  0  0  0  0  0  0  0  0  0  0  0
   -0.1968   63.7421   86.4039 C   0  0  0  0  0  0  0  0  0  0  0  0
   -0.7797   63.1502   85.2539 C   0  0  0  0  0  0  0  0  0  0  0  0
    0.9250   63.8879   83.6356 N   0  0  0  0  0  0  0  0  0  0  0  0
    1.3102   63.3704   82.8433 H   0  0  0  0  0  0  0  0  0  0  0  0
    1.5652   67.6737   81.7250 N   0  0  0  0  0  0  0  0  0  0  0  0
    0.4243   66.8584   81.2668 C   0  0  0  0  0  0  0  0  0  0  0  0
    0.5413   65.3954   81.6948 C   0  0  0  0  0  0  0  0  0  0  0  0
    0.6776   65.2813   83.2123 C   0  0  0  0  0  0  0  0  0  0  0  0
    1.8568   66.1356   83.6696 C   0  0  0  0  0  0  0  0  0  0  0  0
    1.7066   67.5786   83.1907 C   0  0  0  0  0  0  0  0  0  0  0  0
    1.7031   70.0918   82.4100 C   0  0  0  0  0  0  0  0  0  0  0  0
    1.4547   69.0884   81.2695 C   0  0  0  0  0  0  0  0  0  0  0  0
    0.0697   69.4066   80.6784 C   0  0  0  0  0  0  0  0  0  0  0  0
   -2.4613   61.2056   82.0378 N   0  0  0  0  0  0  0  0  0  0  0  0
   -2.9673   60.3889   82.3494 H   0  0  0  0  0  0  0  0  0  0  0  0
   -2.5544   61.5315   80.6810 C   0  0  0  0  0  0  0  0  0  0  0  0
   -3.8263   61.5408   80.0803 C   0  0  0  0  0  0  0  0  0  0  0  0
   -3.9957   61.8214   78.7199 C   0  0  0  0  0  0  0  0  0  0  0  0
   -2.8873   62.0846   77.9231 C   0  0  0  0  0  0  0  0  0  0  0  0
   -1.6189   62.0605   78.5012 C   0  0  0  0  0  0  0  0  0  0  0  0
   -1.4502   61.7951   79.8667 C   0  0  0  0  0  0  0  0  0  0  0  0
   -0.1881   62.3684   77.5036 S   0  0  0  0  0  0  0  0  0  0  0  0
    1.0422   62.3033   78.6545 N   0  0  0  0  0  0  0  0  0  0  0  0
   -0.2298   63.7376   77.0454 O   0  0  0  0  0  0  0  0  0  0  0  0
   -0.0005   61.2545   76.6043 O   0  0  0  0  0  0  0  0  0  0  0  0
    0.7215   61.9584   79.5588 H   0  0  0  0  0  0  0  0  0  0  0  0
    1.4645   63.2301   78.7316 H   0  0  0  0  0  0  0  0  0  0  0  0
 19 20  1  0  0  0
 20 21  1  0  0  0
 20 13  1  0  0  0
 13 14  1  0  0  0
 14 15  1  0  0  0
 15 16  1  0  0  0
 16 11  1  0  0  0
 11  1  1  0  0  0
  1  2  1  0  0  0
  2  3  2  0  0  0
  3 22  1  0  0  0
 22 24  1  0  0  0
 24 25  1  0  0  0
 25 26  2  0  0  0
 26 27  1  0  0  0
 27 28  2  0  0  0
 28 30  1  0  0  0
 30 31  1  0  0  0
 30 32  2  0  0  0
 30 33  2  0  0  0
 28 29  1  0  0  0
  3  4  1  0  0  0
  4  5  2  0  0  0
  5  6  1  0  0  0
  6  7  2  0  0  0
  7  8  1  0  0  0
  8  9  2  0  0  0
  9 10  1  0  0  0
 16 17  1  0  0  0
 17 18  1  0  0  0
 18 13  1  0  0  0
 10  1  2  0  0  0
 29 24  2  0  0  0
 10  5  1  0  0  0
 11 12  1  0  0  0
 22 23  1  0  0  0
 31 34  1  0  0  0
 31 35  1  0  0  0
M  END
> <minimizedAffinity>
-10.73431

$$$$



 35 38  0  0  0  0  0  0  0  0999 V2000
    1.1109   65.3761   84.3104 C   0  0  0  0  0  0  0  0  0  0  0  0
    1.0239   65.3149   82.9724 N   0  0  0  0  0  0  0  0  0  0  0  0
    0.1867   64.4135   82.4433 C   0  0  0  0  0  0  0  0  0  0  0  0
   -0.5688   63.5867   83.1743 N   0  0  0  0  0  0  0  0  0  0  0  0
   -0.4425   63.6197   84.5042 C   0  0  0  0  0  0  0  0  0  0  0  0
   -1.1828   62.7260   85.2703 C   0  0  0  0  0  0  0  0  0  0  0  0
   -1.0832   62.6864   86.6643 C   0  0  0  0  0  0  0  0  0  0  0  0
   -0.2181   63.5528   87.3177 C   0  0  0  0  0  0  0  0  0  0  0  0
    0.5308   64.4579   86.5704 C   0  0  0  0  0  0  0  0  0  0  0  0
    0.4107   64.5096   85.1578 C   0  0  0  0  0  0  0  0  0  0  0  0
    1.9685   66.3821   84.7889 N   0  0  0  0  0  0  0  0  0  0  0  0
    1.7868   66.3956   85.7943 H   0  0  0  0  0  0  0  0  0  0  0  0
    6.2033   66.3851   85.4664 N   0  0  0  0  0  0  0  0  0  0  0  0
    5.4989   65.0906   85.5334 C   0  0  0  0  0  0  0  0  0  0  0  0
    3.9884   65.2545   85.7028 C   0  0  0  0  0  0  0  0  0  0  0  0
    3.4024   66.1003   84.5734 C   0  0  0  0  0  0  0  0  0  0  0  0
    4.1466   67.4316   84.5137 C   0  0  0  0  0  0  0  0  0  0  0  0
    5.6523   67.2121   84.3756 C   0  0  0  0  0  0  0  0  0  0  0  0
    8.3805   67.4898   84.8540 C   0  0  0  0  0  0  0  0  0  0  0  0
    7.6775   66.2087   85.3377 C   0  0  0  0  0  0  0  0  0  0  0  0
    8.0490   65.0870   84.3514 C   0  0  0  0  0  0  0  0  0  0  0  0
    0.1349   64.4125   81.0509 N   0  0  0  0  0  0  0  0  0  0  0  0
    0.5926   65.2463   80.7111 H   0  0  0  0  0  0  0  0  0  0  0  0
   -0.2562   63.4684   80.0961 C   0  0  0  0  0  0  0  0  0  0  0  0
    0.6250   63.1816   79.0379 C   0  0  0  0  0  0  0  0  0  0  0  0
    0.2891   62.2762   78.0252 C   0  0  0  0  0  0  0  0  0  0  0  0
   -0.9502   61.6465   78.0413 C   0  0  0  0  0  0  0  0  0  0  0  0
   -1.8410   61.9352   79.0742 C   0  0  0  0  0  0  0  0  0  0  0  0
   -1.4988   62.8299   80.0969 C   0  0  0  0  0  0  0  0  0  0  0  0
   -3.4358   61.1653   79.1055 S   0  0  0  0  0  0  0  0  0  0  0  0
   -4.1974   61.9207   77.8049 N   0  0  0  0  0  0  0  0  0  0  0  0
   -4.1392   61.6066   80.2873 O   0  0  0  0  0  0  0  0  0  0  0  0
   -3.2843   59.7695   78.7686 O   0  0  0  0  0  0  0  0  0  0  0  0
   -3.5572   62.4772   77.2392 H   0  0  0  0  0  0  0  0  0  0  0  0
   -4.9713   62.4828   78.1633 H   0  0  0  0  0  0  0  0  0  0  0  0
 19 20  1  0  0  0
 20 21  1  0  0  0
 20 13  1  0  0  0
 13 14  1  0  0  0
 14 15  1  0  0  0
 15 16  1  0  0  0
 16 11  1  0  0  0
 11  1  1  0  0  0
  1  2  1  0  0  0
  2  3  2  0  0  0
  3 22  1  0  0  0
 22 24  1  0  0  0
 24 25  1  0  0  0
 25 26  2  0  0  0
 26 27  1  0  0  0
 27 28  2  0  0  0
 28 30  1  0  0  0
 30 31  1  0  0  0
 30 32  2  0  0  0
 30 33  2  0  0  0
 28 29  1  0  0  0
  3  4  1  0  0  0
  4  5  2  0  0  0
  5  6  1  0  0  0
  6  7  2  0  0  0
  7  8  1  0  0  0
  8  9  2  0  0  0
  9 10  1  0  0  0
 16 17  1  0  0  0
 17 18  1  0  0  0
 18 13  1  0  0  0
 10  1  2  0  0  0
 29 24  2  0  0  0
 10  5  1  0  0  0
 11 12  1  0  0  0
 22 23  1  0  0  0
 31 34  1  0  0  0
 31 35  1  0  0  0
M  END
> <minimizedAffinity>
-10.68031

$$$$



 35 38  0  0  0  0  0  0  0  0999 V2000
    0.1407   64.2780   84.4336 C   0  0  0  0  0  0  0  0  0  0  0  0
    0.0474   63.6196   83.2677 N   0  0  0  0  0  0  0  0  0  0  0  0
   -0.3990   62.3574   83.2992 C   0  0  0  0  0  0  0  0  0  0  0  0
   -0.7641   61.7294   84.4222 N   0  0  0  0  0  0  0  0  0  0  0  0
   -0.6239   62.3737   85.5846 C   0  0  0  0  0  0  0  0  0  0  0  0
   -0.9486   61.7098   86.7625 C   0  0  0  0  0  0  0  0  0  0  0  0
   -0.8038   62.3121   88.0159 C   0  0  0  0  0  0  0  0  0  0  0  0
   -0.3151   63.6080   88.1048 C   0  0  0  0  0  0  0  0  0  0  0  0
    0.0138   64.2924   86.9378 C   0  0  0  0  0  0  0  0  0  0  0  0
   -0.1550   63.6854   85.6668 C   0  0  0  0  0  0  0  0  0  0  0  0
    0.5649   65.6128   84.3119 N   0  0  0  0  0  0  0  0  0  0  0  0
    0.3400   66.0211   85.2211 H   0  0  0  0  0  0  0  0  0  0  0  0
    4.5804   67.0436   84.7820 N   0  0  0  0  0  0  0  0  0  0  0  0
    4.3200   65.6217   85.0767 C   0  0  0  0  0  0  0  0  0  0  0  0
    2.8343   65.3310   85.2900 C   0  0  0  0  0  0  0  0  0  0  0  0
    2.0151   65.7620   84.0744 C   0  0  0  0  0  0  0  0  0  0  0  0
    2.3018   67.2318   83.7795 C   0  0  0  0  0  0  0  0  0  0  0  0
    3.8002   67.4740   83.6058 C   0  0  0  0  0  0  0  0  0  0  0  0
    6.8458   66.0359   84.3483 C   0  0  0  0  0  0  0  0  0  0  0  0
    6.0355   67.3177   84.6125 C   0  0  0  0  0  0  0  0  0  0  0  0
    6.6510   67.9973   85.8486 C   0  0  0  0  0  0  0  0  0  0  0  0
   -0.4841   61.7376   82.0543 N   0  0  0  0  0  0  0  0  0  0  0  0
    0.3611   61.2062   81.9008 H   0  0  0  0  0  0  0  0  0  0  0  0
   -1.5084   61.5877   81.1140 C   0  0  0  0  0  0  0  0  0  0  0  0
   -2.7865   62.0817   81.4317 C   0  0  0  0  0  0  0  0  0  0  0  0
   -3.8698   61.9367   80.5578 C   0  0  0  0  0  0  0  0  0  0  0  0
   -3.6998   61.2759   79.3466 C   0  0  0  0  0  0  0  0  0  0  0  0
   -2.4427   60.7648   79.0268 C   0  0  0  0  0  0  0  0  0  0  0  0
   -1.3541   60.9235   79.8947 C   0  0  0  0  0  0  0  0  0  0  0  0
   -2.2045   59.8974   77.5010 S   0  0  0  0  0  0  0  0  0  0  0  0
   -3.7958   59.6788   76.9887 N   0  0  0  0  0  0  0  0  0  0  0  0
   -1.6977   58.5770   77.7940 O   0  0  0  0  0  0  0  0  0  0  0  0
   -1.5630   60.7834   76.5585 O   0  0  0  0  0  0  0  0  0  0  0  0
   -4.4677   60.2059   77.5458 H   0  0  0  0  0  0  0  0  0  0  0  0
   -4.0039   58.6789   76.9921 H   0  0  0  0  0  0  0  0  0  0  0  0
 19 20  1  0  0  0
 20 21  1  0  0  0
 20 13  1  0  0  0
 13 14  1  0  0  0
 14 15  1  0  0  0
 15 16  1  0  0  0
 16 11  1  0  0  0
 11  1  1  0  0  0
  1  2  1  0  0  0
  2  3  2  0  0  0
  3 22  1  0  0  0
 22 24  1  0  0  0
 24 25  1  0  0  0
 25 26  2  0  0  0
 26 27  1  0  0  0
 27 28  2  0  0  0
 28 30  1  0  0  0
 30 31  1  0  0  0
 30 32  2  0  0  0
 30 33  2  0  0  0
 28 29  1  0  0  0
  3  4  1  0  0  0
  4  5  2  0  0  0
  5  6  1  0  0  0
  6  7  2  0  0  0
  7  8  1  0  0  0
  8  9  2  0  0  0
  9 10  1  0  0  0
 16 17  1  0  0  0
 17 18  1  0  0  0
 18 13  1  0  0  0
 10  1  2  0  0  0
 29 24  2  0  0  0
 10  5  1  0  0  0
 11 12  1  0  0  0
 22 23  1  0  0  0
 31 34  1  0  0  0
 31 35  1  0  0  0
M  END
> <minimizedAffinity>
-10.67803

$$$$



 35 38  0  0  0  0  0  0  0  0999 V2000
    0.5826   63.6914   84.2702 C   0  0  0  0  0  0  0  0  0  0  0  0
    0.3595   62.9205   83.1943 N   0  0  0  0  0  0  0  0  0  0  0  0
   -0.6343   62.0256   83.2646 C   0  0  0  0  0  0  0  0  0  0  0  0
   -1.4159   61.8706   84.3388 N   0  0  0  0  0  0  0  0  0  0  0  0
   -1.1584   62.6075   85.4234 C   0  0  0  0  0  0  0  0  0  0  0  0
   -1.9302   62.4145   86.5638 C   0  0  0  0  0  0  0  0  0  0  0  0
   -1.7022   63.1314   87.7423 C   0  0  0  0  0  0  0  0  0  0  0  0
   -0.6734   64.0614   87.7944 C   0  0  0  0  0  0  0  0  0  0  0  0
    0.1102   64.2727   86.6631 C   0  0  0  0  0  0  0  0  0  0  0  0
   -0.1383   63.5588   85.4627 C   0  0  0  0  0  0  0  0  0  0  0  0
    1.6051   64.6410   84.0994 N   0  0  0  0  0  0  0  0  0  0  0  0
    2.2762   64.1662   83.4927 H   0  0  0  0  0  0  0  0  0  0  0  0
    1.7665   68.1399   81.6247 N   0  0  0  0  0  0  0  0  0  0  0  0
    0.8290   67.0686   81.2376 C   0  0  0  0  0  0  0  0  0  0  0  0
    1.1531   65.7355   81.9121 C   0  0  0  0  0  0  0  0  0  0  0  0
    1.1645   65.8833   83.4328 C   0  0  0  0  0  0  0  0  0  0  0  0
    2.1329   66.9994   83.8150 C   0  0  0  0  0  0  0  0  0  0  0  0
    1.7845   68.2992   83.0916 C   0  0  0  0  0  0  0  0  0  0  0  0
    0.0382   69.4442   80.3411 C   0  0  0  0  0  0  0  0  0  0  0  0
    1.4595   69.4231   80.9317 C   0  0  0  0  0  0  0  0  0  0  0  0
    2.4353   69.7128   79.7772 C   0  0  0  0  0  0  0  0  0  0  0  0
   -0.8203   61.2686   82.1098 N   0  0  0  0  0  0  0  0  0  0  0  0
   -0.1586   60.5054   82.1151 H   0  0  0  0  0  0  0  0  0  0  0  0
   -1.7849   61.2662   81.0971 C   0  0  0  0  0  0  0  0  0  0  0  0
   -3.0473   61.8216   81.3734 C   0  0  0  0  0  0  0  0  0  0  0  0
   -4.0747   61.8229   80.4235 C   0  0  0  0  0  0  0  0  0  0  0  0
   -3.8645   61.2504   79.1742 C   0  0  0  0  0  0  0  0  0  0  0  0
   -2.6240   60.6797   78.8930 C   0  0  0  0  0  0  0  0  0  0  0  0
   -1.5899   60.6922   79.8385 C   0  0  0  0  0  0  0  0  0  0  0  0
   -2.3376   59.9222   77.3177 S   0  0  0  0  0  0  0  0  0  0  0  0
   -3.9113   59.5744   76.8229 N   0  0  0  0  0  0  0  0  0  0  0  0
   -1.6972   58.6448   77.5286 O   0  0  0  0  0  0  0  0  0  0  0  0
   -1.8081   60.9159   76.4140 O   0  0  0  0  0  0  0  0  0  0  0  0
   -4.6184   60.0021   77.4201 H   0  0  0  0  0  0  0  0  0  0  0  0
   -4.0203   58.5599   76.7750 H   0  0  0  0  0  0  0  0  0  0  0  0
 19 20  1  0  0  0
 20 21  1  0  0  0
 20 13  1  0  0  0
 13 14  1  0  0  0
 14 15  1  0  0  0
 15 16  1  0  0  0
 16 11  1  0  0  0
 11  1  1  0  0  0
  1  2  1  0  0  0
  2  3  2  0  0  0
  3 22  1  0  0  0
 22 24  1  0  0  0
 24 25  1  0  0  0
 25 26  2  0  0  0
 26 27  1  0  0  0
 27 28  2  0  0  0
 28 30  1  0  0  0
 30 31  1  0  0  0
 30 32  2  0  0  0
 30 33  2  0  0  0
 28 29  1  0  0  0
  3  4  1  0  0  0
  4  5  2  0  0  0
  5  6  1  0  0  0
  6  7  2  0  0  0
  7  8  1  0  0  0
  8  9  2  0  0  0
  9 10  1  0  0  0
 16 17  1  0  0  0
 17 18  1  0  0  0
 18 13  1  0  0  0
 10  1  2  0  0  0
 29 24  2  0  0  0
 10  5  1  0  0  0
 11 12  1  0  0  0
 22 23  1  0  0  0
 31 34  1  0  0  0
 31 35  1  0  0  0
M  END
> <minimizedAffinity>
-10.59539

$$$$



 35 38  0  0  0  0  0  0  0  0999 V2000
   -1.4516   63.0193   83.9167 C   0  0  0  0  0  0  0  0  0  0  0  0
   -0.5365   63.7362   83.2457 N   0  0  0  0  0  0  0  0  0  0  0  0
    0.3745   64.4088   83.9606 C   0  0  0  0  0  0  0  0  0  0  0  0
    0.4251   64.3930   85.2970 N   0  0  0  0  0  0  0  0  0  0  0  0
   -0.5170   63.7163   85.9604 C   0  0  0  0  0  0  0  0  0  0  0  0
   -0.5055   63.7393   87.3507 C   0  0  0  0  0  0  0  0  0  0  0  0
   -1.4736   63.0754   88.1103 C   0  0  0  0  0  0  0  0  0  0  0  0
   -2.4878   62.3748   87.4727 C   0  0  0  0  0  0  0  0  0  0  0  0
   -2.5171   62.3362   86.0813 C   0  0  0  0  0  0  0  0  0  0  0  0
   -1.5205   62.9931   85.3145 C   0  0  0  0  0  0  0  0  0  0  0  0
   -2.3379   62.2998   83.0964 N   0  0  0  0  0  0  0  0  0  0  0  0
   -3.2172   62.8129   83.1833 H   0  0  0  0  0  0  0  0  0  0  0  0
   -1.8746   60.8351   79.0923 N   0  0  0  0  0  0  0  0  0  0  0  0
   -2.7381   62.0138   79.2958 C   0  0  0  0  0  0  0  0  0  0  0  0
   -3.1660   62.1808   80.7540 C   0  0  0  0  0  0  0  0  0  0  0  0
   -1.9480   62.2717   81.6719 C   0  0  0  0  0  0  0  0  0  0  0  0
   -1.0629   61.0494   81.4434 C   0  0  0  0  0  0  0  0  0  0  0  0
   -0.6897   60.9109   79.9684 C   0  0  0  0  0  0  0  0  0  0  0  0
   -1.0194   59.2357   77.3470 C   0  0  0  0  0  0  0  0  0  0  0  0
   -1.4958   60.6653   77.6610 C   0  0  0  0  0  0  0  0  0  0  0  0
   -0.3683   61.6231   77.2362 C   0  0  0  0  0  0  0  0  0  0  0  0
    1.3018   65.1203   83.2022 N   0  0  0  0  0  0  0  0  0  0  0  0
    1.4192   64.6520   82.3150 H   0  0  0  0  0  0  0  0  0  0  0  0
    1.9341   66.3582   83.3558 C   0  0  0  0  0  0  0  0  0  0  0  0
    2.9898   66.4609   84.2796 C   0  0  0  0  0  0  0  0  0  0  0  0
    3.6466   67.6739   84.5148 C   0  0  0  0  0  0  0  0  0  0  0  0
    3.2478   68.8209   83.8380 C   0  0  0  0  0  0  0  0  0  0  0  0
    2.1905   68.7377   82.9330 C   0  0  0  0  0  0  0  0  0  0  0  0
    1.5429   67.5200   82.6857 C   0  0  0  0  0  0  0  0  0  0  0  0
    1.6465   70.1888   82.0754 S   0  0  0  0  0  0  0  0  0  0  0  0
    1.8835   71.3781   83.2467 N   0  0  0  0  0  0  0  0  0  0  0  0
    0.2178   70.1030   81.8814 O   0  0  0  0  0  0  0  0  0  0  0  0
    2.5620   70.4584   80.9918 O   0  0  0  0  0  0  0  0  0  0  0  0
    2.4053   71.0402   84.0549 H   0  0  0  0  0  0  0  0  0  0  0  0
    0.9733   71.7556   83.5153 H   0  0  0  0  0  0  0  0  0  0  0  0
 19 20  1  0  0  0
 20 21  1  0  0  0
 20 13  1  0  0  0
 13 14  1  0  0  0
 14 15  1  0  0  0
 15 16  1  0  0  0
 16 11  1  0  0  0
 11  1  1  0  0  0
  1  2  1  0  0  0
  2  3  2  0  0  0
  3 22  1  0  0  0
 22 24  1  0  0  0
 24 25  1  0  0  0
 25 26  2  0  0  0
 26 27  1  0  0  0
 27 28  2  0  0  0
 28 30  1  0  0  0
 30 31  1  0  0  0
 30 32  2  0  0  0
 30 33  2  0  0  0
 28 29  1  0  0  0
  3  4  1  0  0  0
  4  5  2  0  0  0
  5  6  1  0  0  0
  6  7  2  0  0  0
  7  8  1  0  0  0
  8  9  2  0  0  0
  9 10  1  0  0  0
 16 17  1  0  0  0
 17 18  1  0  0  0
 18 13  1  0  0  0
 10  1  2  0  0  0
 29 24  2  0  0  0
 10  5  1  0  0  0
 11 12  1  0  0  0
 22 23  1  0  0  0
 31 34  1  0  0  0
 31 35  1  0  0  0
M  END
> <minimizedAffinity>
-10.39547

$$$$
