


 33 36  0  0  0  0  0  0  0  0999 V2000
   -1.7858   60.8319   78.5820 C   0  0  0  0  0  0  0  0  0  0  0  0
   -2.5755   60.5118   79.6289 C   0  0  0  0  0  0  0  0  0  0  0  0
   -2.6785   61.3804   80.8299 C   0  0  0  0  0  0  0  0  0  0  0  0
   -3.3802   61.0036   81.7708 O   0  0  0  0  0  0  0  0  0  0  0  0
   -2.0089   62.5984   80.8290 N   0  0  0  0  0  0  0  0  0  0  0  0
   -1.0579   62.9472   79.7973 C   0  0  0  0  0  0  0  0  0  0  0  0
   -0.2681   64.1469   79.8097 C   0  0  0  0  0  0  0  0  0  0  0  0
    0.7427   64.3087   78.8457 C   0  0  0  0  0  0  0  0  0  0  0  0
    0.9566   63.3665   77.8558 C   0  0  0  0  0  0  0  0  0  0  0  0
    0.1477   62.2424   77.7990 C   0  0  0  0  0  0  0  0  0  0  0  0
   -0.8910   62.0245   78.7268 C   0  0  0  0  0  0  0  0  0  0  0  0
   -1.1177   58.6806   77.3996 C   0  0  0  0  0  0  0  0  0  0  0  0
   -1.7690   60.0578   77.2478 C   0  0  0  0  0  0  0  0  0  0  0  0
   -3.1189   59.9490   76.5190 C   0  0  0  0  0  0  0  0  0  0  0  0
   -3.3714   59.3280   79.6751 C   0  0  0  0  0  0  0  0  0  0  0  0
   -3.9892   58.3459   79.7366 N   0  0  0  0  0  0  0  0  0  0  0  0
   -0.3616   65.0896   80.8455 N   0  0  0  0  0  0  0  0  0  0  0  0
   -0.1443   64.6316   81.7324 H   0  0  0  0  0  0  0  0  0  0  0  0
    0.2886   66.4109   80.7538 C   0  0  0  0  0  0  0  0  0  0  0  0
   -0.7491   67.4874   80.4191 C   0  0  0  0  0  0  0  0  0  0  0  0
    1.0154   66.7128   82.0708 C   0  0  0  0  0  0  0  0  0  0  0  0
    0.8914   65.8164   83.1356 C   0  0  0  0  0  0  0  0  0  0  0  0
    1.5280   66.1009   84.3409 C   0  0  0  0  0  0  0  0  0  0  0  0
    2.2673   67.2702   84.4606 C   0  0  0  0  0  0  0  0  0  0  0  0
    2.3361   68.1132   83.3661 C   0  0  0  0  0  0  0  0  0  0  0  0
    1.7267   67.8652   82.1860 N   0  0  0  0  0  0  0  0  0  0  0  0
   -2.2871   63.4611   81.9823 C   0  0  0  0  0  0  0  0  0  0  0  0
   -1.7001   63.0066   83.3096 C   0  0  0  0  0  0  0  0  0  0  0  0
   -2.5330   62.9861   84.4410 C   0  0  0  0  0  0  0  0  0  0  0  0
   -2.0485   62.5708   85.6822 C   0  0  0  0  0  0  0  0  0  0  0  0
   -0.7272   62.1522   85.8082 C   0  0  0  0  0  0  0  0  0  0  0  0
    0.1061   62.1435   84.6921 C   0  0  0  0  0  0  0  0  0  0  0  0
   -0.3779   62.5618   83.4500 C   0  0  0  0  0  0  0  0  0  0  0  0
 12 13  1  0  0  0
 13 14  1  0  0  0
 13  1  1  0  0  0
  1  2  2  0  0  0
  2 15  1  0  0  0
 15 16  3  0  0  0
  2  3  1  0  0  0
  3  4  2  0  0  0
  3  5  1  0  0  0
  5 27  1  0  0  0
 27 28  1  0  0  0
 28 29  2  0  0  0
 29 30  1  0  0  0
 30 31  2  0  0  0
 31 32  1  0  0  0
 32 33  2  0  0  0
  5  6  1  0  0  0
  6  7  1  0  0  0
  7 17  1  0  0  0
 17 19  1  0  0  0
 19 20  1  0  0  0
 19 21  1  0  0  0
 21 22  2  0  0  0
 22 23  1  0  0  0
 23 24  2  0  0  0
 24 25  1  0  0  0
 25 26  2  0  0  0
  7  8  2  0  0  0
  8  9  1  0  0  0
  9 10  2  0  0  0
 10 11  1  0  0  0
 11  1  1  0  0  0
 33 28  1  0  0  0
 11  6  2  0  0  0
 26 21  1  0  0  0
 17 18  1  0  0  0
M  END
> <minimizedAffinity>
-10.00671

$$$$



 33 36  0  0  0  0  0  0  0  0999 V2000
    1.5078   68.6600   81.6235 C   0  0  0  0  0  0  0  0  0  0  0  0
    2.1669   69.0664   82.7292 C   0  0  0  0  0  0  0  0  0  0  0  0
    2.4074   68.1569   83.8792 C   0  0  0  0  0  0  0  0  0  0  0  0
    2.9726   68.6072   84.8780 O   0  0  0  0  0  0  0  0  0  0  0  0
    2.0181   66.8273   83.7682 N   0  0  0  0  0  0  0  0  0  0  0  0
    1.2073   66.3575   82.6671 C   0  0  0  0  0  0  0  0  0  0  0  0
    0.6962   65.0191   82.5639 C   0  0  0  0  0  0  0  0  0  0  0  0
   -0.2161   64.7140   81.5384 C   0  0  0  0  0  0  0  0  0  0  0  0
   -0.5892   65.6565   80.5972 C   0  0  0  0  0  0  0  0  0  0  0  0
   -0.0414   66.9285   80.6526 C   0  0  0  0  0  0  0  0  0  0  0  0
    0.8875   67.2968   81.6470 C   0  0  0  0  0  0  0  0  0  0  0  0
    0.4419   70.7006   80.5406 C   0  0  0  0  0  0  0  0  0  0  0  0
    1.3773   69.5052   80.3397 C   0  0  0  0  0  0  0  0  0  0  0  0
    2.6997   69.9465   79.6903 C   0  0  0  0  0  0  0  0  0  0  0  0
    2.6851   70.3865   82.8902 C   0  0  0  0  0  0  0  0  0  0  0  0
    3.0759   71.4755   82.9958 N   0  0  0  0  0  0  0  0  0  0  0  0
    0.9501   64.0471   83.5443 N   0  0  0  0  0  0  0  0  0  0  0  0
    1.2754   64.5100   84.3949 H   0  0  0  0  0  0  0  0  0  0  0  0
   -0.0249   62.9842   83.8547 C   0  0  0  0  0  0  0  0  0  0  0  0
    0.4849   61.6340   83.3400 C   0  0  0  0  0  0  0  0  0  0  0  0
   -0.2819   62.9551   85.3669 C   0  0  0  0  0  0  0  0  0  0  0  0
    0.1498   64.0292   86.1496 C   0  0  0  0  0  0  0  0  0  0  0  0
   -0.0580   63.9936   87.5260 C   0  0  0  0  0  0  0  0  0  0  0  0
   -0.6842   62.8909   88.0915 C   0  0  0  0  0  0  0  0  0  0  0  0
   -1.0748   61.8619   87.2535 C   0  0  0  0  0  0  0  0  0  0  0  0
   -0.8836   61.8672   85.9160 N   0  0  0  0  0  0  0  0  0  0  0  0
    2.4301   65.9643   84.8806 C   0  0  0  0  0  0  0  0  0  0  0  0
    3.9270   65.8748   85.1337 C   0  0  0  0  0  0  0  0  0  0  0  0
    4.3730   65.2710   86.3214 C   0  0  0  0  0  0  0  0  0  0  0  0
    5.7355   65.1555   86.6009 C   0  0  0  0  0  0  0  0  0  0  0  0
    6.6748   65.6264   85.6883 C   0  0  0  0  0  0  0  0  0  0  0  0
    6.2510   66.2064   84.4949 C   0  0  0  0  0  0  0  0  0  0  0  0
    4.8870   66.3246   84.2161 C   0  0  0  0  0  0  0  0  0  0  0  0
 12 13  1  0  0  0
 13 14  1  0  0  0
 13  1  1  0  0  0
  1  2  2  0  0  0
  2 15  1  0  0  0
 15 16  3  0  0  0
  2  3  1  0  0  0
  3  4  2  0  0  0
  3  5  1  0  0  0
  5 27  1  0  0  0
 27 28  1  0  0  0
 28 29  2  0  0  0
 29 30  1  0  0  0
 30 31  2  0  0  0
 31 32  1  0  0  0
 32 33  2  0  0  0
  5  6  1  0  0  0
  6  7  1  0  0  0
  7 17  1  0  0  0
 17 19  1  0  0  0
 19 20  1  0  0  0
 19 21  1  0  0  0
 21 22  2  0  0  0
 22 23  1  0  0  0
 23 24  2  0  0  0
 24 25  1  0  0  0
 25 26  2  0  0  0
  7  8  2  0  0  0
  8  9  1  0  0  0
  9 10  2  0  0  0
 10 11  1  0  0  0
 11  1  1  0  0  0
 33 28  1  0  0  0
 11  6  2  0  0  0
 26 21  1  0  0  0
 17 18  1  0  0  0
M  END
> <minimizedAffinity>
-9.53337

$$$$



 33 36  0  0  0  0  0  0  0  0999 V2000
   -0.5202   63.3928   82.7772 C   0  0  0  0  0  0  0  0  0  0  0  0
   -0.2426   63.7465   84.0500 C   0  0  0  0  0  0  0  0  0  0  0  0
    0.5340   64.9712   84.3735 C   0  0  0  0  0  0  0  0  0  0  0  0
    0.7942   65.2086   85.5548 O   0  0  0  0  0  0  0  0  0  0  0  0
    0.9041   65.8176   83.3350 N   0  0  0  0  0  0  0  0  0  0  0  0
    0.7429   65.4417   81.9481 C   0  0  0  0  0  0  0  0  0  0  0  0
    1.2037   66.2376   80.8448 C   0  0  0  0  0  0  0  0  0  0  0  0
    1.1439   65.7032   79.5457 C   0  0  0  0  0  0  0  0  0  0  0  0
    0.6028   64.4538   79.3009 C   0  0  0  0  0  0  0  0  0  0  0  0
    0.0917   63.7143   80.3559 C   0  0  0  0  0  0  0  0  0  0  0  0
    0.1094   64.1958   81.6806 C   0  0  0  0  0  0  0  0  0  0  0  0
   -2.6723   62.7223   81.5975 C   0  0  0  0  0  0  0  0  0  0  0  0
   -1.4591   62.2311   82.3918 C   0  0  0  0  0  0  0  0  0  0  0  0
   -0.7927   61.0348   81.6917 C   0  0  0  0  0  0  0  0  0  0  0  0
   -0.6646   62.9876   85.1826 C   0  0  0  0  0  0  0  0  0  0  0  0
   -1.0202   62.3385   86.0782 N   0  0  0  0  0  0  0  0  0  0  0  0
    1.8588   67.4646   81.0337 N   0  0  0  0  0  0  0  0  0  0  0  0
    2.8630   67.3288   80.9039 H   0  0  0  0  0  0  0  0  0  0  0  0
    1.3977   68.7008   80.3731 C   0  0  0  0  0  0  0  0  0  0  0  0
   -0.1311   68.7882   80.4256 C   0  0  0  0  0  0  0  0  0  0  0  0
    2.0591   69.9125   81.0425 C   0  0  0  0  0  0  0  0  0  0  0  0
    1.4839   70.4477   82.1980 C   0  0  0  0  0  0  0  0  0  0  0  0
    2.0665   71.5639   82.7927 C   0  0  0  0  0  0  0  0  0  0  0  0
    3.2022   72.1238   82.2227 C   0  0  0  0  0  0  0  0  0  0  0  0
    3.7084   71.5441   81.0733 C   0  0  0  0  0  0  0  0  0  0  0  0
    3.1630   70.4638   80.4725 N   0  0  0  0  0  0  0  0  0  0  0  0
    1.5294   67.0770   83.7527 C   0  0  0  0  0  0  0  0  0  0  0  0
    3.0137   67.0072   84.0765 C   0  0  0  0  0  0  0  0  0  0  0  0
    3.7955   68.1611   83.8987 C   0  0  0  0  0  0  0  0  0  0  0  0
    5.1609   68.1552   84.1874 C   0  0  0  0  0  0  0  0  0  0  0  0
    5.7634   66.9996   84.6758 C   0  0  0  0  0  0  0  0  0  0  0  0
    4.9989   65.8534   84.8807 C   0  0  0  0  0  0  0  0  0  0  0  0
    3.6325   65.8582   84.5891 C   0  0  0  0  0  0  0  0  0  0  0  0
 12 13  1  0  0  0
 13 14  1  0  0  0
 13  1  1  0  0  0
  1  2  2  0  0  0
  2 15  1  0  0  0
 15 16  3  0  0  0
  2  3  1  0  0  0
  3  4  2  0  0  0
  3  5  1  0  0  0
  5 27  1  0  0  0
 27 28  1  0  0  0
 28 29  2  0  0  0
 29 30  1  0  0  0
 30 31  2  0  0  0
 31 32  1  0  0  0
 32 33  2  0  0  0
  5  6  1  0  0  0
  6  7  1  0  0  0
  7 17  1  0  0  0
 17 19  1  0  0  0
 19 20  1  0  0  0
 19 21  1  0  0  0
 21 22  2  0  0  0
 22 23  1  0  0  0
 23 24  2  0  0  0
 24 25  1  0  0  0
 25 26  2  0  0  0
  7  8  2  0  0  0
  8  9  1  0  0  0
  9 10  2  0  0  0
 10 11  1  0  0  0
 11  1  1  0  0  0
 33 28  1  0  0  0
 11  6  2  0  0  0
 26 21  1  0  0  0
 17 18  1  0  0  0
M  END
> <minimizedAffinity>
-9.07662

$$$$



 33 36  0  0  0  0  0  0  0  0999 V2000
    2.2140   68.0169   82.8030 C   0  0  0  0  0  0  0  0  0  0  0  0
    2.6721   67.3246   83.8674 C   0  0  0  0  0  0  0  0  0  0  0  0
    2.2309   65.9341   84.1493 C   0  0  0  0  0  0  0  0  0  0  0  0
    2.6509   65.3777   85.1660 O   0  0  0  0  0  0  0  0  0  0  0  0
    1.3917   65.3050   83.2374 N   0  0  0  0  0  0  0  0  0  0  0  0
    0.7735   66.0235   82.1455 C   0  0  0  0  0  0  0  0  0  0  0  0
   -0.1786   65.4406   81.2416 C   0  0  0  0  0  0  0  0  0  0  0  0
   -0.8408   66.2702   80.3195 C   0  0  0  0  0  0  0  0  0  0  0  0
   -0.5571   67.6209   80.2269 C   0  0  0  0  0  0  0  0  0  0  0  0
    0.4135   68.1711   81.0494 C   0  0  0  0  0  0  0  0  0  0  0  0
    1.1233   67.3938   81.9870 C   0  0  0  0  0  0  0  0  0  0  0  0
    3.0902   69.4276   80.8755 C   0  0  0  0  0  0  0  0  0  0  0  0
    2.7613   69.3927   82.3705 C   0  0  0  0  0  0  0  0  0  0  0  0
    1.9111   70.6092   82.7736 C   0  0  0  0  0  0  0  0  0  0  0  0
    3.6085   67.8579   84.8033 C   0  0  0  0  0  0  0  0  0  0  0  0
    4.3985   68.2620   85.5532 N   0  0  0  0  0  0  0  0  0  0  0  0
   -0.5891   64.1029   81.3528 N   0  0  0  0  0  0  0  0  0  0  0  0
   -1.5325   64.0762   81.7438 H   0  0  0  0  0  0  0  0  0  0  0  0
   -0.4480   63.1518   80.2336 C   0  0  0  0  0  0  0  0  0  0  0  0
    0.5362   62.0389   80.6080 C   0  0  0  0  0  0  0  0  0  0  0  0
   -1.8276   62.5901   79.8664 C   0  0  0  0  0  0  0  0  0  0  0  0
   -2.7239   62.2684   80.8891 C   0  0  0  0  0  0  0  0  0  0  0  0
   -3.9666   61.7332   80.5601 C   0  0  0  0  0  0  0  0  0  0  0  0
   -4.2865   61.5261   79.2249 C   0  0  0  0  0  0  0  0  0  0  0  0
   -3.3439   61.8601   78.2691 C   0  0  0  0  0  0  0  0  0  0  0  0
   -2.1298   62.3775   78.5584 N   0  0  0  0  0  0  0  0  0  0  0  0
    1.1298   63.8875   83.5094 C   0  0  0  0  0  0  0  0  0  0  0  0
    0.0657   63.5969   84.5563 C   0  0  0  0  0  0  0  0  0  0  0  0
   -1.1302   62.9834   84.1469 C   0  0  0  0  0  0  0  0  0  0  0  0
   -2.1372   62.6873   85.0667 C   0  0  0  0  0  0  0  0  0  0  0  0
   -1.9569   62.9839   86.4145 C   0  0  0  0  0  0  0  0  0  0  0  0
   -0.7680   63.5704   86.8417 C   0  0  0  0  0  0  0  0  0  0  0  0
    0.2391   63.8695   85.9207 C   0  0  0  0  0  0  0  0  0  0  0  0
 12 13  1  0  0  0
 13 14  1  0  0  0
 13  1  1  0  0  0
  1  2  2  0  0  0
  2 15  1  0  0  0
 15 16  3  0  0  0
  2  3  1  0  0  0
  3  4  2  0  0  0
  3  5  1  0  0  0
  5 27  1  0  0  0
 27 28  1  0  0  0
 28 29  2  0  0  0
 29 30  1  0  0  0
 30 31  2  0  0  0
 31 32  1  0  0  0
 32 33  2  0  0  0
  5  6  1  0  0  0
  6  7  1  0  0  0
  7 17  1  0  0  0
 17 19  1  0  0  0
 19 20  1  0  0  0
 19 21  1  0  0  0
 21 22  2  0  0  0
 22 23  1  0  0  0
 23 24  2  0  0  0
 24 25  1  0  0  0
 25 26  2  0  0  0
  7  8  2  0  0  0
  8  9  1  0  0  0
  9 10  2  0  0  0
 10 11  1  0  0  0
 11  1  1  0  0  0
 33 28  1  0  0  0
 11  6  2  0  0  0
 26 21  1  0  0  0
 17 18  1  0  0  0
M  END
> <minimizedAffinity>
-9.05631

$$$$



 33 36  0  0  0  0  0  0  0  0999 V2000
   -1.5088   62.6990   85.0270 C   0  0  0  0  0  0  0  0  0  0  0  0
   -0.4194   63.4851   85.1592 C   0  0  0  0  0  0  0  0  0  0  0  0
    0.4137   63.8758   83.9927 C   0  0  0  0  0  0  0  0  0  0  0  0
    1.4232   64.5550   84.1910 O   0  0  0  0  0  0  0  0  0  0  0  0
    0.0018   63.4904   82.7224 N   0  0  0  0  0  0  0  0  0  0  0  0
   -1.0823   62.5550   82.5213 C   0  0  0  0  0  0  0  0  0  0  0  0
   -1.4749   62.0499   81.2353 C   0  0  0  0  0  0  0  0  0  0  0  0
   -2.4313   61.0213   81.1689 C   0  0  0  0  0  0  0  0  0  0  0  0
   -3.0405   60.5245   82.3072 C   0  0  0  0  0  0  0  0  0  0  0  0
   -2.7153   61.0610   83.5432 C   0  0  0  0  0  0  0  0  0  0  0  0
   -1.7740   62.1014   83.6793 C   0  0  0  0  0  0  0  0  0  0  0  0
   -1.8974   61.4526   87.2106 C   0  0  0  0  0  0  0  0  0  0  0  0
   -2.4998   62.4016   86.1711 C   0  0  0  0  0  0  0  0  0  0  0  0
   -3.1289   63.6302   86.8493 C   0  0  0  0  0  0  0  0  0  0  0  0
    0.0229   64.0046   86.4128 C   0  0  0  0  0  0  0  0  0  0  0  0
    0.4067   64.3925   87.4385 N   0  0  0  0  0  0  0  0  0  0  0  0
   -0.8223   62.4336   80.0533 N   0  0  0  0  0  0  0  0  0  0  0  0
   -0.0849   61.7575   79.8462 H   0  0  0  0  0  0  0  0  0  0  0  0
   -1.5717   62.7959   78.8351 C   0  0  0  0  0  0  0  0  0  0  0  0
   -0.8352   63.9017   78.0719 C   0  0  0  0  0  0  0  0  0  0  0  0
   -1.7715   61.5449   77.9697 C   0  0  0  0  0  0  0  0  0  0  0  0
   -2.9535   61.4079   77.2371 C   0  0  0  0  0  0  0  0  0  0  0  0
   -3.1494   60.2612   76.4718 C   0  0  0  0  0  0  0  0  0  0  0  0
   -2.1697   59.2773   76.4568 C   0  0  0  0  0  0  0  0  0  0  0  0
   -1.0307   59.4797   77.2152 C   0  0  0  0  0  0  0  0  0  0  0  0
   -0.8147   60.5796   77.9695 N   0  0  0  0  0  0  0  0  0  0  0  0
    0.7912   64.0461   81.6180 C   0  0  0  0  0  0  0  0  0  0  0  0
    0.5453   65.5121   81.2966 C   0  0  0  0  0  0  0  0  0  0  0  0
    1.6075   66.4199   81.4444 C   0  0  0  0  0  0  0  0  0  0  0  0
    1.4394   67.7752   81.1563 C   0  0  0  0  0  0  0  0  0  0  0  0
    0.2107   68.2415   80.6985 C   0  0  0  0  0  0  0  0  0  0  0  0
   -0.8465   67.3516   80.5234 C   0  0  0  0  0  0  0  0  0  0  0  0
   -0.6793   65.9953   80.8144 C   0  0  0  0  0  0  0  0  0  0  0  0
 12 13  1  0  0  0
 13 14  1  0  0  0
 13  1  1  0  0  0
  1  2  2  0  0  0
  2 15  1  0  0  0
 15 16  3  0  0  0
  2  3  1  0  0  0
  3  4  2  0  0  0
  3  5  1  0  0  0
  5 27  1  0  0  0
 27 28  1  0  0  0
 28 29  2  0  0  0
 29 30  1  0  0  0
 30 31  2  0  0  0
 31 32  1  0  0  0
 32 33  2  0  0  0
  5  6  1  0  0  0
  6  7  1  0  0  0
  7 17  1  0  0  0
 17 19  1  0  0  0
 19 20  1  0  0  0
 19 21  1  0  0  0
 21 22  2  0  0  0
 22 23  1  0  0  0
 23 24  2  0  0  0
 24 25  1  0  0  0
 25 26  2  0  0  0
  7  8  2  0  0  0
  8  9  1  0  0  0
  9 10  2  0  0  0
 10 11  1  0  0  0
 11  1  1  0  0  0
 33 28  1  0  0  0
 11  6  2  0  0  0
 26 21  1  0  0  0
 17 18  1  0  0  0
M  END
> <minimizedAffinity>
-8.97414

$$$$



 33 36  0  0  0  0  0  0  0  0999 V2000
    0.0024   63.9772   81.3076 C   0  0  0  0  0  0  0  0  0  0  0  0
    0.2317   64.6511   80.1607 C   0  0  0  0  0  0  0  0  0  0  0  0
    1.0006   65.9223   80.1367 C   0  0  0  0  0  0  0  0  0  0  0  0
    1.1307   66.5117   79.0619 O   0  0  0  0  0  0  0  0  0  0  0  0
    1.5722   66.3761   81.3196 N   0  0  0  0  0  0  0  0  0  0  0  0
    1.2690   65.7701   82.5969 C   0  0  0  0  0  0  0  0  0  0  0  0
    1.7539   66.2681   83.8539 C   0  0  0  0  0  0  0  0  0  0  0  0
    1.2660   65.7035   85.0456 C   0  0  0  0  0  0  0  0  0  0  0  0
    0.3739   64.6464   85.0340 C   0  0  0  0  0  0  0  0  0  0  0  0
   -0.0395   64.1174   83.8214 C   0  0  0  0  0  0  0  0  0  0  0  0
    0.4199   64.6281   82.5905 C   0  0  0  0  0  0  0  0  0  0  0  0
   -2.1300   62.6202   81.0175 C   0  0  0  0  0  0  0  0  0  0  0  0
   -0.6405   62.5763   81.3691 C   0  0  0  0  0  0  0  0  0  0  0  0
    0.0785   61.4733   80.5743 C   0  0  0  0  0  0  0  0  0  0  0  0
   -0.2361   64.2093   78.8868 C   0  0  0  0  0  0  0  0  0  0  0  0
   -0.6306   63.8136   77.8681 N   0  0  0  0  0  0  0  0  0  0  0  0
    2.5746   67.4037   83.9386 N   0  0  0  0  0  0  0  0  0  0  0  0
    2.2989   67.9529   84.7547 H   0  0  0  0  0  0  0  0  0  0  0  0
    4.0430   67.3103   83.8296 C   0  0  0  0  0  0  0  0  0  0  0  0
    4.6394   68.6916   83.5395 C   0  0  0  0  0  0  0  0  0  0  0  0
    4.6117   66.7058   85.1199 C   0  0  0  0  0  0  0  0  0  0  0  0
    5.0443   67.5608   86.1370 C   0  0  0  0  0  0  0  0  0  0  0  0
    5.5857   67.0158   87.2984 C   0  0  0  0  0  0  0  0  0  0  0  0
    5.6887   65.6364   87.4189 C   0  0  0  0  0  0  0  0  0  0  0  0
    5.2481   64.8550   86.3660 C   0  0  0  0  0  0  0  0  0  0  0  0
    4.7219   65.3554   85.2266 N   0  0  0  0  0  0  0  0  0  0  0  0
    2.4411   67.5497   81.1795 C   0  0  0  0  0  0  0  0  0  0  0  0
    1.7386   68.8983   81.1578 C   0  0  0  0  0  0  0  0  0  0  0  0
    2.4796   70.0364   80.7973 C   0  0  0  0  0  0  0  0  0  0  0  0
    1.8834   71.2976   80.7536 C   0  0  0  0  0  0  0  0  0  0  0  0
    0.5315   71.4383   81.0526 C   0  0  0  0  0  0  0  0  0  0  0  0
   -0.2240   70.3174   81.3888 C   0  0  0  0  0  0  0  0  0  0  0  0
    0.3732   69.0552   81.4353 C   0  0  0  0  0  0  0  0  0  0  0  0
 12 13  1  0  0  0
 13 14  1  0  0  0
 13  1  1  0  0  0
  1  2  2  0  0  0
  2 15  1  0  0  0
 15 16  3  0  0  0
  2  3  1  0  0  0
  3  4  2  0  0  0
  3  5  1  0  0  0
  5 27  1  0  0  0
 27 28  1  0  0  0
 28 29  2  0  0  0
 29 30  1  0  0  0
 30 31  2  0  0  0
 31 32  1  0  0  0
 32 33  2  0  0  0
  5  6  1  0  0  0
  6  7  1  0  0  0
  7 17  1  0  0  0
 17 19  1  0  0  0
 19 20  1  0  0  0
 19 21  1  0  0  0
 21 22  2  0  0  0
 22 23  1  0  0  0
 23 24  2  0  0  0
 24 25  1  0  0  0
 25 26  2  0  0  0
  7  8  2  0  0  0
  8  9  1  0  0  0
  9 10  2  0  0  0
 10 11  1  0  0  0
 11  1  1  0  0  0
 33 28  1  0  0  0
 11  6  2  0  0  0
 26 21  1  0  0  0
 17 18  1  0  0  0
M  END
> <minimizedAffinity>
-8.89534

$$$$



 33 36  0  0  0  0  0  0  0  0999 V2000
   -1.7251   62.2778   79.6858 C   0  0  0  0  0  0  0  0  0  0  0  0
   -1.7759   61.1472   80.4216 C   0  0  0  0  0  0  0  0  0  0  0  0
   -1.0693   61.0243   81.7228 C   0  0  0  0  0  0  0  0  0  0  0  0
   -1.1170   59.9465   82.3194 O   0  0  0  0  0  0  0  0  0  0  0  0
   -0.4139   62.1393   82.2316 N   0  0  0  0  0  0  0  0  0  0  0  0
   -0.2218   63.3378   81.4459 C   0  0  0  0  0  0  0  0  0  0  0  0
    0.5362   64.4736   81.8914 C   0  0  0  0  0  0  0  0  0  0  0  0
    0.7980   65.5172   80.9862 C   0  0  0  0  0  0  0  0  0  0  0  0
    0.2974   65.4998   79.6968 C   0  0  0  0  0  0  0  0  0  0  0  0
   -0.4947   64.4384   79.2878 C   0  0  0  0  0  0  0  0  0  0  0  0
   -0.8057   63.3661   80.1484 C   0  0  0  0  0  0  0  0  0  0  0  0
   -1.8879   61.9578   77.1671 C   0  0  0  0  0  0  0  0  0  0  0  0
   -2.5701   62.5185   78.4179 C   0  0  0  0  0  0  0  0  0  0  0  0
   -4.0371   62.0631   78.4936 C   0  0  0  0  0  0  0  0  0  0  0  0
   -2.5029   59.9858   80.0220 C   0  0  0  0  0  0  0  0  0  0  0  0
   -3.1232   59.0486   79.7275 N   0  0  0  0  0  0  0  0  0  0  0  0
    1.1605   64.5060   83.1482 N   0  0  0  0  0  0  0  0  0  0  0  0
    2.1510   64.2836   83.0331 H   0  0  0  0  0  0  0  0  0  0  0  0
    0.9717   65.6342   84.0801 C   0  0  0  0  0  0  0  0  0  0  0  0
    0.7059   65.1105   85.4953 C   0  0  0  0  0  0  0  0  0  0  0  0
    2.2058   66.5444   84.0339 C   0  0  0  0  0  0  0  0  0  0  0  0
    3.4300   66.0522   84.4941 C   0  0  0  0  0  0  0  0  0  0  0  0
    4.5461   66.8847   84.4784 C   0  0  0  0  0  0  0  0  0  0  0  0
    4.4181   68.1860   84.0112 C   0  0  0  0  0  0  0  0  0  0  0  0
    3.1719   68.6047   83.5809 C   0  0  0  0  0  0  0  0  0  0  0  0
    2.0713   67.8211   83.5876 N   0  0  0  0  0  0  0  0  0  0  0  0
    0.1234   61.9795   83.5872 C   0  0  0  0  0  0  0  0  0  0  0  0
   -0.8705   62.1679   84.7228 C   0  0  0  0  0  0  0  0  0  0  0  0
   -0.4523   61.8894   86.0350 C   0  0  0  0  0  0  0  0  0  0  0  0
   -1.3206   62.0522   87.1155 C   0  0  0  0  0  0  0  0  0  0  0  0
   -2.6164   62.5133   86.9027 C   0  0  0  0  0  0  0  0  0  0  0  0
   -3.0403   62.8169   85.6111 C   0  0  0  0  0  0  0  0  0  0  0  0
   -2.1721   62.6515   84.5290 C   0  0  0  0  0  0  0  0  0  0  0  0
 12 13  1  0  0  0
 13 14  1  0  0  0
 13  1  1  0  0  0
  1  2  2  0  0  0
  2 15  1  0  0  0
 15 16  3  0  0  0
  2  3  1  0  0  0
  3  4  2  0  0  0
  3  5  1  0  0  0
  5 27  1  0  0  0
 27 28  1  0  0  0
 28 29  2  0  0  0
 29 30  1  0  0  0
 30 31  2  0  0  0
 31 32  1  0  0  0
 32 33  2  0  0  0
  5  6  1  0  0  0
  6  7  1  0  0  0
  7 17  1  0  0  0
 17 19  1  0  0  0
 19 20  1  0  0  0
 19 21  1  0  0  0
 21 22  2  0  0  0
 22 23  1  0  0  0
 23 24  2  0  0  0
 24 25  1  0  0  0
 25 26  2  0  0  0
  7  8  2  0  0  0
  8  9  1  0  0  0
  9 10  2  0  0  0
 10 11  1  0  0  0
 11  1  1  0  0  0
 33 28  1  0  0  0
 11  6  2  0  0  0
 26 21  1  0  0  0
 17 18  1  0  0  0
M  END
> <minimizedAffinity>
-8.88813

$$$$



 33 36  0  0  0  0  0  0  0  0999 V2000
    1.4785   67.3680   80.9200 C   0  0  0  0  0  0  0  0  0  0  0  0
    2.1853   68.4479   81.3154 C   0  0  0  0  0  0  0  0  0  0  0  0
    2.6124   68.6339   82.7263 C   0  0  0  0  0  0  0  0  0  0  0  0
    3.2126   69.6673   83.0286 O   0  0  0  0  0  0  0  0  0  0  0  0
    2.3499   67.6197   83.6397 N   0  0  0  0  0  0  0  0  0  0  0  0
    1.4993   66.4972   83.3121 C   0  0  0  0  0  0  0  0  0  0  0  0
    1.1176   65.4813   84.2531 C   0  0  0  0  0  0  0  0  0  0  0  0
    0.1565   64.5272   83.8751 C   0  0  0  0  0  0  0  0  0  0  0  0
   -0.3876   64.5121   82.6033 C   0  0  0  0  0  0  0  0  0  0  0  0
    0.0332   65.4478   81.6713 C   0  0  0  0  0  0  0  0  0  0  0  0
    1.0018   66.4241   81.9809 C   0  0  0  0  0  0  0  0  0  0  0  0
    2.0204   65.8959   78.9170 C   0  0  0  0  0  0  0  0  0  0  0  0
    1.1555   67.0426   79.4471 C   0  0  0  0  0  0  0  0  0  0  0  0
   -0.3291   66.8051   79.1232 C   0  0  0  0  0  0  0  0  0  0  0  0
    2.5808   69.4923   80.4266 C   0  0  0  0  0  0  0  0  0  0  0  0
    2.9107   70.3672   79.7370 N   0  0  0  0  0  0  0  0  0  0  0  0
    1.5498   65.5025   85.5884 N   0  0  0  0  0  0  0  0  0  0  0  0
    0.8835   66.0410   86.1450 H   0  0  0  0  0  0  0  0  0  0  0  0
    1.9606   64.2719   86.2912 C   0  0  0  0  0  0  0  0  0  0  0  0
    3.2480   64.5216   87.0836 C   0  0  0  0  0  0  0  0  0  0  0  0
    0.8178   63.7989   87.1990 C   0  0  0  0  0  0  0  0  0  0  0  0
   -0.4561   63.6245   86.6518 C   0  0  0  0  0  0  0  0  0  0  0  0
   -1.5013   63.2211   87.4787 C   0  0  0  0  0  0  0  0  0  0  0  0
   -1.2571   63.0058   88.8285 C   0  0  0  0  0  0  0  0  0  0  0  0
    0.0279   63.2083   89.2991 C   0  0  0  0  0  0  0  0  0  0  0  0
    1.0603   63.6025   88.5218 N   0  0  0  0  0  0  0  0  0  0  0  0
    2.9391   67.8130   84.9691 C   0  0  0  0  0  0  0  0  0  0  0  0
    4.3959   67.4021   85.1168 C   0  0  0  0  0  0  0  0  0  0  0  0
    4.8671   66.3141   84.3629 C   0  0  0  0  0  0  0  0  0  0  0  0
    6.1966   65.8992   84.4540 C   0  0  0  0  0  0  0  0  0  0  0  0
    7.0810   66.5772   85.2876 C   0  0  0  0  0  0  0  0  0  0  0  0
    6.6369   67.6728   86.0243 C   0  0  0  0  0  0  0  0  0  0  0  0
    5.3054   68.0867   85.9353 C   0  0  0  0  0  0  0  0  0  0  0  0
 12 13  1  0  0  0
 13 14  1  0  0  0
 13  1  1  0  0  0
  1  2  2  0  0  0
  2 15  1  0  0  0
 15 16  3  0  0  0
  2  3  1  0  0  0
  3  4  2  0  0  0
  3  5  1  0  0  0
  5 27  1  0  0  0
 27 28  1  0  0  0
 28 29  2  0  0  0
 29 30  1  0  0  0
 30 31  2  0  0  0
 31 32  1  0  0  0
 32 33  2  0  0  0
  5  6  1  0  0  0
  6  7  1  0  0  0
  7 17  1  0  0  0
 17 19  1  0  0  0
 19 20  1  0  0  0
 19 21  1  0  0  0
 21 22  2  0  0  0
 22 23  1  0  0  0
 23 24  2  0  0  0
 24 25  1  0  0  0
 25 26  2  0  0  0
  7  8  2  0  0  0
  8  9  1  0  0  0
  9 10  2  0  0  0
 10 11  1  0  0  0
 11  1  1  0  0  0
 33 28  1  0  0  0
 11  6  2  0  0  0
 26 21  1  0  0  0
 17 18  1  0  0  0
M  END
> <minimizedAffinity>
-8.87509

$$$$



 33 36  0  0  0  0  0  0  0  0999 V2000
    0.1263   64.5164   82.4013 C   0  0  0  0  0  0  0  0  0  0  0  0
    0.4164   64.5294   83.7195 C   0  0  0  0  0  0  0  0  0  0  0  0
    1.2323   65.6086   84.3337 C   0  0  0  0  0  0  0  0  0  0  0  0
    1.5012   65.5327   85.5344 O   0  0  0  0  0  0  0  0  0  0  0  0
    1.6285   66.6773   83.5383 N   0  0  0  0  0  0  0  0  0  0  0  0
    1.4539   66.6680   82.1030 C   0  0  0  0  0  0  0  0  0  0  0  0
    1.9391   67.7014   81.2314 C   0  0  0  0  0  0  0  0  0  0  0  0
    1.8608   67.5134   79.8402 C   0  0  0  0  0  0  0  0  0  0  0  0
    1.2795   66.3834   79.2938 C   0  0  0  0  0  0  0  0  0  0  0  0
    0.7459   65.4181   80.1333 C   0  0  0  0  0  0  0  0  0  0  0  0
    0.7803   65.5498   81.5364 C   0  0  0  0  0  0  0  0  0  0  0  0
   -0.3049   62.0883   81.7757 C   0  0  0  0  0  0  0  0  0  0  0  0
   -0.8499   63.5187   81.7444 C   0  0  0  0  0  0  0  0  0  0  0  0
   -2.2998   63.5647   82.2551 C   0  0  0  0  0  0  0  0  0  0  0  0
   -0.0288   63.5231   84.6285 C   0  0  0  0  0  0  0  0  0  0  0  0
   -0.4205   62.7313   85.3830 N   0  0  0  0  0  0  0  0  0  0  0  0
    2.6335   68.8205   81.7171 N   0  0  0  0  0  0  0  0  0  0  0  0
    3.6205   68.7328   81.4687 H   0  0  0  0  0  0  0  0  0  0  0  0
    2.1464   70.1948   81.4911 C   0  0  0  0  0  0  0  0  0  0  0  0
    1.6266   70.7925   82.8027 C   0  0  0  0  0  0  0  0  0  0  0  0
    3.2748   71.0419   80.8888 C   0  0  0  0  0  0  0  0  0  0  0  0
    4.1537   70.4521   79.9766 C   0  0  0  0  0  0  0  0  0  0  0  0
    5.1951   71.2109   79.4485 C   0  0  0  0  0  0  0  0  0  0  0  0
    5.3409   72.5342   79.8430 C   0  0  0  0  0  0  0  0  0  0  0  0
    4.4375   73.0455   80.7573 C   0  0  0  0  0  0  0  0  0  0  0  0
    3.4201   72.3327   81.2888 N   0  0  0  0  0  0  0  0  0  0  0  0
    2.2944   67.7711   84.2539 C   0  0  0  0  0  0  0  0  0  0  0  0
    3.7136   67.4915   84.7237 C   0  0  0  0  0  0  0  0  0  0  0  0
    4.1879   68.1603   85.8646 C   0  0  0  0  0  0  0  0  0  0  0  0
    5.4794   67.9359   86.3439 C   0  0  0  0  0  0  0  0  0  0  0  0
    6.3115   67.0251   85.6998 C   0  0  0  0  0  0  0  0  0  0  0  0
    5.8494   66.3354   84.5814 C   0  0  0  0  0  0  0  0  0  0  0  0
    4.5576   66.5619   84.0998 C   0  0  0  0  0  0  0  0  0  0  0  0
 12 13  1  0  0  0
 13 14  1  0  0  0
 13  1  1  0  0  0
  1  2  2  0  0  0
  2 15  1  0  0  0
 15 16  3  0  0  0
  2  3  1  0  0  0
  3  4  2  0  0  0
  3  5  1  0  0  0
  5 27  1  0  0  0
 27 28  1  0  0  0
 28 29  2  0  0  0
 29 30  1  0  0  0
 30 31  2  0  0  0
 31 32  1  0  0  0
 32 33  2  0  0  0
  5  6  1  0  0  0
  6  7  1  0  0  0
  7 17  1  0  0  0
 17 19  1  0  0  0
 19 20  1  0  0  0
 19 21  1  0  0  0
 21 22  2  0  0  0
 22 23  1  0  0  0
 23 24  2  0  0  0
 24 25  1  0  0  0
 25 26  2  0  0  0
  7  8  2  0  0  0
  8  9  1  0  0  0
  9 10  2  0  0  0
 10 11  1  0  0  0
 11  1  1  0  0  0
 33 28  1  0  0  0
 11  6  2  0  0  0
 26 21  1  0  0  0
 17 18  1  0  0  0
M  END
> <minimizedAffinity>
-8.84560

$$$$
