
     RDKit          3D

 57 60  0  0  0  0  0  0  0  0999 V2000
    0.6611   -4.9909    2.9361 C   0  0  0  0  0  0  0  0  0  0  0  0
    1.0108   -3.5223    3.0977 C   0  0  0  0  0  0  0  0  0  0  0  0
    0.2566   -2.7867    2.1318 O   0  0  0  0  0  0  0  0  0  0  0  0
    0.4164   -1.4242    2.0799 C   0  0  0  0  0  0  0  0  0  0  0  0
    1.2686   -0.7195    2.9420 C   0  0  0  0  0  0  0  0  0  0  0  0
    1.3973    0.6691    2.8492 C   0  0  0  0  0  0  0  0  0  0  0  0
    0.6741    1.3889    1.8959 C   0  0  0  0  0  0  0  0  0  0  0  0
    0.8273    2.8898    1.7818 C   0  0  0  0  0  0  0  0  0  0  0  0
    2.1363    3.2528    1.2248 N   0  0  0  0  0  0  0  0  0  0  0  0
    2.2267    4.7248    1.0272 C   0  0  0  0  0  0  0  0  0  0  0  0
    2.9252    4.4336   -0.3232 C   0  0  0  0  0  0  0  0  0  0  0  0
    4.4733    4.4084   -0.3262 C   0  0  0  0  0  0  0  0  0  0  0  0
    5.1880    5.2199   -0.9263 O   0  0  0  0  0  0  0  0  0  0  0  0
    5.0481    3.4107    0.4343 N   0  0  0  0  0  0  0  0  0  0  0  0
    6.4441    3.5143    0.6328 O   0  0  0  0  0  0  0  0  0  0  0  0
    2.1499    3.0964   -0.2571 C   0  0  0  0  0  0  0  0  0  0  0  0
   -0.1760    0.6884    1.0300 C   0  0  0  0  0  0  0  0  0  0  0  0
   -0.3186   -0.7122    1.1063 C   0  0  0  0  0  0  0  0  0  0  0  0
   -1.2626   -1.3482    0.1149 C   0  0  0  0  0  0  0  0  0  0  0  0
   -1.8972   -0.5969   -0.7465 N   0  0  0  0  0  0  0  0  0  0  0  0
   -2.7373   -1.3009   -1.6102 C   0  0  0  0  0  0  0  0  0  0  0  0
   -3.5580   -0.8322   -2.6488 C   0  0  0  0  0  0  0  0  0  0  0  0
   -3.7562    0.5676   -3.1123 C   0  0  0  0  0  0  0  0  0  0  0  0
   -2.6939    1.0021   -4.1103 C   0  0  0  0  0  0  0  0  0  0  0  0
   -4.2047   -1.8551   -3.2402 N   0  0  0  0  0  0  0  0  0  0  0  0
   -3.7788   -2.9499   -2.5616 N   0  0  0  0  0  0  0  0  0  0  0  0
   -4.2684   -4.2578   -2.9245 C   0  0  0  0  0  0  0  0  0  0  0  0
   -2.8938   -2.6530   -1.5736 C   0  0  0  0  0  0  0  0  0  0  0  0
   -2.2131   -3.4766   -0.6451 C   0  0  0  0  0  0  0  0  0  0  0  0
   -2.3095   -4.6951   -0.5600 O   0  0  0  0  0  0  0  0  0  0  0  0
   -1.4025   -2.7312    0.1792 N   0  0  0  0  0  0  0  0  0  0  0  0
    0.8954   -5.3335    1.9227 H   0  0  0  0  0  0  0  0  0  0  0  0
    1.2130   -5.6047    3.6534 H   0  0  0  0  0  0  0  0  0  0  0  0
   -0.4120   -5.1500    3.0854 H   0  0  0  0  0  0  0  0  0  0  0  0
    0.7458   -3.2011    4.1113 H   0  0  0  0  0  0  0  0  0  0  0  0
    2.0845   -3.3891    2.9232 H   0  0  0  0  0  0  0  0  0  0  0  0
    1.8583   -1.2198    3.7039 H   0  0  0  0  0  0  0  0  0  0  0  0
    2.0753    1.1890    3.5243 H   0  0  0  0  0  0  0  0  0  0  0  0
    0.7373    3.3117    2.7917 H   0  0  0  0  0  0  0  0  0  0  0  0
   -0.0094    3.3114    1.2079 H   0  0  0  0  0  0  0  0  0  0  0  0
    1.2727    5.2576    0.9211 H   0  0  0  0  0  0  0  0  0  0  0  0
    2.8335    5.2436    1.7757 H   0  0  0  0  0  0  0  0  0  0  0  0
    2.5638    5.0820   -1.1331 H   0  0  0  0  0  0  0  0  0  0  0  0
    4.5082    2.9233    1.1474 H   0  0  0  0  0  0  0  0  0  0  0  0
    6.6747    4.2889    0.0734 H   0  0  0  0  0  0  0  0  0  0  0  0
    1.1736    3.1369   -0.7581 H   0  0  0  0  0  0  0  0  0  0  0  0
    2.6849    2.2120   -0.6166 H   0  0  0  0  0  0  0  0  0  0  0  0
   -0.7339    1.2465    0.2790 H   0  0  0  0  0  0  0  0  0  0  0  0
   -4.7467    0.6715   -3.5717 H   0  0  0  0  0  0  0  0  0  0  0  0
   -3.7410    1.2449   -2.2500 H   0  0  0  0  0  0  0  0  0  0  0  0
   -1.6923    0.9536   -3.6695 H   0  0  0  0  0  0  0  0  0  0  0  0
   -2.8738    2.0328   -4.4317 H   0  0  0  0  0  0  0  0  0  0  0  0
   -2.7007    0.3617   -4.9989 H   0  0  0  0  0  0  0  0  0  0  0  0
   -4.9788   -4.1652   -3.7501 H   0  0  0  0  0  0  0  0  0  0  0  0
   -3.4187   -4.8711   -3.2342 H   0  0  0  0  0  0  0  0  0  0  0  0
   -4.7665   -4.6945   -2.0554 H   0  0  0  0  0  0  0  0  0  0  0  0
   -0.8806   -3.2525    0.8716 H   0  0  0  0  0  0  0  0  0  0  0  0
  1  2  1  0
  2  3  1  0
  3  4  1  0
  4  5  1  0
  5  6  2  0
  6  7  1  0
  7  8  1  0
  8  9  1  0
  9 10  1  0
 10 11  1  0
 11 12  1  0
 12 13  2  0
 12 14  1  0
 14 15  1  0
 11 16  1  0
  7 17  2  0
 17 18  1  0
 18 19  1  0
 19 20  2  0
 20 21  1  0
 21 22  1  0
 22 23  1  0
 23 24  1  0
 22 25  2  0
 25 26  1  0
 26 27  1  0
 26 28  1  0
 28 29  1  0
 29 30  2  0
 29 31  1  0
 18  4  2  0
 31 19  1  0
 16  9  1  0
 28 21  2  0
  1 32  1  0
  1 33  1  0
  1 34  1  0
  2 35  1  0
  2 36  1  0
  5 37  1  0
  6 38  1  0
  8 39  1  0
  8 40  1  0
 10 41  1  0
 10 42  1  0
 11 43  1  0
 14 44  1  0
 15 45  1  0
 16 46  1  0
 16 47  1  0
 17 48  1  0
 23 49  1  0
 23 50  1  0
 24 51  1  0
 24 52  1  0
 24 53  1  0
 27 54  1  0
 27 55  1  0
 27 56  1  0
 31 57  1  0
M  END
$$$$
