
     RDKit          3D

 78 81  0  0  0  0  0  0  0  0999 V2000
   -3.0243   -6.0220   -0.0824 C   0  0  0  0  0  0  0  0  0  0  0  0
   -2.0387   -5.3768   -1.0389 C   0  0  0  0  0  0  0  0  0  0  0  0
   -1.2260   -4.4635   -0.2887 O   0  0  0  0  0  0  0  0  0  0  0  0
   -0.5640   -3.6083   -1.1329 C   0  0  0  0  0  0  0  0  0  0  0  0
    0.6735   -4.0219   -1.6406 C   0  0  0  0  0  0  0  0  0  0  0  0
    1.4256   -3.1578   -2.4339 C   0  0  0  0  0  0  0  0  0  0  0  0
    0.9350   -1.8779   -2.6966 C   0  0  0  0  0  0  0  0  0  0  0  0
    1.8800   -0.7395   -3.6769 S   0  0  0  0  0  0  0  0  0  0  0  0
    3.1432   -1.3568   -4.0200 O   0  0  0  0  0  0  0  0  0  0  0  0
    0.9922   -0.2155   -4.6914 O   0  0  0  0  0  0  0  0  0  0  0  0
    2.2083    0.5104   -2.5585 N   0  0  0  0  0  0  0  0  0  0  0  0
    3.1153    0.1209   -1.4298 C   0  0  0  0  0  0  0  0  0  0  0  0
    3.2580    1.2874   -0.4321 C   0  0  0  0  0  0  0  0  0  0  0  0
    3.7294    2.5526   -1.0266 N   0  0  0  0  0  0  0  0  0  0  0  0
    5.1591    2.5381   -1.3941 C   0  0  0  0  0  0  0  0  0  0  0  0
    6.1742    2.2439   -0.2504 C   0  0  0  0  0  0  0  0  0  0  0  0
    5.9355    2.9266    1.0357 N   0  0  0  0  0  0  0  0  0  0  0  0
    5.9795    4.3823    0.8973 C   0  0  0  0  0  0  0  0  0  0  0  0
    6.9115    2.4865    2.0333 C   0  0  0  0  0  0  0  0  0  0  0  0
    2.8745    2.8919   -2.1835 C   0  0  0  0  0  0  0  0  0  0  0  0
    2.6976    1.7630   -3.2205 C   0  0  0  0  0  0  0  0  0  0  0  0
   -0.3001   -1.4556   -2.1870 C   0  0  0  0  0  0  0  0  0  0  0  0
   -1.0610   -2.3180   -1.3861 C   0  0  0  0  0  0  0  0  0  0  0  0
   -2.3400   -1.8651   -0.8413 C   0  0  0  0  0  0  0  0  0  0  0  0
   -3.5028   -2.4909   -0.9232 N   0  0  0  0  0  0  0  0  0  0  0  0
   -4.4022   -1.6971   -0.2547 C   0  0  0  0  0  0  0  0  0  0  0  0
   -5.8122   -1.9114   -0.0232 C   0  0  0  0  0  0  0  0  0  0  0  0
   -6.4071   -2.9135   -0.4117 O   0  0  0  0  0  0  0  0  0  0  0  0
   -6.4159   -0.8622    0.6928 N   0  0  0  0  0  0  0  0  0  0  0  0
   -7.8314   -0.9813    0.9812 C   0  0  0  0  0  0  0  0  0  0  0  0
   -5.7723    0.2808    1.2139 C   0  0  0  0  0  0  0  0  0  0  0  0
   -6.3917    1.1182    1.8765 O   0  0  0  0  0  0  0  0  0  0  0  0
   -4.3961    0.4254    0.9528 N   0  0  0  0  0  0  0  0  0  0  0  0
   -3.6863    1.5945    1.4748 C   0  0  0  0  0  0  0  0  0  0  0  0
   -2.8657    1.2931    2.7437 C   0  0  0  0  0  0  0  0  0  0  0  0
   -3.7551    0.9229    3.9316 C   0  0  0  0  0  0  0  0  0  0  0  0
   -2.0001    2.5033    3.0999 C   0  0  0  0  0  0  0  0  0  0  0  0
   -3.7885   -0.5775    0.2287 C   0  0  0  0  0  0  0  0  0  0  0  0
   -2.4828   -0.6793   -0.1475 N   0  0  0  0  0  0  0  0  0  0  0  0
   -3.6605   -6.7417   -0.6050 H   0  0  0  0  0  0  0  0  0  0  0  0
   -2.4958   -6.5386    0.7256 H   0  0  0  0  0  0  0  0  0  0  0  0
   -3.6600   -5.2635    0.3862 H   0  0  0  0  0  0  0  0  0  0  0  0
   -1.3998   -6.1498   -1.4817 H   0  0  0  0  0  0  0  0  0  0  0  0
   -2.5875   -4.8690   -1.8413 H   0  0  0  0  0  0  0  0  0  0  0  0
    1.0506   -5.0144   -1.4067 H   0  0  0  0  0  0  0  0  0  0  0  0
    2.3837   -3.4848   -2.8314 H   0  0  0  0  0  0  0  0  0  0  0  0
    4.0983   -0.1696   -1.8167 H   0  0  0  0  0  0  0  0  0  0  0  0
    2.6907   -0.7327   -0.8926 H   0  0  0  0  0  0  0  0  0  0  0  0
    2.2732    1.4797    0.0152 H   0  0  0  0  0  0  0  0  0  0  0  0
    3.8933    0.9795    0.4049 H   0  0  0  0  0  0  0  0  0  0  0  0
    5.3531    1.8200   -2.1999 H   0  0  0  0  0  0  0  0  0  0  0  0
    5.4121    3.5257   -1.8017 H   0  0  0  0  0  0  0  0  0  0  0  0
    7.1814    2.4762   -0.6225 H   0  0  0  0  0  0  0  0  0  0  0  0
    6.1560    1.1602   -0.0742 H   0  0  0  0  0  0  0  0  0  0  0  0
    5.8148    4.8652    1.8674 H   0  0  0  0  0  0  0  0  0  0  0  0
    6.9410    4.7292    0.5019 H   0  0  0  0  0  0  0  0  0  0  0  0
    5.1832    4.7462    0.2406 H   0  0  0  0  0  0  0  0  0  0  0  0
    7.9392    2.7353    1.7447 H   0  0  0  0  0  0  0  0  0  0  0  0
    6.8476    1.4030    2.1835 H   0  0  0  0  0  0  0  0  0  0  0  0
    6.7045    2.9480    3.0053 H   0  0  0  0  0  0  0  0  0  0  0  0
    1.8836    3.1626   -1.7949 H   0  0  0  0  0  0  0  0  0  0  0  0
    3.2505    3.7941   -2.6813 H   0  0  0  0  0  0  0  0  0  0  0  0
    3.6419    1.5657   -3.7403 H   0  0  0  0  0  0  0  0  0  0  0  0
    1.9608    2.0960   -3.9596 H   0  0  0  0  0  0  0  0  0  0  0  0
   -0.6650   -0.4597   -2.4322 H   0  0  0  0  0  0  0  0  0  0  0  0
   -8.3027   -1.8081    0.4440 H   0  0  0  0  0  0  0  0  0  0  0  0
   -7.9558   -1.1391    2.0575 H   0  0  0  0  0  0  0  0  0  0  0  0
   -8.3396   -0.0508    0.7070 H   0  0  0  0  0  0  0  0  0  0  0  0
   -4.3991    2.4034    1.6750 H   0  0  0  0  0  0  0  0  0  0  0  0
   -3.0275    1.9603    0.6771 H   0  0  0  0  0  0  0  0  0  0  0  0
   -2.1945    0.4474    2.5502 H   0  0  0  0  0  0  0  0  0  0  0  0
   -4.3112    0.0005    3.7377 H   0  0  0  0  0  0  0  0  0  0  0  0
   -4.4757    1.7176    4.1521 H   0  0  0  0  0  0  0  0  0  0  0  0
   -3.1517    0.7564    4.8305 H   0  0  0  0  0  0  0  0  0  0  0  0
   -1.3860    2.2966    3.9828 H   0  0  0  0  0  0  0  0  0  0  0  0
   -2.6157    3.3837    3.3135 H   0  0  0  0  0  0  0  0  0  0  0  0
   -1.3237    2.7535    2.2756 H   0  0  0  0  0  0  0  0  0  0  0  0
   -1.7361   -0.0340    0.0617 H   0  0  0  0  0  0  0  0  0  0  0  0
  1  2  1  0
  2  3  1  0
  3  4  1  0
  4  5  1  0
  5  6  2  0
  6  7  1  0
  7  8  1  0
  8  9  2  0
  8 10  2  0
  8 11  1  0
 11 12  1  0
 12 13  1  0
 13 14  1  0
 14 15  1  0
 15 16  1  0
 16 17  1  0
 17 18  1  0
 17 19  1  0
 14 20  1  0
 20 21  1  0
  7 22  2  0
 22 23  1  0
 23 24  1  0
 24 25  2  0
 25 26  1  0
 26 27  1  0
 27 28  2  0
 27 29  1  0
 29 30  1  0
 29 31  1  0
 31 32  2  0
 31 33  1  0
 33 34  1  0
 34 35  1  0
 35 36  1  0
 35 37  1  0
 33 38  1  0
 38 39  1  0
 23  4  2  0
 39 24  1  0
 21 11  1  0
 38 26  2  0
  1 40  1  0
  1 41  1  0
  1 42  1  0
  2 43  1  0
  2 44  1  0
  5 45  1  0
  6 46  1  0
 12 47  1  0
 12 48  1  0
 13 49  1  0
 13 50  1  0
 15 51  1  0
 15 52  1  0
 16 53  1  0
 16 54  1  0
 18 55  1  0
 18 56  1  0
 18 57  1  0
 19 58  1  0
 19 59  1  0
 19 60  1  0
 20 61  1  0
 20 62  1  0
 21 63  1  0
 21 64  1  0
 22 65  1  0
 30 66  1  0
 30 67  1  0
 30 68  1  0
 34 69  1  0
 34 70  1  0
 35 71  1  0
 36 72  1  0
 36 73  1  0
 36 74  1  0
 37 75  1  0
 37 76  1  0
 37 77  1  0
 39 78  1  0
M  END
$$$$
