


 35 38  0  0  0  0  0  0  0  0999 V2000
    2.1000   66.0518   84.4524 C   0  0  0  0  0  0  0  0  0  0  0  0
    1.5437   66.8514   83.4378 C   0  0  0  0  0  0  0  0  0  0  0  0
    2.3415   67.7326   82.7066 C   0  0  0  0  0  0  0  0  0  0  0  0
    3.6934   67.8741   83.0128 C   0  0  0  0  0  0  0  0  0  0  0  0
    4.2584   67.0979   84.0279 C   0  0  0  0  0  0  0  0  0  0  0  0
    3.4781   66.1809   84.7484 C   0  0  0  0  0  0  0  0  0  0  0  0
   -1.4494   62.8776   85.5102 N   0  0  0  0  0  0  0  0  0  0  0  0
   -1.8641   62.2070   86.6606 C   0  0  0  0  0  0  0  0  0  0  0  0
   -2.8276   61.4415   86.7004 O   0  0  0  0  0  0  0  0  0  0  0  0
   -1.1382   62.4275   87.8190 N   0  0  0  0  0  0  0  0  0  0  0  0
   -0.0471   63.2521   87.9760 C   0  0  0  0  0  0  0  0  0  0  0  0
    0.5355   63.3943   89.0438 O   0  0  0  0  0  0  0  0  0  0  0  0
    0.3073   63.9009   86.7692 C   0  0  0  0  0  0  0  0  0  0  0  0
    1.2995   64.7854   86.4839 N   0  0  0  0  0  0  0  0  0  0  0  0
    1.2006   65.1135   85.1446 C   0  0  0  0  0  0  0  0  0  0  0  0
    0.1851   64.4572   84.5928 N   0  0  0  0  0  0  0  0  0  0  0  0
   -0.3605   63.7200   85.5981 C   0  0  0  0  0  0  0  0  0  0  0  0
   -1.4556   61.9341   88.6382 H   0  0  0  0  0  0  0  0  0  0  0  0
    1.9987   65.1496   87.1194 H   0  0  0  0  0  0  0  0  0  0  0  0
   -2.1742   62.7099   84.2561 C   0  0  0  0  0  0  0  0  0  0  0  0
   -0.9117   62.0298   82.1487 C   0  0  0  0  0  0  0  0  0  0  0  0
   -1.6436   61.5590   83.3966 C   0  0  0  0  0  0  0  0  0  0  0  0
    1.6088   68.7345   81.4290 S   0  0  0  0  0  0  0  0  0  0  0  0
    0.4585   69.3982   82.0037 O   0  0  0  0  0  0  0  0  0  0  0  0
    2.6783   69.4934   80.8140 O   0  0  0  0  0  0  0  0  0  0  0  0
    1.0631   67.6012   80.2999 N   0  0  0  0  0  0  0  0  0  0  0  0
    2.0556   66.6124   79.7968 C   0  0  0  0  0  0  0  0  0  0  0  0
    1.3668   65.5463   78.9259 C   0  0  0  0  0  0  0  0  0  0  0  0
    0.3819   64.7423   79.6800 N   0  0  0  0  0  0  0  0  0  0  0  0
   -0.5442   64.0791   78.7650 C   0  0  0  0  0  0  0  0  0  0  0  0
   -0.3295   65.5516   80.6918 C   0  0  0  0  0  0  0  0  0  0  0  0
   -0.3224   67.0711   80.4369 C   0  0  0  0  0  0  0  0  0  0  0  0
    3.9760   65.3837   85.7511 O   0  0  0  0  0  0  0  0  0  0  0  0
    5.3853   65.1547   85.7915 C   0  0  0  0  0  0  0  0  0  0  0  0
    5.8683   65.4904   87.1913 C   0  0  0  0  0  0  0  0  0  0  0  0
 21 22  1  0  0  0
 22 20  1  0  0  0
 20  7  1  0  0  0
  7  8  1  0  0  0
  8  9  2  0  0  0
  8 10  1  0  0  0
 10 11  1  0  0  0
 11 12  2  0  0  0
 11 13  1  0  0  0
 13 14  1  0  0  0
 14 15  1  0  0  0
 15  1  1  0  0  0
  1  2  1  0  0  0
  2  3  2  0  0  0
  3 23  1  0  0  0
 23 24  2  0  0  0
 23 25  2  0  0  0
 23 26  1  0  0  0
 26 27  1  0  0  0
 27 28  1  0  0  0
 28 29  1  0  0  0
 29 30  1  0  0  0
 29 31  1  0  0  0
 31 32  1  0  0  0
  3  4  1  0  0  0
  4  5  2  0  0  0
  5  6  1  0  0  0
  6 33  1  0  0  0
 33 34  1  0  0  0
 34 35  1  0  0  0
 15 16  2  0  0  0
 16 17  1  0  0  0
 17  7  1  0  0  0
 17 13  2  0  0  0
  6  1  2  0  0  0
 32 26  1  0  0  0
 10 18  1  0  0  0
 14 19  1  0  0  0
M  END
> <minimizedAffinity>
-9.84350

$$$$



 35 38  0  0  0  0  0  0  0  0999 V2000
   -0.1296   64.3396   82.4381 C   0  0  0  0  0  0  0  0  0  0  0  0
    0.0235   65.4188   81.5493 C   0  0  0  0  0  0  0  0  0  0  0  0
    0.7761   66.5376   81.9093 C   0  0  0  0  0  0  0  0  0  0  0  0
    1.3394   66.6250   83.1807 C   0  0  0  0  0  0  0  0  0  0  0  0
    1.1841   65.5677   84.0810 C   0  0  0  0  0  0  0  0  0  0  0  0
    0.4610   64.4202   83.7219 C   0  0  0  0  0  0  0  0  0  0  0  0
   -2.2427   60.9333   79.6588 N   0  0  0  0  0  0  0  0  0  0  0  0
   -3.0630   59.8315   79.8996 C   0  0  0  0  0  0  0  0  0  0  0  0
   -3.5062   59.0980   79.0154 O   0  0  0  0  0  0  0  0  0  0  0  0
   -3.3898   59.5607   81.2177 N   0  0  0  0  0  0  0  0  0  0  0  0
   -3.0061   60.2678   82.3348 C   0  0  0  0  0  0  0  0  0  0  0  0
   -3.3473   59.9609   83.4702 O   0  0  0  0  0  0  0  0  0  0  0  0
   -2.1835   61.3723   82.0087 C   0  0  0  0  0  0  0  0  0  0  0  0
   -1.5987   62.3176   82.7914 N   0  0  0  0  0  0  0  0  0  0  0  0
   -0.8986   63.1764   81.9647 C   0  0  0  0  0  0  0  0  0  0  0  0
   -1.0268   62.7898   80.6995 N   0  0  0  0  0  0  0  0  0  0  0  0
   -1.8212   61.6856   80.7355 C   0  0  0  0  0  0  0  0  0  0  0  0
   -3.9841   58.7612   81.3688 H   0  0  0  0  0  0  0  0  0  0  0  0
   -1.6489   62.3967   83.7997 H   0  0  0  0  0  0  0  0  0  0  0  0
   -1.8697   61.2921   78.2956 C   0  0  0  0  0  0  0  0  0  0  0  0
   -3.5614   61.5977   76.4134 C   0  0  0  0  0  0  0  0  0  0  0  0
   -2.8746   62.2269   77.6164 C   0  0  0  0  0  0  0  0  0  0  0  0
    0.9507   67.8904   80.7638 S   0  0  0  0  0  0  0  0  0  0  0  0
    2.0341   67.5598   79.8632 O   0  0  0  0  0  0  0  0  0  0  0  0
   -0.3718   68.1975   80.2593 O   0  0  0  0  0  0  0  0  0  0  0  0
    1.4431   69.1779   81.7421 N   0  0  0  0  0  0  0  0  0  0  0  0
    2.8837   69.5504   81.6994 C   0  0  0  0  0  0  0  0  0  0  0  0
    3.1343   70.8436   82.4955 C   0  0  0  0  0  0  0  0  0  0  0  0
    2.4258   72.0101   81.9275 N   0  0  0  0  0  0  0  0  0  0  0  0
    2.3166   73.0754   82.9215 C   0  0  0  0  0  0  0  0  0  0  0  0
    1.1070   71.6367   81.3743 C   0  0  0  0  0  0  0  0  0  0  0  0
    0.5130   70.3268   81.9269 C   0  0  0  0  0  0  0  0  0  0  0  0
    0.2800   63.3446   84.5582 O   0  0  0  0  0  0  0  0  0  0  0  0
   -0.0855   63.6012   85.9149 C   0  0  0  0  0  0  0  0  0  0  0  0
   -0.8975   62.4164   86.4070 C   0  0  0  0  0  0  0  0  0  0  0  0
 21 22  1  0  0  0
 22 20  1  0  0  0
 20  7  1  0  0  0
  7  8  1  0  0  0
  8  9  2  0  0  0
  8 10  1  0  0  0
 10 11  1  0  0  0
 11 12  2  0  0  0
 11 13  1  0  0  0
 13 14  1  0  0  0
 14 15  1  0  0  0
 15  1  1  0  0  0
  1  2  1  0  0  0
  2  3  2  0  0  0
  3 23  1  0  0  0
 23 24  2  0  0  0
 23 25  2  0  0  0
 23 26  1  0  0  0
 26 27  1  0  0  0
 27 28  1  0  0  0
 28 29  1  0  0  0
 29 30  1  0  0  0
 29 31  1  0  0  0
 31 32  1  0  0  0
  3  4  1  0  0  0
  4  5  2  0  0  0
  5  6  1  0  0  0
  6 33  1  0  0  0
 33 34  1  0  0  0
 34 35  1  0  0  0
 15 16  2  0  0  0
 16 17  1  0  0  0
 17  7  1  0  0  0
 17 13  2  0  0  0
  6  1  2  0  0  0
 32 26  1  0  0  0
 10 18  1  0  0  0
 14 19  1  0  0  0
M  END
> <minimizedAffinity>
-9.58700

$$$$



 35 38  0  0  0  0  0  0  0  0999 V2000
    2.1756   65.9150   84.6439 C   0  0  0  0  0  0  0  0  0  0  0  0
    1.6840   66.7369   83.6139 C   0  0  0  0  0  0  0  0  0  0  0  0
    2.5399   67.5822   82.9064 C   0  0  0  0  0  0  0  0  0  0  0  0
    3.8873   67.6654   83.2515 C   0  0  0  0  0  0  0  0  0  0  0  0
    4.3886   66.8664   84.2823 C   0  0  0  0  0  0  0  0  0  0  0  0
    3.5489   65.9847   84.9796 C   0  0  0  0  0  0  0  0  0  0  0  0
   -1.4966   62.8452   85.5839 N   0  0  0  0  0  0  0  0  0  0  0  0
   -1.9934   62.2205   86.7275 C   0  0  0  0  0  0  0  0  0  0  0  0
   -2.9735   61.4751   86.7330 O   0  0  0  0  0  0  0  0  0  0  0  0
   -1.3337   62.4645   87.9203 N   0  0  0  0  0  0  0  0  0  0  0  0
   -0.2368   63.2728   88.1171 C   0  0  0  0  0  0  0  0  0  0  0  0
    0.2836   63.4385   89.2132 O   0  0  0  0  0  0  0  0  0  0  0  0
    0.2027   63.8751   86.9142 C   0  0  0  0  0  0  0  0  0  0  0  0
    1.2285   64.7309   86.6619 N   0  0  0  0  0  0  0  0  0  0  0  0
    1.2169   65.0170   85.3095 C   0  0  0  0  0  0  0  0  0  0  0  0
    0.2227   64.3626   84.7180 N   0  0  0  0  0  0  0  0  0  0  0  0
   -0.3975   63.6691   85.7111 C   0  0  0  0  0  0  0  0  0  0  0  0
   -1.7098   62.0043   88.7339 H   0  0  0  0  0  0  0  0  0  0  0  0
    1.8960   65.1021   87.3268 H   0  0  0  0  0  0  0  0  0  0  0  0
   -2.1484   62.6507   84.2942 C   0  0  0  0  0  0  0  0  0  0  0  0
   -2.4835   60.9083   82.4640 C   0  0  0  0  0  0  0  0  0  0  0  0
   -1.5154   61.5371   83.4550 C   0  0  0  0  0  0  0  0  0  0  0  0
    1.8885   68.6136   81.6085 S   0  0  0  0  0  0  0  0  0  0  0  0
    1.9313   67.8471   80.3818 O   0  0  0  0  0  0  0  0  0  0  0  0
    0.6455   69.1776   82.0931 O   0  0  0  0  0  0  0  0  0  0  0  0
    3.0160   69.8678   81.4945 N   0  0  0  0  0  0  0  0  0  0  0  0
    3.6367   70.1032   80.1621 C   0  0  0  0  0  0  0  0  0  0  0  0
    4.4928   71.3822   80.1800 C   0  0  0  0  0  0  0  0  0  0  0  0
    3.6961   72.5988   80.4455 N   0  0  0  0  0  0  0  0  0  0  0  0
    4.5608   73.6883   80.8929 C   0  0  0  0  0  0  0  0  0  0  0  0
    2.5985   72.3398   81.4009 C   0  0  0  0  0  0  0  0  0  0  0  0
    2.7907   71.1019   82.2979 C   0  0  0  0  0  0  0  0  0  0  0  0
    3.9827   65.1676   85.9960 O   0  0  0  0  0  0  0  0  0  0  0  0
    5.3808   65.1404   86.2873 C   0  0  0  0  0  0  0  0  0  0  0  0
    5.5520   65.4573   87.7623 C   0  0  0  0  0  0  0  0  0  0  0  0
 21 22  1  0  0  0
 22 20  1  0  0  0
 20  7  1  0  0  0
  7  8  1  0  0  0
  8  9  2  0  0  0
  8 10  1  0  0  0
 10 11  1  0  0  0
 11 12  2  0  0  0
 11 13  1  0  0  0
 13 14  1  0  0  0
 14 15  1  0  0  0
 15  1  1  0  0  0
  1  2  1  0  0  0
  2  3  2  0  0  0
  3 23  1  0  0  0
 23 24  2  0  0  0
 23 25  2  0  0  0
 23 26  1  0  0  0
 26 27  1  0  0  0
 27 28  1  0  0  0
 28 29  1  0  0  0
 29 30  1  0  0  0
 29 31  1  0  0  0
 31 32  1  0  0  0
  3  4  1  0  0  0
  4  5  2  0  0  0
  5  6  1  0  0  0
  6 33  1  0  0  0
 33 34  1  0  0  0
 34 35  1  0  0  0
 15 16  2  0  0  0
 16 17  1  0  0  0
 17  7  1  0  0  0
 17 13  2  0  0  0
  6  1  2  0  0  0
 32 26  1  0  0  0
 10 18  1  0  0  0
 14 19  1  0  0  0
M  END
> <minimizedAffinity>
-9.55083

$$$$



 35 38  0  0  0  0  0  0  0  0999 V2000
    2.2485   66.4583   84.0257 C   0  0  0  0  0  0  0  0  0  0  0  0
    1.7816   67.4593   83.1550 C   0  0  0  0  0  0  0  0  0  0  0  0
    2.6043   68.5250   82.7875 C   0  0  0  0  0  0  0  0  0  0  0  0
    3.8839   68.6420   83.3264 C   0  0  0  0  0  0  0  0  0  0  0  0
    4.3575   67.6638   84.2046 C   0  0  0  0  0  0  0  0  0  0  0  0
    3.5563   66.5669   84.5560 C   0  0  0  0  0  0  0  0  0  0  0  0
   -0.7183   63.3036   86.2704 N   0  0  0  0  0  0  0  0  0  0  0  0
   -1.4306   62.1695   85.8813 C   0  0  0  0  0  0  0  0  0  0  0  0
   -2.1241   61.4976   86.6452 O   0  0  0  0  0  0  0  0  0  0  0  0
   -1.3408   61.7898   84.5527 N   0  0  0  0  0  0  0  0  0  0  0  0
   -0.6108   62.4001   83.5578 C   0  0  0  0  0  0  0  0  0  0  0  0
   -0.5823   61.9922   82.4033 O   0  0  0  0  0  0  0  0  0  0  0  0
    0.0879   63.5360   84.0312 C   0  0  0  0  0  0  0  0  0  0  0  0
    0.9138   64.4101   83.3972 N   0  0  0  0  0  0  0  0  0  0  0  0
    1.3355   65.3427   84.3264 C   0  0  0  0  0  0  0  0  0  0  0  0
    0.7934   65.0772   85.5106 N   0  0  0  0  0  0  0  0  0  0  0  0
    0.0341   63.9639   85.3213 C   0  0  0  0  0  0  0  0  0  0  0  0
   -1.8621   60.9674   84.2935 H   0  0  0  0  0  0  0  0  0  0  0  0
    1.1830   64.4024   82.4209 H   0  0  0  0  0  0  0  0  0  0  0  0
   -0.7495   63.7555   87.6565 C   0  0  0  0  0  0  0  0  0  0  0  0
    0.2628   62.0646   89.2731 C   0  0  0  0  0  0  0  0  0  0  0  0
    0.4825   63.3325   88.4616 C   0  0  0  0  0  0  0  0  0  0  0  0
    1.9851   69.7793   81.6847 S   0  0  0  0  0  0  0  0  0  0  0  0
    1.6206   69.1267   80.4456 O   0  0  0  0  0  0  0  0  0  0  0  0
    1.0198   70.5634   82.4273 O   0  0  0  0  0  0  0  0  0  0  0  0
    3.3341   70.7564   81.3974 N   0  0  0  0  0  0  0  0  0  0  0  0
    4.0235   70.5936   80.0881 C   0  0  0  0  0  0  0  0  0  0  0  0
    5.1074   71.6713   79.9072 C   0  0  0  0  0  0  0  0  0  0  0  0
    4.5513   73.0405   79.8733 N   0  0  0  0  0  0  0  0  0  0  0  0
    5.5961   74.0235   80.1507 C   0  0  0  0  0  0  0  0  0  0  0  0
    3.3995   73.1890   80.7877 C   0  0  0  0  0  0  0  0  0  0  0  0
    3.3277   72.1502   81.9233 C   0  0  0  0  0  0  0  0  0  0  0  0
    3.9670   65.5687   85.4068 O   0  0  0  0  0  0  0  0  0  0  0  0
    5.3696   65.3984   85.6170 C   0  0  0  0  0  0  0  0  0  0  0  0
    5.6272   65.4853   87.1107 C   0  0  0  0  0  0  0  0  0  0  0  0
 21 22  1  0  0  0
 22 20  1  0  0  0
 20  7  1  0  0  0
  7  8  1  0  0  0
  8  9  2  0  0  0
  8 10  1  0  0  0
 10 11  1  0  0  0
 11 12  2  0  0  0
 11 13  1  0  0  0
 13 14  1  0  0  0
 14 15  1  0  0  0
 15  1  1  0  0  0
  1  2  1  0  0  0
  2  3  2  0  0  0
  3 23  1  0  0  0
 23 24  2  0  0  0
 23 25  2  0  0  0
 23 26  1  0  0  0
 26 27  1  0  0  0
 27 28  1  0  0  0
 28 29  1  0  0  0
 29 30  1  0  0  0
 29 31  1  0  0  0
 31 32  1  0  0  0
  3  4  1  0  0  0
  4  5  2  0  0  0
  5  6  1  0  0  0
  6 33  1  0  0  0
 33 34  1  0  0  0
 34 35  1  0  0  0
 15 16  2  0  0  0
 16 17  1  0  0  0
 17  7  1  0  0  0
 17 13  2  0  0  0
  6  1  2  0  0  0
 32 26  1  0  0  0
 10 18  1  0  0  0
 14 19  1  0  0  0
M  END
> <minimizedAffinity>
-9.39243

$$$$



 35 38  0  0  0  0  0  0  0  0999 V2000
    2.3091   67.2786   83.5643 C   0  0  0  0  0  0  0  0  0  0  0  0
    1.7516   68.0481   82.5273 C   0  0  0  0  0  0  0  0  0  0  0  0
    2.4618   69.1107   81.9670 C   0  0  0  0  0  0  0  0  0  0  0  0
    3.7135   69.4606   82.4692 C   0  0  0  0  0  0  0  0  0  0  0  0
    4.2752   68.7156   83.5093 C   0  0  0  0  0  0  0  0  0  0  0  0
    3.5899   67.6217   84.0595 C   0  0  0  0  0  0  0  0  0  0  0  0
   -0.5331   63.3290   83.9034 N   0  0  0  0  0  0  0  0  0  0  0  0
   -1.0490   62.5708   84.9540 C   0  0  0  0  0  0  0  0  0  0  0  0
   -1.7819   61.5933   84.8012 O   0  0  0  0  0  0  0  0  0  0  0  0
   -0.7073   62.9545   86.2399 N   0  0  0  0  0  0  0  0  0  0  0  0
    0.0826   64.0192   86.6110 C   0  0  0  0  0  0  0  0  0  0  0  0
    0.3307   64.2927   87.7787 O   0  0  0  0  0  0  0  0  0  0  0  0
    0.5610   64.7419   85.4923 C   0  0  0  0  0  0  0  0  0  0  0  0
    1.3536   65.8433   85.4077 N   0  0  0  0  0  0  0  0  0  0  0  0
    1.5154   66.1453   84.0684 C   0  0  0  0  0  0  0  0  0  0  0  0
    0.8546   65.2646   83.3239 N   0  0  0  0  0  0  0  0  0  0  0  0
    0.2676   64.4108   84.2060 C   0  0  0  0  0  0  0  0  0  0  0  0
   -1.0917   62.3938   86.9836 H   0  0  0  0  0  0  0  0  0  0  0  0
    1.7659   66.3631   86.1727 H   0  0  0  0  0  0  0  0  0  0  0  0
   -0.8625   62.9972   82.5222 C   0  0  0  0  0  0  0  0  0  0  0  0
   -3.0234   62.5452   81.2480 C   0  0  0  0  0  0  0  0  0  0  0  0
   -2.2224   63.5403   82.0743 C   0  0  0  0  0  0  0  0  0  0  0  0
    1.7293   70.0690   80.6563 S   0  0  0  0  0  0  0  0  0  0  0  0
    2.7322   70.2340   79.6263 O   0  0  0  0  0  0  0  0  0  0  0  0
    0.4435   69.4731   80.3574 O   0  0  0  0  0  0  0  0  0  0  0  0
    1.4480   71.5734   81.3740 N   0  0  0  0  0  0  0  0  0  0  0  0
    2.2253   72.7305   80.8517 C   0  0  0  0  0  0  0  0  0  0  0  0
    1.7265   74.0462   81.4756 C   0  0  0  0  0  0  0  0  0  0  0  0
    0.3218   74.3468   81.1270 N   0  0  0  0  0  0  0  0  0  0  0  0
   -0.2405   75.3175   82.0631 C   0  0  0  0  0  0  0  0  0  0  0  0
   -0.4995   73.1206   81.0466 C   0  0  0  0  0  0  0  0  0  0  0  0
    0.0626   71.9057   81.8095 C   0  0  0  0  0  0  0  0  0  0  0  0
    4.0916   66.8454   85.0766 O   0  0  0  0  0  0  0  0  0  0  0  0
    5.2864   66.1025   84.8296 C   0  0  0  0  0  0  0  0  0  0  0  0
    5.5275   65.2026   86.0284 C   0  0  0  0  0  0  0  0  0  0  0  0
 21 22  1  0  0  0
 22 20  1  0  0  0
 20  7  1  0  0  0
  7  8  1  0  0  0
  8  9  2  0  0  0
  8 10  1  0  0  0
 10 11  1  0  0  0
 11 12  2  0  0  0
 11 13  1  0  0  0
 13 14  1  0  0  0
 14 15  1  0  0  0
 15  1  1  0  0  0
  1  2  1  0  0  0
  2  3  2  0  0  0
  3 23  1  0  0  0
 23 24  2  0  0  0
 23 25  2  0  0  0
 23 26  1  0  0  0
 26 27  1  0  0  0
 27 28  1  0  0  0
 28 29  1  0  0  0
 29 30  1  0  0  0
 29 31  1  0  0  0
 31 32  1  0  0  0
  3  4  1  0  0  0
  4  5  2  0  0  0
  5  6  1  0  0  0
  6 33  1  0  0  0
 33 34  1  0  0  0
 34 35  1  0  0  0
 15 16  2  0  0  0
 16 17  1  0  0  0
 17  7  1  0  0  0
 17 13  2  0  0  0
  6  1  2  0  0  0
 32 26  1  0  0  0
 10 18  1  0  0  0
 14 19  1  0  0  0
M  END
> <minimizedAffinity>
-9.28167

$$$$



 35 38  0  0  0  0  0  0  0  0999 V2000
    2.1392   66.2371   84.1627 C   0  0  0  0  0  0  0  0  0  0  0  0
    1.7085   67.1666   83.1991 C   0  0  0  0  0  0  0  0  0  0  0  0
    2.5461   68.2026   82.7834 C   0  0  0  0  0  0  0  0  0  0  0  0
    3.8031   68.3640   83.3624 C   0  0  0  0  0  0  0  0  0  0  0  0
    4.2403   67.4579   84.3320 C   0  0  0  0  0  0  0  0  0  0  0  0
    3.4248   66.3895   84.7350 C   0  0  0  0  0  0  0  0  0  0  0  0
   -0.8418   63.2025   86.5496 N   0  0  0  0  0  0  0  0  0  0  0  0
   -1.5765   62.0676   86.2074 C   0  0  0  0  0  0  0  0  0  0  0  0
   -2.2689   61.4314   87.0022 O   0  0  0  0  0  0  0  0  0  0  0  0
   -1.5115   61.6439   84.8907 N   0  0  0  0  0  0  0  0  0  0  0  0
   -0.7869   62.2105   83.8664 C   0  0  0  0  0  0  0  0  0  0  0  0
   -0.7811   61.7653   82.7255 O   0  0  0  0  0  0  0  0  0  0  0  0
   -0.0645   63.3502   84.2930 C   0  0  0  0  0  0  0  0  0  0  0  0
    0.7652   64.1906   83.6195 N   0  0  0  0  0  0  0  0  0  0  0  0
    1.2141   65.1460   84.5121 C   0  0  0  0  0  0  0  0  0  0  0  0
    0.6852   64.9272   85.7117 N   0  0  0  0  0  0  0  0  0  0  0  0
   -0.0934   63.8203   85.5692 C   0  0  0  0  0  0  0  0  0  0  0  0
   -2.0488   60.8217   84.6655 H   0  0  0  0  0  0  0  0  0  0  0  0
    1.0202   64.1473   82.6404 H   0  0  0  0  0  0  0  0  0  0  0  0
   -0.8463   63.6992   87.9206 C   0  0  0  0  0  0  0  0  0  0  0  0
    0.2412   61.9988   89.4773 C   0  0  0  0  0  0  0  0  0  0  0  0
    0.4026   63.3049   88.7141 C   0  0  0  0  0  0  0  0  0  0  0  0
    1.9725   69.3663   81.5629 S   0  0  0  0  0  0  0  0  0  0  0  0
    0.8214   70.0454   82.1176 O   0  0  0  0  0  0  0  0  0  0  0  0
    3.1279   70.1094   81.1037 O   0  0  0  0  0  0  0  0  0  0  0  0
    1.4510   68.3828   80.2909 N   0  0  0  0  0  0  0  0  0  0  0  0
    2.2515   67.1605   80.0060 C   0  0  0  0  0  0  0  0  0  0  0  0
    1.5500   66.2850   78.9521 C   0  0  0  0  0  0  0  0  0  0  0  0
    0.2390   65.7792   79.4111 N   0  0  0  0  0  0  0  0  0  0  0  0
   -0.5712   65.3527   78.2725 C   0  0  0  0  0  0  0  0  0  0  0  0
   -0.4691   66.7687   80.2503 C   0  0  0  0  0  0  0  0  0  0  0  0
   -0.0134   68.2288   80.0652 C   0  0  0  0  0  0  0  0  0  0  0  0
    3.8003   65.4612   85.6763 O   0  0  0  0  0  0  0  0  0  0  0  0
    5.1956   65.2211   85.8654 C   0  0  0  0  0  0  0  0  0  0  0  0
    5.5019   65.4117   87.3403 C   0  0  0  0  0  0  0  0  0  0  0  0
 21 22  1  0  0  0
 22 20  1  0  0  0
 20  7  1  0  0  0
  7  8  1  0  0  0
  8  9  2  0  0  0
  8 10  1  0  0  0
 10 11  1  0  0  0
 11 12  2  0  0  0
 11 13  1  0  0  0
 13 14  1  0  0  0
 14 15  1  0  0  0
 15  1  1  0  0  0
  1  2  1  0  0  0
  2  3  2  0  0  0
  3 23  1  0  0  0
 23 24  2  0  0  0
 23 25  2  0  0  0
 23 26  1  0  0  0
 26 27  1  0  0  0
 27 28  1  0  0  0
 28 29  1  0  0  0
 29 30  1  0  0  0
 29 31  1  0  0  0
 31 32  1  0  0  0
  3  4  1  0  0  0
  4  5  2  0  0  0
  5  6  1  0  0  0
  6 33  1  0  0  0
 33 34  1  0  0  0
 34 35  1  0  0  0
 15 16  2  0  0  0
 16 17  1  0  0  0
 17  7  1  0  0  0
 17 13  2  0  0  0
  6  1  2  0  0  0
 32 26  1  0  0  0
 10 18  1  0  0  0
 14 19  1  0  0  0
M  END
> <minimizedAffinity>
-9.14507

$$$$



 35 38  0  0  0  0  0  0  0  0999 V2000
    2.2027   66.5788   83.8847 C   0  0  0  0  0  0  0  0  0  0  0  0
    1.7162   67.5191   82.9587 C   0  0  0  0  0  0  0  0  0  0  0  0
    2.4995   68.6061   82.5681 C   0  0  0  0  0  0  0  0  0  0  0  0
    3.7559   68.8060   83.1365 C   0  0  0  0  0  0  0  0  0  0  0  0
    4.2478   67.8892   84.0691 C   0  0  0  0  0  0  0  0  0  0  0  0
    3.4879   66.7714   84.4457 C   0  0  0  0  0  0  0  0  0  0  0  0
   -0.6127   63.3387   86.2015 N   0  0  0  0  0  0  0  0  0  0  0  0
   -1.2941   62.1795   85.8315 C   0  0  0  0  0  0  0  0  0  0  0  0
   -1.9497   61.4887   86.6119 O   0  0  0  0  0  0  0  0  0  0  0  0
   -1.2175   61.7960   84.5031 N   0  0  0  0  0  0  0  0  0  0  0  0
   -0.5279   62.4252   83.4913 C   0  0  0  0  0  0  0  0  0  0  0  0
   -0.5082   62.0126   82.3384 O   0  0  0  0  0  0  0  0  0  0  0  0
    0.1416   63.5862   83.9458 C   0  0  0  0  0  0  0  0  0  0  0  0
    0.9253   64.4841   83.2917 N   0  0  0  0  0  0  0  0  0  0  0  0
    1.3336   65.4350   84.2083 C   0  0  0  0  0  0  0  0  0  0  0  0
    0.8238   65.1577   85.4041 N   0  0  0  0  0  0  0  0  0  0  0  0
    0.0986   64.0188   85.2347 C   0  0  0  0  0  0  0  0  0  0  0  0
   -1.7160   60.9554   84.2579 H   0  0  0  0  0  0  0  0  0  0  0  0
    1.1756   64.4803   82.3105 H   0  0  0  0  0  0  0  0  0  0  0  0
   -0.6320   63.7964   87.5858 C   0  0  0  0  0  0  0  0  0  0  0  0
    0.2762   62.1610   89.3173 C   0  0  0  0  0  0  0  0  0  0  0  0
    0.5817   63.3328   88.3963 C   0  0  0  0  0  0  0  0  0  0  0  0
    1.8561   69.7821   81.3952 S   0  0  0  0  0  0  0  0  0  0  0  0
    2.7716   69.8240   80.2754 O   0  0  0  0  0  0  0  0  0  0  0  0
    0.4546   69.4713   81.2023 O   0  0  0  0  0  0  0  0  0  0  0  0
    1.9506   71.2557   82.2181 N   0  0  0  0  0  0  0  0  0  0  0  0
    3.2632   71.9577   82.2041 C   0  0  0  0  0  0  0  0  0  0  0  0
    3.1376   73.3570   82.8328 C   0  0  0  0  0  0  0  0  0  0  0  0
    2.2275   74.2431   82.0766 N   0  0  0  0  0  0  0  0  0  0  0  0
    1.7897   75.3589   82.9120 C   0  0  0  0  0  0  0  0  0  0  0  0
    1.0835   73.5000   81.5076 C   0  0  0  0  0  0  0  0  0  0  0  0
    0.7664   72.1592   82.1972 C   0  0  0  0  0  0  0  0  0  0  0  0
    3.9188   65.8305   85.3500 O   0  0  0  0  0  0  0  0  0  0  0  0
    5.2956   65.4510   85.3219 C   0  0  0  0  0  0  0  0  0  0  0  0
    5.8816   65.7349   86.6935 C   0  0  0  0  0  0  0  0  0  0  0  0
 21 22  1  0  0  0
 22 20  1  0  0  0
 20  7  1  0  0  0
  7  8  1  0  0  0
  8  9  2  0  0  0
  8 10  1  0  0  0
 10 11  1  0  0  0
 11 12  2  0  0  0
 11 13  1  0  0  0
 13 14  1  0  0  0
 14 15  1  0  0  0
 15  1  1  0  0  0
  1  2  1  0  0  0
  2  3  2  0  0  0
  3 23  1  0  0  0
 23 24  2  0  0  0
 23 25  2  0  0  0
 23 26  1  0  0  0
 26 27  1  0  0  0
 27 28  1  0  0  0
 28 29  1  0  0  0
 29 30  1  0  0  0
 29 31  1  0  0  0
 31 32  1  0  0  0
  3  4  1  0  0  0
  4  5  2  0  0  0
  5  6  1  0  0  0
  6 33  1  0  0  0
 33 34  1  0  0  0
 34 35  1  0  0  0
 15 16  2  0  0  0
 16 17  1  0  0  0
 17  7  1  0  0  0
 17 13  2  0  0  0
  6  1  2  0  0  0
 32 26  1  0  0  0
 10 18  1  0  0  0
 14 19  1  0  0  0
M  END
> <minimizedAffinity>
-9.09278

$$$$



 35 38  0  0  0  0  0  0  0  0999 V2000
    0.2881   63.7768   83.7518 C   0  0  0  0  0  0  0  0  0  0  0  0
    1.1005   64.8788   83.4294 C   0  0  0  0  0  0  0  0  0  0  0  0
    1.6144   65.7031   84.4314 C   0  0  0  0  0  0  0  0  0  0  0  0
    1.2803   65.4780   85.7653 C   0  0  0  0  0  0  0  0  0  0  0  0
    0.4621   64.3963   86.1011 C   0  0  0  0  0  0  0  0  0  0  0  0
   -0.0333   63.5365   85.1091 C   0  0  0  0  0  0  0  0  0  0  0  0
   -0.2827   61.6561   79.3965 N   0  0  0  0  0  0  0  0  0  0  0  0
   -1.1295   60.6766   78.8783 C   0  0  0  0  0  0  0  0  0  0  0  0
   -1.1061   60.2971   77.7072 O   0  0  0  0  0  0  0  0  0  0  0  0
   -2.0462   60.1077   79.7463 N   0  0  0  0  0  0  0  0  0  0  0  0
   -2.2328   60.4073   81.0769 C   0  0  0  0  0  0  0  0  0  0  0  0
   -3.0758   59.8570   81.7744 O   0  0  0  0  0  0  0  0  0  0  0  0
   -1.3434   61.4125   81.5257 C   0  0  0  0  0  0  0  0  0  0  0  0
   -1.1919   61.9982   82.7431 N   0  0  0  0  0  0  0  0  0  0  0  0
   -0.1746   62.9287   82.6405 C   0  0  0  0  0  0  0  0  0  0  0  0
    0.3103   62.9329   81.4030 N   0  0  0  0  0  0  0  0  0  0  0  0
   -0.4164   62.0037   80.7247 C   0  0  0  0  0  0  0  0  0  0  0  0
   -2.6486   59.4033   79.3511 H   0  0  0  0  0  0  0  0  0  0  0  0
   -1.7146   61.8022   83.5880 H   0  0  0  0  0  0  0  0  0  0  0  0
    0.6970   62.3135   78.5396 C   0  0  0  0  0  0  0  0  0  0  0  0
    0.4592   64.8385   78.2841 C   0  0  0  0  0  0  0  0  0  0  0  0
    0.1116   63.4683   77.7218 C   0  0  0  0  0  0  0  0  0  0  0  0
    2.6386   67.0929   83.9929 S   0  0  0  0  0  0  0  0  0  0  0  0
    2.8929   67.0133   82.5705 O   0  0  0  0  0  0  0  0  0  0  0  0
    2.0339   68.2718   84.5782 O   0  0  0  0  0  0  0  0  0  0  0  0
    4.0864   66.7931   84.8122 N   0  0  0  0  0  0  0  0  0  0  0  0
    4.4661   65.3689   85.0202 C   0  0  0  0  0  0  0  0  0  0  0  0
    5.8837   65.2652   85.6107 C   0  0  0  0  0  0  0  0  0  0  0  0
    6.9203   65.8038   84.7049 N   0  0  0  0  0  0  0  0  0  0  0  0
    8.1436   66.0999   85.4470 C   0  0  0  0  0  0  0  0  0  0  0  0
    6.4356   66.9795   83.9517 C   0  0  0  0  0  0  0  0  0  0  0  0
    5.2364   67.7121   84.5835 C   0  0  0  0  0  0  0  0  0  0  0  0
   -0.8345   62.4521   85.3757 O   0  0  0  0  0  0  0  0  0  0  0  0
   -1.2186   62.2162   86.7311 C   0  0  0  0  0  0  0  0  0  0  0  0
   -2.6765   62.6148   86.8746 C   0  0  0  0  0  0  0  0  0  0  0  0
 21 22  1  0  0  0
 22 20  1  0  0  0
 20  7  1  0  0  0
  7  8  1  0  0  0
  8  9  2  0  0  0
  8 10  1  0  0  0
 10 11  1  0  0  0
 11 12  2  0  0  0
 11 13  1  0  0  0
 13 14  1  0  0  0
 14 15  1  0  0  0
 15  1  1  0  0  0
  1  2  1  0  0  0
  2  3  2  0  0  0
  3 23  1  0  0  0
 23 24  2  0  0  0
 23 25  2  0  0  0
 23 26  1  0  0  0
 26 27  1  0  0  0
 27 28  1  0  0  0
 28 29  1  0  0  0
 29 30  1  0  0  0
 29 31  1  0  0  0
 31 32  1  0  0  0
  3  4  1  0  0  0
  4  5  2  0  0  0
  5  6  1  0  0  0
  6 33  1  0  0  0
 33 34  1  0  0  0
 34 35  1  0  0  0
 15 16  2  0  0  0
 16 17  1  0  0  0
 17  7  1  0  0  0
 17 13  2  0  0  0
  6  1  2  0  0  0
 32 26  1  0  0  0
 10 18  1  0  0  0
 14 19  1  0  0  0
M  END
> <minimizedAffinity>
-9.04039

$$$$



 35 38  0  0  0  0  0  0  0  0999 V2000
    0.6360   64.4040   83.9001 C   0  0  0  0  0  0  0  0  0  0  0  0
    0.5333   63.6116   82.7426 C   0  0  0  0  0  0  0  0  0  0  0  0
   -0.1181   62.3779   82.7787 C   0  0  0  0  0  0  0  0  0  0  0  0
   -0.6262   61.8874   83.9799 C   0  0  0  0  0  0  0  0  0  0  0  0
   -0.5192   62.6557   85.1420 C   0  0  0  0  0  0  0  0  0  0  0  0
    0.1006   63.9142   85.1154 C   0  0  0  0  0  0  0  0  0  0  0  0
    2.0594   68.7991   82.3353 N   0  0  0  0  0  0  0  0  0  0  0  0
    2.9593   69.7643   82.7863 C   0  0  0  0  0  0  0  0  0  0  0  0
    3.1772   70.8268   82.2036 O   0  0  0  0  0  0  0  0  0  0  0  0
    3.6410   69.4953   83.9612 N   0  0  0  0  0  0  0  0  0  0  0  0
    3.5444   68.3658   84.7423 C   0  0  0  0  0  0  0  0  0  0  0  0
    4.1922   68.2055   85.7692 O   0  0  0  0  0  0  0  0  0  0  0  0
    2.6191   67.4330   84.2164 C   0  0  0  0  0  0  0  0  0  0  0  0
    2.2287   66.2087   84.6601 N   0  0  0  0  0  0  0  0  0  0  0  0
    1.2962   65.7136   83.7677 C   0  0  0  0  0  0  0  0  0  0  0  0
    1.0938   66.5930   82.7919 N   0  0  0  0  0  0  0  0  0  0  0  0
    1.9136   67.6422   83.0723 C   0  0  0  0  0  0  0  0  0  0  0  0
    4.2868   70.2052   84.2682 H   0  0  0  0  0  0  0  0  0  0  0  0
    2.5462   65.7275   85.4927 H   0  0  0  0  0  0  0  0  0  0  0  0
    1.3174   69.0031   81.0967 C   0  0  0  0  0  0  0  0  0  0  0  0
   -0.0857   71.1275   80.9699 C   0  0  0  0  0  0  0  0  0  0  0  0
   -0.0566   69.6448   81.3099 C   0  0  0  0  0  0  0  0  0  0  0  0
   -0.2307   61.3950   81.2975 S   0  0  0  0  0  0  0  0  0  0  0  0
    1.0605   60.7762   81.0877 O   0  0  0  0  0  0  0  0  0  0  0  0
   -1.4332   60.5946   81.4053 O   0  0  0  0  0  0  0  0  0  0  0  0
   -0.4789   62.5401   80.0791 N   0  0  0  0  0  0  0  0  0  0  0  0
    0.6305   62.7499   79.1089 C   0  0  0  0  0  0  0  0  0  0  0  0
    0.1840   63.6789   77.9658 C   0  0  0  0  0  0  0  0  0  0  0  0
   -0.9171   63.1070   77.1623 N   0  0  0  0  0  0  0  0  0  0  0  0
   -1.5978   64.1568   76.4079 C   0  0  0  0  0  0  0  0  0  0  0  0
   -1.8587   62.3290   77.9946 C   0  0  0  0  0  0  0  0  0  0  0  0
   -1.8432   62.6740   79.4962 C   0  0  0  0  0  0  0  0  0  0  0  0
    0.2295   64.7203   86.2211 O   0  0  0  0  0  0  0  0  0  0  0  0
   -0.0435   64.1527   87.5031 C   0  0  0  0  0  0  0  0  0  0  0  0
    1.2667   63.6321   88.0668 C   0  0  0  0  0  0  0  0  0  0  0  0
 21 22  1  0  0  0
 22 20  1  0  0  0
 20  7  1  0  0  0
  7  8  1  0  0  0
  8  9  2  0  0  0
  8 10  1  0  0  0
 10 11  1  0  0  0
 11 12  2  0  0  0
 11 13  1  0  0  0
 13 14  1  0  0  0
 14 15  1  0  0  0
 15  1  1  0  0  0
  1  2  1  0  0  0
  2  3  2  0  0  0
  3 23  1  0  0  0
 23 24  2  0  0  0
 23 25  2  0  0  0
 23 26  1  0  0  0
 26 27  1  0  0  0
 27 28  1  0  0  0
 28 29  1  0  0  0
 29 30  1  0  0  0
 29 31  1  0  0  0
 31 32  1  0  0  0
  3  4  1  0  0  0
  4  5  2  0  0  0
  5  6  1  0  0  0
  6 33  1  0  0  0
 33 34  1  0  0  0
 34 35  1  0  0  0
 15 16  2  0  0  0
 16 17  1  0  0  0
 17  7  1  0  0  0
 17 13  2  0  0  0
  6  1  2  0  0  0
 32 26  1  0  0  0
 10 18  1  0  0  0
 14 19  1  0  0  0
M  END
> <minimizedAffinity>
-8.97245

$$$$
