
     RDKit          3D

 65 70  0  0  0  0  0  0  0  0999 V2000
   -3.1885   -2.6862   -3.1991 C   0  0  0  0  0  0  0  0  0  0  0  0
   -2.4316   -3.3834   -2.0777 C   0  0  0  0  0  0  0  0  0  0  0  0
   -1.3585   -2.5491   -1.5539 N   0  0  0  0  0  0  0  0  0  0  0  0
   -0.0883   -2.6418   -2.1665 C   0  0  0  0  0  0  0  0  0  0  0  0
    0.1499   -3.3934   -3.1108 O   0  0  0  0  0  0  0  0  0  0  0  0
    0.9281   -1.7548   -1.5905 C   0  0  0  0  0  0  0  0  0  0  0  0
    2.2397   -1.6163   -1.9596 N   0  0  0  0  0  0  0  0  0  0  0  0
    2.7420   -0.6883   -1.1614 C   0  0  0  0  0  0  0  0  0  0  0  0
    4.1533   -0.1781   -1.2485 C   0  0  0  0  0  0  0  0  0  0  0  0
    5.0505   -0.6203   -0.1129 C   0  0  0  0  0  0  0  0  0  0  0  0
    5.8627    0.3135    0.5487 C   0  0  0  0  0  0  0  0  0  0  0  0
    6.7013   -0.0877    1.5899 C   0  0  0  0  0  0  0  0  0  0  0  0
    6.7473   -1.4267    1.9727 C   0  0  0  0  0  0  0  0  0  0  0  0
    5.9615   -2.3673    1.3100 C   0  0  0  0  0  0  0  0  0  0  0  0
    5.1226   -1.9686    0.2685 C   0  0  0  0  0  0  0  0  0  0  0  0
    1.7846   -0.2365   -0.2564 N   0  0  0  0  0  0  0  0  0  0  0  0
    2.0300    0.7145    0.8162 C   0  0  0  0  0  0  0  0  0  0  0  0
    2.0876    2.1522    0.3563 C   0  0  0  0  0  0  0  0  0  0  0  0
    2.9855    3.0315    0.9839 C   0  0  0  0  0  0  0  0  0  0  0  0
    3.0489    4.3750    0.6104 C   0  0  0  0  0  0  0  0  0  0  0  0
    2.2076    4.8616   -0.3865 C   0  0  0  0  0  0  0  0  0  0  0  0
    1.2995    4.0071   -1.0064 C   0  0  0  0  0  0  0  0  0  0  0  0
    1.2338    2.6629   -0.6339 C   0  0  0  0  0  0  0  0  0  0  0  0
    0.6232   -0.9008   -0.5541 C   0  0  0  0  0  0  0  0  0  0  0  0
   -0.6249   -0.8279   -0.0506 N   0  0  0  0  0  0  0  0  0  0  0  0
   -1.1328   -0.0562    1.0498 C   0  0  0  0  0  0  0  0  0  0  0  0
   -2.6447   -0.3914    0.9966 C   0  0  1  0  0  0  0  0  0  0  0  0
   -3.4771    0.8233    0.5522 C   0  0  0  0  0  0  0  0  0  0  0  0
   -4.9553    0.6628    0.8252 C   0  0  0  0  0  0  0  0  0  0  0  0
   -5.7528   -0.1231   -0.0170 C   0  0  0  0  0  0  0  0  0  0  0  0
   -7.1166   -0.2762    0.2364 C   0  0  0  0  0  0  0  0  0  0  0  0
   -7.6972    0.3544    1.3348 C   0  0  0  0  0  0  0  0  0  0  0  0
   -6.9139    1.1361    2.1816 C   0  0  0  0  0  0  0  0  0  0  0  0
   -5.5490    1.2891    1.9300 C   0  0  0  0  0  0  0  0  0  0  0  0
   -2.8051   -1.5068    0.0012 N   0  0  0  0  0  0  0  0  0  0  0  0
   -1.6240   -1.6397   -0.5366 C   0  0  0  0  0  0  0  0  0  0  0  0
   -3.9880   -3.3312   -3.5761 H   0  0  0  0  0  0  0  0  0  0  0  0
   -3.6390   -1.7510   -2.8509 H   0  0  0  0  0  0  0  0  0  0  0  0
   -2.5218   -2.4442   -4.0332 H   0  0  0  0  0  0  0  0  0  0  0  0
   -2.0145   -4.3253   -2.4512 H   0  0  0  0  0  0  0  0  0  0  0  0
   -3.1271   -3.6383   -1.2705 H   0  0  0  0  0  0  0  0  0  0  0  0
    4.6030   -0.5303   -2.1859 H   0  0  0  0  0  0  0  0  0  0  0  0
    4.1329    0.9156   -1.3188 H   0  0  0  0  0  0  0  0  0  0  0  0
    5.8512    1.3608    0.2536 H   0  0  0  0  0  0  0  0  0  0  0  0
    7.3273    0.6425    2.0963 H   0  0  0  0  0  0  0  0  0  0  0  0
    7.4050   -1.7406    2.7790 H   0  0  0  0  0  0  0  0  0  0  0  0
    6.0070   -3.4149    1.5968 H   0  0  0  0  0  0  0  0  0  0  0  0
    4.5258   -2.7186   -0.2499 H   0  0  0  0  0  0  0  0  0  0  0  0
    2.9672    0.4186    1.2968 H   0  0  0  0  0  0  0  0  0  0  0  0
    1.2617    0.6057    1.5821 H   0  0  0  0  0  0  0  0  0  0  0  0
    3.6484    2.6756    1.7709 H   0  0  0  0  0  0  0  0  0  0  0  0
    3.7535    5.0435    1.0991 H   0  0  0  0  0  0  0  0  0  0  0  0
    2.2572    5.9074   -0.6791 H   0  0  0  0  0  0  0  0  0  0  0  0
    0.6404    4.3874   -1.7834 H   0  0  0  0  0  0  0  0  0  0  0  0
    0.5108    2.0239   -1.1373 H   0  0  0  0  0  0  0  0  0  0  0  0
   -0.7125   -0.4096    1.9979 H   0  0  0  0  0  0  0  0  0  0  0  0
   -0.9406    1.0152    0.9421 H   0  0  0  0  0  0  0  0  0  0  0  0
   -2.9751   -0.7432    1.9817 H   0  0  0  0  0  0  0  0  0  0  0  0
   -3.1276    1.7214    1.0781 H   0  0  0  0  0  0  0  0  0  0  0  0
   -3.3314    1.0248   -0.5172 H   0  0  0  0  0  0  0  0  0  0  0  0
   -5.3094   -0.6296   -0.8721 H   0  0  0  0  0  0  0  0  0  0  0  0
   -7.7233   -0.8915   -0.4223 H   0  0  0  0  0  0  0  0  0  0  0  0
   -8.7589    0.2337    1.5318 H   0  0  0  0  0  0  0  0  0  0  0  0
   -7.3665    1.6263    3.0394 H   0  0  0  0  0  0  0  0  0  0  0  0
   -4.9550    1.9025    2.6029 H   0  0  0  0  0  0  0  0  0  0  0  0
  1  2  1  0
  2  3  1  0
  3  4  1  0
  4  5  2  0
  4  6  1  0
  6  7  1  0
  7  8  2  0
  8  9  1  0
  9 10  1  0
 10 11  2  0
 11 12  1  0
 12 13  2  0
 13 14  1  0
 14 15  2  0
  8 16  1  0
 16 17  1  0
 17 18  1  0
 18 19  2  0
 19 20  1  0
 20 21  2  0
 21 22  1  0
 22 23  2  0
 16 24  1  0
 24 25  1  0
 25 26  1  0
 26 27  1  0
 27 28  1  0
 28 29  1  0
 29 30  2  0
 30 31  1  0
 31 32  2  0
 32 33  1  0
 33 34  2  0
 27 35  1  0
 35 36  2  0
 36  3  1  0
 24  6  2  0
 36 25  1  0
 15 10  1  0
 23 18  1  0
 34 29  1  0
  1 37  1  0
  1 38  1  0
  1 39  1  0
  2 40  1  0
  2 41  1  0
  9 42  1  0
  9 43  1  0
 11 44  1  0
 12 45  1  0
 13 46  1  0
 14 47  1  0
 15 48  1  0
 17 49  1  0
 17 50  1  0
 19 51  1  0
 20 52  1  0
 21 53  1  0
 22 54  1  0
 23 55  1  0
 26 56  1  0
 26 57  1  0
 27 58  1  1
 28 59  1  0
 28 60  1  0
 30 61  1  0
 31 62  1  0
 32 63  1  0
 33 64  1  0
 34 65  1  0
M  END
$$$$
