
     RDKit          3D

 49 52  0  0  0  0  0  0  0  0999 V2000
    0.1672   -4.9618   -0.2571 C   0  0  0  0  0  0  0  0  0  0  0  0
    1.3284   -4.4871    0.6059 C   0  0  0  0  0  0  0  0  0  0  0  0
    0.8876   -3.4824    1.6691 C   0  0  0  0  0  0  0  0  0  0  0  0
    0.2709   -2.3343    1.0810 O   0  0  0  0  0  0  0  0  0  0  0  0
    1.0283   -1.2445    0.7393 C   0  0  0  0  0  0  0  0  0  0  0  0
    2.4262   -1.2301    0.7797 C   0  0  0  0  0  0  0  0  0  0  0  0
    3.1426   -0.0823    0.4223 C   0  0  0  0  0  0  0  0  0  0  0  0
    2.4867    1.0825    0.0141 C   0  0  0  0  0  0  0  0  0  0  0  0
    3.2743    2.2598   -0.3488 C   0  0  0  0  0  0  0  0  0  0  0  0
    2.7729    3.5423   -0.4675 C   0  0  0  0  0  0  0  0  0  0  0  0
    4.0234    4.6318   -0.9051 S   0  0  0  0  0  0  0  0  0  0  0  0
    5.1419    3.3298   -0.8954 C   0  0  0  0  0  0  0  0  0  0  0  0
    6.5733    3.5744   -1.2189 C   0  0  0  0  0  0  0  0  0  0  0  0
    4.6388    2.1542   -0.5877 N   0  0  0  0  0  0  0  0  0  0  0  0
    1.0882    1.0647   -0.0433 C   0  0  0  0  0  0  0  0  0  0  0  0
    0.3478   -0.0838    0.3111 C   0  0  0  0  0  0  0  0  0  0  0  0
   -1.1502    0.0238    0.1996 C   0  0  0  0  0  0  0  0  0  0  0  0
   -1.7126    1.1787   -0.0504 N   0  0  0  0  0  0  0  0  0  0  0  0
   -3.0660    1.1276   -0.1295 C   0  0  0  0  0  0  0  0  0  0  0  0
   -3.8746    0.0287    0.0213 C   0  0  0  0  0  0  0  0  0  0  0  0
   -5.1926    0.4881   -0.1487 C   0  0  0  0  0  0  0  0  0  0  0  0
   -6.4473   -0.2977   -0.0838 C   0  0  0  0  0  0  0  0  0  0  0  0
   -5.2179    1.8089   -0.3951 N   0  0  0  0  0  0  0  0  0  0  0  0
   -3.9114    2.1714   -0.3777 N   0  0  0  0  0  0  0  0  0  0  0  0
   -3.5585    3.5490   -0.6094 C   0  0  0  0  0  0  0  0  0  0  0  0
   -3.2645   -1.2370    0.2964 C   0  0  0  0  0  0  0  0  0  0  0  0
   -3.8766   -2.2859    0.4598 O   0  0  0  0  0  0  0  0  0  0  0  0
   -1.8874   -1.1484    0.3624 N   0  0  0  0  0  0  0  0  0  0  0  0
   -0.6144   -5.4216    0.3561 H   0  0  0  0  0  0  0  0  0  0  0  0
   -0.2775   -4.1333   -0.8174 H   0  0  0  0  0  0  0  0  0  0  0  0
    0.5145   -5.7074   -0.9792 H   0  0  0  0  0  0  0  0  0  0  0  0
    2.0824   -4.0408   -0.0510 H   0  0  0  0  0  0  0  0  0  0  0  0
    1.7901   -5.3508    1.0969 H   0  0  0  0  0  0  0  0  0  0  0  0
    1.7032   -3.2143    2.3497 H   0  0  0  0  0  0  0  0  0  0  0  0
    0.1231   -3.9506    2.3008 H   0  0  0  0  0  0  0  0  0  0  0  0
    3.0070   -2.0972    1.0763 H   0  0  0  0  0  0  0  0  0  0  0  0
    4.2312   -0.1069    0.4657 H   0  0  0  0  0  0  0  0  0  0  0  0
    1.7661    3.9040   -0.3208 H   0  0  0  0  0  0  0  0  0  0  0  0
    7.0179    4.2793   -0.5093 H   0  0  0  0  0  0  0  0  0  0  0  0
    7.1419    2.6403   -1.1666 H   0  0  0  0  0  0  0  0  0  0  0  0
    6.6805    3.9776   -2.2308 H   0  0  0  0  0  0  0  0  0  0  0  0
    0.5521    1.9471   -0.3841 H   0  0  0  0  0  0  0  0  0  0  0  0
   -6.5565   -0.7612    0.9019 H   0  0  0  0  0  0  0  0  0  0  0  0
   -7.3259    0.3312   -0.2606 H   0  0  0  0  0  0  0  0  0  0  0  0
   -6.4411   -1.0896   -0.8396 H   0  0  0  0  0  0  0  0  0  0  0  0
   -2.4738    3.6704   -0.5701 H   0  0  0  0  0  0  0  0  0  0  0  0
   -3.9272    3.8370   -1.5972 H   0  0  0  0  0  0  0  0  0  0  0  0
   -4.0278    4.1591    0.1664 H   0  0  0  0  0  0  0  0  0  0  0  0
   -1.4045   -2.0128    0.5693 H   0  0  0  0  0  0  0  0  0  0  0  0
  1  2  1  0
  2  3  1  0
  3  4  1  0
  4  5  1  0
  5  6  1  0
  6  7  2  0
  7  8  1  0
  8  9  1  0
  9 10  2  0
 10 11  1  0
 11 12  1  0
 12 13  1  0
 12 14  2  0
  8 15  2  0
 15 16  1  0
 16 17  1  0
 17 18  2  0
 18 19  1  0
 19 20  2  0
 20 21  1  0
 21 22  1  0
 21 23  2  0
 23 24  1  0
 24 25  1  0
 20 26  1  0
 26 27  2  0
 26 28  1  0
 16  5  2  0
 28 17  1  0
 14  9  1  0
 24 19  1  0
  1 29  1  0
  1 30  1  0
  1 31  1  0
  2 32  1  0
  2 33  1  0
  3 34  1  0
  3 35  1  0
  6 36  1  0
  7 37  1  0
 10 38  1  0
 13 39  1  0
 13 40  1  0
 13 41  1  0
 15 42  1  0
 22 43  1  0
 22 44  1  0
 22 45  1  0
 25 46  1  0
 25 47  1  0
 25 48  1  0
 28 49  1  0
M  END
$$$$
