


 21 23  0  0  0  0  0  0  0  0999 V2000
   -1.7276   62.3087   85.5194 C   0  0  0  0  0  0  0  0  0  0  0  0
   -1.7330   61.6309   86.6851 N   0  0  0  0  0  0  0  0  0  0  0  0
   -0.7047   62.1688   87.3822 N   0  0  0  0  0  0  0  0  0  0  0  0
   -0.0626   63.1531   86.7058 C   0  0  0  0  0  0  0  0  0  0  0  0
    1.0464   63.9475   87.0710 C   0  0  0  0  0  0  0  0  0  0  0  0
    1.6643   63.8676   88.1249 O   0  0  0  0  0  0  0  0  0  0  0  0
    1.3713   64.8426   86.0764 N   0  0  0  0  0  0  0  0  0  0  0  0
    0.6950   64.9231   84.8595 C   0  0  0  0  0  0  0  0  0  0  0  0
   -0.3187   64.1740   84.5221 N   0  0  0  0  0  0  0  0  0  0  0  0
   -0.6986   63.2646   85.5093 C   0  0  0  0  0  0  0  0  0  0  0  0
   -0.5022   61.8116   88.3106 H   0  0  0  0  0  0  0  0  0  0  0  0
    2.1907   65.4004   86.2593 H   0  0  0  0  0  0  0  0  0  0  0  0
    1.2143   65.9370   83.8996 C   0  0  0  0  0  0  0  0  0  0  0  0
    0.8750   65.8176   82.5461 C   0  0  0  0  0  0  0  0  0  0  0  0
    1.3489   66.7474   81.6193 C   0  0  0  0  0  0  0  0  0  0  0  0
    2.1548   67.8037   82.0416 C   0  0  0  0  0  0  0  0  0  0  0  0
    2.4823   67.9375   83.3908 C   0  0  0  0  0  0  0  0  0  0  0  0
    2.0115   67.0089   84.3224 C   0  0  0  0  0  0  0  0  0  0  0  0
   -2.7262   62.0094   84.4548 C   0  0  0  0  0  0  0  0  0  0  0  0
   -3.0179   60.3209   82.5668 C   0  0  0  0  0  0  0  0  0  0  0  0
   -2.1172   61.3696   83.2052 C   0  0  0  0  0  0  0  0  0  0  0  0
 20 21  1  0  0  0
 21 19  1  0  0  0
 19  1  1  0  0  0
  1  2  2  0  0  0
  2  3  1  0  0  0
  3  4  1  0  0  0
  4  5  1  0  0  0
  5  6  2  0  0  0
  5  7  1  0  0  0
  7  8  1  0  0  0
  8 13  1  0  0  0
 13 14  2  0  0  0
 14 15  1  0  0  0
 15 16  2  0  0  0
 16 17  1  0  0  0
 17 18  2  0  0  0
  8  9  2  0  0  0
  9 10  1  0  0  0
 10  1  1  0  0  0
 10  4  2  0  0  0
 18 13  1  0  0  0
  3 11  1  0  0  0
  7 12  1  0  0  0
M  END
> <minimizedAffinity>
-8.60057

$$$$



 21 23  0  0  0  0  0  0  0  0999 V2000
   -1.7282   62.3199   85.5241 C   0  0  0  0  0  0  0  0  0  0  0  0
   -1.7284   61.6462   86.6920 N   0  0  0  0  0  0  0  0  0  0  0  0
   -0.6952   62.1845   87.3816 N   0  0  0  0  0  0  0  0  0  0  0  0
   -0.0550   63.1652   86.6982 C   0  0  0  0  0  0  0  0  0  0  0  0
    1.0575   63.9587   87.0545 C   0  0  0  0  0  0  0  0  0  0  0  0
    1.6812   63.8812   88.1053 O   0  0  0  0  0  0  0  0  0  0  0  0
    1.3786   64.8497   86.0550 N   0  0  0  0  0  0  0  0  0  0  0  0
    0.6957   64.9273   84.8416 C   0  0  0  0  0  0  0  0  0  0  0  0
   -0.3213   64.1791   84.5124 N   0  0  0  0  0  0  0  0  0  0  0  0
   -0.6974   63.2738   85.5049 C   0  0  0  0  0  0  0  0  0  0  0  0
   -0.4882   61.8300   88.3101 H   0  0  0  0  0  0  0  0  0  0  0  0
    2.2001   65.4066   86.2315 H   0  0  0  0  0  0  0  0  0  0  0  0
    1.2116   65.9370   83.8754 C   0  0  0  0  0  0  0  0  0  0  0  0
    2.0133   66.9798   84.3564 C   0  0  0  0  0  0  0  0  0  0  0  0
    2.5088   67.9457   83.4791 C   0  0  0  0  0  0  0  0  0  0  0  0
    2.2137   67.8686   82.1187 C   0  0  0  0  0  0  0  0  0  0  0  0
    1.4298   66.8229   81.6313 C   0  0  0  0  0  0  0  0  0  0  0  0
    0.9303   65.8542   82.5054 C   0  0  0  0  0  0  0  0  0  0  0  0
   -2.7333   62.0189   84.4661 C   0  0  0  0  0  0  0  0  0  0  0  0
   -3.0339   60.3245   82.5848 C   0  0  0  0  0  0  0  0  0  0  0  0
   -2.1318   61.3777   83.2135 C   0  0  0  0  0  0  0  0  0  0  0  0
 20 21  1  0  0  0
 21 19  1  0  0  0
 19  1  1  0  0  0
  1  2  2  0  0  0
  2  3  1  0  0  0
  3  4  1  0  0  0
  4  5  1  0  0  0
  5  6  2  0  0  0
  5  7  1  0  0  0
  7  8  1  0  0  0
  8 13  1  0  0  0
 13 14  2  0  0  0
 14 15  1  0  0  0
 15 16  2  0  0  0
 16 17  1  0  0  0
 17 18  2  0  0  0
  8  9  2  0  0  0
  9 10  1  0  0  0
 10  1  1  0  0  0
 10  4  2  0  0  0
 18 13  1  0  0  0
  3 11  1  0  0  0
  7 12  1  0  0  0
M  END
> <minimizedAffinity>
-8.58077

$$$$



 21 23  0  0  0  0  0  0  0  0999 V2000
   -1.9561   62.4872   86.8689 C   0  0  0  0  0  0  0  0  0  0  0  0
   -2.9088   61.5526   86.6764 N   0  0  0  0  0  0  0  0  0  0  0  0
   -3.0121   61.4620   85.3296 N   0  0  0  0  0  0  0  0  0  0  0  0
   -2.1645   62.2938   84.6753 C   0  0  0  0  0  0  0  0  0  0  0  0
   -1.9686   62.5060   83.2930 C   0  0  0  0  0  0  0  0  0  0  0  0
   -2.5808   61.9467   82.3921 O   0  0  0  0  0  0  0  0  0  0  0  0
   -0.9898   63.4470   83.0637 N   0  0  0  0  0  0  0  0  0  0  0  0
   -0.3066   64.1134   84.0806 C   0  0  0  0  0  0  0  0  0  0  0  0
   -0.5048   63.9243   85.3563 N   0  0  0  0  0  0  0  0  0  0  0  0
   -1.4745   62.9618   85.6378 C   0  0  0  0  0  0  0  0  0  0  0  0
   -3.6832   60.8121   84.9323 H   0  0  0  0  0  0  0  0  0  0  0  0
   -0.8443   63.6796   82.0938 H   0  0  0  0  0  0  0  0  0  0  0  0
    0.6974   65.1178   83.6313 C   0  0  0  0  0  0  0  0  0  0  0  0
    0.6909   65.5219   82.2902 C   0  0  0  0  0  0  0  0  0  0  0  0
    1.6213   66.4574   81.8349 C   0  0  0  0  0  0  0  0  0  0  0  0
    2.5544   66.9990   82.7178 C   0  0  0  0  0  0  0  0  0  0  0  0
    2.5550   66.6131   84.0582 C   0  0  0  0  0  0  0  0  0  0  0  0
    1.6266   65.6762   84.5189 C   0  0  0  0  0  0  0  0  0  0  0  0
   -1.5403   62.8852   88.2433 C   0  0  0  0  0  0  0  0  0  0  0  0
    0.9550   63.3198   88.5358 C   0  0  0  0  0  0  0  0  0  0  0  0
   -0.1830   62.3160   88.6623 C   0  0  0  0  0  0  0  0  0  0  0  0
 20 21  1  0  0  0
 21 19  1  0  0  0
 19  1  1  0  0  0
  1  2  2  0  0  0
  2  3  1  0  0  0
  3  4  1  0  0  0
  4  5  1  0  0  0
  5  6  2  0  0  0
  5  7  1  0  0  0
  7  8  1  0  0  0
  8 13  1  0  0  0
 13 14  2  0  0  0
 14 15  1  0  0  0
 15 16  2  0  0  0
 16 17  1  0  0  0
 17 18  2  0  0  0
  8  9  2  0  0  0
  9 10  1  0  0  0
 10  1  1  0  0  0
 10  4  2  0  0  0
 18 13  1  0  0  0
  3 11  1  0  0  0
  7 12  1  0  0  0
M  END
> <minimizedAffinity>
-8.44103

$$$$



 21 23  0  0  0  0  0  0  0  0999 V2000
   -1.9196   62.5238   86.9371 C   0  0  0  0  0  0  0  0  0  0  0  0
   -2.8759   61.5881   86.7697 N   0  0  0  0  0  0  0  0  0  0  0  0
   -2.9962   61.4786   85.4258 N   0  0  0  0  0  0  0  0  0  0  0  0
   -2.1556   62.2997   84.7492 C   0  0  0  0  0  0  0  0  0  0  0  0
   -1.9767   62.4920   83.3617 C   0  0  0  0  0  0  0  0  0  0  0  0
   -2.6008   61.9209   82.4765 O   0  0  0  0  0  0  0  0  0  0  0  0
   -0.9995   63.4281   83.1070 N   0  0  0  0  0  0  0  0  0  0  0  0
   -0.3028   64.1077   84.1057 C   0  0  0  0  0  0  0  0  0  0  0  0
   -0.4853   63.9370   85.3864 N   0  0  0  0  0  0  0  0  0  0  0  0
   -1.4528   62.9801   85.6935 C   0  0  0  0  0  0  0  0  0  0  0  0
   -3.6731   60.8241   85.0462 H   0  0  0  0  0  0  0  0  0  0  0  0
   -0.8658   63.6467   82.1321 H   0  0  0  0  0  0  0  0  0  0  0  0
    0.6970   65.1041   83.6297 C   0  0  0  0  0  0  0  0  0  0  0  0
    1.6329   65.6066   84.5426 C   0  0  0  0  0  0  0  0  0  0  0  0
    2.5802   66.5454   84.1310 C   0  0  0  0  0  0  0  0  0  0  0  0
    2.6023   66.9785   82.8060 C   0  0  0  0  0  0  0  0  0  0  0  0
    1.6836   66.4691   81.8884 C   0  0  0  0  0  0  0  0  0  0  0  0
    0.7326   65.5301   82.2954 C   0  0  0  0  0  0  0  0  0  0  0  0
   -1.4861   62.9406   88.3004 C   0  0  0  0  0  0  0  0  0  0  0  0
    1.0208   63.3501   88.5199 C   0  0  0  0  0  0  0  0  0  0  0  0
   -0.1278   62.3694   88.7133 C   0  0  0  0  0  0  0  0  0  0  0  0
 20 21  1  0  0  0
 21 19  1  0  0  0
 19  1  1  0  0  0
  1  2  2  0  0  0
  2  3  1  0  0  0
  3  4  1  0  0  0
  4  5  1  0  0  0
  5  6  2  0  0  0
  5  7  1  0  0  0
  7  8  1  0  0  0
  8 13  1  0  0  0
 13 14  2  0  0  0
 14 15  1  0  0  0
 15 16  2  0  0  0
 16 17  1  0  0  0
 17 18  2  0  0  0
  8  9  2  0  0  0
  9 10  1  0  0  0
 10  1  1  0  0  0
 10  4  2  0  0  0
 18 13  1  0  0  0
  3 11  1  0  0  0
  7 12  1  0  0  0
M  END
> <minimizedAffinity>
-8.43041

$$$$



 21 23  0  0  0  0  0  0  0  0999 V2000
   -2.2680   60.6524   81.1949 C   0  0  0  0  0  0  0  0  0  0  0  0
   -3.1352   59.7531   81.7023 N   0  0  0  0  0  0  0  0  0  0  0  0
   -3.2797   60.1296   82.9946 N   0  0  0  0  0  0  0  0  0  0  0  0
   -2.5460   61.2243   83.3135 C   0  0  0  0  0  0  0  0  0  0  0  0
   -2.4134   61.9183   84.5362 C   0  0  0  0  0  0  0  0  0  0  0  0
   -2.9655   61.6214   85.5880 O   0  0  0  0  0  0  0  0  0  0  0  0
   -1.5613   62.9929   84.4131 N   0  0  0  0  0  0  0  0  0  0  0  0
   -0.9027   63.3240   83.2293 C   0  0  0  0  0  0  0  0  0  0  0  0
   -1.0170   62.6679   82.1072 N   0  0  0  0  0  0  0  0  0  0  0  0
   -1.8888   61.5812   82.1780 C   0  0  0  0  0  0  0  0  0  0  0  0
   -3.8943   59.5902   83.5962 H   0  0  0  0  0  0  0  0  0  0  0  0
   -1.3855   63.4948   85.2695 H   0  0  0  0  0  0  0  0  0  0  0  0
    0.0006   64.5062   83.3035 C   0  0  0  0  0  0  0  0  0  0  0  0
    0.2549   65.2327   82.1334 C   0  0  0  0  0  0  0  0  0  0  0  0
    1.1006   66.3425   82.1665 C   0  0  0  0  0  0  0  0  0  0  0  0
    1.6874   66.7359   83.3684 C   0  0  0  0  0  0  0  0  0  0  0  0
    1.4246   66.0264   84.5402 C   0  0  0  0  0  0  0  0  0  0  0  0
    0.5797   64.9141   84.5123 C   0  0  0  0  0  0  0  0  0  0  0  0
   -1.8398   60.5837   79.7694 C   0  0  0  0  0  0  0  0  0  0  0  0
   -3.8231   61.8141   78.7432 C   0  0  0  0  0  0  0  0  0  0  0  0
   -2.3124   61.7721   78.9291 C   0  0  0  0  0  0  0  0  0  0  0  0
 20 21  1  0  0  0
 21 19  1  0  0  0
 19  1  1  0  0  0
  1  2  2  0  0  0
  2  3  1  0  0  0
  3  4  1  0  0  0
  4  5  1  0  0  0
  5  6  2  0  0  0
  5  7  1  0  0  0
  7  8  1  0  0  0
  8 13  1  0  0  0
 13 14  2  0  0  0
 14 15  1  0  0  0
 15 16  2  0  0  0
 16 17  1  0  0  0
 17 18  2  0  0  0
  8  9  2  0  0  0
  9 10  1  0  0  0
 10  1  1  0  0  0
 10  4  2  0  0  0
 18 13  1  0  0  0
  3 11  1  0  0  0
  7 12  1  0  0  0
M  END
> <minimizedAffinity>
-8.40834

$$$$



 21 23  0  0  0  0  0  0  0  0999 V2000
   -0.3672   61.7633   79.6995 C   0  0  0  0  0  0  0  0  0  0  0  0
   -1.0806   60.8256   79.0438 N   0  0  0  0  0  0  0  0  0  0  0  0
   -1.8465   60.2625   80.0076 N   0  0  0  0  0  0  0  0  0  0  0  0
   -1.6458   60.8096   81.2319 C   0  0  0  0  0  0  0  0  0  0  0  0
   -2.2305   60.5073   82.4814 C   0  0  0  0  0  0  0  0  0  0  0  0
   -3.0634   59.6336   82.6859 O   0  0  0  0  0  0  0  0  0  0  0  0
   -1.7381   61.3226   83.4758 N   0  0  0  0  0  0  0  0  0  0  0  0
   -0.7674   62.3008   83.2619 C   0  0  0  0  0  0  0  0  0  0  0  0
   -0.2192   62.5632   82.1073 N   0  0  0  0  0  0  0  0  0  0  0  0
   -0.7036   61.7751   81.0631 C   0  0  0  0  0  0  0  0  0  0  0  0
   -2.4797   59.5108   79.7534 H   0  0  0  0  0  0  0  0  0  0  0  0
   -2.0801   61.1162   84.4013 H   0  0  0  0  0  0  0  0  0  0  0  0
   -0.3424   63.0617   84.4700 C   0  0  0  0  0  0  0  0  0  0  0  0
   -0.6904   62.5670   85.7332 C   0  0  0  0  0  0  0  0  0  0  0  0
   -0.3126   63.2580   86.8856 C   0  0  0  0  0  0  0  0  0  0  0  0
    0.4209   64.4389   86.7812 C   0  0  0  0  0  0  0  0  0  0  0  0
    0.7849   64.9275   85.5265 C   0  0  0  0  0  0  0  0  0  0  0  0
    0.4083   64.2404   84.3699 C   0  0  0  0  0  0  0  0  0  0  0  0
    0.6148   62.6215   78.9788 C   0  0  0  0  0  0  0  0  0  0  0  0
   -0.3960   64.3730   77.4260 C   0  0  0  0  0  0  0  0  0  0  0  0
    0.1901   62.9733   77.5513 C   0  0  0  0  0  0  0  0  0  0  0  0
 20 21  1  0  0  0
 21 19  1  0  0  0
 19  1  1  0  0  0
  1  2  2  0  0  0
  2  3  1  0  0  0
  3  4  1  0  0  0
  4  5  1  0  0  0
  5  6  2  0  0  0
  5  7  1  0  0  0
  7  8  1  0  0  0
  8 13  1  0  0  0
 13 14  2  0  0  0
 14 15  1  0  0  0
 15 16  2  0  0  0
 16 17  1  0  0  0
 17 18  2  0  0  0
  8  9  2  0  0  0
  9 10  1  0  0  0
 10  1  1  0  0  0
 10  4  2  0  0  0
 18 13  1  0  0  0
  3 11  1  0  0  0
  7 12  1  0  0  0
M  END
> <minimizedAffinity>
-8.33005

$$$$



 21 23  0  0  0  0  0  0  0  0999 V2000
   -0.5648   62.2118   80.0042 C   0  0  0  0  0  0  0  0  0  0  0  0
   -0.9444   61.3230   79.0639 N   0  0  0  0  0  0  0  0  0  0  0  0
   -1.7157   60.4394   79.7400 N   0  0  0  0  0  0  0  0  0  0  0  0
   -1.8371   60.7399   81.0566 C   0  0  0  0  0  0  0  0  0  0  0  0
   -2.5359   60.0785   82.0902 C   0  0  0  0  0  0  0  0  0  0  0  0
   -3.1828   59.0463   81.9663 O   0  0  0  0  0  0  0  0  0  0  0  0
   -2.3974   60.7379   83.2910 N   0  0  0  0  0  0  0  0  0  0  0  0
   -1.6389   61.8971   83.4519 C   0  0  0  0  0  0  0  0  0  0  0  0
   -0.9818   62.4935   82.4953 N   0  0  0  0  0  0  0  0  0  0  0  0
   -1.1106   61.8723   81.2530 C   0  0  0  0  0  0  0  0  0  0  0  0
   -2.1226   59.6581   79.2355 H   0  0  0  0  0  0  0  0  0  0  0  0
   -2.8310   60.2811   84.0780 H   0  0  0  0  0  0  0  0  0  0  0  0
   -1.5878   62.4467   84.8355 C   0  0  0  0  0  0  0  0  0  0  0  0
   -2.7298   62.3492   85.6405 C   0  0  0  0  0  0  0  0  0  0  0  0
   -2.7177   62.8586   86.9399 C   0  0  0  0  0  0  0  0  0  0  0  0
   -1.5639   63.4581   87.4428 C   0  0  0  0  0  0  0  0  0  0  0  0
   -0.4182   63.5430   86.6518 C   0  0  0  0  0  0  0  0  0  0  0  0
   -0.4253   63.0357   85.3501 C   0  0  0  0  0  0  0  0  0  0  0  0
    0.3118   63.3658   79.6578 C   0  0  0  0  0  0  0  0  0  0  0  0
   -0.1264   64.6547   77.5020 C   0  0  0  0  0  0  0  0  0  0  0  0
    0.5998   63.4892   78.1599 C   0  0  0  0  0  0  0  0  0  0  0  0
 20 21  1  0  0  0
 21 19  1  0  0  0
 19  1  1  0  0  0
  1  2  2  0  0  0
  2  3  1  0  0  0
  3  4  1  0  0  0
  4  5  1  0  0  0
  5  6  2  0  0  0
  5  7  1  0  0  0
  7  8  1  0  0  0
  8 13  1  0  0  0
 13 14  2  0  0  0
 14 15  1  0  0  0
 15 16  2  0  0  0
 16 17  1  0  0  0
 17 18  2  0  0  0
  8  9  2  0  0  0
  9 10  1  0  0  0
 10  1  1  0  0  0
 10  4  2  0  0  0
 18 13  1  0  0  0
  3 11  1  0  0  0
  7 12  1  0  0  0
M  END
> <minimizedAffinity>
-8.26612

$$$$



 21 23  0  0  0  0  0  0  0  0999 V2000
   -0.8542   63.0531   86.1960 C   0  0  0  0  0  0  0  0  0  0  0  0
   -1.4073   61.8565   85.9125 N   0  0  0  0  0  0  0  0  0  0  0  0
   -1.2052   61.7086   84.5821 N   0  0  0  0  0  0  0  0  0  0  0  0
   -0.5479   62.7559   84.0256 C   0  0  0  0  0  0  0  0  0  0  0  0
   -0.1557   62.9906   82.6894 C   0  0  0  0  0  0  0  0  0  0  0  0
   -0.3684   62.2440   81.7425 O   0  0  0  0  0  0  0  0  0  0  0  0
    0.5041   64.1926   82.5641 N   0  0  0  0  0  0  0  0  0  0  0  0
    0.7260   65.0658   83.6286 C   0  0  0  0  0  0  0  0  0  0  0  0
    0.3458   64.8500   84.8580 N   0  0  0  0  0  0  0  0  0  0  0  0
   -0.3093   63.6316   85.0380 C   0  0  0  0  0  0  0  0  0  0  0  0
   -1.5451   60.8681   84.1254 H   0  0  0  0  0  0  0  0  0  0  0  0
    0.7605   64.4390   81.6210 H   0  0  0  0  0  0  0  0  0  0  0  0
    1.4334   66.3315   83.2869 C   0  0  0  0  0  0  0  0  0  0  0  0
    2.0678   67.0450   84.3116 C   0  0  0  0  0  0  0  0  0  0  0  0
    2.7351   68.2374   84.0269 C   0  0  0  0  0  0  0  0  0  0  0  0
    2.7793   68.7162   82.7183 C   0  0  0  0  0  0  0  0  0  0  0  0
    2.1638   68.0012   81.6909 C   0  0  0  0  0  0  0  0  0  0  0  0
    1.4935   66.8078   81.9706 C   0  0  0  0  0  0  0  0  0  0  0  0
   -0.8680   63.5935   87.5846 C   0  0  0  0  0  0  0  0  0  0  0  0
    0.3197   62.1411   89.3109 C   0  0  0  0  0  0  0  0  0  0  0  0
    0.4239   63.3256   88.3598 C   0  0  0  0  0  0  0  0  0  0  0  0
 20 21  1  0  0  0
 21 19  1  0  0  0
 19  1  1  0  0  0
  1  2  2  0  0  0
  2  3  1  0  0  0
  3  4  1  0  0  0
  4  5  1  0  0  0
  5  6  2  0  0  0
  5  7  1  0  0  0
  7  8  1  0  0  0
  8 13  1  0  0  0
 13 14  2  0  0  0
 14 15  1  0  0  0
 15 16  2  0  0  0
 16 17  1  0  0  0
 17 18  2  0  0  0
  8  9  2  0  0  0
  9 10  1  0  0  0
 10  1  1  0  0  0
 10  4  2  0  0  0
 18 13  1  0  0  0
  3 11  1  0  0  0
  7 12  1  0  0  0
M  END
> <minimizedAffinity>
-8.17253

$$$$



 21 23  0  0  0  0  0  0  0  0999 V2000
    5.0864   66.5546   85.1627 C   0  0  0  0  0  0  0  0  0  0  0  0
    5.6594   67.7142   84.7818 N   0  0  0  0  0  0  0  0  0  0  0  0
    4.7053   68.3233   84.0392 N   0  0  0  0  0  0  0  0  0  0  0  0
    3.5635   67.5981   83.9442 C   0  0  0  0  0  0  0  0  0  0  0  0
    2.3547   67.8705   83.2668 C   0  0  0  0  0  0  0  0  0  0  0  0
    2.1228   68.8679   82.5956 O   0  0  0  0  0  0  0  0  0  0  0  0
    1.4416   66.8549   83.4422 N   0  0  0  0  0  0  0  0  0  0  0  0
    1.7039   65.7000   84.1786 C   0  0  0  0  0  0  0  0  0  0  0  0
    2.8295   65.4474   84.7883 N   0  0  0  0  0  0  0  0  0  0  0  0
    3.7796   66.4603   84.6564 C   0  0  0  0  0  0  0  0  0  0  0  0
    4.9076   69.2299   83.6298 H   0  0  0  0  0  0  0  0  0  0  0  0
    0.5777   66.9694   82.9358 H   0  0  0  0  0  0  0  0  0  0  0  0
    0.5982   64.7030   84.2288 C   0  0  0  0  0  0  0  0  0  0  0  0
    0.2930   64.0984   85.4547 C   0  0  0  0  0  0  0  0  0  0  0  0
   -0.7335   63.1561   85.5359 C   0  0  0  0  0  0  0  0  0  0  0  0
   -1.4639   62.8213   84.3966 C   0  0  0  0  0  0  0  0  0  0  0  0
   -1.1756   63.4324   83.1764 C   0  0  0  0  0  0  0  0  0  0  0  0
   -0.1485   64.3754   83.0894 C   0  0  0  0  0  0  0  0  0  0  0  0
    5.8252   65.5775   86.0110 C   0  0  0  0  0  0  0  0  0  0  0  0
    5.7028   65.4883   88.5562 C   0  0  0  0  0  0  0  0  0  0  0  0
    5.0382   65.1131   87.2386 C   0  0  0  0  0  0  0  0  0  0  0  0
 20 21  1  0  0  0
 21 19  1  0  0  0
 19  1  1  0  0  0
  1  2  2  0  0  0
  2  3  1  0  0  0
  3  4  1  0  0  0
  4  5  1  0  0  0
  5  6  2  0  0  0
  5  7  1  0  0  0
  7  8  1  0  0  0
  8 13  1  0  0  0
 13 14  2  0  0  0
 14 15  1  0  0  0
 15 16  2  0  0  0
 16 17  1  0  0  0
 17 18  2  0  0  0
  8  9  2  0  0  0
  9 10  1  0  0  0
 10  1  1  0  0  0
 10  4  2  0  0  0
 18 13  1  0  0  0
  3 11  1  0  0  0
  7 12  1  0  0  0
M  END
> <minimizedAffinity>
-8.11070

$$$$
