


 43 46  0  0  0  0  0  0  0  0999 V2000
    2.6677   66.5789   84.2297 C   0  0  0  0  0  0  0  0  0  0  0  0
    2.2182   67.4203   83.1956 C   0  0  0  0  0  0  0  0  0  0  0  0
    3.0362   68.4389   82.7060 C   0  0  0  0  0  0  0  0  0  0  0  0
    4.2928   68.6605   83.2651 C   0  0  0  0  0  0  0  0  0  0  0  0
    4.7404   67.8442   84.3082 C   0  0  0  0  0  0  0  0  0  0  0  0
    3.9394   66.8028   84.8033 C   0  0  0  0  0  0  0  0  0  0  0  0
   -0.8350   63.1947   83.5193 C   0  0  0  0  0  0  0  0  0  0  0  0
   -1.4649   62.3457   84.4407 C   0  0  0  0  0  0  0  0  0  0  0  0
   -0.8488   62.5586   85.6751 N   0  0  0  0  0  0  0  0  0  0  0  0
   -1.1413   61.8346   86.8960 C   0  0  0  0  0  0  0  0  0  0  0  0
    0.0859   63.5551   85.5661 C   0  0  0  0  0  0  0  0  0  0  0  0
    0.9258   64.1690   86.5440 C   0  0  0  0  0  0  0  0  0  0  0  0
    0.9479   63.9111   87.7428 O   0  0  0  0  0  0  0  0  0  0  0  0
    1.7344   65.1335   85.9923 N   0  0  0  0  0  0  0  0  0  0  0  0
    1.7300   65.4822   84.6513 C   0  0  0  0  0  0  0  0  0  0  0  0
    0.9614   64.9240   83.7585 N   0  0  0  0  0  0  0  0  0  0  0  0
    0.1148   63.9326   84.2562 C   0  0  0  0  0  0  0  0  0  0  0  0
    2.3704   65.5939   86.6296 H   0  0  0  0  0  0  0  0  0  0  0  0
   -2.5536   61.4091   84.2382 C   0  0  0  0  0  0  0  0  0  0  0  0
   -2.5950   60.5975   83.2298 N   0  0  0  0  0  0  0  0  0  0  0  0
   -3.7619   59.8255   83.3040 O   0  0  0  0  0  0  0  0  0  0  0  0
   -3.6856   59.2603   82.5124 H   0  0  0  0  0  0  0  0  0  0  0  0
   -1.0810   63.3502   82.0475 C   0  0  0  0  0  0  0  0  0  0  0  0
    0.5826   61.4406   81.7300 C   0  0  0  0  0  0  0  0  0  0  0  0
    0.0124   62.7342   81.1688 C   0  0  0  0  0  0  0  0  0  0  0  0
    2.4201   69.5177   81.4299 S   0  0  0  0  0  0  0  0  0  0  0  0
    1.6027   70.5222   82.0740 O   0  0  0  0  0  0  0  0  0  0  0  0
    3.5482   69.8887   80.6002 O   0  0  0  0  0  0  0  0  0  0  0  0
    1.4190   68.5136   80.5201 N   0  0  0  0  0  0  0  0  0  0  0  0
    1.9972   67.2798   79.9287 C   0  0  0  0  0  0  0  0  0  0  0  0
    1.0725   66.0599   80.1097 C   0  0  0  0  0  0  0  0  0  0  0  0
   -0.3155   66.2310   79.6306 N   0  0  0  0  0  0  0  0  0  0  0  0
   -0.7703   67.6361   79.7996 C   0  0  0  0  0  0  0  0  0  0  0  0
   -0.0154   68.4191   80.8905 C   0  0  0  0  0  0  0  0  0  0  0  0
   -0.5090   65.8096   78.2335 C   0  0  0  0  0  0  0  0  0  0  0  0
    0.2756   64.5466   77.8464 C   0  0  0  0  0  0  0  0  0  0  0  0
   -0.4619   63.8768   76.8238 O   0  0  0  0  0  0  0  0  0  0  0  0
   -0.6680   62.5083   77.1117 N   0  0  0  0  0  0  0  0  0  0  0  0
    0.2204   61.7190   76.7846 O   0  0  0  0  0  0  0  0  0  0  0  0
   -1.7500   62.2957   77.6563 O   0  0  0  0  0  0  0  0  0  0  0  0
    4.3241   65.9808   85.8316 O   0  0  0  0  0  0  0  0  0  0  0  0
    5.4193   66.3914   86.6527 C   0  0  0  0  0  0  0  0  0  0  0  0
    5.4330   65.5007   87.8835 C   0  0  0  0  0  0  0  0  0  0  0  0
 24 25  1  0  0  0
 25 23  1  0  0  0
 23  7  1  0  0  0
  7  8  2  0  0  0
  8 19  1  0  0  0
 19 20  2  0  0  0
 20 21  1  0  0  0
  8  9  1  0  0  0
  9 10  1  0  0  0
  9 11  1  0  0  0
 11 12  1  0  0  0
 12 13  2  0  0  0
 12 14  1  0  0  0
 14 15  1  0  0  0
 15  1  1  0  0  0
  1  2  1  0  0  0
  2  3  2  0  0  0
  3 26  1  0  0  0
 26 27  2  0  0  0
 26 28  2  0  0  0
 26 29  1  0  0  0
 29 30  1  0  0  0
 30 31  1  0  0  0
 31 32  1  0  0  0
 32 35  1  0  0  0
 35 36  1  0  0  0
 36 37  1  0  0  0
 37 38  1  0  0  0
 38 39  2  0  0  0
 38 40  1  0  0  0
 32 33  1  0  0  0
 33 34  1  0  0  0
  3  4  1  0  0  0
  4  5  2  0  0  0
  5  6  1  0  0  0
  6 41  1  0  0  0
 41 42  1  0  0  0
 42 43  1  0  0  0
 15 16  2  0  0  0
 16 17  1  0  0  0
 17  7  1  0  0  0
 17 11  2  0  0  0
  6  1  2  0  0  0
 34 29  1  0  0  0
 21 22  1  0  0  0
 14 18  1  0  0  0
M  CHG 1  38   1
M  CHG 1  40  -1
M  END
> <minimizedAffinity>
-10.06334

$$$$



 43 46  0  0  0  0  0  0  0  0999 V2000
    2.4542   66.8661   84.0762 C   0  0  0  0  0  0  0  0  0  0  0  0
    1.8838   67.8040   83.1962 C   0  0  0  0  0  0  0  0  0  0  0  0
    2.6407   68.8706   82.7108 C   0  0  0  0  0  0  0  0  0  0  0  0
    3.9596   69.0420   83.1256 C   0  0  0  0  0  0  0  0  0  0  0  0
    4.5295   68.1283   84.0171 C   0  0  0  0  0  0  0  0  0  0  0  0
    3.7899   67.0385   84.5035 C   0  0  0  0  0  0  0  0  0  0  0  0
   -0.9280   63.3564   83.3915 C   0  0  0  0  0  0  0  0  0  0  0  0
   -1.5044   62.4711   84.3139 C   0  0  0  0  0  0  0  0  0  0  0  0
   -0.8707   62.6917   85.5380 N   0  0  0  0  0  0  0  0  0  0  0  0
   -1.1085   61.9407   86.7544 C   0  0  0  0  0  0  0  0  0  0  0  0
    0.0217   63.7256   85.4235 C   0  0  0  0  0  0  0  0  0  0  0  0
    0.8578   64.3591   86.3922 C   0  0  0  0  0  0  0  0  0  0  0  0
    0.9156   64.0864   87.5865 O   0  0  0  0  0  0  0  0  0  0  0  0
    1.6161   65.3619   85.8374 N   0  0  0  0  0  0  0  0  0  0  0  0
    1.5694   65.7278   84.5018 C   0  0  0  0  0  0  0  0  0  0  0  0
    0.8042   65.1517   83.6174 N   0  0  0  0  0  0  0  0  0  0  0  0
    0.0078   64.1213   84.1187 C   0  0  0  0  0  0  0  0  0  0  0  0
    2.2471   65.8385   86.4676 H   0  0  0  0  0  0  0  0  0  0  0  0
   -2.5598   61.4952   84.1209 C   0  0  0  0  0  0  0  0  0  0  0  0
   -2.5616   60.6582   83.1327 N   0  0  0  0  0  0  0  0  0  0  0  0
   -3.7041   59.8509   83.2113 O   0  0  0  0  0  0  0  0  0  0  0  0
   -3.5991   59.2693   82.4351 H   0  0  0  0  0  0  0  0  0  0  0  0
   -1.2113   63.5215   81.9275 C   0  0  0  0  0  0  0  0  0  0  0  0
    0.5671   61.7238   81.5809 C   0  0  0  0  0  0  0  0  0  0  0  0
   -0.1131   62.9621   81.0176 C   0  0  0  0  0  0  0  0  0  0  0  0
    1.8762   70.0679   81.6367 S   0  0  0  0  0  0  0  0  0  0  0  0
    2.0628   69.6076   80.2783 O   0  0  0  0  0  0  0  0  0  0  0  0
    0.5527   70.3331   82.1629 O   0  0  0  0  0  0  0  0  0  0  0  0
    2.8096   71.4512   81.8676 N   0  0  0  0  0  0  0  0  0  0  0  0
    3.6382   71.9465   80.7388 C   0  0  0  0  0  0  0  0  0  0  0  0
    3.5403   73.4758   80.5730 C   0  0  0  0  0  0  0  0  0  0  0  0
    3.8328   74.2718   81.7839 N   0  0  0  0  0  0  0  0  0  0  0  0
    3.4073   73.5520   83.0129 C   0  0  0  0  0  0  0  0  0  0  0  0
    2.3018   72.5042   82.7823 C   0  0  0  0  0  0  0  0  0  0  0  0
    5.2472   74.6628   81.9003 C   0  0  0  0  0  0  0  0  0  0  0  0
    5.9518   74.8718   80.5511 C   0  0  0  0  0  0  0  0  0  0  0  0
    7.0787   73.9962   80.5124 O   0  0  0  0  0  0  0  0  0  0  0  0
    6.9990   73.0558   79.4600 N   0  0  0  0  0  0  0  0  0  0  0  0
    6.3171   73.3580   78.4788 O   0  0  0  0  0  0  0  0  0  0  0  0
    7.6362   72.0297   79.6914 O   0  0  0  0  0  0  0  0  0  0  0  0
    4.2955   66.1202   85.3879 O   0  0  0  0  0  0  0  0  0  0  0  0
    5.2155   66.5741   86.3828 C   0  0  0  0  0  0  0  0  0  0  0  0
    5.4437   65.4306   87.3568 C   0  0  0  0  0  0  0  0  0  0  0  0
 24 25  1  0  0  0
 25 23  1  0  0  0
 23  7  1  0  0  0
  7  8  2  0  0  0
  8 19  1  0  0  0
 19 20  2  0  0  0
 20 21  1  0  0  0
  8  9  1  0  0  0
  9 10  1  0  0  0
  9 11  1  0  0  0
 11 12  1  0  0  0
 12 13  2  0  0  0
 12 14  1  0  0  0
 14 15  1  0  0  0
 15  1  1  0  0  0
  1  2  1  0  0  0
  2  3  2  0  0  0
  3 26  1  0  0  0
 26 27  2  0  0  0
 26 28  2  0  0  0
 26 29  1  0  0  0
 29 30  1  0  0  0
 30 31  1  0  0  0
 31 32  1  0  0  0
 32 35  1  0  0  0
 35 36  1  0  0  0
 36 37  1  0  0  0
 37 38  1  0  0  0
 38 39  2  0  0  0
 38 40  1  0  0  0
 32 33  1  0  0  0
 33 34  1  0  0  0
  3  4  1  0  0  0
  4  5  2  0  0  0
  5  6  1  0  0  0
  6 41  1  0  0  0
 41 42  1  0  0  0
 42 43  1  0  0  0
 15 16  2  0  0  0
 16 17  1  0  0  0
 17  7  1  0  0  0
 17 11  2  0  0  0
  6  1  2  0  0  0
 34 29  1  0  0  0
 21 22  1  0  0  0
 14 18  1  0  0  0
M  CHG 1  38   1
M  CHG 1  40  -1
M  END
> <minimizedAffinity>
-9.77269

$$$$



 43 46  0  0  0  0  0  0  0  0999 V2000
    2.4019   66.8620   84.0085 C   0  0  0  0  0  0  0  0  0  0  0  0
    1.8692   67.7963   83.1014 C   0  0  0  0  0  0  0  0  0  0  0  0
    2.6509   68.8522   82.6322 C   0  0  0  0  0  0  0  0  0  0  0  0
    3.9565   69.0168   83.0895 C   0  0  0  0  0  0  0  0  0  0  0  0
    4.4885   68.1067   84.0079 C   0  0  0  0  0  0  0  0  0  0  0  0
    3.7238   67.0276   84.4790 C   0  0  0  0  0  0  0  0  0  0  0  0
   -0.9566   63.3480   83.2345 C   0  0  0  0  0  0  0  0  0  0  0  0
   -1.5793   62.4832   84.1460 C   0  0  0  0  0  0  0  0  0  0  0  0
   -1.0037   62.7269   85.3942 N   0  0  0  0  0  0  0  0  0  0  0  0
   -1.3017   62.0012   86.6128 C   0  0  0  0  0  0  0  0  0  0  0  0
   -0.1031   63.7559   85.3015 C   0  0  0  0  0  0  0  0  0  0  0  0
    0.6883   64.4066   86.2959 C   0  0  0  0  0  0  0  0  0  0  0  0
    0.6884   64.1580   87.4968 O   0  0  0  0  0  0  0  0  0  0  0  0
    1.4757   65.3959   85.7577 N   0  0  0  0  0  0  0  0  0  0  0  0
    1.4938   65.7349   84.4143 C   0  0  0  0  0  0  0  0  0  0  0  0
    0.7693   65.1430   83.5064 N   0  0  0  0  0  0  0  0  0  0  0  0
   -0.0536   64.1251   83.9898 C   0  0  0  0  0  0  0  0  0  0  0  0
    2.0778   65.8835   86.4076 H   0  0  0  0  0  0  0  0  0  0  0  0
   -2.6279   61.5063   83.9228 C   0  0  0  0  0  0  0  0  0  0  0  0
   -2.4883   60.5093   83.1081 N   0  0  0  0  0  0  0  0  0  0  0  0
   -3.6642   59.7476   83.1024 O   0  0  0  0  0  0  0  0  0  0  0  0
   -3.4464   59.0372   82.4701 H   0  0  0  0  0  0  0  0  0  0  0  0
   -1.1695   63.4843   81.7556 C   0  0  0  0  0  0  0  0  0  0  0  0
    0.4660   61.5867   81.2669 C   0  0  0  0  0  0  0  0  0  0  0  0
    0.0121   62.9944   80.9125 C   0  0  0  0  0  0  0  0  0  0  0  0
    1.9329   70.0455   81.5222 S   0  0  0  0  0  0  0  0  0  0  0  0
    2.3811   69.7150   80.1874 O   0  0  0  0  0  0  0  0  0  0  0  0
    0.5219   70.1316   81.8390 O   0  0  0  0  0  0  0  0  0  0  0  0
    2.6551   71.4947   81.9874 N   0  0  0  0  0  0  0  0  0  0  0  0
    3.6405   72.1243   81.0714 C   0  0  0  0  0  0  0  0  0  0  0  0
    3.4236   73.6448   80.9405 C   0  0  0  0  0  0  0  0  0  0  0  0
    3.3827   74.3982   82.2118 N   0  0  0  0  0  0  0  0  0  0  0  0
    2.7926   73.5772   83.3014 C   0  0  0  0  0  0  0  0  0  0  0  0
    1.8686   72.4457   82.8123 C   0  0  0  0  0  0  0  0  0  0  0  0
    4.6973   74.9112   82.6311 C   0  0  0  0  0  0  0  0  0  0  0  0
    4.6258   76.0431   83.6676 C   0  0  0  0  0  0  0  0  0  0  0  0
    5.6030   75.7709   84.6721 O   0  0  0  0  0  0  0  0  0  0  0  0
    6.8851   76.2560   84.3272 N   0  0  0  0  0  0  0  0  0  0  0  0
    6.9448   77.3458   83.7545 O   0  0  0  0  0  0  0  0  0  0  0  0
    7.7869   75.4849   84.6505 O   0  0  0  0  0  0  0  0  0  0  0  0
    4.1918   66.1135   85.3881 O   0  0  0  0  0  0  0  0  0  0  0  0
    5.2638   66.5031   86.2491 C   0  0  0  0  0  0  0  0  0  0  0  0
    5.5426   65.3451   87.1924 C   0  0  0  0  0  0  0  0  0  0  0  0
 24 25  1  0  0  0
 25 23  1  0  0  0
 23  7  1  0  0  0
  7  8  2  0  0  0
  8 19  1  0  0  0
 19 20  2  0  0  0
 20 21  1  0  0  0
  8  9  1  0  0  0
  9 10  1  0  0  0
  9 11  1  0  0  0
 11 12  1  0  0  0
 12 13  2  0  0  0
 12 14  1  0  0  0
 14 15  1  0  0  0
 15  1  1  0  0  0
  1  2  1  0  0  0
  2  3  2  0  0  0
  3 26  1  0  0  0
 26 27  2  0  0  0
 26 28  2  0  0  0
 26 29  1  0  0  0
 29 30  1  0  0  0
 30 31  1  0  0  0
 31 32  1  0  0  0
 32 35  1  0  0  0
 35 36  1  0  0  0
 36 37  1  0  0  0
 37 38  1  0  0  0
 38 39  2  0  0  0
 38 40  1  0  0  0
 32 33  1  0  0  0
 33 34  1  0  0  0
  3  4  1  0  0  0
  4  5  2  0  0  0
  5  6  1  0  0  0
  6 41  1  0  0  0
 41 42  1  0  0  0
 42 43  1  0  0  0
 15 16  2  0  0  0
 16 17  1  0  0  0
 17  7  1  0  0  0
 17 11  2  0  0  0
  6  1  2  0  0  0
 34 29  1  0  0  0
 21 22  1  0  0  0
 14 18  1  0  0  0
M  CHG 1  38   1
M  CHG 1  40  -1
M  END
> <minimizedAffinity>
-9.73988

$$$$



 43 46  0  0  0  0  0  0  0  0999 V2000
    2.2535   67.1064   83.5635 C   0  0  0  0  0  0  0  0  0  0  0  0
    1.7218   67.8521   82.4954 C   0  0  0  0  0  0  0  0  0  0  0  0
    2.4426   68.9117   81.9441 C   0  0  0  0  0  0  0  0  0  0  0  0
    3.6806   69.2697   82.4735 C   0  0  0  0  0  0  0  0  0  0  0  0
    4.2082   68.5494   83.5493 C   0  0  0  0  0  0  0  0  0  0  0  0
    3.5063   67.4688   84.1070 C   0  0  0  0  0  0  0  0  0  0  0  0
   -0.9749   63.4227   83.0797 C   0  0  0  0  0  0  0  0  0  0  0  0
   -1.5106   62.5635   84.0499 C   0  0  0  0  0  0  0  0  0  0  0  0
   -0.8846   62.8758   85.2580 N   0  0  0  0  0  0  0  0  0  0  0  0
   -1.0873   62.1806   86.5134 C   0  0  0  0  0  0  0  0  0  0  0  0
   -0.0380   63.9397   85.0852 C   0  0  0  0  0  0  0  0  0  0  0  0
    0.7717   64.6591   86.0155 C   0  0  0  0  0  0  0  0  0  0  0  0
    0.8437   64.4528   87.2223 O   0  0  0  0  0  0  0  0  0  0  0  0
    1.4848   65.6628   85.4053 N   0  0  0  0  0  0  0  0  0  0  0  0
    1.4196   65.9552   84.0524 C   0  0  0  0  0  0  0  0  0  0  0  0
    0.6783   65.3005   83.2030 N   0  0  0  0  0  0  0  0  0  0  0  0
   -0.0717   64.2647   83.7614 C   0  0  0  0  0  0  0  0  0  0  0  0
    2.0958   66.1989   86.0068 H   0  0  0  0  0  0  0  0  0  0  0  0
   -2.5231   61.5341   83.9134 C   0  0  0  0  0  0  0  0  0  0  0  0
   -2.4249   60.5711   83.0530 N   0  0  0  0  0  0  0  0  0  0  0  0
   -3.5503   59.7426   83.1546 O   0  0  0  0  0  0  0  0  0  0  0  0
   -3.3689   59.0649   82.4765 H   0  0  0  0  0  0  0  0  0  0  0  0
   -1.2680   63.4977   81.6102 C   0  0  0  0  0  0  0  0  0  0  0  0
    0.5040   61.6970   81.2472 C   0  0  0  0  0  0  0  0  0  0  0  0
   -0.1316   62.9762   80.7250 C   0  0  0  0  0  0  0  0  0  0  0  0
    1.7219   69.8667   80.6250 S   0  0  0  0  0  0  0  0  0  0  0  0
    2.5333   69.6530   79.4468 O   0  0  0  0  0  0  0  0  0  0  0  0
    0.3011   69.5844   80.6176 O   0  0  0  0  0  0  0  0  0  0  0  0
    1.9288   71.4581   81.1375 N   0  0  0  0  0  0  0  0  0  0  0  0
    1.4019   71.8503   82.4698 C   0  0  0  0  0  0  0  0  0  0  0  0
    2.4050   72.7131   83.2606 C   0  0  0  0  0  0  0  0  0  0  0  0
    2.9112   73.9122   82.5596 N   0  0  0  0  0  0  0  0  0  0  0  0
    3.0114   73.6737   81.0958 C   0  0  0  0  0  0  0  0  0  0  0  0
    3.1452   72.1899   80.7038 C   0  0  0  0  0  0  0  0  0  0  0  0
    2.1102   75.1208   82.8135 C   0  0  0  0  0  0  0  0  0  0  0  0
    1.2196   75.5406   81.6340 C   0  0  0  0  0  0  0  0  0  0  0  0
   -0.0495   74.9096   81.8053 O   0  0  0  0  0  0  0  0  0  0  0  0
   -0.6980   74.6528   80.5758 N   0  0  0  0  0  0  0  0  0  0  0  0
   -0.7649   73.4799   80.2031 O   0  0  0  0  0  0  0  0  0  0  0  0
   -1.1056   75.6775   80.0314 O   0  0  0  0  0  0  0  0  0  0  0  0
    3.9717   66.7366   85.1692 O   0  0  0  0  0  0  0  0  0  0  0  0
    5.0506   67.2712   85.9389 C   0  0  0  0  0  0  0  0  0  0  0  0
    6.2443   66.3476   85.7644 C   0  0  0  0  0  0  0  0  0  0  0  0
 24 25  1  0  0  0
 25 23  1  0  0  0
 23  7  1  0  0  0
  7  8  2  0  0  0
  8 19  1  0  0  0
 19 20  2  0  0  0
 20 21  1  0  0  0
  8  9  1  0  0  0
  9 10  1  0  0  0
  9 11  1  0  0  0
 11 12  1  0  0  0
 12 13  2  0  0  0
 12 14  1  0  0  0
 14 15  1  0  0  0
 15  1  1  0  0  0
  1  2  1  0  0  0
  2  3  2  0  0  0
  3 26  1  0  0  0
 26 27  2  0  0  0
 26 28  2  0  0  0
 26 29  1  0  0  0
 29 30  1  0  0  0
 30 31  1  0  0  0
 31 32  1  0  0  0
 32 35  1  0  0  0
 35 36  1  0  0  0
 36 37  1  0  0  0
 37 38  1  0  0  0
 38 39  2  0  0  0
 38 40  1  0  0  0
 32 33  1  0  0  0
 33 34  1  0  0  0
  3  4  1  0  0  0
  4  5  2  0  0  0
  5  6  1  0  0  0
  6 41  1  0  0  0
 41 42  1  0  0  0
 42 43  1  0  0  0
 15 16  2  0  0  0
 16 17  1  0  0  0
 17  7  1  0  0  0
 17 11  2  0  0  0
  6  1  2  0  0  0
 34 29  1  0  0  0
 21 22  1  0  0  0
 14 18  1  0  0  0
M  CHG 1  38   1
M  CHG 1  40  -1
M  END
> <minimizedAffinity>
-9.32723

$$$$



 43 46  0  0  0  0  0  0  0  0999 V2000
    0.4445   65.3636   82.1502 C   0  0  0  0  0  0  0  0  0  0  0  0
    0.4512   66.4114   81.2113 C   0  0  0  0  0  0  0  0  0  0  0  0
    1.0961   67.6147   81.4983 C   0  0  0  0  0  0  0  0  0  0  0  0
    1.7060   67.8070   82.7360 C   0  0  0  0  0  0  0  0  0  0  0  0
    1.6861   66.7802   83.6848 C   0  0  0  0  0  0  0  0  0  0  0  0
    1.0573   65.5556   83.4088 C   0  0  0  0  0  0  0  0  0  0  0  0
   -0.6803   61.7526   79.0003 C   0  0  0  0  0  0  0  0  0  0  0  0
   -1.5518   60.6647   79.1539 C   0  0  0  0  0  0  0  0  0  0  0  0
   -2.0317   60.7115   80.4639 N   0  0  0  0  0  0  0  0  0  0  0  0
   -2.9080   59.7309   81.0731 C   0  0  0  0  0  0  0  0  0  0  0  0
   -1.5470   61.8243   81.1005 C   0  0  0  0  0  0  0  0  0  0  0  0
   -1.7894   62.3404   82.4096 C   0  0  0  0  0  0  0  0  0  0  0  0
   -2.5427   61.8585   83.2489 O   0  0  0  0  0  0  0  0  0  0  0  0
   -1.0777   63.4918   82.6464 N   0  0  0  0  0  0  0  0  0  0  0  0
   -0.2350   64.0920   81.7247 C   0  0  0  0  0  0  0  0  0  0  0  0
   -0.0155   63.6228   80.5284 N   0  0  0  0  0  0  0  0  0  0  0  0
   -0.7097   62.4508   80.2256 C   0  0  0  0  0  0  0  0  0  0  0  0
   -1.1890   63.8984   83.5656 H   0  0  0  0  0  0  0  0  0  0  0  0
   -1.9407   59.6508   78.1925 C   0  0  0  0  0  0  0  0  0  0  0  0
   -1.0820   58.8681   77.6206 N   0  0  0  0  0  0  0  0  0  0  0  0
   -1.7536   58.0039   76.7457 O   0  0  0  0  0  0  0  0  0  0  0  0
   -1.0225   57.4698   76.3823 H   0  0  0  0  0  0  0  0  0  0  0  0
    0.1320   62.1589   77.8061 C   0  0  0  0  0  0  0  0  0  0  0  0
   -0.5086   64.5202   77.0791 C   0  0  0  0  0  0  0  0  0  0  0  0
   -0.6332   63.0295   76.8043 C   0  0  0  0  0  0  0  0  0  0  0  0
    1.0456   68.9391   80.3087 S   0  0  0  0  0  0  0  0  0  0  0  0
    2.0640   68.6663   79.3185 O   0  0  0  0  0  0  0  0  0  0  0  0
   -0.3402   69.1210   79.9278 O   0  0  0  0  0  0  0  0  0  0  0  0
    1.5153   70.2862   81.2046 N   0  0  0  0  0  0  0  0  0  0  0  0
    2.9251   70.7450   81.1129 C   0  0  0  0  0  0  0  0  0  0  0  0
    3.0300   72.2763   80.9719 C   0  0  0  0  0  0  0  0  0  0  0  0
    2.3224   73.0649   82.0028 N   0  0  0  0  0  0  0  0  0  0  0  0
    1.0923   72.3666   82.4597 C   0  0  0  0  0  0  0  0  0  0  0  0
    0.5199   71.3614   81.4423 C   0  0  0  0  0  0  0  0  0  0  0  0
    3.1639   73.4015   83.1627 C   0  0  0  0  0  0  0  0  0  0  0  0
    3.2909   74.9097   83.4273 C   0  0  0  0  0  0  0  0  0  0  0  0
    4.6582   75.2691   83.2291 O   0  0  0  0  0  0  0  0  0  0  0  0
    5.2455   75.8280   84.3870 N   0  0  0  0  0  0  0  0  0  0  0  0
    6.4685   75.7323   84.5063 O   0  0  0  0  0  0  0  0  0  0  0  0
    4.4174   76.3369   85.1405 O   0  0  0  0  0  0  0  0  0  0  0  0
    0.9981   64.5206   84.3066 O   0  0  0  0  0  0  0  0  0  0  0  0
    0.6857   64.8227   85.6681 C   0  0  0  0  0  0  0  0  0  0  0  0
   -0.1094   63.6560   86.2293 C   0  0  0  0  0  0  0  0  0  0  0  0
 24 25  1  0  0  0
 25 23  1  0  0  0
 23  7  1  0  0  0
  7  8  2  0  0  0
  8 19  1  0  0  0
 19 20  2  0  0  0
 20 21  1  0  0  0
  8  9  1  0  0  0
  9 10  1  0  0  0
  9 11  1  0  0  0
 11 12  1  0  0  0
 12 13  2  0  0  0
 12 14  1  0  0  0
 14 15  1  0  0  0
 15  1  1  0  0  0
  1  2  1  0  0  0
  2  3  2  0  0  0
  3 26  1  0  0  0
 26 27  2  0  0  0
 26 28  2  0  0  0
 26 29  1  0  0  0
 29 30  1  0  0  0
 30 31  1  0  0  0
 31 32  1  0  0  0
 32 35  1  0  0  0
 35 36  1  0  0  0
 36 37  1  0  0  0
 37 38  1  0  0  0
 38 39  2  0  0  0
 38 40  1  0  0  0
 32 33  1  0  0  0
 33 34  1  0  0  0
  3  4  1  0  0  0
  4  5  2  0  0  0
  5  6  1  0  0  0
  6 41  1  0  0  0
 41 42  1  0  0  0
 42 43  1  0  0  0
 15 16  2  0  0  0
 16 17  1  0  0  0
 17  7  1  0  0  0
 17 11  2  0  0  0
  6  1  2  0  0  0
 34 29  1  0  0  0
 21 22  1  0  0  0
 14 18  1  0  0  0
M  CHG 1  38   1
M  CHG 1  40  -1
M  END
> <minimizedAffinity>
-9.32623

$$$$



 43 46  0  0  0  0  0  0  0  0999 V2000
    2.3232   67.0779   83.6635 C   0  0  0  0  0  0  0  0  0  0  0  0
    1.8070   67.8993   82.6445 C   0  0  0  0  0  0  0  0  0  0  0  0
    2.5663   68.9504   82.1300 C   0  0  0  0  0  0  0  0  0  0  0  0
    3.8297   69.2242   82.6494 C   0  0  0  0  0  0  0  0  0  0  0  0
    4.3432   68.4279   83.6774 C   0  0  0  0  0  0  0  0  0  0  0  0
    3.6019   67.3547   84.1969 C   0  0  0  0  0  0  0  0  0  0  0  0
   -0.9036   63.4169   83.0225 C   0  0  0  0  0  0  0  0  0  0  0  0
   -1.5138   62.5804   83.9683 C   0  0  0  0  0  0  0  0  0  0  0  0
   -0.9690   62.9084   85.2109 N   0  0  0  0  0  0  0  0  0  0  0  0
   -1.2648   62.2379   86.4613 C   0  0  0  0  0  0  0  0  0  0  0  0
   -0.1012   63.9610   85.0784 C   0  0  0  0  0  0  0  0  0  0  0  0
    0.6505   64.6893   86.0497 C   0  0  0  0  0  0  0  0  0  0  0  0
    0.6372   64.5040   87.2620 O   0  0  0  0  0  0  0  0  0  0  0  0
    1.4144   65.6750   85.4727 N   0  0  0  0  0  0  0  0  0  0  0  0
    1.4455   65.9436   84.1137 C   0  0  0  0  0  0  0  0  0  0  0  0
    0.7573   65.2808   83.2268 N   0  0  0  0  0  0  0  0  0  0  0  0
   -0.0403   64.2624   83.7501 C   0  0  0  0  0  0  0  0  0  0  0  0
    1.9885   66.2160   86.1055 H   0  0  0  0  0  0  0  0  0  0  0  0
   -2.5255   61.5583   83.7801 C   0  0  0  0  0  0  0  0  0  0  0  0
   -2.3361   60.5218   83.0273 N   0  0  0  0  0  0  0  0  0  0  0  0
   -3.4868   59.7225   83.0412 O   0  0  0  0  0  0  0  0  0  0  0  0
   -3.2324   58.9850   82.4554 H   0  0  0  0  0  0  0  0  0  0  0  0
   -1.0944   63.4682   81.5352 C   0  0  0  0  0  0  0  0  0  0  0  0
   -0.5933   61.6108   79.8578 C   0  0  0  0  0  0  0  0  0  0  0  0
   -0.0245   62.7055   80.7473 C   0  0  0  0  0  0  0  0  0  0  0  0
    1.8663   70.0019   80.8746 S   0  0  0  0  0  0  0  0  0  0  0  0
    2.6679   69.8390   79.6817 O   0  0  0  0  0  0  0  0  0  0  0  0
    0.4386   69.7573   80.8571 O   0  0  0  0  0  0  0  0  0  0  0  0
    2.1163   71.5534   81.4813 N   0  0  0  0  0  0  0  0  0  0  0  0
    1.7653   72.7164   80.6266 C   0  0  0  0  0  0  0  0  0  0  0  0
    1.0151   73.8099   81.4123 C   0  0  0  0  0  0  0  0  0  0  0  0
    1.6820   74.2872   82.6422 N   0  0  0  0  0  0  0  0  0  0  0  0
    2.4524   73.1943   83.2915 C   0  0  0  0  0  0  0  0  0  0  0  0
    1.9601   71.7775   82.9404 C   0  0  0  0  0  0  0  0  0  0  0  0
    2.5574   75.4497   82.4203 C   0  0  0  0  0  0  0  0  0  0  0  0
    3.2048   75.9992   83.7008 C   0  0  0  0  0  0  0  0  0  0  0  0
    2.7946   77.3592   83.8426 O   0  0  0  0  0  0  0  0  0  0  0  0
    1.8773   77.5415   84.9025 N   0  0  0  0  0  0  0  0  0  0  0  0
    2.3344   77.5971   86.0459 O   0  0  0  0  0  0  0  0  0  0  0  0
    0.7120   77.6085   84.5153 O   0  0  0  0  0  0  0  0  0  0  0  0
    4.0525   66.5501   85.2121 O   0  0  0  0  0  0  0  0  0  0  0  0
    5.3145   65.8993   85.0506 C   0  0  0  0  0  0  0  0  0  0  0  0
    5.6290   65.1730   86.3474 C   0  0  0  0  0  0  0  0  0  0  0  0
 24 25  1  0  0  0
 25 23  1  0  0  0
 23  7  1  0  0  0
  7  8  2  0  0  0
  8 19  1  0  0  0
 19 20  2  0  0  0
 20 21  1  0  0  0
  8  9  1  0  0  0
  9 10  1  0  0  0
  9 11  1  0  0  0
 11 12  1  0  0  0
 12 13  2  0  0  0
 12 14  1  0  0  0
 14 15  1  0  0  0
 15  1  1  0  0  0
  1  2  1  0  0  0
  2  3  2  0  0  0
  3 26  1  0  0  0
 26 27  2  0  0  0
 26 28  2  0  0  0
 26 29  1  0  0  0
 29 30  1  0  0  0
 30 31  1  0  0  0
 31 32  1  0  0  0
 32 35  1  0  0  0
 35 36  1  0  0  0
 36 37  1  0  0  0
 37 38  1  0  0  0
 38 39  2  0  0  0
 38 40  1  0  0  0
 32 33  1  0  0  0
 33 34  1  0  0  0
  3  4  1  0  0  0
  4  5  2  0  0  0
  5  6  1  0  0  0
  6 41  1  0  0  0
 41 42  1  0  0  0
 42 43  1  0  0  0
 15 16  2  0  0  0
 16 17  1  0  0  0
 17  7  1  0  0  0
 17 11  2  0  0  0
  6  1  2  0  0  0
 34 29  1  0  0  0
 21 22  1  0  0  0
 14 18  1  0  0  0
M  CHG 1  38   1
M  CHG 1  40  -1
M  END
> <minimizedAffinity>
-9.07068

$$$$



 43 46  0  0  0  0  0  0  0  0999 V2000
   -0.0482   63.9403   84.7552 C   0  0  0  0  0  0  0  0  0  0  0  0
   -0.5021   63.2546   83.6135 C   0  0  0  0  0  0  0  0  0  0  0  0
   -1.5702   62.3615   83.7024 C   0  0  0  0  0  0  0  0  0  0  0  0
   -2.1730   62.1076   84.9325 C   0  0  0  0  0  0  0  0  0  0  0  0
   -1.7153   62.7670   86.0772 C   0  0  0  0  0  0  0  0  0  0  0  0
   -0.6531   63.6823   86.0057 C   0  0  0  0  0  0  0  0  0  0  0  0
    4.5009   65.7047   85.4023 C   0  0  0  0  0  0  0  0  0  0  0  0
    5.0881   66.8792   84.9100 C   0  0  0  0  0  0  0  0  0  0  0  0
    4.1463   67.4846   84.0763 N   0  0  0  0  0  0  0  0  0  0  0  0
    4.3630   68.6888   83.2994 C   0  0  0  0  0  0  0  0  0  0  0  0
    2.9781   66.7680   84.0917 C   0  0  0  0  0  0  0  0  0  0  0  0
    1.7196   67.0056   83.4606 C   0  0  0  0  0  0  0  0  0  0  0  0
    1.4325   67.9706   82.7603 O   0  0  0  0  0  0  0  0  0  0  0  0
    0.8115   66.0122   83.7378 N   0  0  0  0  0  0  0  0  0  0  0  0
    1.0754   64.9161   84.5434 C   0  0  0  0  0  0  0  0  0  0  0  0
    2.2234   64.7001   85.1222 N   0  0  0  0  0  0  0  0  0  0  0  0
    3.1916   65.6749   84.8783 C   0  0  0  0  0  0  0  0  0  0  0  0
   -0.0962   66.1099   83.3030 H   0  0  0  0  0  0  0  0  0  0  0  0
    6.4025   67.4338   85.1717 C   0  0  0  0  0  0  0  0  0  0  0  0
    7.4921   66.8618   84.7683 N   0  0  0  0  0  0  0  0  0  0  0  0
    8.5940   67.6268   85.1729 O   0  0  0  0  0  0  0  0  0  0  0  0
    9.3433   67.1125   84.8179 H   0  0  0  0  0  0  0  0  0  0  0  0
    5.0794   64.6619   86.3128 C   0  0  0  0  0  0  0  0  0  0  0  0
    5.7503   65.5645   88.6040 C   0  0  0  0  0  0  0  0  0  0  0  0
    4.6926   64.8417   87.7842 C   0  0  0  0  0  0  0  0  0  0  0  0
   -2.0900   61.4729   82.2492 S   0  0  0  0  0  0  0  0  0  0  0  0
   -1.5813   60.1239   82.3655 O   0  0  0  0  0  0  0  0  0  0  0  0
   -3.5053   61.7276   82.0738 O   0  0  0  0  0  0  0  0  0  0  0  0
   -1.2677   62.2507   81.0014 N   0  0  0  0  0  0  0  0  0  0  0  0
    0.2136   62.1504   80.9550 C   0  0  0  0  0  0  0  0  0  0  0  0
    0.7329   61.8703   79.5310 C   0  0  0  0  0  0  0  0  0  0  0  0
    0.2704   62.8063   78.4843 N   0  0  0  0  0  0  0  0  0  0  0  0
   -1.1026   63.2966   78.7740 C   0  0  0  0  0  0  0  0  0  0  0  0
   -1.9306   62.3637   79.6781 C   0  0  0  0  0  0  0  0  0  0  0  0
    1.1747   63.9497   78.2801 C   0  0  0  0  0  0  0  0  0  0  0  0
    0.4666   65.3132   78.2672 C   0  0  0  0  0  0  0  0  0  0  0  0
    0.8941   66.0326   79.4238 O   0  0  0  0  0  0  0  0  0  0  0  0
   -0.1887   66.4921   80.2078 N   0  0  0  0  0  0  0  0  0  0  0  0
   -0.6512   67.6031   79.9417 O   0  0  0  0  0  0  0  0  0  0  0  0
   -0.5154   65.6908   81.0816 O   0  0  0  0  0  0  0  0  0  0  0  0
   -0.1574   64.3471   87.0982 O   0  0  0  0  0  0  0  0  0  0  0  0
   -0.4625   63.8358   88.3974 C   0  0  0  0  0  0  0  0  0  0  0  0
    0.6672   62.9052   88.8045 C   0  0  0  0  0  0  0  0  0  0  0  0
 24 25  1  0  0  0
 25 23  1  0  0  0
 23  7  1  0  0  0
  7  8  2  0  0  0
  8 19  1  0  0  0
 19 20  2  0  0  0
 20 21  1  0  0  0
  8  9  1  0  0  0
  9 10  1  0  0  0
  9 11  1  0  0  0
 11 12  1  0  0  0
 12 13  2  0  0  0
 12 14  1  0  0  0
 14 15  1  0  0  0
 15  1  1  0  0  0
  1  2  1  0  0  0
  2  3  2  0  0  0
  3 26  1  0  0  0
 26 27  2  0  0  0
 26 28  2  0  0  0
 26 29  1  0  0  0
 29 30  1  0  0  0
 30 31  1  0  0  0
 31 32  1  0  0  0
 32 35  1  0  0  0
 35 36  1  0  0  0
 36 37  1  0  0  0
 37 38  1  0  0  0
 38 39  2  0  0  0
 38 40  1  0  0  0
 32 33  1  0  0  0
 33 34  1  0  0  0
  3  4  1  0  0  0
  4  5  2  0  0  0
  5  6  1  0  0  0
  6 41  1  0  0  0
 41 42  1  0  0  0
 42 43  1  0  0  0
 15 16  2  0  0  0
 16 17  1  0  0  0
 17  7  1  0  0  0
 17 11  2  0  0  0
  6  1  2  0  0  0
 34 29  1  0  0  0
 21 22  1  0  0  0
 14 18  1  0  0  0
M  CHG 1  38   1
M  CHG 1  40  -1
M  END
> <minimizedAffinity>
-9.01071

$$$$



 43 46  0  0  0  0  0  0  0  0999 V2000
    2.2916   67.1345   83.2051 C   0  0  0  0  0  0  0  0  0  0  0  0
    1.9037   68.0653   82.2240 C   0  0  0  0  0  0  0  0  0  0  0  0
    2.7042   69.1729   81.9435 C   0  0  0  0  0  0  0  0  0  0  0  0
    3.8776   69.3915   82.6621 C   0  0  0  0  0  0  0  0  0  0  0  0
    4.2610   68.4845   83.6545 C   0  0  0  0  0  0  0  0  0  0  0  0
    3.4781   67.3545   83.9399 C   0  0  0  0  0  0  0  0  0  0  0  0
   -0.2912   63.8826   85.8473 C   0  0  0  0  0  0  0  0  0  0  0  0
   -1.0407   62.7748   85.4260 C   0  0  0  0  0  0  0  0  0  0  0  0
   -1.0132   62.7739   84.0303 N   0  0  0  0  0  0  0  0  0  0  0  0
   -1.7217   61.8411   83.1767 C   0  0  0  0  0  0  0  0  0  0  0  0
   -0.2184   63.7943   83.5771 C   0  0  0  0  0  0  0  0  0  0  0  0
    0.1692   64.1696   82.2551 C   0  0  0  0  0  0  0  0  0  0  0  0
   -0.1444   63.5939   81.2186 O   0  0  0  0  0  0  0  0  0  0  0  0
    0.9787   65.2800   82.2541 N   0  0  0  0  0  0  0  0  0  0  0  0
    1.3844   65.9511   83.3964 C   0  0  0  0  0  0  0  0  0  0  0  0
    1.0331   65.6073   84.6039 N   0  0  0  0  0  0  0  0  0  0  0  0
    0.2074   64.4846   84.6731 C   0  0  0  0  0  0  0  0  0  0  0  0
    1.2728   65.6112   81.3450 H   0  0  0  0  0  0  0  0  0  0  0  0
   -1.7315   61.7734   86.2157 C   0  0  0  0  0  0  0  0  0  0  0  0
   -3.0135   61.7930   86.3973 N   0  0  0  0  0  0  0  0  0  0  0  0
   -3.3843   60.7070   87.2012 O   0  0  0  0  0  0  0  0  0  0  0  0
   -4.3512   60.8196   87.2664 H   0  0  0  0  0  0  0  0  0  0  0  0
   -0.0204   64.3735   87.2389 C   0  0  0  0  0  0  0  0  0  0  0  0
    0.3963   62.6527   89.0774 C   0  0  0  0  0  0  0  0  0  0  0  0
    1.0104   63.5349   88.0014 C   0  0  0  0  0  0  0  0  0  0  0  0
    2.1621   70.3586   80.7303 S   0  0  0  0  0  0  0  0  0  0  0  0
    3.0203   70.2142   79.5750 O   0  0  0  0  0  0  0  0  0  0  0  0
    0.7238   70.2288   80.6162 O   0  0  0  0  0  0  0  0  0  0  0  0
    2.4898   71.8411   81.4602 N   0  0  0  0  0  0  0  0  0  0  0  0
    2.7361   73.0217   80.5931 C   0  0  0  0  0  0  0  0  0  0  0  0
    1.9965   74.2770   81.0963 C   0  0  0  0  0  0  0  0  0  0  0  0
    2.2423   74.6433   82.5073 N   0  0  0  0  0  0  0  0  0  0  0  0
    2.4662   73.4343   83.3426 C   0  0  0  0  0  0  0  0  0  0  0  0
    1.8529   72.1440   82.7664 C   0  0  0  0  0  0  0  0  0  0  0  0
    3.3615   75.5835   82.6818 C   0  0  0  0  0  0  0  0  0  0  0  0
    4.6689   74.9213   83.1434 C   0  0  0  0  0  0  0  0  0  0  0  0
    5.4343   75.9106   83.8315 O   0  0  0  0  0  0  0  0  0  0  0  0
    6.8257   75.6766   83.7457 N   0  0  0  0  0  0  0  0  0  0  0  0
    7.4904   75.8210   84.7735 O   0  0  0  0  0  0  0  0  0  0  0  0
    7.1849   75.3628   82.6121 O   0  0  0  0  0  0  0  0  0  0  0  0
    3.8011   66.4404   84.9100 O   0  0  0  0  0  0  0  0  0  0  0  0
    5.0686   66.5615   85.5590 C   0  0  0  0  0  0  0  0  0  0  0  0
    5.7651   65.2144   85.4670 C   0  0  0  0  0  0  0  0  0  0  0  0
 24 25  1  0  0  0
 25 23  1  0  0  0
 23  7  1  0  0  0
  7  8  2  0  0  0
  8 19  1  0  0  0
 19 20  2  0  0  0
 20 21  1  0  0  0
  8  9  1  0  0  0
  9 10  1  0  0  0
  9 11  1  0  0  0
 11 12  1  0  0  0
 12 13  2  0  0  0
 12 14  1  0  0  0
 14 15  1  0  0  0
 15  1  1  0  0  0
  1  2  1  0  0  0
  2  3  2  0  0  0
  3 26  1  0  0  0
 26 27  2  0  0  0
 26 28  2  0  0  0
 26 29  1  0  0  0
 29 30  1  0  0  0
 30 31  1  0  0  0
 31 32  1  0  0  0
 32 35  1  0  0  0
 35 36  1  0  0  0
 36 37  1  0  0  0
 37 38  1  0  0  0
 38 39  2  0  0  0
 38 40  1  0  0  0
 32 33  1  0  0  0
 33 34  1  0  0  0
  3  4  1  0  0  0
  4  5  2  0  0  0
  5  6  1  0  0  0
  6 41  1  0  0  0
 41 42  1  0  0  0
 42 43  1  0  0  0
 15 16  2  0  0  0
 16 17  1  0  0  0
 17  7  1  0  0  0
 17 11  2  0  0  0
  6  1  2  0  0  0
 34 29  1  0  0  0
 21 22  1  0  0  0
 14 18  1  0  0  0
M  CHG 1  38   1
M  CHG 1  40  -1
M  END
> <minimizedAffinity>
-8.86596

$$$$



 43 46  0  0  0  0  0  0  0  0999 V2000
   -0.9289   63.7298   82.9669 C   0  0  0  0  0  0  0  0  0  0  0  0
   -1.7574   63.0019   82.0933 C   0  0  0  0  0  0  0  0  0  0  0  0
   -2.3884   61.8348   82.5245 C   0  0  0  0  0  0  0  0  0  0  0  0
   -2.1716   61.3544   83.8142 C   0  0  0  0  0  0  0  0  0  0  0  0
   -1.3325   62.0582   84.6833 C   0  0  0  0  0  0  0  0  0  0  0  0
   -0.7019   63.2440   84.2741 C   0  0  0  0  0  0  0  0  0  0  0  0
    2.0258   67.6654   83.0554 C   0  0  0  0  0  0  0  0  0  0  0  0
    2.1468   68.7195   82.1385 C   0  0  0  0  0  0  0  0  0  0  0  0
    1.2976   68.4268   81.0699 N   0  0  0  0  0  0  0  0  0  0  0  0
    1.1643   69.2166   79.8621 C   0  0  0  0  0  0  0  0  0  0  0  0
    0.6056   67.2715   81.3248 C   0  0  0  0  0  0  0  0  0  0  0  0
   -0.4085   66.5977   80.5790 C   0  0  0  0  0  0  0  0  0  0  0  0
   -0.8896   66.9685   79.5136 O   0  0  0  0  0  0  0  0  0  0  0  0
   -0.8264   65.4479   81.2049 N   0  0  0  0  0  0  0  0  0  0  0  0
   -0.3359   64.9985   82.4204 C   0  0  0  0  0  0  0  0  0  0  0  0
    0.5879   65.6148   83.1032 N   0  0  0  0  0  0  0  0  0  0  0  0
    1.0566   66.7922   82.5190 C   0  0  0  0  0  0  0  0  0  0  0  0
   -1.5310   64.9109   80.7173 H   0  0  0  0  0  0  0  0  0  0  0  0
    2.9608   69.9177   82.2118 C   0  0  0  0  0  0  0  0  0  0  0  0
    2.5122   71.0358   82.6869 N   0  0  0  0  0  0  0  0  0  0  0  0
    3.5223   72.0047   82.6233 O   0  0  0  0  0  0  0  0  0  0  0  0
    3.0810   72.7875   83.0032 H   0  0  0  0  0  0  0  0  0  0  0  0
    2.7345   67.4549   84.3610 C   0  0  0  0  0  0  0  0  0  0  0  0
    4.3948   65.7817   85.3400 C   0  0  0  0  0  0  0  0  0  0  0  0
    4.0972   66.7688   84.2218 C   0  0  0  0  0  0  0  0  0  0  0  0
   -3.3922   60.9098   81.3806 S   0  0  0  0  0  0  0  0  0  0  0  0
   -3.1780   59.5066   81.6583 O   0  0  0  0  0  0  0  0  0  0  0  0
   -4.7211   61.4857   81.4130 O   0  0  0  0  0  0  0  0  0  0  0  0
   -2.7101   61.2707   79.8831 N   0  0  0  0  0  0  0  0  0  0  0  0
   -1.6231   60.3992   79.3681 C   0  0  0  0  0  0  0  0  0  0  0  0
   -1.8079   60.0596   77.8760 C   0  0  0  0  0  0  0  0  0  0  0  0
   -1.9806   61.2165   76.9719 N   0  0  0  0  0  0  0  0  0  0  0  0
   -2.6960   62.3265   77.6543 C   0  0  0  0  0  0  0  0  0  0  0  0
   -3.5725   61.8806   78.8401 C   0  0  0  0  0  0  0  0  0  0  0  0
   -0.7149   61.7125   76.4073 C   0  0  0  0  0  0  0  0  0  0  0  0
   -0.3886   63.1659   76.7839 C   0  0  0  0  0  0  0  0  0  0  0  0
    0.9238   63.1820   77.3457 O   0  0  0  0  0  0  0  0  0  0  0  0
    0.9831   63.8944   78.5652 N   0  0  0  0  0  0  0  0  0  0  0  0
    1.6104   64.9553   78.5733 O   0  0  0  0  0  0  0  0  0  0  0  0
    0.3876   63.3237   79.4774 O   0  0  0  0  0  0  0  0  0  0  0  0
    0.1392   63.9665   85.0812 O   0  0  0  0  0  0  0  0  0  0  0  0
   -0.0430   63.8827   86.4962 C   0  0  0  0  0  0  0  0  0  0  0  0
    1.3283   63.9706   87.1444 C   0  0  0  0  0  0  0  0  0  0  0  0
 24 25  1  0  0  0
 25 23  1  0  0  0
 23  7  1  0  0  0
  7  8  2  0  0  0
  8 19  1  0  0  0
 19 20  2  0  0  0
 20 21  1  0  0  0
  8  9  1  0  0  0
  9 10  1  0  0  0
  9 11  1  0  0  0
 11 12  1  0  0  0
 12 13  2  0  0  0
 12 14  1  0  0  0
 14 15  1  0  0  0
 15  1  1  0  0  0
  1  2  1  0  0  0
  2  3  2  0  0  0
  3 26  1  0  0  0
 26 27  2  0  0  0
 26 28  2  0  0  0
 26 29  1  0  0  0
 29 30  1  0  0  0
 30 31  1  0  0  0
 31 32  1  0  0  0
 32 35  1  0  0  0
 35 36  1  0  0  0
 36 37  1  0  0  0
 37 38  1  0  0  0
 38 39  2  0  0  0
 38 40  1  0  0  0
 32 33  1  0  0  0
 33 34  1  0  0  0
  3  4  1  0  0  0
  4  5  2  0  0  0
  5  6  1  0  0  0
  6 41  1  0  0  0
 41 42  1  0  0  0
 42 43  1  0  0  0
 15 16  2  0  0  0
 16 17  1  0  0  0
 17  7  1  0  0  0
 17 11  2  0  0  0
  6  1  2  0  0  0
 34 29  1  0  0  0
 21 22  1  0  0  0
 14 18  1  0  0  0
M  CHG 1  38   1
M  CHG 1  40  -1
M  END
> <minimizedAffinity>
-8.83408

$$$$
