
     RDKit          3D

 56 61  0  0  0  0  0  0  0  0999 V2000
    2.1917    2.3796    1.0289 N   0  0  0  0  0  0  0  0  0  0  0  0
    0.9812    1.7942    1.0452 C   0  0  0  0  0  0  0  0  0  0  0  0
   -0.1447    2.3751    0.7061 N   0  0  0  0  0  0  0  0  0  0  0  0
   -1.0923    1.4117    0.8502 C   0  0  0  0  0  0  0  0  0  0  0  0
   -0.5630    0.2384    1.2972 C   0  0  0  0  0  0  0  0  0  0  0  0
   -1.3544   -0.9195    1.5332 C   0  0  0  0  0  0  0  0  0  0  0  0
   -0.8829   -1.9855    1.9192 O   0  0  0  0  0  0  0  0  0  0  0  0
   -2.7142   -0.7239    1.2687 N   0  0  0  0  0  0  0  0  0  0  0  0
   -3.5950   -1.8667    1.4632 C   0  0  0  0  0  0  0  0  0  0  0  0
   -3.5771   -2.7572    0.2507 C   0  0  0  0  0  0  0  0  0  0  0  0
   -4.7762   -3.6090   -0.0822 C   0  0  0  0  0  0  0  0  0  0  0  0
   -4.4180   -2.4425   -0.9609 C   0  0  0  0  0  0  0  0  0  0  0  0
   -3.2924    0.4739    0.8082 C   0  0  0  0  0  0  0  0  0  0  0  0
   -4.5056    0.5675    0.5980 O   0  0  0  0  0  0  0  0  0  0  0  0
   -2.4370    1.5570    0.6016 N   0  0  0  0  0  0  0  0  0  0  0  0
   -2.9783    2.8121    0.0973 C   0  0  0  0  0  0  0  0  0  0  0  0
   -3.0840    2.7795   -1.4013 C   0  0  0  0  0  0  0  0  0  0  0  0
   -1.8901    3.0822   -2.2712 C   0  0  0  0  0  0  0  0  0  0  0  0
   -3.0288    4.0612   -2.1943 C   0  0  0  0  0  0  0  0  0  0  0  0
    0.7821    0.4839    1.4331 N   0  0  0  0  0  0  0  0  0  0  0  0
    1.7853   -0.4071    2.0036 C   0  0  0  0  0  0  0  0  0  0  0  0
    2.7045   -0.9924    0.9490 C   0  0  0  0  0  0  0  0  0  0  0  0
    2.1381   -1.8925    0.0233 C   0  0  0  0  0  0  0  0  0  0  0  0
    2.9039   -2.4644   -0.9846 C   0  0  0  0  0  0  0  0  0  0  0  0
    4.2546   -2.1538   -1.0843 C   0  0  0  0  0  0  0  0  0  0  0  0
    4.8613   -1.2780   -0.1742 C   0  0  0  0  0  0  0  0  0  0  0  0
    6.2313   -0.9947   -0.3003 C   0  0  0  0  0  0  0  0  0  0  0  0
    6.8734   -0.1359    0.5876 C   0  0  0  0  0  0  0  0  0  0  0  0
    6.1515    0.4489    1.6166 C   0  0  0  0  0  0  0  0  0  0  0  0
    4.7872    0.1771    1.7553 C   0  0  0  0  0  0  0  0  0  0  0  0
    4.0973   -0.6855    0.8667 C   0  0  0  0  0  0  0  0  0  0  0  0
    2.9601    1.8365    0.6425 H   0  0  0  0  0  0  0  0  0  0  0  0
    2.1750    3.2967    0.5870 H   0  0  0  0  0  0  0  0  0  0  0  0
   -4.6135   -1.5291    1.6863 H   0  0  0  0  0  0  0  0  0  0  0  0
   -3.2578   -2.4442    2.3320 H   0  0  0  0  0  0  0  0  0  0  0  0
   -2.6013   -3.2035    0.0885 H   0  0  0  0  0  0  0  0  0  0  0  0
   -4.5991   -4.6070   -0.4674 H   0  0  0  0  0  0  0  0  0  0  0  0
   -5.6676   -3.5232    0.5293 H   0  0  0  0  0  0  0  0  0  0  0  0
   -3.9970   -2.6501   -1.9381 H   0  0  0  0  0  0  0  0  0  0  0  0
   -5.0693   -1.5753   -0.9376 H   0  0  0  0  0  0  0  0  0  0  0  0
   -2.3574    3.6475    0.4425 H   0  0  0  0  0  0  0  0  0  0  0  0
   -3.9781    2.9685    0.5191 H   0  0  0  0  0  0  0  0  0  0  0  0
   -3.7798    2.0194   -1.7411 H   0  0  0  0  0  0  0  0  0  0  0  0
   -0.9549    3.3509   -1.7919 H   0  0  0  0  0  0  0  0  0  0  0  0
   -1.7701    2.5067   -3.1817 H   0  0  0  0  0  0  0  0  0  0  0  0
   -3.6797    4.1514   -3.0565 H   0  0  0  0  0  0  0  0  0  0  0  0
   -2.8568    4.9939   -1.6691 H   0  0  0  0  0  0  0  0  0  0  0  0
    2.3070    0.1661    2.7732 H   0  0  0  0  0  0  0  0  0  0  0  0
    1.2861   -1.2165    2.5435 H   0  0  0  0  0  0  0  0  0  0  0  0
    1.0847   -2.1606    0.0872 H   0  0  0  0  0  0  0  0  0  0  0  0
    2.4489   -3.1541   -1.6908 H   0  0  0  0  0  0  0  0  0  0  0  0
    4.8366   -2.6120   -1.8815 H   0  0  0  0  0  0  0  0  0  0  0  0
    6.8157   -1.4484   -1.0986 H   0  0  0  0  0  0  0  0  0  0  0  0
    7.9345    0.0704    0.4762 H   0  0  0  0  0  0  0  0  0  0  0  0
    6.6460    1.1171    2.3174 H   0  0  0  0  0  0  0  0  0  0  0  0
    4.2785    0.6651    2.5820 H   0  0  0  0  0  0  0  0  0  0  0  0
  1  2  1  0
  2  3  2  0
  3  4  1  0
  4  5  2  0
  5  6  1  0
  6  7  2  0
  6  8  1  0
  8  9  1  0
  9 10  1  0
 10 11  1  0
 11 12  1  0
  8 13  1  0
 13 14  2  0
 13 15  1  0
 15 16  1  0
 16 17  1  0
 17 18  1  0
 18 19  1  0
  5 20  1  0
 20 21  1  0
 21 22  1  0
 22 23  2  0
 23 24  1  0
 24 25  2  0
 25 26  1  0
 26 27  2  0
 27 28  1  0
 28 29  2  0
 29 30  1  0
 30 31  2  0
 20  2  1  0
 31 22  1  0
 15  4  1  0
 19 17  1  0
 31 26  1  0
 12 10  1  0
  1 32  1  0
  1 33  1  0
  9 34  1  0
  9 35  1  0
 10 36  1  0
 11 37  1  0
 11 38  1  0
 12 39  1  0
 12 40  1  0
 16 41  1  0
 16 42  1  0
 17 43  1  0
 18 44  1  0
 18 45  1  0
 19 46  1  0
 19 47  1  0
 21 48  1  0
 21 49  1  0
 23 50  1  0
 24 51  1  0
 25 52  1  0
 27 53  1  0
 28 54  1  0
 29 55  1  0
 30 56  1  0
M  END
$$$$
