
     RDKit          3D

 80 83  0  0  0  0  0  0  0  0999 V2000
   -0.2658   -4.2659   -2.2152 C   0  0  0  0  0  0  0  0  0  0  0  0
    0.5419   -5.0259   -1.1728 C   0  0  0  0  0  0  0  0  0  0  0  0
   -0.3164   -5.5077   -0.0020 C   0  0  0  0  0  0  0  0  0  0  0  0
   -0.9939   -4.4380    0.6673 O   0  0  0  0  0  0  0  0  0  0  0  0
   -0.2408   -3.5634    1.4073 C   0  0  0  0  0  0  0  0  0  0  0  0
    0.8783   -3.9647    2.1493 C   0  0  0  0  0  0  0  0  0  0  0  0
    1.6214   -3.0317    2.8794 C   0  0  0  0  0  0  0  0  0  0  0  0
    1.2332   -1.6924    2.8876 C   0  0  0  0  0  0  0  0  0  0  0  0
    2.1661   -0.4907    3.8127 S   0  0  0  0  0  0  0  0  0  0  0  0
    1.2144    0.4199    4.4109 O   0  0  0  0  0  0  0  0  0  0  0  0
    3.1166   -1.2208    4.6260 O   0  0  0  0  0  0  0  0  0  0  0  0
    3.0375    0.3374    2.6256 N   0  0  0  0  0  0  0  0  0  0  0  0
    2.3271    1.3044    1.7495 C   0  0  0  0  0  0  0  0  0  0  0  0
    2.2705    0.8572    0.2725 C   0  0  0  0  0  0  0  0  0  0  0  0
    3.5298    0.3396   -0.2756 N   0  0  0  0  0  0  0  0  0  0  0  0
    3.8657    0.7541   -1.6313 C   0  0  0  0  0  0  0  0  0  0  0  0
    4.6584    2.0537   -1.8106 C   0  0  0  0  0  0  0  0  0  0  0  0
    3.9246    3.3089   -1.3544 C   0  0  0  0  0  0  0  0  0  0  0  0
    4.7319    4.4346   -1.6953 O   0  0  0  0  0  0  0  0  0  0  0  0
    4.1419    5.6618   -1.3061 N   0  0  0  0  0  0  0  0  0  0  0  0
    4.8308    6.6359   -1.6018 O   0  0  0  0  0  0  0  0  0  0  0  0
    3.0499    5.6072   -0.7381 O   0  0  0  0  0  0  0  0  0  0  0  0
    4.6291    0.2923    0.6870 C   0  0  0  0  0  0  0  0  0  0  0  0
    4.1777   -0.3794    1.9967 C   0  0  0  0  0  0  0  0  0  0  0  0
    0.0825   -1.2909    2.2116 C   0  0  0  0  0  0  0  0  0  0  0  0
   -0.6476   -2.2150    1.4481 C   0  0  0  0  0  0  0  0  0  0  0  0
   -1.7982   -1.6689    0.6624 C   0  0  0  0  0  0  0  0  0  0  0  0
   -1.8012   -0.4059    0.3406 N   0  0  0  0  0  0  0  0  0  0  0  0
   -2.9194    0.0018   -0.3863 C   0  0  0  0  0  0  0  0  0  0  0  0
   -3.1764    1.2986   -0.8729 C   0  0  0  0  0  0  0  0  0  0  0  0
   -2.2725    2.4830   -0.7016 C   0  0  0  0  0  0  0  0  0  0  0  0
   -2.6625    3.3952    0.4641 C   0  0  0  0  0  0  0  0  0  0  0  0
   -2.4152    2.7660    1.8287 C   0  0  0  0  0  0  0  0  0  0  0  0
   -4.4009    1.2227   -1.5531 C   0  0  0  0  0  0  0  0  0  0  0  0
   -5.1078    2.2593   -2.2795 C   0  0  0  0  0  0  0  0  0  0  0  0
   -4.7069    3.4911   -2.2881 N   0  0  0  0  0  0  0  0  0  0  0  0
   -5.5818    4.2574   -3.0695 O   0  0  0  0  0  0  0  0  0  0  0  0
   -4.8596   -0.0872   -1.4181 N   0  0  0  0  0  0  0  0  0  0  0  0
   -6.1260   -0.5985   -1.9020 C   0  0  0  0  0  0  0  0  0  0  0  0
   -3.9320   -0.8386   -0.7436 C   0  0  0  0  0  0  0  0  0  0  0  0
   -3.9098   -2.2287   -0.4158 C   0  0  0  0  0  0  0  0  0  0  0  0
   -4.7428   -3.0624   -0.7544 O   0  0  0  0  0  0  0  0  0  0  0  0
   -2.8038   -2.5614    0.3285 N   0  0  0  0  0  0  0  0  0  0  0  0
   -0.6866   -3.3447   -1.8021 H   0  0  0  0  0  0  0  0  0  0  0  0
   -1.0879   -4.8789   -2.5980 H   0  0  0  0  0  0  0  0  0  0  0  0
    0.3740   -3.9910   -3.0598 H   0  0  0  0  0  0  0  0  0  0  0  0
    1.3460   -4.3746   -0.8135 H   0  0  0  0  0  0  0  0  0  0  0  0
    1.0149   -5.8930   -1.6474 H   0  0  0  0  0  0  0  0  0  0  0  0
    0.2613   -6.1232    0.6945 H   0  0  0  0  0  0  0  0  0  0  0  0
   -1.1016   -6.1669   -0.3912 H   0  0  0  0  0  0  0  0  0  0  0  0
    1.1939   -5.0026    2.1893 H   0  0  0  0  0  0  0  0  0  0  0  0
    2.4928   -3.3614    3.4423 H   0  0  0  0  0  0  0  0  0  0  0  0
    2.8657    2.2577    1.8221 H   0  0  0  0  0  0  0  0  0  0  0  0
    1.3140    1.5088    2.1075 H   0  0  0  0  0  0  0  0  0  0  0  0
    1.8849    1.6962   -0.3179 H   0  0  0  0  0  0  0  0  0  0  0  0
    1.5295    0.0574    0.1714 H   0  0  0  0  0  0  0  0  0  0  0  0
    2.9563    0.7937   -2.2449 H   0  0  0  0  0  0  0  0  0  0  0  0
    4.4647   -0.0516   -2.0759 H   0  0  0  0  0  0  0  0  0  0  0  0
    5.6287    1.9901   -1.3025 H   0  0  0  0  0  0  0  0  0  0  0  0
    4.9078    2.1622   -2.8747 H   0  0  0  0  0  0  0  0  0  0  0  0
    2.9572    3.3729   -1.8670 H   0  0  0  0  0  0  0  0  0  0  0  0
    3.7787    3.2780   -0.2696 H   0  0  0  0  0  0  0  0  0  0  0  0
    5.4632   -0.2861    0.2726 H   0  0  0  0  0  0  0  0  0  0  0  0
    5.0027    1.3002    0.9053 H   0  0  0  0  0  0  0  0  0  0  0  0
    3.9031   -1.4185    1.7848 H   0  0  0  0  0  0  0  0  0  0  0  0
    5.0163   -0.3855    2.7015 H   0  0  0  0  0  0  0  0  0  0  0  0
   -0.2444   -0.2540    2.2669 H   0  0  0  0  0  0  0  0  0  0  0  0
   -1.2377    2.1429   -0.5654 H   0  0  0  0  0  0  0  0  0  0  0  0
   -2.2599    3.0674   -1.6288 H   0  0  0  0  0  0  0  0  0  0  0  0
   -3.7151    3.6912    0.3904 H   0  0  0  0  0  0  0  0  0  0  0  0
   -2.0675    4.3141    0.3980 H   0  0  0  0  0  0  0  0  0  0  0  0
   -2.6238    3.4931    2.6201 H   0  0  0  0  0  0  0  0  0  0  0  0
   -1.3739    2.4443    1.9315 H   0  0  0  0  0  0  0  0  0  0  0  0
   -3.0638    1.9008    1.9947 H   0  0  0  0  0  0  0  0  0  0  0  0
   -6.0131    1.9778   -2.8440 H   0  0  0  0  0  0  0  0  0  0  0  0
   -5.1964    5.1508   -2.9940 H   0  0  0  0  0  0  0  0  0  0  0  0
   -6.4934   -1.3714   -1.2239 H   0  0  0  0  0  0  0  0  0  0  0  0
   -5.9683   -1.0028   -2.9045 H   0  0  0  0  0  0  0  0  0  0  0  0
   -6.8664    0.2036   -1.9200 H   0  0  0  0  0  0  0  0  0  0  0  0
   -2.7037   -3.5408    0.5608 H   0  0  0  0  0  0  0  0  0  0  0  0
  1  2  1  0
  2  3  1  0
  3  4  1  0
  4  5  1  0
  5  6  1  0
  6  7  2  0
  7  8  1  0
  8  9  1  0
  9 10  2  0
  9 11  2  0
  9 12  1  0
 12 13  1  0
 13 14  1  0
 14 15  1  0
 15 16  1  0
 16 17  1  0
 17 18  1  0
 18 19  1  0
 19 20  1  0
 20 21  2  0
 20 22  1  0
 15 23  1  0
 23 24  1  0
  8 25  2  0
 25 26  1  0
 26 27  1  0
 27 28  2  0
 28 29  1  0
 29 30  1  0
 30 31  1  0
 31 32  1  0
 32 33  1  0
 30 34  2  0
 34 35  1  0
 35 36  2  0
 36 37  1  0
 34 38  1  0
 38 39  1  0
 38 40  1  0
 40 41  1  0
 41 42  2  0
 41 43  1  0
 26  5  2  0
 43 27  1  0
 24 12  1  0
 40 29  2  0
  1 44  1  0
  1 45  1  0
  1 46  1  0
  2 47  1  0
  2 48  1  0
  3 49  1  0
  3 50  1  0
  6 51  1  0
  7 52  1  0
 13 53  1  0
 13 54  1  0
 14 55  1  0
 14 56  1  0
 16 57  1  0
 16 58  1  0
 17 59  1  0
 17 60  1  0
 18 61  1  0
 18 62  1  0
 23 63  1  0
 23 64  1  0
 24 65  1  0
 24 66  1  0
 25 67  1  0
 31 68  1  0
 31 69  1  0
 32 70  1  0
 32 71  1  0
 33 72  1  0
 33 73  1  0
 33 74  1  0
 35 75  1  0
 37 76  1  0
 39 77  1  0
 39 78  1  0
 39 79  1  0
 43 80  1  0
M  CHG  2  20   1  22  -1
M  END
$$$$
