
     RDKit          3D

 77 80  0  0  0  0  0  0  0  0999 V2000
   -3.1669   -4.6751    4.6803 C   0  0  0  0  0  0  0  0  0  0  0  0
   -2.5050   -3.3095    4.7016 C   0  0  0  0  0  0  0  0  0  0  0  0
   -1.1203   -3.3378    4.0619 C   0  0  0  0  0  0  0  0  0  0  0  0
   -0.5869   -2.0070    4.1256 O   0  0  0  0  0  0  0  0  0  0  0  0
    0.4243   -1.7656    3.2286 C   0  0  0  0  0  0  0  0  0  0  0  0
    1.5060   -2.6510    3.1141 C   0  0  0  0  0  0  0  0  0  0  0  0
    2.5365   -2.3937    2.2095 C   0  0  0  0  0  0  0  0  0  0  0  0
    2.4910   -1.2402    1.4263 C   0  0  0  0  0  0  0  0  0  0  0  0
    3.8077   -0.9267    0.2767 S   0  0  0  0  0  0  0  0  0  0  0  0
    5.0452   -1.2896    0.9329 O   0  0  0  0  0  0  0  0  0  0  0  0
    3.6209    0.3842   -0.3070 O   0  0  0  0  0  0  0  0  0  0  0  0
    3.5030   -2.0741   -0.9460 N   0  0  0  0  0  0  0  0  0  0  0  0
    2.2465   -1.8680   -1.7387 C   0  0  0  0  0  0  0  0  0  0  0  0
    2.5450   -1.2995   -3.1380 C   0  0  0  0  0  0  0  0  0  0  0  0
    3.3649   -2.2064   -3.9728 N   0  0  0  0  0  0  0  0  0  0  0  0
    4.0655   -1.4878   -5.0488 C   0  0  0  0  0  0  0  0  0  0  0  0
    3.1288   -0.8071   -6.0600 C   0  0  0  0  0  0  0  0  0  0  0  0
    3.9320   -0.2833   -7.1158 O   0  0  0  0  0  0  0  0  0  0  0  0
    3.1642    0.3649   -8.1108 N   0  0  0  0  0  0  0  0  0  0  0  0
    3.8548    0.8225   -9.0194 O   0  0  0  0  0  0  0  0  0  0  0  0
    1.9429    0.3961   -7.9528 O   0  0  0  0  0  0  0  0  0  0  0  0
    4.3009   -2.9970   -3.1410 C   0  0  0  0  0  0  0  0  0  0  0  0
    4.6997   -2.3307   -1.8119 C   0  0  0  0  0  0  0  0  0  0  0  0
    1.4419   -0.3281    1.5599 C   0  0  0  0  0  0  0  0  0  0  0  0
    0.3959   -0.5819    2.4641 C   0  0  0  0  0  0  0  0  0  0  0  0
   -0.7173    0.4233    2.5224 C   0  0  0  0  0  0  0  0  0  0  0  0
   -0.8356    1.3024    1.5683 N   0  0  0  0  0  0  0  0  0  0  0  0
   -1.9061    2.1838    1.7219 C   0  0  0  0  0  0  0  0  0  0  0  0
   -2.2563    3.2234    0.8421 C   0  0  0  0  0  0  0  0  0  0  0  0
   -1.5294    3.5849   -0.4166 C   0  0  0  0  0  0  0  0  0  0  0  0
   -2.0976    2.8661   -1.6407 C   0  0  0  0  0  0  0  0  0  0  0  0
   -1.3357    3.2340   -2.9037 C   0  0  0  0  0  0  0  0  0  0  0  0
   -3.4071    3.8143    1.3767 C   0  0  0  0  0  0  0  0  0  0  0  0
   -4.1608    4.9038    0.7900 C   0  0  0  0  0  0  0  0  0  0  0  0
   -5.2673    5.3392    1.3038 N   0  0  0  0  0  0  0  0  0  0  0  0
   -5.7627    6.3826    0.5112 O   0  0  0  0  0  0  0  0  0  0  0  0
   -3.6925    3.1525    2.5718 N   0  0  0  0  0  0  0  0  0  0  0  0
   -4.7785    3.4919    3.4681 C   0  0  0  0  0  0  0  0  0  0  0  0
   -2.7841    2.1403    2.7672 C   0  0  0  0  0  0  0  0  0  0  0  0
   -2.6599    1.1632    3.8034 C   0  0  0  0  0  0  0  0  0  0  0  0
   -3.4142    1.0079    4.7578 O   0  0  0  0  0  0  0  0  0  0  0  0
   -1.5668    0.3512    3.6144 N   0  0  0  0  0  0  0  0  0  0  0  0
   -4.1548   -4.6256    5.1491 H   0  0  0  0  0  0  0  0  0  0  0  0
   -2.5678   -5.4113    5.2259 H   0  0  0  0  0  0  0  0  0  0  0  0
   -3.2955   -5.0323    3.6537 H   0  0  0  0  0  0  0  0  0  0  0  0
   -3.1365   -2.5815    4.1778 H   0  0  0  0  0  0  0  0  0  0  0  0
   -2.4258   -2.9489    5.7339 H   0  0  0  0  0  0  0  0  0  0  0  0
   -0.4711   -4.0216    4.6207 H   0  0  0  0  0  0  0  0  0  0  0  0
   -1.2011   -3.6745    3.0201 H   0  0  0  0  0  0  0  0  0  0  0  0
    1.5695   -3.5408    3.7348 H   0  0  0  0  0  0  0  0  0  0  0  0
    3.3713   -3.0871    2.1232 H   0  0  0  0  0  0  0  0  0  0  0  0
    1.5515   -1.2000   -1.2211 H   0  0  0  0  0  0  0  0  0  0  0  0
    1.7368   -2.8362   -1.8173 H   0  0  0  0  0  0  0  0  0  0  0  0
    1.5938   -1.1146   -3.6497 H   0  0  0  0  0  0  0  0  0  0  0  0
    3.0467   -0.3304   -3.0149 H   0  0  0  0  0  0  0  0  0  0  0  0
    4.7648   -0.7457   -4.6415 H   0  0  0  0  0  0  0  0  0  0  0  0
    4.6846   -2.1981   -5.6137 H   0  0  0  0  0  0  0  0  0  0  0  0
    2.5820    0.0077   -5.5711 H   0  0  0  0  0  0  0  0  0  0  0  0
    2.4239   -1.5492   -6.4547 H   0  0  0  0  0  0  0  0  0  0  0  0
    5.2045   -3.2667   -3.7017 H   0  0  0  0  0  0  0  0  0  0  0  0
    3.8030   -3.9485   -2.9129 H   0  0  0  0  0  0  0  0  0  0  0  0
    5.2291   -1.3933   -2.0211 H   0  0  0  0  0  0  0  0  0  0  0  0
    5.3790   -2.9972   -1.2686 H   0  0  0  0  0  0  0  0  0  0  0  0
    1.4356    0.5800    0.9584 H   0  0  0  0  0  0  0  0  0  0  0  0
   -1.5689    4.6703   -0.5673 H   0  0  0  0  0  0  0  0  0  0  0  0
   -0.4662    3.3376   -0.3060 H   0  0  0  0  0  0  0  0  0  0  0  0
   -3.1562    3.1223   -1.7702 H   0  0  0  0  0  0  0  0  0  0  0  0
   -2.0498    1.7801   -1.4956 H   0  0  0  0  0  0  0  0  0  0  0  0
   -1.7565    2.7101   -3.7675 H   0  0  0  0  0  0  0  0  0  0  0  0
   -1.3935    4.3100   -3.0974 H   0  0  0  0  0  0  0  0  0  0  0  0
   -0.2802    2.9560   -2.8191 H   0  0  0  0  0  0  0  0  0  0  0  0
   -3.7668    5.3548   -0.1379 H   0  0  0  0  0  0  0  0  0  0  0  0
   -6.5791    6.6341    0.9821 H   0  0  0  0  0  0  0  0  0  0  0  0
   -4.7198    4.5578    3.7016 H   0  0  0  0  0  0  0  0  0  0  0  0
   -4.7001    2.9402    4.4032 H   0  0  0  0  0  0  0  0  0  0  0  0
   -5.7216    3.2400    2.9769 H   0  0  0  0  0  0  0  0  0  0  0  0
   -1.4316   -0.3699    4.3114 H   0  0  0  0  0  0  0  0  0  0  0  0
  1  2  1  0
  2  3  1  0
  3  4  1  0
  4  5  1  0
  5  6  1  0
  6  7  2  0
  7  8  1  0
  8  9  1  0
  9 10  2  0
  9 11  2  0
  9 12  1  0
 12 13  1  0
 13 14  1  0
 14 15  1  0
 15 16  1  0
 16 17  1  0
 17 18  1  0
 18 19  1  0
 19 20  2  0
 19 21  1  0
 15 22  1  0
 22 23  1  0
  8 24  2  0
 24 25  1  0
 25 26  1  0
 26 27  2  0
 27 28  1  0
 28 29  1  0
 29 30  1  0
 30 31  1  0
 31 32  1  0
 29 33  2  0
 33 34  1  0
 34 35  2  0
 35 36  1  0
 33 37  1  0
 37 38  1  0
 37 39  1  0
 39 40  1  0
 40 41  2  0
 40 42  1  0
 25  5  2  0
 42 26  1  0
 23 12  1  0
 39 28  2  0
  1 43  1  0
  1 44  1  0
  1 45  1  0
  2 46  1  0
  2 47  1  0
  3 48  1  0
  3 49  1  0
  6 50  1  0
  7 51  1  0
 13 52  1  0
 13 53  1  0
 14 54  1  0
 14 55  1  0
 16 56  1  0
 16 57  1  0
 17 58  1  0
 17 59  1  0
 22 60  1  0
 22 61  1  0
 23 62  1  0
 23 63  1  0
 24 64  1  0
 30 65  1  0
 30 66  1  0
 31 67  1  0
 31 68  1  0
 32 69  1  0
 32 70  1  0
 32 71  1  0
 34 72  1  0
 36 73  1  0
 38 74  1  0
 38 75  1  0
 38 76  1  0
 42 77  1  0
M  CHG  2  19   1  21  -1
M  END
$$$$
