
     RDKit          3D

 48 50  0  0  0  0  0  0  0  0999 V2000
    1.0040   -5.0686    0.9376 C   0  0  0  0  0  0  0  0  0  0  0  0
    1.8131   -4.0408    0.1669 C   0  0  0  0  0  0  0  0  0  0  0  0
    1.0215   -2.8554    0.0600 O   0  0  0  0  0  0  0  0  0  0  0  0
    1.5775   -1.7544   -0.5418 C   0  0  0  0  0  0  0  0  0  0  0  0
    2.8367   -1.7706   -1.1575 C   0  0  0  0  0  0  0  0  0  0  0  0
    3.3604   -0.6206   -1.7550 C   0  0  0  0  0  0  0  0  0  0  0  0
    2.6366    0.5728   -1.7549 C   0  0  0  0  0  0  0  0  0  0  0  0
    3.2091    1.8167   -2.3875 C   0  0  0  0  0  0  0  0  0  0  0  0
    4.3918    2.3635   -1.6165 C   0  0  0  0  0  0  0  0  0  0  0  0
    5.5621    2.1319   -1.9185 O   0  0  0  0  0  0  0  0  0  0  0  0
    4.0546    3.1465   -0.5334 N   0  0  0  0  0  0  0  0  0  0  0  0
    5.1540    3.5411    0.2704 O   0  0  0  0  0  0  0  0  0  0  0  0
    1.3754    0.5937   -1.1467 C   0  0  0  0  0  0  0  0  0  0  0  0
    0.8314   -0.5559   -0.5372 C   0  0  0  0  0  0  0  0  0  0  0  0
   -0.5309   -0.4040    0.0921 C   0  0  0  0  0  0  0  0  0  0  0  0
   -1.0715    0.7830    0.1794 N   0  0  0  0  0  0  0  0  0  0  0  0
   -2.3332    0.7930    0.7762 C   0  0  0  0  0  0  0  0  0  0  0  0
   -3.2017    1.8673    1.0290 C   0  0  0  0  0  0  0  0  0  0  0  0
   -3.0046    3.3098    0.7226 C   0  0  0  0  0  0  0  0  0  0  0  0
   -3.4256    3.6621   -0.6959 C   0  0  0  0  0  0  0  0  0  0  0  0
   -4.3295    1.4348    1.6247 N   0  0  0  0  0  0  0  0  0  0  0  0
   -4.1497    0.0950    1.7370 N   0  0  0  0  0  0  0  0  0  0  0  0
   -5.1748   -0.7212    2.3414 C   0  0  0  0  0  0  0  0  0  0  0  0
   -2.9590   -0.3263    1.2348 C   0  0  0  0  0  0  0  0  0  0  0  0
   -2.3808   -1.6156    1.1487 C   0  0  0  0  0  0  0  0  0  0  0  0
   -2.8854   -2.6577    1.5494 O   0  0  0  0  0  0  0  0  0  0  0  0
   -1.1452   -1.5668    0.5462 N   0  0  0  0  0  0  0  0  0  0  0  0
    0.7464   -4.6890    1.9320 H   0  0  0  0  0  0  0  0  0  0  0  0
    0.0604   -5.2802    0.4238 H   0  0  0  0  0  0  0  0  0  0  0  0
    1.5632   -6.0017    1.0490 H   0  0  0  0  0  0  0  0  0  0  0  0
    2.0372   -4.4366   -0.8300 H   0  0  0  0  0  0  0  0  0  0  0  0
    2.7407   -3.8330    0.7124 H   0  0  0  0  0  0  0  0  0  0  0  0
    3.4475   -2.6677   -1.1939 H   0  0  0  0  0  0  0  0  0  0  0  0
    4.3453   -0.6661   -2.2203 H   0  0  0  0  0  0  0  0  0  0  0  0
    2.4466    2.6008   -2.4714 H   0  0  0  0  0  0  0  0  0  0  0  0
    3.5299    1.5962   -3.4128 H   0  0  0  0  0  0  0  0  0  0  0  0
    3.1853    2.9856   -0.0326 H   0  0  0  0  0  0  0  0  0  0  0  0
    5.9213    3.1698   -0.2188 H   0  0  0  0  0  0  0  0  0  0  0  0
    0.8005    1.5194   -1.1522 H   0  0  0  0  0  0  0  0  0  0  0  0
   -3.5749    3.9228    1.4310 H   0  0  0  0  0  0  0  0  0  0  0  0
   -1.9494    3.5736    0.8626 H   0  0  0  0  0  0  0  0  0  0  0  0
   -3.2696    4.7289   -0.8845 H   0  0  0  0  0  0  0  0  0  0  0  0
   -2.8446    3.0979   -1.4335 H   0  0  0  0  0  0  0  0  0  0  0  0
   -4.4850    3.4380   -0.8609 H   0  0  0  0  0  0  0  0  0  0  0  0
   -4.7504   -1.2159    3.2184 H   0  0  0  0  0  0  0  0  0  0  0  0
   -5.5109   -1.4556    1.6055 H   0  0  0  0  0  0  0  0  0  0  0  0
   -6.0139   -0.0888    2.6430 H   0  0  0  0  0  0  0  0  0  0  0  0
   -0.6618   -2.4517    0.4615 H   0  0  0  0  0  0  0  0  0  0  0  0
  1  2  1  0
  2  3  1  0
  3  4  1  0
  4  5  1  0
  5  6  2  0
  6  7  1  0
  7  8  1  0
  8  9  1  0
  9 10  2  0
  9 11  1  0
 11 12  1  0
  7 13  2  0
 13 14  1  0
 14 15  1  0
 15 16  2  0
 16 17  1  0
 17 18  1  0
 18 19  1  0
 19 20  1  0
 18 21  2  0
 21 22  1  0
 22 23  1  0
 22 24  1  0
 24 25  1  0
 25 26  2  0
 25 27  1  0
 14  4  2  0
 27 15  1  0
 24 17  2  0
  1 28  1  0
  1 29  1  0
  1 30  1  0
  2 31  1  0
  2 32  1  0
  5 33  1  0
  6 34  1  0
  8 35  1  0
  8 36  1  0
 11 37  1  0
 12 38  1  0
 13 39  1  0
 19 40  1  0
 19 41  1  0
 20 42  1  0
 20 43  1  0
 20 44  1  0
 23 45  1  0
 23 46  1  0
 23 47  1  0
 27 48  1  0
M  END
$$$$
