
     RDKit          3D

 26 28  0  0  0  0  0  0  0  0999 V2000
    4.9370   -0.7028    0.1907 N   0  0  0  0  0  0  0  0  0  0  0  0
    3.5794   -0.3840    0.0898 C   0  0  0  0  0  0  0  0  0  0  0  0
    3.1759    0.9446   -0.0458 C   0  0  0  0  0  0  0  0  0  0  0  0
    1.8186    1.2853   -0.0282 C   0  0  0  0  0  0  0  0  0  0  0  0
    0.8379    0.3015    0.1623 C   0  0  0  0  0  0  0  0  0  0  0  0
   -0.5983    0.7173    0.1849 C   0  0  0  0  0  0  0  0  0  0  0  0
   -0.8897    1.9615    0.4711 N   0  0  0  0  0  0  0  0  0  0  0  0
   -2.2405    2.4069    0.5091 N   0  0  0  0  0  0  0  0  0  0  0  0
   -3.1791    1.5611    0.2468 C   0  0  0  0  0  0  0  0  0  0  0  0
   -4.4728    1.9159    0.2658 O   0  0  0  0  0  0  0  0  0  0  0  0
   -2.9587    0.2394   -0.0755 N   0  0  0  0  0  0  0  0  0  0  0  0
   -3.7675   -0.8215   -0.3990 C   0  0  0  0  0  0  0  0  0  0  0  0
   -5.6645   -0.8789   -0.5129 Br  0  0  0  0  0  0  0  0  0  0  0  0
   -2.8991   -1.8641   -0.6370 C   0  0  0  0  0  0  0  0  0  0  0  0
   -3.3395   -3.6282   -1.1379 Br  0  0  0  0  0  0  0  0  0  0  0  0
   -1.5943   -1.4749   -0.4648 N   0  0  0  0  0  0  0  0  0  0  0  0
   -1.6651   -0.2076   -0.1146 C   0  0  0  0  0  0  0  0  0  0  0  0
    1.2467   -1.0193    0.3707 C   0  0  0  0  0  0  0  0  0  0  0  0
    2.6075   -1.3513    0.3506 C   0  0  0  0  0  0  0  0  0  0  0  0
    5.1497   -1.6725   -0.0223 H   0  0  0  0  0  0  0  0  0  0  0  0
    5.5498   -0.0583   -0.2990 H   0  0  0  0  0  0  0  0  0  0  0  0
    3.9151    1.7324   -0.1662 H   0  0  0  0  0  0  0  0  0  0  0  0
    1.5394    2.3296   -0.1550 H   0  0  0  0  0  0  0  0  0  0  0  0
   -4.5192    2.8592    0.5014 H   0  0  0  0  0  0  0  0  0  0  0  0
    0.5319   -1.8107    0.5771 H   0  0  0  0  0  0  0  0  0  0  0  0
    2.8993   -2.3806    0.5448 H   0  0  0  0  0  0  0  0  0  0  0  0
  1  2  1  0
  2  3  1  0
  3  4  2  0
  4  5  1  0
  5  6  1  0
  6  7  2  0
  7  8  1  0
  8  9  2  0
  9 10  1  0
  9 11  1  0
 11 12  1  0
 12 13  1  0
 12 14  2  0
 14 15  1  0
 14 16  1  0
 16 17  2  0
  5 18  2  0
 18 19  1  0
 19  2  2  0
 17  6  1  0
 17 11  1  0
  1 20  1  0
  1 21  1  0
  3 22  1  0
  4 23  1  0
 10 24  1  0
 18 25  1  0
 19 26  1  0
M  END
$$$$
