
     RDKit          3D

 50 53  0  0  0  0  0  0  0  0999 V2000
    4.9454    3.9590    1.1797 C   0  0  0  0  0  0  0  0  0  0  0  0
    5.1693    2.5863    1.4706 O   0  0  0  0  0  0  0  0  0  0  0  0
    4.5787    1.6582    0.6528 C   0  0  0  0  0  0  0  0  0  0  0  0
    3.7831    1.9688   -0.4543 C   0  0  0  0  0  0  0  0  0  0  0  0
    3.2207    0.9516   -1.2352 C   0  0  0  0  0  0  0  0  0  0  0  0
    3.4431   -0.3961   -0.9282 C   0  0  0  0  0  0  0  0  0  0  0  0
    2.8306   -1.4939   -1.7664 C   0  0  0  0  0  0  0  0  0  0  0  0
    1.8261   -2.2320   -1.0060 N   0  0  0  0  0  0  0  0  0  0  0  0
    0.5421   -1.6414   -0.9421 C   0  0  0  0  0  0  0  0  0  0  0  0
    0.2665   -0.5371   -1.6619 N   0  0  0  0  0  0  0  0  0  0  0  0
   -0.9761    0.0393   -1.6314 N   0  0  0  0  0  0  0  0  0  0  0  0
   -1.9635   -0.4732   -0.8699 C   0  0  0  0  0  0  0  0  0  0  0  0
   -3.2157    0.1918   -0.8180 N   0  0  0  0  0  0  0  0  0  0  0  0
   -3.3580    0.9843    0.4234 C   0  0  0  0  0  0  0  0  0  0  0  0
   -3.5016    2.4734    0.1510 C   0  0  0  0  0  0  0  0  0  0  0  0
   -4.6393    2.6915   -0.8151 C   0  0  0  0  0  0  0  0  0  0  0  0
   -5.3763    3.6738   -0.7234 O   0  0  0  0  0  0  0  0  0  0  0  0
   -4.8329    1.6686   -1.9066 C   0  0  0  0  0  0  0  0  0  0  0  0
   -3.5379    0.8906   -2.0743 C   0  0  0  0  0  0  0  0  0  0  0  0
   -1.7398   -1.6428   -0.1083 C   0  0  0  0  0  0  0  0  0  0  0  0
   -2.7491   -2.2648    0.6688 C   0  0  0  0  0  0  0  0  0  0  0  0
   -2.4975   -3.4088    1.4288 C   0  0  0  0  0  0  0  0  0  0  0  0
   -1.2242   -3.9669    1.4324 C   0  0  0  0  0  0  0  0  0  0  0  0
   -0.9491   -5.1360    2.2149 C   0  0  0  0  0  0  0  0  0  0  0  0
   -0.7279   -6.0867    2.8425 N   0  0  0  0  0  0  0  0  0  0  0  0
   -0.2158   -3.3837    0.6588 C   0  0  0  0  0  0  0  0  0  0  0  0
   -0.4527   -2.2315   -0.1348 C   0  0  0  0  0  0  0  0  0  0  0  0
    4.2349   -0.7089    0.1847 C   0  0  0  0  0  0  0  0  0  0  0  0
    4.7968    0.3069    0.9649 C   0  0  0  0  0  0  0  0  0  0  0  0
    5.7643   -0.1609    2.3215 Cl  0  0  0  0  0  0  0  0  0  0  0  0
    3.8825    4.2107    1.2558 H   0  0  0  0  0  0  0  0  0  0  0  0
    5.3469    4.2248    0.1963 H   0  0  0  0  0  0  0  0  0  0  0  0
    5.4812    4.5509    1.9280 H   0  0  0  0  0  0  0  0  0  0  0  0
    3.5721    2.9945   -0.7385 H   0  0  0  0  0  0  0  0  0  0  0  0
    2.5897    1.2217   -2.0810 H   0  0  0  0  0  0  0  0  0  0  0  0
    3.6355   -2.1900   -2.0360 H   0  0  0  0  0  0  0  0  0  0  0  0
    2.4448   -1.1186   -2.7227 H   0  0  0  0  0  0  0  0  0  0  0  0
    1.7151   -3.1751   -1.3684 H   0  0  0  0  0  0  0  0  0  0  0  0
   -4.2609    0.6264    0.9345 H   0  0  0  0  0  0  0  0  0  0  0  0
   -2.5241    0.8308    1.1209 H   0  0  0  0  0  0  0  0  0  0  0  0
   -2.5882    2.8904   -0.2863 H   0  0  0  0  0  0  0  0  0  0  0  0
   -3.7156    3.0054    1.0836 H   0  0  0  0  0  0  0  0  0  0  0  0
   -5.0859    2.1846   -2.8379 H   0  0  0  0  0  0  0  0  0  0  0  0
   -5.6585    1.0088   -1.6204 H   0  0  0  0  0  0  0  0  0  0  0  0
   -3.6622    0.1560   -2.8792 H   0  0  0  0  0  0  0  0  0  0  0  0
   -2.7405    1.5846   -2.3726 H   0  0  0  0  0  0  0  0  0  0  0  0
   -3.7590   -1.8564    0.6745 H   0  0  0  0  0  0  0  0  0  0  0  0
   -3.3020   -3.8522    2.0128 H   0  0  0  0  0  0  0  0  0  0  0  0
    0.7801   -3.8267    0.6816 H   0  0  0  0  0  0  0  0  0  0  0  0
    4.4049   -1.7500    0.4497 H   0  0  0  0  0  0  0  0  0  0  0  0
  1  2  1  0
  2  3  1  0
  3  4  1  0
  4  5  2  0
  5  6  1  0
  6  7  1  0
  7  8  1  0
  8  9  1  0
  9 10  1  0
 10 11  2  0
 11 12  1  0
 12 13  1  0
 13 14  1  0
 14 15  1  0
 15 16  1  0
 16 17  2  0
 16 18  1  0
 18 19  1  0
 12 20  2  0
 20 21  1  0
 21 22  2  0
 22 23  1  0
 23 24  1  0
 24 25  3  0
 23 26  2  0
 26 27  1  0
  6 28  2  0
 28 29  1  0
 29 30  1  0
 29  3  2  0
 27  9  2  0
 19 13  1  0
 27 20  1  0
  1 31  1  0
  1 32  1  0
  1 33  1  0
  4 34  1  0
  5 35  1  0
  7 36  1  0
  7 37  1  0
  8 38  1  0
 14 39  1  0
 14 40  1  0
 15 41  1  0
 15 42  1  0
 18 43  1  0
 18 44  1  0
 19 45  1  0
 19 46  1  0
 21 47  1  0
 22 48  1  0
 26 49  1  0
 28 50  1  0
M  END
$$$$
