


 38 41  0  0  0  0  0  0  0  0999 V2000
   -0.0515   64.6586   82.0406 C   0  0  0  0  0  0  0  0  0  0  0  0
   -0.1250   64.6754   83.3895 N   0  0  0  0  0  0  0  0  0  0  0  0
   -0.5118   63.5683   84.0458 C   0  0  0  0  0  0  0  0  0  0  0  0
   -0.8217   62.4249   83.4172 N   0  0  0  0  0  0  0  0  0  0  0  0
   -0.7474   62.4223   82.0712 C   0  0  0  0  0  0  0  0  0  0  0  0
   -0.3852   63.5194   81.3249 C   0  0  0  0  0  0  0  0  0  0  0  0
   -0.5524   63.5988   85.4195 N   0  0  0  0  0  0  0  0  0  0  0  0
    0.6024   64.1044   86.1428 C   0  0  0  0  0  0  0  0  0  0  0  0
    0.3002   63.7138   87.5851 C   0  0  0  0  0  0  0  0  0  0  0  0
   -0.3766   62.3592   87.4263 C   0  0  0  0  0  0  0  0  0  0  0  0
   -1.2199   62.5117   86.1444 C   0  0  0  0  0  0  0  0  0  0  0  0
   -2.6805   62.8839   86.4439 C   0  0  0  0  0  0  0  0  0  0  0  0
   -3.0231   62.5601   87.7904 O   0  0  0  0  0  0  0  0  0  0  0  0
   -3.9649   62.7786   87.8973 H   0  0  0  0  0  0  0  0  0  0  0  0
   -0.2639   63.4476   79.8576 C   0  0  0  0  0  0  0  0  0  0  0  0
    0.7249   63.9229   79.3075 O   0  0  0  0  0  0  0  0  0  0  0  0
   -1.2895   62.8205   79.1855 N   0  0  0  0  0  0  0  0  0  0  0  0
   -2.0324   62.3539   79.7025 H   0  0  0  0  0  0  0  0  0  0  0  0
   -1.2125   62.4889   77.7688 C   0  0  0  0  0  0  0  0  0  0  0  0
   -0.6404   61.0797   77.5906 C   0  0  0  0  0  0  0  0  0  0  0  0
   -1.5325   59.9872   78.2038 C   0  0  0  0  0  0  0  0  0  0  0  0
   -3.0268   60.3504   78.2493 C   0  0  0  0  0  0  0  0  0  0  0  0
   -3.3837   61.2806   77.0881 C   0  0  0  0  0  0  0  0  0  0  0  0
   -2.6004   62.6013   77.1166 C   0  0  0  0  0  0  0  0  0  0  0  0
   -3.2851   60.9857   79.5145 O   0  0  0  0  0  0  0  0  0  0  0  0
   -3.2341   60.0832   80.6150 C   0  0  0  0  0  0  0  0  0  0  0  0
    0.2591   65.8581   81.3709 N   0  0  0  0  0  0  0  0  0  0  0  0
   -0.0187   65.7771   80.3877 H   0  0  0  0  0  0  0  0  0  0  0  0
    1.6297   66.3131   81.5277 C   0  0  0  0  0  0  0  0  0  0  0  0
    1.6147   70.5012   82.6624 C   0  0  0  0  0  0  0  0  0  0  0  0
    2.5523   69.6195   83.2102 C   0  0  0  0  0  0  0  0  0  0  0  0
    2.5544   68.2666   82.8488 C   0  0  0  0  0  0  0  0  0  0  0  0
    1.6143   67.7672   81.9391 C   0  0  0  0  0  0  0  0  0  0  0  0
    0.6827   68.6510   81.3793 C   0  0  0  0  0  0  0  0  0  0  0  0
    0.6803   70.0018   81.7410 C   0  0  0  0  0  0  0  0  0  0  0  0
   -0.5071   71.0301   81.0142 Cl  0  0  0  0  0  0  0  0  0  0  0  0
    2.7393   72.5935   82.9160 C   0  0  0  0  0  0  0  0  0  0  0  0
    1.5376   71.8369   82.9612 O   0  0  0  0  0  0  0  0  0  0  0  0
 37 38  1  0  0  0
 38 30  1  0  0  0
 30 31  1  0  0  0
 31 32  2  0  0  0
 32 33  1  0  0  0
 33 29  1  0  0  0
 29 27  1  0  0  0
 27  1  1  0  0  0
  1  2  2  0  0  0
  2  3  1  0  0  0
  3  7  1  0  0  0
  7  8  1  0  0  0
  8  9  1  0  0  0
  9 10  1  0  0  0
 10 11  1  0  0  0
 11 12  1  0  0  0
 12 13  1  0  0  0
  3  4  2  0  0  0
  4  5  1  0  0  0
  5  6  2  0  0  0
  6 15  1  0  0  0
 15 16  2  0  0  0
 15 17  1  0  0  0
 17 19  1  0  0  0
 19 20  1  0  0  0
 20 21  1  0  0  0
 21 22  1  0  0  0
 22 25  1  0  0  0
 25 26  1  0  0  0
 22 23  1  0  0  0
 23 24  1  0  0  0
 33 34  2  0  0  0
 34 35  1  0  0  0
 35 36  1  0  0  0
 35 30  2  0  0  0
  6  1  1  0  0  0
 24 19  1  0  0  0
 11  7  1  0  0  0
 27 28  1  0  0  0
 13 14  1  0  0  0
 17 18  1  0  0  0
M  END
> <minimizedAffinity>
-9.91924

$$$$



 38 41  0  0  0  0  0  0  0  0999 V2000
   -0.4727   63.9230   83.4346 C   0  0  0  0  0  0  0  0  0  0  0  0
   -0.6100   63.5048   84.7119 N   0  0  0  0  0  0  0  0  0  0  0  0
    0.1354   64.0687   85.6774 C   0  0  0  0  0  0  0  0  0  0  0  0
    1.0148   65.0512   85.4326 N   0  0  0  0  0  0  0  0  0  0  0  0
    1.1446   65.4570   84.1537 C   0  0  0  0  0  0  0  0  0  0  0  0
    0.4383   64.9146   83.1056 C   0  0  0  0  0  0  0  0  0  0  0  0
   -0.0406   63.6477   86.9742 N   0  0  0  0  0  0  0  0  0  0  0  0
    1.0913   63.6937   87.8847 C   0  0  0  0  0  0  0  0  0  0  0  0
    0.5945   62.9001   89.0878 C   0  0  0  0  0  0  0  0  0  0  0  0
   -0.2362   61.8011   88.4394 C   0  0  0  0  0  0  0  0  0  0  0  0
   -0.9167   62.5028   87.2467 C   0  0  0  0  0  0  0  0  0  0  0  0
   -2.3379   62.9822   87.5813 C   0  0  0  0  0  0  0  0  0  0  0  0
   -3.1545   63.0113   86.4118 O   0  0  0  0  0  0  0  0  0  0  0  0
   -4.0190   63.3632   86.6857 H   0  0  0  0  0  0  0  0  0  0  0  0
    0.5754   65.4339   81.7328 C   0  0  0  0  0  0  0  0  0  0  0  0
    0.5924   64.6509   80.7878 O   0  0  0  0  0  0  0  0  0  0  0  0
    0.6617   66.8018   81.5983 N   0  0  0  0  0  0  0  0  0  0  0  0
    0.5372   67.4062   82.4084 H   0  0  0  0  0  0  0  0  0  0  0  0
    0.5900   67.4695   80.3053 C   0  0  0  0  0  0  0  0  0  0  0  0
   -0.3656   68.6634   80.3841 C   0  0  0  0  0  0  0  0  0  0  0  0
    0.1098   69.7498   81.3635 C   0  0  0  0  0  0  0  0  0  0  0  0
    1.6369   69.8088   81.5412 C   0  0  0  0  0  0  0  0  0  0  0  0
    2.3395   69.3602   80.2581 C   0  0  0  0  0  0  0  0  0  0  0  0
    1.9902   67.9195   79.8568 C   0  0  0  0  0  0  0  0  0  0  0  0
    1.9833   68.9507   82.6434 O   0  0  0  0  0  0  0  0  0  0  0  0
    3.3235   69.1283   83.0914 C   0  0  0  0  0  0  0  0  0  0  0  0
   -1.1908   63.2494   82.4274 N   0  0  0  0  0  0  0  0  0  0  0  0
   -2.0819   63.7303   82.2695 H   0  0  0  0  0  0  0  0  0  0  0  0
   -1.3571   61.8221   82.6405 C   0  0  0  0  0  0  0  0  0  0  0  0
   -2.2555   59.9830   78.8144 C   0  0  0  0  0  0  0  0  0  0  0  0
   -3.0411   59.7063   79.9382 C   0  0  0  0  0  0  0  0  0  0  0  0
   -2.7486   60.2951   81.1746 C   0  0  0  0  0  0  0  0  0  0  0  0
   -1.6604   61.1654   81.3136 C   0  0  0  0  0  0  0  0  0  0  0  0
   -0.8802   61.4541   80.1865 C   0  0  0  0  0  0  0  0  0  0  0  0
   -1.1719   60.8653   78.9521 C   0  0  0  0  0  0  0  0  0  0  0  0
   -0.1571   61.2633   77.6078 Cl  0  0  0  0  0  0  0  0  0  0  0  0
   -3.4337   60.0767   76.7384 C   0  0  0  0  0  0  0  0  0  0  0  0
   -2.4663   59.4499   77.5691 O   0  0  0  0  0  0  0  0  0  0  0  0
 37 38  1  0  0  0
 38 30  1  0  0  0
 30 31  1  0  0  0
 31 32  2  0  0  0
 32 33  1  0  0  0
 33 29  1  0  0  0
 29 27  1  0  0  0
 27  1  1  0  0  0
  1  2  2  0  0  0
  2  3  1  0  0  0
  3  7  1  0  0  0
  7  8  1  0  0  0
  8  9  1  0  0  0
  9 10  1  0  0  0
 10 11  1  0  0  0
 11 12  1  0  0  0
 12 13  1  0  0  0
  3  4  2  0  0  0
  4  5  1  0  0  0
  5  6  2  0  0  0
  6 15  1  0  0  0
 15 16  2  0  0  0
 15 17  1  0  0  0
 17 19  1  0  0  0
 19 20  1  0  0  0
 20 21  1  0  0  0
 21 22  1  0  0  0
 22 25  1  0  0  0
 25 26  1  0  0  0
 22 23  1  0  0  0
 23 24  1  0  0  0
 33 34  2  0  0  0
 34 35  1  0  0  0
 35 36  1  0  0  0
 35 30  2  0  0  0
  6  1  1  0  0  0
 24 19  1  0  0  0
 11  7  1  0  0  0
 27 28  1  0  0  0
 13 14  1  0  0  0
 17 18  1  0  0  0
M  END
> <minimizedAffinity>
-9.89242

$$$$



 38 41  0  0  0  0  0  0  0  0999 V2000
    0.4668   64.6245   83.3637 C   0  0  0  0  0  0  0  0  0  0  0  0
    0.3591   64.3749   84.6872 N   0  0  0  0  0  0  0  0  0  0  0  0
   -0.6442   63.6016   85.1359 C   0  0  0  0  0  0  0  0  0  0  0  0
   -1.5516   63.0463   84.3193 N   0  0  0  0  0  0  0  0  0  0  0  0
   -1.4347   63.3059   83.0016 C   0  0  0  0  0  0  0  0  0  0  0  0
   -0.4531   64.1064   82.4657 C   0  0  0  0  0  0  0  0  0  0  0  0
   -0.7185   63.3375   86.4830 N   0  0  0  0  0  0  0  0  0  0  0  0
    0.2648   63.9376   87.3692 C   0  0  0  0  0  0  0  0  0  0  0  0
    0.0373   63.1981   88.6828 C   0  0  0  0  0  0  0  0  0  0  0  0
   -0.2879   61.7859   88.2157 C   0  0  0  0  0  0  0  0  0  0  0  0
   -1.1172   61.9991   86.9333 C   0  0  0  0  0  0  0  0  0  0  0  0
   -2.6302   61.9506   87.1982 C   0  0  0  0  0  0  0  0  0  0  0  0
   -3.1863   63.2643   87.2189 O   0  0  0  0  0  0  0  0  0  0  0  0
   -4.1295   63.1629   87.4338 H   0  0  0  0  0  0  0  0  0  0  0  0
   -0.3351   64.3121   81.0108 C   0  0  0  0  0  0  0  0  0  0  0  0
   -0.0705   65.4290   80.5764 O   0  0  0  0  0  0  0  0  0  0  0  0
   -0.5193   63.2027   80.2158 N   0  0  0  0  0  0  0  0  0  0  0  0
   -0.6331   62.2825   80.6367 H   0  0  0  0  0  0  0  0  0  0  0  0
   -0.2300   63.2036   78.7877 C   0  0  0  0  0  0  0  0  0  0  0  0
    0.2340   61.8128   78.3460 C   0  0  0  0  0  0  0  0  0  0  0  0
   -0.8456   60.7329   78.5293 C   0  0  0  0  0  0  0  0  0  0  0  0
   -2.2863   61.2666   78.4479 C   0  0  0  0  0  0  0  0  0  0  0  0
   -2.3522   62.4803   77.5185 C   0  0  0  0  0  0  0  0  0  0  0  0
   -1.4690   63.6445   77.9909 C   0  0  0  0  0  0  0  0  0  0  0  0
   -2.6998   61.6173   79.7809 O   0  0  0  0  0  0  0  0  0  0  0  0
   -4.1142   61.6131   79.9477 C   0  0  0  0  0  0  0  0  0  0  0  0
    1.4655   65.5174   82.9288 N   0  0  0  0  0  0  0  0  0  0  0  0
    2.3534   65.0132   82.8401 H   0  0  0  0  0  0  0  0  0  0  0  0
    1.5898   66.7320   83.7159 C   0  0  0  0  0  0  0  0  0  0  0  0
    5.6703   67.1065   85.1433 C   0  0  0  0  0  0  0  0  0  0  0  0
    5.1100   68.0929   84.3250 C   0  0  0  0  0  0  0  0  0  0  0  0
    3.7950   67.9702   83.8593 C   0  0  0  0  0  0  0  0  0  0  0  0
    3.0175   66.8553   84.1959 C   0  0  0  0  0  0  0  0  0  0  0  0
    3.5722   65.8727   85.0260 C   0  0  0  0  0  0  0  0  0  0  0  0
    4.8856   65.9949   85.4902 C   0  0  0  0  0  0  0  0  0  0  0  0
    5.5042   64.7359   86.5038 Cl  0  0  0  0  0  0  0  0  0  0  0  0
    7.9897   66.6355   84.8191 C   0  0  0  0  0  0  0  0  0  0  0  0
    6.9473   67.1430   85.6404 O   0  0  0  0  0  0  0  0  0  0  0  0
 37 38  1  0  0  0
 38 30  1  0  0  0
 30 31  1  0  0  0
 31 32  2  0  0  0
 32 33  1  0  0  0
 33 29  1  0  0  0
 29 27  1  0  0  0
 27  1  1  0  0  0
  1  2  2  0  0  0
  2  3  1  0  0  0
  3  7  1  0  0  0
  7  8  1  0  0  0
  8  9  1  0  0  0
  9 10  1  0  0  0
 10 11  1  0  0  0
 11 12  1  0  0  0
 12 13  1  0  0  0
  3  4  2  0  0  0
  4  5  1  0  0  0
  5  6  2  0  0  0
  6 15  1  0  0  0
 15 16  2  0  0  0
 15 17  1  0  0  0
 17 19  1  0  0  0
 19 20  1  0  0  0
 20 21  1  0  0  0
 21 22  1  0  0  0
 22 25  1  0  0  0
 25 26  1  0  0  0
 22 23  1  0  0  0
 23 24  1  0  0  0
 33 34  2  0  0  0
 34 35  1  0  0  0
 35 36  1  0  0  0
 35 30  2  0  0  0
  6  1  1  0  0  0
 24 19  1  0  0  0
 11  7  1  0  0  0
 27 28  1  0  0  0
 13 14  1  0  0  0
 17 18  1  0  0  0
M  END
> <minimizedAffinity>
-9.89154

$$$$



 38 41  0  0  0  0  0  0  0  0999 V2000
    1.0035   64.8622   83.7830 C   0  0  0  0  0  0  0  0  0  0  0  0
    0.0379   64.0805   84.3139 N   0  0  0  0  0  0  0  0  0  0  0  0
    0.0507   63.8142   85.6310 C   0  0  0  0  0  0  0  0  0  0  0  0
    0.9838   64.3047   86.4600 N   0  0  0  0  0  0  0  0  0  0  0  0
    1.9433   65.0806   85.9173 C   0  0  0  0  0  0  0  0  0  0  0  0
    2.0154   65.3795   84.5767 C   0  0  0  0  0  0  0  0  0  0  0  0
   -0.9571   63.0398   86.1549 N   0  0  0  0  0  0  0  0  0  0  0  0
   -1.9305   62.4519   85.2498 C   0  0  0  0  0  0  0  0  0  0  0  0
   -3.0094   61.9369   86.1959 C   0  0  0  0  0  0  0  0  0  0  0  0
   -3.0381   63.0066   87.2790 C   0  0  0  0  0  0  0  0  0  0  0  0
   -1.5597   63.4148   87.4391 C   0  0  0  0  0  0  0  0  0  0  0  0
   -0.8680   62.6729   88.5935 C   0  0  0  0  0  0  0  0  0  0  0  0
   -0.0834   63.5696   89.3781 O   0  0  0  0  0  0  0  0  0  0  0  0
    0.3575   63.0309   90.0574 H   0  0  0  0  0  0  0  0  0  0  0  0
    3.0528   66.2802   84.0424 C   0  0  0  0  0  0  0  0  0  0  0  0
    2.7294   67.2070   83.3057 O   0  0  0  0  0  0  0  0  0  0  0  0
    4.3493   66.0233   84.4295 N   0  0  0  0  0  0  0  0  0  0  0  0
    4.5449   65.3052   85.1246 H   0  0  0  0  0  0  0  0  0  0  0  0
    5.4467   66.9419   84.1561 C   0  0  0  0  0  0  0  0  0  0  0  0
    5.5312   68.0006   85.2592 C   0  0  0  0  0  0  0  0  0  0  0  0
    5.8501   67.4048   86.6408 C   0  0  0  0  0  0  0  0  0  0  0  0
    6.6584   66.0967   86.5879 C   0  0  0  0  0  0  0  0  0  0  0  0
    7.5592   66.0777   85.3512 C   0  0  0  0  0  0  0  0  0  0  0  0
    6.7721   66.1717   84.0359 C   0  0  0  0  0  0  0  0  0  0  0  0
    5.7224   65.0040   86.5584 O   0  0  0  0  0  0  0  0  0  0  0  0
    4.9377   64.9068   87.7430 C   0  0  0  0  0  0  0  0  0  0  0  0
    1.0262   65.0450   82.3866 N   0  0  0  0  0  0  0  0  0  0  0  0
    1.4933   65.9312   82.1701 H   0  0  0  0  0  0  0  0  0  0  0  0
   -0.2626   64.9182   81.7287 C   0  0  0  0  0  0  0  0  0  0  0  0
    0.2096   62.6585   78.0546 C   0  0  0  0  0  0  0  0  0  0  0  0
    0.5754   62.1010   79.2843 C   0  0  0  0  0  0  0  0  0  0  0  0
    0.4285   62.8315   80.4698 C   0  0  0  0  0  0  0  0  0  0  0  0
   -0.0792   64.1363   80.4485 C   0  0  0  0  0  0  0  0  0  0  0  0
   -0.4584   64.6919   79.2196 C   0  0  0  0  0  0  0  0  0  0  0  0
   -0.3108   63.9625   78.0357 C   0  0  0  0  0  0  0  0  0  0  0  0
   -0.7924   64.7194   76.5557 Cl  0  0  0  0  0  0  0  0  0  0  0  0
   -0.6181   60.9948   76.5533 C   0  0  0  0  0  0  0  0  0  0  0  0
    0.3222   62.0185   76.8475 O   0  0  0  0  0  0  0  0  0  0  0  0
 37 38  1  0  0  0
 38 30  1  0  0  0
 30 31  1  0  0  0
 31 32  2  0  0  0
 32 33  1  0  0  0
 33 29  1  0  0  0
 29 27  1  0  0  0
 27  1  1  0  0  0
  1  2  2  0  0  0
  2  3  1  0  0  0
  3  7  1  0  0  0
  7  8  1  0  0  0
  8  9  1  0  0  0
  9 10  1  0  0  0
 10 11  1  0  0  0
 11 12  1  0  0  0
 12 13  1  0  0  0
  3  4  2  0  0  0
  4  5  1  0  0  0
  5  6  2  0  0  0
  6 15  1  0  0  0
 15 16  2  0  0  0
 15 17  1  0  0  0
 17 19  1  0  0  0
 19 20  1  0  0  0
 20 21  1  0  0  0
 21 22  1  0  0  0
 22 25  1  0  0  0
 25 26  1  0  0  0
 22 23  1  0  0  0
 23 24  1  0  0  0
 33 34  2  0  0  0
 34 35  1  0  0  0
 35 36  1  0  0  0
 35 30  2  0  0  0
  6  1  1  0  0  0
 24 19  1  0  0  0
 11  7  1  0  0  0
 27 28  1  0  0  0
 13 14  1  0  0  0
 17 18  1  0  0  0
M  END
> <minimizedAffinity>
-9.87998

$$$$



 38 41  0  0  0  0  0  0  0  0999 V2000
    0.5747   65.2574   81.2678 C   0  0  0  0  0  0  0  0  0  0  0  0
   -0.0552   64.4763   80.3632 N   0  0  0  0  0  0  0  0  0  0  0  0
    0.1801   64.6584   79.0527 C   0  0  0  0  0  0  0  0  0  0  0  0
    1.0333   65.5848   78.5920 N   0  0  0  0  0  0  0  0  0  0  0  0
    1.6529   66.3596   79.5047 C   0  0  0  0  0  0  0  0  0  0  0  0
    1.4479   66.2539   80.8606 C   0  0  0  0  0  0  0  0  0  0  0  0
   -0.4500   63.8340   78.1509 N   0  0  0  0  0  0  0  0  0  0  0  0
   -1.0774   64.4261   76.9811 C   0  0  0  0  0  0  0  0  0  0  0  0
   -1.8898   63.2707   76.4075 C   0  0  0  0  0  0  0  0  0  0  0  0
   -2.3788   62.5559   77.6598 C   0  0  0  0  0  0  0  0  0  0  0  0
   -1.1931   62.6671   78.6394 C   0  0  0  0  0  0  0  0  0  0  0  0
   -0.2998   61.4167   78.6235 C   0  0  0  0  0  0  0  0  0  0  0  0
    0.6460   61.4525   79.6910 O   0  0  0  0  0  0  0  0  0  0  0  0
    1.2026   60.6606   79.5951 H   0  0  0  0  0  0  0  0  0  0  0  0
    2.1942   67.0874   81.8204 C   0  0  0  0  0  0  0  0  0  0  0  0
    2.6123   66.5872   82.8602 O   0  0  0  0  0  0  0  0  0  0  0  0
    2.3912   68.4043   81.4683 N   0  0  0  0  0  0  0  0  0  0  0  0
    2.1124   68.7366   80.5470 H   0  0  0  0  0  0  0  0  0  0  0  0
    3.2814   69.2897   82.2076 C   0  0  0  0  0  0  0  0  0  0  0  0
    4.0811   70.1607   81.2346 C   0  0  0  0  0  0  0  0  0  0  0  0
    3.1936   71.0999   80.4004 C   0  0  0  0  0  0  0  0  0  0  0  0
    1.8805   71.5019   81.0941 C   0  0  0  0  0  0  0  0  0  0  0  0
    2.0668   71.5254   82.6126 C   0  0  0  0  0  0  0  0  0  0  0  0
    2.4775   70.1614   83.1865 C   0  0  0  0  0  0  0  0  0  0  0  0
    0.8739   70.5460   80.7148 O   0  0  0  0  0  0  0  0  0  0  0  0
   -0.4321   70.9030   81.1568 C   0  0  0  0  0  0  0  0  0  0  0  0
    0.2368   65.1149   82.6277 N   0  0  0  0  0  0  0  0  0  0  0  0
    1.0644   65.3031   83.2024 H   0  0  0  0  0  0  0  0  0  0  0  0
   -0.4087   63.8602   82.9730 C   0  0  0  0  0  0  0  0  0  0  0  0
   -0.5034   63.5049   87.2965 C   0  0  0  0  0  0  0  0  0  0  0  0
    0.4882   64.2646   86.6671 C   0  0  0  0  0  0  0  0  0  0  0  0
    0.5229   64.3753   85.2716 C   0  0  0  0  0  0  0  0  0  0  0  0
   -0.4281   63.7223   84.4778 C   0  0  0  0  0  0  0  0  0  0  0  0
   -1.4298   62.9716   85.1066 C   0  0  0  0  0  0  0  0  0  0  0  0
   -1.4637   62.8604   86.5002 C   0  0  0  0  0  0  0  0  0  0  0  0
   -2.7259   61.9080   87.2037 Cl  0  0  0  0  0  0  0  0  0  0  0  0
    0.2414   62.3845   89.2706 C   0  0  0  0  0  0  0  0  0  0  0  0
   -0.6108   63.3390   88.6531 O   0  0  0  0  0  0  0  0  0  0  0  0
 37 38  1  0  0  0
 38 30  1  0  0  0
 30 31  1  0  0  0
 31 32  2  0  0  0
 32 33  1  0  0  0
 33 29  1  0  0  0
 29 27  1  0  0  0
 27  1  1  0  0  0
  1  2  2  0  0  0
  2  3  1  0  0  0
  3  7  1  0  0  0
  7  8  1  0  0  0
  8  9  1  0  0  0
  9 10  1  0  0  0
 10 11  1  0  0  0
 11 12  1  0  0  0
 12 13  1  0  0  0
  3  4  2  0  0  0
  4  5  1  0  0  0
  5  6  2  0  0  0
  6 15  1  0  0  0
 15 16  2  0  0  0
 15 17  1  0  0  0
 17 19  1  0  0  0
 19 20  1  0  0  0
 20 21  1  0  0  0
 21 22  1  0  0  0
 22 25  1  0  0  0
 25 26  1  0  0  0
 22 23  1  0  0  0
 23 24  1  0  0  0
 33 34  2  0  0  0
 34 35  1  0  0  0
 35 36  1  0  0  0
 35 30  2  0  0  0
  6  1  1  0  0  0
 24 19  1  0  0  0
 11  7  1  0  0  0
 27 28  1  0  0  0
 13 14  1  0  0  0
 17 18  1  0  0  0
M  END
> <minimizedAffinity>
-9.85494

$$$$



 38 41  0  0  0  0  0  0  0  0999 V2000
   -0.4558   64.1929   82.5715 C   0  0  0  0  0  0  0  0  0  0  0  0
   -0.7027   63.5357   83.7259 N   0  0  0  0  0  0  0  0  0  0  0  0
   -0.0977   63.9345   84.8577 C   0  0  0  0  0  0  0  0  0  0  0  0
    0.7436   64.9780   84.9002 N   0  0  0  0  0  0  0  0  0  0  0  0
    0.9838   65.6230   83.7411 C   0  0  0  0  0  0  0  0  0  0  0  0
    0.4252   65.2624   82.5372 C   0  0  0  0  0  0  0  0  0  0  0  0
   -0.3849   63.2695   86.0260 N   0  0  0  0  0  0  0  0  0  0  0  0
   -1.5814   62.4467   86.0871 C   0  0  0  0  0  0  0  0  0  0  0  0
   -1.7037   62.1311   87.5736 C   0  0  0  0  0  0  0  0  0  0  0  0
   -1.2391   63.4260   88.2262 C   0  0  0  0  0  0  0  0  0  0  0  0
   -0.0985   63.9161   87.3116 C   0  0  0  0  0  0  0  0  0  0  0  0
    1.2874   63.4968   87.8263 C   0  0  0  0  0  0  0  0  0  0  0  0
    2.2990   64.3787   87.3422 O   0  0  0  0  0  0  0  0  0  0  0  0
    3.1479   64.0319   87.6668 H   0  0  0  0  0  0  0  0  0  0  0  0
    0.6760   66.0368   81.3082 C   0  0  0  0  0  0  0  0  0  0  0  0
    0.9075   65.4469   80.2571 O   0  0  0  0  0  0  0  0  0  0  0  0
    0.6162   67.4080   81.4222 N   0  0  0  0  0  0  0  0  0  0  0  0
    0.3175   67.8381   82.2955 H   0  0  0  0  0  0  0  0  0  0  0  0
    0.6335   68.2933   80.2651 C   0  0  0  0  0  0  0  0  0  0  0  0
   -0.2196   69.5344   80.5418 C   0  0  0  0  0  0  0  0  0  0  0  0
    0.3211   70.3889   81.7007 C   0  0  0  0  0  0  0  0  0  0  0  0
    1.8428   70.2824   81.9013 C   0  0  0  0  0  0  0  0  0  0  0  0
    2.5369   70.0032   80.5665 C   0  0  0  0  0  0  0  0  0  0  0  0
    2.0775   68.6900   79.9161 C   0  0  0  0  0  0  0  0  0  0  0  0
    2.0879   69.2194   82.8399 O   0  0  0  0  0  0  0  0  0  0  0  0
    3.4257   69.2008   83.3279 C   0  0  0  0  0  0  0  0  0  0  0  0
   -1.0228   63.6953   81.3821 N   0  0  0  0  0  0  0  0  0  0  0  0
   -1.2175   64.4770   80.7485 H   0  0  0  0  0  0  0  0  0  0  0  0
   -2.1721   62.8259   81.5652 C   0  0  0  0  0  0  0  0  0  0  0  0
   -2.5661   60.2446   78.0998 C   0  0  0  0  0  0  0  0  0  0  0  0
   -2.8518   59.7627   79.3814 C   0  0  0  0  0  0  0  0  0  0  0  0
   -2.7197   60.5934   80.5010 C   0  0  0  0  0  0  0  0  0  0  0  0
   -2.2916   61.9194   80.3620 C   0  0  0  0  0  0  0  0  0  0  0  0
   -2.0174   62.4079   79.0780 C   0  0  0  0  0  0  0  0  0  0  0  0
   -2.1486   61.5779   77.9603 C   0  0  0  0  0  0  0  0  0  0  0  0
   -1.7828   62.2503   76.4080 Cl  0  0  0  0  0  0  0  0  0  0  0  0
   -1.5236   58.7579   76.5474 C   0  0  0  0  0  0  0  0  0  0  0  0
   -2.6643   59.5025   76.9512 O   0  0  0  0  0  0  0  0  0  0  0  0
 37 38  1  0  0  0
 38 30  1  0  0  0
 30 31  1  0  0  0
 31 32  2  0  0  0
 32 33  1  0  0  0
 33 29  1  0  0  0
 29 27  1  0  0  0
 27  1  1  0  0  0
  1  2  2  0  0  0
  2  3  1  0  0  0
  3  7  1  0  0  0
  7  8  1  0  0  0
  8  9  1  0  0  0
  9 10  1  0  0  0
 10 11  1  0  0  0
 11 12  1  0  0  0
 12 13  1  0  0  0
  3  4  2  0  0  0
  4  5  1  0  0  0
  5  6  2  0  0  0
  6 15  1  0  0  0
 15 16  2  0  0  0
 15 17  1  0  0  0
 17 19  1  0  0  0
 19 20  1  0  0  0
 20 21  1  0  0  0
 21 22  1  0  0  0
 22 25  1  0  0  0
 25 26  1  0  0  0
 22 23  1  0  0  0
 23 24  1  0  0  0
 33 34  2  0  0  0
 34 35  1  0  0  0
 35 36  1  0  0  0
 35 30  2  0  0  0
  6  1  1  0  0  0
 24 19  1  0  0  0
 11  7  1  0  0  0
 27 28  1  0  0  0
 13 14  1  0  0  0
 17 18  1  0  0  0
M  END
> <minimizedAffinity>
-9.77130

$$$$



 38 41  0  0  0  0  0  0  0  0999 V2000
    0.2283   64.4012   81.3319 C   0  0  0  0  0  0  0  0  0  0  0  0
    0.0986   64.4946   82.6735 N   0  0  0  0  0  0  0  0  0  0  0  0
   -0.5044   63.5032   83.3514 C   0  0  0  0  0  0  0  0  0  0  0  0
   -0.9805   62.4017   82.7526 N   0  0  0  0  0  0  0  0  0  0  0  0
   -0.8477   62.3224   81.4135 C   0  0  0  0  0  0  0  0  0  0  0  0
   -0.2665   63.3038   80.6449 C   0  0  0  0  0  0  0  0  0  0  0  0
   -0.6006   63.6057   84.7189 N   0  0  0  0  0  0  0  0  0  0  0  0
    0.3631   64.4306   85.4284 C   0  0  0  0  0  0  0  0  0  0  0  0
    0.1176   64.0643   86.8877 C   0  0  0  0  0  0  0  0  0  0  0  0
   -0.1901   62.5753   86.8080 C   0  0  0  0  0  0  0  0  0  0  0  0
   -0.9982   62.4309   85.5027 C   0  0  0  0  0  0  0  0  0  0  0  0
   -2.5153   62.4379   85.7481 C   0  0  0  0  0  0  0  0  0  0  0  0
   -3.1613   61.4279   84.9748 O   0  0  0  0  0  0  0  0  0  0  0  0
   -4.1151   61.5174   85.1431 H   0  0  0  0  0  0  0  0  0  0  0  0
   -0.0941   63.1424   79.1898 C   0  0  0  0  0  0  0  0  0  0  0  0
    0.9974   63.3761   78.6796 O   0  0  0  0  0  0  0  0  0  0  0  0
   -1.1958   62.7130   78.4837 N   0  0  0  0  0  0  0  0  0  0  0  0
   -2.0437   62.4350   78.9743 H   0  0  0  0  0  0  0  0  0  0  0  0
   -1.1235   62.3093   77.0856 C   0  0  0  0  0  0  0  0  0  0  0  0
   -0.6447   60.8584   76.9829 C   0  0  0  0  0  0  0  0  0  0  0  0
   -1.6152   59.8580   77.6331 C   0  0  0  0  0  0  0  0  0  0  0  0
   -3.0825   60.3210   77.6382 C   0  0  0  0  0  0  0  0  0  0  0  0
   -3.3620   61.2158   76.4289 C   0  0  0  0  0  0  0  0  0  0  0  0
   -2.4927   62.4816   76.4073 C   0  0  0  0  0  0  0  0  0  0  0  0
   -3.3133   61.0322   78.8678 O   0  0  0  0  0  0  0  0  0  0  0  0
   -3.4633   60.1716   79.9926 C   0  0  0  0  0  0  0  0  0  0  0  0
    0.7730   65.4960   80.6330 N   0  0  0  0  0  0  0  0  0  0  0  0
    1.6135   65.8227   81.1201 H   0  0  0  0  0  0  0  0  0  0  0  0
   -0.1614   66.5716   80.3499 C   0  0  0  0  0  0  0  0  0  0  0  0
    1.3181   70.2272   82.1598 C   0  0  0  0  0  0  0  0  0  0  0  0
    0.3371   70.2734   81.1637 C   0  0  0  0  0  0  0  0  0  0  0  0
   -0.1370   69.0945   80.5752 C   0  0  0  0  0  0  0  0  0  0  0  0
    0.3660   67.8472   80.9650 C   0  0  0  0  0  0  0  0  0  0  0  0
    1.3391   67.7977   81.9715 C   0  0  0  0  0  0  0  0  0  0  0  0
    1.8131   68.9751   82.5585 C   0  0  0  0  0  0  0  0  0  0  0  0
    3.0223   68.8340   83.7887 Cl  0  0  0  0  0  0  0  0  0  0  0  0
    1.3278   72.6018   82.4203 C   0  0  0  0  0  0  0  0  0  0  0  0
    1.8413   71.3286   82.7863 O   0  0  0  0  0  0  0  0  0  0  0  0
 37 38  1  0  0  0
 38 30  1  0  0  0
 30 31  1  0  0  0
 31 32  2  0  0  0
 32 33  1  0  0  0
 33 29  1  0  0  0
 29 27  1  0  0  0
 27  1  1  0  0  0
  1  2  2  0  0  0
  2  3  1  0  0  0
  3  7  1  0  0  0
  7  8  1  0  0  0
  8  9  1  0  0  0
  9 10  1  0  0  0
 10 11  1  0  0  0
 11 12  1  0  0  0
 12 13  1  0  0  0
  3  4  2  0  0  0
  4  5  1  0  0  0
  5  6  2  0  0  0
  6 15  1  0  0  0
 15 16  2  0  0  0
 15 17  1  0  0  0
 17 19  1  0  0  0
 19 20  1  0  0  0
 20 21  1  0  0  0
 21 22  1  0  0  0
 22 25  1  0  0  0
 25 26  1  0  0  0
 22 23  1  0  0  0
 23 24  1  0  0  0
 33 34  2  0  0  0
 34 35  1  0  0  0
 35 36  1  0  0  0
 35 30  2  0  0  0
  6  1  1  0  0  0
 24 19  1  0  0  0
 11  7  1  0  0  0
 27 28  1  0  0  0
 13 14  1  0  0  0
 17 18  1  0  0  0
M  END
> <minimizedAffinity>
-9.70402

$$$$



 38 41  0  0  0  0  0  0  0  0999 V2000
    1.1734   65.3778   83.3472 C   0  0  0  0  0  0  0  0  0  0  0  0
    0.2476   64.4126   83.5384 N   0  0  0  0  0  0  0  0  0  0  0  0
    0.0547   63.9146   84.7716 C   0  0  0  0  0  0  0  0  0  0  0  0
    0.7392   64.3449   85.8416 N   0  0  0  0  0  0  0  0  0  0  0  0
    1.6622   65.3058   85.6367 C   0  0  0  0  0  0  0  0  0  0  0  0
    1.9372   65.8491   84.4035 C   0  0  0  0  0  0  0  0  0  0  0  0
   -0.9119   62.9533   84.9485 N   0  0  0  0  0  0  0  0  0  0  0  0
   -1.8078   62.6502   83.8450 C   0  0  0  0  0  0  0  0  0  0  0  0
   -2.8788   61.7865   84.5016 C   0  0  0  0  0  0  0  0  0  0  0  0
   -3.0230   62.4258   85.8760 C   0  0  0  0  0  0  0  0  0  0  0  0
   -1.5846   62.8393   86.2475 C   0  0  0  0  0  0  0  0  0  0  0  0
   -0.8816   61.7926   87.1259 C   0  0  0  0  0  0  0  0  0  0  0  0
   -0.1486   62.4191   88.1773 O   0  0  0  0  0  0  0  0  0  0  0  0
    0.3032   61.7075   88.6628 H   0  0  0  0  0  0  0  0  0  0  0  0
    2.9165   66.9390   84.2423 C   0  0  0  0  0  0  0  0  0  0  0  0
    2.5215   68.0840   84.0440 O   0  0  0  0  0  0  0  0  0  0  0  0
    4.2454   66.5920   84.3438 N   0  0  0  0  0  0  0  0  0  0  0  0
    4.5100   65.6461   84.6127 H   0  0  0  0  0  0  0  0  0  0  0  0
    5.3120   67.5820   84.4160 C   0  0  0  0  0  0  0  0  0  0  0  0
    5.3326   68.2302   85.8032 C   0  0  0  0  0  0  0  0  0  0  0  0
    5.6455   67.2302   86.9290 C   0  0  0  0  0  0  0  0  0  0  0  0
    6.5046   66.0339   86.4841 C   0  0  0  0  0  0  0  0  0  0  0  0
    7.4310   66.4420   85.3367 C   0  0  0  0  0  0  0  0  0  0  0  0
    6.6684   66.9318   84.0969 C   0  0  0  0  0  0  0  0  0  0  0  0
    5.6124   64.9817   86.0745 O   0  0  0  0  0  0  0  0  0  0  0  0
    4.7124   64.5791   87.1023 C   0  0  0  0  0  0  0  0  0  0  0  0
    1.4273   65.8124   82.0317 N   0  0  0  0  0  0  0  0  0  0  0  0
    2.3443   66.2690   81.9984 H   0  0  0  0  0  0  0  0  0  0  0  0
    0.3783   66.6234   81.4385 C   0  0  0  0  0  0  0  0  0  0  0  0
    1.9331   70.5841   80.5878 C   0  0  0  0  0  0  0  0  0  0  0  0
    2.6803   69.4442   80.2732 C   0  0  0  0  0  0  0  0  0  0  0  0
    2.1818   68.1658   80.5524 C   0  0  0  0  0  0  0  0  0  0  0  0
    0.9302   68.0022   81.1588 C   0  0  0  0  0  0  0  0  0  0  0  0
    0.1745   69.1419   81.4627 C   0  0  0  0  0  0  0  0  0  0  0  0
    0.6730   70.4185   81.1847 C   0  0  0  0  0  0  0  0  0  0  0  0
   -0.3147   71.7784   81.5976 Cl  0  0  0  0  0  0  0  0  0  0  0  0
    3.3002   72.4302   81.2432 C   0  0  0  0  0  0  0  0  0  0  0  0
    2.3437   71.8709   80.3538 O   0  0  0  0  0  0  0  0  0  0  0  0
 37 38  1  0  0  0
 38 30  1  0  0  0
 30 31  1  0  0  0
 31 32  2  0  0  0
 32 33  1  0  0  0
 33 29  1  0  0  0
 29 27  1  0  0  0
 27  1  1  0  0  0
  1  2  2  0  0  0
  2  3  1  0  0  0
  3  7  1  0  0  0
  7  8  1  0  0  0
  8  9  1  0  0  0
  9 10  1  0  0  0
 10 11  1  0  0  0
 11 12  1  0  0  0
 12 13  1  0  0  0
  3  4  2  0  0  0
  4  5  1  0  0  0
  5  6  2  0  0  0
  6 15  1  0  0  0
 15 16  2  0  0  0
 15 17  1  0  0  0
 17 19  1  0  0  0
 19 20  1  0  0  0
 20 21  1  0  0  0
 21 22  1  0  0  0
 22 25  1  0  0  0
 25 26  1  0  0  0
 22 23  1  0  0  0
 23 24  1  0  0  0
 33 34  2  0  0  0
 34 35  1  0  0  0
 35 36  1  0  0  0
 35 30  2  0  0  0
  6  1  1  0  0  0
 24 19  1  0  0  0
 11  7  1  0  0  0
 27 28  1  0  0  0
 13 14  1  0  0  0
 17 18  1  0  0  0
M  END
> <minimizedAffinity>
-9.54446

$$$$



 38 41  0  0  0  0  0  0  0  0999 V2000
    1.4719   65.9191   82.6563 C   0  0  0  0  0  0  0  0  0  0  0  0
    0.4428   65.0439   82.6375 N   0  0  0  0  0  0  0  0  0  0  0  0
    0.0391   64.4714   83.7843 C   0  0  0  0  0  0  0  0  0  0  0  0
    0.6092   64.7404   84.9680 N   0  0  0  0  0  0  0  0  0  0  0  0
    1.6369   65.6128   84.9725 C   0  0  0  0  0  0  0  0  0  0  0  0
    2.1260   66.2216   83.8404 C   0  0  0  0  0  0  0  0  0  0  0  0
   -1.0279   63.6054   83.7467 N   0  0  0  0  0  0  0  0  0  0  0  0
   -1.5458   63.0780   84.9981 C   0  0  0  0  0  0  0  0  0  0  0  0
   -2.4895   61.9725   84.5386 C   0  0  0  0  0  0  0  0  0  0  0  0
   -1.7606   61.3947   83.3332 C   0  0  0  0  0  0  0  0  0  0  0  0
   -1.1216   62.6254   82.6587 C   0  0  0  0  0  0  0  0  0  0  0  0
   -1.9816   63.1780   81.5113 C   0  0  0  0  0  0  0  0  0  0  0  0
   -1.1626   63.6744   80.4539 O   0  0  0  0  0  0  0  0  0  0  0  0
   -1.7654   64.0461   79.7871 H   0  0  0  0  0  0  0  0  0  0  0  0
    3.2153   67.2125   83.9073 C   0  0  0  0  0  0  0  0  0  0  0  0
    2.9741   68.3942   83.6799 O   0  0  0  0  0  0  0  0  0  0  0  0
    4.4618   66.7344   84.2454 N   0  0  0  0  0  0  0  0  0  0  0  0
    4.5805   65.7624   84.5247 H   0  0  0  0  0  0  0  0  0  0  0  0
    5.5823   67.6131   84.5541 C   0  0  0  0  0  0  0  0  0  0  0  0
    5.4597   68.1347   85.9886 C   0  0  0  0  0  0  0  0  0  0  0  0
    5.5326   67.0170   87.0426 C   0  0  0  0  0  0  0  0  0  0  0  0
    6.3488   65.7902   86.6000 C   0  0  0  0  0  0  0  0  0  0  0  0
    7.4556   66.2094   85.6302 C   0  0  0  0  0  0  0  0  0  0  0  0
    6.9146   66.8718   84.3547 C   0  0  0  0  0  0  0  0  0  0  0  0
    5.4426   64.8630   85.9753 O   0  0  0  0  0  0  0  0  0  0  0  0
    4.3295   64.5277   86.7981 C   0  0  0  0  0  0  0  0  0  0  0  0
    1.9412   66.4290   81.4300 N   0  0  0  0  0  0  0  0  0  0  0  0
    2.7660   67.0127   81.6010 H   0  0  0  0  0  0  0  0  0  0  0  0
    0.9401   67.1011   80.6199 C   0  0  0  0  0  0  0  0  0  0  0  0
    1.5593   71.3796   80.9922 C   0  0  0  0  0  0  0  0  0  0  0  0
    0.3220   70.8099   81.3104 C   0  0  0  0  0  0  0  0  0  0  0  0
    0.1196   69.4300   81.1853 C   0  0  0  0  0  0  0  0  0  0  0  0
    1.1474   68.5938   80.7320 C   0  0  0  0  0  0  0  0  0  0  0  0
    2.3912   69.1605   80.4254 C   0  0  0  0  0  0  0  0  0  0  0  0
    2.5929   70.5387   80.5495 C   0  0  0  0  0  0  0  0  0  0  0  0
    4.1538   71.1661   80.1430 Cl  0  0  0  0  0  0  0  0  0  0  0  0
    1.1119   73.4866   82.0254 C   0  0  0  0  0  0  0  0  0  0  0  0
    1.8441   72.7177   81.0813 O   0  0  0  0  0  0  0  0  0  0  0  0
 37 38  1  0  0  0
 38 30  1  0  0  0
 30 31  1  0  0  0
 31 32  2  0  0  0
 32 33  1  0  0  0
 33 29  1  0  0  0
 29 27  1  0  0  0
 27  1  1  0  0  0
  1  2  2  0  0  0
  2  3  1  0  0  0
  3  7  1  0  0  0
  7  8  1  0  0  0
  8  9  1  0  0  0
  9 10  1  0  0  0
 10 11  1  0  0  0
 11 12  1  0  0  0
 12 13  1  0  0  0
  3  4  2  0  0  0
  4  5  1  0  0  0
  5  6  2  0  0  0
  6 15  1  0  0  0
 15 16  2  0  0  0
 15 17  1  0  0  0
 17 19  1  0  0  0
 19 20  1  0  0  0
 20 21  1  0  0  0
 21 22  1  0  0  0
 22 25  1  0  0  0
 25 26  1  0  0  0
 22 23  1  0  0  0
 23 24  1  0  0  0
 33 34  2  0  0  0
 34 35  1  0  0  0
 35 36  1  0  0  0
 35 30  2  0  0  0
  6  1  1  0  0  0
 24 19  1  0  0  0
 11  7  1  0  0  0
 27 28  1  0  0  0
 13 14  1  0  0  0
 17 18  1  0  0  0
M  END
> <minimizedAffinity>
-9.35970

$$$$
