
     RDKit          3D

 36 38  0  0  0  0  0  0  0  0999 V2000
   -3.9129   -2.8211    0.0600 C   0  0  0  0  0  0  0  0  0  0  0  0
   -3.2152   -1.5082    0.3772 C   0  0  0  0  0  0  0  0  0  0  0  0
   -2.7815   -0.7817   -0.8967 C   0  0  0  0  0  0  0  0  0  0  0  0
   -2.0947    0.5063   -0.6018 C   0  0  0  0  0  0  0  0  0  0  0  0
   -2.7779    1.6669   -0.5800 N   0  0  0  0  0  0  0  0  0  0  0  0
   -1.8376    2.5971   -0.2802 N   0  0  0  0  0  0  0  0  0  0  0  0
   -2.2104    3.9864   -0.1661 C   0  0  0  0  0  0  0  0  0  0  0  0
   -0.5968    2.0666   -0.1148 C   0  0  0  0  0  0  0  0  0  0  0  0
    0.6448    2.6664    0.2055 C   0  0  0  0  0  0  0  0  0  0  0  0
    0.8355    3.8572    0.4223 O   0  0  0  0  0  0  0  0  0  0  0  0
    1.6577    1.7348    0.2594 N   0  0  0  0  0  0  0  0  0  0  0  0
    1.4655    0.3711    0.0496 C   0  0  0  0  0  0  0  0  0  0  0  0
    2.6823   -0.4786    0.1787 C   0  0  0  0  0  0  0  0  0  0  0  0
    3.9491   -0.0095   -0.1931 C   0  0  0  0  0  0  0  0  0  0  0  0
    5.0672   -0.8357   -0.0540 C   0  0  0  0  0  0  0  0  0  0  0  0
    4.9240   -2.1292    0.4478 C   0  0  0  0  0  0  0  0  0  0  0  0
    3.6630   -2.6052    0.8039 C   0  0  0  0  0  0  0  0  0  0  0  0
    2.5426   -1.7843    0.6658 C   0  0  0  0  0  0  0  0  0  0  0  0
    0.3172   -0.1821   -0.2262 N   0  0  0  0  0  0  0  0  0  0  0  0
   -0.7380    0.7267   -0.3156 C   0  0  0  0  0  0  0  0  0  0  0  0
   -4.8107   -2.6526   -0.5431 H   0  0  0  0  0  0  0  0  0  0  0  0
   -4.2143   -3.3232    0.9847 H   0  0  0  0  0  0  0  0  0  0  0  0
   -3.2492   -3.4947   -0.4915 H   0  0  0  0  0  0  0  0  0  0  0  0
   -3.8919   -0.8719    0.9606 H   0  0  0  0  0  0  0  0  0  0  0  0
   -2.3435   -1.7087    1.0122 H   0  0  0  0  0  0  0  0  0  0  0  0
   -2.1094   -1.4248   -1.4786 H   0  0  0  0  0  0  0  0  0  0  0  0
   -3.6569   -0.5946   -1.5315 H   0  0  0  0  0  0  0  0  0  0  0  0
   -3.2786    4.0956   -0.3712 H   0  0  0  0  0  0  0  0  0  0  0  0
   -1.9926    4.3201    0.8513 H   0  0  0  0  0  0  0  0  0  0  0  0
   -1.6336    4.5605   -0.8953 H   0  0  0  0  0  0  0  0  0  0  0  0
    2.5546    2.1018    0.5365 H   0  0  0  0  0  0  0  0  0  0  0  0
    4.0844    0.9791   -0.6216 H   0  0  0  0  0  0  0  0  0  0  0  0
    6.0505   -0.4757   -0.3475 H   0  0  0  0  0  0  0  0  0  0  0  0
    5.7953   -2.7717    0.5517 H   0  0  0  0  0  0  0  0  0  0  0  0
    3.5501   -3.6171    1.1856 H   0  0  0  0  0  0  0  0  0  0  0  0
    1.5620   -2.1662    0.9429 H   0  0  0  0  0  0  0  0  0  0  0  0
  1  2  1  0
  2  3  1  0
  3  4  1  0
  4  5  2  0
  5  6  1  0
  6  7  1  0
  6  8  1  0
  8  9  1  0
  9 10  2  0
  9 11  1  0
 11 12  1  0
 12 13  1  0
 13 14  2  0
 14 15  1  0
 15 16  2  0
 16 17  1  0
 17 18  2  0
 12 19  2  0
 19 20  1  0
 20  4  1  0
 20  8  2  0
 18 13  1  0
  1 21  1  0
  1 22  1  0
  1 23  1  0
  2 24  1  0
  2 25  1  0
  3 26  1  0
  3 27  1  0
  7 28  1  0
  7 29  1  0
  7 30  1  0
 11 31  1  0
 14 32  1  0
 15 33  1  0
 16 34  1  0
 17 35  1  0
 18 36  1  0
M  END
$$$$
