


 32 36  0  0  0  0  0  0  0  0999 V2000
    1.1558   65.7142   84.1077 N   0  0  0  0  0  0  0  0  0  0  0  0
    0.9790   65.4152   82.8010 N   0  0  0  0  0  0  0  0  0  0  0  0
    0.2868   64.2540   82.8054 C   0  0  0  0  0  0  0  0  0  0  0  0
    0.0569   63.8088   84.1494 C   0  0  0  0  0  0  0  0  0  0  0  0
   -0.5653   62.7217   84.7927 C   0  0  0  0  0  0  0  0  0  0  0  0
   -0.5381   62.7034   86.1830 C   0  0  0  0  0  0  0  0  0  0  0  0
   -1.1141   61.6940   86.8484 F   0  0  0  0  0  0  0  0  0  0  0  0
    0.0864   63.7288   86.8744 C   0  0  0  0  0  0  0  0  0  0  0  0
    0.6996   64.7946   86.3069 N   0  0  0  0  0  0  0  0  0  0  0  0
    0.6447   64.7754   84.9580 C   0  0  0  0  0  0  0  0  0  0  0  0
   -0.1339   63.5917   81.5579 C   0  0  0  0  0  0  0  0  0  0  0  0
   -0.0448   64.3206   80.4028 N   0  0  0  0  0  0  0  0  0  0  0  0
   -0.4157   63.7725   79.2123 N   0  0  0  0  0  0  0  0  0  0  0  0
   -0.8574   62.5137   79.2576 C   0  0  0  0  0  0  0  0  0  0  0  0
   -0.9274   61.8236   80.4461 C   0  0  0  0  0  0  0  0  0  0  0  0
   -0.5775   62.3142   81.6287 N   0  0  0  0  0  0  0  0  0  0  0  0
   -1.4137   60.5517   80.2205 N   0  0  0  0  0  0  0  0  0  0  0  0
   -1.6846   60.3493   78.8762 C   0  0  0  0  0  0  0  0  0  0  0  0
   -2.1228   59.3192   78.3919 O   0  0  0  0  0  0  0  0  0  0  0  0
   -1.3332   61.6515   78.1172 C   0  0  0  0  0  0  0  0  0  0  0  0
   -0.2197   61.3895   77.1080 C   0  0  0  0  0  0  0  0  0  0  0  0
   -2.5807   62.2303   77.4572 C   0  0  0  0  0  0  0  0  0  0  0  0
   -1.5516   59.8658   80.9465 H   0  0  0  0  0  0  0  0  0  0  0  0
    1.8681   66.9248   84.4887 C   0  0  0  0  0  0  0  0  0  0  0  0
    7.6144   66.0283   84.8641 C   0  0  0  0  0  0  0  0  0  0  0  0
    6.1354   66.2673   84.7985 C   0  0  0  0  0  0  0  0  0  0  0  0
    5.2358   65.2755   85.2078 C   0  0  0  0  0  0  0  0  0  0  0  0
    3.8562   65.4842   85.1163 C   0  0  0  0  0  0  0  0  0  0  0  0
    3.3496   66.6860   84.6002 C   0  0  0  0  0  0  0  0  0  0  0  0
    4.2560   67.6627   84.1853 C   0  0  0  0  0  0  0  0  0  0  0  0
    3.8082   68.8278   83.6969 F   0  0  0  0  0  0  0  0  0  0  0  0
    5.6319   67.4622   84.2741 C   0  0  0  0  0  0  0  0  0  0  0  0
 25 26  1  0  0  0
 26 27  1  0  0  0
 27 28  2  0  0  0
 28 29  1  0  0  0
 29 24  1  0  0  0
 24  1  1  0  0  0
  1  2  1  0  0  0
  2  3  2  0  0  0
  3 11  1  0  0  0
 11 12  1  0  0  0
 12 13  2  0  0  0
 13 14  1  0  0  0
 14 15  2  0  0  0
 15 16  1  0  0  0
 15 17  1  0  0  0
 17 18  1  0  0  0
 18 19  2  0  0  0
 18 20  1  0  0  0
 20 21  1  0  0  0
 20 22  1  0  0  0
  3  4  1  0  0  0
  4  5  1  0  0  0
  5  6  2  0  0  0
  6  7  1  0  0  0
  6  8  1  0  0  0
  8  9  2  0  0  0
  9 10  1  0  0  0
 29 30  2  0  0  0
 30 31  1  0  0  0
 30 32  1  0  0  0
 32 26  2  0  0  0
 10  1  1  0  0  0
 16 11  2  0  0  0
 10  4  2  0  0  0
 20 14  1  0  0  0
 17 23  1  0  0  0
M  END
> <minimizedAffinity>
-11.85514

$$$$



 32 36  0  0  0  0  0  0  0  0999 V2000
    1.2620   64.6801   84.4642 N   0  0  0  0  0  0  0  0  0  0  0  0
    0.9799   64.1722   83.2434 N   0  0  0  0  0  0  0  0  0  0  0  0
   -0.1130   63.4004   83.4372 C   0  0  0  0  0  0  0  0  0  0  0  0
   -0.4973   63.4077   84.8191 C   0  0  0  0  0  0  0  0  0  0  0  0
   -1.4957   62.8262   85.6239 C   0  0  0  0  0  0  0  0  0  0  0  0
   -1.4758   63.1277   86.9814 C   0  0  0  0  0  0  0  0  0  0  0  0
   -2.4012   62.6032   87.7950 F   0  0  0  0  0  0  0  0  0  0  0  0
   -0.4975   63.9683   87.4871 C   0  0  0  0  0  0  0  0  0  0  0  0
    0.4844   64.5521   86.7597 N   0  0  0  0  0  0  0  0  0  0  0  0
    0.4243   64.2375   85.4482 C   0  0  0  0  0  0  0  0  0  0  0  0
   -0.7620   62.6750   82.3306 C   0  0  0  0  0  0  0  0  0  0  0  0
   -0.7155   63.2543   81.0913 N   0  0  0  0  0  0  0  0  0  0  0  0
   -1.2937   62.6402   80.0219 N   0  0  0  0  0  0  0  0  0  0  0  0
   -1.8887   61.4708   80.2672 C   0  0  0  0  0  0  0  0  0  0  0  0
   -1.9074   60.9304   81.5327 C   0  0  0  0  0  0  0  0  0  0  0  0
   -1.3583   61.4901   82.6036 N   0  0  0  0  0  0  0  0  0  0  0  0
   -2.5801   59.7252   81.5167 N   0  0  0  0  0  0  0  0  0  0  0  0
   -3.0327   59.4202   80.2425 C   0  0  0  0  0  0  0  0  0  0  0  0
   -3.6568   58.4179   79.9365 O   0  0  0  0  0  0  0  0  0  0  0  0
   -2.6055   60.5682   79.2966 C   0  0  0  0  0  0  0  0  0  0  0  0
   -1.6638   60.0407   78.2188 C   0  0  0  0  0  0  0  0  0  0  0  0
   -3.8355   61.2464   78.7016 C   0  0  0  0  0  0  0  0  0  0  0  0
   -2.7199   59.1489   82.3321 H   0  0  0  0  0  0  0  0  0  0  0  0
    2.3933   65.5794   84.6361 C   0  0  0  0  0  0  0  0  0  0  0  0
    1.6783   70.5655   81.7048 C   0  0  0  0  0  0  0  0  0  0  0  0
    1.8833   69.2728   82.4368 C   0  0  0  0  0  0  0  0  0  0  0  0
    1.1777   68.1233   82.0612 C   0  0  0  0  0  0  0  0  0  0  0  0
    1.3429   66.9255   82.7635 C   0  0  0  0  0  0  0  0  0  0  0  0
    2.2084   66.8584   83.8652 C   0  0  0  0  0  0  0  0  0  0  0  0
    2.8979   68.0134   84.2367 C   0  0  0  0  0  0  0  0  0  0  0  0
    3.7416   67.9840   85.2778 F   0  0  0  0  0  0  0  0  0  0  0  0
    2.7390   69.2103   83.5413 C   0  0  0  0  0  0  0  0  0  0  0  0
 25 26  1  0  0  0
 26 27  1  0  0  0
 27 28  2  0  0  0
 28 29  1  0  0  0
 29 24  1  0  0  0
 24  1  1  0  0  0
  1  2  1  0  0  0
  2  3  2  0  0  0
  3 11  1  0  0  0
 11 12  1  0  0  0
 12 13  2  0  0  0
 13 14  1  0  0  0
 14 15  2  0  0  0
 15 16  1  0  0  0
 15 17  1  0  0  0
 17 18  1  0  0  0
 18 19  2  0  0  0
 18 20  1  0  0  0
 20 21  1  0  0  0
 20 22  1  0  0  0
  3  4  1  0  0  0
  4  5  1  0  0  0
  5  6  2  0  0  0
  6  7  1  0  0  0
  6  8  1  0  0  0
  8  9  2  0  0  0
  9 10  1  0  0  0
 29 30  2  0  0  0
 30 31  1  0  0  0
 30 32  1  0  0  0
 32 26  2  0  0  0
 10  1  1  0  0  0
 16 11  2  0  0  0
 10  4  2  0  0  0
 20 14  1  0  0  0
 17 23  1  0  0  0
M  END
> <minimizedAffinity>
-11.55180

$$$$



 32 36  0  0  0  0  0  0  0  0999 V2000
    1.2715   66.2286   80.6618 N   0  0  0  0  0  0  0  0  0  0  0  0
    1.1254   66.0508   81.9941 N   0  0  0  0  0  0  0  0  0  0  0  0
    0.3741   64.9330   82.1107 C   0  0  0  0  0  0  0  0  0  0  0  0
    0.0217   64.4247   80.8165 C   0  0  0  0  0  0  0  0  0  0  0  0
   -0.7161   63.3484   80.2876 C   0  0  0  0  0  0  0  0  0  0  0  0
   -0.7952   63.2494   78.9026 C   0  0  0  0  0  0  0  0  0  0  0  0
   -1.4835   62.2459   78.3436 F   0  0  0  0  0  0  0  0  0  0  0  0
   -0.1629   64.1907   78.1065 C   0  0  0  0  0  0  0  0  0  0  0  0
    0.5567   65.2436   78.5620 N   0  0  0  0  0  0  0  0  0  0  0  0
    0.6124   65.2981   79.9099 C   0  0  0  0  0  0  0  0  0  0  0  0
    0.0025   64.3760   83.4235 C   0  0  0  0  0  0  0  0  0  0  0  0
   -1.0100   63.4553   83.4478 N   0  0  0  0  0  0  0  0  0  0  0  0
   -1.4061   62.8981   84.6258 N   0  0  0  0  0  0  0  0  0  0  0  0
   -0.7535   63.3052   85.7167 C   0  0  0  0  0  0  0  0  0  0  0  0
    0.2586   64.2343   85.6385 C   0  0  0  0  0  0  0  0  0  0  0  0
    0.6793   64.8036   84.5158 N   0  0  0  0  0  0  0  0  0  0  0  0
    0.7655   64.4809   86.8985 N   0  0  0  0  0  0  0  0  0  0  0  0
    0.1104   63.7264   87.8593 C   0  0  0  0  0  0  0  0  0  0  0  0
    0.3515   63.7430   89.0548 O   0  0  0  0  0  0  0  0  0  0  0  0
   -0.9651   62.8733   87.1447 C   0  0  0  0  0  0  0  0  0  0  0  0
   -0.6709   61.3884   87.3324 C   0  0  0  0  0  0  0  0  0  0  0  0
   -2.3558   63.2502   87.6458 C   0  0  0  0  0  0  0  0  0  0  0  0
    1.5149   65.1288   87.0858 H   0  0  0  0  0  0  0  0  0  0  0  0
    2.0447   67.3534   80.1568 C   0  0  0  0  0  0  0  0  0  0  0  0
   -0.1918   72.4442   81.9024 C   0  0  0  0  0  0  0  0  0  0  0  0
    0.3910   71.1475   81.4249 C   0  0  0  0  0  0  0  0  0  0  0  0
   -0.3726   70.2680   80.6480 C   0  0  0  0  0  0  0  0  0  0  0  0
    0.1581   69.0437   80.2298 C   0  0  0  0  0  0  0  0  0  0  0  0
    1.4602   68.6697   80.5928 C   0  0  0  0  0  0  0  0  0  0  0  0
    2.2076   69.5499   81.3765 C   0  0  0  0  0  0  0  0  0  0  0  0
    3.4595   69.2307   81.7337 F   0  0  0  0  0  0  0  0  0  0  0  0
    1.6860   70.7717   81.7964 C   0  0  0  0  0  0  0  0  0  0  0  0
 25 26  1  0  0  0
 26 27  1  0  0  0
 27 28  2  0  0  0
 28 29  1  0  0  0
 29 24  1  0  0  0
 24  1  1  0  0  0
  1  2  1  0  0  0
  2  3  2  0  0  0
  3 11  1  0  0  0
 11 12  1  0  0  0
 12 13  2  0  0  0
 13 14  1  0  0  0
 14 15  2  0  0  0
 15 16  1  0  0  0
 15 17  1  0  0  0
 17 18  1  0  0  0
 18 19  2  0  0  0
 18 20  1  0  0  0
 20 21  1  0  0  0
 20 22  1  0  0  0
  3  4  1  0  0  0
  4  5  1  0  0  0
  5  6  2  0  0  0
  6  7  1  0  0  0
  6  8  1  0  0  0
  8  9  2  0  0  0
  9 10  1  0  0  0
 29 30  2  0  0  0
 30 31  1  0  0  0
 30 32  1  0  0  0
 32 26  2  0  0  0
 10  1  1  0  0  0
 16 11  2  0  0  0
 10  4  2  0  0  0
 20 14  1  0  0  0
 17 23  1  0  0  0
M  END
> <minimizedAffinity>
-11.46862

$$$$



 32 36  0  0  0  0  0  0  0  0999 V2000
    1.0338   65.8983   80.3861 N   0  0  0  0  0  0  0  0  0  0  0  0
    0.9579   65.7866   81.7314 N   0  0  0  0  0  0  0  0  0  0  0  0
    0.1860   64.6970   81.9421 C   0  0  0  0  0  0  0  0  0  0  0  0
   -0.2512   64.1395   80.6949 C   0  0  0  0  0  0  0  0  0  0  0  0
   -1.0447   63.0610   80.2592 C   0  0  0  0  0  0  0  0  0  0  0  0
   -1.2036   62.9003   78.8869 C   0  0  0  0  0  0  0  0  0  0  0  0
   -1.9475   61.8918   78.4150 F   0  0  0  0  0  0  0  0  0  0  0  0
   -0.5930   63.7856   78.0134 C   0  0  0  0  0  0  0  0  0  0  0  0
    0.1777   64.8377   78.3780 N   0  0  0  0  0  0  0  0  0  0  0  0
    0.3100   64.9530   79.7167 C   0  0  0  0  0  0  0  0  0  0  0  0
   -0.1258   64.2122   83.2985 C   0  0  0  0  0  0  0  0  0  0  0  0
   -1.1487   63.3107   83.4201 N   0  0  0  0  0  0  0  0  0  0  0  0
   -1.4917   62.8193   84.6431 N   0  0  0  0  0  0  0  0  0  0  0  0
   -0.7785   63.2692   85.6779 C   0  0  0  0  0  0  0  0  0  0  0  0
    0.2413   64.1763   85.5021 C   0  0  0  0  0  0  0  0  0  0  0  0
    0.6120   64.6821   84.3323 N   0  0  0  0  0  0  0  0  0  0  0  0
    0.8154   64.4766   86.7209 N   0  0  0  0  0  0  0  0  0  0  0  0
    0.1998   63.7817   87.7502 C   0  0  0  0  0  0  0  0  0  0  0  0
    0.5019   63.8536   88.9298 O   0  0  0  0  0  0  0  0  0  0  0  0
   -0.9228   62.9123   87.1347 C   0  0  0  0  0  0  0  0  0  0  0  0
   -0.6404   61.4338   87.3820 C   0  0  0  0  0  0  0  0  0  0  0  0
   -2.2806   63.3366   87.6856 C   0  0  0  0  0  0  0  0  0  0  0  0
    1.5824   65.1205   86.8373 H   0  0  0  0  0  0  0  0  0  0  0  0
    1.8061   66.9763   79.7865 C   0  0  0  0  0  0  0  0  0  0  0  0
    0.4324   72.1583   82.0725 C   0  0  0  0  0  0  0  0  0  0  0  0
    0.7800   70.8111   81.5127 C   0  0  0  0  0  0  0  0  0  0  0  0
    2.0616   70.2762   81.6903 C   0  0  0  0  0  0  0  0  0  0  0  0
    2.3973   69.0350   81.1407 C   0  0  0  0  0  0  0  0  0  0  0  0
    1.4597   68.3104   80.3903 C   0  0  0  0  0  0  0  0  0  0  0  0
    0.1890   68.8589   80.2110 C   0  0  0  0  0  0  0  0  0  0  0  0
   -0.7361   68.1898   79.5087 F   0  0  0  0  0  0  0  0  0  0  0  0
   -0.1530   70.0946   80.7561 C   0  0  0  0  0  0  0  0  0  0  0  0
 25 26  1  0  0  0
 26 27  1  0  0  0
 27 28  2  0  0  0
 28 29  1  0  0  0
 29 24  1  0  0  0
 24  1  1  0  0  0
  1  2  1  0  0  0
  2  3  2  0  0  0
  3 11  1  0  0  0
 11 12  1  0  0  0
 12 13  2  0  0  0
 13 14  1  0  0  0
 14 15  2  0  0  0
 15 16  1  0  0  0
 15 17  1  0  0  0
 17 18  1  0  0  0
 18 19  2  0  0  0
 18 20  1  0  0  0
 20 21  1  0  0  0
 20 22  1  0  0  0
  3  4  1  0  0  0
  4  5  1  0  0  0
  5  6  2  0  0  0
  6  7  1  0  0  0
  6  8  1  0  0  0
  8  9  2  0  0  0
  9 10  1  0  0  0
 29 30  2  0  0  0
 30 31  1  0  0  0
 30 32  1  0  0  0
 32 26  2  0  0  0
 10  1  1  0  0  0
 16 11  2  0  0  0
 10  4  2  0  0  0
 20 14  1  0  0  0
 17 23  1  0  0  0
M  END
> <minimizedAffinity>
-11.46501

$$$$



 32 36  0  0  0  0  0  0  0  0999 V2000
   -1.5332   62.6040   82.3280 N   0  0  0  0  0  0  0  0  0  0  0  0
   -1.2012   63.8762   82.6431 N   0  0  0  0  0  0  0  0  0  0  0  0
   -0.5547   64.3425   81.5512 C   0  0  0  0  0  0  0  0  0  0  0  0
   -0.4583   63.3220   80.5478 C   0  0  0  0  0  0  0  0  0  0  0  0
    0.0792   63.1836   79.2537 C   0  0  0  0  0  0  0  0  0  0  0  0
   -0.0670   61.9482   78.6318 C   0  0  0  0  0  0  0  0  0  0  0  0
    0.4244   61.7589   77.4006 F   0  0  0  0  0  0  0  0  0  0  0  0
   -0.7188   60.9176   79.2894 C   0  0  0  0  0  0  0  0  0  0  0  0
   -1.2521   60.9963   80.5318 N   0  0  0  0  0  0  0  0  0  0  0  0
   -1.0931   62.2127   81.0956 C   0  0  0  0  0  0  0  0  0  0  0  0
   -0.0414   65.7220   81.4783 C   0  0  0  0  0  0  0  0  0  0  0  0
   -0.5157   66.5126   80.4665 N   0  0  0  0  0  0  0  0  0  0  0  0
   -0.0858   67.7986   80.3382 N   0  0  0  0  0  0  0  0  0  0  0  0
    0.8029   68.2138   81.2434 C   0  0  0  0  0  0  0  0  0  0  0  0
    1.2483   67.3787   82.2424 C   0  0  0  0  0  0  0  0  0  0  0  0
    0.8587   66.1208   82.4082 N   0  0  0  0  0  0  0  0  0  0  0  0
    2.1559   68.0462   83.0400 N   0  0  0  0  0  0  0  0  0  0  0  0
    2.3472   69.3472   82.6017 C   0  0  0  0  0  0  0  0  0  0  0  0
    3.0928   70.1632   83.1174 O   0  0  0  0  0  0  0  0  0  0  0  0
    1.4536   69.5681   81.3576 C   0  0  0  0  0  0  0  0  0  0  0  0
    0.4280   70.6632   81.6326 C   0  0  0  0  0  0  0  0  0  0  0  0
    2.3151   69.8824   80.1386 C   0  0  0  0  0  0  0  0  0  0  0  0
    2.6158   67.6319   83.8358 H   0  0  0  0  0  0  0  0  0  0  0  0
   -2.2605   61.7822   83.2839 C   0  0  0  0  0  0  0  0  0  0  0  0
   -0.9445   63.1876   88.7847 C   0  0  0  0  0  0  0  0  0  0  0  0
   -1.2818   62.8570   87.3613 C   0  0  0  0  0  0  0  0  0  0  0  0
   -2.6021   62.9473   86.9040 C   0  0  0  0  0  0  0  0  0  0  0  0
   -2.9236   62.6078   85.5862 C   0  0  0  0  0  0  0  0  0  0  0  0
   -1.9310   62.1578   84.7034 C   0  0  0  0  0  0  0  0  0  0  0  0
   -0.6206   62.0617   85.1739 C   0  0  0  0  0  0  0  0  0  0  0  0
    0.3560   61.6457   84.3554 F   0  0  0  0  0  0  0  0  0  0  0  0
   -0.2925   62.3989   86.4852 C   0  0  0  0  0  0  0  0  0  0  0  0
 25 26  1  0  0  0
 26 27  1  0  0  0
 27 28  2  0  0  0
 28 29  1  0  0  0
 29 24  1  0  0  0
 24  1  1  0  0  0
  1  2  1  0  0  0
  2  3  2  0  0  0
  3 11  1  0  0  0
 11 12  1  0  0  0
 12 13  2  0  0  0
 13 14  1  0  0  0
 14 15  2  0  0  0
 15 16  1  0  0  0
 15 17  1  0  0  0
 17 18  1  0  0  0
 18 19  2  0  0  0
 18 20  1  0  0  0
 20 21  1  0  0  0
 20 22  1  0  0  0
  3  4  1  0  0  0
  4  5  1  0  0  0
  5  6  2  0  0  0
  6  7  1  0  0  0
  6  8  1  0  0  0
  8  9  2  0  0  0
  9 10  1  0  0  0
 29 30  2  0  0  0
 30 31  1  0  0  0
 30 32  1  0  0  0
 32 26  2  0  0  0
 10  1  1  0  0  0
 16 11  2  0  0  0
 10  4  2  0  0  0
 20 14  1  0  0  0
 17 23  1  0  0  0
M  END
> <minimizedAffinity>
-11.45491

$$$$



 32 36  0  0  0  0  0  0  0  0999 V2000
    1.3269   65.9541   81.5476 N   0  0  0  0  0  0  0  0  0  0  0  0
    0.7587   65.1383   80.6312 N   0  0  0  0  0  0  0  0  0  0  0  0
    0.1000   64.2097   81.3603 C   0  0  0  0  0  0  0  0  0  0  0  0
    0.2917   64.4404   82.7630 C   0  0  0  0  0  0  0  0  0  0  0  0
   -0.1049   63.8492   83.9778 C   0  0  0  0  0  0  0  0  0  0  0  0
    0.3461   64.4421   85.1522 C   0  0  0  0  0  0  0  0  0  0  0  0
    0.0002   63.9230   86.3372 F   0  0  0  0  0  0  0  0  0  0  0  0
    1.1530   65.5667   85.0916 C   0  0  0  0  0  0  0  0  0  0  0  0
    1.5642   66.1737   83.9529 N   0  0  0  0  0  0  0  0  0  0  0  0
    1.0995   65.5698   82.8384 C   0  0  0  0  0  0  0  0  0  0  0  0
   -0.6826   63.1327   80.7282 C   0  0  0  0  0  0  0  0  0  0  0  0
   -2.0287   63.1108   80.9754 N   0  0  0  0  0  0  0  0  0  0  0  0
   -2.8145   62.1446   80.4240 N   0  0  0  0  0  0  0  0  0  0  0  0
   -2.1922   61.2518   79.6511 C   0  0  0  0  0  0  0  0  0  0  0  0
   -0.8349   61.3181   79.4337 C   0  0  0  0  0  0  0  0  0  0  0  0
   -0.0295   62.2394   79.9476 N   0  0  0  0  0  0  0  0  0  0  0  0
   -0.4431   60.2865   78.6044 N   0  0  0  0  0  0  0  0  0  0  0  0
   -1.5232   59.4976   78.2405 C   0  0  0  0  0  0  0  0  0  0  0  0
   -1.4692   58.5184   77.5153 O   0  0  0  0  0  0  0  0  0  0  0  0
   -2.7888   60.0809   78.9137 C   0  0  0  0  0  0  0  0  0  0  0  0
   -3.7885   60.5339   77.8544 C   0  0  0  0  0  0  0  0  0  0  0  0
   -3.3930   59.0609   79.8736 C   0  0  0  0  0  0  0  0  0  0  0  0
    0.5085   60.1342   78.3082 H   0  0  0  0  0  0  0  0  0  0  0  0
    2.1226   67.0935   81.1155 C   0  0  0  0  0  0  0  0  0  0  0  0
   -0.9227   72.0538   81.4095 C   0  0  0  0  0  0  0  0  0  0  0  0
   -0.1213   70.7901   81.3103 C   0  0  0  0  0  0  0  0  0  0  0  0
   -0.4349   69.8228   80.3480 C   0  0  0  0  0  0  0  0  0  0  0  0
    0.2902   68.6294   80.2757 C   0  0  0  0  0  0  0  0  0  0  0  0
    1.3361   68.3750   81.1750 C   0  0  0  0  0  0  0  0  0  0  0  0
    1.6322   69.3420   82.1367 C   0  0  0  0  0  0  0  0  0  0  0  0
    2.6320   69.1378   83.0058 F   0  0  0  0  0  0  0  0  0  0  0  0
    0.9147   70.5337   82.2143 C   0  0  0  0  0  0  0  0  0  0  0  0
 25 26  1  0  0  0
 26 27  1  0  0  0
 27 28  2  0  0  0
 28 29  1  0  0  0
 29 24  1  0  0  0
 24  1  1  0  0  0
  1  2  1  0  0  0
  2  3  2  0  0  0
  3 11  1  0  0  0
 11 12  1  0  0  0
 12 13  2  0  0  0
 13 14  1  0  0  0
 14 15  2  0  0  0
 15 16  1  0  0  0
 15 17  1  0  0  0
 17 18  1  0  0  0
 18 19  2  0  0  0
 18 20  1  0  0  0
 20 21  1  0  0  0
 20 22  1  0  0  0
  3  4  1  0  0  0
  4  5  1  0  0  0
  5  6  2  0  0  0
  6  7  1  0  0  0
  6  8  1  0  0  0
  8  9  2  0  0  0
  9 10  1  0  0  0
 29 30  2  0  0  0
 30 31  1  0  0  0
 30 32  1  0  0  0
 32 26  2  0  0  0
 10  1  1  0  0  0
 16 11  2  0  0  0
 10  4  2  0  0  0
 20 14  1  0  0  0
 17 23  1  0  0  0
M  END
> <minimizedAffinity>
-11.32457

$$$$



 32 36  0  0  0  0  0  0  0  0999 V2000
   -0.4063   64.2350   79.7069 N   0  0  0  0  0  0  0  0  0  0  0  0
   -0.3652   64.4420   81.0424 N   0  0  0  0  0  0  0  0  0  0  0  0
   -0.8208   63.2894   81.5823 C   0  0  0  0  0  0  0  0  0  0  0  0
   -1.1813   62.3578   80.5529 C   0  0  0  0  0  0  0  0  0  0  0  0
   -1.7018   61.0523   80.4677 C   0  0  0  0  0  0  0  0  0  0  0  0
   -1.9022   60.5280   79.1952 C   0  0  0  0  0  0  0  0  0  0  0  0
   -2.3949   59.2909   79.0534 F   0  0  0  0  0  0  0  0  0  0  0  0
   -1.5930   61.2884   78.0791 C   0  0  0  0  0  0  0  0  0  0  0  0
   -1.0923   62.5465   78.1043 N   0  0  0  0  0  0  0  0  0  0  0  0
   -0.9082   63.0137   79.3575 C   0  0  0  0  0  0  0  0  0  0  0  0
   -0.9121   63.0933   83.0401 C   0  0  0  0  0  0  0  0  0  0  0  0
   -1.7757   62.1305   83.4882 N   0  0  0  0  0  0  0  0  0  0  0  0
   -1.9112   61.8940   84.8227 N   0  0  0  0  0  0  0  0  0  0  0  0
   -1.1631   62.6475   85.6315 C   0  0  0  0  0  0  0  0  0  0  0  0
   -0.3091   63.6031   85.1302 C   0  0  0  0  0  0  0  0  0  0  0  0
   -0.1427   63.8688   83.8405 N   0  0  0  0  0  0  0  0  0  0  0  0
    0.3435   64.2378   86.1678 N   0  0  0  0  0  0  0  0  0  0  0  0
   -0.0517   63.7288   87.3950 C   0  0  0  0  0  0  0  0  0  0  0  0
    0.3620   64.1020   88.4801 O   0  0  0  0  0  0  0  0  0  0  0  0
   -1.0972   62.6174   87.1366 C   0  0  0  0  0  0  0  0  0  0  0  0
   -0.5803   61.2773   87.6500 C   0  0  0  0  0  0  0  0  0  0  0  0
   -2.4347   62.9952   87.7654 C   0  0  0  0  0  0  0  0  0  0  0  0
    1.0181   64.9760   86.0394 H   0  0  0  0  0  0  0  0  0  0  0  0
    0.0276   65.2814   78.7933 C   0  0  0  0  0  0  0  0  0  0  0  0
    1.2834   70.2037   81.6498 C   0  0  0  0  0  0  0  0  0  0  0  0
    0.9595   68.9536   80.8873 C   0  0  0  0  0  0  0  0  0  0  0  0
   -0.3665   68.6413   80.5639 C   0  0  0  0  0  0  0  0  0  0  0  0
   -0.6734   67.4598   79.8819 C   0  0  0  0  0  0  0  0  0  0  0  0
    0.3408   66.5604   79.5218 C   0  0  0  0  0  0  0  0  0  0  0  0
    1.6573   66.8773   79.8592 C   0  0  0  0  0  0  0  0  0  0  0  0
    2.6536   66.0466   79.5217 F   0  0  0  0  0  0  0  0  0  0  0  0
    1.9709   68.0530   80.5379 C   0  0  0  0  0  0  0  0  0  0  0  0
 25 26  1  0  0  0
 26 27  1  0  0  0
 27 28  2  0  0  0
 28 29  1  0  0  0
 29 24  1  0  0  0
 24  1  1  0  0  0
  1  2  1  0  0  0
  2  3  2  0  0  0
  3 11  1  0  0  0
 11 12  1  0  0  0
 12 13  2  0  0  0
 13 14  1  0  0  0
 14 15  2  0  0  0
 15 16  1  0  0  0
 15 17  1  0  0  0
 17 18  1  0  0  0
 18 19  2  0  0  0
 18 20  1  0  0  0
 20 21  1  0  0  0
 20 22  1  0  0  0
  3  4  1  0  0  0
  4  5  1  0  0  0
  5  6  2  0  0  0
  6  7  1  0  0  0
  6  8  1  0  0  0
  8  9  2  0  0  0
  9 10  1  0  0  0
 29 30  2  0  0  0
 30 31  1  0  0  0
 30 32  1  0  0  0
 32 26  2  0  0  0
 10  1  1  0  0  0
 16 11  2  0  0  0
 10  4  2  0  0  0
 20 14  1  0  0  0
 17 23  1  0  0  0
M  END
> <minimizedAffinity>
-11.12477

$$$$



 32 36  0  0  0  0  0  0  0  0999 V2000
    0.7213   65.0595   80.0058 N   0  0  0  0  0  0  0  0  0  0  0  0
    0.2761   64.2271   80.9738 N   0  0  0  0  0  0  0  0  0  0  0  0
    0.4250   64.9253   82.1218 C   0  0  0  0  0  0  0  0  0  0  0  0
    1.0055   66.2104   81.8591 C   0  0  0  0  0  0  0  0  0  0  0  0
    1.4006   67.3432   82.5961 C   0  0  0  0  0  0  0  0  0  0  0  0
    1.9461   68.4072   81.8858 C   0  0  0  0  0  0  0  0  0  0  0  0
    2.3394   69.5107   82.5345 F   0  0  0  0  0  0  0  0  0  0  0  0
    2.0821   68.3206   80.5097 C   0  0  0  0  0  0  0  0  0  0  0  0
    1.7204   67.2569   79.7536 N   0  0  0  0  0  0  0  0  0  0  0  0
    1.1911   66.2506   80.4816 C   0  0  0  0  0  0  0  0  0  0  0  0
    0.0277   64.3719   83.4286 C   0  0  0  0  0  0  0  0  0  0  0  0
   -0.9899   63.4564   83.4363 N   0  0  0  0  0  0  0  0  0  0  0  0
   -1.4092   62.9027   84.6078 N   0  0  0  0  0  0  0  0  0  0  0  0
   -0.7737   63.3078   85.7095 C   0  0  0  0  0  0  0  0  0  0  0  0
    0.2444   64.2316   85.6479 C   0  0  0  0  0  0  0  0  0  0  0  0
    0.6875   64.7973   84.5321 N   0  0  0  0  0  0  0  0  0  0  0  0
    0.7305   64.4771   86.9163 N   0  0  0  0  0  0  0  0  0  0  0  0
    0.0549   63.7272   87.8663 C   0  0  0  0  0  0  0  0  0  0  0  0
    0.2752   63.7440   89.0659 O   0  0  0  0  0  0  0  0  0  0  0  0
   -1.0124   62.8788   87.1341 C   0  0  0  0  0  0  0  0  0  0  0  0
   -0.7291   61.3926   87.3286 C   0  0  0  0  0  0  0  0  0  0  0  0
   -2.4096   63.2634   87.6104 C   0  0  0  0  0  0  0  0  0  0  0  0
    1.4799   65.1215   87.1158 H   0  0  0  0  0  0  0  0  0  0  0  0
    0.7021   64.6353   78.6138 C   0  0  0  0  0  0  0  0  0  0  0  0
   -2.8640   60.1047   77.7642 C   0  0  0  0  0  0  0  0  0  0  0  0
   -1.9615   61.2768   78.0105 C   0  0  0  0  0  0  0  0  0  0  0  0
   -2.3672   62.5716   77.6654 C   0  0  0  0  0  0  0  0  0  0  0  0
   -1.5140   63.6615   77.8637 C   0  0  0  0  0  0  0  0  0  0  0  0
   -0.2313   63.4745   78.3996 C   0  0  0  0  0  0  0  0  0  0  0  0
    0.1659   62.1780   78.7295 C   0  0  0  0  0  0  0  0  0  0  0  0
    1.3806   61.9627   79.2537 F   0  0  0  0  0  0  0  0  0  0  0  0
   -0.6790   61.0873   78.5354 C   0  0  0  0  0  0  0  0  0  0  0  0
 25 26  1  0  0  0
 26 27  1  0  0  0
 27 28  2  0  0  0
 28 29  1  0  0  0
 29 24  1  0  0  0
 24  1  1  0  0  0
  1  2  1  0  0  0
  2  3  2  0  0  0
  3 11  1  0  0  0
 11 12  1  0  0  0
 12 13  2  0  0  0
 13 14  1  0  0  0
 14 15  2  0  0  0
 15 16  1  0  0  0
 15 17  1  0  0  0
 17 18  1  0  0  0
 18 19  2  0  0  0
 18 20  1  0  0  0
 20 21  1  0  0  0
 20 22  1  0  0  0
  3  4  1  0  0  0
  4  5  1  0  0  0
  5  6  2  0  0  0
  6  7  1  0  0  0
  6  8  1  0  0  0
  8  9  2  0  0  0
  9 10  1  0  0  0
 29 30  2  0  0  0
 30 31  1  0  0  0
 30 32  1  0  0  0
 32 26  2  0  0  0
 10  1  1  0  0  0
 16 11  2  0  0  0
 10  4  2  0  0  0
 20 14  1  0  0  0
 17 23  1  0  0  0
M  END
> <minimizedAffinity>
-11.12376

$$$$



 32 36  0  0  0  0  0  0  0  0999 V2000
   -0.0354   62.3715   83.1793 N   0  0  0  0  0  0  0  0  0  0  0  0
    0.4505   63.4372   82.5040 N   0  0  0  0  0  0  0  0  0  0  0  0
    0.6129   64.3944   83.4447 C   0  0  0  0  0  0  0  0  0  0  0  0
    0.1873   63.9173   84.7288 C   0  0  0  0  0  0  0  0  0  0  0  0
    0.0994   64.4107   86.0446 C   0  0  0  0  0  0  0  0  0  0  0  0
   -0.4043   63.5513   87.0151 C   0  0  0  0  0  0  0  0  0  0  0  0
   -0.5106   63.9666   88.2838 F   0  0  0  0  0  0  0  0  0  0  0  0
   -0.7959   62.2692   86.6652 C   0  0  0  0  0  0  0  0  0  0  0  0
   -0.7339   61.7457   85.4178 N   0  0  0  0  0  0  0  0  0  0  0  0
   -0.2344   62.6105   84.5094 C   0  0  0  0  0  0  0  0  0  0  0  0
    1.1534   65.7259   83.1178 C   0  0  0  0  0  0  0  0  0  0  0  0
    1.5526   66.5125   84.1646 N   0  0  0  0  0  0  0  0  0  0  0  0
    2.0626   67.7547   83.9371 N   0  0  0  0  0  0  0  0  0  0  0  0
    2.1402   68.1328   82.6593 C   0  0  0  0  0  0  0  0  0  0  0  0
    1.7252   67.3034   81.6426 C   0  0  0  0  0  0  0  0  0  0  0  0
    1.2233   66.0869   81.8145 N   0  0  0  0  0  0  0  0  0  0  0  0
    1.9106   67.9271   80.4252 N   0  0  0  0  0  0  0  0  0  0  0  0
    2.4545   69.1918   80.5871 C   0  0  0  0  0  0  0  0  0  0  0  0
    2.7233   69.9653   79.6832 O   0  0  0  0  0  0  0  0  0  0  0  0
    2.6541   69.4352   82.1024 C   0  0  0  0  0  0  0  0  0  0  0  0
    4.1339   69.6349   82.4139 C   0  0  0  0  0  0  0  0  0  0  0  0
    1.8065   70.6169   82.5628 C   0  0  0  0  0  0  0  0  0  0  0  0
    1.6764   67.5089   79.5382 H   0  0  0  0  0  0  0  0  0  0  0  0
   -0.3279   61.1327   82.4736 C   0  0  0  0  0  0  0  0  0  0  0  0
   -3.5899   62.1066   77.7433 C   0  0  0  0  0  0  0  0  0  0  0  0
   -2.7578   61.8247   78.9587 C   0  0  0  0  0  0  0  0  0  0  0  0
   -3.3526   61.7370   80.2231 C   0  0  0  0  0  0  0  0  0  0  0  0
   -2.5740   61.5072   81.3616 C   0  0  0  0  0  0  0  0  0  0  0  0
   -1.1816   61.3740   81.2581 C   0  0  0  0  0  0  0  0  0  0  0  0
   -0.5991   61.4742   79.9939 C   0  0  0  0  0  0  0  0  0  0  0  0
    0.7276   61.3414   79.8554 F   0  0  0  0  0  0  0  0  0  0  0  0
   -1.3684   61.7022   78.8550 C   0  0  0  0  0  0  0  0  0  0  0  0
 25 26  1  0  0  0
 26 27  1  0  0  0
 27 28  2  0  0  0
 28 29  1  0  0  0
 29 24  1  0  0  0
 24  1  1  0  0  0
  1  2  1  0  0  0
  2  3  2  0  0  0
  3 11  1  0  0  0
 11 12  1  0  0  0
 12 13  2  0  0  0
 13 14  1  0  0  0
 14 15  2  0  0  0
 15 16  1  0  0  0
 15 17  1  0  0  0
 17 18  1  0  0  0
 18 19  2  0  0  0
 18 20  1  0  0  0
 20 21  1  0  0  0
 20 22  1  0  0  0
  3  4  1  0  0  0
  4  5  1  0  0  0
  5  6  2  0  0  0
  6  7  1  0  0  0
  6  8  1  0  0  0
  8  9  2  0  0  0
  9 10  1  0  0  0
 29 30  2  0  0  0
 30 31  1  0  0  0
 30 32  1  0  0  0
 32 26  2  0  0  0
 10  1  1  0  0  0
 16 11  2  0  0  0
 10  4  2  0  0  0
 20 14  1  0  0  0
 17 23  1  0  0  0
M  END
> <minimizedAffinity>
-11.10637

$$$$
