
     RDKit          3D

 63 67  0  0  0  0  0  0  0  0999 V2000
    5.7165   -1.1610   -2.1105 C   0  0  0  0  0  0  0  0  0  0  0  0
    6.4359   -0.9231   -0.8617 N   0  0  0  0  0  0  0  0  0  0  0  0
    5.5408   -1.1083    0.2995 C   0  0  0  0  0  0  0  0  0  0  0  0
    6.0063   -0.3524    1.5577 C   0  0  0  0  0  0  0  0  0  0  0  0
    6.0585    1.1166    1.3142 N   0  0  0  0  0  0  0  0  0  0  0  0
    5.0402    2.1180    2.2193 S   0  0  0  0  0  0  0  0  0  0  0  0
    5.0827    1.6785    3.5982 O   0  0  0  0  0  0  0  0  0  0  0  0
    5.3292    3.4911    1.8616 O   0  0  0  0  0  0  0  0  0  0  0  0
    3.4177    1.7361    1.5901 C   0  0  0  0  0  0  0  0  0  0  0  0
    2.6581    0.7329    2.1915 C   0  0  0  0  0  0  0  0  0  0  0  0
    1.3786    0.4430    1.7031 C   0  0  0  0  0  0  0  0  0  0  0  0
    0.8307    1.1537    0.6288 C   0  0  0  0  0  0  0  0  0  0  0  0
   -0.4365    0.9058    0.0939 N   0  0  0  0  0  0  0  0  0  0  0  0
   -1.4459   -0.0193    0.3587 C   0  0  0  0  0  0  0  0  0  0  0  0
   -2.5291    0.1209   -0.4417 N   0  0  0  0  0  0  0  0  0  0  0  0
   -3.5959   -0.7146   -0.3174 C   0  0  0  0  0  0  0  0  0  0  0  0
   -4.7071   -0.5910   -1.1567 N   0  0  0  0  0  0  0  0  0  0  0  0
   -5.0159    0.7673   -1.5586 C   0  0  0  0  0  0  0  0  0  0  0  0
   -6.3258    0.7773   -2.3124 C   0  0  0  0  0  0  0  0  0  0  0  0
   -7.4866    1.3049   -1.7288 C   0  0  0  0  0  0  0  0  0  0  0  0
   -8.6942    1.3030   -2.4295 C   0  0  0  0  0  0  0  0  0  0  0  0
   -8.7551    0.7699   -3.7160 C   0  0  0  0  0  0  0  0  0  0  0  0
   -7.6102    0.2347   -4.3031 C   0  0  0  0  0  0  0  0  0  0  0  0
   -6.4021    0.2362   -3.6047 C   0  0  0  0  0  0  0  0  0  0  0  0
   -3.5307   -1.7052    0.6742 C   0  0  0  0  0  0  0  0  0  0  0  0
   -4.4193   -2.6810    1.0812 N   0  0  0  0  0  0  0  0  0  0  0  0
   -3.8026   -3.3070    2.0627 C   0  0  0  0  0  0  0  0  0  0  0  0
   -2.5672   -2.7740    2.3073 N   0  0  0  0  0  0  0  0  0  0  0  0
   -1.6289   -3.2080    3.3075 C   0  0  0  0  0  0  0  0  0  0  0  0
   -2.3760   -1.7436    1.4309 C   0  0  0  0  0  0  0  0  0  0  0  0
   -1.3081   -0.9432    1.3253 N   0  0  0  0  0  0  0  0  0  0  0  0
    1.6045    2.1835    0.0640 C   0  0  0  0  0  0  0  0  0  0  0  0
    2.8842    2.4836    0.5413 C   0  0  0  0  0  0  0  0  0  0  0  0
    6.3067    1.4980   -0.1031 C   0  0  0  0  0  0  0  0  0  0  0  0
    7.0939    0.3998   -0.8433 C   0  0  0  0  0  0  0  0  0  0  0  0
    5.2625   -2.1582   -2.1092 H   0  0  0  0  0  0  0  0  0  0  0  0
    4.9265   -0.4206   -2.2800 H   0  0  0  0  0  0  0  0  0  0  0  0
    6.4054   -1.1312   -2.9619 H   0  0  0  0  0  0  0  0  0  0  0  0
    4.5243   -0.7706    0.0572 H   0  0  0  0  0  0  0  0  0  0  0  0
    5.4793   -2.1790    0.5254 H   0  0  0  0  0  0  0  0  0  0  0  0
    5.3424   -0.5974    2.3918 H   0  0  0  0  0  0  0  0  0  0  0  0
    7.0092   -0.6836    1.8532 H   0  0  0  0  0  0  0  0  0  0  0  0
    3.0433    0.1750    3.0420 H   0  0  0  0  0  0  0  0  0  0  0  0
    0.8175   -0.3466    2.1935 H   0  0  0  0  0  0  0  0  0  0  0  0
   -0.7347    1.4861   -0.6774 H   0  0  0  0  0  0  0  0  0  0  0  0
   -5.4950   -1.1097   -0.7718 H   0  0  0  0  0  0  0  0  0  0  0  0
   -4.2335    1.1753   -2.2113 H   0  0  0  0  0  0  0  0  0  0  0  0
   -5.0897    1.4262   -0.6836 H   0  0  0  0  0  0  0  0  0  0  0  0
   -7.4583    1.7193   -0.7236 H   0  0  0  0  0  0  0  0  0  0  0  0
   -9.5891    1.7149   -1.9702 H   0  0  0  0  0  0  0  0  0  0  0  0
   -9.6963    0.7667   -4.2593 H   0  0  0  0  0  0  0  0  0  0  0  0
   -7.6580   -0.1889   -5.3028 H   0  0  0  0  0  0  0  0  0  0  0  0
   -5.5152   -0.1955   -4.0648 H   0  0  0  0  0  0  0  0  0  0  0  0
   -4.2038   -4.1424    2.6229 H   0  0  0  0  0  0  0  0  0  0  0  0
   -0.7053   -3.5136    2.8093 H   0  0  0  0  0  0  0  0  0  0  0  0
   -2.0474   -4.0525    3.8608 H   0  0  0  0  0  0  0  0  0  0  0  0
   -1.4385   -2.3762    3.9906 H   0  0  0  0  0  0  0  0  0  0  0  0
    1.2084    2.7737   -0.7602 H   0  0  0  0  0  0  0  0  0  0  0  0
    3.4488    3.2979    0.0928 H   0  0  0  0  0  0  0  0  0  0  0  0
    5.3622    1.6754   -0.6259 H   0  0  0  0  0  0  0  0  0  0  0  0
    6.8921    2.4237   -0.1206 H   0  0  0  0  0  0  0  0  0  0  0  0
    8.0608    0.2714   -0.3392 H   0  0  0  0  0  0  0  0  0  0  0  0
    7.3346    0.7372   -1.8589 H   0  0  0  0  0  0  0  0  0  0  0  0
  1  2  1  0
  2  3  1  0
  3  4  1  0
  4  5  1  0
  5  6  1  0
  6  7  2  0
  6  8  2  0
  6  9  1  0
  9 10  1  0
 10 11  2  0
 11 12  1  0
 12 13  1  0
 13 14  1  0
 14 15  2  0
 15 16  1  0
 16 17  1  0
 17 18  1  0
 18 19  1  0
 19 20  2  0
 20 21  1  0
 21 22  2  0
 22 23  1  0
 23 24  2  0
 16 25  2  0
 25 26  1  0
 26 27  2  0
 27 28  1  0
 28 29  1  0
 28 30  1  0
 30 31  2  0
 12 32  2  0
 32 33  1  0
  5 34  1  0
 34 35  1  0
 35  2  1  0
 33  9  2  0
 31 14  1  0
 24 19  1  0
 30 25  1  0
  1 36  1  0
  1 37  1  0
  1 38  1  0
  3 39  1  0
  3 40  1  0
  4 41  1  0
  4 42  1  0
 10 43  1  0
 11 44  1  0
 13 45  1  0
 17 46  1  0
 18 47  1  0
 18 48  1  0
 20 49  1  0
 21 50  1  0
 22 51  1  0
 23 52  1  0
 24 53  1  0
 27 54  1  0
 29 55  1  0
 29 56  1  0
 29 57  1  0
 32 58  1  0
 33 59  1  0
 34 60  1  0
 34 61  1  0
 35 62  1  0
 35 63  1  0
M  END
$$$$
