


 33 36  0  0  0  0  0  0  0  0999 V2000
    0.6270   66.3420   81.2253 C   0  0  0  0  0  0  0  0  0  0  0  0
    1.2604   67.5082   80.9969 N   0  0  0  0  0  0  0  0  0  0  0  0
    1.9544   68.1460   81.9917 N   0  0  0  0  0  0  0  0  0  0  0  0
    2.0382   67.6199   83.2298 C   0  0  0  0  0  0  0  0  0  0  0  0
    1.3588   66.4233   83.5409 C   0  0  0  0  0  0  0  0  0  0  0  0
    1.3536   65.8536   84.8393 C   0  0  0  0  0  0  0  0  0  0  0  0
    0.6709   64.6686   85.1221 C   0  0  0  0  0  0  0  0  0  0  0  0
   -0.0361   64.0225   84.1142 C   0  0  0  0  0  0  0  0  0  0  0  0
   -0.0532   64.5689   82.8271 C   0  0  0  0  0  0  0  0  0  0  0  0
    0.6396   65.7667   82.5132 C   0  0  0  0  0  0  0  0  0  0  0  0
   -0.0459   65.6766   80.1735 N   0  0  0  0  0  0  0  0  0  0  0  0
   -0.7276   65.0492   80.5907 H   0  0  0  0  0  0  0  0  0  0  0  0
    0.8020   64.9722   79.2169 C   0  0  0  0  0  0  0  0  0  0  0  0
   -0.7432   60.9865   78.4627 C   0  0  0  0  0  0  0  0  0  0  0  0
   -0.1223   61.7138   77.4427 C   0  0  0  0  0  0  0  0  0  0  0  0
    0.3786   62.9984   77.6871 C   0  0  0  0  0  0  0  0  0  0  0  0
    0.2728   63.5817   78.9553 C   0  0  0  0  0  0  0  0  0  0  0  0
   -0.3566   62.8573   79.9762 C   0  0  0  0  0  0  0  0  0  0  0  0
   -0.8553   61.5734   79.7330 C   0  0  0  0  0  0  0  0  0  0  0  0
   -1.6128   60.7408   81.0478 Cl  0  0  0  0  0  0  0  0  0  0  0  0
   -1.0611   59.0754   77.0665 C   0  0  0  0  0  0  0  0  0  0  0  0
   -1.2575   59.7244   78.3151 O   0  0  0  0  0  0  0  0  0  0  0  0
    2.7631   68.2958   84.2283 N   0  0  0  0  0  0  0  0  0  0  0  0
    2.5544   67.9093   85.1499 H   0  0  0  0  0  0  0  0  0  0  0  0
    4.2159   68.2924   84.0506 C   0  0  0  0  0  0  0  0  0  0  0  0
    4.8400   67.3173   85.0364 C   0  0  0  0  0  0  0  0  0  0  0  0
    5.0550   65.9900   84.6719 C   0  0  0  0  0  0  0  0  0  0  0  0
    5.5950   65.1158   85.6111 C   0  0  0  0  0  0  0  0  0  0  0  0
    5.8967   65.5826   86.8848 C   0  0  0  0  0  0  0  0  0  0  0  0
    5.6421   66.9124   87.1731 C   0  0  0  0  0  0  0  0  0  0  0  0
    5.1177   67.7873   86.2870 N   0  0  0  0  0  0  0  0  0  0  0  0
   -0.7459   62.8087   84.3927 C   0  0  0  0  0  0  0  0  0  0  0  0
   -1.3128   61.8204   84.6135 N   0  0  0  0  0  0  0  0  0  0  0  0
 21 22  1  0  0  0
 22 14  1  0  0  0
 14 15  1  0  0  0
 15 16  2  0  0  0
 16 17  1  0  0  0
 17 13  1  0  0  0
 13 11  1  0  0  0
 11  1  1  0  0  0
  1  2  1  0  0  0
  2  3  2  0  0  0
  3  4  1  0  0  0
  4 23  1  0  0  0
 23 25  1  0  0  0
 25 26  1  0  0  0
 26 27  2  0  0  0
 27 28  1  0  0  0
 28 29  2  0  0  0
 29 30  1  0  0  0
 30 31  2  0  0  0
  4  5  2  0  0  0
  5  6  1  0  0  0
  6  7  2  0  0  0
  7  8  1  0  0  0
  8 32  1  0  0  0
 32 33  3  0  0  0
  8  9  2  0  0  0
  9 10  1  0  0  0
 17 18  2  0  0  0
 18 19  1  0  0  0
 19 20  1  0  0  0
 19 14  2  0  0  0
 10  1  2  0  0  0
 31 26  1  0  0  0
 10  5  1  0  0  0
 11 12  1  0  0  0
 23 24  1  0  0  0
M  END
> <minimizedAffinity>
-10.12977

$$$$



 33 36  0  0  0  0  0  0  0  0999 V2000
    0.5024   66.1528   81.4859 C   0  0  0  0  0  0  0  0  0  0  0  0
    1.2269   67.2879   81.4870 N   0  0  0  0  0  0  0  0  0  0  0  0
    1.8577   67.7266   82.6218 N   0  0  0  0  0  0  0  0  0  0  0  0
    1.7855   67.0286   83.7726 C   0  0  0  0  0  0  0  0  0  0  0  0
    1.0052   65.8554   83.8444 C   0  0  0  0  0  0  0  0  0  0  0  0
    0.8360   65.1127   85.0403 C   0  0  0  0  0  0  0  0  0  0  0  0
    0.0560   63.9552   85.0856 C   0  0  0  0  0  0  0  0  0  0  0  0
   -0.5868   63.5112   83.9355 C   0  0  0  0  0  0  0  0  0  0  0  0
   -0.4423   64.2310   82.7454 C   0  0  0  0  0  0  0  0  0  0  0  0
    0.3516   65.4046   82.6722 C   0  0  0  0  0  0  0  0  0  0  0  0
   -0.1033   65.6931   80.2926 N   0  0  0  0  0  0  0  0  0  0  0  0
   -0.9248   65.1539   80.5509 H   0  0  0  0  0  0  0  0  0  0  0  0
    0.7584   64.9393   79.3875 C   0  0  0  0  0  0  0  0  0  0  0  0
   -1.2437   61.3441   78.0064 C   0  0  0  0  0  0  0  0  0  0  0  0
    0.0061   61.7043   77.4935 C   0  0  0  0  0  0  0  0  0  0  0  0
    0.6530   62.8627   77.9414 C   0  0  0  0  0  0  0  0  0  0  0  0
    0.0670   63.6831   78.9126 C   0  0  0  0  0  0  0  0  0  0  0  0
   -1.1892   63.3278   79.4214 C   0  0  0  0  0  0  0  0  0  0  0  0
   -1.8348   62.1698   78.9757 C   0  0  0  0  0  0  0  0  0  0  0  0
   -3.3808   61.7959   79.6581 Cl  0  0  0  0  0  0  0  0  0  0  0  0
   -1.2045   59.0553   77.3264 C   0  0  0  0  0  0  0  0  0  0  0  0
   -1.9460   60.2285   77.6303 O   0  0  0  0  0  0  0  0  0  0  0  0
    2.4489   67.5020   84.9194 N   0  0  0  0  0  0  0  0  0  0  0  0
    2.6392   66.7368   85.5679 H   0  0  0  0  0  0  0  0  0  0  0  0
    3.7061   68.2061   84.6631 C   0  0  0  0  0  0  0  0  0  0  0  0
    4.8633   67.2269   84.7828 C   0  0  0  0  0  0  0  0  0  0  0  0
    4.6715   65.9808   85.3753 C   0  0  0  0  0  0  0  0  0  0  0  0
    5.7609   65.1232   85.5008 C   0  0  0  0  0  0  0  0  0  0  0  0
    7.0080   65.5313   85.0433 C   0  0  0  0  0  0  0  0  0  0  0  0
    7.1191   66.7899   84.4775 C   0  0  0  0  0  0  0  0  0  0  0  0
    6.0841   67.6477   84.3414 N   0  0  0  0  0  0  0  0  0  0  0  0
   -1.3951   62.3279   83.9700 C   0  0  0  0  0  0  0  0  0  0  0  0
   -2.0411   61.3643   84.0013 N   0  0  0  0  0  0  0  0  0  0  0  0
 21 22  1  0  0  0
 22 14  1  0  0  0
 14 15  1  0  0  0
 15 16  2  0  0  0
 16 17  1  0  0  0
 17 13  1  0  0  0
 13 11  1  0  0  0
 11  1  1  0  0  0
  1  2  1  0  0  0
  2  3  2  0  0  0
  3  4  1  0  0  0
  4 23  1  0  0  0
 23 25  1  0  0  0
 25 26  1  0  0  0
 26 27  2  0  0  0
 27 28  1  0  0  0
 28 29  2  0  0  0
 29 30  1  0  0  0
 30 31  2  0  0  0
  4  5  2  0  0  0
  5  6  1  0  0  0
  6  7  2  0  0  0
  7  8  1  0  0  0
  8 32  1  0  0  0
 32 33  3  0  0  0
  8  9  2  0  0  0
  9 10  1  0  0  0
 17 18  2  0  0  0
 18 19  1  0  0  0
 19 20  1  0  0  0
 19 14  2  0  0  0
 10  1  2  0  0  0
 31 26  1  0  0  0
 10  5  1  0  0  0
 11 12  1  0  0  0
 23 24  1  0  0  0
M  END
> <minimizedAffinity>
-10.11527

$$$$



 33 36  0  0  0  0  0  0  0  0999 V2000
    0.5289   65.3198   84.0053 C   0  0  0  0  0  0  0  0  0  0  0  0
    0.3034   65.2851   82.6781 N   0  0  0  0  0  0  0  0  0  0  0  0
   -0.3771   64.2452   82.1005 N   0  0  0  0  0  0  0  0  0  0  0  0
   -0.8561   63.2281   82.8440 C   0  0  0  0  0  0  0  0  0  0  0  0
   -0.6129   63.1871   84.2330 C   0  0  0  0  0  0  0  0  0  0  0  0
   -1.0328   62.1140   85.0591 C   0  0  0  0  0  0  0  0  0  0  0  0
   -0.7774   62.0962   86.4320 C   0  0  0  0  0  0  0  0  0  0  0  0
   -0.0844   63.1493   87.0183 C   0  0  0  0  0  0  0  0  0  0  0  0
    0.3478   64.2155   86.2234 C   0  0  0  0  0  0  0  0  0  0  0  0
    0.0927   64.2605   84.8283 C   0  0  0  0  0  0  0  0  0  0  0  0
    1.1935   66.4245   84.5882 N   0  0  0  0  0  0  0  0  0  0  0  0
    0.4854   67.0442   84.9716 H   0  0  0  0  0  0  0  0  0  0  0  0
    2.1125   67.1501   83.7169 C   0  0  0  0  0  0  0  0  0  0  0  0
    6.1803   66.8930   85.2097 C   0  0  0  0  0  0  0  0  0  0  0  0
    5.8134   67.9019   84.3140 C   0  0  0  0  0  0  0  0  0  0  0  0
    4.5003   67.9863   83.8348 C   0  0  0  0  0  0  0  0  0  0  0  0
    3.5262   67.0674   84.2426 C   0  0  0  0  0  0  0  0  0  0  0  0
    3.8944   66.0508   85.1338 C   0  0  0  0  0  0  0  0  0  0  0  0
    5.2054   65.9674   85.6141 C   0  0  0  0  0  0  0  0  0  0  0  0
    5.5793   64.6873   86.7174 Cl  0  0  0  0  0  0  0  0  0  0  0  0
    8.4050   66.0702   84.9330 C   0  0  0  0  0  0  0  0  0  0  0  0
    7.4380   66.7371   85.7323 O   0  0  0  0  0  0  0  0  0  0  0  0
   -1.5558   62.1776   82.2224 N   0  0  0  0  0  0  0  0  0  0  0  0
   -2.4213   62.5193   81.8024 H   0  0  0  0  0  0  0  0  0  0  0  0
   -0.8050   61.4538   81.1954 C   0  0  0  0  0  0  0  0  0  0  0  0
   -1.6263   61.4010   79.9168 C   0  0  0  0  0  0  0  0  0  0  0  0
   -2.9372   61.8722   79.9032 C   0  0  0  0  0  0  0  0  0  0  0  0
   -3.6723   61.7757   78.7250 C   0  0  0  0  0  0  0  0  0  0  0  0
   -3.0878   61.2069   77.5997 C   0  0  0  0  0  0  0  0  0  0  0  0
   -1.7844   60.7509   77.6975 C   0  0  0  0  0  0  0  0  0  0  0  0
   -1.0432   60.8274   78.8246 N   0  0  0  0  0  0  0  0  0  0  0  0
    0.1894   63.1405   88.4253 C   0  0  0  0  0  0  0  0  0  0  0  0
    0.4167   63.1242   89.5632 N   0  0  0  0  0  0  0  0  0  0  0  0
 21 22  1  0  0  0
 22 14  1  0  0  0
 14 15  1  0  0  0
 15 16  2  0  0  0
 16 17  1  0  0  0
 17 13  1  0  0  0
 13 11  1  0  0  0
 11  1  1  0  0  0
  1  2  1  0  0  0
  2  3  2  0  0  0
  3  4  1  0  0  0
  4 23  1  0  0  0
 23 25  1  0  0  0
 25 26  1  0  0  0
 26 27  2  0  0  0
 27 28  1  0  0  0
 28 29  2  0  0  0
 29 30  1  0  0  0
 30 31  2  0  0  0
  4  5  2  0  0  0
  5  6  1  0  0  0
  6  7  2  0  0  0
  7  8  1  0  0  0
  8 32  1  0  0  0
 32 33  3  0  0  0
  8  9  2  0  0  0
  9 10  1  0  0  0
 17 18  2  0  0  0
 18 19  1  0  0  0
 19 20  1  0  0  0
 19 14  2  0  0  0
 10  1  2  0  0  0
 31 26  1  0  0  0
 10  5  1  0  0  0
 11 12  1  0  0  0
 23 24  1  0  0  0
M  END
> <minimizedAffinity>
-9.72918

$$$$



 33 36  0  0  0  0  0  0  0  0999 V2000
    2.2092   68.0739   82.3171 C   0  0  0  0  0  0  0  0  0  0  0  0
    2.2717   68.5057   81.0431 N   0  0  0  0  0  0  0  0  0  0  0  0
    1.6191   67.8436   80.0362 N   0  0  0  0  0  0  0  0  0  0  0  0
    0.8808   66.7448   80.2895 C   0  0  0  0  0  0  0  0  0  0  0  0
    0.8138   66.2195   81.5972 C   0  0  0  0  0  0  0  0  0  0  0  0
    0.1088   65.0317   81.9169 C   0  0  0  0  0  0  0  0  0  0  0  0
    0.0597   64.5311   83.2198 C   0  0  0  0  0  0  0  0  0  0  0  0
    0.7240   65.2005   84.2414 C   0  0  0  0  0  0  0  0  0  0  0  0
    1.4334   66.3697   83.9499 C   0  0  0  0  0  0  0  0  0  0  0  0
    1.4907   66.9027   82.6362 C   0  0  0  0  0  0  0  0  0  0  0  0
    2.8526   68.7974   83.3489 N   0  0  0  0  0  0  0  0  0  0  0  0
    2.4491   69.7297   83.3705 H   0  0  0  0  0  0  0  0  0  0  0  0
    4.3091   68.8553   83.2767 C   0  0  0  0  0  0  0  0  0  0  0  0
    6.1208   66.3331   86.3094 C   0  0  0  0  0  0  0  0  0  0  0  0
    5.0285   67.1483   86.6214 C   0  0  0  0  0  0  0  0  0  0  0  0
    4.4425   67.9597   85.6421 C   0  0  0  0  0  0  0  0  0  0  0  0
    4.9328   67.9714   84.3309 C   0  0  0  0  0  0  0  0  0  0  0  0
    6.0325   67.1611   84.0189 C   0  0  0  0  0  0  0  0  0  0  0  0
    6.6169   66.3490   84.9963 C   0  0  0  0  0  0  0  0  0  0  0  0
    7.9672   65.3719   84.5301 Cl  0  0  0  0  0  0  0  0  0  0  0  0
    6.0857   65.2223   88.4232 C   0  0  0  0  0  0  0  0  0  0  0  0
    6.7529   65.5058   87.2012 O   0  0  0  0  0  0  0  0  0  0  0  0
    0.2179   66.0903   79.2352 N   0  0  0  0  0  0  0  0  0  0  0  0
   -0.2697   66.7634   78.6424 H   0  0  0  0  0  0  0  0  0  0  0  0
    1.0735   65.2657   78.3807 C   0  0  0  0  0  0  0  0  0  0  0  0
    0.2171   64.2444   77.6489 C   0  0  0  0  0  0  0  0  0  0  0  0
   -0.9921   64.6253   77.0714 C   0  0  0  0  0  0  0  0  0  0  0  0
   -1.7682   63.6572   76.4402 C   0  0  0  0  0  0  0  0  0  0  0  0
   -1.3255   62.3402   76.4090 C   0  0  0  0  0  0  0  0  0  0  0  0
   -0.1184   62.0397   77.0166 C   0  0  0  0  0  0  0  0  0  0  0  0
    0.6586   62.9532   77.6388 N   0  0  0  0  0  0  0  0  0  0  0  0
    0.6864   64.6939   85.5818 C   0  0  0  0  0  0  0  0  0  0  0  0
    0.6647   64.2896   86.6694 N   0  0  0  0  0  0  0  0  0  0  0  0
 21 22  1  0  0  0
 22 14  1  0  0  0
 14 15  1  0  0  0
 15 16  2  0  0  0
 16 17  1  0  0  0
 17 13  1  0  0  0
 13 11  1  0  0  0
 11  1  1  0  0  0
  1  2  1  0  0  0
  2  3  2  0  0  0
  3  4  1  0  0  0
  4 23  1  0  0  0
 23 25  1  0  0  0
 25 26  1  0  0  0
 26 27  2  0  0  0
 27 28  1  0  0  0
 28 29  2  0  0  0
 29 30  1  0  0  0
 30 31  2  0  0  0
  4  5  2  0  0  0
  5  6  1  0  0  0
  6  7  2  0  0  0
  7  8  1  0  0  0
  8 32  1  0  0  0
 32 33  3  0  0  0
  8  9  2  0  0  0
  9 10  1  0  0  0
 17 18  2  0  0  0
 18 19  1  0  0  0
 19 20  1  0  0  0
 19 14  2  0  0  0
 10  1  2  0  0  0
 31 26  1  0  0  0
 10  5  1  0  0  0
 11 12  1  0  0  0
 23 24  1  0  0  0
M  END
> <minimizedAffinity>
-9.60185

$$$$



 33 36  0  0  0  0  0  0  0  0999 V2000
    0.5328   65.1518   82.1036 C   0  0  0  0  0  0  0  0  0  0  0  0
    0.1898   64.9320   80.8200 N   0  0  0  0  0  0  0  0  0  0  0  0
   -0.6849   63.9335   80.4798 N   0  0  0  0  0  0  0  0  0  0  0  0
   -1.2427   63.1459   81.4207 C   0  0  0  0  0  0  0  0  0  0  0  0
   -0.8881   63.2995   82.7775 C   0  0  0  0  0  0  0  0  0  0  0  0
   -1.3888   62.4618   83.8060 C   0  0  0  0  0  0  0  0  0  0  0  0
   -1.0202   62.6333   85.1421 C   0  0  0  0  0  0  0  0  0  0  0  0
   -0.1304   63.6441   85.4878 C   0  0  0  0  0  0  0  0  0  0  0  0
    0.3841   64.4783   84.4903 C   0  0  0  0  0  0  0  0  0  0  0  0
    0.0180   64.3296   83.1276 C   0  0  0  0  0  0  0  0  0  0  0  0
    1.4021   66.2168   82.4384 N   0  0  0  0  0  0  0  0  0  0  0  0
    0.9674   66.7462   83.1889 H   0  0  0  0  0  0  0  0  0  0  0  0
    1.7965   67.0901   81.3376 C   0  0  0  0  0  0  0  0  0  0  0  0
    1.5808   71.2513   82.5540 C   0  0  0  0  0  0  0  0  0  0  0  0
    2.6792   70.4623   82.9086 C   0  0  0  0  0  0  0  0  0  0  0  0
    2.7499   69.1207   82.5136 C   0  0  0  0  0  0  0  0  0  0  0  0
    1.7271   68.5405   81.7539 C   0  0  0  0  0  0  0  0  0  0  0  0
    0.6218   69.3277   81.4049 C   0  0  0  0  0  0  0  0  0  0  0  0
    0.5518   70.6684   81.7976 C   0  0  0  0  0  0  0  0  0  0  0  0
   -0.8428   71.5758   81.3209 Cl  0  0  0  0  0  0  0  0  0  0  0  0
    2.5935   73.2875   83.2829 C   0  0  0  0  0  0  0  0  0  0  0  0
    1.4302   72.5711   82.8925 O   0  0  0  0  0  0  0  0  0  0  0  0
   -2.1418   62.1328   81.0403 N   0  0  0  0  0  0  0  0  0  0  0  0
   -2.9021   62.5175   80.4781 H   0  0  0  0  0  0  0  0  0  0  0  0
   -1.5456   61.0194   80.3006 C   0  0  0  0  0  0  0  0  0  0  0  0
   -2.1492   60.9628   78.9061 C   0  0  0  0  0  0  0  0  0  0  0  0
   -2.9642   61.9966   78.4502 C   0  0  0  0  0  0  0  0  0  0  0  0
   -3.5294   61.8954   77.1820 C   0  0  0  0  0  0  0  0  0  0  0  0
   -3.2761   60.7686   76.4090 C   0  0  0  0  0  0  0  0  0  0  0  0
   -2.4655   59.7791   76.9384 C   0  0  0  0  0  0  0  0  0  0  0  0
   -1.9025   59.8439   78.1649 N   0  0  0  0  0  0  0  0  0  0  0  0
    0.2607   63.8270   86.8546 C   0  0  0  0  0  0  0  0  0  0  0  0
    0.5837   63.9831   87.9583 N   0  0  0  0  0  0  0  0  0  0  0  0
 21 22  1  0  0  0
 22 14  1  0  0  0
 14 15  1  0  0  0
 15 16  2  0  0  0
 16 17  1  0  0  0
 17 13  1  0  0  0
 13 11  1  0  0  0
 11  1  1  0  0  0
  1  2  1  0  0  0
  2  3  2  0  0  0
  3  4  1  0  0  0
  4 23  1  0  0  0
 23 25  1  0  0  0
 25 26  1  0  0  0
 26 27  2  0  0  0
 27 28  1  0  0  0
 28 29  2  0  0  0
 29 30  1  0  0  0
 30 31  2  0  0  0
  4  5  2  0  0  0
  5  6  1  0  0  0
  6  7  2  0  0  0
  7  8  1  0  0  0
  8 32  1  0  0  0
 32 33  3  0  0  0
  8  9  2  0  0  0
  9 10  1  0  0  0
 17 18  2  0  0  0
 18 19  1  0  0  0
 19 20  1  0  0  0
 19 14  2  0  0  0
 10  1  2  0  0  0
 31 26  1  0  0  0
 10  5  1  0  0  0
 11 12  1  0  0  0
 23 24  1  0  0  0
M  END
> <minimizedAffinity>
-9.46674

$$$$



 33 36  0  0  0  0  0  0  0  0999 V2000
    0.5875   65.1788   83.7635 C   0  0  0  0  0  0  0  0  0  0  0  0
    0.3039   65.0926   82.4498 N   0  0  0  0  0  0  0  0  0  0  0  0
   -0.5086   64.1024   81.9624 N   0  0  0  0  0  0  0  0  0  0  0  0
   -1.0628   63.1889   82.7840 C   0  0  0  0  0  0  0  0  0  0  0  0
   -0.7670   63.2016   84.1634 C   0  0  0  0  0  0  0  0  0  0  0  0
   -1.2652   62.2308   85.0688 C   0  0  0  0  0  0  0  0  0  0  0  0
   -0.9555   62.2642   86.4302 C   0  0  0  0  0  0  0  0  0  0  0  0
   -0.1288   63.2666   86.9251 C   0  0  0  0  0  0  0  0  0  0  0  0
    0.3820   64.2310   86.0507 C   0  0  0  0  0  0  0  0  0  0  0  0
    0.0747   64.2233   84.6656 C   0  0  0  0  0  0  0  0  0  0  0  0
    1.3915   66.2352   84.2528 N   0  0  0  0  0  0  0  0  0  0  0  0
    0.7775   67.0142   84.4735 H   0  0  0  0  0  0  0  0  0  0  0  0
    2.4881   66.6577   83.3873 C   0  0  0  0  0  0  0  0  0  0  0  0
    1.9063   70.7627   82.1019 C   0  0  0  0  0  0  0  0  0  0  0  0
    2.9592   70.4278   82.9587 C   0  0  0  0  0  0  0  0  0  0  0  0
    3.1483   69.1029   83.3709 C   0  0  0  0  0  0  0  0  0  0  0  0
    2.2923   68.0852   82.9336 C   0  0  0  0  0  0  0  0  0  0  0  0
    1.2318   68.4208   82.0816 C   0  0  0  0  0  0  0  0  0  0  0  0
    1.0438   69.7437   81.6681 C   0  0  0  0  0  0  0  0  0  0  0  0
   -0.2847   70.0759   80.6096 Cl  0  0  0  0  0  0  0  0  0  0  0  0
    1.6333   73.0826   82.5986 C   0  0  0  0  0  0  0  0  0  0  0  0
    1.6490   72.0293   81.6451 O   0  0  0  0  0  0  0  0  0  0  0  0
   -1.8973   62.1879   82.2540 N   0  0  0  0  0  0  0  0  0  0  0  0
   -2.6870   62.6021   81.7570 H   0  0  0  0  0  0  0  0  0  0  0  0
   -1.2370   61.2418   81.3534 C   0  0  0  0  0  0  0  0  0  0  0  0
   -1.8926   61.3120   79.9833 C   0  0  0  0  0  0  0  0  0  0  0  0
   -3.1731   61.8425   79.8428 C   0  0  0  0  0  0  0  0  0  0  0  0
   -3.7575   61.8585   78.5794 C   0  0  0  0  0  0  0  0  0  0  0  0
   -3.0578   61.3398   77.4964 C   0  0  0  0  0  0  0  0  0  0  0  0
   -1.7948   60.8191   77.7204 C   0  0  0  0  0  0  0  0  0  0  0  0
   -1.1987   60.7862   78.9324 N   0  0  0  0  0  0  0  0  0  0  0  0
    0.2015   63.3088   88.3193 C   0  0  0  0  0  0  0  0  0  0  0  0
    0.4630   63.3342   89.4497 N   0  0  0  0  0  0  0  0  0  0  0  0
 21 22  1  0  0  0
 22 14  1  0  0  0
 14 15  1  0  0  0
 15 16  2  0  0  0
 16 17  1  0  0  0
 17 13  1  0  0  0
 13 11  1  0  0  0
 11  1  1  0  0  0
  1  2  1  0  0  0
  2  3  2  0  0  0
  3  4  1  0  0  0
  4 23  1  0  0  0
 23 25  1  0  0  0
 25 26  1  0  0  0
 26 27  2  0  0  0
 27 28  1  0  0  0
 28 29  2  0  0  0
 29 30  1  0  0  0
 30 31  2  0  0  0
  4  5  2  0  0  0
  5  6  1  0  0  0
  6  7  2  0  0  0
  7  8  1  0  0  0
  8 32  1  0  0  0
 32 33  3  0  0  0
  8  9  2  0  0  0
  9 10  1  0  0  0
 17 18  2  0  0  0
 18 19  1  0  0  0
 19 20  1  0  0  0
 19 14  2  0  0  0
 10  1  2  0  0  0
 31 26  1  0  0  0
 10  5  1  0  0  0
 11 12  1  0  0  0
 23 24  1  0  0  0
M  END
> <minimizedAffinity>
-9.44447

$$$$



 33 36  0  0  0  0  0  0  0  0999 V2000
    0.7338   65.4623   83.2195 C   0  0  0  0  0  0  0  0  0  0  0  0
    0.5288   65.3643   81.8921 N   0  0  0  0  0  0  0  0  0  0  0  0
   -0.2120   64.3406   81.3618 N   0  0  0  0  0  0  0  0  0  0  0  0
   -0.7727   63.4043   82.1528 C   0  0  0  0  0  0  0  0  0  0  0  0
   -0.5562   63.4293   83.5466 C   0  0  0  0  0  0  0  0  0  0  0  0
   -1.0632   62.4381   84.4246 C   0  0  0  0  0  0  0  0  0  0  0  0
   -0.8328   62.4845   85.8013 C   0  0  0  0  0  0  0  0  0  0  0  0
   -0.0787   63.5210   86.3399 C   0  0  0  0  0  0  0  0  0  0  0  0
    0.4394   64.5063   85.4936 C   0  0  0  0  0  0  0  0  0  0  0  0
    0.2117   64.4858   84.0933 C   0  0  0  0  0  0  0  0  0  0  0  0
    1.4632   66.5519   83.7511 N   0  0  0  0  0  0  0  0  0  0  0  0
    0.9281   67.3975   83.5749 H   0  0  0  0  0  0  0  0  0  0  0  0
    2.8379   66.6910   83.2811 C   0  0  0  0  0  0  0  0  0  0  0  0
    5.6451   65.6675   86.4297 C   0  0  0  0  0  0  0  0  0  0  0  0
    4.3345   65.1814   86.4591 C   0  0  0  0  0  0  0  0  0  0  0  0
    3.4299   65.5095   85.4417 C   0  0  0  0  0  0  0  0  0  0  0  0
    3.8163   66.3266   84.3727 C   0  0  0  0  0  0  0  0  0  0  0  0
    5.1270   66.8212   84.3463 C   0  0  0  0  0  0  0  0  0  0  0  0
    6.0313   66.4922   85.3613 C   0  0  0  0  0  0  0  0  0  0  0  0
    7.6338   67.1370   85.2528 Cl  0  0  0  0  0  0  0  0  0  0  0  0
    6.1614   65.2401   88.7218 C   0  0  0  0  0  0  0  0  0  0  0  0
    6.5966   65.3950   87.3782 O   0  0  0  0  0  0  0  0  0  0  0  0
   -1.5326   62.3688   81.5787 N   0  0  0  0  0  0  0  0  0  0  0  0
   -2.3321   62.7477   81.0693 H   0  0  0  0  0  0  0  0  0  0  0  0
   -0.7945   61.4839   80.6763 C   0  0  0  0  0  0  0  0  0  0  0  0
   -1.6128   61.2573   79.4150 C   0  0  0  0  0  0  0  0  0  0  0  0
   -2.7156   62.0622   79.1382 C   0  0  0  0  0  0  0  0  0  0  0  0
   -3.4637   61.8040   77.9929 C   0  0  0  0  0  0  0  0  0  0  0  0
   -3.1004   60.7505   77.1626 C   0  0  0  0  0  0  0  0  0  0  0  0
   -1.9986   59.9893   77.5133 C   0  0  0  0  0  0  0  0  0  0  0  0
   -1.2517   60.2107   78.6172 N   0  0  0  0  0  0  0  0  0  0  0  0
    0.1701   63.5770   87.7504 C   0  0  0  0  0  0  0  0  0  0  0  0
    0.3794   63.6152   88.8913 N   0  0  0  0  0  0  0  0  0  0  0  0
 21 22  1  0  0  0
 22 14  1  0  0  0
 14 15  1  0  0  0
 15 16  2  0  0  0
 16 17  1  0  0  0
 17 13  1  0  0  0
 13 11  1  0  0  0
 11  1  1  0  0  0
  1  2  1  0  0  0
  2  3  2  0  0  0
  3  4  1  0  0  0
  4 23  1  0  0  0
 23 25  1  0  0  0
 25 26  1  0  0  0
 26 27  2  0  0  0
 27 28  1  0  0  0
 28 29  2  0  0  0
 29 30  1  0  0  0
 30 31  2  0  0  0
  4  5  2  0  0  0
  5  6  1  0  0  0
  6  7  2  0  0  0
  7  8  1  0  0  0
  8 32  1  0  0  0
 32 33  3  0  0  0
  8  9  2  0  0  0
  9 10  1  0  0  0
 17 18  2  0  0  0
 18 19  1  0  0  0
 19 20  1  0  0  0
 19 14  2  0  0  0
 10  1  2  0  0  0
 31 26  1  0  0  0
 10  5  1  0  0  0
 11 12  1  0  0  0
 23 24  1  0  0  0
M  END
> <minimizedAffinity>
-9.44336

$$$$



 33 36  0  0  0  0  0  0  0  0999 V2000
    0.6411   65.1762   83.4515 C   0  0  0  0  0  0  0  0  0  0  0  0
    0.4387   64.9998   82.1319 N   0  0  0  0  0  0  0  0  0  0  0  0
   -0.2669   63.9241   81.6594 N   0  0  0  0  0  0  0  0  0  0  0  0
   -0.7945   63.0132   82.5012 C   0  0  0  0  0  0  0  0  0  0  0  0
   -0.5781   63.1209   83.8911 C   0  0  0  0  0  0  0  0  0  0  0  0
   -1.0501   62.1617   84.8225 C   0  0  0  0  0  0  0  0  0  0  0  0
   -0.8204   62.2902   86.1941 C   0  0  0  0  0  0  0  0  0  0  0  0
   -0.1020   63.3795   86.6741 C   0  0  0  0  0  0  0  0  0  0  0  0
    0.3814   64.3349   85.7746 C   0  0  0  0  0  0  0  0  0  0  0  0
    0.1535   64.2310   84.3780 C   0  0  0  0  0  0  0  0  0  0  0  0
    1.3331   66.3172   83.9217 N   0  0  0  0  0  0  0  0  0  0  0  0
    0.6401   66.9977   84.2202 H   0  0  0  0  0  0  0  0  0  0  0  0
    2.2898   66.9121   82.9938 C   0  0  0  0  0  0  0  0  0  0  0  0
    0.8723   70.7455   81.5318 C   0  0  0  0  0  0  0  0  0  0  0  0
    0.2977   69.5542   81.0782 C   0  0  0  0  0  0  0  0  0  0  0  0
    0.7534   68.3179   81.5522 C   0  0  0  0  0  0  0  0  0  0  0  0
    1.7893   68.2456   82.4909 C   0  0  0  0  0  0  0  0  0  0  0  0
    2.3715   69.4383   82.9402 C   0  0  0  0  0  0  0  0  0  0  0  0
    1.9154   70.6735   82.4684 C   0  0  0  0  0  0  0  0  0  0  0  0
    2.6814   72.1012   83.0772 Cl  0  0  0  0  0  0  0  0  0  0  0  0
   -0.7367   72.5071   81.6361 C   0  0  0  0  0  0  0  0  0  0  0  0
    0.4878   71.9974   81.1267 O   0  0  0  0  0  0  0  0  0  0  0  0
   -1.5189   61.9228   81.9857 N   0  0  0  0  0  0  0  0  0  0  0  0
   -2.4224   62.2292   81.6223 H   0  0  0  0  0  0  0  0  0  0  0  0
   -0.8373   61.1660   80.9346 C   0  0  0  0  0  0  0  0  0  0  0  0
   -1.6848   61.1852   79.6723 C   0  0  0  0  0  0  0  0  0  0  0  0
   -2.8811   61.8983   79.6393 C   0  0  0  0  0  0  0  0  0  0  0  0
   -3.6498   61.8649   78.4792 C   0  0  0  0  0  0  0  0  0  0  0  0
   -3.2130   61.1185   77.3913 C   0  0  0  0  0  0  0  0  0  0  0  0
   -2.0191   60.4275   77.5073 C   0  0  0  0  0  0  0  0  0  0  0  0
   -1.2494   60.4365   78.6177 N   0  0  0  0  0  0  0  0  0  0  0  0
    0.1457   63.5200   88.0789 C   0  0  0  0  0  0  0  0  0  0  0  0
    0.3462   63.6232   89.2173 N   0  0  0  0  0  0  0  0  0  0  0  0
 21 22  1  0  0  0
 22 14  1  0  0  0
 14 15  1  0  0  0
 15 16  2  0  0  0
 16 17  1  0  0  0
 17 13  1  0  0  0
 13 11  1  0  0  0
 11  1  1  0  0  0
  1  2  1  0  0  0
  2  3  2  0  0  0
  3  4  1  0  0  0
  4 23  1  0  0  0
 23 25  1  0  0  0
 25 26  1  0  0  0
 26 27  2  0  0  0
 27 28  1  0  0  0
 28 29  2  0  0  0
 29 30  1  0  0  0
 30 31  2  0  0  0
  4  5  2  0  0  0
  5  6  1  0  0  0
  6  7  2  0  0  0
  7  8  1  0  0  0
  8 32  1  0  0  0
 32 33  3  0  0  0
  8  9  2  0  0  0
  9 10  1  0  0  0
 17 18  2  0  0  0
 18 19  1  0  0  0
 19 20  1  0  0  0
 19 14  2  0  0  0
 10  1  2  0  0  0
 31 26  1  0  0  0
 10  5  1  0  0  0
 11 12  1  0  0  0
 23 24  1  0  0  0
M  END
> <minimizedAffinity>
-9.41282

$$$$



 33 36  0  0  0  0  0  0  0  0999 V2000
    0.1404   65.6766   80.6276 C   0  0  0  0  0  0  0  0  0  0  0  0
   -0.5831   64.6485   80.1448 N   0  0  0  0  0  0  0  0  0  0  0  0
   -0.9108   63.5779   80.9352 N   0  0  0  0  0  0  0  0  0  0  0  0
   -0.5315   63.5245   82.2274 C   0  0  0  0  0  0  0  0  0  0  0  0
    0.2653   64.5506   82.7772 C   0  0  0  0  0  0  0  0  0  0  0  0
    0.7509   64.5215   84.1090 C   0  0  0  0  0  0  0  0  0  0  0  0
    1.5404   65.5495   84.6290 C   0  0  0  0  0  0  0  0  0  0  0  0
    1.8759   66.6345   83.8269 C   0  0  0  0  0  0  0  0  0  0  0  0
    1.4162   66.6824   82.5071 C   0  0  0  0  0  0  0  0  0  0  0  0
    0.6058   65.6548   81.9590 C   0  0  0  0  0  0  0  0  0  0  0  0
    0.4294   66.7935   79.8085 N   0  0  0  0  0  0  0  0  0  0  0  0
    1.4003   67.0489   79.9655 H   0  0  0  0  0  0  0  0  0  0  0  0
   -0.4508   67.9468   79.9664 C   0  0  0  0  0  0  0  0  0  0  0  0
    1.7898   71.4395   81.2400 C   0  0  0  0  0  0  0  0  0  0  0  0
    0.4532   71.2754   81.6162 C   0  0  0  0  0  0  0  0  0  0  0  0
   -0.2685   70.1471   81.2075 C   0  0  0  0  0  0  0  0  0  0  0  0
    0.3303   69.1583   80.4179 C   0  0  0  0  0  0  0  0  0  0  0  0
    1.6672   69.3256   80.0333 C   0  0  0  0  0  0  0  0  0  0  0  0
    2.3889   70.4515   80.4429 C   0  0  0  0  0  0  0  0  0  0  0  0
    4.0376   70.5814   79.9322 Cl  0  0  0  0  0  0  0  0  0  0  0  0
    2.7663   72.7468   82.9837 C   0  0  0  0  0  0  0  0  0  0  0  0
    2.5721   72.5072   81.5968 O   0  0  0  0  0  0  0  0  0  0  0  0
   -0.8884   62.4145   83.0148 N   0  0  0  0  0  0  0  0  0  0  0  0
   -0.1795   62.2344   83.7270 H   0  0  0  0  0  0  0  0  0  0  0  0
   -2.1879   62.5176   83.6804 C   0  0  0  0  0  0  0  0  0  0  0  0
   -1.9876   62.4471   85.1861 C   0  0  0  0  0  0  0  0  0  0  0  0
   -2.9130   63.0335   86.0466 C   0  0  0  0  0  0  0  0  0  0  0  0
   -2.6801   62.9814   87.4182 C   0  0  0  0  0  0  0  0  0  0  0  0
   -1.5326   62.3575   87.8931 C   0  0  0  0  0  0  0  0  0  0  0  0
   -0.6556   61.8095   86.9728 C   0  0  0  0  0  0  0  0  0  0  0  0
   -0.8496   61.8434   85.6360 N   0  0  0  0  0  0  0  0  0  0  0  0
    2.6905   67.6933   84.3466 C   0  0  0  0  0  0  0  0  0  0  0  0
    3.3571   68.5489   84.7594 N   0  0  0  0  0  0  0  0  0  0  0  0
 21 22  1  0  0  0
 22 14  1  0  0  0
 14 15  1  0  0  0
 15 16  2  0  0  0
 16 17  1  0  0  0
 17 13  1  0  0  0
 13 11  1  0  0  0
 11  1  1  0  0  0
  1  2  1  0  0  0
  2  3  2  0  0  0
  3  4  1  0  0  0
  4 23  1  0  0  0
 23 25  1  0  0  0
 25 26  1  0  0  0
 26 27  2  0  0  0
 27 28  1  0  0  0
 28 29  2  0  0  0
 29 30  1  0  0  0
 30 31  2  0  0  0
  4  5  2  0  0  0
  5  6  1  0  0  0
  6  7  2  0  0  0
  7  8  1  0  0  0
  8 32  1  0  0  0
 32 33  3  0  0  0
  8  9  2  0  0  0
  9 10  1  0  0  0
 17 18  2  0  0  0
 18 19  1  0  0  0
 19 20  1  0  0  0
 19 14  2  0  0  0
 10  1  2  0  0  0
 31 26  1  0  0  0
 10  5  1  0  0  0
 11 12  1  0  0  0
 23 24  1  0  0  0
M  END
> <minimizedAffinity>
-9.34903

$$$$
