


 27 28  0  0  0  0  0  0  0  0999 V2000
   -0.5963   63.7046   81.3758 N   0  0  0  0  0  0  0  0  0  0  0  0
    0.2355   63.1824   82.3430 C   0  0  0  0  0  0  0  0  0  0  0  0
    0.8931   62.1489   82.2722 O   0  0  0  0  0  0  0  0  0  0  0  0
   -1.1100   64.5523   81.5725 H   0  0  0  0  0  0  0  0  0  0  0  0
   -2.0889   62.0888   78.6296 C   0  0  0  0  0  0  0  0  0  0  0  0
   -0.9748   62.3874   77.8693 C   0  0  0  0  0  0  0  0  0  0  0  0
    0.1610   63.2509   78.8154 S   0  0  0  0  0  0  0  0  0  0  0  0
   -0.8887   63.1643   80.1514 C   0  0  0  0  0  0  0  0  0  0  0  0
   -2.0266   62.5380   79.9460 N   0  0  0  0  0  0  0  0  0  0  0  0
   -3.3089   61.3562   78.1790 C   0  0  0  0  0  0  0  0  0  0  0  0
   -2.3310   59.1457   78.2647 O   0  0  0  0  0  0  0  0  0  0  0  0
   -3.2554   59.8969   78.5748 C   0  0  0  0  0  0  0  0  0  0  0  0
   -4.3567   59.4537   79.2775 N   0  0  0  0  0  0  0  0  0  0  0  0
   -4.2498   58.1289   79.7704 O   0  0  0  0  0  0  0  0  0  0  0  0
   -4.8372   60.1184   79.8854 H   0  0  0  0  0  0  0  0  0  0  0  0
   -3.3849   57.8356   79.4078 H   0  0  0  0  0  0  0  0  0  0  0  0
    0.3263   64.0632   83.5827 C   0  0  0  0  0  0  0  0  0  0  0  0
   -0.4008   63.4983   84.7813 C   0  0  0  0  0  0  0  0  0  0  0  0
   -1.6812   62.9474   84.6442 C   0  0  0  0  0  0  0  0  0  0  0  0
   -2.3396   62.4093   85.7494 C   0  0  0  0  0  0  0  0  0  0  0  0
   -1.7298   62.4229   87.0038 C   0  0  0  0  0  0  0  0  0  0  0  0
   -0.4564   62.9861   87.1700 C   0  0  0  0  0  0  0  0  0  0  0  0
    0.2026   63.5163   86.0487 C   0  0  0  0  0  0  0  0  0  0  0  0
    0.2140   62.9933   88.5231 C   0  0  0  0  0  0  0  0  0  0  0  0
    1.4744   63.5045   88.4718 F   0  0  0  0  0  0  0  0  0  0  0  0
    0.3346   61.7519   89.0711 F   0  0  0  0  0  0  0  0  0  0  0  0
   -0.4570   63.7409   89.4430 F   0  0  0  0  0  0  0  0  0  0  0  0
 11 12  2  0  0  0
 12 10  1  0  0  0
 10  5  1  0  0  0
  5  6  2  0  0  0
  6  7  1  0  0  0
  7  8  1  0  0  0
  8  1  1  0  0  0
  1  2  1  0  0  0
  2  3  2  0  0  0
  2 17  1  0  0  0
 17 18  1  0  0  0
 18 19  2  0  0  0
 19 20  1  0  0  0
 20 21  2  0  0  0
 21 22  1  0  0  0
 22 24  1  0  0  0
 24 25  1  0  0  0
 24 26  1  0  0  0
 24 27  1  0  0  0
 22 23  2  0  0  0
  8  9  2  0  0  0
 12 13  1  0  0  0
 13 14  1  0  0  0
  9  5  1  0  0  0
 23 18  1  0  0  0
  1  4  1  0  0  0
 13 15  1  0  0  0
 14 16  1  0  0  0
M  END
> <minimizedAffinity>
-9.78259

$$$$



 27 28  0  0  0  0  0  0  0  0999 V2000
   -0.4236   63.9481   81.4580 N   0  0  0  0  0  0  0  0  0  0  0  0
    0.4769   63.4298   82.3638 C   0  0  0  0  0  0  0  0  0  0  0  0
    0.9548   62.2997   82.3662 O   0  0  0  0  0  0  0  0  0  0  0  0
   -0.7666   64.8897   81.5873 H   0  0  0  0  0  0  0  0  0  0  0  0
   -2.4641   62.0218   79.3352 C   0  0  0  0  0  0  0  0  0  0  0  0
   -1.6560   62.3695   78.2700 C   0  0  0  0  0  0  0  0  0  0  0  0
   -0.3947   63.3948   78.8069 S   0  0  0  0  0  0  0  0  0  0  0  0
   -0.9977   63.3023   80.3949 C   0  0  0  0  0  0  0  0  0  0  0  0
   -2.0724   62.5620   80.5572 N   0  0  0  0  0  0  0  0  0  0  0  0
   -3.6763   61.1519   79.2914 C   0  0  0  0  0  0  0  0  0  0  0  0
   -3.2639   58.7689   79.3234 O   0  0  0  0  0  0  0  0  0  0  0  0
   -3.4218   59.8150   79.9524 C   0  0  0  0  0  0  0  0  0  0  0  0
   -3.4273   59.8481   81.3316 N   0  0  0  0  0  0  0  0  0  0  0  0
   -3.0522   58.6308   81.9539 O   0  0  0  0  0  0  0  0  0  0  0  0
   -3.1081   60.7014   81.7922 H   0  0  0  0  0  0  0  0  0  0  0  0
   -2.9352   58.0269   81.1875 H   0  0  0  0  0  0  0  0  0  0  0  0
    0.9069   64.4443   83.4160 C   0  0  0  0  0  0  0  0  0  0  0  0
    0.4241   64.1130   84.8093 C   0  0  0  0  0  0  0  0  0  0  0  0
    1.2116   64.4150   85.9275 C   0  0  0  0  0  0  0  0  0  0  0  0
    0.7529   64.1257   87.2122 C   0  0  0  0  0  0  0  0  0  0  0  0
   -0.4929   63.5248   87.3930 C   0  0  0  0  0  0  0  0  0  0  0  0
   -1.2912   63.1954   86.2883 C   0  0  0  0  0  0  0  0  0  0  0  0
   -0.8245   63.5002   84.9990 C   0  0  0  0  0  0  0  0  0  0  0  0
   -2.6458   62.5555   86.4779 C   0  0  0  0  0  0  0  0  0  0  0  0
   -2.6030   61.5019   87.3385 F   0  0  0  0  0  0  0  0  0  0  0  0
   -3.1805   62.0737   85.3212 F   0  0  0  0  0  0  0  0  0  0  0  0
   -3.5722   63.4162   86.9841 F   0  0  0  0  0  0  0  0  0  0  0  0
 11 12  2  0  0  0
 12 10  1  0  0  0
 10  5  1  0  0  0
  5  6  2  0  0  0
  6  7  1  0  0  0
  7  8  1  0  0  0
  8  1  1  0  0  0
  1  2  1  0  0  0
  2  3  2  0  0  0
  2 17  1  0  0  0
 17 18  1  0  0  0
 18 19  2  0  0  0
 19 20  1  0  0  0
 20 21  2  0  0  0
 21 22  1  0  0  0
 22 24  1  0  0  0
 24 25  1  0  0  0
 24 26  1  0  0  0
 24 27  1  0  0  0
 22 23  2  0  0  0
  8  9  2  0  0  0
 12 13  1  0  0  0
 13 14  1  0  0  0
  9  5  1  0  0  0
 23 18  1  0  0  0
  1  4  1  0  0  0
 13 15  1  0  0  0
 14 16  1  0  0  0
M  END
> <minimizedAffinity>
-9.59008

$$$$



 27 28  0  0  0  0  0  0  0  0999 V2000
   -1.4120   62.6136   81.2236 N   0  0  0  0  0  0  0  0  0  0  0  0
   -0.2115   62.5587   81.8987 C   0  0  0  0  0  0  0  0  0  0  0  0
    0.5293   61.5869   82.0107 O   0  0  0  0  0  0  0  0  0  0  0  0
   -1.9450   63.4720   81.2345 H   0  0  0  0  0  0  0  0  0  0  0  0
   -2.7514   60.4085   78.8311 C   0  0  0  0  0  0  0  0  0  0  0  0
   -3.2573   59.6311   79.8549 C   0  0  0  0  0  0  0  0  0  0  0  0
   -2.8481   60.3218   81.3668 S   0  0  0  0  0  0  0  0  0  0  0  0
   -2.0439   61.5902   80.5678 C   0  0  0  0  0  0  0  0  0  0  0  0
   -2.0569   61.5388   79.2538 N   0  0  0  0  0  0  0  0  0  0  0  0
   -2.8777   60.1509   77.3663 C   0  0  0  0  0  0  0  0  0  0  0  0
   -2.0230   58.1000   76.4106 O   0  0  0  0  0  0  0  0  0  0  0  0
   -1.7940   59.2172   76.8735 C   0  0  0  0  0  0  0  0  0  0  0  0
   -0.5103   59.6985   77.0274 N   0  0  0  0  0  0  0  0  0  0  0  0
    0.4979   58.8918   76.4421 O   0  0  0  0  0  0  0  0  0  0  0  0
   -0.3657   60.7073   76.9665 H   0  0  0  0  0  0  0  0  0  0  0  0
   -0.0126   58.1211   76.1087 H   0  0  0  0  0  0  0  0  0  0  0  0
    0.1874   63.8983   82.5050 C   0  0  0  0  0  0  0  0  0  0  0  0
    0.0860   63.9347   84.0125 C   0  0  0  0  0  0  0  0  0  0  0  0
    0.9472   64.7424   84.7658 C   0  0  0  0  0  0  0  0  0  0  0  0
    0.8365   64.7879   86.1552 C   0  0  0  0  0  0  0  0  0  0  0  0
   -0.1297   64.0215   86.8068 C   0  0  0  0  0  0  0  0  0  0  0  0
   -0.9908   63.1905   86.0761 C   0  0  0  0  0  0  0  0  0  0  0  0
   -0.8779   63.1595   84.6764 C   0  0  0  0  0  0  0  0  0  0  0  0
   -2.0466   62.3673   86.7747 C   0  0  0  0  0  0  0  0  0  0  0  0
   -1.5309   61.2460   87.3484 F   0  0  0  0  0  0  0  0  0  0  0  0
   -3.0363   61.9410   85.9410 F   0  0  0  0  0  0  0  0  0  0  0  0
   -2.6724   63.0472   87.7754 F   0  0  0  0  0  0  0  0  0  0  0  0
 11 12  2  0  0  0
 12 10  1  0  0  0
 10  5  1  0  0  0
  5  6  2  0  0  0
  6  7  1  0  0  0
  7  8  1  0  0  0
  8  1  1  0  0  0
  1  2  1  0  0  0
  2  3  2  0  0  0
  2 17  1  0  0  0
 17 18  1  0  0  0
 18 19  2  0  0  0
 19 20  1  0  0  0
 20 21  2  0  0  0
 21 22  1  0  0  0
 22 24  1  0  0  0
 24 25  1  0  0  0
 24 26  1  0  0  0
 24 27  1  0  0  0
 22 23  2  0  0  0
  8  9  2  0  0  0
 12 13  1  0  0  0
 13 14  1  0  0  0
  9  5  1  0  0  0
 23 18  1  0  0  0
  1  4  1  0  0  0
 13 15  1  0  0  0
 14 16  1  0  0  0
M  END
> <minimizedAffinity>
-9.31827

$$$$



 27 28  0  0  0  0  0  0  0  0999 V2000
    0.2263   63.9999   80.1662 N   0  0  0  0  0  0  0  0  0  0  0  0
   -0.0144   65.1827   80.8318 C   0  0  0  0  0  0  0  0  0  0  0  0
   -0.9827   65.9237   80.6946 O   0  0  0  0  0  0  0  0  0  0  0  0
    1.0835   63.4970   80.3486 H   0  0  0  0  0  0  0  0  0  0  0  0
   -2.2583   62.3037   78.3413 C   0  0  0  0  0  0  0  0  0  0  0  0
   -1.5673   62.5781   77.1770 C   0  0  0  0  0  0  0  0  0  0  0  0
   -0.1503   63.4685   77.5373 S   0  0  0  0  0  0  0  0  0  0  0  0
   -0.5446   63.4233   79.1915 C   0  0  0  0  0  0  0  0  0  0  0  0
   -1.6569   62.7922   79.4981 N   0  0  0  0  0  0  0  0  0  0  0  0
   -3.5463   61.5591   78.4625 C   0  0  0  0  0  0  0  0  0  0  0  0
   -2.2849   59.4961   78.4089 O   0  0  0  0  0  0  0  0  0  0  0  0
   -3.3120   60.0897   78.7367 C   0  0  0  0  0  0  0  0  0  0  0  0
   -4.3685   59.4458   79.3469 N   0  0  0  0  0  0  0  0  0  0  0  0
   -4.1029   58.1075   79.7316 O   0  0  0  0  0  0  0  0  0  0  0  0
   -4.9552   59.9852   79.9849 H   0  0  0  0  0  0  0  0  0  0  0  0
   -3.1940   57.9630   79.3870 H   0  0  0  0  0  0  0  0  0  0  0  0
    1.0609   65.5117   81.8597 C   0  0  0  0  0  0  0  0  0  0  0  0
    0.7434   65.0101   83.2496 C   0  0  0  0  0  0  0  0  0  0  0  0
    1.3503   65.5876   84.3721 C   0  0  0  0  0  0  0  0  0  0  0  0
    1.0389   65.1346   85.6537 C   0  0  0  0  0  0  0  0  0  0  0  0
    0.1246   64.0956   85.8271 C   0  0  0  0  0  0  0  0  0  0  0  0
   -0.4817   63.4886   84.7180 C   0  0  0  0  0  0  0  0  0  0  0  0
   -0.1690   63.9589   83.4319 C   0  0  0  0  0  0  0  0  0  0  0  0
   -1.4811   62.3712   84.8996 C   0  0  0  0  0  0  0  0  0  0  0  0
   -1.2973   61.6995   86.0690 F   0  0  0  0  0  0  0  0  0  0  0  0
   -1.4239   61.4320   83.9143 F   0  0  0  0  0  0  0  0  0  0  0  0
   -2.7701   62.8111   84.9179 F   0  0  0  0  0  0  0  0  0  0  0  0
 11 12  2  0  0  0
 12 10  1  0  0  0
 10  5  1  0  0  0
  5  6  2  0  0  0
  6  7  1  0  0  0
  7  8  1  0  0  0
  8  1  1  0  0  0
  1  2  1  0  0  0
  2  3  2  0  0  0
  2 17  1  0  0  0
 17 18  1  0  0  0
 18 19  2  0  0  0
 19 20  1  0  0  0
 20 21  2  0  0  0
 21 22  1  0  0  0
 22 24  1  0  0  0
 24 25  1  0  0  0
 24 26  1  0  0  0
 24 27  1  0  0  0
 22 23  2  0  0  0
  8  9  2  0  0  0
 12 13  1  0  0  0
 13 14  1  0  0  0
  9  5  1  0  0  0
 23 18  1  0  0  0
  1  4  1  0  0  0
 13 15  1  0  0  0
 14 16  1  0  0  0
M  END
> <minimizedAffinity>
-9.31289

$$$$



 27 28  0  0  0  0  0  0  0  0999 V2000
    0.6633   64.4760   82.9000 N   0  0  0  0  0  0  0  0  0  0  0  0
   -0.5327   63.8030   82.7711 C   0  0  0  0  0  0  0  0  0  0  0  0
   -1.5054   64.1458   82.1062 O   0  0  0  0  0  0  0  0  0  0  0  0
    1.3775   64.1004   83.5082 H   0  0  0  0  0  0  0  0  0  0  0  0
    1.7110   67.7805   82.2972 C   0  0  0  0  0  0  0  0  0  0  0  0
    1.4853   67.5885   80.9479 C   0  0  0  0  0  0  0  0  0  0  0  0
    0.9166   65.9973   80.6736 S   0  0  0  0  0  0  0  0  0  0  0  0
    1.0030   65.6805   82.3428 C   0  0  0  0  0  0  0  0  0  0  0  0
    1.4252   66.6745   83.0933 N   0  0  0  0  0  0  0  0  0  0  0  0
    2.2176   69.0228   82.9513 C   0  0  0  0  0  0  0  0  0  0  0  0
    4.5342   68.6855   83.5593 O   0  0  0  0  0  0  0  0  0  0  0  0
    3.3534   68.7223   83.9046 C   0  0  0  0  0  0  0  0  0  0  0  0
    2.9576   68.4423   85.1962 N   0  0  0  0  0  0  0  0  0  0  0  0
    4.0210   68.2980   86.1225 O   0  0  0  0  0  0  0  0  0  0  0  0
    2.1167   68.9004   85.5503 H   0  0  0  0  0  0  0  0  0  0  0  0
    4.8153   68.3840   85.5502 H   0  0  0  0  0  0  0  0  0  0  0  0
   -0.5524   62.4823   83.5305 C   0  0  0  0  0  0  0  0  0  0  0  0
   -1.0821   62.6028   84.9408 C   0  0  0  0  0  0  0  0  0  0  0  0
   -2.4593   62.5563   85.1917 C   0  0  0  0  0  0  0  0  0  0  0  0
   -2.9421   62.6477   86.4968 C   0  0  0  0  0  0  0  0  0  0  0  0
   -2.0554   62.7944   87.5635 C   0  0  0  0  0  0  0  0  0  0  0  0
   -0.6735   62.8628   87.3360 C   0  0  0  0  0  0  0  0  0  0  0  0
   -0.1968   62.7596   86.0188 C   0  0  0  0  0  0  0  0  0  0  0  0
    0.2923   63.0098   88.4876 C   0  0  0  0  0  0  0  0  0  0  0  0
    0.5933   61.8143   89.0645 F   0  0  0  0  0  0  0  0  0  0  0  0
   -0.1813   63.8015   89.4900 F   0  0  0  0  0  0  0  0  0  0  0  0
    1.4826   63.5567   88.1143 F   0  0  0  0  0  0  0  0  0  0  0  0
 11 12  2  0  0  0
 12 10  1  0  0  0
 10  5  1  0  0  0
  5  6  2  0  0  0
  6  7  1  0  0  0
  7  8  1  0  0  0
  8  1  1  0  0  0
  1  2  1  0  0  0
  2  3  2  0  0  0
  2 17  1  0  0  0
 17 18  1  0  0  0
 18 19  2  0  0  0
 19 20  1  0  0  0
 20 21  2  0  0  0
 21 22  1  0  0  0
 22 24  1  0  0  0
 24 25  1  0  0  0
 24 26  1  0  0  0
 24 27  1  0  0  0
 22 23  2  0  0  0
  8  9  2  0  0  0
 12 13  1  0  0  0
 13 14  1  0  0  0
  9  5  1  0  0  0
 23 18  1  0  0  0
  1  4  1  0  0  0
 13 15  1  0  0  0
 14 16  1  0  0  0
M  END
> <minimizedAffinity>
-9.28413

$$$$



 27 28  0  0  0  0  0  0  0  0999 V2000
   -1.3856   62.6340   80.7780 N   0  0  0  0  0  0  0  0  0  0  0  0
   -0.9867   61.9680   81.9170 C   0  0  0  0  0  0  0  0  0  0  0  0
   -0.0859   61.1402   82.0115 O   0  0  0  0  0  0  0  0  0  0  0  0
   -2.1680   63.2716   80.8280 H   0  0  0  0  0  0  0  0  0  0  0  0
   -0.4511   61.4611   77.5950 C   0  0  0  0  0  0  0  0  0  0  0  0
    0.1444   62.6810   77.3384 C   0  0  0  0  0  0  0  0  0  0  0  0
   -0.0430   63.7156   78.6893 S   0  0  0  0  0  0  0  0  0  0  0  0
   -0.8850   62.4871   79.5113 C   0  0  0  0  0  0  0  0  0  0  0  0
   -1.0381   61.3588   78.8534 N   0  0  0  0  0  0  0  0  0  0  0  0
   -0.5195   60.2881   76.6744 C   0  0  0  0  0  0  0  0  0  0  0  0
   -1.7475   58.3205   77.3603 O   0  0  0  0  0  0  0  0  0  0  0  0
   -1.7678   59.4679   76.9155 C   0  0  0  0  0  0  0  0  0  0  0  0
   -2.9424   60.0925   76.5504 N   0  0  0  0  0  0  0  0  0  0  0  0
   -4.1211   59.3877   76.9021 O   0  0  0  0  0  0  0  0  0  0  0  0
   -2.9901   61.1092   76.6303 H   0  0  0  0  0  0  0  0  0  0  0  0
   -3.7655   58.5566   77.2876 H   0  0  0  0  0  0  0  0  0  0  0  0
   -1.7678   62.3929   83.1541 C   0  0  0  0  0  0  0  0  0  0  0  0
   -0.9342   63.1401   84.1694 C   0  0  0  0  0  0  0  0  0  0  0  0
   -1.0725   62.8769   85.5381 C   0  0  0  0  0  0  0  0  0  0  0  0
   -0.2866   63.5546   86.4697 C   0  0  0  0  0  0  0  0  0  0  0  0
    0.6393   64.5074   86.0448 C   0  0  0  0  0  0  0  0  0  0  0  0
    0.7825   64.8021   84.6815 C   0  0  0  0  0  0  0  0  0  0  0  0
   -0.0065   64.1067   83.7505 C   0  0  0  0  0  0  0  0  0  0  0  0
    1.7914   65.8240   84.2143 C   0  0  0  0  0  0  0  0  0  0  0  0
    3.0567   65.5195   84.6125 F   0  0  0  0  0  0  0  0  0  0  0  0
    1.5426   67.0793   84.6818 F   0  0  0  0  0  0  0  0  0  0  0  0
    1.8418   65.9370   82.8578 F   0  0  0  0  0  0  0  0  0  0  0  0
 11 12  2  0  0  0
 12 10  1  0  0  0
 10  5  1  0  0  0
  5  6  2  0  0  0
  6  7  1  0  0  0
  7  8  1  0  0  0
  8  1  1  0  0  0
  1  2  1  0  0  0
  2  3  2  0  0  0
  2 17  1  0  0  0
 17 18  1  0  0  0
 18 19  2  0  0  0
 19 20  1  0  0  0
 20 21  2  0  0  0
 21 22  1  0  0  0
 22 24  1  0  0  0
 24 25  1  0  0  0
 24 26  1  0  0  0
 24 27  1  0  0  0
 22 23  2  0  0  0
  8  9  2  0  0  0
 12 13  1  0  0  0
 13 14  1  0  0  0
  9  5  1  0  0  0
 23 18  1  0  0  0
  1  4  1  0  0  0
 13 15  1  0  0  0
 14 16  1  0  0  0
M  END
> <minimizedAffinity>
-9.17810

$$$$



 27 28  0  0  0  0  0  0  0  0999 V2000
   -2.3162   62.1871   81.4472 N   0  0  0  0  0  0  0  0  0  0  0  0
   -1.5838   61.9790   82.5962 C   0  0  0  0  0  0  0  0  0  0  0  0
   -0.5420   61.3396   82.7025 O   0  0  0  0  0  0  0  0  0  0  0  0
   -3.1798   62.7090   81.5007 H   0  0  0  0  0  0  0  0  0  0  0  0
   -1.1047   61.6145   78.1938 C   0  0  0  0  0  0  0  0  0  0  0  0
   -1.9052   60.4916   78.1110 C   0  0  0  0  0  0  0  0  0  0  0  0
   -2.7836   60.2946   79.5671 S   0  0  0  0  0  0  0  0  0  0  0  0
   -2.0543   61.6974   80.1949 C   0  0  0  0  0  0  0  0  0  0  0  0
   -1.2020   62.3051   79.3989 N   0  0  0  0  0  0  0  0  0  0  0  0
   -0.1777   62.1312   77.1442 C   0  0  0  0  0  0  0  0  0  0  0  0
   -0.7810   64.4230   76.6606 O   0  0  0  0  0  0  0  0  0  0  0  0
   -0.0273   63.6343   77.2304 C   0  0  0  0  0  0  0  0  0  0  0  0
    1.0596   64.0594   77.9660 N   0  0  0  0  0  0  0  0  0  0  0  0
    1.1262   65.4612   78.1666 O   0  0  0  0  0  0  0  0  0  0  0  0
    1.3635   63.4815   78.7509 H   0  0  0  0  0  0  0  0  0  0  0  0
    0.3602   65.7878   77.6447 H   0  0  0  0  0  0  0  0  0  0  0  0
   -2.1740   62.6867   83.8095 C   0  0  0  0  0  0  0  0  0  0  0  0
   -1.1318   63.2284   84.7606 C   0  0  0  0  0  0  0  0  0  0  0  0
   -0.1896   64.1691   84.3257 C   0  0  0  0  0  0  0  0  0  0  0  0
    0.7573   64.6810   85.2123 C   0  0  0  0  0  0  0  0  0  0  0  0
    0.7780   64.2530   86.5397 C   0  0  0  0  0  0  0  0  0  0  0  0
   -0.1426   63.2980   86.9941 C   0  0  0  0  0  0  0  0  0  0  0  0
   -1.0987   62.7962   86.0958 C   0  0  0  0  0  0  0  0  0  0  0  0
   -0.1328   62.8394   88.4328 C   0  0  0  0  0  0  0  0  0  0  0  0
   -1.2277   63.2678   89.1185 F   0  0  0  0  0  0  0  0  0  0  0  0
    0.9471   63.2860   89.1332 F   0  0  0  0  0  0  0  0  0  0  0  0
   -0.1195   61.4830   88.5565 F   0  0  0  0  0  0  0  0  0  0  0  0
 11 12  2  0  0  0
 12 10  1  0  0  0
 10  5  1  0  0  0
  5  6  2  0  0  0
  6  7  1  0  0  0
  7  8  1  0  0  0
  8  1  1  0  0  0
  1  2  1  0  0  0
  2  3  2  0  0  0
  2 17  1  0  0  0
 17 18  1  0  0  0
 18 19  2  0  0  0
 19 20  1  0  0  0
 20 21  2  0  0  0
 21 22  1  0  0  0
 22 24  1  0  0  0
 24 25  1  0  0  0
 24 26  1  0  0  0
 24 27  1  0  0  0
 22 23  2  0  0  0
  8  9  2  0  0  0
 12 13  1  0  0  0
 13 14  1  0  0  0
  9  5  1  0  0  0
 23 18  1  0  0  0
  1  4  1  0  0  0
 13 15  1  0  0  0
 14 16  1  0  0  0
M  END
> <minimizedAffinity>
-9.15832

$$$$



 27 28  0  0  0  0  0  0  0  0999 V2000
   -1.5087   61.4551   81.6367 N   0  0  0  0  0  0  0  0  0  0  0  0
   -0.8632   62.4626   82.3210 C   0  0  0  0  0  0  0  0  0  0  0  0
   -0.8599   63.6583   82.0456 O   0  0  0  0  0  0  0  0  0  0  0  0
   -1.4045   60.5003   81.9507 H   0  0  0  0  0  0  0  0  0  0  0  0
   -2.6307   61.7200   78.3123 C   0  0  0  0  0  0  0  0  0  0  0  0
   -3.9315   61.7805   78.7734 C   0  0  0  0  0  0  0  0  0  0  0  0
   -3.9483   61.6811   80.4823 S   0  0  0  0  0  0  0  0  0  0  0  0
   -2.2506   61.5720   80.4910 C   0  0  0  0  0  0  0  0  0  0  0  0
   -1.6687   61.6042   79.3122 N   0  0  0  0  0  0  0  0  0  0  0  0
   -2.1835   61.7640   76.8889 C   0  0  0  0  0  0  0  0  0  0  0  0
    0.1901   61.5775   76.4632 O   0  0  0  0  0  0  0  0  0  0  0  0
   -0.8815   61.0181   76.6948 C   0  0  0  0  0  0  0  0  0  0  0  0
   -0.9951   59.6444   76.7505 N   0  0  0  0  0  0  0  0  0  0  0  0
    0.2383   58.9469   76.7092 O   0  0  0  0  0  0  0  0  0  0  0  0
   -1.7124   59.2465   77.3583 H   0  0  0  0  0  0  0  0  0  0  0  0
    0.8895   59.6724   76.5853 H   0  0  0  0  0  0  0  0  0  0  0  0
   -0.1354   61.9617   83.5622 C   0  0  0  0  0  0  0  0  0  0  0  0
   -0.8421   62.2977   84.8552 C   0  0  0  0  0  0  0  0  0  0  0  0
   -2.2363   62.4263   84.8934 C   0  0  0  0  0  0  0  0  0  0  0  0
   -2.8854   62.7167   86.0930 C   0  0  0  0  0  0  0  0  0  0  0  0
   -2.1486   62.8893   87.2647 C   0  0  0  0  0  0  0  0  0  0  0  0
   -0.7504   62.7844   87.2482 C   0  0  0  0  0  0  0  0  0  0  0  0
   -0.1070   62.4817   86.0369 C   0  0  0  0  0  0  0  0  0  0  0  0
    0.0520   62.9586   88.5156 C   0  0  0  0  0  0  0  0  0  0  0  0
    1.2651   63.5305   88.2838 F   0  0  0  0  0  0  0  0  0  0  0  0
    0.3072   61.7842   89.1572 F   0  0  0  0  0  0  0  0  0  0  0  0
   -0.5690   63.7535   89.4309 F   0  0  0  0  0  0  0  0  0  0  0  0
 11 12  2  0  0  0
 12 10  1  0  0  0
 10  5  1  0  0  0
  5  6  2  0  0  0
  6  7  1  0  0  0
  7  8  1  0  0  0
  8  1  1  0  0  0
  1  2  1  0  0  0
  2  3  2  0  0  0
  2 17  1  0  0  0
 17 18  1  0  0  0
 18 19  2  0  0  0
 19 20  1  0  0  0
 20 21  2  0  0  0
 21 22  1  0  0  0
 22 24  1  0  0  0
 24 25  1  0  0  0
 24 26  1  0  0  0
 24 27  1  0  0  0
 22 23  2  0  0  0
  8  9  2  0  0  0
 12 13  1  0  0  0
 13 14  1  0  0  0
  9  5  1  0  0  0
 23 18  1  0  0  0
  1  4  1  0  0  0
 13 15  1  0  0  0
 14 16  1  0  0  0
M  END
> <minimizedAffinity>
-9.15183

$$$$



 27 28  0  0  0  0  0  0  0  0999 V2000
   -0.1882   63.3346   82.6511 N   0  0  0  0  0  0  0  0  0  0  0  0
    0.2669   64.6351   82.6907 C   0  0  0  0  0  0  0  0  0  0  0  0
    0.4277   65.3908   81.7375 O   0  0  0  0  0  0  0  0  0  0  0  0
   -0.2450   62.8057   83.5102 H   0  0  0  0  0  0  0  0  0  0  0  0
   -1.8366   61.8012   79.9471 C   0  0  0  0  0  0  0  0  0  0  0  0
   -0.6484   61.1948   79.5879 C   0  0  0  0  0  0  0  0  0  0  0  0
    0.5906   61.6517   80.6772 S   0  0  0  0  0  0  0  0  0  0  0  0
   -0.5226   62.6048   81.5411 C   0  0  0  0  0  0  0  0  0  0  0  0
   -1.7535   62.6090   81.0781 N   0  0  0  0  0  0  0  0  0  0  0  0
   -3.1518   61.6724   79.2532 C   0  0  0  0  0  0  0  0  0  0  0  0
   -3.3954   59.7386   77.8209 O   0  0  0  0  0  0  0  0  0  0  0  0
   -3.4769   60.2266   78.9479 C   0  0  0  0  0  0  0  0  0  0  0  0
   -3.9227   59.4991   80.0320 N   0  0  0  0  0  0  0  0  0  0  0  0
   -4.0948   58.1139   79.7841 O   0  0  0  0  0  0  0  0  0  0  0  0
   -3.5643   59.7458   80.9555 H   0  0  0  0  0  0  0  0  0  0  0  0
   -3.8929   58.0423   78.8251 H   0  0  0  0  0  0  0  0  0  0  0  0
    0.5351   65.1244   84.1084 C   0  0  0  0  0  0  0  0  0  0  0  0
    1.8163   65.9145   84.2440 C   0  0  0  0  0  0  0  0  0  0  0  0
    1.9229   67.1997   83.6974 C   0  0  0  0  0  0  0  0  0  0  0  0
    3.1004   67.9325   83.8426 C   0  0  0  0  0  0  0  0  0  0  0  0
    4.1858   67.3867   84.5278 C   0  0  0  0  0  0  0  0  0  0  0  0
    4.1101   66.0946   85.0673 C   0  0  0  0  0  0  0  0  0  0  0  0
    2.9162   65.3687   84.9244 C   0  0  0  0  0  0  0  0  0  0  0  0
    5.2775   65.5027   85.8203 C   0  0  0  0  0  0  0  0  0  0  0  0
    4.8853   64.5670   86.7277 F   0  0  0  0  0  0  0  0  0  0  0  0
    5.9919   66.4278   86.5201 F   0  0  0  0  0  0  0  0  0  0  0  0
    6.1742   64.8816   85.0045 F   0  0  0  0  0  0  0  0  0  0  0  0
 11 12  2  0  0  0
 12 10  1  0  0  0
 10  5  1  0  0  0
  5  6  2  0  0  0
  6  7  1  0  0  0
  7  8  1  0  0  0
  8  1  1  0  0  0
  1  2  1  0  0  0
  2  3  2  0  0  0
  2 17  1  0  0  0
 17 18  1  0  0  0
 18 19  2  0  0  0
 19 20  1  0  0  0
 20 21  2  0  0  0
 21 22  1  0  0  0
 22 24  1  0  0  0
 24 25  1  0  0  0
 24 26  1  0  0  0
 24 27  1  0  0  0
 22 23  2  0  0  0
  8  9  2  0  0  0
 12 13  1  0  0  0
 13 14  1  0  0  0
  9  5  1  0  0  0
 23 18  1  0  0  0
  1  4  1  0  0  0
 13 15  1  0  0  0
 14 16  1  0  0  0
M  END
> <minimizedAffinity>
-9.08138

$$$$
