


 25 28  0  0  0  0  0  0  0  0999 V2000
    2.1706   66.2002   84.1931 C   0  0  0  0  0  0  0  0  0  0  0  0
    1.5545   65.4741   85.1415 N   0  0  0  0  0  0  0  0  0  0  0  0
    0.4922   64.7392   84.7794 C   0  0  0  0  0  0  0  0  0  0  0  0
    0.0019   64.6811   83.5301 N   0  0  0  0  0  0  0  0  0  0  0  0
    0.6227   65.3944   82.5881 C   0  0  0  0  0  0  0  0  0  0  0  0
    0.1351   65.3410   81.2878 C   0  0  0  0  0  0  0  0  0  0  0  0
    0.7333   66.0500   80.2428 C   0  0  0  0  0  0  0  0  0  0  0  0
    1.8518   66.8318   80.4937 C   0  0  0  0  0  0  0  0  0  0  0  0
    2.3578   66.9029   81.7897 C   0  0  0  0  0  0  0  0  0  0  0  0
    1.7423   66.1911   82.8531 C   0  0  0  0  0  0  0  0  0  0  0  0
   -0.1835   63.9456   85.8269 C   0  0  0  0  0  0  0  0  0  0  0  0
    0.1086   64.1306   87.1931 C   0  0  0  0  0  0  0  0  0  0  0  0
   -0.5286   63.3805   88.1872 C   0  0  0  0  0  0  0  0  0  0  0  0
   -1.4764   62.4239   87.8376 C   0  0  0  0  0  0  0  0  0  0  0  0
   -1.7874   62.2179   86.4971 C   0  0  0  0  0  0  0  0  0  0  0  0
   -1.1482   62.9704   85.5060 C   0  0  0  0  0  0  0  0  0  0  0  0
    3.2779   67.0167   84.5556 N   0  0  0  0  0  0  0  0  0  0  0  0
    2.9398   67.7788   85.1346 H   0  0  0  0  0  0  0  0  0  0  0  0
    6.3027   65.2004   88.2724 Cl  0  0  0  0  0  0  0  0  0  0  0  0
    6.0721   65.7872   86.6702 C   0  0  0  0  0  0  0  0  0  0  0  0
    7.1645   65.9092   85.8171 C   0  0  0  0  0  0  0  0  0  0  0  0
    6.9736   66.4028   84.5296 C   0  0  0  0  0  0  0  0  0  0  0  0
    5.6911   66.7593   84.1006 C   0  0  0  0  0  0  0  0  0  0  0  0
    4.5761   66.6060   84.9360 C   0  0  0  0  0  0  0  0  0  0  0  0
    4.7909   66.1427   86.2425 C   0  0  0  0  0  0  0  0  0  0  0  0
 19 20  1  0  0  0
 20 21  1  0  0  0
 21 22  2  0  0  0
 22 23  1  0  0  0
 23 24  2  0  0  0
 24 17  1  0  0  0
 17  1  1  0  0  0
  1  2  1  0  0  0
  2  3  2  0  0  0
  3 11  1  0  0  0
 11 12  2  0  0  0
 12 13  1  0  0  0
 13 14  2  0  0  0
 14 15  1  0  0  0
 15 16  2  0  0  0
  3  4  1  0  0  0
  4  5  2  0  0  0
  5  6  1  0  0  0
  6  7  2  0  0  0
  7  8  1  0  0  0
  8  9  2  0  0  0
  9 10  1  0  0  0
 24 25  1  0  0  0
 25 20  2  0  0  0
 10  1  2  0  0  0
 16 11  1  0  0  0
 10  5  1  0  0  0
 17 18  1  0  0  0
M  END
> <minimizedAffinity>
-10.41390

$$$$



 25 28  0  0  0  0  0  0  0  0999 V2000
    2.8348   67.4371   83.7219 C   0  0  0  0  0  0  0  0  0  0  0  0
    2.1274   66.3781   84.1510 N   0  0  0  0  0  0  0  0  0  0  0  0
    1.0938   65.9670   83.4010 C   0  0  0  0  0  0  0  0  0  0  0  0
    0.7177   66.5447   82.2481 N   0  0  0  0  0  0  0  0  0  0  0  0
    1.4291   67.5893   81.8187 C   0  0  0  0  0  0  0  0  0  0  0  0
    1.0604   68.1956   80.6238 C   0  0  0  0  0  0  0  0  0  0  0  0
    1.7586   69.2873   80.1009 C   0  0  0  0  0  0  0  0  0  0  0  0
    2.8587   69.7899   80.7808 C   0  0  0  0  0  0  0  0  0  0  0  0
    3.2463   69.2002   81.9819 C   0  0  0  0  0  0  0  0  0  0  0  0
    2.5293   68.0981   82.5183 C   0  0  0  0  0  0  0  0  0  0  0  0
    0.3173   64.8042   83.8794 C   0  0  0  0  0  0  0  0  0  0  0  0
   -0.5111   64.0654   83.0112 C   0  0  0  0  0  0  0  0  0  0  0  0
   -1.2480   62.9647   83.4610 C   0  0  0  0  0  0  0  0  0  0  0  0
   -1.1740   62.5752   84.7946 C   0  0  0  0  0  0  0  0  0  0  0  0
   -0.3643   63.2840   85.6768 C   0  0  0  0  0  0  0  0  0  0  0  0
    0.3714   64.3839   85.2229 C   0  0  0  0  0  0  0  0  0  0  0  0
    3.9141   67.9168   84.5152 N   0  0  0  0  0  0  0  0  0  0  0  0
    3.5358   68.5023   85.2529 H   0  0  0  0  0  0  0  0  0  0  0  0
    6.1825   65.2510   88.2582 Cl  0  0  0  0  0  0  0  0  0  0  0  0
    6.2091   65.9773   86.6973 C   0  0  0  0  0  0  0  0  0  0  0  0
    7.3671   65.9160   85.9283 C   0  0  0  0  0  0  0  0  0  0  0  0
    7.3876   66.5224   84.6755 C   0  0  0  0  0  0  0  0  0  0  0  0
    6.2473   67.1747   84.1957 C   0  0  0  0  0  0  0  0  0  0  0  0
    5.0622   67.2115   84.9431 C   0  0  0  0  0  0  0  0  0  0  0  0
    5.0698   66.6283   86.2188 C   0  0  0  0  0  0  0  0  0  0  0  0
 19 20  1  0  0  0
 20 21  1  0  0  0
 21 22  2  0  0  0
 22 23  1  0  0  0
 23 24  2  0  0  0
 24 17  1  0  0  0
 17  1  1  0  0  0
  1  2  1  0  0  0
  2  3  2  0  0  0
  3 11  1  0  0  0
 11 12  2  0  0  0
 12 13  1  0  0  0
 13 14  2  0  0  0
 14 15  1  0  0  0
 15 16  2  0  0  0
  3  4  1  0  0  0
  4  5  2  0  0  0
  5  6  1  0  0  0
  6  7  2  0  0  0
  7  8  1  0  0  0
  8  9  2  0  0  0
  9 10  1  0  0  0
 24 25  1  0  0  0
 25 20  2  0  0  0
 10  1  2  0  0  0
 16 11  1  0  0  0
 10  5  1  0  0  0
 17 18  1  0  0  0
M  END
> <minimizedAffinity>
-10.09699

$$$$



 25 28  0  0  0  0  0  0  0  0999 V2000
   -0.1776   63.3791   84.0028 C   0  0  0  0  0  0  0  0  0  0  0  0
   -0.7803   62.8185   82.9405 N   0  0  0  0  0  0  0  0  0  0  0  0
   -1.9139   62.1326   83.1505 C   0  0  0  0  0  0  0  0  0  0  0  0
   -2.4875   61.9678   84.3540 N   0  0  0  0  0  0  0  0  0  0  0  0
   -1.8927   62.5353   85.4055 C   0  0  0  0  0  0  0  0  0  0  0  0
   -2.4753   62.3828   86.6580 C   0  0  0  0  0  0  0  0  0  0  0  0
   -1.9210   62.9530   87.8071 C   0  0  0  0  0  0  0  0  0  0  0  0
   -0.7566   63.7013   87.7106 C   0  0  0  0  0  0  0  0  0  0  0  0
   -0.1529   63.8665   86.4660 C   0  0  0  0  0  0  0  0  0  0  0  0
   -0.7106   63.2770   85.3007 C   0  0  0  0  0  0  0  0  0  0  0  0
   -2.5705   61.5153   81.9793 C   0  0  0  0  0  0  0  0  0  0  0  0
   -3.1637   62.3000   80.9702 C   0  0  0  0  0  0  0  0  0  0  0  0
   -3.7867   61.7189   79.8606 C   0  0  0  0  0  0  0  0  0  0  0  0
   -3.8315   60.3342   79.7332 C   0  0  0  0  0  0  0  0  0  0  0  0
   -3.2542   59.5318   80.7125 C   0  0  0  0  0  0  0  0  0  0  0  0
   -2.6318   60.1169   81.8204 C   0  0  0  0  0  0  0  0  0  0  0  0
    1.0449   64.0822   83.8148 N   0  0  0  0  0  0  0  0  0  0  0  0
    1.6902   63.4779   83.3161 H   0  0  0  0  0  0  0  0  0  0  0  0
    0.3649   67.7542   80.3053 Cl  0  0  0  0  0  0  0  0  0  0  0  0
    0.9709   67.2166   81.8246 C   0  0  0  0  0  0  0  0  0  0  0  0
    1.6757   68.0994   82.6369 C   0  0  0  0  0  0  0  0  0  0  0  0
    2.1796   67.6524   83.8550 C   0  0  0  0  0  0  0  0  0  0  0  0
    1.9651   66.3304   84.2576 C   0  0  0  0  0  0  0  0  0  0  0  0
    1.2245   65.4407   83.4672 C   0  0  0  0  0  0  0  0  0  0  0  0
    0.7559   65.8962   82.2259 C   0  0  0  0  0  0  0  0  0  0  0  0
 19 20  1  0  0  0
 20 21  1  0  0  0
 21 22  2  0  0  0
 22 23  1  0  0  0
 23 24  2  0  0  0
 24 17  1  0  0  0
 17  1  1  0  0  0
  1  2  1  0  0  0
  2  3  2  0  0  0
  3 11  1  0  0  0
 11 12  2  0  0  0
 12 13  1  0  0  0
 13 14  2  0  0  0
 14 15  1  0  0  0
 15 16  2  0  0  0
  3  4  1  0  0  0
  4  5  2  0  0  0
  5  6  1  0  0  0
  6  7  2  0  0  0
  7  8  1  0  0  0
  8  9  2  0  0  0
  9 10  1  0  0  0
 24 25  1  0  0  0
 25 20  2  0  0  0
 10  1  2  0  0  0
 16 11  1  0  0  0
 10  5  1  0  0  0
 17 18  1  0  0  0
M  END
> <minimizedAffinity>
-10.09506

$$$$



 25 28  0  0  0  0  0  0  0  0999 V2000
   -0.6481   63.4404   83.9737 C   0  0  0  0  0  0  0  0  0  0  0  0
   -0.0383   64.4792   83.3777 N   0  0  0  0  0  0  0  0  0  0  0  0
    0.7058   65.2935   84.1412 C   0  0  0  0  0  0  0  0  0  0  0  0
    0.8817   65.1401   85.4641 N   0  0  0  0  0  0  0  0  0  0  0  0
    0.2840   64.1011   86.0512 C   0  0  0  0  0  0  0  0  0  0  0  0
    0.4606   63.9209   87.4178 C   0  0  0  0  0  0  0  0  0  0  0  0
   -0.1227   62.8535   88.1057 C   0  0  0  0  0  0  0  0  0  0  0  0
   -0.9006   61.9341   87.4166 C   0  0  0  0  0  0  0  0  0  0  0  0
   -1.0939   62.0948   86.0464 C   0  0  0  0  0  0  0  0  0  0  0  0
   -0.5102   63.1863   85.3504 C   0  0  0  0  0  0  0  0  0  0  0  0
    1.3712   66.4361   83.4812 C   0  0  0  0  0  0  0  0  0  0  0  0
    1.2496   66.6574   82.0948 C   0  0  0  0  0  0  0  0  0  0  0  0
    1.8788   67.7375   81.4668 C   0  0  0  0  0  0  0  0  0  0  0  0
    2.6475   68.6253   82.2129 C   0  0  0  0  0  0  0  0  0  0  0  0
    2.7864   68.4343   83.5842 C   0  0  0  0  0  0  0  0  0  0  0  0
    2.1553   67.3531   84.2084 C   0  0  0  0  0  0  0  0  0  0  0  0
   -1.4723   62.5809   83.1950 N   0  0  0  0  0  0  0  0  0  0  0  0
   -2.4416   62.7564   83.4395 H   0  0  0  0  0  0  0  0  0  0  0  0
   -3.7582   61.9623   78.6503 Cl  0  0  0  0  0  0  0  0  0  0  0  0
   -2.3645   61.8838   79.6582 C   0  0  0  0  0  0  0  0  0  0  0  0
   -1.1602   61.4242   79.1345 C   0  0  0  0  0  0  0  0  0  0  0  0
   -0.0424   61.3448   79.9603 C   0  0  0  0  0  0  0  0  0  0  0  0
   -0.1335   61.7368   81.2997 C   0  0  0  0  0  0  0  0  0  0  0  0
   -1.3300   62.2375   81.8310 C   0  0  0  0  0  0  0  0  0  0  0  0
   -2.4564   62.2757   80.9957 C   0  0  0  0  0  0  0  0  0  0  0  0
 19 20  1  0  0  0
 20 21  1  0  0  0
 21 22  2  0  0  0
 22 23  1  0  0  0
 23 24  2  0  0  0
 24 17  1  0  0  0
 17  1  1  0  0  0
  1  2  1  0  0  0
  2  3  2  0  0  0
  3 11  1  0  0  0
 11 12  2  0  0  0
 12 13  1  0  0  0
 13 14  2  0  0  0
 14 15  1  0  0  0
 15 16  2  0  0  0
  3  4  1  0  0  0
  4  5  2  0  0  0
  5  6  1  0  0  0
  6  7  2  0  0  0
  7  8  1  0  0  0
  8  9  2  0  0  0
  9 10  1  0  0  0
 24 25  1  0  0  0
 25 20  2  0  0  0
 10  1  2  0  0  0
 16 11  1  0  0  0
 10  5  1  0  0  0
 17 18  1  0  0  0
M  END
> <minimizedAffinity>
-10.07656

$$$$



 25 28  0  0  0  0  0  0  0  0999 V2000
    0.8452   65.0921   84.3931 C   0  0  0  0  0  0  0  0  0  0  0  0
    0.8212   64.8357   83.0741 N   0  0  0  0  0  0  0  0  0  0  0  0
    0.2663   63.6839   82.6677 C   0  0  0  0  0  0  0  0  0  0  0  0
   -0.2672   62.7678   83.4927 N   0  0  0  0  0  0  0  0  0  0  0  0
   -0.2520   63.0304   84.8013 C   0  0  0  0  0  0  0  0  0  0  0  0
   -0.8064   62.0983   85.6703 C   0  0  0  0  0  0  0  0  0  0  0  0
   -0.8388   62.3019   87.0525 C   0  0  0  0  0  0  0  0  0  0  0  0
   -0.3100   63.4672   87.5886 C   0  0  0  0  0  0  0  0  0  0  0  0
    0.2533   64.4155   86.7378 C   0  0  0  0  0  0  0  0  0  0  0  0
    0.2961   64.2026   85.3345 C   0  0  0  0  0  0  0  0  0  0  0  0
    0.2457   63.4056   81.2166 C   0  0  0  0  0  0  0  0  0  0  0  0
    0.1622   64.4456   80.2693 C   0  0  0  0  0  0  0  0  0  0  0  0
    0.1417   64.1856   78.8949 C   0  0  0  0  0  0  0  0  0  0  0  0
    0.2044   62.8746   78.4333 C   0  0  0  0  0  0  0  0  0  0  0  0
    0.2882   61.8255   79.3436 C   0  0  0  0  0  0  0  0  0  0  0  0
    0.3088   62.0898   80.7172 C   0  0  0  0  0  0  0  0  0  0  0  0
    1.4594   66.2895   84.8552 N   0  0  0  0  0  0  0  0  0  0  0  0
    1.1990   66.4306   85.8260 H   0  0  0  0  0  0  0  0  0  0  0  0
    6.4954   65.3877   85.1511 Cl  0  0  0  0  0  0  0  0  0  0  0  0
    5.1693   66.4070   84.7422 C   0  0  0  0  0  0  0  0  0  0  0  0
    5.4096   67.6788   84.2316 C   0  0  0  0  0  0  0  0  0  0  0  0
    4.3328   68.5047   83.9217 C   0  0  0  0  0  0  0  0  0  0  0  0
    3.0244   68.0491   84.1128 C   0  0  0  0  0  0  0  0  0  0  0  0
    2.7671   66.7567   84.5904 C   0  0  0  0  0  0  0  0  0  0  0  0
    3.8630   65.9509   84.9331 C   0  0  0  0  0  0  0  0  0  0  0  0
 19 20  1  0  0  0
 20 21  1  0  0  0
 21 22  2  0  0  0
 22 23  1  0  0  0
 23 24  2  0  0  0
 24 17  1  0  0  0
 17  1  1  0  0  0
  1  2  1  0  0  0
  2  3  2  0  0  0
  3 11  1  0  0  0
 11 12  2  0  0  0
 12 13  1  0  0  0
 13 14  2  0  0  0
 14 15  1  0  0  0
 15 16  2  0  0  0
  3  4  1  0  0  0
  4  5  2  0  0  0
  5  6  1  0  0  0
  6  7  2  0  0  0
  7  8  1  0  0  0
  8  9  2  0  0  0
  9 10  1  0  0  0
 24 25  1  0  0  0
 25 20  2  0  0  0
 10  1  2  0  0  0
 16 11  1  0  0  0
 10  5  1  0  0  0
 17 18  1  0  0  0
M  END
> <minimizedAffinity>
-10.03528

$$$$



 25 28  0  0  0  0  0  0  0  0999 V2000
    3.0127   67.5892   84.4988 C   0  0  0  0  0  0  0  0  0  0  0  0
    1.9294   66.7962   84.5592 N   0  0  0  0  0  0  0  0  0  0  0  0
    2.1032   65.5231   84.9447 C   0  0  0  0  0  0  0  0  0  0  0  0
    3.2899   64.9868   85.2743 N   0  0  0  0  0  0  0  0  0  0  0  0
    4.3623   65.7799   85.2242 C   0  0  0  0  0  0  0  0  0  0  0  0
    5.5980   65.2455   85.5692 C   0  0  0  0  0  0  0  0  0  0  0  0
    6.7669   66.0111   85.5522 C   0  0  0  0  0  0  0  0  0  0  0  0
    6.7080   67.3483   85.1868 C   0  0  0  0  0  0  0  0  0  0  0  0
    5.4810   67.9061   84.8347 C   0  0  0  0  0  0  0  0  0  0  0  0
    4.2956   67.1243   84.8412 C   0  0  0  0  0  0  0  0  0  0  0  0
    0.9090   64.6547   85.0060 C   0  0  0  0  0  0  0  0  0  0  0  0
    0.4001   64.1896   86.2351 C   0  0  0  0  0  0  0  0  0  0  0  0
   -0.7296   63.3669   86.2966 C   0  0  0  0  0  0  0  0  0  0  0  0
   -1.3796   62.9881   85.1262 C   0  0  0  0  0  0  0  0  0  0  0  0
   -0.9020   63.4314   83.8968 C   0  0  0  0  0  0  0  0  0  0  0  0
    0.2279   64.2544   83.8397 C   0  0  0  0  0  0  0  0  0  0  0  0
    2.8634   68.9341   84.0590 N   0  0  0  0  0  0  0  0  0  0  0  0
    3.4834   69.5223   84.6065 H   0  0  0  0  0  0  0  0  0  0  0  0
   -0.2251   69.6088   80.0256 Cl  0  0  0  0  0  0  0  0  0  0  0  0
    1.3231   69.7148   80.7714 C   0  0  0  0  0  0  0  0  0  0  0  0
    2.4078   70.1927   80.0426 C   0  0  0  0  0  0  0  0  0  0  0  0
    3.6606   70.2572   80.6459 C   0  0  0  0  0  0  0  0  0  0  0  0
    3.8175   69.8552   81.9762 C   0  0  0  0  0  0  0  0  0  0  0  0
    2.7266   69.4077   82.7340 C   0  0  0  0  0  0  0  0  0  0  0  0
    1.4788   69.3134   82.1001 C   0  0  0  0  0  0  0  0  0  0  0  0
 19 20  1  0  0  0
 20 21  1  0  0  0
 21 22  2  0  0  0
 22 23  1  0  0  0
 23 24  2  0  0  0
 24 17  1  0  0  0
 17  1  1  0  0  0
  1  2  1  0  0  0
  2  3  2  0  0  0
  3 11  1  0  0  0
 11 12  2  0  0  0
 12 13  1  0  0  0
 13 14  2  0  0  0
 14 15  1  0  0  0
 15 16  2  0  0  0
  3  4  1  0  0  0
  4  5  2  0  0  0
  5  6  1  0  0  0
  6  7  2  0  0  0
  7  8  1  0  0  0
  8  9  2  0  0  0
  9 10  1  0  0  0
 24 25  1  0  0  0
 25 20  2  0  0  0
 10  1  2  0  0  0
 16 11  1  0  0  0
 10  5  1  0  0  0
 17 18  1  0  0  0
M  END
> <minimizedAffinity>
-9.99444

$$$$



 25 28  0  0  0  0  0  0  0  0999 V2000
    2.2777   65.1906   85.6155 C   0  0  0  0  0  0  0  0  0  0  0  0
    1.5292   65.6532   84.5997 N   0  0  0  0  0  0  0  0  0  0  0  0
    2.1386   66.3772   83.6488 C   0  0  0  0  0  0  0  0  0  0  0  0
    3.4492   66.6717   83.6445 N   0  0  0  0  0  0  0  0  0  0  0  0
    4.1922   66.2014   84.6487 C   0  0  0  0  0  0  0  0  0  0  0  0
    5.5518   66.4888   84.6577 C   0  0  0  0  0  0  0  0  0  0  0  0
    6.4000   66.0261   85.6673 C   0  0  0  0  0  0  0  0  0  0  0  0
    5.8853   65.2509   86.6965 C   0  0  0  0  0  0  0  0  0  0  0  0
    4.5249   64.9513   86.7103 C   0  0  0  0  0  0  0  0  0  0  0  0
    3.6618   65.4315   85.6901 C   0  0  0  0  0  0  0  0  0  0  0  0
    1.3100   66.8862   82.5361 C   0  0  0  0  0  0  0  0  0  0  0  0
    1.3602   68.2377   82.1401 C   0  0  0  0  0  0  0  0  0  0  0  0
    0.5767   68.7230   81.0877 C   0  0  0  0  0  0  0  0  0  0  0  0
   -0.2790   67.8652   80.4038 C   0  0  0  0  0  0  0  0  0  0  0  0
   -0.3508   66.5249   80.7704 C   0  0  0  0  0  0  0  0  0  0  0  0
    0.4347   66.0435   81.8231 C   0  0  0  0  0  0  0  0  0  0  0  0
    1.6515   64.4501   86.6565 N   0  0  0  0  0  0  0  0  0  0  0  0
    1.8506   64.9068   87.5408 H   0  0  0  0  0  0  0  0  0  0  0  0
   -2.0051   62.1243   83.9212 Cl  0  0  0  0  0  0  0  0  0  0  0  0
   -1.4205   62.7845   85.4001 C   0  0  0  0  0  0  0  0  0  0  0  0
   -2.2365   62.7798   86.5270 C   0  0  0  0  0  0  0  0  0  0  0  0
   -1.7645   63.3330   87.7140 C   0  0  0  0  0  0  0  0  0  0  0  0
   -0.4767   63.8756   87.7690 C   0  0  0  0  0  0  0  0  0  0  0  0
    0.3701   63.8531   86.6522 C   0  0  0  0  0  0  0  0  0  0  0  0
   -0.1342   63.3260   85.4540 C   0  0  0  0  0  0  0  0  0  0  0  0
 19 20  1  0  0  0
 20 21  1  0  0  0
 21 22  2  0  0  0
 22 23  1  0  0  0
 23 24  2  0  0  0
 24 17  1  0  0  0
 17  1  1  0  0  0
  1  2  1  0  0  0
  2  3  2  0  0  0
  3 11  1  0  0  0
 11 12  2  0  0  0
 12 13  1  0  0  0
 13 14  2  0  0  0
 14 15  1  0  0  0
 15 16  2  0  0  0
  3  4  1  0  0  0
  4  5  2  0  0  0
  5  6  1  0  0  0
  6  7  2  0  0  0
  7  8  1  0  0  0
  8  9  2  0  0  0
  9 10  1  0  0  0
 24 25  1  0  0  0
 25 20  2  0  0  0
 10  1  2  0  0  0
 16 11  1  0  0  0
 10  5  1  0  0  0
 17 18  1  0  0  0
M  END
> <minimizedAffinity>
-9.99353

$$$$



 25 28  0  0  0  0  0  0  0  0999 V2000
   -0.2569   63.1748   82.8639 C   0  0  0  0  0  0  0  0  0  0  0  0
   -0.9088   62.6063   81.8353 N   0  0  0  0  0  0  0  0  0  0  0  0
   -1.0090   63.3025   80.6929 C   0  0  0  0  0  0  0  0  0  0  0  0
   -0.5011   64.5323   80.5084 N   0  0  0  0  0  0  0  0  0  0  0  0
    0.1555   65.0897   81.5281 C   0  0  0  0  0  0  0  0  0  0  0  0
    0.6952   66.3585   81.3539 C   0  0  0  0  0  0  0  0  0  0  0  0
    1.4047   67.0072   82.3681 C   0  0  0  0  0  0  0  0  0  0  0  0
    1.5889   66.3767   83.5902 C   0  0  0  0  0  0  0  0  0  0  0  0
    1.0553   65.1053   83.7894 C   0  0  0  0  0  0  0  0  0  0  0  0
    0.3247   64.4517   82.7622 C   0  0  0  0  0  0  0  0  0  0  0  0
   -1.7299   62.6739   79.5664 C   0  0  0  0  0  0  0  0  0  0  0  0
   -2.8178   61.8047   79.7826 C   0  0  0  0  0  0  0  0  0  0  0  0
   -3.5019   61.2075   78.7185 C   0  0  0  0  0  0  0  0  0  0  0  0
   -3.1128   61.4660   77.4080 C   0  0  0  0  0  0  0  0  0  0  0  0
   -2.0426   62.3205   77.1615 C   0  0  0  0  0  0  0  0  0  0  0  0
   -1.3614   62.9160   78.2284 C   0  0  0  0  0  0  0  0  0  0  0  0
   -0.1660   62.4742   84.0989 N   0  0  0  0  0  0  0  0  0  0  0  0
    0.8148   62.3200   84.3099 H   0  0  0  0  0  0  0  0  0  0  0  0
   -0.1501   63.3049   89.1558 Cl  0  0  0  0  0  0  0  0  0  0  0  0
   -0.9883   63.0237   87.6783 C   0  0  0  0  0  0  0  0  0  0  0  0
   -2.3765   62.9301   87.6807 C   0  0  0  0  0  0  0  0  0  0  0  0
   -3.0462   62.6830   86.4856 C   0  0  0  0  0  0  0  0  0  0  0  0
   -2.3246   62.5436   85.2957 C   0  0  0  0  0  0  0  0  0  0  0  0
   -0.9292   62.6733   85.2721 C   0  0  0  0  0  0  0  0  0  0  0  0
   -0.2668   62.8849   86.4905 C   0  0  0  0  0  0  0  0  0  0  0  0
 19 20  1  0  0  0
 20 21  1  0  0  0
 21 22  2  0  0  0
 22 23  1  0  0  0
 23 24  2  0  0  0
 24 17  1  0  0  0
 17  1  1  0  0  0
  1  2  1  0  0  0
  2  3  2  0  0  0
  3 11  1  0  0  0
 11 12  2  0  0  0
 12 13  1  0  0  0
 13 14  2  0  0  0
 14 15  1  0  0  0
 15 16  2  0  0  0
  3  4  1  0  0  0
  4  5  2  0  0  0
  5  6  1  0  0  0
  6  7  2  0  0  0
  7  8  1  0  0  0
  8  9  2  0  0  0
  9 10  1  0  0  0
 24 25  1  0  0  0
 25 20  2  0  0  0
 10  1  2  0  0  0
 16 11  1  0  0  0
 10  5  1  0  0  0
 17 18  1  0  0  0
M  END
> <minimizedAffinity>
-9.96842

$$$$



 25 28  0  0  0  0  0  0  0  0999 V2000
    0.0924   63.0330   83.8982 C   0  0  0  0  0  0  0  0  0  0  0  0
    0.6213   64.0979   83.2716 N   0  0  0  0  0  0  0  0  0  0  0  0
    0.9057   65.1828   84.0076 C   0  0  0  0  0  0  0  0  0  0  0  0
    0.6962   65.2764   85.3311 N   0  0  0  0  0  0  0  0  0  0  0  0
    0.1813   64.2133   85.9525 C   0  0  0  0  0  0  0  0  0  0  0  0
   -0.0354   64.2879   87.3233 C   0  0  0  0  0  0  0  0  0  0  0  0
   -0.5617   63.2162   88.0494 C   0  0  0  0  0  0  0  0  0  0  0  0
   -0.8781   62.0330   87.3974 C   0  0  0  0  0  0  0  0  0  0  0  0
   -0.6718   61.9349   86.0232 C   0  0  0  0  0  0  0  0  0  0  0  0
   -0.1476   63.0284   85.2843 C   0  0  0  0  0  0  0  0  0  0  0  0
    1.4839   66.3520   83.3128 C   0  0  0  0  0  0  0  0  0  0  0  0
    1.3935   66.4951   81.9138 C   0  0  0  0  0  0  0  0  0  0  0  0
    1.9403   67.6001   81.2530 C   0  0  0  0  0  0  0  0  0  0  0  0
    2.5931   68.5921   81.9780 C   0  0  0  0  0  0  0  0  0  0  0  0
    2.6984   68.4801   83.3609 C   0  0  0  0  0  0  0  0  0  0  0  0
    2.1499   67.3736   84.0180 C   0  0  0  0  0  0  0  0  0  0  0  0
   -0.2522   61.8816   83.1368 N   0  0  0  0  0  0  0  0  0  0  0  0
   -0.3531   61.0952   83.7705 H   0  0  0  0  0  0  0  0  0  0  0  0
   -1.0147   60.3532   78.3051 Cl  0  0  0  0  0  0  0  0  0  0  0  0
   -1.5572   61.1316   79.7419 C   0  0  0  0  0  0  0  0  0  0  0  0
   -2.8217   61.7110   79.7764 C   0  0  0  0  0  0  0  0  0  0  0  0
   -3.2459   62.3557   80.9349 C   0  0  0  0  0  0  0  0  0  0  0  0
   -2.4084   62.4058   82.0538 C   0  0  0  0  0  0  0  0  0  0  0  0
   -1.1475   61.7937   82.0462 C   0  0  0  0  0  0  0  0  0  0  0  0
   -0.7201   61.1809   80.8589 C   0  0  0  0  0  0  0  0  0  0  0  0
 19 20  1  0  0  0
 20 21  1  0  0  0
 21 22  2  0  0  0
 22 23  1  0  0  0
 23 24  2  0  0  0
 24 17  1  0  0  0
 17  1  1  0  0  0
  1  2  1  0  0  0
  2  3  2  0  0  0
  3 11  1  0  0  0
 11 12  2  0  0  0
 12 13  1  0  0  0
 13 14  2  0  0  0
 14 15  1  0  0  0
 15 16  2  0  0  0
  3  4  1  0  0  0
  4  5  2  0  0  0
  5  6  1  0  0  0
  6  7  2  0  0  0
  7  8  1  0  0  0
  8  9  2  0  0  0
  9 10  1  0  0  0
 24 25  1  0  0  0
 25 20  2  0  0  0
 10  1  2  0  0  0
 16 11  1  0  0  0
 10  5  1  0  0  0
 17 18  1  0  0  0
M  END
> <minimizedAffinity>
-9.95496

$$$$
