
     RDKit          3D

 54 59  0  0  0  0  0  0  0  0999 V2000
    0.9739   -3.1204    0.6344 C   0  0  0  0  0  0  0  0  0  0  0  0
    1.4640   -1.7001    0.7971 C   0  0  0  0  0  0  0  0  0  0  0  0
    2.7195   -1.5780    1.0876 N   0  0  0  0  0  0  0  0  0  0  0  0
    3.2305   -0.3180    1.2474 N   0  0  0  0  0  0  0  0  0  0  0  0
    4.6669   -0.2280    1.4937 C   0  0  0  0  0  0  0  0  0  0  0  0
    5.4645   -0.2262    0.2095 C   0  0  0  0  0  0  0  0  0  0  0  0
    5.8657   -1.4332   -0.3811 C   0  0  0  0  0  0  0  0  0  0  0  0
    6.5887   -1.4317   -1.5750 C   0  0  0  0  0  0  0  0  0  0  0  0
    6.9107   -0.2252   -2.1941 C   0  0  0  0  0  0  0  0  0  0  0  0
    6.5058    0.9802   -1.6235 C   0  0  0  0  0  0  0  0  0  0  0  0
    5.7833    0.9806   -0.4294 C   0  0  0  0  0  0  0  0  0  0  0  0
    2.4874    0.8454    1.1248 C   0  0  0  0  0  0  0  0  0  0  0  0
    2.9670    1.9706    1.2733 O   0  0  0  0  0  0  0  0  0  0  0  0
    1.0236    0.6765    0.7959 C   0  0  0  0  0  0  0  0  0  0  0  0
    0.2800    1.8493    0.6882 N   0  0  0  0  0  0  0  0  0  0  0  0
   -0.9942    1.7799    0.4045 C   0  0  0  0  0  0  0  0  0  0  0  0
   -1.7458    3.0648    0.3128 C   0  0  0  0  0  0  0  0  0  0  0  0
   -3.1000    3.1931    0.6271 C   0  0  0  0  0  0  0  0  0  0  0  0
   -3.7178    4.4390    0.5197 C   0  0  0  0  0  0  0  0  0  0  0  0
   -2.9571    5.5210    0.1088 C   0  0  0  0  0  0  0  0  0  0  0  0
   -1.6436    5.4400   -0.1880 N   0  0  0  0  0  0  0  0  0  0  0  0
   -1.0655    4.2174   -0.0702 C   0  0  0  0  0  0  0  0  0  0  0  0
   -1.5618    0.5058    0.1969 N   0  0  0  0  0  0  0  0  0  0  0  0
   -2.8476    0.3296   -0.1633 N   0  0  0  0  0  0  0  0  0  0  0  0
   -3.0082   -0.9969   -0.2699 C   0  0  0  0  0  0  0  0  0  0  0  0
   -4.3015   -1.5856   -0.6371 C   0  0  0  0  0  0  0  0  0  0  0  0
   -5.3128   -0.7856   -1.1926 C   0  0  0  0  0  0  0  0  0  0  0  0
   -6.5472   -1.3349   -1.5494 C   0  0  0  0  0  0  0  0  0  0  0  0
   -6.7882   -2.6921   -1.3533 C   0  0  0  0  0  0  0  0  0  0  0  0
   -5.7971   -3.4996   -0.8000 C   0  0  0  0  0  0  0  0  0  0  0  0
   -4.5611   -2.9506   -0.4434 C   0  0  0  0  0  0  0  0  0  0  0  0
   -1.7825   -1.6638    0.0072 C   0  0  0  0  0  0  0  0  0  0  0  0
   -0.8617   -0.6793    0.2929 C   0  0  0  0  0  0  0  0  0  0  0  0
    0.5183   -0.5626    0.6245 C   0  0  0  0  0  0  0  0  0  0  0  0
    0.6214   -3.2784   -0.3880 H   0  0  0  0  0  0  0  0  0  0  0  0
    1.7889   -3.8278    0.8205 H   0  0  0  0  0  0  0  0  0  0  0  0
    0.1805   -3.3284    1.3566 H   0  0  0  0  0  0  0  0  0  0  0  0
    4.9667   -1.0749    2.1239 H   0  0  0  0  0  0  0  0  0  0  0  0
    4.8919    0.6764    2.0719 H   0  0  0  0  0  0  0  0  0  0  0  0
    5.6069   -2.3809    0.0863 H   0  0  0  0  0  0  0  0  0  0  0  0
    6.8964   -2.3721   -2.0241 H   0  0  0  0  0  0  0  0  0  0  0  0
    7.4717   -0.2239   -3.1247 H   0  0  0  0  0  0  0  0  0  0  0  0
    6.7477    1.9217   -2.1095 H   0  0  0  0  0  0  0  0  0  0  0  0
    5.4620    1.9289   -0.0007 H   0  0  0  0  0  0  0  0  0  0  0  0
   -3.6897    2.3476    0.9683 H   0  0  0  0  0  0  0  0  0  0  0  0
   -4.7693    4.5616    0.7556 H   0  0  0  0  0  0  0  0  0  0  0  0
   -3.3951    6.5102    0.0096 H   0  0  0  0  0  0  0  0  0  0  0  0
   -0.0036    4.1988   -0.3064 H   0  0  0  0  0  0  0  0  0  0  0  0
   -5.1441    0.2771   -1.3572 H   0  0  0  0  0  0  0  0  0  0  0  0
   -7.3177   -0.7008   -1.9806 H   0  0  0  0  0  0  0  0  0  0  0  0
   -7.7485   -3.1198   -1.6303 H   0  0  0  0  0  0  0  0  0  0  0  0
   -5.9867   -4.5586   -0.6430 H   0  0  0  0  0  0  0  0  0  0  0  0
   -3.8164   -3.6084   -0.0046 H   0  0  0  0  0  0  0  0  0  0  0  0
   -1.6192   -2.7300   -0.0263 H   0  0  0  0  0  0  0  0  0  0  0  0
  1  2  1  0
  2  3  2  0
  3  4  1  0
  4  5  1  0
  5  6  1  0
  6  7  2  0
  7  8  1  0
  8  9  2  0
  9 10  1  0
 10 11  2  0
  4 12  1  0
 12 13  2  0
 12 14  1  0
 14 15  1  0
 15 16  2  0
 16 17  1  0
 17 18  1  0
 18 19  2  0
 19 20  1  0
 20 21  2  0
 21 22  1  0
 16 23  1  0
 23 24  1  0
 24 25  2  0
 25 26  1  0
 26 27  2  0
 27 28  1  0
 28 29  2  0
 29 30  1  0
 30 31  2  0
 25 32  1  0
 32 33  2  0
 33 34  1  0
 34  2  1  0
 11  6  1  0
 34 14  2  0
 22 17  2  0
 33 23  1  0
 31 26  1  0
  1 35  1  0
  1 36  1  0
  1 37  1  0
  5 38  1  0
  5 39  1  0
  7 40  1  0
  8 41  1  0
  9 42  1  0
 10 43  1  0
 11 44  1  0
 18 45  1  0
 19 46  1  0
 20 47  1  0
 22 48  1  0
 27 49  1  0
 28 50  1  0
 29 51  1  0
 30 52  1  0
 31 53  1  0
 32 54  1  0
M  END
$$$$
