
     RDKit          3D

 69 72  0  0  0  0  0  0  0  0999 V2000
   -6.5877   -5.4850   -0.6671 C   0  0  0  0  0  0  0  0  0  0  0  0
   -6.0344   -4.8775    0.4920 O   0  0  0  0  0  0  0  0  0  0  0  0
   -5.2851   -3.7425    0.3197 C   0  0  0  0  0  0  0  0  0  0  0  0
   -5.0683   -3.1154   -0.9117 C   0  0  0  0  0  0  0  0  0  0  0  0
   -4.2899   -1.9542   -0.9928 C   0  0  0  0  0  0  0  0  0  0  0  0
   -3.7199   -1.3927    0.1564 C   0  0  0  0  0  0  0  0  0  0  0  0
   -2.8586   -0.1540    0.0690 C   0  0  0  0  0  0  0  0  0  0  0  0
   -1.4638   -0.5576    0.0271 N   0  0  0  0  0  0  0  0  0  0  0  0
   -0.5429    0.4954   -0.1372 C   0  0  0  0  0  0  0  0  0  0  0  0
   -0.9550    1.7563    0.1191 N   0  0  0  0  0  0  0  0  0  0  0  0
   -0.0710    2.7668    0.0614 C   0  0  0  0  0  0  0  0  0  0  0  0
   -0.5176    4.0452    0.2981 N   0  0  0  0  0  0  0  0  0  0  0  0
    0.4570    5.0863    0.5788 C   0  0  0  0  0  0  0  0  0  0  0  0
   -0.4094    6.2446    1.0602 C   0  0  0  0  0  0  0  0  0  0  0  0
   -1.5017    5.5355    1.8491 C   0  0  0  0  0  0  0  0  0  0  0  0
   -1.7639    4.2455    1.0460 C   0  0  1  0  0  0  0  0  0  0  0  0
   -2.9519    4.3863    0.0814 C   0  0  0  0  0  0  0  0  0  0  0  0
   -4.1646    4.6166    0.7967 O   0  0  0  0  0  0  0  0  0  0  0  0
    1.2191    2.5832   -0.2555 N   0  0  0  0  0  0  0  0  0  0  0  0
    1.6181    1.3201   -0.5058 C   0  0  0  0  0  0  0  0  0  0  0  0
    0.7826    0.2294   -0.4431 C   0  0  0  0  0  0  0  0  0  0  0  0
    1.2560   -1.1248   -0.7822 C   0  0  0  0  0  0  0  0  0  0  0  0
    0.5375   -1.8704   -1.4411 O   0  0  0  0  0  0  0  0  0  0  0  0
    2.5142   -1.4658   -0.3379 N   0  0  0  0  0  0  0  0  0  0  0  0
    3.1967   -2.6789   -0.7686 C   0  0  1  0  0  0  0  0  0  0  0  0
    3.8994   -2.4378   -2.1076 C   0  0  0  0  0  0  0  0  0  0  0  0
    5.0049   -1.3719   -2.0226 C   0  0  0  0  0  0  0  0  0  0  0  0
    5.6548   -1.2522   -0.6332 C   0  0  1  0  0  0  0  0  0  0  0  0
    4.9231   -0.2598    0.1089 O   0  0  0  0  0  0  0  0  0  0  0  0
    5.6621    0.2814    1.1995 C   0  0  0  0  0  0  0  0  0  0  0  0
    5.6262   -2.6027    0.0855 C   0  0  0  0  0  0  0  0  0  0  0  0
    4.2022   -3.1359    0.3012 C   0  0  0  0  0  0  0  0  0  0  0  0
   -3.9249   -2.0264    1.3888 C   0  0  0  0  0  0  0  0  0  0  0  0
   -4.7030   -3.1855    1.4697 C   0  0  0  0  0  0  0  0  0  0  0  0
   -4.9188   -3.9059    3.0285 Cl  0  0  0  0  0  0  0  0  0  0  0  0
   -7.1287   -6.3813   -0.3487 H   0  0  0  0  0  0  0  0  0  0  0  0
   -5.8024   -5.8002   -1.3619 H   0  0  0  0  0  0  0  0  0  0  0  0
   -7.3066   -4.8194   -1.1560 H   0  0  0  0  0  0  0  0  0  0  0  0
   -5.4877   -3.5050   -1.8335 H   0  0  0  0  0  0  0  0  0  0  0  0
   -4.1270   -1.4930   -1.9653 H   0  0  0  0  0  0  0  0  0  0  0  0
   -3.0648    0.4809    0.9405 H   0  0  0  0  0  0  0  0  0  0  0  0
   -3.1328    0.4174   -0.8276 H   0  0  0  0  0  0  0  0  0  0  0  0
   -1.2832   -1.2770   -0.6802 H   0  0  0  0  0  0  0  0  0  0  0  0
    1.1461    4.7812    1.3765 H   0  0  0  0  0  0  0  0  0  0  0  0
    1.0332    5.3664   -0.3093 H   0  0  0  0  0  0  0  0  0  0  0  0
    0.1506    6.9640    1.6640 H   0  0  0  0  0  0  0  0  0  0  0  0
   -0.8460    6.7753    0.2058 H   0  0  0  0  0  0  0  0  0  0  0  0
   -2.3886    6.1596    1.9902 H   0  0  0  0  0  0  0  0  0  0  0  0
   -1.1159    5.2737    2.8427 H   0  0  0  0  0  0  0  0  0  0  0  0
   -1.9696    3.4435    1.7675 H   0  0  0  0  0  0  0  0  0  0  0  0
   -3.0769    3.4736   -0.5108 H   0  0  0  0  0  0  0  0  0  0  0  0
   -2.7991    5.2198   -0.6132 H   0  0  0  0  0  0  0  0  0  0  0  0
   -4.8755    4.6510    0.1337 H   0  0  0  0  0  0  0  0  0  0  0  0
    2.6625    1.2285   -0.7883 H   0  0  0  0  0  0  0  0  0  0  0  0
    3.1051   -0.7704    0.1140 H   0  0  0  0  0  0  0  0  0  0  0  0
    2.4353   -3.4579   -0.8946 H   0  0  0  0  0  0  0  0  0  0  0  0
    4.3449   -3.3829   -2.4449 H   0  0  0  0  0  0  0  0  0  0  0  0
    3.1787   -2.1459   -2.8810 H   0  0  0  0  0  0  0  0  0  0  0  0
    5.7724   -1.6275   -2.7636 H   0  0  0  0  0  0  0  0  0  0  0  0
    4.5900   -0.4008   -2.3205 H   0  0  0  0  0  0  0  0  0  0  0  0
    6.6873   -0.9061   -0.7649 H   0  0  0  0  0  0  0  0  0  0  0  0
    6.5922    0.7361    0.8462 H   0  0  0  0  0  0  0  0  0  0  0  0
    5.0526    1.0590    1.6680 H   0  0  0  0  0  0  0  0  0  0  0  0
    5.8740   -0.4856    1.9485 H   0  0  0  0  0  0  0  0  0  0  0  0
    6.1941   -3.3303   -0.5087 H   0  0  0  0  0  0  0  0  0  0  0  0
    6.1282   -2.5439    1.0572 H   0  0  0  0  0  0  0  0  0  0  0  0
    3.8484   -2.8493    1.2998 H   0  0  0  0  0  0  0  0  0  0  0  0
    4.2542   -4.2321    0.3012 H   0  0  0  0  0  0  0  0  0  0  0  0
   -3.4663   -1.6170    2.2867 H   0  0  0  0  0  0  0  0  0  0  0  0
  1  2  1  0
  2  3  1  0
  3  4  1  0
  4  5  2  0
  5  6  1  0
  6  7  1  0
  7  8  1  0
  8  9  1  0
  9 10  2  0
 10 11  1  0
 11 12  1  0
 12 13  1  0
 13 14  1  0
 14 15  1  0
 15 16  1  0
 16 17  1  0
 17 18  1  0
 11 19  2  0
 19 20  1  0
 20 21  2  0
 21 22  1  0
 22 23  2  0
 22 24  1  0
 24 25  1  0
 25 26  1  0
 26 27  1  0
 27 28  1  0
 28 29  1  0
 29 30  1  0
 28 31  1  0
 31 32  1  0
  6 33  2  0
 33 34  1  0
 34 35  1  0
 34  3  2  0
 21  9  1  0
 32 25  1  0
 16 12  1  0
  1 36  1  0
  1 37  1  0
  1 38  1  0
  4 39  1  0
  5 40  1  0
  7 41  1  0
  7 42  1  0
  8 43  1  0
 13 44  1  0
 13 45  1  0
 14 46  1  0
 14 47  1  0
 15 48  1  0
 15 49  1  0
 16 50  1  1
 17 51  1  0
 17 52  1  0
 18 53  1  0
 20 54  1  0
 24 55  1  0
 25 56  1  6
 26 57  1  0
 26 58  1  0
 27 59  1  0
 27 60  1  0
 28 61  1  6
 30 62  1  0
 30 63  1  0
 30 64  1  0
 31 65  1  0
 31 66  1  0
 32 67  1  0
 32 68  1  0
 33 69  1  0
M  END
$$$$
