


 28 29  0  0  0  0  0  0  0  0999 V2000
    3.3941   66.1377   84.8253 C   0  0  0  0  0  0  0  0  0  0  0  0
    4.1129   67.1481   84.1693 C   0  0  0  0  0  0  0  0  0  0  0  0
    3.4924   67.9708   83.2253 C   0  0  0  0  0  0  0  0  0  0  0  0
    2.1438   67.7995   82.9368 C   0  0  0  0  0  0  0  0  0  0  0  0
    1.4163   66.7973   83.5698 C   0  0  0  0  0  0  0  0  0  0  0  0
    2.0251   65.9596   84.5227 C   0  0  0  0  0  0  0  0  0  0  0  0
    1.1474   64.9142   85.1502 C   0  0  0  0  0  0  0  0  0  0  0  0
    0.4899   64.0745   84.4141 N   0  0  0  0  0  0  0  0  0  0  0  0
   -0.3091   63.1303   85.0238 C   0  0  0  0  0  0  0  0  0  0  0  0
   -0.4491   63.0145   86.3610 C   0  0  0  0  0  0  0  0  0  0  0  0
    0.3060   63.9841   87.1964 C   0  0  0  0  0  0  0  0  0  0  0  0
    0.2519   63.9851   88.4220 O   0  0  0  0  0  0  0  0  0  0  0  0
    1.0652   64.8815   86.5140 N   0  0  0  0  0  0  0  0  0  0  0  0
    1.5872   65.5451   87.0712 H   0  0  0  0  0  0  0  0  0  0  0  0
   -1.0135   62.2284   84.0275 C   0  0  0  0  0  0  0  0  0  0  0  0
   -2.1168   62.9636   83.2769 C   0  0  0  0  0  0  0  0  0  0  0  0
   -1.2734   62.0031   87.1117 C   0  0  0  0  0  0  0  0  0  0  0  0
   -2.7139   62.4614   87.2898 C   0  0  0  0  0  0  0  0  0  0  0  0
    1.5225   68.5960   81.9322 N   0  0  0  0  0  0  0  0  0  0  0  0
    1.8434   69.5651   81.8796 H   0  0  0  0  0  0  0  0  0  0  0  0
    1.4818   67.9560   80.3632 S   0  0  0  0  0  0  0  0  0  0  0  0
   -0.2634   67.6940   80.1324 C   0  0  0  0  0  0  0  0  0  0  0  0
    2.1672   66.6839   80.3277 O   0  0  0  0  0  0  0  0  0  0  0  0
    1.8805   69.0480   79.4999 O   0  0  0  0  0  0  0  0  0  0  0  0
    3.9531   65.3042   85.7608 O   0  0  0  0  0  0  0  0  0  0  0  0
    5.3789   65.2132   85.8244 C   0  0  0  0  0  0  0  0  0  0  0  0
    5.5195   65.4144   88.3340 C   0  0  0  0  0  0  0  0  0  0  0  0
    5.8425   66.0660   87.0017 C   0  0  0  0  0  0  0  0  0  0  0  0
 27 28  1  0  0  0
 28 26  1  0  0  0
 26 25  1  0  0  0
 25  1  1  0  0  0
  1  2  1  0  0  0
  2  3  2  0  0  0
  3  4  1  0  0  0
  4 19  1  0  0  0
 19 21  1  0  0  0
 21 22  1  0  0  0
 21 23  2  0  0  0
 21 24  2  0  0  0
  4  5  2  0  0  0
  5  6  1  0  0  0
  6  7  1  0  0  0
  7  8  2  0  0  0
  8  9  1  0  0  0
  9 15  1  0  0  0
 15 16  1  0  0  0
  9 10  2  0  0  0
 10 17  1  0  0  0
 17 18  1  0  0  0
 10 11  1  0  0  0
 11 12  2  0  0  0
 11 13  1  0  0  0
  6  1  2  0  0  0
 13  7  1  0  0  0
 19 20  1  0  0  0
 13 14  1  0  0  0
M  END
> <minimizedAffinity>
-8.87819

$$$$



 28 29  0  0  0  0  0  0  0  0999 V2000
    3.5908   67.0714   84.4402 C   0  0  0  0  0  0  0  0  0  0  0  0
    4.2880   68.1867   83.9523 C   0  0  0  0  0  0  0  0  0  0  0  0
    3.7212   69.0168   82.9812 C   0  0  0  0  0  0  0  0  0  0  0  0
    2.4468   68.7470   82.4972 C   0  0  0  0  0  0  0  0  0  0  0  0
    1.7434   67.6408   82.9616 C   0  0  0  0  0  0  0  0  0  0  0  0
    2.2988   66.7942   83.9390 C   0  0  0  0  0  0  0  0  0  0  0  0
    1.4522   65.6319   84.3745 C   0  0  0  0  0  0  0  0  0  0  0  0
    0.9704   64.8021   83.5034 N   0  0  0  0  0  0  0  0  0  0  0  0
    0.1944   63.7485   83.9384 C   0  0  0  0  0  0  0  0  0  0  0  0
   -0.0963   63.5142   85.2353 C   0  0  0  0  0  0  0  0  0  0  0  0
    0.4577   64.4731   86.2260 C   0  0  0  0  0  0  0  0  0  0  0  0
    0.2547   64.3711   87.4315 O   0  0  0  0  0  0  0  0  0  0  0  0
    1.2076   65.4829   85.7108 N   0  0  0  0  0  0  0  0  0  0  0  0
    1.5938   66.1408   86.3752 H   0  0  0  0  0  0  0  0  0  0  0  0
   -0.2963   62.8739   82.7997 C   0  0  0  0  0  0  0  0  0  0  0  0
    0.6775   61.7436   82.4913 C   0  0  0  0  0  0  0  0  0  0  0  0
   -0.9083   62.3803   85.8018 C   0  0  0  0  0  0  0  0  0  0  0  0
   -2.4002   62.6809   85.7789 C   0  0  0  0  0  0  0  0  0  0  0  0
    1.8901   69.5553   81.4645 N   0  0  0  0  0  0  0  0  0  0  0  0
    1.3027   69.0615   80.7893 H   0  0  0  0  0  0  0  0  0  0  0  0
    1.0868   70.9680   81.9459 S   0  0  0  0  0  0  0  0  0  0  0  0
    1.5836   72.1094   80.6739 C   0  0  0  0  0  0  0  0  0  0  0  0
    1.5961   71.4190   83.2213 O   0  0  0  0  0  0  0  0  0  0  0  0
   -0.3207   70.6846   81.7572 O   0  0  0  0  0  0  0  0  0  0  0  0
    4.0990   66.2258   85.3936 O   0  0  0  0  0  0  0  0  0  0  0  0
    5.2991   66.6082   86.0710 C   0  0  0  0  0  0  0  0  0  0  0  0
    7.2377   65.9107   84.6173 C   0  0  0  0  0  0  0  0  0  0  0  0
    6.3481   65.5367   85.7890 C   0  0  0  0  0  0  0  0  0  0  0  0
 27 28  1  0  0  0
 28 26  1  0  0  0
 26 25  1  0  0  0
 25  1  1  0  0  0
  1  2  1  0  0  0
  2  3  2  0  0  0
  3  4  1  0  0  0
  4 19  1  0  0  0
 19 21  1  0  0  0
 21 22  1  0  0  0
 21 23  2  0  0  0
 21 24  2  0  0  0
  4  5  2  0  0  0
  5  6  1  0  0  0
  6  7  1  0  0  0
  7  8  2  0  0  0
  8  9  1  0  0  0
  9 15  1  0  0  0
 15 16  1  0  0  0
  9 10  2  0  0  0
 10 17  1  0  0  0
 17 18  1  0  0  0
 10 11  1  0  0  0
 11 12  2  0  0  0
 11 13  1  0  0  0
  6  1  2  0  0  0
 13  7  1  0  0  0
 19 20  1  0  0  0
 13 14  1  0  0  0
M  END
> <minimizedAffinity>
-8.69096

$$$$



 28 29  0  0  0  0  0  0  0  0999 V2000
   -2.3996   62.0681   83.6980 C   0  0  0  0  0  0  0  0  0  0  0  0
   -3.1569   60.9370   83.3587 C   0  0  0  0  0  0  0  0  0  0  0  0
   -2.9585   60.2817   82.1404 C   0  0  0  0  0  0  0  0  0  0  0  0
   -1.9924   60.7434   81.2545 C   0  0  0  0  0  0  0  0  0  0  0  0
   -1.2380   61.8687   81.5687 C   0  0  0  0  0  0  0  0  0  0  0  0
   -1.4246   62.5411   82.7909 C   0  0  0  0  0  0  0  0  0  0  0  0
   -0.5535   63.7410   83.0324 C   0  0  0  0  0  0  0  0  0  0  0  0
   -0.2375   64.5352   82.0584 N   0  0  0  0  0  0  0  0  0  0  0  0
    0.5670   65.6253   82.3157 C   0  0  0  0  0  0  0  0  0  0  0  0
    1.0502   65.9310   83.5381 C   0  0  0  0  0  0  0  0  0  0  0  0
    0.6852   65.0125   84.6476 C   0  0  0  0  0  0  0  0  0  0  0  0
    1.0713   65.1798   85.8000 O   0  0  0  0  0  0  0  0  0  0  0  0
   -0.1072   63.9627   84.3050 N   0  0  0  0  0  0  0  0  0  0  0  0
   -0.3661   63.3316   85.0521 H   0  0  0  0  0  0  0  0  0  0  0  0
    0.8487   66.4508   81.0741 C   0  0  0  0  0  0  0  0  0  0  0  0
   -0.4006   67.1618   80.5693 C   0  0  0  0  0  0  0  0  0  0  0  0
    1.9085   67.1086   83.9157 C   0  0  0  0  0  0  0  0  0  0  0  0
    3.3929   66.7881   83.8124 C   0  0  0  0  0  0  0  0  0  0  0  0
   -1.8285   60.1148   79.9866 N   0  0  0  0  0  0  0  0  0  0  0  0
   -1.5645   59.1278   80.0169 H   0  0  0  0  0  0  0  0  0  0  0  0
   -3.0899   60.3012   78.8699 S   0  0  0  0  0  0  0  0  0  0  0  0
   -2.2279   60.1055   77.3253 C   0  0  0  0  0  0  0  0  0  0  0  0
   -3.6317   61.6389   78.9513 O   0  0  0  0  0  0  0  0  0  0  0  0
   -3.9319   59.1376   79.0542 O   0  0  0  0  0  0  0  0  0  0  0  0
   -2.5522   62.7473   84.8803 O   0  0  0  0  0  0  0  0  0  0  0  0
   -2.7294   61.9906   86.0808 C   0  0  0  0  0  0  0  0  0  0  0  0
   -1.3898   63.3679   87.7139 C   0  0  0  0  0  0  0  0  0  0  0  0
   -2.7792   62.9773   87.2436 C   0  0  0  0  0  0  0  0  0  0  0  0
 27 28  1  0  0  0
 28 26  1  0  0  0
 26 25  1  0  0  0
 25  1  1  0  0  0
  1  2  1  0  0  0
  2  3  2  0  0  0
  3  4  1  0  0  0
  4 19  1  0  0  0
 19 21  1  0  0  0
 21 22  1  0  0  0
 21 23  2  0  0  0
 21 24  2  0  0  0
  4  5  2  0  0  0
  5  6  1  0  0  0
  6  7  1  0  0  0
  7  8  2  0  0  0
  8  9  1  0  0  0
  9 15  1  0  0  0
 15 16  1  0  0  0
  9 10  2  0  0  0
 10 17  1  0  0  0
 17 18  1  0  0  0
 10 11  1  0  0  0
 11 12  2  0  0  0
 11 13  1  0  0  0
  6  1  2  0  0  0
 13  7  1  0  0  0
 19 20  1  0  0  0
 13 14  1  0  0  0
M  END
> <minimizedAffinity>
-8.44435

$$$$



 28 29  0  0  0  0  0  0  0  0999 V2000
    2.1538   66.5017   83.5115 C   0  0  0  0  0  0  0  0  0  0  0  0
    2.4517   67.2555   82.3665 C   0  0  0  0  0  0  0  0  0  0  0  0
    1.7012   67.1079   81.1969 C   0  0  0  0  0  0  0  0  0  0  0  0
    0.6376   66.2141   81.1643 C   0  0  0  0  0  0  0  0  0  0  0  0
    0.3325   65.4509   82.2862 C   0  0  0  0  0  0  0  0  0  0  0  0
    1.0778   65.5864   83.4722 C   0  0  0  0  0  0  0  0  0  0  0  0
    0.6603   64.7190   84.6257 C   0  0  0  0  0  0  0  0  0  0  0  0
   -0.3966   63.9736   84.5436 N   0  0  0  0  0  0  0  0  0  0  0  0
   -0.7522   63.1927   85.6230 C   0  0  0  0  0  0  0  0  0  0  0  0
   -0.0563   63.1455   86.7783 C   0  0  0  0  0  0  0  0  0  0  0  0
    1.1518   64.0063   86.8641 C   0  0  0  0  0  0  0  0  0  0  0  0
    1.8594   64.0566   87.8649 O   0  0  0  0  0  0  0  0  0  0  0  0
    1.4267   64.7453   85.7569 N   0  0  0  0  0  0  0  0  0  0  0  0
    2.2489   65.3331   85.8009 H   0  0  0  0  0  0  0  0  0  0  0  0
   -2.0119   62.3850   85.3713 C   0  0  0  0  0  0  0  0  0  0  0  0
   -2.3061   62.2405   83.8834 C   0  0  0  0  0  0  0  0  0  0  0  0
   -0.3529   62.3070   87.9929 C   0  0  0  0  0  0  0  0  0  0  0  0
   -1.1521   63.0764   89.0350 C   0  0  0  0  0  0  0  0  0  0  0  0
   -0.0916   66.0168   79.9564 N   0  0  0  0  0  0  0  0  0  0  0  0
   -0.3591   66.8700   79.4609 H   0  0  0  0  0  0  0  0  0  0  0  0
    0.5616   64.9254   78.8362 S   0  0  0  0  0  0  0  0  0  0  0  0
   -0.6175   65.0328   77.5074 C   0  0  0  0  0  0  0  0  0  0  0  0
    0.5496   63.5869   79.3818 O   0  0  0  0  0  0  0  0  0  0  0  0
    1.7918   65.5406   78.3833 O   0  0  0  0  0  0  0  0  0  0  0  0
    2.8564   66.6087   84.6852 O   0  0  0  0  0  0  0  0  0  0  0  0
    4.2847   66.6402   84.6218 C   0  0  0  0  0  0  0  0  0  0  0  0
    5.5943   66.1091   86.7101 C   0  0  0  0  0  0  0  0  0  0  0  0
    4.8106   65.5414   85.5406 C   0  0  0  0  0  0  0  0  0  0  0  0
 27 28  1  0  0  0
 28 26  1  0  0  0
 26 25  1  0  0  0
 25  1  1  0  0  0
  1  2  1  0  0  0
  2  3  2  0  0  0
  3  4  1  0  0  0
  4 19  1  0  0  0
 19 21  1  0  0  0
 21 22  1  0  0  0
 21 23  2  0  0  0
 21 24  2  0  0  0
  4  5  2  0  0  0
  5  6  1  0  0  0
  6  7  1  0  0  0
  7  8  2  0  0  0
  8  9  1  0  0  0
  9 15  1  0  0  0
 15 16  1  0  0  0
  9 10  2  0  0  0
 10 17  1  0  0  0
 17 18  1  0  0  0
 10 11  1  0  0  0
 11 12  2  0  0  0
 11 13  1  0  0  0
  6  1  2  0  0  0
 13  7  1  0  0  0
 19 20  1  0  0  0
 13 14  1  0  0  0
M  END
> <minimizedAffinity>
-8.13920

$$$$



 28 29  0  0  0  0  0  0  0  0999 V2000
    0.2756   64.3449   85.2562 C   0  0  0  0  0  0  0  0  0  0  0  0
   -0.8273   63.5927   84.8253 C   0  0  0  0  0  0  0  0  0  0  0  0
   -0.9944   63.2761   83.4744 C   0  0  0  0  0  0  0  0  0  0  0  0
   -0.0539   63.6980   82.5424 C   0  0  0  0  0  0  0  0  0  0  0  0
    1.0414   64.4527   82.9486 C   0  0  0  0  0  0  0  0  0  0  0  0
    1.2253   64.7808   84.3047 C   0  0  0  0  0  0  0  0  0  0  0  0
    2.4444   65.5942   84.6352 C   0  0  0  0  0  0  0  0  0  0  0  0
    2.6869   66.7047   84.0127 N   0  0  0  0  0  0  0  0  0  0  0  0
    3.8172   67.4239   84.3394 C   0  0  0  0  0  0  0  0  0  0  0  0
    4.7006   67.0462   85.2871 C   0  0  0  0  0  0  0  0  0  0  0  0
    4.4158   65.7699   85.9927 C   0  0  0  0  0  0  0  0  0  0  0  0
    5.1495   65.3179   86.8658 O   0  0  0  0  0  0  0  0  0  0  0  0
    3.2837   65.1246   85.6061 N   0  0  0  0  0  0  0  0  0  0  0  0
    3.0763   64.2559   86.0814 H   0  0  0  0  0  0  0  0  0  0  0  0
    3.9604   68.6929   83.5200 C   0  0  0  0  0  0  0  0  0  0  0  0
    2.6129   69.3517   83.2529 C   0  0  0  0  0  0  0  0  0  0  0  0
    5.9407   67.7774   85.7271 C   0  0  0  0  0  0  0  0  0  0  0  0
    7.1961   67.2109   85.0793 C   0  0  0  0  0  0  0  0  0  0  0  0
   -0.2518   63.4290   81.1574 N   0  0  0  0  0  0  0  0  0  0  0  0
    0.0881   64.1500   80.5175 H   0  0  0  0  0  0  0  0  0  0  0  0
    0.2632   61.9176   80.5890 S   0  0  0  0  0  0  0  0  0  0  0  0
   -1.2825   61.0472   80.4457 C   0  0  0  0  0  0  0  0  0  0  0  0
    1.0894   61.2687   81.5818 O   0  0  0  0  0  0  0  0  0  0  0  0
    0.7541   62.1656   79.2494 O   0  0  0  0  0  0  0  0  0  0  0  0
    0.4888   64.6816   86.5690 O   0  0  0  0  0  0  0  0  0  0  0  0
   -0.2175   63.9572   87.5797 C   0  0  0  0  0  0  0  0  0  0  0  0
    0.1871   62.1054   89.2427 C   0  0  0  0  0  0  0  0  0  0  0  0
    0.8165   63.2175   88.4234 C   0  0  0  0  0  0  0  0  0  0  0  0
 27 28  1  0  0  0
 28 26  1  0  0  0
 26 25  1  0  0  0
 25  1  1  0  0  0
  1  2  1  0  0  0
  2  3  2  0  0  0
  3  4  1  0  0  0
  4 19  1  0  0  0
 19 21  1  0  0  0
 21 22  1  0  0  0
 21 23  2  0  0  0
 21 24  2  0  0  0
  4  5  2  0  0  0
  5  6  1  0  0  0
  6  7  1  0  0  0
  7  8  2  0  0  0
  8  9  1  0  0  0
  9 15  1  0  0  0
 15 16  1  0  0  0
  9 10  2  0  0  0
 10 17  1  0  0  0
 17 18  1  0  0  0
 10 11  1  0  0  0
 11 12  2  0  0  0
 11 13  1  0  0  0
  6  1  2  0  0  0
 13  7  1  0  0  0
 19 20  1  0  0  0
 13 14  1  0  0  0
M  END
> <minimizedAffinity>
-8.10683

$$$$



 28 29  0  0  0  0  0  0  0  0999 V2000
    3.7388   66.7073   84.3679 C   0  0  0  0  0  0  0  0  0  0  0  0
    4.4618   67.8685   84.0567 C   0  0  0  0  0  0  0  0  0  0  0  0
    3.8440   68.9468   83.4174 C   0  0  0  0  0  0  0  0  0  0  0  0
    2.4942   68.8797   83.0940 C   0  0  0  0  0  0  0  0  0  0  0  0
    1.7626   67.7335   83.3858 C   0  0  0  0  0  0  0  0  0  0  0  0
    2.3686   66.6382   84.0290 C   0  0  0  0  0  0  0  0  0  0  0  0
    1.4865   65.4532   84.3027 C   0  0  0  0  0  0  0  0  0  0  0  0
    1.0258   65.2332   85.4939 N   0  0  0  0  0  0  0  0  0  0  0  0
    0.2218   64.1339   85.7097 C   0  0  0  0  0  0  0  0  0  0  0  0
   -0.1307   63.2594   84.7442 C   0  0  0  0  0  0  0  0  0  0  0  0
    0.4053   63.5182   83.3828 C   0  0  0  0  0  0  0  0  0  0  0  0
    0.1632   62.7893   82.4262 O   0  0  0  0  0  0  0  0  0  0  0  0
    1.1912   64.6203   83.2603 N   0  0  0  0  0  0  0  0  0  0  0  0
    1.5597   64.8099   82.3374 H   0  0  0  0  0  0  0  0  0  0  0  0
   -0.2302   64.0139   87.1532 C   0  0  0  0  0  0  0  0  0  0  0  0
    0.8517   63.4086   88.0388 C   0  0  0  0  0  0  0  0  0  0  0  0
   -1.0209   62.0531   84.8813 C   0  0  0  0  0  0  0  0  0  0  0  0
   -2.4953   62.4201   84.7924 C   0  0  0  0  0  0  0  0  0  0  0  0
    1.8755   69.9519   82.3888 N   0  0  0  0  0  0  0  0  0  0  0  0
    2.2074   70.8873   82.6332 H   0  0  0  0  0  0  0  0  0  0  0  0
    1.8163   69.8253   80.6997 S   0  0  0  0  0  0  0  0  0  0  0  0
    0.0610   69.8089   80.4066 C   0  0  0  0  0  0  0  0  0  0  0  0
    2.3857   68.5661   80.2758 O   0  0  0  0  0  0  0  0  0  0  0  0
    2.3325   71.0859   80.2086 O   0  0  0  0  0  0  0  0  0  0  0  0
    4.2950   65.6217   84.9960 O   0  0  0  0  0  0  0  0  0  0  0  0
    5.4880   65.8162   85.7604 C   0  0  0  0  0  0  0  0  0  0  0  0
    5.5655   65.5677   88.2685 C   0  0  0  0  0  0  0  0  0  0  0  0
    5.4430   64.8471   86.9381 C   0  0  0  0  0  0  0  0  0  0  0  0
 27 28  1  0  0  0
 28 26  1  0  0  0
 26 25  1  0  0  0
 25  1  1  0  0  0
  1  2  1  0  0  0
  2  3  2  0  0  0
  3  4  1  0  0  0
  4 19  1  0  0  0
 19 21  1  0  0  0
 21 22  1  0  0  0
 21 23  2  0  0  0
 21 24  2  0  0  0
  4  5  2  0  0  0
  5  6  1  0  0  0
  6  7  1  0  0  0
  7  8  2  0  0  0
  8  9  1  0  0  0
  9 15  1  0  0  0
 15 16  1  0  0  0
  9 10  2  0  0  0
 10 17  1  0  0  0
 17 18  1  0  0  0
 10 11  1  0  0  0
 11 12  2  0  0  0
 11 13  1  0  0  0
  6  1  2  0  0  0
 13  7  1  0  0  0
 19 20  1  0  0  0
 13 14  1  0  0  0
M  END
> <minimizedAffinity>
-8.10087

$$$$



 28 29  0  0  0  0  0  0  0  0999 V2000
    1.2287   65.8492   83.1676 C   0  0  0  0  0  0  0  0  0  0  0  0
    1.3145   66.1399   81.7979 C   0  0  0  0  0  0  0  0  0  0  0  0
    0.6695   65.3365   80.8537 C   0  0  0  0  0  0  0  0  0  0  0  0
   -0.0779   64.2415   81.2703 C   0  0  0  0  0  0  0  0  0  0  0  0
   -0.1673   63.9314   82.6231 C   0  0  0  0  0  0  0  0  0  0  0  0
    0.4759   64.7293   83.5876 C   0  0  0  0  0  0  0  0  0  0  0  0
    0.3096   64.3087   85.0203 C   0  0  0  0  0  0  0  0  0  0  0  0
   -0.8358   63.8884   85.4572 N   0  0  0  0  0  0  0  0  0  0  0  0
   -0.9531   63.5139   86.7791 C   0  0  0  0  0  0  0  0  0  0  0  0
    0.0656   63.5487   87.6635 C   0  0  0  0  0  0  0  0  0  0  0  0
    1.3738   64.0354   87.1540 C   0  0  0  0  0  0  0  0  0  0  0  0
    2.3705   64.1214   87.8641 O   0  0  0  0  0  0  0  0  0  0  0  0
    1.3995   64.3867   85.8412 N   0  0  0  0  0  0  0  0  0  0  0  0
    2.2854   64.7164   85.4808 H   0  0  0  0  0  0  0  0  0  0  0  0
   -2.3542   63.0519   87.1342 C   0  0  0  0  0  0  0  0  0  0  0  0
   -2.9491   62.1590   86.0526 C   0  0  0  0  0  0  0  0  0  0  0  0
    0.0368   63.1360   89.1109 C   0  0  0  0  0  0  0  0  0  0  0  0
    0.3122   61.6492   89.2849 C   0  0  0  0  0  0  0  0  0  0  0  0
   -0.6869   63.3857   80.3078 N   0  0  0  0  0  0  0  0  0  0  0  0
   -1.1486   63.8598   79.5288 H   0  0  0  0  0  0  0  0  0  0  0  0
    0.2673   62.1306   79.6856 S   0  0  0  0  0  0  0  0  0  0  0  0
   -0.9718   61.0386   79.0226 C   0  0  0  0  0  0  0  0  0  0  0  0
    0.9712   61.4636   80.7575 O   0  0  0  0  0  0  0  0  0  0  0  0
    0.9800   62.7163   78.5695 O   0  0  0  0  0  0  0  0  0  0  0  0
    1.8399   66.6050   84.1359 O   0  0  0  0  0  0  0  0  0  0  0  0
    3.1218   67.1702   83.8484 C   0  0  0  0  0  0  0  0  0  0  0  0
    3.3897   69.4026   82.7071 C   0  0  0  0  0  0  0  0  0  0  0  0
    2.9983   68.6848   83.9860 C   0  0  0  0  0  0  0  0  0  0  0  0
 27 28  1  0  0  0
 28 26  1  0  0  0
 26 25  1  0  0  0
 25  1  1  0  0  0
  1  2  1  0  0  0
  2  3  2  0  0  0
  3  4  1  0  0  0
  4 19  1  0  0  0
 19 21  1  0  0  0
 21 22  1  0  0  0
 21 23  2  0  0  0
 21 24  2  0  0  0
  4  5  2  0  0  0
  5  6  1  0  0  0
  6  7  1  0  0  0
  7  8  2  0  0  0
  8  9  1  0  0  0
  9 15  1  0  0  0
 15 16  1  0  0  0
  9 10  2  0  0  0
 10 17  1  0  0  0
 17 18  1  0  0  0
 10 11  1  0  0  0
 11 12  2  0  0  0
 11 13  1  0  0  0
  6  1  2  0  0  0
 13  7  1  0  0  0
 19 20  1  0  0  0
 13 14  1  0  0  0
M  END
> <minimizedAffinity>
-8.07289

$$$$



 28 29  0  0  0  0  0  0  0  0999 V2000
    0.3242   64.6417   82.8090 C   0  0  0  0  0  0  0  0  0  0  0  0
    0.5386   64.8914   84.1727 C   0  0  0  0  0  0  0  0  0  0  0  0
    0.1584   63.9572   85.1400 C   0  0  0  0  0  0  0  0  0  0  0  0
   -0.4288   62.7587   84.7528 C   0  0  0  0  0  0  0  0  0  0  0  0
   -0.6584   62.4967   83.4064 C   0  0  0  0  0  0  0  0  0  0  0  0
   -0.2821   63.4261   82.4189 C   0  0  0  0  0  0  0  0  0  0  0  0
   -0.5702   63.0412   80.9955 C   0  0  0  0  0  0  0  0  0  0  0  0
   -1.7407   62.6025   80.6534 N   0  0  0  0  0  0  0  0  0  0  0  0
   -1.9688   62.2550   79.3386 C   0  0  0  0  0  0  0  0  0  0  0  0
   -1.0401   62.3501   78.3640 C   0  0  0  0  0  0  0  0  0  0  0  0
    0.2996   62.8507   78.7669 C   0  0  0  0  0  0  0  0  0  0  0  0
    1.2275   62.9717   77.9735 O   0  0  0  0  0  0  0  0  0  0  0  0
    0.4381   63.1664   80.0816 N   0  0  0  0  0  0  0  0  0  0  0  0
    1.3447   63.5119   80.3684 H   0  0  0  0  0  0  0  0  0  0  0  0
   -3.3823   61.7566   79.1018 C   0  0  0  0  0  0  0  0  0  0  0  0
   -4.1709   61.6468   80.4008 C   0  0  0  0  0  0  0  0  0  0  0  0
   -1.2067   62.0209   76.9045 C   0  0  0  0  0  0  0  0  0  0  0  0
   -0.8563   60.5706   76.6040 C   0  0  0  0  0  0  0  0  0  0  0  0
   -0.8723   61.8305   85.7384 N   0  0  0  0  0  0  0  0  0  0  0  0
   -0.1718   61.5575   86.4310 H   0  0  0  0  0  0  0  0  0  0  0  0
   -2.3141   62.2027   86.5482 S   0  0  0  0  0  0  0  0  0  0  0  0
   -1.7098   63.1392   87.9357 C   0  0  0  0  0  0  0  0  0  0  0  0
   -2.9435   60.9916   87.0238 O   0  0  0  0  0  0  0  0  0  0  0  0
   -3.0138   63.1181   85.6711 O   0  0  0  0  0  0  0  0  0  0  0  0
    0.6795   65.5226   81.8189 O   0  0  0  0  0  0  0  0  0  0  0  0
    1.6989   66.4854   82.0997 C   0  0  0  0  0  0  0  0  0  0  0  0
    1.7566   66.4504   79.5791 C   0  0  0  0  0  0  0  0  0  0  0  0
    1.9292   67.2961   80.8277 C   0  0  0  0  0  0  0  0  0  0  0  0
 27 28  1  0  0  0
 28 26  1  0  0  0
 26 25  1  0  0  0
 25  1  1  0  0  0
  1  2  1  0  0  0
  2  3  2  0  0  0
  3  4  1  0  0  0
  4 19  1  0  0  0
 19 21  1  0  0  0
 21 22  1  0  0  0
 21 23  2  0  0  0
 21 24  2  0  0  0
  4  5  2  0  0  0
  5  6  1  0  0  0
  6  7  1  0  0  0
  7  8  2  0  0  0
  8  9  1  0  0  0
  9 15  1  0  0  0
 15 16  1  0  0  0
  9 10  2  0  0  0
 10 17  1  0  0  0
 17 18  1  0  0  0
 10 11  1  0  0  0
 11 12  2  0  0  0
 11 13  1  0  0  0
  6  1  2  0  0  0
 13  7  1  0  0  0
 19 20  1  0  0  0
 13 14  1  0  0  0
M  END
> <minimizedAffinity>
-8.02869

$$$$



 28 29  0  0  0  0  0  0  0  0999 V2000
   -0.4783   63.2560   80.0919 C   0  0  0  0  0  0  0  0  0  0  0  0
   -0.2279   63.8268   78.8352 C   0  0  0  0  0  0  0  0  0  0  0  0
   -0.0166   65.2019   78.7027 C   0  0  0  0  0  0  0  0  0  0  0  0
   -0.0413   66.0183   79.8270 C   0  0  0  0  0  0  0  0  0  0  0  0
   -0.2972   65.4726   81.0804 C   0  0  0  0  0  0  0  0  0  0  0  0
   -0.5125   64.0901   81.2322 C   0  0  0  0  0  0  0  0  0  0  0  0
   -0.7741   63.6048   82.6298 C   0  0  0  0  0  0  0  0  0  0  0  0
   -0.1190   64.0968   83.6339 N   0  0  0  0  0  0  0  0  0  0  0  0
   -0.3824   63.6253   84.9026 C   0  0  0  0  0  0  0  0  0  0  0  0
   -1.2995   62.6736   85.1754 C   0  0  0  0  0  0  0  0  0  0  0  0
   -2.0429   62.1132   84.0173 C   0  0  0  0  0  0  0  0  0  0  0  0
   -2.8933   61.2372   84.1374 O   0  0  0  0  0  0  0  0  0  0  0  0
   -1.7181   62.6321   82.8037 N   0  0  0  0  0  0  0  0  0  0  0  0
   -2.2197   62.2616   82.0071 H   0  0  0  0  0  0  0  0  0  0  0  0
    0.4685   64.2964   85.9648 C   0  0  0  0  0  0  0  0  0  0  0  0
    1.4639   65.2776   85.3587 C   0  0  0  0  0  0  0  0  0  0  0  0
   -1.6713   62.1195   86.5248 C   0  0  0  0  0  0  0  0  0  0  0  0
   -2.7116   62.9804   87.2272 C   0  0  0  0  0  0  0  0  0  0  0  0
    0.1138   67.4277   79.6888 N   0  0  0  0  0  0  0  0  0  0  0  0
   -0.6575   67.9918   80.0517 H   0  0  0  0  0  0  0  0  0  0  0  0
    1.5730   68.0954   80.2343 S   0  0  0  0  0  0  0  0  0  0  0  0
    1.0562   68.8972   81.7368 C   0  0  0  0  0  0  0  0  0  0  0  0
    2.0453   69.0896   79.2974 O   0  0  0  0  0  0  0  0  0  0  0  0
    2.3934   66.9601   80.6015 O   0  0  0  0  0  0  0  0  0  0  0  0
   -0.6903   61.9133   80.2785 O   0  0  0  0  0  0  0  0  0  0  0  0
   -1.4500   61.2025   79.2972 C   0  0  0  0  0  0  0  0  0  0  0  0
   -3.5826   61.9809   78.1997 C   0  0  0  0  0  0  0  0  0  0  0  0
   -2.9180   61.5659   79.4998 C   0  0  0  0  0  0  0  0  0  0  0  0
 27 28  1  0  0  0
 28 26  1  0  0  0
 26 25  1  0  0  0
 25  1  1  0  0  0
  1  2  1  0  0  0
  2  3  2  0  0  0
  3  4  1  0  0  0
  4 19  1  0  0  0
 19 21  1  0  0  0
 21 22  1  0  0  0
 21 23  2  0  0  0
 21 24  2  0  0  0
  4  5  2  0  0  0
  5  6  1  0  0  0
  6  7  1  0  0  0
  7  8  2  0  0  0
  8  9  1  0  0  0
  9 15  1  0  0  0
 15 16  1  0  0  0
  9 10  2  0  0  0
 10 17  1  0  0  0
 17 18  1  0  0  0
 10 11  1  0  0  0
 11 12  2  0  0  0
 11 13  1  0  0  0
  6  1  2  0  0  0
 13  7  1  0  0  0
 19 20  1  0  0  0
 13 14  1  0  0  0
M  END
> <minimizedAffinity>
-7.99838

$$$$
