


 48 51  0  0  0  0  0  0  0  0999 V2000
    3.8922   66.7225   84.7371 C   0  0  0  0  0  0  0  0  0  0  0  0
    4.7837   67.7301   84.3412 C   0  0  0  0  0  0  0  0  0  0  0  0
    4.4356   68.6207   83.3257 C   0  0  0  0  0  0  0  0  0  0  0  0
    3.1876   68.5095   82.7116 C   0  0  0  0  0  0  0  0  0  0  0  0
    2.2742   67.5356   83.1204 C   0  0  0  0  0  0  0  0  0  0  0  0
    2.6167   66.6340   84.1431 C   0  0  0  0  0  0  0  0  0  0  0  0
    1.5940   65.6014   84.5171 C   0  0  0  0  0  0  0  0  0  0  0  0
    0.8683   65.0522   83.5849 N   0  0  0  0  0  0  0  0  0  0  0  0
   -0.0574   64.1163   84.0475 C   0  0  0  0  0  0  0  0  0  0  0  0
   -0.9671   63.3878   83.2598 C   0  0  0  0  0  0  0  0  0  0  0  0
   -1.6787   62.5693   84.1452 C   0  0  0  0  0  0  0  0  0  0  0  0
   -1.2172   62.8535   85.4306 N   0  0  0  0  0  0  0  0  0  0  0  0
   -1.7485   62.2792   86.6499 C   0  0  0  0  0  0  0  0  0  0  0  0
   -0.2024   63.7765   85.3626 C   0  0  0  0  0  0  0  0  0  0  0  0
    0.6187   64.3576   86.3777 C   0  0  0  0  0  0  0  0  0  0  0  0
    0.6120   64.0803   87.5724 O   0  0  0  0  0  0  0  0  0  0  0  0
    1.4803   65.2971   85.8641 N   0  0  0  0  0  0  0  0  0  0  0  0
    2.0988   65.7355   86.5339 H   0  0  0  0  0  0  0  0  0  0  0  0
   -2.7063   61.6125   83.7875 C   0  0  0  0  0  0  0  0  0  0  0  0
   -2.4330   60.4702   83.2405 N   0  0  0  0  0  0  0  0  0  0  0  0
   -3.6261   59.7732   83.0105 O   0  0  0  0  0  0  0  0  0  0  0  0
   -3.3126   58.9542   82.5838 H   0  0  0  0  0  0  0  0  0  0  0  0
   -1.1081   63.4753   81.7702 C   0  0  0  0  0  0  0  0  0  0  0  0
    0.0706   62.8677   81.0054 C   0  0  0  0  0  0  0  0  0  0  0  0
    0.6045   61.5899   81.6390 C   0  0  0  0  0  0  0  0  0  0  0  0
    2.7619   69.6510   81.4201 S   0  0  0  0  0  0  0  0  0  0  0  0
    3.8295   70.6160   81.2690 O   0  0  0  0  0  0  0  0  0  0  0  0
    2.2869   68.8691   80.2991 O   0  0  0  0  0  0  0  0  0  0  0  0
    1.4273   70.4828   82.0933 N   0  0  0  0  0  0  0  0  0  0  0  0
    1.7207   71.8012   82.7184 C   0  0  0  0  0  0  0  0  0  0  0  0
    1.1826   72.9458   81.8694 C   0  0  0  0  0  0  0  0  0  0  0  0
   -0.3483   72.8806   81.7265 C   0  0  0  0  0  0  0  0  0  0  0  0
   -0.8390   71.4142   81.7534 C   0  0  0  0  0  0  0  0  0  0  0  0
    0.2196   70.4520   81.2256 C   0  0  0  0  0  0  0  0  0  0  0  0
   -0.8486   73.6347   80.4596 C   0  0  0  0  0  0  0  0  0  0  0  0
   -1.8584   72.8153   79.6260 C   0  0  0  0  0  0  0  0  0  0  0  0
   -2.8329   73.7000   79.0720 O   0  0  0  0  0  0  0  0  0  0  0  0
   -3.9013   73.0140   78.4462 N   0  0  0  0  0  0  0  0  0  0  0  0
   -4.9622   72.9410   79.0663 O   0  0  0  0  0  0  0  0  0  0  0  0
   -3.5961   72.5695   77.3426 O   0  0  0  0  0  0  0  0  0  0  0  0
    0.3149   73.9005   79.6581 O   0  0  0  0  0  0  0  0  0  0  0  0
    0.3027   75.1633   79.0166 N   0  0  0  0  0  0  0  0  0  0  0  0
    0.8140   75.2320   77.8993 O   0  0  0  0  0  0  0  0  0  0  0  0
   -0.2257   76.0363   79.6996 O   0  0  0  0  0  0  0  0  0  0  0  0
    4.2203   65.8470   85.7425 O   0  0  0  0  0  0  0  0  0  0  0  0
    5.5096   65.2362   85.5974 C   0  0  0  0  0  0  0  0  0  0  0  0
    5.5187   65.4993   88.1185 C   0  0  0  0  0  0  0  0  0  0  0  0
    6.3412   65.5521   86.8388 C   0  0  0  0  0  0  0  0  0  0  0  0
 47 48  1  0  0  0
 48 46  1  0  0  0
 46 45  1  0  0  0
 45  1  1  0  0  0
  1  2  1  0  0  0
  2  3  2  0  0  0
  3  4  1  0  0  0
  4 26  1  0  0  0
 26 27  2  0  0  0
 26 28  2  0  0  0
 26 29  1  0  0  0
 29 30  1  0  0  0
 30 31  1  0  0  0
 31 32  1  0  0  0
 32 35  1  0  0  0
 35 36  1  0  0  0
 36 37  1  0  0  0
 37 38  1  0  0  0
 38 39  2  0  0  0
 38 40  1  0  0  0
 35 41  1  0  0  0
 41 42  1  0  0  0
 42 43  2  0  0  0
 42 44  1  0  0  0
 32 33  1  0  0  0
 33 34  1  0  0  0
  4  5  2  0  0  0
  5  6  1  0  0  0
  6  7  1  0  0  0
  7  8  2  0  0  0
  8  9  1  0  0  0
  9 10  1  0  0  0
 10 23  1  0  0  0
 23 24  1  0  0  0
 24 25  1  0  0  0
 10 11  2  0  0  0
 11 19  1  0  0  0
 19 20  2  0  0  0
 20 21  1  0  0  0
 11 12  1  0  0  0
 12 13  1  0  0  0
 12 14  1  0  0  0
 14 15  1  0  0  0
 15 16  2  0  0  0
 15 17  1  0  0  0
  6  1  2  0  0  0
 17  7  1  0  0  0
 34 29  1  0  0  0
 14  9  2  0  0  0
 21 22  1  0  0  0
 17 18  1  0  0  0
M  CHG 1  38   1
M  CHG 1  40  -1
M  CHG 1  42   1
M  CHG 1  44  -1
M  END
> <minimizedAffinity>
-9.84490

$$$$



 48 51  0  0  0  0  0  0  0  0999 V2000
    3.7315   66.8670   84.6405 C   0  0  0  0  0  0  0  0  0  0  0  0
    4.5812   67.8962   84.2099 C   0  0  0  0  0  0  0  0  0  0  0  0
    4.2005   68.7325   83.1605 C   0  0  0  0  0  0  0  0  0  0  0  0
    2.9614   68.5452   82.5470 C   0  0  0  0  0  0  0  0  0  0  0  0
    2.0883   67.5492   82.9891 C   0  0  0  0  0  0  0  0  0  0  0  0
    2.4639   66.7020   84.0461 C   0  0  0  0  0  0  0  0  0  0  0  0
    1.4842   65.6413   84.4553 C   0  0  0  0  0  0  0  0  0  0  0  0
    0.7534   65.0601   83.5468 N   0  0  0  0  0  0  0  0  0  0  0  0
   -0.1303   64.1001   84.0412 C   0  0  0  0  0  0  0  0  0  0  0  0
   -1.0355   63.3353   83.2834 C   0  0  0  0  0  0  0  0  0  0  0  0
   -1.6985   62.5037   84.1940 C   0  0  0  0  0  0  0  0  0  0  0  0
   -1.2145   62.8152   85.4647 N   0  0  0  0  0  0  0  0  0  0  0  0
   -1.6967   62.2367   86.7023 C   0  0  0  0  0  0  0  0  0  0  0  0
   -0.2316   63.7691   85.3626 C   0  0  0  0  0  0  0  0  0  0  0  0
    0.5956   64.3861   86.3513 C   0  0  0  0  0  0  0  0  0  0  0  0
    0.6275   64.1207   87.5482 O   0  0  0  0  0  0  0  0  0  0  0  0
    1.4138   65.3472   85.8075 N   0  0  0  0  0  0  0  0  0  0  0  0
    2.0344   65.8116   86.4574 H   0  0  0  0  0  0  0  0  0  0  0  0
   -2.7036   61.5113   83.8712 C   0  0  0  0  0  0  0  0  0  0  0  0
   -2.4417   60.4633   83.1558 N   0  0  0  0  0  0  0  0  0  0  0  0
   -3.6080   59.7004   83.0136 O   0  0  0  0  0  0  0  0  0  0  0  0
   -3.3094   58.9625   82.4501 H   0  0  0  0  0  0  0  0  0  0  0  0
   -1.2162   63.4033   81.7971 C   0  0  0  0  0  0  0  0  0  0  0  0
    0.0173   62.9577   81.0078 C   0  0  0  0  0  0  0  0  0  0  0  0
    0.4101   61.5103   81.2721 C   0  0  0  0  0  0  0  0  0  0  0  0
    2.4939   69.6184   81.2121 S   0  0  0  0  0  0  0  0  0  0  0  0
    3.6110   70.4755   80.8789 O   0  0  0  0  0  0  0  0  0  0  0  0
    1.8475   68.7975   80.2110 O   0  0  0  0  0  0  0  0  0  0  0  0
    1.3033   70.6082   81.9392 N   0  0  0  0  0  0  0  0  0  0  0  0
    1.8035   71.7499   82.7525 C   0  0  0  0  0  0  0  0  0  0  0  0
    1.5555   73.0783   82.0492 C   0  0  0  0  0  0  0  0  0  0  0  0
    0.0541   73.3407   81.8365 C   0  0  0  0  0  0  0  0  0  0  0  0
   -0.7118   72.0115   81.6400 C   0  0  0  0  0  0  0  0  0  0  0  0
    0.1737   70.9318   81.0273 C   0  0  0  0  0  0  0  0  0  0  0  0
   -0.2044   74.3355   80.6671 C   0  0  0  0  0  0  0  0  0  0  0  0
   -0.3824   75.7947   81.1412 C   0  0  0  0  0  0  0  0  0  0  0  0
   -0.6948   75.7980   82.5345 O   0  0  0  0  0  0  0  0  0  0  0  0
    0.1117   76.6961   83.2738 N   0  0  0  0  0  0  0  0  0  0  0  0
   -0.4377   77.3389   84.1684 O   0  0  0  0  0  0  0  0  0  0  0  0
    1.2790   76.7077   82.8919 O   0  0  0  0  0  0  0  0  0  0  0  0
   -1.4138   73.9008   80.0227 O   0  0  0  0  0  0  0  0  0  0  0  0
   -1.7350   74.6187   78.8447 N   0  0  0  0  0  0  0  0  0  0  0  0
   -2.8488   75.1391   78.7888 O   0  0  0  0  0  0  0  0  0  0  0  0
   -0.8259   74.6056   78.0194 O   0  0  0  0  0  0  0  0  0  0  0  0
    4.0917   66.0446   85.6792 O   0  0  0  0  0  0  0  0  0  0  0  0
    5.3401   65.3650   85.4899 C   0  0  0  0  0  0  0  0  0  0  0  0
    5.5061   65.5271   88.0141 C   0  0  0  0  0  0  0  0  0  0  0  0
    6.2412   65.6582   86.6877 C   0  0  0  0  0  0  0  0  0  0  0  0
 47 48  1  0  0  0
 48 46  1  0  0  0
 46 45  1  0  0  0
 45  1  1  0  0  0
  1  2  1  0  0  0
  2  3  2  0  0  0
  3  4  1  0  0  0
  4 26  1  0  0  0
 26 27  2  0  0  0
 26 28  2  0  0  0
 26 29  1  0  0  0
 29 30  1  0  0  0
 30 31  1  0  0  0
 31 32  1  0  0  0
 32 35  1  0  0  0
 35 36  1  0  0  0
 36 37  1  0  0  0
 37 38  1  0  0  0
 38 39  2  0  0  0
 38 40  1  0  0  0
 35 41  1  0  0  0
 41 42  1  0  0  0
 42 43  2  0  0  0
 42 44  1  0  0  0
 32 33  1  0  0  0
 33 34  1  0  0  0
  4  5  2  0  0  0
  5  6  1  0  0  0
  6  7  1  0  0  0
  7  8  2  0  0  0
  8  9  1  0  0  0
  9 10  1  0  0  0
 10 23  1  0  0  0
 23 24  1  0  0  0
 24 25  1  0  0  0
 10 11  2  0  0  0
 11 19  1  0  0  0
 19 20  2  0  0  0
 20 21  1  0  0  0
 11 12  1  0  0  0
 12 13  1  0  0  0
 12 14  1  0  0  0
 14 15  1  0  0  0
 15 16  2  0  0  0
 15 17  1  0  0  0
  6  1  2  0  0  0
 17  7  1  0  0  0
 34 29  1  0  0  0
 14  9  2  0  0  0
 21 22  1  0  0  0
 17 18  1  0  0  0
M  CHG 1  38   1
M  CHG 1  40  -1
M  CHG 1  42   1
M  CHG 1  44  -1
M  END
> <minimizedAffinity>
-9.74009

$$$$



 48 51  0  0  0  0  0  0  0  0999 V2000
    3.7342   66.9095   84.4213 C   0  0  0  0  0  0  0  0  0  0  0  0
    4.5340   67.9831   84.0039 C   0  0  0  0  0  0  0  0  0  0  0  0
    4.0180   68.9557   83.1475 C   0  0  0  0  0  0  0  0  0  0  0  0
    2.6946   68.8595   82.7158 C   0  0  0  0  0  0  0  0  0  0  0  0
    1.8745   67.8172   83.1526 C   0  0  0  0  0  0  0  0  0  0  0  0
    2.3862   66.8329   84.0158 C   0  0  0  0  0  0  0  0  0  0  0  0
    1.4540   65.7316   84.4285 C   0  0  0  0  0  0  0  0  0  0  0  0
    0.6701   65.1900   83.5400 N   0  0  0  0  0  0  0  0  0  0  0  0
   -0.1620   64.1860   84.0369 C   0  0  0  0  0  0  0  0  0  0  0  0
   -1.1065   63.4491   83.2998 C   0  0  0  0  0  0  0  0  0  0  0  0
   -1.6912   62.5535   84.2033 C   0  0  0  0  0  0  0  0  0  0  0  0
   -1.1238   62.8003   85.4536 N   0  0  0  0  0  0  0  0  0  0  0  0
   -1.5090   62.1419   86.6853 C   0  0  0  0  0  0  0  0  0  0  0  0
   -0.1652   63.7773   85.3402 C   0  0  0  0  0  0  0  0  0  0  0  0
    0.7200   64.3518   86.3040 C   0  0  0  0  0  0  0  0  0  0  0  0
    0.8399   64.0183   87.4781 O   0  0  0  0  0  0  0  0  0  0  0  0
    1.4832   65.3584   85.7626 N   0  0  0  0  0  0  0  0  0  0  0  0
    2.1409   65.7963   86.3943 H   0  0  0  0  0  0  0  0  0  0  0  0
   -2.7013   61.5623   83.8928 C   0  0  0  0  0  0  0  0  0  0  0  0
   -2.4452   60.5054   83.1885 N   0  0  0  0  0  0  0  0  0  0  0  0
   -3.6152   59.7463   83.0563 O   0  0  0  0  0  0  0  0  0  0  0  0
   -3.3208   59.0009   82.5005 H   0  0  0  0  0  0  0  0  0  0  0  0
   -1.3922   63.5995   81.8361 C   0  0  0  0  0  0  0  0  0  0  0  0
   -0.2317   63.1669   80.9365 C   0  0  0  0  0  0  0  0  0  0  0  0
    0.2738   61.7627   81.2402 C   0  0  0  0  0  0  0  0  0  0  0  0
    2.0551   70.1058   81.6250 S   0  0  0  0  0  0  0  0  0  0  0  0
    2.3463   69.7340   80.2572 O   0  0  0  0  0  0  0  0  0  0  0  0
    0.7054   70.3987   82.0565 O   0  0  0  0  0  0  0  0  0  0  0  0
    3.0380   71.4555   81.9966 N   0  0  0  0  0  0  0  0  0  0  0  0
    3.6218   72.1838   80.8373 C   0  0  0  0  0  0  0  0  0  0  0  0
    2.9526   73.5385   80.6435 C   0  0  0  0  0  0  0  0  0  0  0  0
    3.1572   74.4564   81.8618 C   0  0  0  0  0  0  0  0  0  0  0  0
    3.2483   73.6265   83.1637 C   0  0  0  0  0  0  0  0  0  0  0  0
    2.4650   72.3222   83.0610 C   0  0  0  0  0  0  0  0  0  0  0  0
    2.0603   75.5575   81.9534 C   0  0  0  0  0  0  0  0  0  0  0  0
    2.5302   76.8192   82.7103 C   0  0  0  0  0  0  0  0  0  0  0  0
    1.6475   77.0619   83.8063 O   0  0  0  0  0  0  0  0  0  0  0  0
    2.3273   77.1663   85.0434 N   0  0  0  0  0  0  0  0  0  0  0  0
    1.7444   77.7493   85.9576 O   0  0  0  0  0  0  0  0  0  0  0  0
    3.4414   76.6498   85.0159 O   0  0  0  0  0  0  0  0  0  0  0  0
    0.9535   74.9717   82.6596 O   0  0  0  0  0  0  0  0  0  0  0  0
   -0.2039   74.7764   81.8667 N   0  0  0  0  0  0  0  0  0  0  0  0
   -0.7531   75.7810   81.4155 O   0  0  0  0  0  0  0  0  0  0  0  0
   -0.5049   73.5914   81.7520 O   0  0  0  0  0  0  0  0  0  0  0  0
    4.2286   65.9522   85.2724 O   0  0  0  0  0  0  0  0  0  0  0  0
    5.6460   65.7546   85.1808 C   0  0  0  0  0  0  0  0  0  0  0  0
    5.1444   65.2250   87.6084 C   0  0  0  0  0  0  0  0  0  0  0  0
    6.2103   65.6111   86.5927 C   0  0  0  0  0  0  0  0  0  0  0  0
 47 48  1  0  0  0
 48 46  1  0  0  0
 46 45  1  0  0  0
 45  1  1  0  0  0
  1  2  1  0  0  0
  2  3  2  0  0  0
  3  4  1  0  0  0
  4 26  1  0  0  0
 26 27  2  0  0  0
 26 28  2  0  0  0
 26 29  1  0  0  0
 29 30  1  0  0  0
 30 31  1  0  0  0
 31 32  1  0  0  0
 32 35  1  0  0  0
 35 36  1  0  0  0
 36 37  1  0  0  0
 37 38  1  0  0  0
 38 39  2  0  0  0
 38 40  1  0  0  0
 35 41  1  0  0  0
 41 42  1  0  0  0
 42 43  2  0  0  0
 42 44  1  0  0  0
 32 33  1  0  0  0
 33 34  1  0  0  0
  4  5  2  0  0  0
  5  6  1  0  0  0
  6  7  1  0  0  0
  7  8  2  0  0  0
  8  9  1  0  0  0
  9 10  1  0  0  0
 10 23  1  0  0  0
 23 24  1  0  0  0
 24 25  1  0  0  0
 10 11  2  0  0  0
 11 19  1  0  0  0
 19 20  2  0  0  0
 20 21  1  0  0  0
 11 12  1  0  0  0
 12 13  1  0  0  0
 12 14  1  0  0  0
 14 15  1  0  0  0
 15 16  2  0  0  0
 15 17  1  0  0  0
  6  1  2  0  0  0
 17  7  1  0  0  0
 34 29  1  0  0  0
 14  9  2  0  0  0
 21 22  1  0  0  0
 17 18  1  0  0  0
M  CHG 1  38   1
M  CHG 1  40  -1
M  CHG 1  42   1
M  CHG 1  44  -1
M  END
> <minimizedAffinity>
-9.67430

$$$$



 48 51  0  0  0  0  0  0  0  0999 V2000
    0.7371   64.8710   84.1300 C   0  0  0  0  0  0  0  0  0  0  0  0
    1.3782   66.0082   84.6421 C   0  0  0  0  0  0  0  0  0  0  0  0
    1.7284   67.0611   83.7969 C   0  0  0  0  0  0  0  0  0  0  0  0
    1.4269   66.9805   82.4369 C   0  0  0  0  0  0  0  0  0  0  0  0
    0.7552   65.8715   81.9184 C   0  0  0  0  0  0  0  0  0  0  0  0
    0.3984   64.8060   82.7631 C   0  0  0  0  0  0  0  0  0  0  0  0
   -0.3035   63.6382   82.1339 C   0  0  0  0  0  0  0  0  0  0  0  0
   -0.0770   63.3535   80.8829 N   0  0  0  0  0  0  0  0  0  0  0  0
   -0.7921   62.2570   80.3998 C   0  0  0  0  0  0  0  0  0  0  0  0
   -0.7434   61.7445   79.0908 C   0  0  0  0  0  0  0  0  0  0  0  0
   -1.6088   60.6442   79.0721 C   0  0  0  0  0  0  0  0  0  0  0  0
   -2.1828   60.5497   80.3401 N   0  0  0  0  0  0  0  0  0  0  0  0
   -3.1990   59.5907   80.7227 C   0  0  0  0  0  0  0  0  0  0  0  0
   -1.6551   61.5184   81.1583 C   0  0  0  0  0  0  0  0  0  0  0  0
   -1.8751   61.8146   82.5390 C   0  0  0  0  0  0  0  0  0  0  0  0
   -2.5778   61.1822   83.3204 O   0  0  0  0  0  0  0  0  0  0  0  0
   -1.1741   62.9257   82.9426 N   0  0  0  0  0  0  0  0  0  0  0  0
   -1.2788   63.1787   83.9165 H   0  0  0  0  0  0  0  0  0  0  0  0
   -1.8620   59.7740   77.9416 C   0  0  0  0  0  0  0  0  0  0  0  0
   -1.3176   58.6036   77.8293 N   0  0  0  0  0  0  0  0  0  0  0  0
   -1.7486   58.0085   76.6366 O   0  0  0  0  0  0  0  0  0  0  0  0
   -1.2702   57.1586   76.6406 H   0  0  0  0  0  0  0  0  0  0  0  0
    0.0940   62.2774   77.9676 C   0  0  0  0  0  0  0  0  0  0  0  0
   -0.6485   63.2643   77.0632 C   0  0  0  0  0  0  0  0  0  0  0  0
   -0.4697   64.7171   77.4835 C   0  0  0  0  0  0  0  0  0  0  0  0
    1.8812   68.3294   81.3758 S   0  0  0  0  0  0  0  0  0  0  0  0
    3.2696   68.6665   81.6049 O   0  0  0  0  0  0  0  0  0  0  0  0
    1.3894   68.0152   80.0518 O   0  0  0  0  0  0  0  0  0  0  0  0
    0.9442   69.6169   82.0006 N   0  0  0  0  0  0  0  0  0  0  0  0
    1.6857   70.6673   82.7502 C   0  0  0  0  0  0  0  0  0  0  0  0
    1.7623   71.9632   81.9531 C   0  0  0  0  0  0  0  0  0  0  0  0
    0.3658   72.5495   81.6799 C   0  0  0  0  0  0  0  0  0  0  0  0
   -0.6855   71.4226   81.5502 C   0  0  0  0  0  0  0  0  0  0  0  0
   -0.0675   70.1266   81.0367 C   0  0  0  0  0  0  0  0  0  0  0  0
    0.3607   73.4909   80.4399 C   0  0  0  0  0  0  0  0  0  0  0  0
    1.3493   74.6705   80.5705 C   0  0  0  0  0  0  0  0  0  0  0  0
    2.3751   74.5308   79.5870 O   0  0  0  0  0  0  0  0  0  0  0  0
    3.6627   74.3848   80.1566 N   0  0  0  0  0  0  0  0  0  0  0  0
    3.8559   74.9126   81.2518 O   0  0  0  0  0  0  0  0  0  0  0  0
    4.4252   73.7386   79.4427 O   0  0  0  0  0  0  0  0  0  0  0  0
   -0.9757   74.0090   80.3278 O   0  0  0  0  0  0  0  0  0  0  0  0
   -1.5710   73.8114   79.0577 N   0  0  0  0  0  0  0  0  0  0  0  0
   -2.4796   72.9846   78.9847 O   0  0  0  0  0  0  0  0  0  0  0  0
   -1.0666   74.5116   78.1842 O   0  0  0  0  0  0  0  0  0  0  0  0
    0.3786   63.8334   84.9545 O   0  0  0  0  0  0  0  0  0  0  0  0
    0.6069   64.0797   86.3486 C   0  0  0  0  0  0  0  0  0  0  0  0
   -0.2212   63.2695   88.6032 C   0  0  0  0  0  0  0  0  0  0  0  0
   -0.5700   63.5164   87.1423 C   0  0  0  0  0  0  0  0  0  0  0  0
 47 48  1  0  0  0
 48 46  1  0  0  0
 46 45  1  0  0  0
 45  1  1  0  0  0
  1  2  1  0  0  0
  2  3  2  0  0  0
  3  4  1  0  0  0
  4 26  1  0  0  0
 26 27  2  0  0  0
 26 28  2  0  0  0
 26 29  1  0  0  0
 29 30  1  0  0  0
 30 31  1  0  0  0
 31 32  1  0  0  0
 32 35  1  0  0  0
 35 36  1  0  0  0
 36 37  1  0  0  0
 37 38  1  0  0  0
 38 39  2  0  0  0
 38 40  1  0  0  0
 35 41  1  0  0  0
 41 42  1  0  0  0
 42 43  2  0  0  0
 42 44  1  0  0  0
 32 33  1  0  0  0
 33 34  1  0  0  0
  4  5  2  0  0  0
  5  6  1  0  0  0
  6  7  1  0  0  0
  7  8  2  0  0  0
  8  9  1  0  0  0
  9 10  1  0  0  0
 10 23  1  0  0  0
 23 24  1  0  0  0
 24 25  1  0  0  0
 10 11  2  0  0  0
 11 19  1  0  0  0
 19 20  2  0  0  0
 20 21  1  0  0  0
 11 12  1  0  0  0
 12 13  1  0  0  0
 12 14  1  0  0  0
 14 15  1  0  0  0
 15 16  2  0  0  0
 15 17  1  0  0  0
  6  1  2  0  0  0
 17  7  1  0  0  0
 34 29  1  0  0  0
 14  9  2  0  0  0
 21 22  1  0  0  0
 17 18  1  0  0  0
M  CHG 1  38   1
M  CHG 1  40  -1
M  CHG 1  42   1
M  CHG 1  44  -1
M  END
> <minimizedAffinity>
-9.62484

$$$$



 48 51  0  0  0  0  0  0  0  0999 V2000
    3.6726   67.0899   84.3935 C   0  0  0  0  0  0  0  0  0  0  0  0
    4.4629   68.1525   83.9320 C   0  0  0  0  0  0  0  0  0  0  0  0
    4.0049   68.9779   82.9051 C   0  0  0  0  0  0  0  0  0  0  0  0
    2.7479   68.7460   82.3454 C   0  0  0  0  0  0  0  0  0  0  0  0
    1.9336   67.7156   82.8198 C   0  0  0  0  0  0  0  0  0  0  0  0
    2.3872   66.8791   83.8544 C   0  0  0  0  0  0  0  0  0  0  0  0
    1.4674   65.7802   84.3001 C   0  0  0  0  0  0  0  0  0  0  0  0
    0.6995   65.1942   83.4260 N   0  0  0  0  0  0  0  0  0  0  0  0
   -0.1223   64.1973   83.9530 C   0  0  0  0  0  0  0  0  0  0  0  0
   -1.0494   63.4194   83.2361 C   0  0  0  0  0  0  0  0  0  0  0  0
   -1.6290   62.5495   84.1675 C   0  0  0  0  0  0  0  0  0  0  0  0
   -1.0765   62.8511   85.4125 N   0  0  0  0  0  0  0  0  0  0  0  0
   -1.4631   62.2335   86.6646 C   0  0  0  0  0  0  0  0  0  0  0  0
   -0.1312   63.8374   85.2707 C   0  0  0  0  0  0  0  0  0  0  0  0
    0.7368   64.4605   86.2197 C   0  0  0  0  0  0  0  0  0  0  0  0
    0.8510   64.1729   87.4064 O   0  0  0  0  0  0  0  0  0  0  0  0
    1.4901   65.4575   85.6474 N   0  0  0  0  0  0  0  0  0  0  0  0
    2.1356   65.9284   86.2678 H   0  0  0  0  0  0  0  0  0  0  0  0
   -2.6217   61.5325   83.8858 C   0  0  0  0  0  0  0  0  0  0  0  0
   -2.3834   60.5246   83.1073 N   0  0  0  0  0  0  0  0  0  0  0  0
   -3.5297   59.7233   83.0284 O   0  0  0  0  0  0  0  0  0  0  0  0
   -3.2531   59.0204   82.4114 H   0  0  0  0  0  0  0  0  0  0  0  0
   -1.3241   63.5108   81.7655 C   0  0  0  0  0  0  0  0  0  0  0  0
   -0.1317   63.1119   80.8923 C   0  0  0  0  0  0  0  0  0  0  0  0
    0.4372   61.7427   81.2400 C   0  0  0  0  0  0  0  0  0  0  0  0
    2.1817   69.8059   81.0385 S   0  0  0  0  0  0  0  0  0  0  0  0
    3.2781   70.6395   80.5951 O   0  0  0  0  0  0  0  0  0  0  0  0
    1.4383   68.9804   80.1114 O   0  0  0  0  0  0  0  0  0  0  0  0
    1.0740   70.8262   81.8498 N   0  0  0  0  0  0  0  0  0  0  0  0
    1.6639   71.8561   82.7478 C   0  0  0  0  0  0  0  0  0  0  0  0
    1.5223   73.2517   82.1538 C   0  0  0  0  0  0  0  0  0  0  0  0
    0.0465   73.6486   81.9726 C   0  0  0  0  0  0  0  0  0  0  0  0
   -0.8229   72.4043   81.6763 C   0  0  0  0  0  0  0  0  0  0  0  0
   -0.0265   71.3100   80.9740 C   0  0  0  0  0  0  0  0  0  0  0  0
   -0.1323   74.7508   80.8876 C   0  0  0  0  0  0  0  0  0  0  0  0
    0.8524   74.6038   79.7067 C   0  0  0  0  0  0  0  0  0  0  0  0
    1.6576   75.7801   79.6212 O   0  0  0  0  0  0  0  0  0  0  0  0
    2.9959   75.5013   79.2539 N   0  0  0  0  0  0  0  0  0  0  0  0
    3.6853   76.4501   78.8798 O   0  0  0  0  0  0  0  0  0  0  0  0
    3.2764   74.3100   79.3576 O   0  0  0  0  0  0  0  0  0  0  0  0
    0.1047   76.0086   81.5422 O   0  0  0  0  0  0  0  0  0  0  0  0
   -1.0730   76.6883   81.9389 N   0  0  0  0  0  0  0  0  0  0  0  0
   -1.3374   76.7017   83.1407 O   0  0  0  0  0  0  0  0  0  0  0  0
   -1.6835   77.1716   80.9894 O   0  0  0  0  0  0  0  0  0  0  0  0
    4.1091   66.2776   85.4107 O   0  0  0  0  0  0  0  0  0  0  0  0
    5.3784   66.6519   85.9631 C   0  0  0  0  0  0  0  0  0  0  0  0
    7.4070   65.8540   84.6694 C   0  0  0  0  0  0  0  0  0  0  0  0
    6.3676   65.5123   85.7275 C   0  0  0  0  0  0  0  0  0  0  0  0
 47 48  1  0  0  0
 48 46  1  0  0  0
 46 45  1  0  0  0
 45  1  1  0  0  0
  1  2  1  0  0  0
  2  3  2  0  0  0
  3  4  1  0  0  0
  4 26  1  0  0  0
 26 27  2  0  0  0
 26 28  2  0  0  0
 26 29  1  0  0  0
 29 30  1  0  0  0
 30 31  1  0  0  0
 31 32  1  0  0  0
 32 35  1  0  0  0
 35 36  1  0  0  0
 36 37  1  0  0  0
 37 38  1  0  0  0
 38 39  2  0  0  0
 38 40  1  0  0  0
 35 41  1  0  0  0
 41 42  1  0  0  0
 42 43  2  0  0  0
 42 44  1  0  0  0
 32 33  1  0  0  0
 33 34  1  0  0  0
  4  5  2  0  0  0
  5  6  1  0  0  0
  6  7  1  0  0  0
  7  8  2  0  0  0
  8  9  1  0  0  0
  9 10  1  0  0  0
 10 23  1  0  0  0
 23 24  1  0  0  0
 24 25  1  0  0  0
 10 11  2  0  0  0
 11 19  1  0  0  0
 19 20  2  0  0  0
 20 21  1  0  0  0
 11 12  1  0  0  0
 12 13  1  0  0  0
 12 14  1  0  0  0
 14 15  1  0  0  0
 15 16  2  0  0  0
 15 17  1  0  0  0
  6  1  2  0  0  0
 17  7  1  0  0  0
 34 29  1  0  0  0
 14  9  2  0  0  0
 21 22  1  0  0  0
 17 18  1  0  0  0
M  CHG 1  38   1
M  CHG 1  40  -1
M  CHG 1  42   1
M  CHG 1  44  -1
M  END
> <minimizedAffinity>
-9.56390

$$$$



 48 51  0  0  0  0  0  0  0  0999 V2000
    0.7993   65.0048   83.6655 C   0  0  0  0  0  0  0  0  0  0  0  0
    1.4268   66.1731   84.1217 C   0  0  0  0  0  0  0  0  0  0  0  0
    1.5847   67.2671   83.2710 C   0  0  0  0  0  0  0  0  0  0  0  0
    1.1041   67.1959   81.9630 C   0  0  0  0  0  0  0  0  0  0  0  0
    0.4437   66.0538   81.5055 C   0  0  0  0  0  0  0  0  0  0  0  0
    0.2800   64.9467   82.3562 C   0  0  0  0  0  0  0  0  0  0  0  0
   -0.4216   63.7463   81.7913 C   0  0  0  0  0  0  0  0  0  0  0  0
   -0.2038   63.4009   80.5542 N   0  0  0  0  0  0  0  0  0  0  0  0
   -0.9177   62.2789   80.1319 C   0  0  0  0  0  0  0  0  0  0  0  0
   -0.8771   61.7023   78.8494 C   0  0  0  0  0  0  0  0  0  0  0  0
   -1.7378   60.5989   78.8923 C   0  0  0  0  0  0  0  0  0  0  0  0
   -2.3012   60.5650   80.1681 N   0  0  0  0  0  0  0  0  0  0  0  0
   -3.3100   59.6220   80.6060 C   0  0  0  0  0  0  0  0  0  0  0  0
   -1.7714   61.5752   80.9330 C   0  0  0  0  0  0  0  0  0  0  0  0
   -1.9817   61.9386   82.2991 C   0  0  0  0  0  0  0  0  0  0  0  0
   -2.6754   61.3428   83.1165 O   0  0  0  0  0  0  0  0  0  0  0  0
   -1.2826   63.0711   82.6415 N   0  0  0  0  0  0  0  0  0  0  0  0
   -1.3807   63.3717   83.6024 H   0  0  0  0  0  0  0  0  0  0  0  0
   -1.9959   59.6727   77.8085 C   0  0  0  0  0  0  0  0  0  0  0  0
   -1.3098   58.5860   77.6440 N   0  0  0  0  0  0  0  0  0  0  0  0
   -1.7886   57.9060   76.5167 O   0  0  0  0  0  0  0  0  0  0  0  0
   -1.1987   57.1306   76.4723 H   0  0  0  0  0  0  0  0  0  0  0  0
   -0.0511   62.1823   77.6945 C   0  0  0  0  0  0  0  0  0  0  0  0
   -0.7828   63.1745   76.7870 C   0  0  0  0  0  0  0  0  0  0  0  0
   -0.5223   64.6296   77.1531 C   0  0  0  0  0  0  0  0  0  0  0  0
    1.3150   68.5974   80.8938 S   0  0  0  0  0  0  0  0  0  0  0  0
    2.0750   68.1961   79.7297 O   0  0  0  0  0  0  0  0  0  0  0  0
    0.0229   69.2365   80.7681 O   0  0  0  0  0  0  0  0  0  0  0  0
    2.3255   69.6173   81.8237 N   0  0  0  0  0  0  0  0  0  0  0  0
    3.5844   70.0691   81.1710 C   0  0  0  0  0  0  0  0  0  0  0  0
    3.5167   71.5465   80.8059 C   0  0  0  0  0  0  0  0  0  0  0  0
    3.3470   72.4355   82.0506 C   0  0  0  0  0  0  0  0  0  0  0  0
    2.5436   71.6964   83.1461 C   0  0  0  0  0  0  0  0  0  0  0  0
    1.5778   70.6774   82.5513 C   0  0  0  0  0  0  0  0  0  0  0  0
    2.7148   73.8146   81.7007 C   0  0  0  0  0  0  0  0  0  0  0  0
    3.7388   74.9709   81.7116 C   0  0  0  0  0  0  0  0  0  0  0  0
    4.7127   74.7223   82.7260 O   0  0  0  0  0  0  0  0  0  0  0  0
    4.9022   75.8307   83.5857 N   0  0  0  0  0  0  0  0  0  0  0  0
    4.9665   76.9432   83.0625 O   0  0  0  0  0  0  0  0  0  0  0  0
    4.9873   75.5042   84.7667 O   0  0  0  0  0  0  0  0  0  0  0  0
    1.7113   74.0672   82.6988 O   0  0  0  0  0  0  0  0  0  0  0  0
    0.4520   74.4476   82.1736 N   0  0  0  0  0  0  0  0  0  0  0  0
   -0.2594   73.5544   81.7147 O   0  0  0  0  0  0  0  0  0  0  0  0
    0.2543   75.6573   82.2467 O   0  0  0  0  0  0  0  0  0  0  0  0
    0.6293   63.9259   84.4974 O   0  0  0  0  0  0  0  0  0  0  0  0
    0.6986   64.2399   85.8949 C   0  0  0  0  0  0  0  0  0  0  0  0
   -0.7554   62.1734   86.0972 C   0  0  0  0  0  0  0  0  0  0  0  0
   -0.4863   63.5842   86.6011 C   0  0  0  0  0  0  0  0  0  0  0  0
 47 48  1  0  0  0
 48 46  1  0  0  0
 46 45  1  0  0  0
 45  1  1  0  0  0
  1  2  1  0  0  0
  2  3  2  0  0  0
  3  4  1  0  0  0
  4 26  1  0  0  0
 26 27  2  0  0  0
 26 28  2  0  0  0
 26 29  1  0  0  0
 29 30  1  0  0  0
 30 31  1  0  0  0
 31 32  1  0  0  0
 32 35  1  0  0  0
 35 36  1  0  0  0
 36 37  1  0  0  0
 37 38  1  0  0  0
 38 39  2  0  0  0
 38 40  1  0  0  0
 35 41  1  0  0  0
 41 42  1  0  0  0
 42 43  2  0  0  0
 42 44  1  0  0  0
 32 33  1  0  0  0
 33 34  1  0  0  0
  4  5  2  0  0  0
  5  6  1  0  0  0
  6  7  1  0  0  0
  7  8  2  0  0  0
  8  9  1  0  0  0
  9 10  1  0  0  0
 10 23  1  0  0  0
 23 24  1  0  0  0
 24 25  1  0  0  0
 10 11  2  0  0  0
 11 19  1  0  0  0
 19 20  2  0  0  0
 20 21  1  0  0  0
 11 12  1  0  0  0
 12 13  1  0  0  0
 12 14  1  0  0  0
 14 15  1  0  0  0
 15 16  2  0  0  0
 15 17  1  0  0  0
  6  1  2  0  0  0
 17  7  1  0  0  0
 34 29  1  0  0  0
 14  9  2  0  0  0
 21 22  1  0  0  0
 17 18  1  0  0  0
M  CHG 1  38   1
M  CHG 1  40  -1
M  CHG 1  42   1
M  CHG 1  44  -1
M  END
> <minimizedAffinity>
-9.52732

$$$$



 48 51  0  0  0  0  0  0  0  0999 V2000
    1.1178   65.5092   82.7197 C   0  0  0  0  0  0  0  0  0  0  0  0
    1.6168   66.6460   83.3718 C   0  0  0  0  0  0  0  0  0  0  0  0
    1.7269   67.8583   82.6908 C   0  0  0  0  0  0  0  0  0  0  0  0
    1.3267   67.9361   81.3563 C   0  0  0  0  0  0  0  0  0  0  0  0
    0.7927   66.8227   80.7044 C   0  0  0  0  0  0  0  0  0  0  0  0
    0.6780   65.5971   81.3832 C   0  0  0  0  0  0  0  0  0  0  0  0
    0.1139   64.4382   80.6144 C   0  0  0  0  0  0  0  0  0  0  0  0
   -0.9101   63.7903   81.0929 N   0  0  0  0  0  0  0  0  0  0  0  0
   -1.3424   62.7250   80.3022 C   0  0  0  0  0  0  0  0  0  0  0  0
   -2.4136   61.8592   80.5879 C   0  0  0  0  0  0  0  0  0  0  0  0
   -2.4837   60.9613   79.5160 C   0  0  0  0  0  0  0  0  0  0  0  0
   -1.4401   61.2764   78.6455 N   0  0  0  0  0  0  0  0  0  0  0  0
   -1.1076   60.5368   77.4450 C   0  0  0  0  0  0  0  0  0  0  0  0
   -0.7651   62.3768   79.1143 C   0  0  0  0  0  0  0  0  0  0  0  0
    0.3373   63.1112   78.5775 C   0  0  0  0  0  0  0  0  0  0  0  0
    0.8869   62.9213   77.4977 O   0  0  0  0  0  0  0  0  0  0  0  0
    0.7393   64.1202   79.4196 N   0  0  0  0  0  0  0  0  0  0  0  0
    1.5095   64.6857   79.0876 H   0  0  0  0  0  0  0  0  0  0  0  0
   -3.4568   59.9007   79.3507 C   0  0  0  0  0  0  0  0  0  0  0  0
   -3.4261   58.8129   80.0539 N   0  0  0  0  0  0  0  0  0  0  0  0
   -4.4858   57.9835   79.6646 O   0  0  0  0  0  0  0  0  0  0  0  0
   -4.3573   57.1987   80.2291 H   0  0  0  0  0  0  0  0  0  0  0  0
   -3.2989   61.9233   81.7956 C   0  0  0  0  0  0  0  0  0  0  0  0
   -2.8119   61.0576   82.9604 C   0  0  0  0  0  0  0  0  0  0  0  0
   -2.2961   61.8712   84.1400 C   0  0  0  0  0  0  0  0  0  0  0  0
    1.4750   69.4869   80.5049 S   0  0  0  0  0  0  0  0  0  0  0  0
    2.2661   69.2974   79.3083 O   0  0  0  0  0  0  0  0  0  0  0  0
    0.1529   70.0722   80.4509 O   0  0  0  0  0  0  0  0  0  0  0  0
    2.4223   70.4099   81.5898 N   0  0  0  0  0  0  0  0  0  0  0  0
    3.6624   71.0139   81.0310 C   0  0  0  0  0  0  0  0  0  0  0  0
    3.5218   72.5235   80.8823 C   0  0  0  0  0  0  0  0  0  0  0  0
    3.2942   73.2126   82.2395 C   0  0  0  0  0  0  0  0  0  0  0  0
    2.5195   72.2830   83.2026 C   0  0  0  0  0  0  0  0  0  0  0  0
    1.6136   71.3144   82.4502 C   0  0  0  0  0  0  0  0  0  0  0  0
    2.5947   74.5946   82.0821 C   0  0  0  0  0  0  0  0  0  0  0  0
    3.4392   75.7668   82.6285 C   0  0  0  0  0  0  0  0  0  0  0  0
    3.0323   76.0508   83.9675 O   0  0  0  0  0  0  0  0  0  0  0  0
    4.1277   76.2162   84.8486 N   0  0  0  0  0  0  0  0  0  0  0  0
    4.0603   77.1376   85.6622 O   0  0  0  0  0  0  0  0  0  0  0  0
    5.0182   75.3925   84.6560 O   0  0  0  0  0  0  0  0  0  0  0  0
    1.3659   74.5158   82.8242 O   0  0  0  0  0  0  0  0  0  0  0  0
    0.2191   74.9116   82.0931 N   0  0  0  0  0  0  0  0  0  0  0  0
   -0.4428   75.8448   82.5464 O   0  0  0  0  0  0  0  0  0  0  0  0
    0.0427   74.2331   81.0849 O   0  0  0  0  0  0  0  0  0  0  0  0
    0.9955   64.3135   83.3833 O   0  0  0  0  0  0  0  0  0  0  0  0
    0.0938   64.3453   84.4979 C   0  0  0  0  0  0  0  0  0  0  0  0
    0.0570   64.1249   87.0229 C   0  0  0  0  0  0  0  0  0  0  0  0
    0.9128   64.3633   85.7869 C   0  0  0  0  0  0  0  0  0  0  0  0
 47 48  1  0  0  0
 48 46  1  0  0  0
 46 45  1  0  0  0
 45  1  1  0  0  0
  1  2  1  0  0  0
  2  3  2  0  0  0
  3  4  1  0  0  0
  4 26  1  0  0  0
 26 27  2  0  0  0
 26 28  2  0  0  0
 26 29  1  0  0  0
 29 30  1  0  0  0
 30 31  1  0  0  0
 31 32  1  0  0  0
 32 35  1  0  0  0
 35 36  1  0  0  0
 36 37  1  0  0  0
 37 38  1  0  0  0
 38 39  2  0  0  0
 38 40  1  0  0  0
 35 41  1  0  0  0
 41 42  1  0  0  0
 42 43  2  0  0  0
 42 44  1  0  0  0
 32 33  1  0  0  0
 33 34  1  0  0  0
  4  5  2  0  0  0
  5  6  1  0  0  0
  6  7  1  0  0  0
  7  8  2  0  0  0
  8  9  1  0  0  0
  9 10  1  0  0  0
 10 23  1  0  0  0
 23 24  1  0  0  0
 24 25  1  0  0  0
 10 11  2  0  0  0
 11 19  1  0  0  0
 19 20  2  0  0  0
 20 21  1  0  0  0
 11 12  1  0  0  0
 12 13  1  0  0  0
 12 14  1  0  0  0
 14 15  1  0  0  0
 15 16  2  0  0  0
 15 17  1  0  0  0
  6  1  2  0  0  0
 17  7  1  0  0  0
 34 29  1  0  0  0
 14  9  2  0  0  0
 21 22  1  0  0  0
 17 18  1  0  0  0
M  CHG 1  38   1
M  CHG 1  40  -1
M  CHG 1  42   1
M  CHG 1  44  -1
M  END
> <minimizedAffinity>
-9.48329

$$$$



 48 51  0  0  0  0  0  0  0  0999 V2000
    3.7277   66.9129   84.3568 C   0  0  0  0  0  0  0  0  0  0  0  0
    4.5087   67.9889   83.9108 C   0  0  0  0  0  0  0  0  0  0  0  0
    3.9721   68.9362   83.0388 C   0  0  0  0  0  0  0  0  0  0  0  0
    2.6468   68.8122   82.6200 C   0  0  0  0  0  0  0  0  0  0  0  0
    1.8452   67.7677   83.0848 C   0  0  0  0  0  0  0  0  0  0  0  0
    2.3778   66.8088   83.9639 C   0  0  0  0  0  0  0  0  0  0  0  0
    1.4648   65.7031   84.4068 C   0  0  0  0  0  0  0  0  0  0  0  0
    0.6600   65.1528   83.5427 N   0  0  0  0  0  0  0  0  0  0  0  0
   -0.1512   64.1455   84.0665 C   0  0  0  0  0  0  0  0  0  0  0  0
   -1.1111   63.3994   83.3589 C   0  0  0  0  0  0  0  0  0  0  0  0
   -1.6643   62.5037   84.2819 C   0  0  0  0  0  0  0  0  0  0  0  0
   -1.0638   62.7592   85.5149 N   0  0  0  0  0  0  0  0  0  0  0  0
   -1.4101   62.1034   86.7594 C   0  0  0  0  0  0  0  0  0  0  0  0
   -0.1152   63.7420   85.3710 C   0  0  0  0  0  0  0  0  0  0  0  0
    0.7927   64.3262   86.3074 C   0  0  0  0  0  0  0  0  0  0  0  0
    0.9476   63.9982   87.4789 O   0  0  0  0  0  0  0  0  0  0  0  0
    1.5338   65.3355   85.7409 N   0  0  0  0  0  0  0  0  0  0  0  0
    2.2059   65.7803   86.3523 H   0  0  0  0  0  0  0  0  0  0  0  0
   -2.6761   61.5047   84.0036 C   0  0  0  0  0  0  0  0  0  0  0  0
   -2.4841   60.5348   83.1663 N   0  0  0  0  0  0  0  0  0  0  0  0
   -3.6375   59.7419   83.1086 O   0  0  0  0  0  0  0  0  0  0  0  0
   -3.3972   59.0687   82.4451 H   0  0  0  0  0  0  0  0  0  0  0  0
   -1.4386   63.5420   81.9033 C   0  0  0  0  0  0  0  0  0  0  0  0
   -0.2816   63.1660   80.9741 C   0  0  0  0  0  0  0  0  0  0  0  0
    0.2790   61.7759   81.2437 C   0  0  0  0  0  0  0  0  0  0  0  0
    1.9809   70.0264   81.5090 S   0  0  0  0  0  0  0  0  0  0  0  0
    2.4037   69.7178   80.1600 O   0  0  0  0  0  0  0  0  0  0  0  0
    0.5824   70.1890   81.8431 O   0  0  0  0  0  0  0  0  0  0  0  0
    2.8099   71.4464   81.9805 N   0  0  0  0  0  0  0  0  0  0  0  0
    3.3918   72.2645   80.8818 C   0  0  0  0  0  0  0  0  0  0  0  0
    2.6123   73.5585   80.6856 C   0  0  0  0  0  0  0  0  0  0  0  0
    2.6572   74.4485   81.9403 C   0  0  0  0  0  0  0  0  0  0  0  0
    2.7469   73.5858   83.2208 C   0  0  0  0  0  0  0  0  0  0  0  0
    2.0960   72.2200   83.0314 C   0  0  0  0  0  0  0  0  0  0  0  0
    1.4592   75.4413   81.9945 C   0  0  0  0  0  0  0  0  0  0  0  0
    0.7514   75.6118   80.6323 C   0  0  0  0  0  0  0  0  0  0  0  0
   -0.6165   75.2240   80.7652 O   0  0  0  0  0  0  0  0  0  0  0  0
   -0.9217   74.0412   80.0501 N   0  0  0  0  0  0  0  0  0  0  0  0
   -0.8660   72.9793   80.6703 O   0  0  0  0  0  0  0  0  0  0  0  0
   -1.1966   74.2580   78.8728 O   0  0  0  0  0  0  0  0  0  0  0  0
    1.9993   76.7090   82.4044 O   0  0  0  0  0  0  0  0  0  0  0  0
    1.5098   77.1741   83.6496 N   0  0  0  0  0  0  0  0  0  0  0  0
    0.4206   77.7469   83.6476 O   0  0  0  0  0  0  0  0  0  0  0  0
    2.2777   76.9380   84.5783 O   0  0  0  0  0  0  0  0  0  0  0  0
    4.2425   65.9806   85.2233 O   0  0  0  0  0  0  0  0  0  0  0  0
    5.5821   66.2524   85.6569 C   0  0  0  0  0  0  0  0  0  0  0  0
    5.5802   65.5355   88.0882 C   0  0  0  0  0  0  0  0  0  0  0  0
    5.5401   66.7050   87.1149 C   0  0  0  0  0  0  0  0  0  0  0  0
 47 48  1  0  0  0
 48 46  1  0  0  0
 46 45  1  0  0  0
 45  1  1  0  0  0
  1  2  1  0  0  0
  2  3  2  0  0  0
  3  4  1  0  0  0
  4 26  1  0  0  0
 26 27  2  0  0  0
 26 28  2  0  0  0
 26 29  1  0  0  0
 29 30  1  0  0  0
 30 31  1  0  0  0
 31 32  1  0  0  0
 32 35  1  0  0  0
 35 36  1  0  0  0
 36 37  1  0  0  0
 37 38  1  0  0  0
 38 39  2  0  0  0
 38 40  1  0  0  0
 35 41  1  0  0  0
 41 42  1  0  0  0
 42 43  2  0  0  0
 42 44  1  0  0  0
 32 33  1  0  0  0
 33 34  1  0  0  0
  4  5  2  0  0  0
  5  6  1  0  0  0
  6  7  1  0  0  0
  7  8  2  0  0  0
  8  9  1  0  0  0
  9 10  1  0  0  0
 10 23  1  0  0  0
 23 24  1  0  0  0
 24 25  1  0  0  0
 10 11  2  0  0  0
 11 19  1  0  0  0
 19 20  2  0  0  0
 20 21  1  0  0  0
 11 12  1  0  0  0
 12 13  1  0  0  0
 12 14  1  0  0  0
 14 15  1  0  0  0
 15 16  2  0  0  0
 15 17  1  0  0  0
  6  1  2  0  0  0
 17  7  1  0  0  0
 34 29  1  0  0  0
 14  9  2  0  0  0
 21 22  1  0  0  0
 17 18  1  0  0  0
M  CHG 1  38   1
M  CHG 1  40  -1
M  CHG 1  42   1
M  CHG 1  44  -1
M  END
> <minimizedAffinity>
-9.46607

$$$$



 48 51  0  0  0  0  0  0  0  0999 V2000
   -0.0047   64.1211   83.9739 C   0  0  0  0  0  0  0  0  0  0  0  0
    0.4689   64.7042   85.1581 C   0  0  0  0  0  0  0  0  0  0  0  0
    1.3465   65.7872   85.1091 C   0  0  0  0  0  0  0  0  0  0  0  0
    1.7433   66.2951   83.8716 C   0  0  0  0  0  0  0  0  0  0  0  0
    1.2511   65.7496   82.6841 C   0  0  0  0  0  0  0  0  0  0  0  0
    0.3662   64.6581   82.7243 C   0  0  0  0  0  0  0  0  0  0  0  0
   -0.1066   64.1106   81.4094 C   0  0  0  0  0  0  0  0  0  0  0  0
   -1.1468   63.3268   81.3793 N   0  0  0  0  0  0  0  0  0  0  0  0
   -1.4890   62.8672   80.1070 C   0  0  0  0  0  0  0  0  0  0  0  0
   -2.5557   62.0054   79.7939 C   0  0  0  0  0  0  0  0  0  0  0  0
   -2.5199   61.8318   78.4050 C   0  0  0  0  0  0  0  0  0  0  0  0
   -1.4214   62.5476   77.9285 N   0  0  0  0  0  0  0  0  0  0  0  0
   -0.9785   62.5688   76.5493 C   0  0  0  0  0  0  0  0  0  0  0  0
   -0.8135   63.2061   78.9692 C   0  0  0  0  0  0  0  0  0  0  0  0
    0.3070   64.0927   79.0035 C   0  0  0  0  0  0  0  0  0  0  0  0
    0.9425   64.5066   78.0397 O   0  0  0  0  0  0  0  0  0  0  0  0
    0.6166   64.4776   80.2859 N   0  0  0  0  0  0  0  0  0  0  0  0
    1.3948   65.1179   80.3743 H   0  0  0  0  0  0  0  0  0  0  0  0
   -3.4491   61.0483   77.6166 C   0  0  0  0  0  0  0  0  0  0  0  0
   -3.4000   59.7545   77.5663 N   0  0  0  0  0  0  0  0  0  0  0  0
   -4.4176   59.2880   76.7242 O   0  0  0  0  0  0  0  0  0  0  0  0
   -4.2775   58.3229   76.7394 H   0  0  0  0  0  0  0  0  0  0  0  0
   -3.5323   61.4230   80.7704 C   0  0  0  0  0  0  0  0  0  0  0  0
   -3.0694   60.1004   81.3866 C   0  0  0  0  0  0  0  0  0  0  0  0
   -3.0381   60.1244   82.9090 C   0  0  0  0  0  0  0  0  0  0  0  0
    2.8618   67.6732   83.8283 S   0  0  0  0  0  0  0  0  0  0  0  0
    2.4641   68.6387   84.8300 O   0  0  0  0  0  0  0  0  0  0  0  0
    4.2036   67.1328   83.7915 O   0  0  0  0  0  0  0  0  0  0  0  0
    2.5255   68.3686   82.3020 N   0  0  0  0  0  0  0  0  0  0  0  0
    1.1182   68.7923   82.0674 C   0  0  0  0  0  0  0  0  0  0  0  0
    0.9923   70.3104   82.0670 C   0  0  0  0  0  0  0  0  0  0  0  0
    1.8174   70.9519   80.9373 C   0  0  0  0  0  0  0  0  0  0  0  0
    3.0785   70.1095   80.6340 C   0  0  0  0  0  0  0  0  0  0  0  0
    3.5585   69.3442   81.8623 C   0  0  0  0  0  0  0  0  0  0  0  0
    2.1735   72.4359   81.2453 C   0  0  0  0  0  0  0  0  0  0  0  0
    2.1497   72.7641   82.7545 C   0  0  0  0  0  0  0  0  0  0  0  0
    3.3609   73.4340   83.1056 O   0  0  0  0  0  0  0  0  0  0  0  0
    3.1369   74.7276   83.6347 N   0  0  0  0  0  0  0  0  0  0  0  0
    2.1822   75.3612   83.1849 O   0  0  0  0  0  0  0  0  0  0  0  0
    3.9644   75.0398   84.4871 O   0  0  0  0  0  0  0  0  0  0  0  0
    1.1870   73.2388   80.5751 O   0  0  0  0  0  0  0  0  0  0  0  0
    1.7065   74.4036   79.9590 N   0  0  0  0  0  0  0  0  0  0  0  0
    2.8520   74.3414   79.5135 O   0  0  0  0  0  0  0  0  0  0  0  0
    0.9123   75.3400   79.9709 O   0  0  0  0  0  0  0  0  0  0  0  0
   -0.8768   63.0614   84.0104 O   0  0  0  0  0  0  0  0  0  0  0  0
   -1.0741   62.5026   85.3163 C   0  0  0  0  0  0  0  0  0  0  0  0
   -2.7713   63.0493   87.1180 C   0  0  0  0  0  0  0  0  0  0  0  0
   -2.5543   62.6141   85.6756 C   0  0  0  0  0  0  0  0  0  0  0  0
 47 48  1  0  0  0
 48 46  1  0  0  0
 46 45  1  0  0  0
 45  1  1  0  0  0
  1  2  1  0  0  0
  2  3  2  0  0  0
  3  4  1  0  0  0
  4 26  1  0  0  0
 26 27  2  0  0  0
 26 28  2  0  0  0
 26 29  1  0  0  0
 29 30  1  0  0  0
 30 31  1  0  0  0
 31 32  1  0  0  0
 32 35  1  0  0  0
 35 36  1  0  0  0
 36 37  1  0  0  0
 37 38  1  0  0  0
 38 39  2  0  0  0
 38 40  1  0  0  0
 35 41  1  0  0  0
 41 42  1  0  0  0
 42 43  2  0  0  0
 42 44  1  0  0  0
 32 33  1  0  0  0
 33 34  1  0  0  0
  4  5  2  0  0  0
  5  6  1  0  0  0
  6  7  1  0  0  0
  7  8  2  0  0  0
  8  9  1  0  0  0
  9 10  1  0  0  0
 10 23  1  0  0  0
 23 24  1  0  0  0
 24 25  1  0  0  0
 10 11  2  0  0  0
 11 19  1  0  0  0
 19 20  2  0  0  0
 20 21  1  0  0  0
 11 12  1  0  0  0
 12 13  1  0  0  0
 12 14  1  0  0  0
 14 15  1  0  0  0
 15 16  2  0  0  0
 15 17  1  0  0  0
  6  1  2  0  0  0
 17  7  1  0  0  0
 34 29  1  0  0  0
 14  9  2  0  0  0
 21 22  1  0  0  0
 17 18  1  0  0  0
M  CHG 1  38   1
M  CHG 1  40  -1
M  CHG 1  42   1
M  CHG 1  44  -1
M  END
> <minimizedAffinity>
-9.39793

$$$$
