
     RDKit          3D

 72 75  0  0  0  0  0  0  0  0999 V2000
    8.2552    1.7835   -0.8113 C   0  0  0  0  0  0  0  0  0  0  0  0
    7.0289    1.4763    0.0376 C   0  0  0  0  0  0  0  0  0  0  0  0
    5.9156    0.8450   -0.8095 C   0  0  0  0  0  0  0  0  0  0  0  0
    4.6677    0.4945   -0.1195 N   0  0  0  0  0  0  0  0  0  0  0  0
    3.9671    1.6634    0.4456 C   0  0  0  0  0  0  0  0  0  0  0  0
    2.5966    1.2723    1.0368 C   0  0  0  0  0  0  0  0  0  0  0  0
    2.7655    0.2082    2.0679 N   0  0  0  0  0  0  0  0  0  0  0  0
    1.4526   -0.0974    3.0891 S   0  0  0  0  0  0  0  0  0  0  0  0
    1.8548   -1.1053    4.0469 O   0  0  0  0  0  0  0  0  0  0  0  0
    0.9107    1.1703    3.5280 O   0  0  0  0  0  0  0  0  0  0  0  0
    0.2529   -0.8353    2.0295 C   0  0  0  0  0  0  0  0  0  0  0  0
    0.1281   -2.2083    1.9910 C   0  0  0  0  0  0  0  0  0  0  0  0
   -0.7838   -2.8415    1.2162 N   0  0  0  0  0  0  0  0  0  0  0  0
   -1.6133   -2.0754    0.4646 C   0  0  0  0  0  0  0  0  0  0  0  0
   -2.5557   -2.7192   -0.3103 O   0  0  0  0  0  0  0  0  0  0  0  0
   -2.3879   -4.1423   -0.4470 C   0  0  2  0  0  0  0  0  0  0  0  0
   -3.0070   -4.5144   -1.7961 C   0  0  0  0  0  0  0  0  0  0  0  0
   -3.0964   -4.8833    0.6978 C   0  0  0  0  0  0  0  0  0  0  0  0
   -2.9479   -6.2949    0.5377 O   0  0  0  0  0  0  0  0  0  0  0  0
   -3.5815   -7.0105    1.5901 C   0  0  0  0  0  0  0  0  0  0  0  0
   -1.5854   -0.6768    0.4654 C   0  0  0  0  0  0  0  0  0  0  0  0
   -2.4894    0.2001   -0.3484 C   0  0  0  0  0  0  0  0  0  0  0  0
   -2.2767    1.4877   -0.3577 N   0  0  0  0  0  0  0  0  0  0  0  0
   -3.1755    2.2127   -1.1396 C   0  0  0  0  0  0  0  0  0  0  0  0
   -3.2219    3.5665   -1.3408 C   0  0  0  0  0  0  0  0  0  0  0  0
   -2.3629    4.6632   -0.8179 C   0  0  0  0  0  0  0  0  0  0  0  0
   -2.8447    5.1558    0.5378 C   0  0  0  0  0  0  0  0  0  0  0  0
   -4.2988    3.7428   -2.1829 N   0  0  0  0  0  0  0  0  0  0  0  0
   -4.7966    4.9909   -2.7146 C   0  0  0  0  0  0  0  0  0  0  0  0
   -4.9216    2.5899   -2.5281 N   0  0  0  0  0  0  0  0  0  0  0  0
   -4.2243    1.6511   -1.8736 C   0  0  0  0  0  0  0  0  0  0  0  0
   -4.4381    0.2221   -1.8565 C   0  0  0  0  0  0  0  0  0  0  0  0
   -5.3114   -0.3943   -2.4597 O   0  0  0  0  0  0  0  0  0  0  0  0
   -3.5146   -0.4220   -1.0538 N   0  0  0  0  0  0  0  0  0  0  0  0
   -0.6276   -0.0559    1.2816 C   0  0  0  0  0  0  0  0  0  0  0  0
    3.4977   -0.9727    1.5279 C   0  0  0  0  0  0  0  0  0  0  0  0
    4.8476   -0.5330    0.9231 C   0  0  0  0  0  0  0  0  0  0  0  0
    9.0398    2.2328   -0.1943 H   0  0  0  0  0  0  0  0  0  0  0  0
    8.0106    2.4862   -1.6143 H   0  0  0  0  0  0  0  0  0  0  0  0
    8.6587    0.8714   -1.2624 H   0  0  0  0  0  0  0  0  0  0  0  0
    6.6836    2.4087    0.4965 H   0  0  0  0  0  0  0  0  0  0  0  0
    7.3285    0.8019    0.8466 H   0  0  0  0  0  0  0  0  0  0  0  0
    5.6697    1.5236   -1.6369 H   0  0  0  0  0  0  0  0  0  0  0  0
    6.3056   -0.0610   -1.2917 H   0  0  0  0  0  0  0  0  0  0  0  0
    3.8006    2.4113   -0.3386 H   0  0  0  0  0  0  0  0  0  0  0  0
    4.5669    2.1349    1.2338 H   0  0  0  0  0  0  0  0  0  0  0  0
    1.9404    0.9145    0.2356 H   0  0  0  0  0  0  0  0  0  0  0  0
    2.1473    2.1645    1.4844 H   0  0  0  0  0  0  0  0  0  0  0  0
    0.7608   -2.8651    2.5836 H   0  0  0  0  0  0  0  0  0  0  0  0
   -1.3290   -4.4276   -0.5036 H   0  0  0  0  0  0  0  0  0  0  0  0
   -2.5259   -3.9494   -2.6023 H   0  0  0  0  0  0  0  0  0  0  0  0
   -4.0713   -4.2549   -1.8237 H   0  0  0  0  0  0  0  0  0  0  0  0
   -2.8994   -5.5817   -2.0111 H   0  0  0  0  0  0  0  0  0  0  0  0
   -4.1620   -4.6210    0.7085 H   0  0  0  0  0  0  0  0  0  0  0  0
   -2.6814   -4.5817    1.6658 H   0  0  0  0  0  0  0  0  0  0  0  0
   -3.4393   -8.0800    1.4134 H   0  0  0  0  0  0  0  0  0  0  0  0
   -4.6548   -6.7983    1.6055 H   0  0  0  0  0  0  0  0  0  0  0  0
   -3.1317   -6.7526    2.5537 H   0  0  0  0  0  0  0  0  0  0  0  0
   -2.3320    5.5013   -1.5230 H   0  0  0  0  0  0  0  0  0  0  0  0
   -1.3311    4.3036   -0.7229 H   0  0  0  0  0  0  0  0  0  0  0  0
   -2.8362    4.3492    1.2790 H   0  0  0  0  0  0  0  0  0  0  0  0
   -2.1946    5.9574    0.9025 H   0  0  0  0  0  0  0  0  0  0  0  0
   -3.8661    5.5467    0.4797 H   0  0  0  0  0  0  0  0  0  0  0  0
   -4.0717    5.3648   -3.4416 H   0  0  0  0  0  0  0  0  0  0  0  0
   -4.9213    5.6982   -1.8915 H   0  0  0  0  0  0  0  0  0  0  0  0
   -5.7611    4.8216   -3.2005 H   0  0  0  0  0  0  0  0  0  0  0  0
   -3.6245   -1.4278   -1.0214 H   0  0  0  0  0  0  0  0  0  0  0  0
   -0.5679    1.0299    1.3385 H   0  0  0  0  0  0  0  0  0  0  0  0
    3.6979   -1.6915    2.3289 H   0  0  0  0  0  0  0  0  0  0  0  0
    2.8908   -1.4665    0.7603 H   0  0  0  0  0  0  0  0  0  0  0  0
    5.3339   -1.4167    0.4935 H   0  0  0  0  0  0  0  0  0  0  0  0
    5.4883   -0.1605    1.7319 H   0  0  0  0  0  0  0  0  0  0  0  0
  1  2  1  0
  2  3  1  0
  3  4  1  0
  4  5  1  0
  5  6  1  0
  6  7  1  0
  7  8  1  0
  8  9  2  0
  8 10  2  0
  8 11  1  0
 11 12  1  0
 12 13  2  0
 13 14  1  0
 14 15  1  0
 15 16  1  0
 16 17  1  0
 16 18  1  0
 18 19  1  0
 19 20  1  0
 14 21  2  0
 21 22  1  0
 22 23  2  0
 23 24  1  0
 24 25  2  0
 25 26  1  0
 26 27  1  0
 25 28  1  0
 28 29  1  0
 28 30  1  0
 30 31  2  0
 31 32  1  0
 32 33  2  0
 32 34  1  0
 21 35  1  0
  7 36  1  0
 36 37  1  0
 37  4  1  0
 35 11  2  0
 34 22  1  0
 31 24  1  0
  1 38  1  0
  1 39  1  0
  1 40  1  0
  2 41  1  0
  2 42  1  0
  3 43  1  0
  3 44  1  0
  5 45  1  0
  5 46  1  0
  6 47  1  0
  6 48  1  0
 12 49  1  0
 16 50  1  6
 17 51  1  0
 17 52  1  0
 17 53  1  0
 18 54  1  0
 18 55  1  0
 20 56  1  0
 20 57  1  0
 20 58  1  0
 26 59  1  0
 26 60  1  0
 27 61  1  0
 27 62  1  0
 27 63  1  0
 29 64  1  0
 29 65  1  0
 29 66  1  0
 34 67  1  0
 35 68  1  0
 36 69  1  0
 36 70  1  0
 37 71  1  0
 37 72  1  0
M  END
$$$$
