


 33 36  0  0  0  0  0  0  0  0999 V2000
   -0.9689   62.3905   83.6940 C   0  0  0  0  0  0  0  0  0  0  0  0
   -1.9597   61.4719   83.9386 N   0  0  0  0  0  0  0  0  0  0  0  0
   -2.5391   60.8444   82.8913 C   0  0  0  0  0  0  0  0  0  0  0  0
   -3.5007   59.9265   83.2001 O   0  0  0  0  0  0  0  0  0  0  0  0
   -2.1135   61.1834   81.5996 C   0  0  0  0  0  0  0  0  0  0  0  0
   -2.4757   60.7650   80.3728 N   0  0  0  0  0  0  0  0  0  0  0  0
   -1.6911   61.4586   79.5137 N   0  0  0  0  0  0  0  0  0  0  0  0
   -0.8371   62.3455   80.1321 C   0  0  0  0  0  0  0  0  0  0  0  0
   -1.0909   62.1726   81.4675 C   0  0  0  0  0  0  0  0  0  0  0  0
   -0.4882   62.8205   82.4868 N   0  0  0  0  0  0  0  0  0  0  0  0
   -3.4886   59.9656   84.1720 H   0  0  0  0  0  0  0  0  0  0  0  0
   -1.8423   61.2247   78.0755 C   0  0  0  0  0  0  0  0  0  0  0  0
   -0.8604   60.1738   77.5245 C   0  0  0  0  0  0  0  0  0  0  0  0
   -1.5417   58.8214   77.3502 C   0  0  0  0  0  0  0  0  0  0  0  0
   -2.6807   58.8744   76.4321 N   0  0  0  0  0  0  0  0  0  0  0  0
   -3.3870   60.1524   76.4079 C   0  0  0  0  0  0  0  0  0  0  0  0
   -3.3030   60.8953   77.7348 C   0  0  0  0  0  0  0  0  0  0  0  0
   -2.3932   58.6169   75.4885 H   0  0  0  0  0  0  0  0  0  0  0  0
    0.4716   64.1579   84.7728 C   0  0  0  0  0  0  0  0  0  0  0  0
    1.0082   64.7884   85.8473 N   0  0  0  0  0  0  0  0  0  0  0  0
    0.6721   64.3269   87.0750 C   0  0  0  0  0  0  0  0  0  0  0  0
   -0.1873   63.2611   87.2898 C   0  0  0  0  0  0  0  0  0  0  0  0
   -0.7247   62.6288   86.1676 C   0  0  0  0  0  0  0  0  0  0  0  0
   -0.3964   63.0652   84.8666 C   0  0  0  0  0  0  0  0  0  0  0  0
   -0.4901   62.8504   88.6840 C   0  0  0  0  0  0  0  0  0  0  0  0
    0.4928   61.9766   89.4177 C   0  0  0  0  0  0  0  0  0  0  0  0
   -1.5317   63.2281   89.2146 O   0  0  0  0  0  0  0  0  0  0  0  0
    0.7538   64.6548   83.5165 O   0  0  0  0  0  0  0  0  0  0  0  0
    1.1644   66.0220   83.4624 C   0  0  0  0  0  0  0  0  0  0  0  0
    0.2618   66.6383   81.1749 C   0  0  0  0  0  0  0  0  0  0  0  0
    1.5036   66.4574   82.0366 C   0  0  0  0  0  0  0  0  0  0  0  0
    0.1178   63.2542   79.4405 C   0  0  0  0  0  0  0  0  0  0  0  0
   -0.5999   64.2273   78.5177 C   0  0  0  0  0  0  0  0  0  0  0  0
 30 31  1  0  0  0
 31 29  1  0  0  0
 29 28  1  0  0  0
 28 19  1  0  0  0
 19 20  1  0  0  0
 20 21  2  0  0  0
 21 22  1  0  0  0
 22 25  1  0  0  0
 25 26  1  0  0  0
 25 27  2  0  0  0
 22 23  2  0  0  0
 23 24  1  0  0  0
 24  1  1  0  0  0
  1  2  1  0  0  0
  2  3  2  0  0  0
  3  4  1  0  0  0
  3  5  1  0  0  0
  5  6  2  0  0  0
  6  7  1  0  0  0
  7 12  1  0  0  0
 12 13  1  0  0  0
 13 14  1  0  0  0
 14 15  1  0  0  0
 15 16  1  0  0  0
 16 17  1  0  0  0
  7  8  1  0  0  0
  8 32  1  0  0  0
 32 33  1  0  0  0
  8  9  2  0  0  0
  9 10  1  0  0  0
 24 19  2  0  0  0
 10  1  2  0  0  0
  9  5  1  0  0  0
 17 12  1  0  0  0
  4 11  1  0  0  0
 15 18  1  0  0  0
M  END
> <minimizedAffinity>
-10.19821

$$$$



 33 36  0  0  0  0  0  0  0  0999 V2000
    0.7986   66.5143   81.2540 C   0  0  0  0  0  0  0  0  0  0  0  0
    1.2066   66.4077   79.9473 N   0  0  0  0  0  0  0  0  0  0  0  0
    0.7517   65.3739   79.2052 C   0  0  0  0  0  0  0  0  0  0  0  0
    1.1747   65.3353   77.9083 O   0  0  0  0  0  0  0  0  0  0  0  0
   -0.0992   64.4439   79.8184 C   0  0  0  0  0  0  0  0  0  0  0  0
   -0.7090   63.3271   79.3800 N   0  0  0  0  0  0  0  0  0  0  0  0
   -1.4122   62.8651   80.4415 N   0  0  0  0  0  0  0  0  0  0  0  0
   -1.2659   63.6269   81.5803 C   0  0  0  0  0  0  0  0  0  0  0  0
   -0.4355   64.6455   81.1924 C   0  0  0  0  0  0  0  0  0  0  0  0
   -0.0029   65.6635   81.9660 N   0  0  0  0  0  0  0  0  0  0  0  0
    1.7167   66.1420   77.8663 H   0  0  0  0  0  0  0  0  0  0  0  0
   -2.2013   61.6408   80.2853 C   0  0  0  0  0  0  0  0  0  0  0  0
   -3.6769   61.9098   79.9353 C   0  0  0  0  0  0  0  0  0  0  0  0
   -3.9333   61.7179   78.4451 C   0  0  0  0  0  0  0  0  0  0  0  0
   -3.6180   60.3645   77.9850 N   0  0  0  0  0  0  0  0  0  0  0  0
   -2.5410   59.7051   78.7186 C   0  0  0  0  0  0  0  0  0  0  0  0
   -1.5271   60.6903   79.2851 C   0  0  0  0  0  0  0  0  0  0  0  0
   -4.4532   59.7797   77.9914 H   0  0  0  0  0  0  0  0  0  0  0  0
    2.2799   67.4780   83.0539 C   0  0  0  0  0  0  0  0  0  0  0  0
    2.7939   68.5075   83.7723 N   0  0  0  0  0  0  0  0  0  0  0  0
    2.3773   69.7573   83.4596 C   0  0  0  0  0  0  0  0  0  0  0  0
    1.4694   70.0380   82.4509 C   0  0  0  0  0  0  0  0  0  0  0  0
    0.9544   68.9611   81.7277 C   0  0  0  0  0  0  0  0  0  0  0  0
    1.3486   67.6388   82.0228 C   0  0  0  0  0  0  0  0  0  0  0  0
    1.0947   71.4512   82.1927 C   0  0  0  0  0  0  0  0  0  0  0  0
    0.1988   71.7674   81.0243 C   0  0  0  0  0  0  0  0  0  0  0  0
    1.5187   72.3356   82.9325 O   0  0  0  0  0  0  0  0  0  0  0  0
    2.7409   66.2042   83.3174 O   0  0  0  0  0  0  0  0  0  0  0  0
    2.5408   65.7298   84.6499 C   0  0  0  0  0  0  0  0  0  0  0  0
    0.9230   64.4953   86.1619 C   0  0  0  0  0  0  0  0  0  0  0  0
    1.0869   65.3263   84.8971 C   0  0  0  0  0  0  0  0  0  0  0  0
   -1.8982   63.3453   82.8981 C   0  0  0  0  0  0  0  0  0  0  0  0
   -1.0476   62.4077   83.7412 C   0  0  0  0  0  0  0  0  0  0  0  0
 30 31  1  0  0  0
 31 29  1  0  0  0
 29 28  1  0  0  0
 28 19  1  0  0  0
 19 20  1  0  0  0
 20 21  2  0  0  0
 21 22  1  0  0  0
 22 25  1  0  0  0
 25 26  1  0  0  0
 25 27  2  0  0  0
 22 23  2  0  0  0
 23 24  1  0  0  0
 24  1  1  0  0  0
  1  2  1  0  0  0
  2  3  2  0  0  0
  3  4  1  0  0  0
  3  5  1  0  0  0
  5  6  2  0  0  0
  6  7  1  0  0  0
  7 12  1  0  0  0
 12 13  1  0  0  0
 13 14  1  0  0  0
 14 15  1  0  0  0
 15 16  1  0  0  0
 16 17  1  0  0  0
  7  8  1  0  0  0
  8 32  1  0  0  0
 32 33  1  0  0  0
  8  9  2  0  0  0
  9 10  1  0  0  0
 24 19  2  0  0  0
 10  1  2  0  0  0
  9  5  1  0  0  0
 17 12  1  0  0  0
  4 11  1  0  0  0
 15 18  1  0  0  0
M  END
> <minimizedAffinity>
-9.79517

$$$$



 33 36  0  0  0  0  0  0  0  0999 V2000
    1.2226   65.9232   82.0685 C   0  0  0  0  0  0  0  0  0  0  0  0
    1.0732   66.2305   80.7386 N   0  0  0  0  0  0  0  0  0  0  0  0
    0.3618   65.3925   79.9524 C   0  0  0  0  0  0  0  0  0  0  0  0
    0.2299   65.7640   78.6458 O   0  0  0  0  0  0  0  0  0  0  0  0
   -0.1697   64.2328   80.5330 C   0  0  0  0  0  0  0  0  0  0  0  0
   -0.9011   63.2132   80.0464 N   0  0  0  0  0  0  0  0  0  0  0  0
   -1.1189   62.3946   81.1034 N   0  0  0  0  0  0  0  0  0  0  0  0
   -0.5307   62.8263   82.2722 C   0  0  0  0  0  0  0  0  0  0  0  0
    0.0721   64.0063   81.9230 C   0  0  0  0  0  0  0  0  0  0  0  0
    0.7758   64.8178   82.7405 N   0  0  0  0  0  0  0  0  0  0  0  0
    0.7075   66.6114   78.6452 H   0  0  0  0  0  0  0  0  0  0  0  0
   -1.9013   61.1731   80.8994 C   0  0  0  0  0  0  0  0  0  0  0  0
   -3.3686   61.3097   81.3473 C   0  0  0  0  0  0  0  0  0  0  0  0
   -4.2882   61.5492   80.1555 C   0  0  0  0  0  0  0  0  0  0  0  0
   -4.2341   60.4672   79.1709 N   0  0  0  0  0  0  0  0  0  0  0  0
   -2.9455   59.7854   79.0826 C   0  0  0  0  0  0  0  0  0  0  0  0
   -1.7759   60.6903   79.4470 C   0  0  0  0  0  0  0  0  0  0  0  0
   -4.9762   59.7894   79.3416 H   0  0  0  0  0  0  0  0  0  0  0  0
    1.8935   68.2420   82.8003 C   0  0  0  0  0  0  0  0  0  0  0  0
    2.6353   69.1102   83.5326 N   0  0  0  0  0  0  0  0  0  0  0  0
    3.5547   68.5878   84.3783 C   0  0  0  0  0  0  0  0  0  0  0  0
    3.7705   67.2283   84.5391 C   0  0  0  0  0  0  0  0  0  0  0  0
    2.9953   66.3565   83.7729 C   0  0  0  0  0  0  0  0  0  0  0  0
    2.0317   66.8519   82.8690 C   0  0  0  0  0  0  0  0  0  0  0  0
    4.8014   66.7726   85.5053 C   0  0  0  0  0  0  0  0  0  0  0  0
    5.3824   67.7664   86.4763 C   0  0  0  0  0  0  0  0  0  0  0  0
    5.1620   65.5982   85.4981 O   0  0  0  0  0  0  0  0  0  0  0  0
    0.9091   68.7552   81.9804 O   0  0  0  0  0  0  0  0  0  0  0  0
    1.2720   69.9021   81.2098 C   0  0  0  0  0  0  0  0  0  0  0  0
    3.5081   70.3908   80.1198 C   0  0  0  0  0  0  0  0  0  0  0  0
    2.2424   69.5459   80.0833 C   0  0  0  0  0  0  0  0  0  0  0  0
   -0.5813   62.1181   83.5805 C   0  0  0  0  0  0  0  0  0  0  0  0
   -1.6920   62.6568   84.4690 C   0  0  0  0  0  0  0  0  0  0  0  0
 30 31  1  0  0  0
 31 29  1  0  0  0
 29 28  1  0  0  0
 28 19  1  0  0  0
 19 20  1  0  0  0
 20 21  2  0  0  0
 21 22  1  0  0  0
 22 25  1  0  0  0
 25 26  1  0  0  0
 25 27  2  0  0  0
 22 23  2  0  0  0
 23 24  1  0  0  0
 24  1  1  0  0  0
  1  2  1  0  0  0
  2  3  2  0  0  0
  3  4  1  0  0  0
  3  5  1  0  0  0
  5  6  2  0  0  0
  6  7  1  0  0  0
  7 12  1  0  0  0
 12 13  1  0  0  0
 13 14  1  0  0  0
 14 15  1  0  0  0
 15 16  1  0  0  0
 16 17  1  0  0  0
  7  8  1  0  0  0
  8 32  1  0  0  0
 32 33  1  0  0  0
  8  9  2  0  0  0
  9 10  1  0  0  0
 24 19  2  0  0  0
 10  1  2  0  0  0
  9  5  1  0  0  0
 17 12  1  0  0  0
  4 11  1  0  0  0
 15 18  1  0  0  0
M  END
> <minimizedAffinity>
-9.78116

$$$$



 33 36  0  0  0  0  0  0  0  0999 V2000
    1.4908   65.5361   84.2991 C   0  0  0  0  0  0  0  0  0  0  0  0
    2.7459   65.7247   84.8230 N   0  0  0  0  0  0  0  0  0  0  0  0
    3.4879   66.7630   84.3784 C   0  0  0  0  0  0  0  0  0  0  0  0
    4.7167   66.9109   84.9535 O   0  0  0  0  0  0  0  0  0  0  0  0
    2.9447   67.5849   83.3813 C   0  0  0  0  0  0  0  0  0  0  0  0
    3.4064   68.6688   82.7307 N   0  0  0  0  0  0  0  0  0  0  0  0
    2.4111   69.0274   81.8848 N   0  0  0  0  0  0  0  0  0  0  0  0
    1.3124   68.1975   81.9345 C   0  0  0  0  0  0  0  0  0  0  0  0
    1.6372   67.2757   82.8948 C   0  0  0  0  0  0  0  0  0  0  0  0
    0.8657   66.2500   83.3127 N   0  0  0  0  0  0  0  0  0  0  0  0
    4.7110   66.1784   85.5934 H   0  0  0  0  0  0  0  0  0  0  0  0
    2.6063   70.1947   81.0215 C   0  0  0  0  0  0  0  0  0  0  0  0
    1.9289   71.4686   81.5603 C   0  0  0  0  0  0  0  0  0  0  0  0
    2.9387   72.3812   82.2464 C   0  0  0  0  0  0  0  0  0  0  0  0
    4.0165   72.8080   81.3524 N   0  0  0  0  0  0  0  0  0  0  0  0
    4.3637   71.8449   80.3109 C   0  0  0  0  0  0  0  0  0  0  0  0
    4.0994   70.4049   80.7306 C   0  0  0  0  0  0  0  0  0  0  0  0
    3.7984   73.7114   80.9333 H   0  0  0  0  0  0  0  0  0  0  0  0
    0.3715   63.2980   83.9822 C   0  0  0  0  0  0  0  0  0  0  0  0
   -0.3220   62.2205   84.4275 N   0  0  0  0  0  0  0  0  0  0  0  0
   -0.6652   62.1958   85.7371 C   0  0  0  0  0  0  0  0  0  0  0  0
   -0.3427   63.1981   86.6381 C   0  0  0  0  0  0  0  0  0  0  0  0
    0.3698   64.2964   86.1544 C   0  0  0  0  0  0  0  0  0  0  0  0
    0.7411   64.3743   84.7952 C   0  0  0  0  0  0  0  0  0  0  0  0
   -0.7651   63.0560   88.0543 C   0  0  0  0  0  0  0  0  0  0  0  0
    0.2883   62.8872   89.1172 C   0  0  0  0  0  0  0  0  0  0  0  0
   -1.9608   63.0788   88.3354 O   0  0  0  0  0  0  0  0  0  0  0  0
    0.7836   63.3098   82.6651 O   0  0  0  0  0  0  0  0  0  0  0  0
   -0.2126   62.9822   81.6951 C   0  0  0  0  0  0  0  0  0  0  0  0
   -2.6704   63.5244   81.9997 C   0  0  0  0  0  0  0  0  0  0  0  0
   -1.2981   64.0557   81.6105 C   0  0  0  0  0  0  0  0  0  0  0  0
    0.0855   68.3337   81.1026 C   0  0  0  0  0  0  0  0  0  0  0  0
   -0.0021   67.2425   80.0467 C   0  0  0  0  0  0  0  0  0  0  0  0
 30 31  1  0  0  0
 31 29  1  0  0  0
 29 28  1  0  0  0
 28 19  1  0  0  0
 19 20  1  0  0  0
 20 21  2  0  0  0
 21 22  1  0  0  0
 22 25  1  0  0  0
 25 26  1  0  0  0
 25 27  2  0  0  0
 22 23  2  0  0  0
 23 24  1  0  0  0
 24  1  1  0  0  0
  1  2  1  0  0  0
  2  3  2  0  0  0
  3  4  1  0  0  0
  3  5  1  0  0  0
  5  6  2  0  0  0
  6  7  1  0  0  0
  7 12  1  0  0  0
 12 13  1  0  0  0
 13 14  1  0  0  0
 14 15  1  0  0  0
 15 16  1  0  0  0
 16 17  1  0  0  0
  7  8  1  0  0  0
  8 32  1  0  0  0
 32 33  1  0  0  0
  8  9  2  0  0  0
  9 10  1  0  0  0
 24 19  2  0  0  0
 10  1  2  0  0  0
  9  5  1  0  0  0
 17 12  1  0  0  0
  4 11  1  0  0  0
 15 18  1  0  0  0
M  END
> <minimizedAffinity>
-9.66332

$$$$



 33 36  0  0  0  0  0  0  0  0999 V2000
    1.6254   65.2334   84.0444 C   0  0  0  0  0  0  0  0  0  0  0  0
    0.8836   64.7106   85.0749 N   0  0  0  0  0  0  0  0  0  0  0  0
   -0.1672   63.9130   84.7817 C   0  0  0  0  0  0  0  0  0  0  0  0
   -0.8507   63.4061   85.8486 O   0  0  0  0  0  0  0  0  0  0  0  0
   -0.4630   63.6786   83.4317 C   0  0  0  0  0  0  0  0  0  0  0  0
   -1.4160   62.9593   82.8108 N   0  0  0  0  0  0  0  0  0  0  0  0
   -1.1731   63.1135   81.4871 N   0  0  0  0  0  0  0  0  0  0  0  0
   -0.1032   63.9362   81.2097 C   0  0  0  0  0  0  0  0  0  0  0  0
    0.3657   64.2971   82.4456 C   0  0  0  0  0  0  0  0  0  0  0  0
    1.4224   65.0983   82.6976 N   0  0  0  0  0  0  0  0  0  0  0  0
   -0.3374   63.7733   86.5887 H   0  0  0  0  0  0  0  0  0  0  0  0
   -2.0508   62.4406   80.5265 C   0  0  0  0  0  0  0  0  0  0  0  0
   -1.6429   60.9815   80.2498 C   0  0  0  0  0  0  0  0  0  0  0  0
   -2.5163   60.0076   81.0323 C   0  0  0  0  0  0  0  0  0  0  0  0
   -3.9375   60.1306   80.7037 N   0  0  0  0  0  0  0  0  0  0  0  0
   -4.3605   61.4729   80.3137 C   0  0  0  0  0  0  0  0  0  0  0  0
   -3.5187   62.5652   80.9601 C   0  0  0  0  0  0  0  0  0  0  0  0
   -4.1983   59.4593   79.9821 H   0  0  0  0  0  0  0  0  0  0  0  0
    2.7826   67.4744   84.0788 C   0  0  0  0  0  0  0  0  0  0  0  0
    3.8028   68.3019   84.4174 N   0  0  0  0  0  0  0  0  0  0  0  0
    4.8255   67.7737   85.1304 C   0  0  0  0  0  0  0  0  0  0  0  0
    4.8812   66.4492   85.5344 C   0  0  0  0  0  0  0  0  0  0  0  0
    3.8198   65.6185   85.1719 C   0  0  0  0  0  0  0  0  0  0  0  0
    2.7360   66.1187   84.4195 C   0  0  0  0  0  0  0  0  0  0  0  0
    6.0510   65.9857   86.3223 C   0  0  0  0  0  0  0  0  0  0  0  0
    5.8402   65.5252   87.7406 C   0  0  0  0  0  0  0  0  0  0  0  0
    7.1665   65.9845   85.8076 O   0  0  0  0  0  0  0  0  0  0  0  0
    1.7031   68.0108   83.4068 O   0  0  0  0  0  0  0  0  0  0  0  0
    2.0131   68.9261   82.3548 C   0  0  0  0  0  0  0  0  0  0  0  0
    2.1638   69.1861   79.8374 C   0  0  0  0  0  0  0  0  0  0  0  0
    2.1664   68.2152   81.0099 C   0  0  0  0  0  0  0  0  0  0  0  0
    0.3765   64.3045   79.8495 C   0  0  0  0  0  0  0  0  0  0  0  0
   -0.1171   65.6815   79.4328 C   0  0  0  0  0  0  0  0  0  0  0  0
 30 31  1  0  0  0
 31 29  1  0  0  0
 29 28  1  0  0  0
 28 19  1  0  0  0
 19 20  1  0  0  0
 20 21  2  0  0  0
 21 22  1  0  0  0
 22 25  1  0  0  0
 25 26  1  0  0  0
 25 27  2  0  0  0
 22 23  2  0  0  0
 23 24  1  0  0  0
 24  1  1  0  0  0
  1  2  1  0  0  0
  2  3  2  0  0  0
  3  4  1  0  0  0
  3  5  1  0  0  0
  5  6  2  0  0  0
  6  7  1  0  0  0
  7 12  1  0  0  0
 12 13  1  0  0  0
 13 14  1  0  0  0
 14 15  1  0  0  0
 15 16  1  0  0  0
 16 17  1  0  0  0
  7  8  1  0  0  0
  8 32  1  0  0  0
 32 33  1  0  0  0
  8  9  2  0  0  0
  9 10  1  0  0  0
 24 19  2  0  0  0
 10  1  2  0  0  0
  9  5  1  0  0  0
 17 12  1  0  0  0
  4 11  1  0  0  0
 15 18  1  0  0  0
M  END
> <minimizedAffinity>
-9.56660

$$$$



 33 36  0  0  0  0  0  0  0  0999 V2000
    0.5312   65.1427   83.6439 C   0  0  0  0  0  0  0  0  0  0  0  0
   -0.0087   65.2629   82.3872 N   0  0  0  0  0  0  0  0  0  0  0  0
    0.3811   66.2951   81.6068 C   0  0  0  0  0  0  0  0  0  0  0  0
   -0.1736   66.3472   80.3610 O   0  0  0  0  0  0  0  0  0  0  0  0
    1.3040   67.2097   82.1326 C   0  0  0  0  0  0  0  0  0  0  0  0
    1.8806   68.3209   81.6387 N   0  0  0  0  0  0  0  0  0  0  0  0
    2.6965   68.7670   82.6236 N   0  0  0  0  0  0  0  0  0  0  0  0
    2.6586   68.0002   83.7677 C   0  0  0  0  0  0  0  0  0  0  0  0
    1.7783   66.9952   83.4634 C   0  0  0  0  0  0  0  0  0  0  0  0
    1.4141   65.9783   84.2729 N   0  0  0  0  0  0  0  0  0  0  0  0
   -0.7282   65.5482   80.3717 H   0  0  0  0  0  0  0  0  0  0  0  0
    3.4821   69.9815   82.3920 C   0  0  0  0  0  0  0  0  0  0  0  0
    4.0942   70.0490   80.9802 C   0  0  0  0  0  0  0  0  0  0  0  0
    3.2762   70.9558   80.0681 C   0  0  0  0  0  0  0  0  0  0  0  0
    3.1849   72.3289   80.5674 N   0  0  0  0  0  0  0  0  0  0  0  0
    3.2207   72.4536   82.0221 C   0  0  0  0  0  0  0  0  0  0  0  0
    2.6548   71.2300   82.7308 C   0  0  0  0  0  0  0  0  0  0  0  0
    3.9096   72.9116   80.1496 H   0  0  0  0  0  0  0  0  0  0  0  0
   -0.3566   62.7975   83.9169 C   0  0  0  0  0  0  0  0  0  0  0  0
   -0.8059   61.7550   84.6594 N   0  0  0  0  0  0  0  0  0  0  0  0
   -0.8554   61.9196   86.0025 C   0  0  0  0  0  0  0  0  0  0  0  0
   -0.4687   63.0811   86.6520 C   0  0  0  0  0  0  0  0  0  0  0  0
   -0.0115   64.1393   85.8652 C   0  0  0  0  0  0  0  0  0  0  0  0
    0.0483   64.0210   84.4604 C   0  0  0  0  0  0  0  0  0  0  0  0
   -0.5582   63.1415   88.1327 C   0  0  0  0  0  0  0  0  0  0  0  0
    0.7095   63.0880   88.9439 C   0  0  0  0  0  0  0  0  0  0  0  0
   -1.6591   63.2343   88.6702 O   0  0  0  0  0  0  0  0  0  0  0  0
   -0.2404   62.6247   82.5526 O   0  0  0  0  0  0  0  0  0  0  0  0
    0.6245   61.5704   82.1271 C   0  0  0  0  0  0  0  0  0  0  0  0
   -0.0206   62.6392   79.9206 C   0  0  0  0  0  0  0  0  0  0  0  0
    0.7557   61.5226   80.6046 C   0  0  0  0  0  0  0  0  0  0  0  0
    3.4281   68.2652   85.0141 C   0  0  0  0  0  0  0  0  0  0  0  0
    4.7402   67.4962   85.0391 C   0  0  0  0  0  0  0  0  0  0  0  0
 30 31  1  0  0  0
 31 29  1  0  0  0
 29 28  1  0  0  0
 28 19  1  0  0  0
 19 20  1  0  0  0
 20 21  2  0  0  0
 21 22  1  0  0  0
 22 25  1  0  0  0
 25 26  1  0  0  0
 25 27  2  0  0  0
 22 23  2  0  0  0
 23 24  1  0  0  0
 24  1  1  0  0  0
  1  2  1  0  0  0
  2  3  2  0  0  0
  3  4  1  0  0  0
  3  5  1  0  0  0
  5  6  2  0  0  0
  6  7  1  0  0  0
  7 12  1  0  0  0
 12 13  1  0  0  0
 13 14  1  0  0  0
 14 15  1  0  0  0
 15 16  1  0  0  0
 16 17  1  0  0  0
  7  8  1  0  0  0
  8 32  1  0  0  0
 32 33  1  0  0  0
  8  9  2  0  0  0
  9 10  1  0  0  0
 24 19  2  0  0  0
 10  1  2  0  0  0
  9  5  1  0  0  0
 17 12  1  0  0  0
  4 11  1  0  0  0
 15 18  1  0  0  0
M  END
> <minimizedAffinity>
-9.56342

$$$$



 33 36  0  0  0  0  0  0  0  0999 V2000
    1.8925   66.6795   83.7917 C   0  0  0  0  0  0  0  0  0  0  0  0
    3.1536   66.8124   84.3183 N   0  0  0  0  0  0  0  0  0  0  0  0
    3.9042   67.8744   83.9508 C   0  0  0  0  0  0  0  0  0  0  0  0
    5.1389   67.9631   84.5254 O   0  0  0  0  0  0  0  0  0  0  0  0
    3.3630   68.7784   83.0262 C   0  0  0  0  0  0  0  0  0  0  0  0
    3.8323   69.9052   82.4594 N   0  0  0  0  0  0  0  0  0  0  0  0
    2.8349   70.3403   81.6528 N   0  0  0  0  0  0  0  0  0  0  0  0
    1.7271   69.5211   81.6460 C   0  0  0  0  0  0  0  0  0  0  0  0
    2.0485   68.5228   82.5278 C   0  0  0  0  0  0  0  0  0  0  0  0
    1.2683   67.4758   82.8700 N   0  0  0  0  0  0  0  0  0  0  0  0
    5.1295   67.1824   85.1056 H   0  0  0  0  0  0  0  0  0  0  0  0
    3.0370   71.5700   80.8827 C   0  0  0  0  0  0  0  0  0  0  0  0
    2.5728   72.8360   81.6270 C   0  0  0  0  0  0  0  0  0  0  0  0
    3.7535   73.5747   82.2464 C   0  0  0  0  0  0  0  0  0  0  0  0
    4.7442   73.9939   81.2536 N   0  0  0  0  0  0  0  0  0  0  0  0
    4.8499   73.1192   80.0888 C   0  0  0  0  0  0  0  0  0  0  0  0
    4.4932   71.6729   80.4060 C   0  0  0  0  0  0  0  0  0  0  0  0
    4.5693   74.9528   80.9548 H   0  0  0  0  0  0  0  0  0  0  0  0
    0.5968   64.5741   83.2903 C   0  0  0  0  0  0  0  0  0  0  0  0
   -0.1074   63.4736   83.6550 N   0  0  0  0  0  0  0  0  0  0  0  0
   -0.2896   63.2588   84.9794 C   0  0  0  0  0  0  0  0  0  0  0  0
    0.2059   64.0902   85.9711 C   0  0  0  0  0  0  0  0  0  0  0  0
    0.9257   65.2165   85.5694 C   0  0  0  0  0  0  0  0  0  0  0  0
    1.1333   65.4903   84.2008 C   0  0  0  0  0  0  0  0  0  0  0  0
   -0.0496   63.7465   87.3926 C   0  0  0  0  0  0  0  0  0  0  0  0
   -1.4440   63.3620   87.8118 C   0  0  0  0  0  0  0  0  0  0  0  0
    0.8756   63.7805   88.2003 O   0  0  0  0  0  0  0  0  0  0  0  0
    0.8455   64.7742   81.9476 O   0  0  0  0  0  0  0  0  0  0  0  0
   -0.3026   64.8194   81.0988 C   0  0  0  0  0  0  0  0  0  0  0  0
    1.2880   66.0672   79.5688 C   0  0  0  0  0  0  0  0  0  0  0  0
   -0.1583   65.8766   80.0037 C   0  0  0  0  0  0  0  0  0  0  0  0
    0.4957   69.7360   80.8377 C   0  0  0  0  0  0  0  0  0  0  0  0
   -0.4529   70.7179   81.5082 C   0  0  0  0  0  0  0  0  0  0  0  0
 30 31  1  0  0  0
 31 29  1  0  0  0
 29 28  1  0  0  0
 28 19  1  0  0  0
 19 20  1  0  0  0
 20 21  2  0  0  0
 21 22  1  0  0  0
 22 25  1  0  0  0
 25 26  1  0  0  0
 25 27  2  0  0  0
 22 23  2  0  0  0
 23 24  1  0  0  0
 24  1  1  0  0  0
  1  2  1  0  0  0
  2  3  2  0  0  0
  3  4  1  0  0  0
  3  5  1  0  0  0
  5  6  2  0  0  0
  6  7  1  0  0  0
  7 12  1  0  0  0
 12 13  1  0  0  0
 13 14  1  0  0  0
 14 15  1  0  0  0
 15 16  1  0  0  0
 16 17  1  0  0  0
  7  8  1  0  0  0
  8 32  1  0  0  0
 32 33  1  0  0  0
  8  9  2  0  0  0
  9 10  1  0  0  0
 24 19  2  0  0  0
 10  1  2  0  0  0
  9  5  1  0  0  0
 17 12  1  0  0  0
  4 11  1  0  0  0
 15 18  1  0  0  0
M  END
> <minimizedAffinity>
-9.51495

$$$$



 33 36  0  0  0  0  0  0  0  0999 V2000
   -0.7612   63.7477   83.0434 C   0  0  0  0  0  0  0  0  0  0  0  0
   -0.2862   63.9324   84.3184 N   0  0  0  0  0  0  0  0  0  0  0  0
    0.5167   64.9906   84.5673 C   0  0  0  0  0  0  0  0  0  0  0  0
    0.9375   65.1329   85.8578 O   0  0  0  0  0  0  0  0  0  0  0  0
    0.8456   65.8367   83.4993 C   0  0  0  0  0  0  0  0  0  0  0  0
    1.6046   66.9439   83.4037 N   0  0  0  0  0  0  0  0  0  0  0  0
    1.5265   67.3183   82.1042 N   0  0  0  0  0  0  0  0  0  0  0  0
    0.7600   66.4768   81.3277 C   0  0  0  0  0  0  0  0  0  0  0  0
    0.3109   65.5298   82.2103 C   0  0  0  0  0  0  0  0  0  0  0  0
   -0.4932   64.4848   81.9217 N   0  0  0  0  0  0  0  0  0  0  0  0
    0.4892   64.3815   86.2826 H   0  0  0  0  0  0  0  0  0  0  0  0
    2.2550   68.5127   81.6698 C   0  0  0  0  0  0  0  0  0  0  0  0
    1.3339   69.6235   81.1315 C   0  0  0  0  0  0  0  0  0  0  0  0
    1.1049   70.7056   82.1803 C   0  0  0  0  0  0  0  0  0  0  0  0
    2.3475   71.3454   82.6157 N   0  0  0  0  0  0  0  0  0  0  0  0
    3.5249   70.4821   82.5783 C   0  0  0  0  0  0  0  0  0  0  0  0
    3.1828   69.0127   82.7867 C   0  0  0  0  0  0  0  0  0  0  0  0
    2.5208   72.1948   82.0792 H   0  0  0  0  0  0  0  0  0  0  0  0
   -2.0811   61.7603   83.8625 C   0  0  0  0  0  0  0  0  0  0  0  0
   -2.8578   60.6646   83.6719 N   0  0  0  0  0  0  0  0  0  0  0  0
   -3.1861   60.3453   82.3977 C   0  0  0  0  0  0  0  0  0  0  0  0
   -2.7816   61.0746   81.2909 C   0  0  0  0  0  0  0  0  0  0  0  0
   -1.9821   62.1965   81.5141 C   0  0  0  0  0  0  0  0  0  0  0  0
   -1.6033   62.5645   82.8226 C   0  0  0  0  0  0  0  0  0  0  0  0
   -3.2130   60.6326   79.9408 C   0  0  0  0  0  0  0  0  0  0  0  0
   -3.5986   61.6712   78.9208 C   0  0  0  0  0  0  0  0  0  0  0  0
   -3.2480   59.4329   79.6781 O   0  0  0  0  0  0  0  0  0  0  0  0
   -1.7894   62.1360   85.1580 O   0  0  0  0  0  0  0  0  0  0  0  0
   -2.8955   62.1781   86.0611 C   0  0  0  0  0  0  0  0  0  0  0  0
   -1.1133   62.9113   87.7085 C   0  0  0  0  0  0  0  0  0  0  0  0
   -2.5792   63.0035   87.3087 C   0  0  0  0  0  0  0  0  0  0  0  0
    0.5192   66.6263   79.8664 C   0  0  0  0  0  0  0  0  0  0  0  0
    1.5730   65.8990   79.0454 C   0  0  0  0  0  0  0  0  0  0  0  0
 30 31  1  0  0  0
 31 29  1  0  0  0
 29 28  1  0  0  0
 28 19  1  0  0  0
 19 20  1  0  0  0
 20 21  2  0  0  0
 21 22  1  0  0  0
 22 25  1  0  0  0
 25 26  1  0  0  0
 25 27  2  0  0  0
 22 23  2  0  0  0
 23 24  1  0  0  0
 24  1  1  0  0  0
  1  2  1  0  0  0
  2  3  2  0  0  0
  3  4  1  0  0  0
  3  5  1  0  0  0
  5  6  2  0  0  0
  6  7  1  0  0  0
  7 12  1  0  0  0
 12 13  1  0  0  0
 13 14  1  0  0  0
 14 15  1  0  0  0
 15 16  1  0  0  0
 16 17  1  0  0  0
  7  8  1  0  0  0
  8 32  1  0  0  0
 32 33  1  0  0  0
  8  9  2  0  0  0
  9 10  1  0  0  0
 24 19  2  0  0  0
 10  1  2  0  0  0
  9  5  1  0  0  0
 17 12  1  0  0  0
  4 11  1  0  0  0
 15 18  1  0  0  0
M  END
> <minimizedAffinity>
-9.49989

$$$$



 33 36  0  0  0  0  0  0  0  0999 V2000
    0.6976   65.6932   81.1893 C   0  0  0  0  0  0  0  0  0  0  0  0
    0.2886   66.2072   79.9836 N   0  0  0  0  0  0  0  0  0  0  0  0
   -0.2627   65.3738   79.0736 C   0  0  0  0  0  0  0  0  0  0  0  0
   -0.6698   65.9480   77.9044 O   0  0  0  0  0  0  0  0  0  0  0  0
   -0.3667   64.0145   79.3996 C   0  0  0  0  0  0  0  0  0  0  0  0
   -0.8456   62.9445   78.7385 N   0  0  0  0  0  0  0  0  0  0  0  0
   -0.6810   61.8998   79.5848 N   0  0  0  0  0  0  0  0  0  0  0  0
   -0.0818   62.2393   80.7782 C   0  0  0  0  0  0  0  0  0  0  0  0
    0.1160   63.5913   80.6762 C   0  0  0  0  0  0  0  0  0  0  0  0
    0.6715   64.3913   81.6108 N   0  0  0  0  0  0  0  0  0  0  0  0
   -0.4510   66.8811   78.0705 H   0  0  0  0  0  0  0  0  0  0  0  0
   -1.1137   60.5684   79.1534 C   0  0  0  0  0  0  0  0  0  0  0  0
   -2.5974   60.2849   79.4538 C   0  0  0  0  0  0  0  0  0  0  0  0
   -3.4559   60.4646   78.2072 C   0  0  0  0  0  0  0  0  0  0  0  0
   -3.0580   59.5784   77.1121 N   0  0  0  0  0  0  0  0  0  0  0  0
   -1.6366   59.2443   77.0822 C   0  0  0  0  0  0  0  0  0  0  0  0
   -0.7627   60.3413   77.6757 C   0  0  0  0  0  0  0  0  0  0  0  0
   -3.6166   58.7255   77.1197 H   0  0  0  0  0  0  0  0  0  0  0  0
    1.3744   66.4194   83.5082 C   0  0  0  0  0  0  0  0  0  0  0  0
    1.9430   67.2839   84.3853 N   0  0  0  0  0  0  0  0  0  0  0  0
    2.4885   68.4164   83.8820 C   0  0  0  0  0  0  0  0  0  0  0  0
    2.5031   68.7320   82.5326 C   0  0  0  0  0  0  0  0  0  0  0  0
    1.9103   67.8266   81.6514 C   0  0  0  0  0  0  0  0  0  0  0  0
    1.3184   66.6375   82.1278 C   0  0  0  0  0  0  0  0  0  0  0  0
    3.1402   70.0003   82.0970 C   0  0  0  0  0  0  0  0  0  0  0  0
    3.7180   70.0882   80.7091 C   0  0  0  0  0  0  0  0  0  0  0  0
    3.1854   70.9531   82.8712 O   0  0  0  0  0  0  0  0  0  0  0  0
    0.8700   65.2314   83.9971 O   0  0  0  0  0  0  0  0  0  0  0  0
    1.1405   64.9560   85.3724 C   0  0  0  0  0  0  0  0  0  0  0  0
   -0.6531   63.2321   84.8837 C   0  0  0  0  0  0  0  0  0  0  0  0
    0.1402   63.9599   85.9598 C   0  0  0  0  0  0  0  0  0  0  0  0
    0.2454   61.2961   81.8824 C   0  0  0  0  0  0  0  0  0  0  0  0
    1.7179   60.9148   81.8785 C   0  0  0  0  0  0  0  0  0  0  0  0
 30 31  1  0  0  0
 31 29  1  0  0  0
 29 28  1  0  0  0
 28 19  1  0  0  0
 19 20  1  0  0  0
 20 21  2  0  0  0
 21 22  1  0  0  0
 22 25  1  0  0  0
 25 26  1  0  0  0
 25 27  2  0  0  0
 22 23  2  0  0  0
 23 24  1  0  0  0
 24  1  1  0  0  0
  1  2  1  0  0  0
  2  3  2  0  0  0
  3  4  1  0  0  0
  3  5  1  0  0  0
  5  6  2  0  0  0
  6  7  1  0  0  0
  7 12  1  0  0  0
 12 13  1  0  0  0
 13 14  1  0  0  0
 14 15  1  0  0  0
 15 16  1  0  0  0
 16 17  1  0  0  0
  7  8  1  0  0  0
  8 32  1  0  0  0
 32 33  1  0  0  0
  8  9  2  0  0  0
  9 10  1  0  0  0
 24 19  2  0  0  0
 10  1  2  0  0  0
  9  5  1  0  0  0
 17 12  1  0  0  0
  4 11  1  0  0  0
 15 18  1  0  0  0
M  END
> <minimizedAffinity>
-9.44096

$$$$
