
     RDKit          3D

 38 41  0  0  0  0  0  0  0  0999 V2000
   -5.9330    2.5831   -1.5780 Cl  0  0  0  0  0  0  0  0  0  0  0  0
   -4.4990    1.6338   -1.6618 C   0  0  0  0  0  0  0  0  0  0  0  0
   -4.0040    1.2411   -2.9014 C   0  0  0  0  0  0  0  0  0  0  0  0
   -2.8552    0.4572   -2.9607 C   0  0  0  0  0  0  0  0  0  0  0  0
   -2.2032    0.0820   -1.7817 C   0  0  0  0  0  0  0  0  0  0  0  0
   -2.6688    0.5019   -0.5281 C   0  0  0  0  0  0  0  0  0  0  0  0
   -2.0708    0.0872    0.6839 N   0  0  0  0  0  0  0  0  0  0  0  0
   -0.7054   -0.2328    0.9239 C   0  0  0  0  0  0  0  0  0  0  0  0
    0.2189    0.1181    0.0136 N   0  0  0  0  0  0  0  0  0  0  0  0
    1.5028   -0.1653    0.2801 C   0  0  0  0  0  0  0  0  0  0  0  0
    2.5152    0.2259   -0.7228 C   0  0  0  0  0  0  0  0  0  0  0  0
    2.1602    0.9319   -1.8896 C   0  0  0  0  0  0  0  0  0  0  0  0
    3.1159    1.3031   -2.8413 C   0  0  0  0  0  0  0  0  0  0  0  0
    4.4543    0.9758   -2.6483 C   0  0  0  0  0  0  0  0  0  0  0  0
    4.8369    0.2796   -1.5059 C   0  0  0  0  0  0  0  0  0  0  0  0
    3.8781   -0.0894   -0.5564 C   0  0  0  0  0  0  0  0  0  0  0  0
    1.9270   -0.7768    1.3984 N   0  0  0  0  0  0  0  0  0  0  0  0
    1.0056   -1.1342    2.2955 C   0  0  0  0  0  0  0  0  0  0  0  0
    1.4241   -1.7752    3.4554 C   0  0  0  0  0  0  0  0  0  0  0  0
    0.5223   -2.1900    4.4390 C   0  0  0  0  0  0  0  0  0  0  0  0
   -0.8360   -1.9669    4.2649 C   0  0  0  0  0  0  0  0  0  0  0  0
   -1.2796   -1.3242    3.1113 C   0  0  0  0  0  0  0  0  0  0  0  0
   -0.3614   -0.8928    2.1177 C   0  0  0  0  0  0  0  0  0  0  0  0
   -3.8484    1.2598   -0.4838 C   0  0  0  0  0  0  0  0  0  0  0  0
   -4.5108    1.5303   -3.8176 H   0  0  0  0  0  0  0  0  0  0  0  0
   -2.4666    0.1276   -3.9209 H   0  0  0  0  0  0  0  0  0  0  0  0
   -1.3242   -0.5540   -1.8566 H   0  0  0  0  0  0  0  0  0  0  0  0
   -2.4215    0.6156    1.4764 H   0  0  0  0  0  0  0  0  0  0  0  0
    1.1199    1.2039   -2.0649 H   0  0  0  0  0  0  0  0  0  0  0  0
    2.8103    1.8484   -3.7304 H   0  0  0  0  0  0  0  0  0  0  0  0
    5.1981    1.2637   -3.3864 H   0  0  0  0  0  0  0  0  0  0  0  0
    5.8809    0.0214   -1.3490 H   0  0  0  0  0  0  0  0  0  0  0  0
    4.2056   -0.6340    0.3281 H   0  0  0  0  0  0  0  0  0  0  0  0
    2.4867   -1.9616    3.5978 H   0  0  0  0  0  0  0  0  0  0  0  0
    0.8864   -2.6917    5.3321 H   0  0  0  0  0  0  0  0  0  0  0  0
   -1.5472   -2.2963    5.0182 H   0  0  0  0  0  0  0  0  0  0  0  0
   -2.3487   -1.1750    2.9784 H   0  0  0  0  0  0  0  0  0  0  0  0
   -4.2651    1.5686    0.4706 H   0  0  0  0  0  0  0  0  0  0  0  0
  1  2  1  0
  2  3  1  0
  3  4  2  0
  4  5  1  0
  5  6  2  0
  6  7  1  0
  7  8  1  0
  8  9  1  0
  9 10  2  0
 10 11  1  0
 11 12  2  0
 12 13  1  0
 13 14  2  0
 14 15  1  0
 15 16  2  0
 10 17  1  0
 17 18  2  0
 18 19  1  0
 19 20  2  0
 20 21  1  0
 21 22  2  0
 22 23  1  0
  6 24  1  0
 24  2  2  0
 23  8  2  0
 16 11  1  0
 23 18  1  0
  3 25  1  0
  4 26  1  0
  5 27  1  0
  7 28  1  0
 12 29  1  0
 13 30  1  0
 14 31  1  0
 15 32  1  0
 16 33  1  0
 19 34  1  0
 20 35  1  0
 21 36  1  0
 22 37  1  0
 24 38  1  0
M  END
$$$$
