


 31 32  0  0  0  0  0  0  0  0999 V2000
    1.9330   67.2867   82.6144 C   0  0  0  0  0  0  0  0  0  0  0  0
    1.9255   68.4305   81.8135 C   0  0  0  0  0  0  0  0  0  0  0  0
    2.8573   69.4379   82.0531 C   0  0  0  0  0  0  0  0  0  0  0  0
    3.7722   69.2871   83.0875 C   0  0  0  0  0  0  0  0  0  0  0  0
    3.7137   68.1259   83.8443 C   0  0  0  0  0  0  0  0  0  0  0  0
    2.8087   67.1244   83.6391 N   0  0  0  0  0  0  0  0  0  0  0  0
    4.6778   67.9241   84.9753 C   0  0  0  0  0  0  0  0  0  0  0  0
    4.4798   68.4049   86.0847 O   0  0  0  0  0  0  0  0  0  0  0  0
    5.7717   67.1450   84.6569 N   0  0  0  0  0  0  0  0  0  0  0  0
    5.6726   66.6315   83.7846 H   0  0  0  0  0  0  0  0  0  0  0  0
    6.6378   66.5954   85.6938 C   0  0  0  0  0  0  0  0  0  0  0  0
    7.8349   65.9060   85.0541 C   0  0  0  0  0  0  0  0  0  0  0  0
    5.9014   65.5933   86.5900 C   0  0  0  0  0  0  0  0  0  0  0  0
    5.5511   64.4670   86.2686 O   0  0  0  0  0  0  0  0  0  0  0  0
    5.5850   66.0635   87.8169 O   0  0  0  0  0  0  0  0  0  0  0  0
    5.1498   65.2999   88.2499 H   0  0  0  0  0  0  0  0  0  0  0  0
    0.9117   66.1907   82.3940 C   0  0  0  0  0  0  0  0  0  0  0  0
    1.4260   64.9489   82.8749 O   0  0  0  0  0  0  0  0  0  0  0  0
    0.1331   63.1470   83.6448 C   0  0  0  0  0  0  0  0  0  0  0  0
   -0.5349   62.4638   84.6758 C   0  0  0  0  0  0  0  0  0  0  0  0
   -0.5693   62.9718   85.9823 C   0  0  0  0  0  0  0  0  0  0  0  0
    0.1023   64.1657   86.2567 C   0  0  0  0  0  0  0  0  0  0  0  0
    0.1394   64.6672   87.5285 O   0  0  0  0  0  0  0  0  0  0  0  0
    0.7758   64.8559   85.2400 C   0  0  0  0  0  0  0  0  0  0  0  0
    0.7934   64.3542   83.9336 C   0  0  0  0  0  0  0  0  0  0  0  0
    0.7216   65.4447   87.5628 H   0  0  0  0  0  0  0  0  0  0  0  0
   -1.3134   62.1767   87.0018 C   0  0  0  0  0  0  0  0  0  0  0  0
   -2.6876   62.6117   87.4360 C   0  0  0  0  0  0  0  0  0  0  0  0
   -0.7990   61.1572   87.4626 O   0  0  0  0  0  0  0  0  0  0  0  0
    1.0704   61.3380   82.1705 C   0  0  0  0  0  0  0  0  0  0  0  0
    0.1474   62.5444   82.2573 C   0  0  0  0  0  0  0  0  0  0  0  0
 30 31  1  0  0  0
 31 19  1  0  0  0
 19 20  1  0  0  0
 20 21  2  0  0  0
 21 27  1  0  0  0
 27 28  1  0  0  0
 27 29  2  0  0  0
 21 22  1  0  0  0
 22 23  1  0  0  0
 22 24  2  0  0  0
 24 25  1  0  0  0
 25 18  1  0  0  0
 18 17  1  0  0  0
 17  1  1  0  0  0
  1  2  2  0  0  0
  2  3  1  0  0  0
  3  4  2  0  0  0
  4  5  1  0  0  0
  5  7  1  0  0  0
  7  8  2  0  0  0
  7  9  1  0  0  0
  9 11  1  0  0  0
 11 12  1  0  0  0
 11 13  1  0  0  0
 13 14  2  0  0  0
 13 15  1  0  0  0
  5  6  2  0  0  0
 25 19  2  0  0  0
  6  1  1  0  0  0
 23 26  1  0  0  0
  9 10  1  0  0  0
 15 16  1  0  0  0
M  END
> <minimizedAffinity>
-9.89679

$$$$



 31 32  0  0  0  0  0  0  0  0999 V2000
   -0.3427   64.5047   80.4085 C   0  0  0  0  0  0  0  0  0  0  0  0
    0.4275   65.4294   79.7004 C   0  0  0  0  0  0  0  0  0  0  0  0
    0.7745   65.1594   78.3787 C   0  0  0  0  0  0  0  0  0  0  0  0
    0.3519   63.9728   77.7926 C   0  0  0  0  0  0  0  0  0  0  0  0
   -0.4046   63.1003   78.5614 C   0  0  0  0  0  0  0  0  0  0  0  0
   -0.7548   63.3329   79.8604 N   0  0  0  0  0  0  0  0  0  0  0  0
   -0.8763   61.8047   77.9715 C   0  0  0  0  0  0  0  0  0  0  0  0
   -0.1498   61.1152   77.2658 O   0  0  0  0  0  0  0  0  0  0  0  0
   -2.1699   61.4636   78.3111 N   0  0  0  0  0  0  0  0  0  0  0  0
   -2.5506   62.0061   79.0825 H   0  0  0  0  0  0  0  0  0  0  0  0
   -2.6812   60.1158   78.0887 C   0  0  0  0  0  0  0  0  0  0  0  0
   -3.4074   60.0535   76.7522 C   0  0  0  0  0  0  0  0  0  0  0  0
   -3.6377   59.6705   79.2007 C   0  0  0  0  0  0  0  0  0  0  0  0
   -3.5974   58.6034   79.7959 O   0  0  0  0  0  0  0  0  0  0  0  0
   -4.6297   60.5470   79.4731 O   0  0  0  0  0  0  0  0  0  0  0  0
   -5.1188   60.1192   80.2064 H   0  0  0  0  0  0  0  0  0  0  0  0
   -0.7081   64.7605   81.8555 C   0  0  0  0  0  0  0  0  0  0  0  0
    0.3629   64.3463   82.7035 O   0  0  0  0  0  0  0  0  0  0  0  0
    0.6230   64.8163   84.9888 C   0  0  0  0  0  0  0  0  0  0  0  0
    0.3624   64.5327   86.3407 C   0  0  0  0  0  0  0  0  0  0  0  0
   -0.4273   63.4363   86.7152 C   0  0  0  0  0  0  0  0  0  0  0  0
   -0.9837   62.6361   85.7142 C   0  0  0  0  0  0  0  0  0  0  0  0
   -1.8040   61.5898   86.0348 O   0  0  0  0  0  0  0  0  0  0  0  0
   -0.7359   62.9088   84.3622 C   0  0  0  0  0  0  0  0  0  0  0  0
    0.0668   63.9941   83.9931 C   0  0  0  0  0  0  0  0  0  0  0  0
   -2.1777   61.2002   85.2266 H   0  0  0  0  0  0  0  0  0  0  0  0
   -0.6354   63.2152   88.1756 C   0  0  0  0  0  0  0  0  0  0  0  0
    0.5496   62.9967   89.0779 C   0  0  0  0  0  0  0  0  0  0  0  0
   -1.7797   63.2348   88.6302 O   0  0  0  0  0  0  0  0  0  0  0  0
    2.9588   65.7069   84.7141 C   0  0  0  0  0  0  0  0  0  0  0  0
    1.4717   66.0203   84.6443 C   0  0  0  0  0  0  0  0  0  0  0  0
 30 31  1  0  0  0
 31 19  1  0  0  0
 19 20  1  0  0  0
 20 21  2  0  0  0
 21 27  1  0  0  0
 27 28  1  0  0  0
 27 29  2  0  0  0
 21 22  1  0  0  0
 22 23  1  0  0  0
 22 24  2  0  0  0
 24 25  1  0  0  0
 25 18  1  0  0  0
 18 17  1  0  0  0
 17  1  1  0  0  0
  1  2  2  0  0  0
  2  3  1  0  0  0
  3  4  2  0  0  0
  4  5  1  0  0  0
  5  7  1  0  0  0
  7  8  2  0  0  0
  7  9  1  0  0  0
  9 11  1  0  0  0
 11 12  1  0  0  0
 11 13  1  0  0  0
 13 14  2  0  0  0
 13 15  1  0  0  0
  5  6  2  0  0  0
 25 19  2  0  0  0
  6  1  1  0  0  0
 23 26  1  0  0  0
  9 10  1  0  0  0
 15 16  1  0  0  0
M  END
> <minimizedAffinity>
-9.68784

$$$$



 31 32  0  0  0  0  0  0  0  0999 V2000
   -1.0312   63.0645   85.2954 C   0  0  0  0  0  0  0  0  0  0  0  0
   -0.8782   63.0196   86.6825 C   0  0  0  0  0  0  0  0  0  0  0  0
    0.0872   63.8197   87.2893 C   0  0  0  0  0  0  0  0  0  0  0  0
    0.8826   64.6426   86.5018 C   0  0  0  0  0  0  0  0  0  0  0  0
    0.6765   64.6280   85.1299 C   0  0  0  0  0  0  0  0  0  0  0  0
   -0.2560   63.8506   84.5051 N   0  0  0  0  0  0  0  0  0  0  0  0
    1.5169   65.4954   84.2409 C   0  0  0  0  0  0  0  0  0  0  0  0
    1.0777   65.9683   83.1995 O   0  0  0  0  0  0  0  0  0  0  0  0
    2.7951   65.7204   84.7107 N   0  0  0  0  0  0  0  0  0  0  0  0
    2.9272   65.4639   85.6860 H   0  0  0  0  0  0  0  0  0  0  0  0
    3.6354   66.7710   84.1471 C   0  0  0  0  0  0  0  0  0  0  0  0
    5.0816   66.5584   84.5722 C   0  0  0  0  0  0  0  0  0  0  0  0
    3.1838   68.1687   84.5853 C   0  0  0  0  0  0  0  0  0  0  0  0
    2.5771   68.9750   83.8951 O   0  0  0  0  0  0  0  0  0  0  0  0
    3.5619   68.5151   85.8357 O   0  0  0  0  0  0  0  0  0  0  0  0
    3.1768   69.4085   85.9525 H   0  0  0  0  0  0  0  0  0  0  0  0
   -2.0527   62.1828   84.6085 C   0  0  0  0  0  0  0  0  0  0  0  0
   -2.4690   62.7901   83.3855 O   0  0  0  0  0  0  0  0  0  0  0  0
   -1.9159   62.5997   81.1120 C   0  0  0  0  0  0  0  0  0  0  0  0
   -1.8872   61.8725   79.9094 C   0  0  0  0  0  0  0  0  0  0  0  0
   -2.4360   60.5850   79.8242 C   0  0  0  0  0  0  0  0  0  0  0  0
   -2.9925   60.0147   80.9718 C   0  0  0  0  0  0  0  0  0  0  0  0
   -3.4892   58.7407   80.9455 O   0  0  0  0  0  0  0  0  0  0  0  0
   -3.0247   60.7260   82.1787 C   0  0  0  0  0  0  0  0  0  0  0  0
   -2.4911   62.0176   82.2552 C   0  0  0  0  0  0  0  0  0  0  0  0
   -3.7490   58.4663   81.8410 H   0  0  0  0  0  0  0  0  0  0  0  0
   -2.3646   59.9014   78.5003 C   0  0  0  0  0  0  0  0  0  0  0  0
   -1.0302   59.6877   77.8371 C   0  0  0  0  0  0  0  0  0  0  0  0
   -3.4028   59.5000   77.9735 O   0  0  0  0  0  0  0  0  0  0  0  0
    0.0758   64.0044   80.4919 C   0  0  0  0  0  0  0  0  0  0  0  0
   -1.2969   63.9796   81.1475 C   0  0  0  0  0  0  0  0  0  0  0  0
 30 31  1  0  0  0
 31 19  1  0  0  0
 19 20  1  0  0  0
 20 21  2  0  0  0
 21 27  1  0  0  0
 27 28  1  0  0  0
 27 29  2  0  0  0
 21 22  1  0  0  0
 22 23  1  0  0  0
 22 24  2  0  0  0
 24 25  1  0  0  0
 25 18  1  0  0  0
 18 17  1  0  0  0
 17  1  1  0  0  0
  1  2  2  0  0  0
  2  3  1  0  0  0
  3  4  2  0  0  0
  4  5  1  0  0  0
  5  7  1  0  0  0
  7  8  2  0  0  0
  7  9  1  0  0  0
  9 11  1  0  0  0
 11 12  1  0  0  0
 11 13  1  0  0  0
 13 14  2  0  0  0
 13 15  1  0  0  0
  5  6  2  0  0  0
 25 19  2  0  0  0
  6  1  1  0  0  0
 23 26  1  0  0  0
  9 10  1  0  0  0
 15 16  1  0  0  0
M  END
> <minimizedAffinity>
-9.37637

$$$$



 31 32  0  0  0  0  0  0  0  0999 V2000
    0.3820   65.4865   82.2521 C   0  0  0  0  0  0  0  0  0  0  0  0
    1.3188   66.4201   82.6997 C   0  0  0  0  0  0  0  0  0  0  0  0
    1.8059   66.3284   84.0016 C   0  0  0  0  0  0  0  0  0  0  0  0
    1.3459   65.3131   84.8307 C   0  0  0  0  0  0  0  0  0  0  0  0
    0.4098   64.4271   84.3172 C   0  0  0  0  0  0  0  0  0  0  0  0
   -0.0917   64.4947   83.0491 N   0  0  0  0  0  0  0  0  0  0  0  0
   -0.1193   63.3198   85.1793 C   0  0  0  0  0  0  0  0  0  0  0  0
   -0.2186   62.1713   84.7646 O   0  0  0  0  0  0  0  0  0  0  0  0
   -0.4547   63.7084   86.4605 N   0  0  0  0  0  0  0  0  0  0  0  0
   -0.0958   64.6235   86.7213 H   0  0  0  0  0  0  0  0  0  0  0  0
   -0.6882   62.7262   87.5133 C   0  0  0  0  0  0  0  0  0  0  0  0
   -2.1026   62.8776   88.0554 C   0  0  0  0  0  0  0  0  0  0  0  0
    0.3098   62.8693   88.6680 C   0  0  0  0  0  0  0  0  0  0  0  0
    0.2471   62.2940   89.7448 O   0  0  0  0  0  0  0  0  0  0  0  0
    1.2987   63.7640   88.4484 O   0  0  0  0  0  0  0  0  0  0  0  0
    1.8423   63.7091   89.2617 H   0  0  0  0  0  0  0  0  0  0  0  0
   -0.1854   65.5819   80.8515 C   0  0  0  0  0  0  0  0  0  0  0  0
    0.4601   64.6316   80.0041 O   0  0  0  0  0  0  0  0  0  0  0  0
   -0.7051   63.5948   78.2495 C   0  0  0  0  0  0  0  0  0  0  0  0
   -1.4451   62.5180   77.7310 C   0  0  0  0  0  0  0  0  0  0  0  0
   -1.7631   61.4052   78.5228 C   0  0  0  0  0  0  0  0  0  0  0  0
   -1.3041   61.3661   79.8417 C   0  0  0  0  0  0  0  0  0  0  0  0
   -1.5456   60.2755   80.6309 O   0  0  0  0  0  0  0  0  0  0  0  0
   -0.5620   62.4303   80.3712 C   0  0  0  0  0  0  0  0  0  0  0  0
   -0.2612   63.5467   79.5827 C   0  0  0  0  0  0  0  0  0  0  0  0
   -1.0807   60.3691   81.4793 H   0  0  0  0  0  0  0  0  0  0  0  0
   -2.5614   60.3204   77.8819 C   0  0  0  0  0  0  0  0  0  0  0  0
   -3.4342   60.6316   76.6955 C   0  0  0  0  0  0  0  0  0  0  0  0
   -2.4798   59.1730   78.3218 O   0  0  0  0  0  0  0  0  0  0  0  0
   -1.5330   65.0931   76.4072 C   0  0  0  0  0  0  0  0  0  0  0  0
   -0.3810   64.7629   77.3446 C   0  0  0  0  0  0  0  0  0  0  0  0
 30 31  1  0  0  0
 31 19  1  0  0  0
 19 20  1  0  0  0
 20 21  2  0  0  0
 21 27  1  0  0  0
 27 28  1  0  0  0
 27 29  2  0  0  0
 21 22  1  0  0  0
 22 23  1  0  0  0
 22 24  2  0  0  0
 24 25  1  0  0  0
 25 18  1  0  0  0
 18 17  1  0  0  0
 17  1  1  0  0  0
  1  2  2  0  0  0
  2  3  1  0  0  0
  3  4  2  0  0  0
  4  5  1  0  0  0
  5  7  1  0  0  0
  7  8  2  0  0  0
  7  9  1  0  0  0
  9 11  1  0  0  0
 11 12  1  0  0  0
 11 13  1  0  0  0
 13 14  2  0  0  0
 13 15  1  0  0  0
  5  6  2  0  0  0
 25 19  2  0  0  0
  6  1  1  0  0  0
 23 26  1  0  0  0
  9 10  1  0  0  0
 15 16  1  0  0  0
M  END
> <minimizedAffinity>
-9.27196

$$$$



 31 32  0  0  0  0  0  0  0  0999 V2000
    0.1296   64.7392   80.4280 C   0  0  0  0  0  0  0  0  0  0  0  0
    0.9345   65.4738   79.5551 C   0  0  0  0  0  0  0  0  0  0  0  0
    0.8421   65.2439   78.1843 C   0  0  0  0  0  0  0  0  0  0  0  0
   -0.0452   64.2845   77.7131 C   0  0  0  0  0  0  0  0  0  0  0  0
   -0.8069   63.5901   78.6418 C   0  0  0  0  0  0  0  0  0  0  0  0
   -0.7342   63.7873   79.9909 N   0  0  0  0  0  0  0  0  0  0  0  0
   -1.7727   62.5407   78.1782 C   0  0  0  0  0  0  0  0  0  0  0  0
   -2.4625   62.6963   77.1776 O   0  0  0  0  0  0  0  0  0  0  0  0
   -1.7917   61.4020   78.9580 N   0  0  0  0  0  0  0  0  0  0  0  0
   -1.0053   61.3276   79.5986 H   0  0  0  0  0  0  0  0  0  0  0  0
   -2.4288   60.1754   78.4923 C   0  0  0  0  0  0  0  0  0  0  0  0
   -3.0558   59.4409   79.6691 C   0  0  0  0  0  0  0  0  0  0  0  0
   -1.4380   59.2416   77.7881 C   0  0  0  0  0  0  0  0  0  0  0  0
   -0.5506   59.5853   77.0209 O   0  0  0  0  0  0  0  0  0  0  0  0
   -1.6393   57.9264   78.0259 O   0  0  0  0  0  0  0  0  0  0  0  0
   -0.9181   57.4901   77.5264 H   0  0  0  0  0  0  0  0  0  0  0  0
    0.2324   64.9486   81.9241 C   0  0  0  0  0  0  0  0  0  0  0  0
    0.5521   63.7128   82.5630 O   0  0  0  0  0  0  0  0  0  0  0  0
   -0.5274   62.3978   84.1807 C   0  0  0  0  0  0  0  0  0  0  0  0
   -0.9148   62.1543   85.5098 C   0  0  0  0  0  0  0  0  0  0  0  0
   -0.5968   63.0542   86.5371 C   0  0  0  0  0  0  0  0  0  0  0  0
    0.1452   64.1959   86.2242 C   0  0  0  0  0  0  0  0  0  0  0  0
    0.5231   65.0711   87.2048 O   0  0  0  0  0  0  0  0  0  0  0  0
    0.5418   64.4500   84.9044 C   0  0  0  0  0  0  0  0  0  0  0  0
    0.2077   63.5578   83.8792 C   0  0  0  0  0  0  0  0  0  0  0  0
    1.1083   65.7532   86.8346 H   0  0  0  0  0  0  0  0  0  0  0  0
   -1.0627   62.7097   87.9116 C   0  0  0  0  0  0  0  0  0  0  0  0
   -0.0770   62.2150   88.9362 C   0  0  0  0  0  0  0  0  0  0  0  0
   -2.2516   62.8548   88.1980 O   0  0  0  0  0  0  0  0  0  0  0  0
   -2.3798   61.3787   82.8189 C   0  0  0  0  0  0  0  0  0  0  0  0
   -0.8878   61.3850   83.1163 C   0  0  0  0  0  0  0  0  0  0  0  0
 30 31  1  0  0  0
 31 19  1  0  0  0
 19 20  1  0  0  0
 20 21  2  0  0  0
 21 27  1  0  0  0
 27 28  1  0  0  0
 27 29  2  0  0  0
 21 22  1  0  0  0
 22 23  1  0  0  0
 22 24  2  0  0  0
 24 25  1  0  0  0
 25 18  1  0  0  0
 18 17  1  0  0  0
 17  1  1  0  0  0
  1  2  2  0  0  0
  2  3  1  0  0  0
  3  4  2  0  0  0
  4  5  1  0  0  0
  5  7  1  0  0  0
  7  8  2  0  0  0
  7  9  1  0  0  0
  9 11  1  0  0  0
 11 12  1  0  0  0
 11 13  1  0  0  0
 13 14  2  0  0  0
 13 15  1  0  0  0
  5  6  2  0  0  0
 25 19  2  0  0  0
  6  1  1  0  0  0
 23 26  1  0  0  0
  9 10  1  0  0  0
 15 16  1  0  0  0
M  END
> <minimizedAffinity>
-9.26343

$$$$



 31 32  0  0  0  0  0  0  0  0999 V2000
    0.3295   65.2988   79.9215 C   0  0  0  0  0  0  0  0  0  0  0  0
    1.0036   64.8434   78.7867 C   0  0  0  0  0  0  0  0  0  0  0  0
    0.6937   63.5892   78.2658 C   0  0  0  0  0  0  0  0  0  0  0  0
   -0.2763   62.8139   78.8888 C   0  0  0  0  0  0  0  0  0  0  0  0
   -0.8981   63.3311   80.0160 C   0  0  0  0  0  0  0  0  0  0  0  0
   -0.6118   64.5527   80.5545 N   0  0  0  0  0  0  0  0  0  0  0  0
   -1.9463   62.5258   80.7244 C   0  0  0  0  0  0  0  0  0  0  0  0
   -2.7214   63.0371   81.5237 O   0  0  0  0  0  0  0  0  0  0  0  0
   -1.9653   61.1895   80.3794 N   0  0  0  0  0  0  0  0  0  0  0  0
   -1.4306   60.9719   79.5421 H   0  0  0  0  0  0  0  0  0  0  0  0
   -3.0940   60.3334   80.7267 C   0  0  0  0  0  0  0  0  0  0  0  0
   -2.8073   59.6063   82.0330 C   0  0  0  0  0  0  0  0  0  0  0  0
   -3.3938   59.3015   79.6334 C   0  0  0  0  0  0  0  0  0  0  0  0
   -3.6992   59.5514   78.4764 O   0  0  0  0  0  0  0  0  0  0  0  0
   -3.3580   58.0160   80.0491 O   0  0  0  0  0  0  0  0  0  0  0  0
   -3.5464   57.5061   79.2339 H   0  0  0  0  0  0  0  0  0  0  0  0
    0.6688   66.6455   80.5250 C   0  0  0  0  0  0  0  0  0  0  0  0
    0.4184   66.6208   81.9302 O   0  0  0  0  0  0  0  0  0  0  0  0
    1.5825   65.6703   83.7337 C   0  0  0  0  0  0  0  0  0  0  0  0
    2.6574   65.6667   84.6395 C   0  0  0  0  0  0  0  0  0  0  0  0
    3.6291   66.6773   84.6199 C   0  0  0  0  0  0  0  0  0  0  0  0
    3.5309   67.6850   83.6571 C   0  0  0  0  0  0  0  0  0  0  0  0
    4.4871   68.6588   83.5684 O   0  0  0  0  0  0  0  0  0  0  0  0
    2.4672   67.6996   82.7450 C   0  0  0  0  0  0  0  0  0  0  0  0
    1.4900   66.6983   82.7789 C   0  0  0  0  0  0  0  0  0  0  0  0
    4.3196   69.2200   82.7928 H   0  0  0  0  0  0  0  0  0  0  0  0
    4.7235   66.5883   85.6295 C   0  0  0  0  0  0  0  0  0  0  0  0
    5.2289   65.2410   86.0716 C   0  0  0  0  0  0  0  0  0  0  0  0
    5.2164   67.6249   86.0757 O   0  0  0  0  0  0  0  0  0  0  0  0
    0.2874   64.1128   85.2241 C   0  0  0  0  0  0  0  0  0  0  0  0
    0.5712   64.5468   83.7938 C   0  0  0  0  0  0  0  0  0  0  0  0
 30 31  1  0  0  0
 31 19  1  0  0  0
 19 20  1  0  0  0
 20 21  2  0  0  0
 21 27  1  0  0  0
 27 28  1  0  0  0
 27 29  2  0  0  0
 21 22  1  0  0  0
 22 23  1  0  0  0
 22 24  2  0  0  0
 24 25  1  0  0  0
 25 18  1  0  0  0
 18 17  1  0  0  0
 17  1  1  0  0  0
  1  2  2  0  0  0
  2  3  1  0  0  0
  3  4  2  0  0  0
  4  5  1  0  0  0
  5  7  1  0  0  0
  7  8  2  0  0  0
  7  9  1  0  0  0
  9 11  1  0  0  0
 11 12  1  0  0  0
 11 13  1  0  0  0
 13 14  2  0  0  0
 13 15  1  0  0  0
  5  6  2  0  0  0
 25 19  2  0  0  0
  6  1  1  0  0  0
 23 26  1  0  0  0
  9 10  1  0  0  0
 15 16  1  0  0  0
M  END
> <minimizedAffinity>
-9.20825

$$$$



 31 32  0  0  0  0  0  0  0  0999 V2000
   -1.0365   61.8544   82.2076 C   0  0  0  0  0  0  0  0  0  0  0  0
   -1.8787   61.7976   83.3198 C   0  0  0  0  0  0  0  0  0  0  0  0
   -2.9913   60.9599   83.2917 C   0  0  0  0  0  0  0  0  0  0  0  0
   -3.2440   60.2015   82.1555 C   0  0  0  0  0  0  0  0  0  0  0  0
   -2.3659   60.3162   81.0875 C   0  0  0  0  0  0  0  0  0  0  0  0
   -1.2717   61.1328   81.0818 N   0  0  0  0  0  0  0  0  0  0  0  0
   -2.6040   59.5212   79.8384 C   0  0  0  0  0  0  0  0  0  0  0  0
   -3.5256   58.7187   79.7508 O   0  0  0  0  0  0  0  0  0  0  0  0
   -1.7178   59.7918   78.8154 N   0  0  0  0  0  0  0  0  0  0  0  0
   -1.1714   60.6380   78.9560 H   0  0  0  0  0  0  0  0  0  0  0  0
   -1.9794   59.3508   77.4500 C   0  0  0  0  0  0  0  0  0  0  0  0
   -0.7455   59.5800   76.5884 C   0  0  0  0  0  0  0  0  0  0  0  0
   -3.1713   60.0844   76.8247 C   0  0  0  0  0  0  0  0  0  0  0  0
   -3.1709   61.2380   76.4203 O   0  0  0  0  0  0  0  0  0  0  0  0
   -4.3168   59.3678   76.7901 O   0  0  0  0  0  0  0  0  0  0  0  0
   -4.9507   59.9702   76.3482 H   0  0  0  0  0  0  0  0  0  0  0  0
    0.1625   62.7792   82.2012 C   0  0  0  0  0  0  0  0  0  0  0  0
   -0.2764   64.1375   82.2061 O   0  0  0  0  0  0  0  0  0  0  0  0
    0.6573   66.2745   81.9366 C   0  0  0  0  0  0  0  0  0  0  0  0
    1.5038   67.3107   82.3677 C   0  0  0  0  0  0  0  0  0  0  0  0
    2.2828   67.1796   83.5262 C   0  0  0  0  0  0  0  0  0  0  0  0
    2.1838   66.0028   84.2727 C   0  0  0  0  0  0  0  0  0  0  0  0
    2.8848   65.8563   85.4378 O   0  0  0  0  0  0  0  0  0  0  0  0
    1.3413   64.9629   83.8575 C   0  0  0  0  0  0  0  0  0  0  0  0
    0.5782   65.0909   82.6913 C   0  0  0  0  0  0  0  0  0  0  0  0
    2.6316   65.0268   85.8765 H   0  0  0  0  0  0  0  0  0  0  0  0
    3.1562   68.3320   83.8924 C   0  0  0  0  0  0  0  0  0  0  0  0
    3.5418   69.3436   82.8464 C   0  0  0  0  0  0  0  0  0  0  0  0
    3.5360   68.4528   85.0576 O   0  0  0  0  0  0  0  0  0  0  0  0
   -0.3731   67.9521   80.3718 C   0  0  0  0  0  0  0  0  0  0  0  0
   -0.1692   66.4775   80.6859 C   0  0  0  0  0  0  0  0  0  0  0  0
 30 31  1  0  0  0
 31 19  1  0  0  0
 19 20  1  0  0  0
 20 21  2  0  0  0
 21 27  1  0  0  0
 27 28  1  0  0  0
 27 29  2  0  0  0
 21 22  1  0  0  0
 22 23  1  0  0  0
 22 24  2  0  0  0
 24 25  1  0  0  0
 25 18  1  0  0  0
 18 17  1  0  0  0
 17  1  1  0  0  0
  1  2  2  0  0  0
  2  3  1  0  0  0
  3  4  2  0  0  0
  4  5  1  0  0  0
  5  7  1  0  0  0
  7  8  2  0  0  0
  7  9  1  0  0  0
  9 11  1  0  0  0
 11 12  1  0  0  0
 11 13  1  0  0  0
 13 14  2  0  0  0
 13 15  1  0  0  0
  5  6  2  0  0  0
 25 19  2  0  0  0
  6  1  1  0  0  0
 23 26  1  0  0  0
  9 10  1  0  0  0
 15 16  1  0  0  0
M  END
> <minimizedAffinity>
-9.20320

$$$$



 31 32  0  0  0  0  0  0  0  0999 V2000
    0.5445   64.7126   83.8922 C   0  0  0  0  0  0  0  0  0  0  0  0
    0.1694   65.1670   82.6263 C   0  0  0  0  0  0  0  0  0  0  0  0
    0.9237   66.1606   82.0064 C   0  0  0  0  0  0  0  0  0  0  0  0
    2.0310   66.6837   82.6622 C   0  0  0  0  0  0  0  0  0  0  0  0
    2.3373   66.1865   83.9207 C   0  0  0  0  0  0  0  0  0  0  0  0
    1.6144   65.2189   84.5572 N   0  0  0  0  0  0  0  0  0  0  0  0
    3.5200   66.7271   84.6678 C   0  0  0  0  0  0  0  0  0  0  0  0
    3.6918   67.9307   84.8191 O   0  0  0  0  0  0  0  0  0  0  0  0
    4.3632   65.7585   85.1739 N   0  0  0  0  0  0  0  0  0  0  0  0
    3.9647   64.8228   85.1721 H   0  0  0  0  0  0  0  0  0  0  0  0
    5.3755   66.0822   86.1728 C   0  0  0  0  0  0  0  0  0  0  0  0
    6.7590   65.7498   85.6315 C   0  0  0  0  0  0  0  0  0  0  0  0
    5.1546   65.3228   87.4858 C   0  0  0  0  0  0  0  0  0  0  0  0
    5.9093   65.3192   88.4474 O   0  0  0  0  0  0  0  0  0  0  0  0
    4.0391   64.5601   87.5129 O   0  0  0  0  0  0  0  0  0  0  0  0
    4.0465   64.1749   88.4138 H   0  0  0  0  0  0  0  0  0  0  0  0
   -0.2757   63.6549   84.6003 C   0  0  0  0  0  0  0  0  0  0  0  0
    0.0782   62.3619   84.1097 O   0  0  0  0  0  0  0  0  0  0  0  0
   -0.2375   61.4709   81.9608 C   0  0  0  0  0  0  0  0  0  0  0  0
   -1.0405   60.8340   80.9987 C   0  0  0  0  0  0  0  0  0  0  0  0
   -2.3704   60.4864   81.2754 C   0  0  0  0  0  0  0  0  0  0  0  0
   -2.8852   60.7575   82.5456 C   0  0  0  0  0  0  0  0  0  0  0  0
   -4.1596   60.3856   82.8742 O   0  0  0  0  0  0  0  0  0  0  0  0
   -2.0955   61.3882   83.5162 C   0  0  0  0  0  0  0  0  0  0  0  0
   -0.7738   61.7489   83.2304 C   0  0  0  0  0  0  0  0  0  0  0  0
   -4.3252   60.5613   83.8157 H   0  0  0  0  0  0  0  0  0  0  0  0
   -3.1414   59.8237   80.1838 C   0  0  0  0  0  0  0  0  0  0  0  0
   -3.4348   60.5723   78.9111 C   0  0  0  0  0  0  0  0  0  0  0  0
   -3.5124   58.6587   80.3308 O   0  0  0  0  0  0  0  0  0  0  0  0
    2.1356   60.6437   81.8676 C   0  0  0  0  0  0  0  0  0  0  0  0
    1.1942   61.8108   81.6099 C   0  0  0  0  0  0  0  0  0  0  0  0
 30 31  1  0  0  0
 31 19  1  0  0  0
 19 20  1  0  0  0
 20 21  2  0  0  0
 21 27  1  0  0  0
 27 28  1  0  0  0
 27 29  2  0  0  0
 21 22  1  0  0  0
 22 23  1  0  0  0
 22 24  2  0  0  0
 24 25  1  0  0  0
 25 18  1  0  0  0
 18 17  1  0  0  0
 17  1  1  0  0  0
  1  2  2  0  0  0
  2  3  1  0  0  0
  3  4  2  0  0  0
  4  5  1  0  0  0
  5  7  1  0  0  0
  7  8  2  0  0  0
  7  9  1  0  0  0
  9 11  1  0  0  0
 11 12  1  0  0  0
 11 13  1  0  0  0
 13 14  2  0  0  0
 13 15  1  0  0  0
  5  6  2  0  0  0
 25 19  2  0  0  0
  6  1  1  0  0  0
 23 26  1  0  0  0
  9 10  1  0  0  0
 15 16  1  0  0  0
M  END
> <minimizedAffinity>
-9.19877

$$$$



 31 32  0  0  0  0  0  0  0  0999 V2000
   -0.5620   63.3619   85.7430 C   0  0  0  0  0  0  0  0  0  0  0  0
   -1.5783   62.9613   86.6126 C   0  0  0  0  0  0  0  0  0  0  0  0
   -2.6793   62.2747   86.1059 C   0  0  0  0  0  0  0  0  0  0  0  0
   -2.7471   62.0068   84.7445 C   0  0  0  0  0  0  0  0  0  0  0  0
   -1.7022   62.4423   83.9424 C   0  0  0  0  0  0  0  0  0  0  0  0
   -0.6139   63.1231   84.4075 N   0  0  0  0  0  0  0  0  0  0  0  0
   -1.7371   62.1808   82.4661 C   0  0  0  0  0  0  0  0  0  0  0  0
   -0.8251   62.5324   81.7274 O   0  0  0  0  0  0  0  0  0  0  0  0
   -2.8598   61.5030   82.0358 N   0  0  0  0  0  0  0  0  0  0  0  0
   -3.3978   61.0774   82.7866 H   0  0  0  0  0  0  0  0  0  0  0  0
   -2.9186   60.9001   80.7089 C   0  0  0  0  0  0  0  0  0  0  0  0
   -4.0235   61.5561   79.8927 C   0  0  0  0  0  0  0  0  0  0  0  0
   -3.1706   59.3894   80.7718 C   0  0  0  0  0  0  0  0  0  0  0  0
   -3.5567   58.6882   79.8479 O   0  0  0  0  0  0  0  0  0  0  0  0
   -2.9885   58.8398   81.9930 O   0  0  0  0  0  0  0  0  0  0  0  0
   -3.1668   57.8878   81.8449 H   0  0  0  0  0  0  0  0  0  0  0  0
    0.6308   64.1358   86.2637 C   0  0  0  0  0  0  0  0  0  0  0  0
    1.2096   64.8990   85.2053 O   0  0  0  0  0  0  0  0  0  0  0  0
    2.9953   66.1452   84.3281 C   0  0  0  0  0  0  0  0  0  0  0  0
    4.3336   66.5734   84.3679 C   0  0  0  0  0  0  0  0  0  0  0  0
    5.2138   66.1193   85.3605 C   0  0  0  0  0  0  0  0  0  0  0  0
    4.7302   65.2478   86.3395 C   0  0  0  0  0  0  0  0  0  0  0  0
    5.5408   64.8241   87.3563 O   0  0  0  0  0  0  0  0  0  0  0  0
    3.3975   64.8154   86.3150 C   0  0  0  0  0  0  0  0  0  0  0  0
    2.5267   65.2577   85.3127 C   0  0  0  0  0  0  0  0  0  0  0  0
    5.0269   64.3042   87.9969 H   0  0  0  0  0  0  0  0  0  0  0  0
    6.6162   66.6248   85.3090 C   0  0  0  0  0  0  0  0  0  0  0  0
    7.6924   65.7884   84.6698 C   0  0  0  0  0  0  0  0  0  0  0  0
    6.8730   67.7355   85.7746 O   0  0  0  0  0  0  0  0  0  0  0  0
    2.1377   68.1969   83.1534 C   0  0  0  0  0  0  0  0  0  0  0  0
    2.0885   66.6788   83.2411 C   0  0  0  0  0  0  0  0  0  0  0  0
 30 31  1  0  0  0
 31 19  1  0  0  0
 19 20  1  0  0  0
 20 21  2  0  0  0
 21 27  1  0  0  0
 27 28  1  0  0  0
 27 29  2  0  0  0
 21 22  1  0  0  0
 22 23  1  0  0  0
 22 24  2  0  0  0
 24 25  1  0  0  0
 25 18  1  0  0  0
 18 17  1  0  0  0
 17  1  1  0  0  0
  1  2  2  0  0  0
  2  3  1  0  0  0
  3  4  2  0  0  0
  4  5  1  0  0  0
  5  7  1  0  0  0
  7  8  2  0  0  0
  7  9  1  0  0  0
  9 11  1  0  0  0
 11 12  1  0  0  0
 11 13  1  0  0  0
 13 14  2  0  0  0
 13 15  1  0  0  0
  5  6  2  0  0  0
 25 19  2  0  0  0
  6  1  1  0  0  0
 23 26  1  0  0  0
  9 10  1  0  0  0
 15 16  1  0  0  0
M  END
> <minimizedAffinity>
-9.18268

$$$$
