
     RDKit          3D

 67 72  0  0  0  0  0  0  0  0999 V2000
   -7.6619   -2.2910    0.7675 C   0  0  0  0  0  0  0  0  0  0  0  0
   -6.3280   -2.7651    0.6603 O   0  0  0  0  0  0  0  0  0  0  0  0
   -5.3774   -1.9020    0.1757 C   0  0  0  0  0  0  0  0  0  0  0  0
   -5.6290   -0.5874   -0.2248 C   0  0  0  0  0  0  0  0  0  0  0  0
   -4.6013    0.2399   -0.7146 C   0  0  0  0  0  0  0  0  0  0  0  0
   -4.8884    1.5570   -1.0912 C   0  0  0  0  0  0  0  0  0  0  0  0
   -3.8992    2.4204   -1.5848 C   0  0  0  0  0  0  0  0  0  0  0  0
   -4.2885    3.8417   -1.9086 C   0  0  0  0  0  0  0  0  0  0  0  0
   -3.6593    4.7171   -0.9793 O   0  0  0  0  0  0  0  0  0  0  0  0
   -2.5716    1.9513   -1.7263 C   0  0  0  0  0  0  0  0  0  0  0  0
   -1.4973    2.8813   -2.2635 C   0  0  0  0  0  0  0  0  0  0  0  0
   -1.0911    3.8009   -1.2615 O   0  0  0  0  0  0  0  0  0  0  0  0
   -2.2576    0.6171   -1.3356 C   0  0  0  0  0  0  0  0  0  0  0  0
   -0.8720    0.1154   -1.4537 C   0  0  0  0  0  0  0  0  0  0  0  0
   -0.4692   -0.6002   -2.5798 C   0  0  0  0  0  0  0  0  0  0  0  0
    0.8338   -1.0441   -2.6337 C   0  0  0  0  0  0  0  0  0  0  0  0
    1.7366   -0.8311   -1.6561 N   0  0  0  0  0  0  0  0  0  0  0  0
    1.3653   -0.1365   -0.5419 C   0  0  0  0  0  0  0  0  0  0  0  0
    2.3653    0.0690    0.4769 N   0  0  0  0  0  0  0  0  0  0  0  0
    3.6259   -0.3306    0.0766 N   0  0  0  0  0  0  0  0  0  0  0  0
    4.6452   -0.1981    0.8632 C   0  0  0  0  0  0  0  0  0  0  0  0
    5.9547   -0.6049    0.3104 C   0  0  0  0  0  0  0  0  0  0  0  0
    6.1399   -1.9034   -0.1610 C   0  0  0  0  0  0  0  0  0  0  0  0
    7.3771   -2.2592   -0.6907 C   0  0  0  0  0  0  0  0  0  0  0  0
    8.3762   -1.2973   -0.7351 C   0  0  0  0  0  0  0  0  0  0  0  0
    8.2188   -0.0251   -0.3028 N   0  0  0  0  0  0  0  0  0  0  0  0
    7.0005    0.3005    0.1909 C   0  0  0  0  0  0  0  0  0  0  0  0
    4.5312    0.3238    2.2375 C   0  0  0  0  0  0  0  0  0  0  0  0
    5.6056    0.3740    3.1388 C   0  0  0  0  0  0  0  0  0  0  0  0
    5.4213    0.8875    4.4251 C   0  0  0  0  0  0  0  0  0  0  0  0
    4.1662    1.3383    4.8232 C   0  0  0  0  0  0  0  0  0  0  0  0
    3.0908    1.2614    3.9389 C   0  0  0  0  0  0  0  0  0  0  0  0
    3.2713    0.7448    2.6453 C   0  0  0  0  0  0  0  0  0  0  0  0
    2.1110    0.6142    1.7366 C   0  0  0  0  0  0  0  0  0  0  0  0
    1.0212    0.9664    2.1839 O   0  0  0  0  0  0  0  0  0  0  0  0
    0.0631    0.3469   -0.4301 C   0  0  0  0  0  0  0  0  0  0  0  0
   -3.2816   -0.2462   -0.8211 C   0  0  0  0  0  0  0  0  0  0  0  0
   -3.0494   -1.5811   -0.3992 C   0  0  0  0  0  0  0  0  0  0  0  0
   -4.0707   -2.4026    0.0949 C   0  0  0  0  0  0  0  0  0  0  0  0
   -3.8918   -3.6998    0.5085 O   0  0  0  0  0  0  0  0  0  0  0  0
   -2.5597   -4.1863    0.5959 C   0  0  0  0  0  0  0  0  0  0  0  0
   -8.0665   -2.0237   -0.2142 H   0  0  0  0  0  0  0  0  0  0  0  0
   -7.7277   -1.4504    1.4660 H   0  0  0  0  0  0  0  0  0  0  0  0
   -8.2748   -3.1040    1.1685 H   0  0  0  0  0  0  0  0  0  0  0  0
   -6.6326   -0.1790   -0.1611 H   0  0  0  0  0  0  0  0  0  0  0  0
   -5.9086    1.9267   -0.9881 H   0  0  0  0  0  0  0  0  0  0  0  0
   -3.9897    4.1137   -2.9252 H   0  0  0  0  0  0  0  0  0  0  0  0
   -5.3708    3.9944   -1.8397 H   0  0  0  0  0  0  0  0  0  0  0  0
   -3.8699    4.3732   -0.0904 H   0  0  0  0  0  0  0  0  0  0  0  0
   -1.8598    3.4359   -3.1357 H   0  0  0  0  0  0  0  0  0  0  0  0
   -0.6090    2.3504   -2.6133 H   0  0  0  0  0  0  0  0  0  0  0  0
   -1.8702    4.3632   -1.0752 H   0  0  0  0  0  0  0  0  0  0  0  0
   -1.1539   -0.8049   -3.3956 H   0  0  0  0  0  0  0  0  0  0  0  0
    1.2038   -1.6018   -3.4888 H   0  0  0  0  0  0  0  0  0  0  0  0
    5.3273   -2.6245   -0.1263 H   0  0  0  0  0  0  0  0  0  0  0  0
    7.5555   -3.2601   -1.0679 H   0  0  0  0  0  0  0  0  0  0  0  0
    9.3575   -1.5298   -1.1400 H   0  0  0  0  0  0  0  0  0  0  0  0
    6.8931    1.3391    0.4901 H   0  0  0  0  0  0  0  0  0  0  0  0
    6.5950    0.0102    2.8752 H   0  0  0  0  0  0  0  0  0  0  0  0
    6.2584    0.9302    5.1190 H   0  0  0  0  0  0  0  0  0  0  0  0
    4.0193    1.7369    5.8245 H   0  0  0  0  0  0  0  0  0  0  0  0
    2.1074    1.5971    4.2643 H   0  0  0  0  0  0  0  0  0  0  0  0
   -0.2634    0.9292    0.4229 H   0  0  0  0  0  0  0  0  0  0  0  0
   -2.0399   -1.9741   -0.4635 H   0  0  0  0  0  0  0  0  0  0  0  0
   -2.1028   -4.2595   -0.3963 H   0  0  0  0  0  0  0  0  0  0  0  0
   -2.5998   -5.1955    1.0171 H   0  0  0  0  0  0  0  0  0  0  0  0
   -1.9536   -3.5699    1.2683 H   0  0  0  0  0  0  0  0  0  0  0  0
  1  2  1  0
  2  3  1  0
  3  4  1  0
  4  5  2  0
  5  6  1  0
  6  7  2  0
  7  8  1  0
  8  9  1  0
  7 10  1  0
 10 11  1  0
 11 12  1  0
 10 13  2  0
 13 14  1  0
 14 15  2  0
 15 16  1  0
 16 17  2  0
 17 18  1  0
 18 19  1  0
 19 20  1  0
 20 21  2  0
 21 22  1  0
 22 23  1  0
 23 24  2  0
 24 25  1  0
 25 26  2  0
 26 27  1  0
 21 28  1  0
 28 29  2  0
 29 30  1  0
 30 31  2  0
 31 32  1  0
 32 33  2  0
 33 34  1  0
 34 35  2  0
 18 36  2  0
 13 37  1  0
 37 38  2  0
 38 39  1  0
 39 40  1  0
 40 41  1  0
 39  3  2  0
 37  5  1  0
 36 14  1  0
 34 19  1  0
 27 22  2  0
 33 28  1  0
  1 42  1  0
  1 43  1  0
  1 44  1  0
  4 45  1  0
  6 46  1  0
  8 47  1  0
  8 48  1  0
  9 49  1  0
 11 50  1  0
 11 51  1  0
 12 52  1  0
 15 53  1  0
 16 54  1  0
 23 55  1  0
 24 56  1  0
 25 57  1  0
 27 58  1  0
 29 59  1  0
 30 60  1  0
 31 61  1  0
 32 62  1  0
 36 63  1  0
 38 64  1  0
 41 65  1  0
 41 66  1  0
 41 67  1  0
M  END
$$$$
