
     RDKit          3D

 38 40  0  0  0  0  0  0  0  0999 V2000
   -2.7819   -1.3894   -2.2034 C   0  0  0  0  0  0  0  0  0  0  0  0
   -3.0339   -1.3492   -0.7198 C   0  0  0  0  0  0  0  0  0  0  0  0
   -3.7273   -2.4083   -0.1130 C   0  0  0  0  0  0  0  0  0  0  0  0
   -3.9907   -2.3923    1.2536 C   0  0  0  0  0  0  0  0  0  0  0  0
   -3.5669   -1.3153    2.0284 C   0  0  0  0  0  0  0  0  0  0  0  0
   -2.8634   -0.2478    1.4437 C   0  0  0  0  0  0  0  0  0  0  0  0
   -2.4291    0.8860    2.3030 C   0  0  0  0  0  0  0  0  0  0  0  0
   -1.4898    1.6412    2.1422 O   0  0  0  0  0  0  0  0  0  0  0  0
   -3.2310    1.0281    3.3797 O   0  0  0  0  0  0  0  0  0  0  0  0
   -2.5679   -0.2683    0.0644 C   0  0  0  0  0  0  0  0  0  0  0  0
   -1.8974    0.7922   -0.5736 N   0  0  0  0  0  0  0  0  0  0  0  0
   -0.6008    0.8064   -0.6405 C   0  0  0  0  0  0  0  0  0  0  0  0
    0.4857   -0.4386   -0.0251 S   0  0  0  0  0  0  0  0  0  0  0  0
    1.8384    0.5832   -0.4942 C   0  0  0  0  0  0  0  0  0  0  0  0
    3.2379    0.1709   -0.2112 C   0  0  0  0  0  0  0  0  0  0  0  0
    3.5646   -1.0179    0.4585 C   0  0  0  0  0  0  0  0  0  0  0  0
    4.9031   -1.3530    0.6960 C   0  0  0  0  0  0  0  0  0  0  0  0
    5.9208   -0.5040    0.2672 C   0  0  0  0  0  0  0  0  0  0  0  0
    7.5632   -0.9202    0.5610 Cl  0  0  0  0  0  0  0  0  0  0  0  0
    5.6137    0.6797   -0.3978 C   0  0  0  0  0  0  0  0  0  0  0  0
    4.2771    1.0157   -0.6357 C   0  0  0  0  0  0  0  0  0  0  0  0
    1.5410    1.7012   -1.0916 N   0  0  0  0  0  0  0  0  0  0  0  0
    0.1749    1.7920   -1.2139 N   0  0  0  0  0  0  0  0  0  0  0  0
   -0.3729    3.0832   -1.5734 C   0  0  0  0  0  0  0  0  0  0  0  0
   -3.1089   -0.4570   -2.6750 H   0  0  0  0  0  0  0  0  0  0  0  0
   -1.7176   -1.5464   -2.4037 H   0  0  0  0  0  0  0  0  0  0  0  0
   -3.3369   -2.2039   -2.6810 H   0  0  0  0  0  0  0  0  0  0  0  0
   -4.0742   -3.2503   -0.7087 H   0  0  0  0  0  0  0  0  0  0  0  0
   -4.5333   -3.2144    1.7139 H   0  0  0  0  0  0  0  0  0  0  0  0
   -3.7874   -1.3137    3.0935 H   0  0  0  0  0  0  0  0  0  0  0  0
   -2.8564    1.8110    3.8351 H   0  0  0  0  0  0  0  0  0  0  0  0
    2.7988   -1.7040    0.8103 H   0  0  0  0  0  0  0  0  0  0  0  0
    5.1418   -2.2772    1.2168 H   0  0  0  0  0  0  0  0  0  0  0  0
    6.4044    1.3458   -0.7335 H   0  0  0  0  0  0  0  0  0  0  0  0
    4.0553    1.9459   -1.1567 H   0  0  0  0  0  0  0  0  0  0  0  0
   -1.3115    2.9718   -2.1260 H   0  0  0  0  0  0  0  0  0  0  0  0
    0.3214    3.6373   -2.2143 H   0  0  0  0  0  0  0  0  0  0  0  0
   -0.5630    3.6796   -0.6753 H   0  0  0  0  0  0  0  0  0  0  0  0
  1  2  1  0
  2  3  2  0
  3  4  1  0
  4  5  2  0
  5  6  1  0
  6  7  1  0
  7  8  2  0
  7  9  1  0
  6 10  2  0
 10 11  1  0
 11 12  2  0
 12 13  1  0
 13 14  1  0
 14 15  1  0
 15 16  1  0
 16 17  2  0
 17 18  1  0
 18 19  1  0
 18 20  2  0
 20 21  1  0
 14 22  2  0
 22 23  1  0
 23 24  1  0
 10  2  1  0
 23 12  1  0
 21 15  2  0
  1 25  1  0
  1 26  1  0
  1 27  1  0
  3 28  1  0
  4 29  1  0
  5 30  1  0
  9 31  1  0
 16 32  1  0
 17 33  1  0
 20 34  1  0
 21 35  1  0
 24 36  1  0
 24 37  1  0
 24 38  1  0
M  END
$$$$
