


 22 24  0  0  0  0  0  0  0  0999 V2000
    1.2199   65.2884   84.7662 C   0  0  0  0  0  0  0  0  0  0  0  0
    0.5974   64.5261   83.9035 N   0  0  0  0  0  0  0  0  0  0  0  0
   -0.2446   63.6252   84.4687 C   0  0  0  0  0  0  0  0  0  0  0  0
   -0.5007   63.4387   85.8042 C   0  0  0  0  0  0  0  0  0  0  0  0
   -1.4385   62.3936   85.8789 C   0  0  0  0  0  0  0  0  0  0  0  0
   -2.0484   61.8016   87.0928 C   0  0  0  0  0  0  0  0  0  0  0  0
   -1.7599   61.9414   84.6549 N   0  0  0  0  0  0  0  0  0  0  0  0
   -1.0191   62.7084   83.8167 N   0  0  0  0  0  0  0  0  0  0  0  0
   -1.1142   62.4949   82.3950 C   0  0  0  0  0  0  0  0  0  0  0  0
    0.1771   64.2695   86.7528 C   0  0  0  0  0  0  0  0  0  0  0  0
    0.0342   64.2007   87.9680 O   0  0  0  0  0  0  0  0  0  0  0  0
    1.0248   65.1733   86.1421 N   0  0  0  0  0  0  0  0  0  0  0  0
    1.5310   65.7873   86.7663 H   0  0  0  0  0  0  0  0  0  0  0  0
    3.5421   66.4162   84.6966 C   0  0  0  0  0  0  0  0  0  0  0  0
    4.3505   67.4439   84.1865 C   0  0  0  0  0  0  0  0  0  0  0  0
    3.8356   68.3844   83.2911 C   0  0  0  0  0  0  0  0  0  0  0  0
    2.5074   68.3124   82.8924 C   0  0  0  0  0  0  0  0  0  0  0  0
    1.6911   67.2977   83.3899 C   0  0  0  0  0  0  0  0  0  0  0  0
    2.1896   66.3394   84.2934 C   0  0  0  0  0  0  0  0  0  0  0  0
    4.0006   65.4688   85.5782 O   0  0  0  0  0  0  0  0  0  0  0  0
    5.8226   65.3923   87.1088 C   0  0  0  0  0  0  0  0  0  0  0  0
    5.4088   65.2388   85.6560 C   0  0  0  0  0  0  0  0  0  0  0  0
 21 22  1  0  0  0
 22 20  1  0  0  0
 20 14  1  0  0  0
 14 15  2  0  0  0
 15 16  1  0  0  0
 16 17  2  0  0  0
 17 18  1  0  0  0
 18 19  2  0  0  0
 19  1  1  0  0  0
  1  2  2  0  0  0
  2  3  1  0  0  0
  3  4  2  0  0  0
  4  5  1  0  0  0
  5  6  1  0  0  0
  5  7  2  0  0  0
  7  8  1  0  0  0
  8  9  1  0  0  0
  4 10  1  0  0  0
 10 11  2  0  0  0
 10 12  1  0  0  0
 19 14  1  0  0  0
 12  1  1  0  0  0
  8  3  1  0  0  0
 12 13  1  0  0  0
M  END
> <minimizedAffinity>
-8.74067

$$$$



 22 24  0  0  0  0  0  0  0  0999 V2000
   -0.7928   62.5090   82.9649 C   0  0  0  0  0  0  0  0  0  0  0  0
   -0.3754   62.5316   81.7247 N   0  0  0  0  0  0  0  0  0  0  0  0
   -1.0235   61.6643   80.9076 C   0  0  0  0  0  0  0  0  0  0  0  0
   -2.0353   60.7973   81.2370 C   0  0  0  0  0  0  0  0  0  0  0  0
   -2.3687   60.1189   80.0513 C   0  0  0  0  0  0  0  0  0  0  0  0
   -3.4014   59.0736   79.8592 C   0  0  0  0  0  0  0  0  0  0  0  0
   -1.6081   60.5342   79.0242 N   0  0  0  0  0  0  0  0  0  0  0  0
   -0.7992   61.4740   79.5738 N   0  0  0  0  0  0  0  0  0  0  0  0
    0.1677   62.1460   78.7435 C   0  0  0  0  0  0  0  0  0  0  0  0
   -2.4962   60.7679   82.5921 C   0  0  0  0  0  0  0  0  0  0  0  0
   -3.3898   60.0405   83.0094 O   0  0  0  0  0  0  0  0  0  0  0  0
   -1.8145   61.6626   83.3941 N   0  0  0  0  0  0  0  0  0  0  0  0
   -2.0998   61.6844   84.3641 H   0  0  0  0  0  0  0  0  0  0  0  0
   -0.1042   63.1259   85.3763 C   0  0  0  0  0  0  0  0  0  0  0  0
    0.5014   64.0513   86.2405 C   0  0  0  0  0  0  0  0  0  0  0  0
    1.0346   65.2466   85.7523 C   0  0  0  0  0  0  0  0  0  0  0  0
    0.9710   65.5349   84.3955 C   0  0  0  0  0  0  0  0  0  0  0  0
    0.3727   64.6263   83.5237 C   0  0  0  0  0  0  0  0  0  0  0  0
   -0.1711   63.4156   83.9945 C   0  0  0  0  0  0  0  0  0  0  0  0
   -0.6424   61.9385   85.8068 O   0  0  0  0  0  0  0  0  0  0  0  0
   -2.6909   62.4315   86.9153 C   0  0  0  0  0  0  0  0  0  0  0  0
   -1.2771   61.9052   87.0866 C   0  0  0  0  0  0  0  0  0  0  0  0
 21 22  1  0  0  0
 22 20  1  0  0  0
 20 14  1  0  0  0
 14 15  2  0  0  0
 15 16  1  0  0  0
 16 17  2  0  0  0
 17 18  1  0  0  0
 18 19  2  0  0  0
 19  1  1  0  0  0
  1  2  2  0  0  0
  2  3  1  0  0  0
  3  4  2  0  0  0
  4  5  1  0  0  0
  5  6  1  0  0  0
  5  7  2  0  0  0
  7  8  1  0  0  0
  8  9  1  0  0  0
  4 10  1  0  0  0
 10 11  2  0  0  0
 10 12  1  0  0  0
 19 14  1  0  0  0
 12  1  1  0  0  0
  8  3  1  0  0  0
 12 13  1  0  0  0
M  END
> <minimizedAffinity>
-8.47604

$$$$



 22 24  0  0  0  0  0  0  0  0999 V2000
    0.6913   64.7721   84.6025 C   0  0  0  0  0  0  0  0  0  0  0  0
   -0.4168   64.0808   84.6868 N   0  0  0  0  0  0  0  0  0  0  0  0
   -0.5640   63.4134   85.8585 C   0  0  0  0  0  0  0  0  0  0  0  0
    0.2991   63.3901   86.9254 C   0  0  0  0  0  0  0  0  0  0  0  0
   -0.2979   62.5610   87.8916 C   0  0  0  0  0  0  0  0  0  0  0  0
    0.2233   62.2019   89.2315 C   0  0  0  0  0  0  0  0  0  0  0  0
   -1.4775   62.0839   87.4597 N   0  0  0  0  0  0  0  0  0  0  0  0
   -1.6140   62.6184   86.2207 N   0  0  0  0  0  0  0  0  0  0  0  0
   -2.7898   62.3135   85.4459 C   0  0  0  0  0  0  0  0  0  0  0  0
    1.5130   64.1443   86.8392 C   0  0  0  0  0  0  0  0  0  0  0  0
    2.3613   64.2039   87.7216 O   0  0  0  0  0  0  0  0  0  0  0  0
    1.6287   64.8097   85.6342 N   0  0  0  0  0  0  0  0  0  0  0  0
    2.4694   65.3599   85.5185 H   0  0  0  0  0  0  0  0  0  0  0  0
    1.6587   66.8189   83.3597 C   0  0  0  0  0  0  0  0  0  0  0  0
    1.8911   67.4673   82.1368 C   0  0  0  0  0  0  0  0  0  0  0  0
    1.4809   66.8935   80.9311 C   0  0  0  0  0  0  0  0  0  0  0  0
    0.8335   65.6650   80.9289 C   0  0  0  0  0  0  0  0  0  0  0  0
    0.5950   65.0079   82.1350 C   0  0  0  0  0  0  0  0  0  0  0  0
    1.0000   65.5683   83.3619 C   0  0  0  0  0  0  0  0  0  0  0  0
    2.0419   67.3410   84.5703 O   0  0  0  0  0  0  0  0  0  0  0  0
    4.3787   66.9421   84.7908 C   0  0  0  0  0  0  0  0  0  0  0  0
    3.3040   68.0059   84.6539 C   0  0  0  0  0  0  0  0  0  0  0  0
 21 22  1  0  0  0
 22 20  1  0  0  0
 20 14  1  0  0  0
 14 15  2  0  0  0
 15 16  1  0  0  0
 16 17  2  0  0  0
 17 18  1  0  0  0
 18 19  2  0  0  0
 19  1  1  0  0  0
  1  2  2  0  0  0
  2  3  1  0  0  0
  3  4  2  0  0  0
  4  5  1  0  0  0
  5  6  1  0  0  0
  5  7  2  0  0  0
  7  8  1  0  0  0
  8  9  1  0  0  0
  4 10  1  0  0  0
 10 11  2  0  0  0
 10 12  1  0  0  0
 19 14  1  0  0  0
 12  1  1  0  0  0
  8  3  1  0  0  0
 12 13  1  0  0  0
M  END
> <minimizedAffinity>
-8.33929

$$$$



 22 24  0  0  0  0  0  0  0  0999 V2000
   -1.6977   62.2882   83.7939 C   0  0  0  0  0  0  0  0  0  0  0  0
   -1.2577   63.0753   82.8453 N   0  0  0  0  0  0  0  0  0  0  0  0
   -1.4094   62.5720   81.5949 C   0  0  0  0  0  0  0  0  0  0  0  0
   -1.9572   61.3657   81.2364 C   0  0  0  0  0  0  0  0  0  0  0  0
   -1.8869   61.3073   79.8332 C   0  0  0  0  0  0  0  0  0  0  0  0
   -2.3436   60.2145   78.9426 C   0  0  0  0  0  0  0  0  0  0  0  0
   -1.3240   62.4185   79.3288 N   0  0  0  0  0  0  0  0  0  0  0  0
   -1.0436   63.1699   80.4226 N   0  0  0  0  0  0  0  0  0  0  0  0
   -0.4202   64.4577   80.2533 C   0  0  0  0  0  0  0  0  0  0  0  0
   -2.4402   60.5003   82.2695 C   0  0  0  0  0  0  0  0  0  0  0  0
   -2.9485   59.4016   82.0783 O   0  0  0  0  0  0  0  0  0  0  0  0
   -2.2695   61.0446   83.5276 N   0  0  0  0  0  0  0  0  0  0  0  0
   -2.5940   60.4746   84.2975 H   0  0  0  0  0  0  0  0  0  0  0  0
   -0.5145   63.4254   85.7881 C   0  0  0  0  0  0  0  0  0  0  0  0
   -0.5366   63.7593   87.1511 C   0  0  0  0  0  0  0  0  0  0  0  0
   -1.6122   63.3913   87.9628 C   0  0  0  0  0  0  0  0  0  0  0  0
   -2.6804   62.6851   87.4257 C   0  0  0  0  0  0  0  0  0  0  0  0
   -2.6739   62.3455   86.0736 C   0  0  0  0  0  0  0  0  0  0  0  0
   -1.5998   62.7066   85.2375 C   0  0  0  0  0  0  0  0  0  0  0  0
    0.5186   63.7638   84.9494 O   0  0  0  0  0  0  0  0  0  0  0  0
    1.0042   65.6927   83.6411 C   0  0  0  0  0  0  0  0  0  0  0  0
    1.0547   65.0858   85.0320 C   0  0  0  0  0  0  0  0  0  0  0  0
 21 22  1  0  0  0
 22 20  1  0  0  0
 20 14  1  0  0  0
 14 15  2  0  0  0
 15 16  1  0  0  0
 16 17  2  0  0  0
 17 18  1  0  0  0
 18 19  2  0  0  0
 19  1  1  0  0  0
  1  2  2  0  0  0
  2  3  1  0  0  0
  3  4  2  0  0  0
  4  5  1  0  0  0
  5  6  1  0  0  0
  5  7  2  0  0  0
  7  8  1  0  0  0
  8  9  1  0  0  0
  4 10  1  0  0  0
 10 11  2  0  0  0
 10 12  1  0  0  0
 19 14  1  0  0  0
 12  1  1  0  0  0
  8  3  1  0  0  0
 12 13  1  0  0  0
M  END
> <minimizedAffinity>
-8.22414

$$$$



 22 24  0  0  0  0  0  0  0  0999 V2000
   -1.6187   62.7147   83.7204 C   0  0  0  0  0  0  0  0  0  0  0  0
   -2.0826   61.5963   83.2235 N   0  0  0  0  0  0  0  0  0  0  0  0
   -2.0903   61.5553   81.8676 C   0  0  0  0  0  0  0  0  0  0  0  0
   -1.6763   62.5313   80.9960 C   0  0  0  0  0  0  0  0  0  0  0  0
   -1.8834   62.0141   79.7049 C   0  0  0  0  0  0  0  0  0  0  0  0
   -1.6012   62.6679   78.4053 C   0  0  0  0  0  0  0  0  0  0  0  0
   -2.4015   60.7752   79.7556 N   0  0  0  0  0  0  0  0  0  0  0  0
   -2.5167   60.5217   81.0830 N   0  0  0  0  0  0  0  0  0  0  0  0
   -3.0491   59.2550   81.5162 C   0  0  0  0  0  0  0  0  0  0  0  0
   -1.1679   63.7569   81.5335 C   0  0  0  0  0  0  0  0  0  0  0  0
   -0.7687   64.7009   80.8616 O   0  0  0  0  0  0  0  0  0  0  0  0
   -1.1751   63.7630   82.9149 N   0  0  0  0  0  0  0  0  0  0  0  0
   -0.8255   64.6066   83.3494 H   0  0  0  0  0  0  0  0  0  0  0  0
   -0.4485   63.4944   85.8866 C   0  0  0  0  0  0  0  0  0  0  0  0
   -0.4967   63.6269   87.2830 C   0  0  0  0  0  0  0  0  0  0  0  0
   -1.6101   63.1937   88.0069 C   0  0  0  0  0  0  0  0  0  0  0  0
   -2.6905   62.6224   87.3475 C   0  0  0  0  0  0  0  0  0  0  0  0
   -2.6583   62.4835   85.9607 C   0  0  0  0  0  0  0  0  0  0  0  0
   -1.5460   62.9134   85.2116 C   0  0  0  0  0  0  0  0  0  0  0  0
    0.6219   63.9042   85.1307 O   0  0  0  0  0  0  0  0  0  0  0  0
    1.2491   65.9443   84.0757 C   0  0  0  0  0  0  0  0  0  0  0  0
    1.1849   65.1912   85.3926 C   0  0  0  0  0  0  0  0  0  0  0  0
 21 22  1  0  0  0
 22 20  1  0  0  0
 20 14  1  0  0  0
 14 15  2  0  0  0
 15 16  1  0  0  0
 16 17  2  0  0  0
 17 18  1  0  0  0
 18 19  2  0  0  0
 19  1  1  0  0  0
  1  2  2  0  0  0
  2  3  1  0  0  0
  3  4  2  0  0  0
  4  5  1  0  0  0
  5  6  1  0  0  0
  5  7  2  0  0  0
  7  8  1  0  0  0
  8  9  1  0  0  0
  4 10  1  0  0  0
 10 11  2  0  0  0
 10 12  1  0  0  0
 19 14  1  0  0  0
 12  1  1  0  0  0
  8  3  1  0  0  0
 12 13  1  0  0  0
M  END
> <minimizedAffinity>
-8.19323

$$$$



 22 24  0  0  0  0  0  0  0  0999 V2000
    1.0322   65.4212   84.0695 C   0  0  0  0  0  0  0  0  0  0  0  0
    2.0227   66.0965   84.5949 N   0  0  0  0  0  0  0  0  0  0  0  0
    2.4801   67.1056   83.8123 C   0  0  0  0  0  0  0  0  0  0  0  0
    2.0266   67.4769   82.5712 C   0  0  0  0  0  0  0  0  0  0  0  0
    2.8187   68.5702   82.1779 C   0  0  0  0  0  0  0  0  0  0  0  0
    2.7402   69.3455   80.9175 C   0  0  0  0  0  0  0  0  0  0  0  0
    3.7265   68.8758   83.1203 N   0  0  0  0  0  0  0  0  0  0  0  0
    3.4977   67.9691   84.1027 N   0  0  0  0  0  0  0  0  0  0  0  0
    4.3060   68.0010   85.2950 C   0  0  0  0  0  0  0  0  0  0  0  0
    0.9435   66.7421   81.9912 C   0  0  0  0  0  0  0  0  0  0  0  0
    0.4510   66.9753   80.8934 O   0  0  0  0  0  0  0  0  0  0  0  0
    0.5042   65.7238   82.8149 N   0  0  0  0  0  0  0  0  0  0  0  0
   -0.2618   65.1705   82.4543 H   0  0  0  0  0  0  0  0  0  0  0  0
   -0.0301   63.0716   84.2119 C   0  0  0  0  0  0  0  0  0  0  0  0
   -0.5903   62.0662   85.0151 C   0  0  0  0  0  0  0  0  0  0  0  0
   -0.7119   62.2358   86.3963 C   0  0  0  0  0  0  0  0  0  0  0  0
   -0.2762   63.4105   86.9949 C   0  0  0  0  0  0  0  0  0  0  0  0
    0.2826   64.4190   86.2112 C   0  0  0  0  0  0  0  0  0  0  0  0
    0.4147   64.2689   84.8172 C   0  0  0  0  0  0  0  0  0  0  0  0
    0.1111   62.9531   82.8513 O   0  0  0  0  0  0  0  0  0  0  0  0
    1.3627   61.1011   82.0316 C   0  0  0  0  0  0  0  0  0  0  0  0
   -0.0305   61.6580   82.2643 C   0  0  0  0  0  0  0  0  0  0  0  0
 21 22  1  0  0  0
 22 20  1  0  0  0
 20 14  1  0  0  0
 14 15  2  0  0  0
 15 16  1  0  0  0
 16 17  2  0  0  0
 17 18  1  0  0  0
 18 19  2  0  0  0
 19  1  1  0  0  0
  1  2  2  0  0  0
  2  3  1  0  0  0
  3  4  2  0  0  0
  4  5  1  0  0  0
  5  6  1  0  0  0
  5  7  2  0  0  0
  7  8  1  0  0  0
  8  9  1  0  0  0
  4 10  1  0  0  0
 10 11  2  0  0  0
 10 12  1  0  0  0
 19 14  1  0  0  0
 12  1  1  0  0  0
  8  3  1  0  0  0
 12 13  1  0  0  0
M  END
> <minimizedAffinity>
-8.03213

$$$$



 22 24  0  0  0  0  0  0  0  0999 V2000
    0.9099   65.3473   84.3012 C   0  0  0  0  0  0  0  0  0  0  0  0
   -0.0083   64.5963   83.7483 N   0  0  0  0  0  0  0  0  0  0  0  0
   -0.4810   63.6154   84.5573 C   0  0  0  0  0  0  0  0  0  0  0  0
   -0.1080   63.3405   85.8492 C   0  0  0  0  0  0  0  0  0  0  0  0
   -0.8809   62.2369   86.2515 C   0  0  0  0  0  0  0  0  0  0  0  0
   -0.8659   61.5426   87.5606 C   0  0  0  0  0  0  0  0  0  0  0  0
   -1.7008   61.8335   85.2662 N   0  0  0  0  0  0  0  0  0  0  0  0
   -1.4364   62.6896   84.2480 N   0  0  0  0  0  0  0  0  0  0  0  0
   -2.1496   62.5488   83.0041 C   0  0  0  0  0  0  0  0  0  0  0  0
    0.8960   64.1585   86.4596 C   0  0  0  0  0  0  0  0  0  0  0  0
    1.3128   64.0145   87.6030 O   0  0  0  0  0  0  0  0  0  0  0  0
    1.3534   65.1451   85.6077 N   0  0  0  0  0  0  0  0  0  0  0  0
    2.0657   65.7541   85.9879 H   0  0  0  0  0  0  0  0  0  0  0  0
    1.5555   66.5685   82.1192 C   0  0  0  0  0  0  0  0  0  0  0  0
    2.1678   67.6762   81.5126 C   0  0  0  0  0  0  0  0  0  0  0  0
    2.7512   68.6849   82.2830 C   0  0  0  0  0  0  0  0  0  0  0  0
    2.7316   68.6023   83.6690 C   0  0  0  0  0  0  0  0  0  0  0  0
    2.1274   67.5085   84.2872 C   0  0  0  0  0  0  0  0  0  0  0  0
    1.5334   66.4806   83.5297 C   0  0  0  0  0  0  0  0  0  0  0  0
    0.9690   65.5520   81.4066 O   0  0  0  0  0  0  0  0  0  0  0  0
    0.9357   65.2959   79.0398 C   0  0  0  0  0  0  0  0  0  0  0  0
    0.2166   65.8877   80.2391 C   0  0  0  0  0  0  0  0  0  0  0  0
 21 22  1  0  0  0
 22 20  1  0  0  0
 20 14  1  0  0  0
 14 15  2  0  0  0
 15 16  1  0  0  0
 16 17  2  0  0  0
 17 18  1  0  0  0
 18 19  2  0  0  0
 19  1  1  0  0  0
  1  2  2  0  0  0
  2  3  1  0  0  0
  3  4  2  0  0  0
  4  5  1  0  0  0
  5  6  1  0  0  0
  5  7  2  0  0  0
  7  8  1  0  0  0
  8  9  1  0  0  0
  4 10  1  0  0  0
 10 11  2  0  0  0
 10 12  1  0  0  0
 19 14  1  0  0  0
 12  1  1  0  0  0
  8  3  1  0  0  0
 12 13  1  0  0  0
M  END
> <minimizedAffinity>
-7.99887

$$$$



 22 24  0  0  0  0  0  0  0  0999 V2000
    0.7336   64.7964   84.7877 C   0  0  0  0  0  0  0  0  0  0  0  0
   -0.3475   64.0638   84.7008 N   0  0  0  0  0  0  0  0  0  0  0  0
   -0.5861   63.2986   85.7951 C   0  0  0  0  0  0  0  0  0  0  0  0
    0.1634   63.2173   86.9421 C   0  0  0  0  0  0  0  0  0  0  0  0
   -0.4943   62.2928   87.7727 C   0  0  0  0  0  0  0  0  0  0  0  0
   -0.0986   61.8432   89.1282 C   0  0  0  0  0  0  0  0  0  0  0  0
   -1.6025   61.8132   87.1831 N   0  0  0  0  0  0  0  0  0  0  0  0
   -1.6335   62.4421   85.9818 N   0  0  0  0  0  0  0  0  0  0  0  0
   -2.7100   62.1622   85.0660 C   0  0  0  0  0  0  0  0  0  0  0  0
    1.3472   64.0162   87.0431 C   0  0  0  0  0  0  0  0  0  0  0  0
    2.0974   64.0320   88.0120 O   0  0  0  0  0  0  0  0  0  0  0  0
    1.5579   64.7811   85.9123 N   0  0  0  0  0  0  0  0  0  0  0  0
    2.3824   65.3667   85.9289 H   0  0  0  0  0  0  0  0  0  0  0  0
    0.9350   65.4016   82.2852 C   0  0  0  0  0  0  0  0  0  0  0  0
    1.3517   66.3260   81.3149 C   0  0  0  0  0  0  0  0  0  0  0  0
    1.9567   67.5299   81.6837 C   0  0  0  0  0  0  0  0  0  0  0  0
    2.1542   67.8278   83.0255 C   0  0  0  0  0  0  0  0  0  0  0  0
    1.7461   66.9201   84.0018 C   0  0  0  0  0  0  0  0  0  0  0  0
    1.1342   65.7009   83.6521 C   0  0  0  0  0  0  0  0  0  0  0  0
    0.3362   64.2059   81.9739 O   0  0  0  0  0  0  0  0  0  0  0  0
   -1.8098   63.2621   81.5589 C   0  0  0  0  0  0  0  0  0  0  0  0
   -0.7445   64.2109   81.0390 C   0  0  0  0  0  0  0  0  0  0  0  0
 21 22  1  0  0  0
 22 20  1  0  0  0
 20 14  1  0  0  0
 14 15  2  0  0  0
 15 16  1  0  0  0
 16 17  2  0  0  0
 17 18  1  0  0  0
 18 19  2  0  0  0
 19  1  1  0  0  0
  1  2  2  0  0  0
  2  3  1  0  0  0
  3  4  2  0  0  0
  4  5  1  0  0  0
  5  6  1  0  0  0
  5  7  2  0  0  0
  7  8  1  0  0  0
  8  9  1  0  0  0
  4 10  1  0  0  0
 10 11  2  0  0  0
 10 12  1  0  0  0
 19 14  1  0  0  0
 12  1  1  0  0  0
  8  3  1  0  0  0
 12 13  1  0  0  0
M  END
> <minimizedAffinity>
-7.99004

$$$$



 22 24  0  0  0  0  0  0  0  0999 V2000
   -0.0328   63.7300   82.8181 C   0  0  0  0  0  0  0  0  0  0  0  0
   -0.2069   64.8895   82.2366 N   0  0  0  0  0  0  0  0  0  0  0  0
   -0.1500   64.8427   80.8822 C   0  0  0  0  0  0  0  0  0  0  0  0
    0.0639   63.7435   80.0886 C   0  0  0  0  0  0  0  0  0  0  0  0
    0.0336   64.2088   78.7620 C   0  0  0  0  0  0  0  0  0  0  0  0
    0.2108   63.4246   77.5171 C   0  0  0  0  0  0  0  0  0  0  0  0
   -0.1878   65.5334   78.7171 N   0  0  0  0  0  0  0  0  0  0  0  0
   -0.2955   65.8925   80.0206 N   0  0  0  0  0  0  0  0  0  0  0  0
   -0.5400   67.2725   80.3548 C   0  0  0  0  0  0  0  0  0  0  0  0
    0.2551   62.4723   80.7187 C   0  0  0  0  0  0  0  0  0  0  0  0
    0.4538   61.4206   80.1217 O   0  0  0  0  0  0  0  0  0  0  0  0
    0.1908   62.5582   82.0960 N   0  0  0  0  0  0  0  0  0  0  0  0
    0.3193   61.6875   82.5941 H   0  0  0  0  0  0  0  0  0  0  0  0
   -0.6801   62.5576   85.0262 C   0  0  0  0  0  0  0  0  0  0  0  0
   -0.6483   62.5626   86.4293 C   0  0  0  0  0  0  0  0  0  0  0  0
   -0.0228   63.5971   87.1292 C   0  0  0  0  0  0  0  0  0  0  0  0
    0.5796   64.6405   86.4387 C   0  0  0  0  0  0  0  0  0  0  0  0
    0.5568   64.6505   85.0448 C   0  0  0  0  0  0  0  0  0  0  0  0
   -0.0683   63.6178   84.3196 C   0  0  0  0  0  0  0  0  0  0  0  0
   -1.2819   61.5648   84.2931 O   0  0  0  0  0  0  0  0  0  0  0  0
   -3.0059   60.7463   82.8698 C   0  0  0  0  0  0  0  0  0  0  0  0
   -2.6831   61.6674   84.0328 C   0  0  0  0  0  0  0  0  0  0  0  0
 21 22  1  0  0  0
 22 20  1  0  0  0
 20 14  1  0  0  0
 14 15  2  0  0  0
 15 16  1  0  0  0
 16 17  2  0  0  0
 17 18  1  0  0  0
 18 19  2  0  0  0
 19  1  1  0  0  0
  1  2  2  0  0  0
  2  3  1  0  0  0
  3  4  2  0  0  0
  4  5  1  0  0  0
  5  6  1  0  0  0
  5  7  2  0  0  0
  7  8  1  0  0  0
  8  9  1  0  0  0
  4 10  1  0  0  0
 10 11  2  0  0  0
 10 12  1  0  0  0
 19 14  1  0  0  0
 12  1  1  0  0  0
  8  3  1  0  0  0
 12 13  1  0  0  0
M  END
> <minimizedAffinity>
-7.96847

$$$$
