


 34 37  0  0  0  0  0  0  0  0999 V2000
    3.4109   66.5671   84.6720 C   0  0  0  0  0  0  0  0  0  0  0  0
    4.1212   67.6203   84.0756 C   0  0  0  0  0  0  0  0  0  0  0  0
    3.5643   68.3604   83.0293 C   0  0  0  0  0  0  0  0  0  0  0  0
    2.2845   68.0550   82.5735 C   0  0  0  0  0  0  0  0  0  0  0  0
    1.5620   67.0081   83.1451 C   0  0  0  0  0  0  0  0  0  0  0  0
    2.1087   66.2648   84.2079 C   0  0  0  0  0  0  0  0  0  0  0  0
    1.2361   65.1866   84.7844 C   0  0  0  0  0  0  0  0  0  0  0  0
    0.6434   64.3364   84.0047 N   0  0  0  0  0  0  0  0  0  0  0  0
   -0.1466   63.3635   84.5747 C   0  0  0  0  0  0  0  0  0  0  0  0
   -0.3283   63.2339   85.8967 C   0  0  0  0  0  0  0  0  0  0  0  0
    0.3283   64.2037   86.7783 C   0  0  0  0  0  0  0  0  0  0  0  0
    0.1829   64.1668   87.9943 O   0  0  0  0  0  0  0  0  0  0  0  0
    1.0943   65.1335   86.1466 N   0  0  0  0  0  0  0  0  0  0  0  0
    1.5454   65.8242   86.7324 H   0  0  0  0  0  0  0  0  0  0  0  0
   -0.7921   62.3956   83.6530 C   0  0  0  0  0  0  0  0  0  0  0  0
   -2.1069   61.9428   83.8493 C   0  0  0  0  0  0  0  0  0  0  0  0
   -2.6930   61.0397   82.9573 C   0  0  0  0  0  0  0  0  0  0  0  0
   -1.9768   60.5842   81.8527 C   0  0  0  0  0  0  0  0  0  0  0  0
   -0.6773   61.0348   81.6345 C   0  0  0  0  0  0  0  0  0  0  0  0
   -0.0916   61.9370   82.5262 C   0  0  0  0  0  0  0  0  0  0  0  0
    1.5974   68.9750   81.2184 S   0  0  0  0  0  0  0  0  0  0  0  0
    0.4938   68.2234   80.6618 O   0  0  0  0  0  0  0  0  0  0  0  0
    2.7040   69.3956   80.3840 O   0  0  0  0  0  0  0  0  0  0  0  0
    0.9633   70.3596   81.9863 N   0  0  0  0  0  0  0  0  0  0  0  0
   -0.3477   70.8515   81.4398 C   0  0  0  0  0  0  0  0  0  0  0  0
   -0.6081   72.3116   81.8536 C   0  0  0  0  0  0  0  0  0  0  0  0
    0.3826   73.2520   81.2927 N   0  0  0  0  0  0  0  0  0  0  0  0
    0.4242   74.4854   82.0731 C   0  0  0  0  0  0  0  0  0  0  0  0
    1.7153   72.6266   81.1702 C   0  0  0  0  0  0  0  0  0  0  0  0
    1.9673   71.4664   82.1496 C   0  0  0  0  0  0  0  0  0  0  0  0
    3.9022   65.8146   85.7079 O   0  0  0  0  0  0  0  0  0  0  0  0
    5.1992   65.2194   85.6094 C   0  0  0  0  0  0  0  0  0  0  0  0
    5.5379   65.5160   88.0882 C   0  0  0  0  0  0  0  0  0  0  0  0
    6.1169   65.7543   86.7050 C   0  0  0  0  0  0  0  0  0  0  0  0
 33 34  1  0  0  0
 34 32  1  0  0  0
 32 31  1  0  0  0
 31  1  1  0  0  0
  1  2  1  0  0  0
  2  3  2  0  0  0
  3  4  1  0  0  0
  4 21  1  0  0  0
 21 22  2  0  0  0
 21 23  2  0  0  0
 21 24  1  0  0  0
 24 25  1  0  0  0
 25 26  1  0  0  0
 26 27  1  0  0  0
 27 28  1  0  0  0
 27 29  1  0  0  0
 29 30  1  0  0  0
  4  5  2  0  0  0
  5  6  1  0  0  0
  6  7  1  0  0  0
  7  8  2  0  0  0
  8  9  1  0  0  0
  9 15  1  0  0  0
 15 16  2  0  0  0
 16 17  1  0  0  0
 17 18  2  0  0  0
 18 19  1  0  0  0
 19 20  2  0  0  0
  9 10  2  0  0  0
 10 11  1  0  0  0
 11 12  2  0  0  0
 11 13  1  0  0  0
  6  1  2  0  0  0
 13  7  1  0  0  0
 30 24  1  0  0  0
 20 15  1  0  0  0
 13 14  1  0  0  0
M  END
> <minimizedAffinity>
-10.49683

$$$$



 34 37  0  0  0  0  0  0  0  0999 V2000
    3.4024   66.9424   84.3586 C   0  0  0  0  0  0  0  0  0  0  0  0
    4.0627   68.0486   83.8021 C   0  0  0  0  0  0  0  0  0  0  0  0
    3.4147   68.8896   82.8936 C   0  0  0  0  0  0  0  0  0  0  0  0
    2.0932   68.6326   82.5377 C   0  0  0  0  0  0  0  0  0  0  0  0
    1.4184   67.5351   83.0714 C   0  0  0  0  0  0  0  0  0  0  0  0
    2.0579   66.6893   83.9969 C   0  0  0  0  0  0  0  0  0  0  0  0
    1.2338   65.5604   84.5471 C   0  0  0  0  0  0  0  0  0  0  0  0
    0.4434   64.8868   83.7702 N   0  0  0  0  0  0  0  0  0  0  0  0
   -0.2934   63.8593   84.3152 C   0  0  0  0  0  0  0  0  0  0  0  0
   -0.2301   63.5030   85.6062 C   0  0  0  0  0  0  0  0  0  0  0  0
    0.6510   64.2735   86.4887 C   0  0  0  0  0  0  0  0  0  0  0  0
    0.7364   64.0258   87.6856 O   0  0  0  0  0  0  0  0  0  0  0  0
    1.3494   65.2705   85.8817 N   0  0  0  0  0  0  0  0  0  0  0  0
    1.9526   65.8274   86.4729 H   0  0  0  0  0  0  0  0  0  0  0  0
   -1.1710   63.0974   83.3920 C   0  0  0  0  0  0  0  0  0  0  0  0
   -1.7164   61.8512   83.7410 C   0  0  0  0  0  0  0  0  0  0  0  0
   -2.5499   61.1619   82.8551 C   0  0  0  0  0  0  0  0  0  0  0  0
   -2.8568   61.7125   81.6128 C   0  0  0  0  0  0  0  0  0  0  0  0
   -2.3369   62.9544   81.2568 C   0  0  0  0  0  0  0  0  0  0  0  0
   -1.5037   63.6429   82.1421 C   0  0  0  0  0  0  0  0  0  0  0  0
    1.2875   69.6834   81.3539 S   0  0  0  0  0  0  0  0  0  0  0  0
    2.2714   70.5784   80.7850 O   0  0  0  0  0  0  0  0  0  0  0  0
    0.0923   70.2011   81.9872 O   0  0  0  0  0  0  0  0  0  0  0  0
    0.8053   68.5847   80.1418 N   0  0  0  0  0  0  0  0  0  0  0  0
   -0.3529   67.6979   80.5048 C   0  0  0  0  0  0  0  0  0  0  0  0
   -0.4212   66.4688   79.5800 C   0  0  0  0  0  0  0  0  0  0  0  0
    0.7544   65.5851   79.7128 N   0  0  0  0  0  0  0  0  0  0  0  0
    0.9114   64.7516   78.5241 C   0  0  0  0  0  0  0  0  0  0  0  0
    1.9785   66.3533   80.0186 C   0  0  0  0  0  0  0  0  0  0  0  0
    1.9490   67.8161   79.5410 C   0  0  0  0  0  0  0  0  0  0  0  0
    3.9840   66.0902   85.2620 O   0  0  0  0  0  0  0  0  0  0  0  0
    5.2963   66.3623   85.7620 C   0  0  0  0  0  0  0  0  0  0  0  0
    7.6796   65.9917   85.0343 C   0  0  0  0  0  0  0  0  0  0  0  0
    6.3031   65.3696   85.1879 C   0  0  0  0  0  0  0  0  0  0  0  0
 33 34  1  0  0  0
 34 32  1  0  0  0
 32 31  1  0  0  0
 31  1  1  0  0  0
  1  2  1  0  0  0
  2  3  2  0  0  0
  3  4  1  0  0  0
  4 21  1  0  0  0
 21 22  2  0  0  0
 21 23  2  0  0  0
 21 24  1  0  0  0
 24 25  1  0  0  0
 25 26  1  0  0  0
 26 27  1  0  0  0
 27 28  1  0  0  0
 27 29  1  0  0  0
 29 30  1  0  0  0
  4  5  2  0  0  0
  5  6  1  0  0  0
  6  7  1  0  0  0
  7  8  2  0  0  0
  8  9  1  0  0  0
  9 15  1  0  0  0
 15 16  2  0  0  0
 16 17  1  0  0  0
 17 18  2  0  0  0
 18 19  1  0  0  0
 19 20  2  0  0  0
  9 10  2  0  0  0
 10 11  1  0  0  0
 11 12  2  0  0  0
 11 13  1  0  0  0
  6  1  2  0  0  0
 13  7  1  0  0  0
 30 24  1  0  0  0
 20 15  1  0  0  0
 13 14  1  0  0  0
M  END
> <minimizedAffinity>
-10.16028

$$$$



 34 37  0  0  0  0  0  0  0  0999 V2000
    3.6966   66.5863   84.6911 C   0  0  0  0  0  0  0  0  0  0  0  0
    4.4849   67.6590   84.2469 C   0  0  0  0  0  0  0  0  0  0  0  0
    3.9742   68.6038   83.3530 C   0  0  0  0  0  0  0  0  0  0  0  0
    2.6631   68.4855   82.8991 C   0  0  0  0  0  0  0  0  0  0  0  0
    1.8627   67.4240   83.3203 C   0  0  0  0  0  0  0  0  0  0  0  0
    2.3634   66.4743   84.2303 C   0  0  0  0  0  0  0  0  0  0  0  0
    1.4108   65.3939   84.6564 C   0  0  0  0  0  0  0  0  0  0  0  0
    0.8472   64.6307   83.7721 N   0  0  0  0  0  0  0  0  0  0  0  0
   -0.0187   63.6523   84.2060 C   0  0  0  0  0  0  0  0  0  0  0  0
   -0.3037   63.4314   85.4973 C   0  0  0  0  0  0  0  0  0  0  0  0
    0.3204   64.3033   86.4970 C   0  0  0  0  0  0  0  0  0  0  0  0
    0.0829   64.1811   87.6928 O   0  0  0  0  0  0  0  0  0  0  0  0
    1.1654   65.2445   85.9966 N   0  0  0  0  0  0  0  0  0  0  0  0
    1.5965   65.8693   86.6655 H   0  0  0  0  0  0  0  0  0  0  0  0
   -0.6286   62.7848   83.1674 C   0  0  0  0  0  0  0  0  0  0  0  0
    0.1346   61.8842   82.4066 C   0  0  0  0  0  0  0  0  0  0  0  0
   -0.4696   61.0709   81.4431 C   0  0  0  0  0  0  0  0  0  0  0  0
   -1.8451   61.1398   81.2335 C   0  0  0  0  0  0  0  0  0  0  0  0
   -2.6190   62.0163   81.9899 C   0  0  0  0  0  0  0  0  0  0  0  0
   -2.0150   62.8294   82.9523 C   0  0  0  0  0  0  0  0  0  0  0  0
    2.0322   69.6684   81.7340 S   0  0  0  0  0  0  0  0  0  0  0  0
    0.6420   69.9238   82.0413 O   0  0  0  0  0  0  0  0  0  0  0  0
    2.4303   69.2217   80.4150 O   0  0  0  0  0  0  0  0  0  0  0  0
    2.9247   71.0739   82.1036 N   0  0  0  0  0  0  0  0  0  0  0  0
    2.2865   71.9927   83.1076 C   0  0  0  0  0  0  0  0  0  0  0  0
    2.9006   73.4029   83.0377 C   0  0  0  0  0  0  0  0  0  0  0  0
    2.6567   74.0711   81.7437 N   0  0  0  0  0  0  0  0  0  0  0  0
    3.6332   75.1330   81.5180 C   0  0  0  0  0  0  0  0  0  0  0  0
    2.6232   73.1010   80.6302 C   0  0  0  0  0  0  0  0  0  0  0  0
    3.4170   71.8077   80.8874 C   0  0  0  0  0  0  0  0  0  0  0  0
    4.1407   65.6365   85.5751 O   0  0  0  0  0  0  0  0  0  0  0  0
    5.4992   65.1912   85.5261 C   0  0  0  0  0  0  0  0  0  0  0  0
    5.5165   65.4655   88.0304 C   0  0  0  0  0  0  0  0  0  0  0  0
    6.2736   65.7051   86.7364 C   0  0  0  0  0  0  0  0  0  0  0  0
 33 34  1  0  0  0
 34 32  1  0  0  0
 32 31  1  0  0  0
 31  1  1  0  0  0
  1  2  1  0  0  0
  2  3  2  0  0  0
  3  4  1  0  0  0
  4 21  1  0  0  0
 21 22  2  0  0  0
 21 23  2  0  0  0
 21 24  1  0  0  0
 24 25  1  0  0  0
 25 26  1  0  0  0
 26 27  1  0  0  0
 27 28  1  0  0  0
 27 29  1  0  0  0
 29 30  1  0  0  0
  4  5  2  0  0  0
  5  6  1  0  0  0
  6  7  1  0  0  0
  7  8  2  0  0  0
  8  9  1  0  0  0
  9 15  1  0  0  0
 15 16  2  0  0  0
 16 17  1  0  0  0
 17 18  2  0  0  0
 18 19  1  0  0  0
 19 20  2  0  0  0
  9 10  2  0  0  0
 10 11  1  0  0  0
 11 12  2  0  0  0
 11 13  1  0  0  0
  6  1  2  0  0  0
 13  7  1  0  0  0
 30 24  1  0  0  0
 20 15  1  0  0  0
 13 14  1  0  0  0
M  END
> <minimizedAffinity>
-10.14349

$$$$



 34 37  0  0  0  0  0  0  0  0999 V2000
    3.3779   67.0339   84.1419 C   0  0  0  0  0  0  0  0  0  0  0  0
    4.0865   68.2192   83.8921 C   0  0  0  0  0  0  0  0  0  0  0  0
    3.6729   69.1068   82.8954 C   0  0  0  0  0  0  0  0  0  0  0  0
    2.5386   68.8171   82.1413 C   0  0  0  0  0  0  0  0  0  0  0  0
    1.8223   67.6418   82.3657 C   0  0  0  0  0  0  0  0  0  0  0  0
    2.2232   66.7474   83.3758 C   0  0  0  0  0  0  0  0  0  0  0  0
    1.3622   65.5317   83.5687 C   0  0  0  0  0  0  0  0  0  0  0  0
    1.0009   65.1667   84.7596 N   0  0  0  0  0  0  0  0  0  0  0  0
    0.2108   64.0470   84.8913 C   0  0  0  0  0  0  0  0  0  0  0  0
   -0.2215   63.3162   83.8537 C   0  0  0  0  0  0  0  0  0  0  0  0
    0.1991   63.7184   82.5082 C   0  0  0  0  0  0  0  0  0  0  0  0
   -0.1310   63.0808   81.5153 O   0  0  0  0  0  0  0  0  0  0  0  0
    0.9751   64.8342   82.4541 N   0  0  0  0  0  0  0  0  0  0  0  0
    1.2917   65.1231   81.5377 H   0  0  0  0  0  0  0  0  0  0  0  0
   -0.2002   63.6716   86.2673 C   0  0  0  0  0  0  0  0  0  0  0  0
    0.6700   63.7896   87.3632 C   0  0  0  0  0  0  0  0  0  0  0  0
    0.2509   63.4395   88.6502 C   0  0  0  0  0  0  0  0  0  0  0  0
   -1.0457   62.9758   88.8608 C   0  0  0  0  0  0  0  0  0  0  0  0
   -1.9266   62.8673   87.7877 C   0  0  0  0  0  0  0  0  0  0  0  0
   -1.5074   63.2168   86.5015 C   0  0  0  0  0  0  0  0  0  0  0  0
    2.0399   69.9309   80.8508 S   0  0  0  0  0  0  0  0  0  0  0  0
    1.1218   69.2394   79.9725 O   0  0  0  0  0  0  0  0  0  0  0  0
    3.2431   70.5462   80.3301 O   0  0  0  0  0  0  0  0  0  0  0  0
    1.1656   71.1239   81.7000 N   0  0  0  0  0  0  0  0  0  0  0  0
   -0.2159   71.4003   81.1762 C   0  0  0  0  0  0  0  0  0  0  0  0
   -0.7382   72.7585   81.6796 C   0  0  0  0  0  0  0  0  0  0  0  0
    0.0602   73.8985   81.1863 N   0  0  0  0  0  0  0  0  0  0  0  0
   -0.1221   75.0666   82.0434 C   0  0  0  0  0  0  0  0  0  0  0  0
    1.4846   73.5376   81.0342 C   0  0  0  0  0  0  0  0  0  0  0  0
    1.9499   72.3837   81.9402 C   0  0  0  0  0  0  0  0  0  0  0  0
    3.7307   66.1322   85.1130 O   0  0  0  0  0  0  0  0  0  0  0  0
    4.9751   66.2731   85.8042 C   0  0  0  0  0  0  0  0  0  0  0  0
    7.2006   65.8849   84.6891 C   0  0  0  0  0  0  0  0  0  0  0  0
    5.9792   65.2341   85.3135 C   0  0  0  0  0  0  0  0  0  0  0  0
 33 34  1  0  0  0
 34 32  1  0  0  0
 32 31  1  0  0  0
 31  1  1  0  0  0
  1  2  1  0  0  0
  2  3  2  0  0  0
  3  4  1  0  0  0
  4 21  1  0  0  0
 21 22  2  0  0  0
 21 23  2  0  0  0
 21 24  1  0  0  0
 24 25  1  0  0  0
 25 26  1  0  0  0
 26 27  1  0  0  0
 27 28  1  0  0  0
 27 29  1  0  0  0
 29 30  1  0  0  0
  4  5  2  0  0  0
  5  6  1  0  0  0
  6  7  1  0  0  0
  7  8  2  0  0  0
  8  9  1  0  0  0
  9 15  1  0  0  0
 15 16  2  0  0  0
 16 17  1  0  0  0
 17 18  2  0  0  0
 18 19  1  0  0  0
 19 20  2  0  0  0
  9 10  2  0  0  0
 10 11  1  0  0  0
 11 12  2  0  0  0
 11 13  1  0  0  0
  6  1  2  0  0  0
 13  7  1  0  0  0
 30 24  1  0  0  0
 20 15  1  0  0  0
 13 14  1  0  0  0
M  END
> <minimizedAffinity>
-10.11171

$$$$



 34 37  0  0  0  0  0  0  0  0999 V2000
    3.5773   66.9652   84.1384 C   0  0  0  0  0  0  0  0  0  0  0  0
    4.3131   68.1449   83.9483 C   0  0  0  0  0  0  0  0  0  0  0  0
    3.8007   69.1955   83.1826 C   0  0  0  0  0  0  0  0  0  0  0  0
    2.5400   69.0757   82.6034 C   0  0  0  0  0  0  0  0  0  0  0  0
    1.7931   67.9102   82.7717 C   0  0  0  0  0  0  0  0  0  0  0  0
    2.2947   66.8513   83.5516 C   0  0  0  0  0  0  0  0  0  0  0  0
    1.3974   65.6569   83.7084 C   0  0  0  0  0  0  0  0  0  0  0  0
    1.0393   65.2567   84.8889 N   0  0  0  0  0  0  0  0  0  0  0  0
    0.2153   64.1582   84.9875 C   0  0  0  0  0  0  0  0  0  0  0  0
   -0.2531   63.4831   83.9280 C   0  0  0  0  0  0  0  0  0  0  0  0
    0.1636   63.9246   82.5937 C   0  0  0  0  0  0  0  0  0  0  0  0
   -0.1990   63.3376   81.5812 O   0  0  0  0  0  0  0  0  0  0  0  0
    0.9745   65.0166   82.5728 N   0  0  0  0  0  0  0  0  0  0  0  0
    1.2889   65.3314   81.6641 H   0  0  0  0  0  0  0  0  0  0  0  0
   -0.1906   63.7420   86.3531 C   0  0  0  0  0  0  0  0  0  0  0  0
   -1.4916   63.2983   86.6411 C   0  0  0  0  0  0  0  0  0  0  0  0
   -1.8418   62.9010   87.9350 C   0  0  0  0  0  0  0  0  0  0  0  0
   -0.8947   62.9330   88.9561 C   0  0  0  0  0  0  0  0  0  0  0  0
    0.4041   63.3557   88.6847 C   0  0  0  0  0  0  0  0  0  0  0  0
    0.7538   63.7531   87.3916 C   0  0  0  0  0  0  0  0  0  0  0  0
    1.9104   70.3994   81.6004 S   0  0  0  0  0  0  0  0  0  0  0  0
    0.5664   70.7103   82.0357 O   0  0  0  0  0  0  0  0  0  0  0  0
    2.1819   70.0548   80.2202 O   0  0  0  0  0  0  0  0  0  0  0  0
    2.9214   71.7062   82.0236 N   0  0  0  0  0  0  0  0  0  0  0  0
    2.3517   72.6531   83.0426 C   0  0  0  0  0  0  0  0  0  0  0  0
    3.0941   74.0019   83.0221 C   0  0  0  0  0  0  0  0  0  0  0  0
    2.9366   74.7238   81.7436 N   0  0  0  0  0  0  0  0  0  0  0  0
    4.0106   75.6966   81.5636 C   0  0  0  0  0  0  0  0  0  0  0  0
    2.8348   73.7908   80.6030 C   0  0  0  0  0  0  0  0  0  0  0  0
    3.5015   72.4234   80.8366 C   0  0  0  0  0  0  0  0  0  0  0  0
    4.0246   65.9073   84.8877 O   0  0  0  0  0  0  0  0  0  0  0  0
    5.1224   66.0802   85.7884 C   0  0  0  0  0  0  0  0  0  0  0  0
    5.5573   65.4777   88.1956 C   0  0  0  0  0  0  0  0  0  0  0  0
    5.1403   64.9642   86.8290 C   0  0  0  0  0  0  0  0  0  0  0  0
 33 34  1  0  0  0
 34 32  1  0  0  0
 32 31  1  0  0  0
 31  1  1  0  0  0
  1  2  1  0  0  0
  2  3  2  0  0  0
  3  4  1  0  0  0
  4 21  1  0  0  0
 21 22  2  0  0  0
 21 23  2  0  0  0
 21 24  1  0  0  0
 24 25  1  0  0  0
 25 26  1  0  0  0
 26 27  1  0  0  0
 27 28  1  0  0  0
 27 29  1  0  0  0
 29 30  1  0  0  0
  4  5  2  0  0  0
  5  6  1  0  0  0
  6  7  1  0  0  0
  7  8  2  0  0  0
  8  9  1  0  0  0
  9 15  1  0  0  0
 15 16  2  0  0  0
 16 17  1  0  0  0
 17 18  2  0  0  0
 18 19  1  0  0  0
 19 20  2  0  0  0
  9 10  2  0  0  0
 10 11  1  0  0  0
 11 12  2  0  0  0
 11 13  1  0  0  0
  6  1  2  0  0  0
 13  7  1  0  0  0
 30 24  1  0  0  0
 20 15  1  0  0  0
 13 14  1  0  0  0
M  END
> <minimizedAffinity>
-10.09023

$$$$



 34 37  0  0  0  0  0  0  0  0999 V2000
    0.8092   66.1669   80.3652 C   0  0  0  0  0  0  0  0  0  0  0  0
    1.4923   67.3419   80.0159 C   0  0  0  0  0  0  0  0  0  0  0  0
    2.2741   68.0236   80.9522 C   0  0  0  0  0  0  0  0  0  0  0  0
    2.3836   67.5297   82.2495 C   0  0  0  0  0  0  0  0  0  0  0  0
    1.7080   66.3681   82.6226 C   0  0  0  0  0  0  0  0  0  0  0  0
    0.9284   65.6670   81.6837 C   0  0  0  0  0  0  0  0  0  0  0  0
    0.2756   64.4048   82.1703 C   0  0  0  0  0  0  0  0  0  0  0  0
   -0.1188   64.3035   83.4017 N   0  0  0  0  0  0  0  0  0  0  0  0
   -0.7133   63.1294   83.8059 C   0  0  0  0  0  0  0  0  0  0  0  0
   -0.9227   62.0841   82.9927 C   0  0  0  0  0  0  0  0  0  0  0  0
   -0.4632   62.1912   81.6048 C   0  0  0  0  0  0  0  0  0  0  0  0
   -0.5922   61.2651   80.8129 O   0  0  0  0  0  0  0  0  0  0  0  0
    0.1115   63.3793   81.2758 N   0  0  0  0  0  0  0  0  0  0  0  0
    0.4515   63.4722   80.3274 H   0  0  0  0  0  0  0  0  0  0  0  0
   -1.1706   63.0575   85.2161 C   0  0  0  0  0  0  0  0  0  0  0  0
   -2.4025   62.4845   85.5716 C   0  0  0  0  0  0  0  0  0  0  0  0
   -2.8016   62.4200   86.9100 C   0  0  0  0  0  0  0  0  0  0  0  0
   -1.9715   62.9187   87.9115 C   0  0  0  0  0  0  0  0  0  0  0  0
   -0.7398   63.4764   87.5778 C   0  0  0  0  0  0  0  0  0  0  0  0
   -0.3413   63.5411   86.2402 C   0  0  0  0  0  0  0  0  0  0  0  0
    3.3483   68.4213   83.4449 S   0  0  0  0  0  0  0  0  0  0  0  0
    2.4734   68.8617   84.5094 O   0  0  0  0  0  0  0  0  0  0  0  0
    4.1624   69.3701   82.7138 O   0  0  0  0  0  0  0  0  0  0  0  0
    4.3806   67.2162   84.0703 N   0  0  0  0  0  0  0  0  0  0  0  0
    3.6901   66.0900   84.7873 C   0  0  0  0  0  0  0  0  0  0  0  0
    4.6730   65.3222   85.6903 C   0  0  0  0  0  0  0  0  0  0  0  0
    5.2177   66.1537   86.7822 N   0  0  0  0  0  0  0  0  0  0  0  0
    6.4696   65.5935   87.2833 C   0  0  0  0  0  0  0  0  0  0  0  0
    5.3663   67.5638   86.3678 C   0  0  0  0  0  0  0  0  0  0  0  0
    5.5400   67.7677   84.8522 C   0  0  0  0  0  0  0  0  0  0  0  0
    0.0374   65.4510   79.4863 O   0  0  0  0  0  0  0  0  0  0  0  0
    0.5451   65.1217   78.1902 C   0  0  0  0  0  0  0  0  0  0  0  0
   -1.2244   64.8267   76.4214 C   0  0  0  0  0  0  0  0  0  0  0  0
   -0.3866   64.1401   77.4852 C   0  0  0  0  0  0  0  0  0  0  0  0
 33 34  1  0  0  0
 34 32  1  0  0  0
 32 31  1  0  0  0
 31  1  1  0  0  0
  1  2  1  0  0  0
  2  3  2  0  0  0
  3  4  1  0  0  0
  4 21  1  0  0  0
 21 22  2  0  0  0
 21 23  2  0  0  0
 21 24  1  0  0  0
 24 25  1  0  0  0
 25 26  1  0  0  0
 26 27  1  0  0  0
 27 28  1  0  0  0
 27 29  1  0  0  0
 29 30  1  0  0  0
  4  5  2  0  0  0
  5  6  1  0  0  0
  6  7  1  0  0  0
  7  8  2  0  0  0
  8  9  1  0  0  0
  9 15  1  0  0  0
 15 16  2  0  0  0
 16 17  1  0  0  0
 17 18  2  0  0  0
 18 19  1  0  0  0
 19 20  2  0  0  0
  9 10  2  0  0  0
 10 11  1  0  0  0
 11 12  2  0  0  0
 11 13  1  0  0  0
  6  1  2  0  0  0
 13  7  1  0  0  0
 30 24  1  0  0  0
 20 15  1  0  0  0
 13 14  1  0  0  0
M  END
> <minimizedAffinity>
-10.06091

$$$$



 34 37  0  0  0  0  0  0  0  0999 V2000
    0.0170   64.0337   84.7527 C   0  0  0  0  0  0  0  0  0  0  0  0
    0.8442   65.0153   85.3197 C   0  0  0  0  0  0  0  0  0  0  0  0
    1.4786   65.9695   84.5200 C   0  0  0  0  0  0  0  0  0  0  0  0
    1.2849   65.9526   83.1412 C   0  0  0  0  0  0  0  0  0  0  0  0
    0.4736   64.9823   82.5536 C   0  0  0  0  0  0  0  0  0  0  0  0
   -0.1801   64.0247   83.3515 C   0  0  0  0  0  0  0  0  0  0  0  0
   -1.0656   63.0494   82.6297 C   0  0  0  0  0  0  0  0  0  0  0  0
   -1.2304   63.1393   81.3464 N   0  0  0  0  0  0  0  0  0  0  0  0
   -2.0498   62.2244   80.7243 C   0  0  0  0  0  0  0  0  0  0  0  0
   -2.6793   61.2315   81.3690 C   0  0  0  0  0  0  0  0  0  0  0  0
   -2.5066   61.1382   82.8218 C   0  0  0  0  0  0  0  0  0  0  0  0
   -3.0754   60.2767   83.4816 O   0  0  0  0  0  0  0  0  0  0  0  0
   -1.6819   62.0723   83.3673 N   0  0  0  0  0  0  0  0  0  0  0  0
   -1.5590   62.0389   84.3710 H   0  0  0  0  0  0  0  0  0  0  0  0
   -2.1979   62.3454   79.2524 C   0  0  0  0  0  0  0  0  0  0  0  0
   -3.3086   61.8232   78.5699 C   0  0  0  0  0  0  0  0  0  0  0  0
   -3.4269   61.9629   77.1838 C   0  0  0  0  0  0  0  0  0  0  0  0
   -2.4419   62.6341   76.4627 C   0  0  0  0  0  0  0  0  0  0  0  0
   -1.3415   63.1715   77.1257 C   0  0  0  0  0  0  0  0  0  0  0  0
   -1.2233   63.0314   78.5108 C   0  0  0  0  0  0  0  0  0  0  0  0
    2.1240   67.1448   82.1267 S   0  0  0  0  0  0  0  0  0  0  0  0
    2.1207   66.6724   80.7594 O   0  0  0  0  0  0  0  0  0  0  0  0
    3.3662   67.4740   82.7946 O   0  0  0  0  0  0  0  0  0  0  0  0
    1.1007   68.5060   82.2207 N   0  0  0  0  0  0  0  0  0  0  0  0
    0.3559   68.8361   80.9574 C   0  0  0  0  0  0  0  0  0  0  0  0
   -0.1596   70.2868   80.9808 C   0  0  0  0  0  0  0  0  0  0  0  0
    0.9304   71.2823   81.0175 N   0  0  0  0  0  0  0  0  0  0  0  0
    0.4474   72.5588   81.5363 C   0  0  0  0  0  0  0  0  0  0  0  0
    2.0972   70.7813   81.7723 C   0  0  0  0  0  0  0  0  0  0  0  0
    1.7625   69.7118   82.8273 C   0  0  0  0  0  0  0  0  0  0  0  0
   -0.6389   63.0802   85.4884 O   0  0  0  0  0  0  0  0  0  0  0  0
   -0.4332   62.9981   86.9016 C   0  0  0  0  0  0  0  0  0  0  0  0
   -2.9511   62.9578   86.8289 C   0  0  0  0  0  0  0  0  0  0  0  0
   -1.7248   63.3174   87.6488 C   0  0  0  0  0  0  0  0  0  0  0  0
 33 34  1  0  0  0
 34 32  1  0  0  0
 32 31  1  0  0  0
 31  1  1  0  0  0
  1  2  1  0  0  0
  2  3  2  0  0  0
  3  4  1  0  0  0
  4 21  1  0  0  0
 21 22  2  0  0  0
 21 23  2  0  0  0
 21 24  1  0  0  0
 24 25  1  0  0  0
 25 26  1  0  0  0
 26 27  1  0  0  0
 27 28  1  0  0  0
 27 29  1  0  0  0
 29 30  1  0  0  0
  4  5  2  0  0  0
  5  6  1  0  0  0
  6  7  1  0  0  0
  7  8  2  0  0  0
  8  9  1  0  0  0
  9 15  1  0  0  0
 15 16  2  0  0  0
 16 17  1  0  0  0
 17 18  2  0  0  0
 18 19  1  0  0  0
 19 20  2  0  0  0
  9 10  2  0  0  0
 10 11  1  0  0  0
 11 12  2  0  0  0
 11 13  1  0  0  0
  6  1  2  0  0  0
 13  7  1  0  0  0
 30 24  1  0  0  0
 20 15  1  0  0  0
 13 14  1  0  0  0
M  END
> <minimizedAffinity>
-10.05599

$$$$



 34 37  0  0  0  0  0  0  0  0999 V2000
    0.1570   63.9144   85.2666 C   0  0  0  0  0  0  0  0  0  0  0  0
   -0.5715   62.7169   85.1983 C   0  0  0  0  0  0  0  0  0  0  0  0
   -0.6601   61.9972   84.0038 C   0  0  0  0  0  0  0  0  0  0  0  0
   -0.0127   62.4690   82.8648 C   0  0  0  0  0  0  0  0  0  0  0  0
    0.7109   63.6605   82.9059 C   0  0  0  0  0  0  0  0  0  0  0  0
    0.8169   64.3862   84.1071 C   0  0  0  0  0  0  0  0  0  0  0  0
    1.6532   65.6331   84.0600 C   0  0  0  0  0  0  0  0  0  0  0  0
    1.2776   66.6476   83.3447 N   0  0  0  0  0  0  0  0  0  0  0  0
    2.0732   67.7710   83.3305 C   0  0  0  0  0  0  0  0  0  0  0  0
    3.2125   67.8837   84.0284 C   0  0  0  0  0  0  0  0  0  0  0  0
    3.6464   66.7321   84.8250 C   0  0  0  0  0  0  0  0  0  0  0  0
    4.6920   66.7508   85.4633 O   0  0  0  0  0  0  0  0  0  0  0  0
    2.8105   65.6595   84.7940 N   0  0  0  0  0  0  0  0  0  0  0  0
    3.0960   64.8458   85.3231 H   0  0  0  0  0  0  0  0  0  0  0  0
    1.6011   68.9196   82.5175 C   0  0  0  0  0  0  0  0  0  0  0  0
    0.7557   68.7503   81.4090 C   0  0  0  0  0  0  0  0  0  0  0  0
    0.3173   69.8525   80.6689 C   0  0  0  0  0  0  0  0  0  0  0  0
    0.7102   71.1388   81.0320 C   0  0  0  0  0  0  0  0  0  0  0  0
    1.5358   71.3259   82.1377 C   0  0  0  0  0  0  0  0  0  0  0  0
    1.9742   70.2243   82.8769 C   0  0  0  0  0  0  0  0  0  0  0  0
   -0.1604   61.5693   81.3405 S   0  0  0  0  0  0  0  0  0  0  0  0
   -1.1410   60.5205   81.5159 O   0  0  0  0  0  0  0  0  0  0  0  0
    1.1829   61.2618   80.8951 O   0  0  0  0  0  0  0  0  0  0  0  0
   -0.8121   62.7333   80.2778 N   0  0  0  0  0  0  0  0  0  0  0  0
   -1.8642   62.2215   79.3341 C   0  0  0  0  0  0  0  0  0  0  0  0
   -2.0551   63.1798   78.1441 C   0  0  0  0  0  0  0  0  0  0  0  0
   -0.8491   63.2929   77.2996 N   0  0  0  0  0  0  0  0  0  0  0  0
   -0.8750   64.5300   76.5243 C   0  0  0  0  0  0  0  0  0  0  0  0
    0.3866   63.1635   78.0986 C   0  0  0  0  0  0  0  0  0  0  0  0
    0.2328   63.5573   79.5785 C   0  0  0  0  0  0  0  0  0  0  0  0
    0.2873   64.6561   86.4127 O   0  0  0  0  0  0  0  0  0  0  0  0
   -0.2182   64.1537   87.6530 C   0  0  0  0  0  0  0  0  0  0  0  0
    0.2949   62.2299   89.1967 C   0  0  0  0  0  0  0  0  0  0  0  0
    0.8694   63.3895   88.4026 C   0  0  0  0  0  0  0  0  0  0  0  0
 33 34  1  0  0  0
 34 32  1  0  0  0
 32 31  1  0  0  0
 31  1  1  0  0  0
  1  2  1  0  0  0
  2  3  2  0  0  0
  3  4  1  0  0  0
  4 21  1  0  0  0
 21 22  2  0  0  0
 21 23  2  0  0  0
 21 24  1  0  0  0
 24 25  1  0  0  0
 25 26  1  0  0  0
 26 27  1  0  0  0
 27 28  1  0  0  0
 27 29  1  0  0  0
 29 30  1  0  0  0
  4  5  2  0  0  0
  5  6  1  0  0  0
  6  7  1  0  0  0
  7  8  2  0  0  0
  8  9  1  0  0  0
  9 15  1  0  0  0
 15 16  2  0  0  0
 16 17  1  0  0  0
 17 18  2  0  0  0
 18 19  1  0  0  0
 19 20  2  0  0  0
  9 10  2  0  0  0
 10 11  1  0  0  0
 11 12  2  0  0  0
 11 13  1  0  0  0
  6  1  2  0  0  0
 13  7  1  0  0  0
 30 24  1  0  0  0
 20 15  1  0  0  0
 13 14  1  0  0  0
M  END
> <minimizedAffinity>
-10.03659

$$$$



 34 37  0  0  0  0  0  0  0  0999 V2000
   -0.3512   63.5356   85.1021 C   0  0  0  0  0  0  0  0  0  0  0  0
   -1.2597   62.4772   85.2566 C   0  0  0  0  0  0  0  0  0  0  0  0
   -1.9609   61.9667   84.1611 C   0  0  0  0  0  0  0  0  0  0  0  0
   -1.7534   62.5097   82.8957 C   0  0  0  0  0  0  0  0  0  0  0  0
   -0.8615   63.5670   82.7182 C   0  0  0  0  0  0  0  0  0  0  0  0
   -0.1408   64.0799   83.8129 C   0  0  0  0  0  0  0  0  0  0  0  0
    0.8267   65.1889   83.5123 C   0  0  0  0  0  0  0  0  0  0  0  0
    1.9075   65.3245   84.2162 N   0  0  0  0  0  0  0  0  0  0  0  0
    2.7676   66.3539   83.9063 C   0  0  0  0  0  0  0  0  0  0  0  0
    2.5592   67.2204   82.9045 C   0  0  0  0  0  0  0  0  0  0  0  0
    1.3302   67.0780   82.1181 C   0  0  0  0  0  0  0  0  0  0  0  0
    1.0575   67.8516   81.2080 O   0  0  0  0  0  0  0  0  0  0  0  0
    0.5303   66.0384   82.4783 N   0  0  0  0  0  0  0  0  0  0  0  0
   -0.3321   65.9286   81.9608 H   0  0  0  0  0  0  0  0  0  0  0  0
    4.0042   66.4654   84.7195 C   0  0  0  0  0  0  0  0  0  0  0  0
    4.6667   67.6898   84.9043 C   0  0  0  0  0  0  0  0  0  0  0  0
    5.8234   67.7664   85.6859 C   0  0  0  0  0  0  0  0  0  0  0  0
    6.3282   66.6227   86.3006 C   0  0  0  0  0  0  0  0  0  0  0  0
    5.6751   65.4032   86.1404 C   0  0  0  0  0  0  0  0  0  0  0  0
    4.5194   65.3269   85.3590 C   0  0  0  0  0  0  0  0  0  0  0  0
   -2.6756   61.8815   81.5139 S   0  0  0  0  0  0  0  0  0  0  0  0
   -3.5700   62.9174   81.0455 O   0  0  0  0  0  0  0  0  0  0  0  0
   -3.1836   60.5803   81.8964 O   0  0  0  0  0  0  0  0  0  0  0  0
   -1.4691   61.6469   80.3313 N   0  0  0  0  0  0  0  0  0  0  0  0
   -1.2202   62.8223   79.4281 C   0  0  0  0  0  0  0  0  0  0  0  0
   -0.4848   62.3904   78.1461 C   0  0  0  0  0  0  0  0  0  0  0  0
   -1.2803   61.4674   77.3120 N   0  0  0  0  0  0  0  0  0  0  0  0
   -0.4154   60.7036   76.4172 C   0  0  0  0  0  0  0  0  0  0  0  0
   -2.1373   60.5922   78.1377 C   0  0  0  0  0  0  0  0  0  0  0  0
   -1.6203   60.3603   79.5687 C   0  0  0  0  0  0  0  0  0  0  0  0
    0.3719   64.0691   86.1381 O   0  0  0  0  0  0  0  0  0  0  0  0
   -0.1496   64.0329   87.4696 C   0  0  0  0  0  0  0  0  0  0  0  0
    0.1942   62.1926   89.1554 C   0  0  0  0  0  0  0  0  0  0  0  0
    0.8375   63.3492   88.4113 C   0  0  0  0  0  0  0  0  0  0  0  0
 33 34  1  0  0  0
 34 32  1  0  0  0
 32 31  1  0  0  0
 31  1  1  0  0  0
  1  2  1  0  0  0
  2  3  2  0  0  0
  3  4  1  0  0  0
  4 21  1  0  0  0
 21 22  2  0  0  0
 21 23  2  0  0  0
 21 24  1  0  0  0
 24 25  1  0  0  0
 25 26  1  0  0  0
 26 27  1  0  0  0
 27 28  1  0  0  0
 27 29  1  0  0  0
 29 30  1  0  0  0
  4  5  2  0  0  0
  5  6  1  0  0  0
  6  7  1  0  0  0
  7  8  2  0  0  0
  8  9  1  0  0  0
  9 15  1  0  0  0
 15 16  2  0  0  0
 16 17  1  0  0  0
 17 18  2  0  0  0
 18 19  1  0  0  0
 19 20  2  0  0  0
  9 10  2  0  0  0
 10 11  1  0  0  0
 11 12  2  0  0  0
 11 13  1  0  0  0
  6  1  2  0  0  0
 13  7  1  0  0  0
 30 24  1  0  0  0
 20 15  1  0  0  0
 13 14  1  0  0  0
M  END
> <minimizedAffinity>
-9.96879

$$$$
