


 34 38  0  0  0  0  0  0  0  0999 V2000
   -0.3914   63.9850   83.3391 N   0  0  0  0  0  0  0  0  0  0  0  0
    0.3566   65.0651   83.8305 C   0  0  0  0  0  0  0  0  0  0  0  0
    0.4833   65.3137   85.0268 O   0  0  0  0  0  0  0  0  0  0  0  0
    0.9337   65.8803   82.7992 C   0  0  0  0  0  0  0  0  0  0  0  0
    0.7729   65.6300   81.4625 C   0  0  0  0  0  0  0  0  0  0  0  0
    1.3599   66.5640   80.6754 N   0  0  0  0  0  0  0  0  0  0  0  0
    1.9118   67.3980   81.5333 C   0  0  0  0  0  0  0  0  0  0  0  0
    1.7014   67.0145   82.8400 N   0  0  0  0  0  0  0  0  0  0  0  0
    0.0877   64.5633   81.0553 N   0  0  0  0  0  0  0  0  0  0  0  0
   -0.3757   64.2878   79.7323 C   0  0  0  0  0  0  0  0  0  0  0  0
   -1.1798   62.9867   79.9849 C   0  0  0  0  0  0  0  0  0  0  0  0
   -1.3262   62.8487   81.4856 N   0  0  0  0  0  0  0  0  0  0  0  0
   -0.5524   63.7834   81.9743 C   0  0  0  0  0  0  0  0  0  0  0  0
   -0.1988   61.9758   84.7551 C   0  0  0  0  0  0  0  0  0  0  0  0
   -1.0828   63.1237   84.2896 C   0  0  0  0  0  0  0  0  0  0  0  0
    2.5973   68.4941   81.2190 O   0  0  0  0  0  0  0  0  0  0  0  0
    2.1222   69.1714   80.0609 C   0  0  0  0  0  0  0  0  0  0  0  0
    2.1734   67.7272   84.0133 C   0  0  0  0  0  0  0  0  0  0  0  0
    3.5856   67.3327   84.3724 C   0  0  0  0  0  0  0  0  0  0  0  0
    4.6802   68.0551   83.8821 C   0  0  0  0  0  0  0  0  0  0  0  0
    5.9907   67.6999   84.2263 C   0  0  0  0  0  0  0  0  0  0  0  0
    6.2359   66.6129   85.0699 C   0  0  0  0  0  0  0  0  0  0  0  0
    5.1407   65.8862   85.5612 C   0  0  0  0  0  0  0  0  0  0  0  0
    5.3567   64.5263   86.6091 Cl  0  0  0  0  0  0  0  0  0  0  0  0
    3.8313   66.2414   85.2170 C   0  0  0  0  0  0  0  0  0  0  0  0
    7.4819   66.1947   85.4576 O   0  0  0  0  0  0  0  0  0  0  0  0
    8.6057   66.8185   84.8513 C   0  0  0  0  0  0  0  0  0  0  0  0
   -0.4541   61.7539   79.4206 C   0  0  0  0  0  0  0  0  0  0  0  0
   -1.2578   61.0236   78.3683 C   0  0  0  0  0  0  0  0  0  0  0  0
   -0.7723   59.8405   77.7941 C   0  0  0  0  0  0  0  0  0  0  0  0
   -1.5142   59.1702   76.8197 C   0  0  0  0  0  0  0  0  0  0  0  0
   -2.7453   59.6765   76.4074 C   0  0  0  0  0  0  0  0  0  0  0  0
   -3.2351   60.8543   76.9681 C   0  0  0  0  0  0  0  0  0  0  0  0
   -2.4951   61.5246   77.9431 C   0  0  0  0  0  0  0  0  0  0  0  0
 14 15  1  0  0  0
 15  1  1  0  0  0
  1  2  1  0  0  0
  2  3  2  0  0  0
  2  4  1  0  0  0
  4  5  2  0  0  0
  5  6  1  0  0  0
  6  7  2  0  0  0
  7 16  1  0  0  0
 16 17  1  0  0  0
  7  8  1  0  0  0
  8 18  1  0  0  0
 18 19  1  0  0  0
 19 20  1  0  0  0
 20 21  2  0  0  0
 21 22  1  0  0  0
 22 26  1  0  0  0
 26 27  1  0  0  0
 22 23  2  0  0  0
 23 24  1  0  0  0
 23 25  1  0  0  0
  5  9  1  0  0  0
  9 10  1  0  0  0
 10 11  1  0  0  0
 11 28  1  0  0  0
 28 29  1  0  0  0
 29 30  2  0  0  0
 30 31  1  0  0  0
 31 32  2  0  0  0
 32 33  1  0  0  0
 33 34  2  0  0  0
 11 12  1  0  0  0
 12 13  2  0  0  0
 13  1  1  0  0  0
  8  4  1  0  0  0
 25 19  2  0  0  0
 13  9  1  0  0  0
 34 29  1  0  0  0
M  END
> <minimizedAffinity>
-9.32373

$$$$



 34 38  0  0  0  0  0  0  0  0999 V2000
    1.8608   67.9964   83.0641 N   0  0  0  0  0  0  0  0  0  0  0  0
    1.7382   66.6002   83.0091 C   0  0  0  0  0  0  0  0  0  0  0  0
    2.3063   65.8383   83.7875 O   0  0  0  0  0  0  0  0  0  0  0  0
    0.9119   66.1385   81.9295 C   0  0  0  0  0  0  0  0  0  0  0  0
    0.2992   66.9778   81.0376 C   0  0  0  0  0  0  0  0  0  0  0  0
   -0.3826   66.3159   80.0714 N   0  0  0  0  0  0  0  0  0  0  0  0
   -0.2093   65.0458   80.3766 C   0  0  0  0  0  0  0  0  0  0  0  0
    0.5527   64.8835   81.5132 N   0  0  0  0  0  0  0  0  0  0  0  0
    0.4164   68.2980   81.1662 N   0  0  0  0  0  0  0  0  0  0  0  0
    0.0552   69.2945   80.2083 C   0  0  0  0  0  0  0  0  0  0  0  0
    0.5585   70.5701   80.9314 C   0  0  0  0  0  0  0  0  0  0  0  0
    1.4227   70.1057   82.0846 N   0  0  0  0  0  0  0  0  0  0  0  0
    1.2446   68.8102   82.1222 C   0  0  0  0  0  0  0  0  0  0  0  0
    4.1869   68.5781   83.6388 C   0  0  0  0  0  0  0  0  0  0  0  0
    2.7295   68.5822   84.0768 C   0  0  0  0  0  0  0  0  0  0  0  0
   -0.6923   64.0106   79.6946 O   0  0  0  0  0  0  0  0  0  0  0  0
   -0.0519   63.7815   78.4443 C   0  0  0  0  0  0  0  0  0  0  0  0
    0.9276   63.6102   82.1012 C   0  0  0  0  0  0  0  0  0  0  0  0
   -0.0954   63.1397   83.1066 C   0  0  0  0  0  0  0  0  0  0  0  0
   -0.0981   63.6369   84.4155 C   0  0  0  0  0  0  0  0  0  0  0  0
   -1.0558   63.2131   85.3456 C   0  0  0  0  0  0  0  0  0  0  0  0
   -2.0338   62.2813   84.9867 C   0  0  0  0  0  0  0  0  0  0  0  0
   -2.0323   61.7802   83.6761 C   0  0  0  0  0  0  0  0  0  0  0  0
   -3.2067   60.6229   83.1509 Cl  0  0  0  0  0  0  0  0  0  0  0  0
   -1.0750   62.2040   82.7469 C   0  0  0  0  0  0  0  0  0  0  0  0
   -3.0065   61.8110   85.8295 O   0  0  0  0  0  0  0  0  0  0  0  0
   -2.7858   61.9371   87.2276 C   0  0  0  0  0  0  0  0  0  0  0  0
   -0.6091   71.4149   81.4676 C   0  0  0  0  0  0  0  0  0  0  0  0
   -1.0681   72.4769   80.4939 C   0  0  0  0  0  0  0  0  0  0  0  0
   -2.1959   72.2660   79.6884 C   0  0  0  0  0  0  0  0  0  0  0  0
   -2.6153   73.2463   78.7869 C   0  0  0  0  0  0  0  0  0  0  0  0
   -1.9110   74.4439   78.6792 C   0  0  0  0  0  0  0  0  0  0  0  0
   -0.7859   74.6619   79.4716 C   0  0  0  0  0  0  0  0  0  0  0  0
   -0.3663   73.6835   80.3739 C   0  0  0  0  0  0  0  0  0  0  0  0
 14 15  1  0  0  0
 15  1  1  0  0  0
  1  2  1  0  0  0
  2  3  2  0  0  0
  2  4  1  0  0  0
  4  5  2  0  0  0
  5  6  1  0  0  0
  6  7  2  0  0  0
  7 16  1  0  0  0
 16 17  1  0  0  0
  7  8  1  0  0  0
  8 18  1  0  0  0
 18 19  1  0  0  0
 19 20  1  0  0  0
 20 21  2  0  0  0
 21 22  1  0  0  0
 22 26  1  0  0  0
 26 27  1  0  0  0
 22 23  2  0  0  0
 23 24  1  0  0  0
 23 25  1  0  0  0
  5  9  1  0  0  0
  9 10  1  0  0  0
 10 11  1  0  0  0
 11 28  1  0  0  0
 28 29  1  0  0  0
 29 30  2  0  0  0
 30 31  1  0  0  0
 31 32  2  0  0  0
 32 33  1  0  0  0
 33 34  2  0  0  0
 11 12  1  0  0  0
 12 13  2  0  0  0
 13  1  1  0  0  0
  8  4  1  0  0  0
 25 19  2  0  0  0
 13  9  1  0  0  0
 34 29  1  0  0  0
M  END
> <minimizedAffinity>
-9.04104

$$$$



 34 38  0  0  0  0  0  0  0  0999 V2000
    0.5710   64.3970   80.4053 N   0  0  0  0  0  0  0  0  0  0  0  0
    0.9465   65.3979   81.3135 C   0  0  0  0  0  0  0  0  0  0  0  0
    1.4428   66.4693   80.9748 O   0  0  0  0  0  0  0  0  0  0  0  0
    0.7300   65.0380   82.6864 C   0  0  0  0  0  0  0  0  0  0  0  0
    0.2061   63.8343   83.0761 C   0  0  0  0  0  0  0  0  0  0  0  0
    0.1462   63.6950   84.4228 N   0  0  0  0  0  0  0  0  0  0  0  0
    0.6210   64.8361   84.8796 C   0  0  0  0  0  0  0  0  0  0  0  0
    0.9696   65.6983   83.8628 N   0  0  0  0  0  0  0  0  0  0  0  0
   -0.1732   62.9392   82.1662 N   0  0  0  0  0  0  0  0  0  0  0  0
   -0.5056   61.5679   82.3898 C   0  0  0  0  0  0  0  0  0  0  0  0
   -0.7269   61.0942   80.9304 C   0  0  0  0  0  0  0  0  0  0  0  0
   -0.1929   62.1887   80.0307 N   0  0  0  0  0  0  0  0  0  0  0  0
    0.0692   63.1786   80.8447 C   0  0  0  0  0  0  0  0  0  0  0  0
   -0.4299   65.1723   78.2897 C   0  0  0  0  0  0  0  0  0  0  0  0
    0.8057   64.6188   78.9844 C   0  0  0  0  0  0  0  0  0  0  0  0
    0.7664   65.1586   86.1621 O   0  0  0  0  0  0  0  0  0  0  0  0
    0.4359   64.1143   87.0709 C   0  0  0  0  0  0  0  0  0  0  0  0
    1.5293   67.0262   84.0394 C   0  0  0  0  0  0  0  0  0  0  0  0
    3.0074   66.9705   84.3409 C   0  0  0  0  0  0  0  0  0  0  0  0
    3.8879   67.9133   83.7965 C   0  0  0  0  0  0  0  0  0  0  0  0
    5.2575   67.8726   84.0872 C   0  0  0  0  0  0  0  0  0  0  0  0
    5.7777   66.8866   84.9303 C   0  0  0  0  0  0  0  0  0  0  0  0
    4.8977   65.9396   85.4758 C   0  0  0  0  0  0  0  0  0  0  0  0
    5.4600   64.6854   86.5271 Cl  0  0  0  0  0  0  0  0  0  0  0  0
    3.5292   65.9807   85.1851 C   0  0  0  0  0  0  0  0  0  0  0  0
    7.1007   66.7707   85.2679 O   0  0  0  0  0  0  0  0  0  0  0  0
    7.8529   65.7387   84.6446 C   0  0  0  0  0  0  0  0  0  0  0  0
   -2.2169   60.8597   80.6309 C   0  0  0  0  0  0  0  0  0  0  0  0
   -2.5349   60.8833   79.1528 C   0  0  0  0  0  0  0  0  0  0  0  0
   -3.2614   61.9456   78.5967 C   0  0  0  0  0  0  0  0  0  0  0  0
   -3.5574   61.9631   77.2324 C   0  0  0  0  0  0  0  0  0  0  0  0
   -3.1341   60.9193   76.4119 C   0  0  0  0  0  0  0  0  0  0  0  0
   -2.4155   59.8563   76.9551 C   0  0  0  0  0  0  0  0  0  0  0  0
   -2.1179   59.8381   78.3184 C   0  0  0  0  0  0  0  0  0  0  0  0
 14 15  1  0  0  0
 15  1  1  0  0  0
  1  2  1  0  0  0
  2  3  2  0  0  0
  2  4  1  0  0  0
  4  5  2  0  0  0
  5  6  1  0  0  0
  6  7  2  0  0  0
  7 16  1  0  0  0
 16 17  1  0  0  0
  7  8  1  0  0  0
  8 18  1  0  0  0
 18 19  1  0  0  0
 19 20  1  0  0  0
 20 21  2  0  0  0
 21 22  1  0  0  0
 22 26  1  0  0  0
 26 27  1  0  0  0
 22 23  2  0  0  0
 23 24  1  0  0  0
 23 25  1  0  0  0
  5  9  1  0  0  0
  9 10  1  0  0  0
 10 11  1  0  0  0
 11 28  1  0  0  0
 28 29  1  0  0  0
 29 30  2  0  0  0
 30 31  1  0  0  0
 31 32  2  0  0  0
 32 33  1  0  0  0
 33 34  2  0  0  0
 11 12  1  0  0  0
 12 13  2  0  0  0
 13  1  1  0  0  0
  8  4  1  0  0  0
 25 19  2  0  0  0
 13  9  1  0  0  0
 34 29  1  0  0  0
M  END
> <minimizedAffinity>
-8.99606

$$$$



 34 38  0  0  0  0  0  0  0  0999 V2000
    0.2333   64.5885   80.3440 N   0  0  0  0  0  0  0  0  0  0  0  0
    0.8765   65.8317   80.2531 C   0  0  0  0  0  0  0  0  0  0  0  0
    1.0325   66.4390   79.1968 O   0  0  0  0  0  0  0  0  0  0  0  0
    1.3717   66.3152   81.5111 C   0  0  0  0  0  0  0  0  0  0  0  0
    1.2305   65.6317   82.6892 C   0  0  0  0  0  0  0  0  0  0  0  0
    1.8258   66.2536   83.7358 N   0  0  0  0  0  0  0  0  0  0  0  0
    2.3285   67.3506   83.2067 C   0  0  0  0  0  0  0  0  0  0  0  0
    2.0601   67.4478   81.8586 N   0  0  0  0  0  0  0  0  0  0  0  0
    0.5711   64.4753   82.7214 N   0  0  0  0  0  0  0  0  0  0  0  0
    0.5383   63.5293   83.7916 C   0  0  0  0  0  0  0  0  0  0  0  0
   -0.2878   62.3944   83.1337 C   0  0  0  0  0  0  0  0  0  0  0  0
   -0.3648   62.7114   81.6552 N   0  0  0  0  0  0  0  0  0  0  0  0
    0.1362   63.9157   81.5552 C   0  0  0  0  0  0  0  0  0  0  0  0
    0.8497   63.1979   78.4035 C   0  0  0  0  0  0  0  0  0  0  0  0
   -0.2531   63.9624   79.1214 C   0  0  0  0  0  0  0  0  0  0  0  0
    3.0220   68.2800   83.8589 O   0  0  0  0  0  0  0  0  0  0  0  0
    3.9958   67.7619   84.7585 C   0  0  0  0  0  0  0  0  0  0  0  0
    2.4847   68.5317   80.9912 C   0  0  0  0  0  0  0  0  0  0  0  0
    1.6719   69.7820   81.2258 C   0  0  0  0  0  0  0  0  0  0  0  0
    0.3646   69.8917   80.7366 C   0  0  0  0  0  0  0  0  0  0  0  0
   -0.3966   71.0448   80.9662 C   0  0  0  0  0  0  0  0  0  0  0  0
    0.1335   72.1155   81.6915 C   0  0  0  0  0  0  0  0  0  0  0  0
    1.4440   72.0089   82.1814 C   0  0  0  0  0  0  0  0  0  0  0  0
    2.1760   73.2889   83.0869 Cl  0  0  0  0  0  0  0  0  0  0  0  0
    2.2044   70.8564   81.9517 C   0  0  0  0  0  0  0  0  0  0  0  0
   -0.5373   73.2793   81.9627 O   0  0  0  0  0  0  0  0  0  0  0  0
   -0.5296   74.2928   80.9666 C   0  0  0  0  0  0  0  0  0  0  0  0
   -1.7072   62.3141   83.7201 C   0  0  0  0  0  0  0  0  0  0  0  0
   -1.7314   62.4147   85.2286 C   0  0  0  0  0  0  0  0  0  0  0  0
   -2.8432   62.9557   85.8893 C   0  0  0  0  0  0  0  0  0  0  0  0
   -2.8616   63.0515   87.2821 C   0  0  0  0  0  0  0  0  0  0  0  0
   -1.7694   62.6113   88.0273 C   0  0  0  0  0  0  0  0  0  0  0  0
   -0.6572   62.0764   87.3806 C   0  0  0  0  0  0  0  0  0  0  0  0
   -0.6380   61.9790   85.9885 C   0  0  0  0  0  0  0  0  0  0  0  0
 14 15  1  0  0  0
 15  1  1  0  0  0
  1  2  1  0  0  0
  2  3  2  0  0  0
  2  4  1  0  0  0
  4  5  2  0  0  0
  5  6  1  0  0  0
  6  7  2  0  0  0
  7 16  1  0  0  0
 16 17  1  0  0  0
  7  8  1  0  0  0
  8 18  1  0  0  0
 18 19  1  0  0  0
 19 20  1  0  0  0
 20 21  2  0  0  0
 21 22  1  0  0  0
 22 26  1  0  0  0
 26 27  1  0  0  0
 22 23  2  0  0  0
 23 24  1  0  0  0
 23 25  1  0  0  0
  5  9  1  0  0  0
  9 10  1  0  0  0
 10 11  1  0  0  0
 11 28  1  0  0  0
 28 29  1  0  0  0
 29 30  2  0  0  0
 30 31  1  0  0  0
 31 32  2  0  0  0
 32 33  1  0  0  0
 33 34  2  0  0  0
 11 12  1  0  0  0
 12 13  2  0  0  0
 13  1  1  0  0  0
  8  4  1  0  0  0
 25 19  2  0  0  0
 13  9  1  0  0  0
 34 29  1  0  0  0
M  END
> <minimizedAffinity>
-8.94864

$$$$



 34 38  0  0  0  0  0  0  0  0999 V2000
    1.9824   68.0261   83.2772 N   0  0  0  0  0  0  0  0  0  0  0  0
    1.7598   66.6412   83.2885 C   0  0  0  0  0  0  0  0  0  0  0  0
    2.2877   65.8761   84.0916 O   0  0  0  0  0  0  0  0  0  0  0  0
    0.8814   66.1923   82.2454 C   0  0  0  0  0  0  0  0  0  0  0  0
    0.3122   67.0327   81.3261 C   0  0  0  0  0  0  0  0  0  0  0  0
   -0.4341   66.3789   80.4030 N   0  0  0  0  0  0  0  0  0  0  0  0
   -0.3454   65.1146   80.7634 C   0  0  0  0  0  0  0  0  0  0  0  0
    0.4256   64.9490   81.8934 N   0  0  0  0  0  0  0  0  0  0  0  0
    0.5254   68.3455   81.3918 N   0  0  0  0  0  0  0  0  0  0  0  0
    0.2170   69.3215   80.3951 C   0  0  0  0  0  0  0  0  0  0  0  0
    0.8240   70.5887   81.0501 C   0  0  0  0  0  0  0  0  0  0  0  0
    1.6759   70.1154   82.2089 N   0  0  0  0  0  0  0  0  0  0  0  0
    1.4069   68.8391   82.3092 C   0  0  0  0  0  0  0  0  0  0  0  0
    4.3564   68.4423   83.7968 C   0  0  0  0  0  0  0  0  0  0  0  0
    2.9106   68.5927   84.2471 C   0  0  0  0  0  0  0  0  0  0  0  0
   -0.9143   64.0873   80.1380 O   0  0  0  0  0  0  0  0  0  0  0  0
   -0.3095   63.7495   78.8947 C   0  0  0  0  0  0  0  0  0  0  0  0
    0.7207   63.6796   82.5331 C   0  0  0  0  0  0  0  0  0  0  0  0
   -0.2323   63.3948   83.6686 C   0  0  0  0  0  0  0  0  0  0  0  0
   -1.4825   62.8121   83.4285 C   0  0  0  0  0  0  0  0  0  0  0  0
   -2.3621   62.5329   84.4823 C   0  0  0  0  0  0  0  0  0  0  0  0
   -2.0101   62.8308   85.8017 C   0  0  0  0  0  0  0  0  0  0  0  0
   -0.7585   63.4165   86.0449 C   0  0  0  0  0  0  0  0  0  0  0  0
   -0.2461   63.8182   87.6481 Cl  0  0  0  0  0  0  0  0  0  0  0  0
    0.1202   63.6952   84.9915 C   0  0  0  0  0  0  0  0  0  0  0  0
   -2.8062   62.5936   86.8915 O   0  0  0  0  0  0  0  0  0  0  0  0
   -2.8315   61.2729   87.4154 C   0  0  0  0  0  0  0  0  0  0  0  0
   -0.2697   71.5385   81.5663 C   0  0  0  0  0  0  0  0  0  0  0  0
   -0.7147   72.5474   80.5316 C   0  0  0  0  0  0  0  0  0  0  0  0
    0.0567   73.6885   80.2706 C   0  0  0  0  0  0  0  0  0  0  0  0
   -0.3584   74.6208   79.3178 C   0  0  0  0  0  0  0  0  0  0  0  0
   -1.5483   74.4242   78.6197 C   0  0  0  0  0  0  0  0  0  0  0  0
   -2.3251   73.2959   78.8746 C   0  0  0  0  0  0  0  0  0  0  0  0
   -1.9108   72.3626   79.8259 C   0  0  0  0  0  0  0  0  0  0  0  0
 14 15  1  0  0  0
 15  1  1  0  0  0
  1  2  1  0  0  0
  2  3  2  0  0  0
  2  4  1  0  0  0
  4  5  2  0  0  0
  5  6  1  0  0  0
  6  7  2  0  0  0
  7 16  1  0  0  0
 16 17  1  0  0  0
  7  8  1  0  0  0
  8 18  1  0  0  0
 18 19  1  0  0  0
 19 20  1  0  0  0
 20 21  2  0  0  0
 21 22  1  0  0  0
 22 26  1  0  0  0
 26 27  1  0  0  0
 22 23  2  0  0  0
 23 24  1  0  0  0
 23 25  1  0  0  0
  5  9  1  0  0  0
  9 10  1  0  0  0
 10 11  1  0  0  0
 11 28  1  0  0  0
 28 29  1  0  0  0
 29 30  2  0  0  0
 30 31  1  0  0  0
 31 32  2  0  0  0
 32 33  1  0  0  0
 33 34  2  0  0  0
 11 12  1  0  0  0
 12 13  2  0  0  0
 13  1  1  0  0  0
  8  4  1  0  0  0
 25 19  2  0  0  0
 13  9  1  0  0  0
 34 29  1  0  0  0
M  END
> <minimizedAffinity>
-8.93123

$$$$



 34 38  0  0  0  0  0  0  0  0999 V2000
    0.6759   67.2178   81.2677 N   0  0  0  0  0  0  0  0  0  0  0  0
   -0.1883   66.1191   81.1507 C   0  0  0  0  0  0  0  0  0  0  0  0
   -0.9276   65.9375   80.1867 O   0  0  0  0  0  0  0  0  0  0  0  0
   -0.1562   65.2401   82.2855 C   0  0  0  0  0  0  0  0  0  0  0  0
    0.6413   65.4499   83.3787 C   0  0  0  0  0  0  0  0  0  0  0  0
    0.4621   64.5218   84.3498 N   0  0  0  0  0  0  0  0  0  0  0  0
   -0.4458   63.7100   83.8468 C   0  0  0  0  0  0  0  0  0  0  0  0
   -0.8391   64.0898   82.5819 N   0  0  0  0  0  0  0  0  0  0  0  0
    1.4747   66.4878   83.4145 N   0  0  0  0  0  0  0  0  0  0  0  0
    2.1856   66.9860   84.5492 C   0  0  0  0  0  0  0  0  0  0  0  0
    2.8491   68.2434   83.9312 C   0  0  0  0  0  0  0  0  0  0  0  0
    2.1843   68.4731   82.5904 N   0  0  0  0  0  0  0  0  0  0  0  0
    1.4477   67.4077   82.4068 C   0  0  0  0  0  0  0  0  0  0  0  0
   -0.2698   69.3653   80.5108 C   0  0  0  0  0  0  0  0  0  0  0  0
    0.6825   68.2177   80.2078 C   0  0  0  0  0  0  0  0  0  0  0  0
   -0.9529   62.6405   84.4543 O   0  0  0  0  0  0  0  0  0  0  0  0
   -1.4242   62.8843   85.7750 C   0  0  0  0  0  0  0  0  0  0  0  0
   -1.8283   63.4077   81.7672 C   0  0  0  0  0  0  0  0  0  0  0  0
   -1.2321   62.9035   80.4752 C   0  0  0  0  0  0  0  0  0  0  0  0
    0.0662   62.3806   80.4387 C   0  0  0  0  0  0  0  0  0  0  0  0
    0.6157   61.8982   79.2440 C   0  0  0  0  0  0  0  0  0  0  0  0
   -0.1223   61.9281   78.0574 C   0  0  0  0  0  0  0  0  0  0  0  0
   -1.4230   62.4532   78.0909 C   0  0  0  0  0  0  0  0  0  0  0  0
   -2.4030   62.5284   76.6667 Cl  0  0  0  0  0  0  0  0  0  0  0  0
   -1.9718   62.9351   79.2850 C   0  0  0  0  0  0  0  0  0  0  0  0
    0.3345   61.4796   76.8458 O   0  0  0  0  0  0  0  0  0  0  0  0
   -0.1036   60.2007   76.4077 C   0  0  0  0  0  0  0  0  0  0  0  0
    4.3610   68.0456   83.7316 C   0  0  0  0  0  0  0  0  0  0  0  0
    4.9998   67.2196   84.8253 C   0  0  0  0  0  0  0  0  0  0  0  0
    5.4857   65.9327   84.5553 C   0  0  0  0  0  0  0  0  0  0  0  0
    6.0713   65.1702   85.5677 C   0  0  0  0  0  0  0  0  0  0  0  0
    6.1740   65.6840   86.8590 C   0  0  0  0  0  0  0  0  0  0  0  0
    5.6900   66.9601   87.1395 C   0  0  0  0  0  0  0  0  0  0  0  0
    5.1055   67.7238   86.1282 C   0  0  0  0  0  0  0  0  0  0  0  0
 14 15  1  0  0  0
 15  1  1  0  0  0
  1  2  1  0  0  0
  2  3  2  0  0  0
  2  4  1  0  0  0
  4  5  2  0  0  0
  5  6  1  0  0  0
  6  7  2  0  0  0
  7 16  1  0  0  0
 16 17  1  0  0  0
  7  8  1  0  0  0
  8 18  1  0  0  0
 18 19  1  0  0  0
 19 20  1  0  0  0
 20 21  2  0  0  0
 21 22  1  0  0  0
 22 26  1  0  0  0
 26 27  1  0  0  0
 22 23  2  0  0  0
 23 24  1  0  0  0
 23 25  1  0  0  0
  5  9  1  0  0  0
  9 10  1  0  0  0
 10 11  1  0  0  0
 11 28  1  0  0  0
 28 29  1  0  0  0
 29 30  2  0  0  0
 30 31  1  0  0  0
 31 32  2  0  0  0
 32 33  1  0  0  0
 33 34  2  0  0  0
 11 12  1  0  0  0
 12 13  2  0  0  0
 13  1  1  0  0  0
  8  4  1  0  0  0
 25 19  2  0  0  0
 13  9  1  0  0  0
 34 29  1  0  0  0
M  END
> <minimizedAffinity>
-8.84423

$$$$



 34 38  0  0  0  0  0  0  0  0999 V2000
    0.8741   65.1735   80.1423 N   0  0  0  0  0  0  0  0  0  0  0  0
    1.5467   66.3856   80.3571 C   0  0  0  0  0  0  0  0  0  0  0  0
    2.0153   67.0708   79.4516 O   0  0  0  0  0  0  0  0  0  0  0  0
    1.6704   66.7356   81.7440 C   0  0  0  0  0  0  0  0  0  0  0  0
    1.1790   65.9634   82.7626 C   0  0  0  0  0  0  0  0  0  0  0  0
    1.4628   66.4639   83.9896 N   0  0  0  0  0  0  0  0  0  0  0  0
    2.1235   67.5745   83.7324 C   0  0  0  0  0  0  0  0  0  0  0  0
    2.2572   67.7984   82.3793 N   0  0  0  0  0  0  0  0  0  0  0  0
    0.5100   64.8435   82.4956 N   0  0  0  0  0  0  0  0  0  0  0  0
    0.1471   63.8137   83.4170 C   0  0  0  0  0  0  0  0  0  0  0  0
   -0.4822   62.7817   82.4463 C   0  0  0  0  0  0  0  0  0  0  0  0
   -0.1223   63.2256   81.0442 N   0  0  0  0  0  0  0  0  0  0  0  0
    0.4158   64.4070   81.2061 C   0  0  0  0  0  0  0  0  0  0  0  0
   -0.5299   65.1790   78.1155 C   0  0  0  0  0  0  0  0  0  0  0  0
    0.7453   64.6781   78.7780 C   0  0  0  0  0  0  0  0  0  0  0  0
    2.6224   68.4092   84.6405 O   0  0  0  0  0  0  0  0  0  0  0  0
    3.9451   68.0952   85.0619 C   0  0  0  0  0  0  0  0  0  0  0  0
    2.9402   68.9285   81.7760 C   0  0  0  0  0  0  0  0  0  0  0  0
    2.1160   70.1898   81.8684 C   0  0  0  0  0  0  0  0  0  0  0  0
    2.5127   71.2486   82.6943 C   0  0  0  0  0  0  0  0  0  0  0  0
    1.7574   72.4258   82.7698 C   0  0  0  0  0  0  0  0  0  0  0  0
    0.5869   72.5705   82.0198 C   0  0  0  0  0  0  0  0  0  0  0  0
    0.1862   71.5102   81.1928 C   0  0  0  0  0  0  0  0  0  0  0  0
   -1.2505   71.6072   80.2332 Cl  0  0  0  0  0  0  0  0  0  0  0  0
    0.9412   70.3340   81.1176 C   0  0  0  0  0  0  0  0  0  0  0  0
   -0.2123   73.6835   82.0324 O   0  0  0  0  0  0  0  0  0  0  0  0
    0.4251   74.9537   82.0332 C   0  0  0  0  0  0  0  0  0  0  0  0
   -2.0118   62.7248   82.5941 C   0  0  0  0  0  0  0  0  0  0  0  0
   -2.6680   61.7880   81.6050 C   0  0  0  0  0  0  0  0  0  0  0  0
   -2.5233   60.3996   81.7341 C   0  0  0  0  0  0  0  0  0  0  0  0
   -3.1267   59.5366   80.8172 C   0  0  0  0  0  0  0  0  0  0  0  0
   -3.8767   60.0517   79.7618 C   0  0  0  0  0  0  0  0  0  0  0  0
   -4.0230   61.4303   79.6213 C   0  0  0  0  0  0  0  0  0  0  0  0
   -3.4215   62.2939   80.5377 C   0  0  0  0  0  0  0  0  0  0  0  0
 14 15  1  0  0  0
 15  1  1  0  0  0
  1  2  1  0  0  0
  2  3  2  0  0  0
  2  4  1  0  0  0
  4  5  2  0  0  0
  5  6  1  0  0  0
  6  7  2  0  0  0
  7 16  1  0  0  0
 16 17  1  0  0  0
  7  8  1  0  0  0
  8 18  1  0  0  0
 18 19  1  0  0  0
 19 20  1  0  0  0
 20 21  2  0  0  0
 21 22  1  0  0  0
 22 26  1  0  0  0
 26 27  1  0  0  0
 22 23  2  0  0  0
 23 24  1  0  0  0
 23 25  1  0  0  0
  5  9  1  0  0  0
  9 10  1  0  0  0
 10 11  1  0  0  0
 11 28  1  0  0  0
 28 29  1  0  0  0
 29 30  2  0  0  0
 30 31  1  0  0  0
 31 32  2  0  0  0
 32 33  1  0  0  0
 33 34  2  0  0  0
 11 12  1  0  0  0
 12 13  2  0  0  0
 13  1  1  0  0  0
  8  4  1  0  0  0
 25 19  2  0  0  0
 13  9  1  0  0  0
 34 29  1  0  0  0
M  END
> <minimizedAffinity>
-8.80824

$$$$



 34 38  0  0  0  0  0  0  0  0999 V2000
    0.8347   68.0517   81.2164 N   0  0  0  0  0  0  0  0  0  0  0  0
   -0.0727   67.0602   80.8146 C   0  0  0  0  0  0  0  0  0  0  0  0
   -0.7874   67.1578   79.8203 O   0  0  0  0  0  0  0  0  0  0  0  0
   -0.1163   65.9297   81.6985 C   0  0  0  0  0  0  0  0  0  0  0  0
    0.6536   65.8248   82.8261 C   0  0  0  0  0  0  0  0  0  0  0  0
    0.4023   64.6974   83.5349 N   0  0  0  0  0  0  0  0  0  0  0  0
   -0.5236   64.0806   82.8288 C   0  0  0  0  0  0  0  0  0  0  0  0
   -0.8583   64.7779   81.6884 N   0  0  0  0  0  0  0  0  0  0  0  0
    1.5301   66.7789   83.1336 N   0  0  0  0  0  0  0  0  0  0  0  0
    2.2249   66.9474   84.3705 C   0  0  0  0  0  0  0  0  0  0  0  0
    2.9627   68.2826   84.0950 C   0  0  0  0  0  0  0  0  0  0  0  0
    2.3527   68.8670   82.8385 N   0  0  0  0  0  0  0  0  0  0  0  0
    1.5764   67.9177   82.3830 C   0  0  0  0  0  0  0  0  0  0  0  0
   -0.1502   70.2811   80.8440 C   0  0  0  0  0  0  0  0  0  0  0  0
    0.9197   69.2790   80.4355 C   0  0  0  0  0  0  0  0  0  0  0  0
   -1.0966   62.9219   83.1437 O   0  0  0  0  0  0  0  0  0  0  0  0
   -0.7422   62.4221   84.4283 C   0  0  0  0  0  0  0  0  0  0  0  0
   -1.8495   64.3670   80.7104 C   0  0  0  0  0  0  0  0  0  0  0  0
   -1.3904   63.1611   79.9270 C   0  0  0  0  0  0  0  0  0  0  0  0
   -0.1735   63.1745   79.2347 C   0  0  0  0  0  0  0  0  0  0  0  0
    0.2615   62.0513   78.5197 C   0  0  0  0  0  0  0  0  0  0  0  0
   -0.5122   60.8879   78.4813 C   0  0  0  0  0  0  0  0  0  0  0  0
   -1.7329   60.8724   79.1727 C   0  0  0  0  0  0  0  0  0  0  0  0
   -2.7514   59.4735   79.1749 Cl  0  0  0  0  0  0  0  0  0  0  0  0
   -2.1672   61.9950   79.8871 C   0  0  0  0  0  0  0  0  0  0  0  0
   -0.1660   59.7455   77.8083 O   0  0  0  0  0  0  0  0  0  0  0  0
   -0.4010   59.7081   76.4072 C   0  0  0  0  0  0  0  0  0  0  0  0
    4.4702   68.0636   83.8845 C   0  0  0  0  0  0  0  0  0  0  0  0
    5.0966   67.1921   84.9497 C   0  0  0  0  0  0  0  0  0  0  0  0
    5.1184   67.6073   86.2885 C   0  0  0  0  0  0  0  0  0  0  0  0
    5.7011   66.8029   87.2698 C   0  0  0  0  0  0  0  0  0  0  0  0
    6.2699   65.5790   86.9230 C   0  0  0  0  0  0  0  0  0  0  0  0
    6.2579   65.1587   85.5946 C   0  0  0  0  0  0  0  0  0  0  0  0
    5.6747   65.9612   84.6130 C   0  0  0  0  0  0  0  0  0  0  0  0
 14 15  1  0  0  0
 15  1  1  0  0  0
  1  2  1  0  0  0
  2  3  2  0  0  0
  2  4  1  0  0  0
  4  5  2  0  0  0
  5  6  1  0  0  0
  6  7  2  0  0  0
  7 16  1  0  0  0
 16 17  1  0  0  0
  7  8  1  0  0  0
  8 18  1  0  0  0
 18 19  1  0  0  0
 19 20  1  0  0  0
 20 21  2  0  0  0
 21 22  1  0  0  0
 22 26  1  0  0  0
 26 27  1  0  0  0
 22 23  2  0  0  0
 23 24  1  0  0  0
 23 25  1  0  0  0
  5  9  1  0  0  0
  9 10  1  0  0  0
 10 11  1  0  0  0
 11 28  1  0  0  0
 28 29  1  0  0  0
 29 30  2  0  0  0
 30 31  1  0  0  0
 31 32  2  0  0  0
 32 33  1  0  0  0
 33 34  2  0  0  0
 11 12  1  0  0  0
 12 13  2  0  0  0
 13  1  1  0  0  0
  8  4  1  0  0  0
 25 19  2  0  0  0
 13  9  1  0  0  0
 34 29  1  0  0  0
M  END
> <minimizedAffinity>
-8.40554

$$$$



 34 38  0  0  0  0  0  0  0  0999 V2000
    2.0123   67.3692   82.5398 N   0  0  0  0  0  0  0  0  0  0  0  0
    2.0621   68.7359   82.8514 C   0  0  0  0  0  0  0  0  0  0  0  0
    2.6954   69.1926   83.7997 O   0  0  0  0  0  0  0  0  0  0  0  0
    1.2699   69.5535   81.9765 C   0  0  0  0  0  0  0  0  0  0  0  0
    0.5356   69.0511   80.9355 C   0  0  0  0  0  0  0  0  0  0  0  0
   -0.1765   70.0020   80.2835 N   0  0  0  0  0  0  0  0  0  0  0  0
    0.1335   71.1165   80.9143 C   0  0  0  0  0  0  0  0  0  0  0  0
    1.0291   70.9018   81.9394 N   0  0  0  0  0  0  0  0  0  0  0  0
    0.5618   67.7485   80.6605 N   0  0  0  0  0  0  0  0  0  0  0  0
   -0.3117   67.0328   79.7853 C   0  0  0  0  0  0  0  0  0  0  0  0
    0.1842   65.5833   80.0224 C   0  0  0  0  0  0  0  0  0  0  0  0
    1.0832   65.6233   81.2400 N   0  0  0  0  0  0  0  0  0  0  0  0
    1.2321   66.8985   81.4915 C   0  0  0  0  0  0  0  0  0  0  0  0
    1.8261   65.8888   84.5027 C   0  0  0  0  0  0  0  0  0  0  0  0
    2.7225   66.4303   83.3985 C   0  0  0  0  0  0  0  0  0  0  0  0
   -0.3403   72.3269   80.6304 O   0  0  0  0  0  0  0  0  0  0  0  0
   -1.6846   72.3358   80.1628 C   0  0  0  0  0  0  0  0  0  0  0  0
    1.5569   71.9243   82.8246 C   0  0  0  0  0  0  0  0  0  0  0  0
    2.7519   72.6203   82.2194 C   0  0  0  0  0  0  0  0  0  0  0  0
    3.1560   73.8812   82.6748 C   0  0  0  0  0  0  0  0  0  0  0  0
    4.2737   74.5220   82.1251 C   0  0  0  0  0  0  0  0  0  0  0  0
    5.0132   73.9150   81.1062 C   0  0  0  0  0  0  0  0  0  0  0  0
    4.6093   72.6523   80.6468 C   0  0  0  0  0  0  0  0  0  0  0  0
    5.4682   71.8327   79.3878 Cl  0  0  0  0  0  0  0  0  0  0  0  0
    3.4924   72.0122   81.1964 C   0  0  0  0  0  0  0  0  0  0  0  0
    6.1170   74.4677   80.5112 O   0  0  0  0  0  0  0  0  0  0  0  0
    7.1123   75.0271   81.3573 C   0  0  0  0  0  0  0  0  0  0  0  0
    0.9727   65.0499   78.8147 C   0  0  0  0  0  0  0  0  0  0  0  0
    0.2005   64.0323   78.0057 C   0  0  0  0  0  0  0  0  0  0  0  0
    0.5277   62.6708   78.0734 C   0  0  0  0  0  0  0  0  0  0  0  0
   -0.1841   61.7334   77.3223 C   0  0  0  0  0  0  0  0  0  0  0  0
   -1.2262   62.1470   76.4947 C   0  0  0  0  0  0  0  0  0  0  0  0
   -1.5567   63.4983   76.4162 C   0  0  0  0  0  0  0  0  0  0  0  0
   -0.8469   64.4361   77.1674 C   0  0  0  0  0  0  0  0  0  0  0  0
 14 15  1  0  0  0
 15  1  1  0  0  0
  1  2  1  0  0  0
  2  3  2  0  0  0
  2  4  1  0  0  0
  4  5  2  0  0  0
  5  6  1  0  0  0
  6  7  2  0  0  0
  7 16  1  0  0  0
 16 17  1  0  0  0
  7  8  1  0  0  0
  8 18  1  0  0  0
 18 19  1  0  0  0
 19 20  1  0  0  0
 20 21  2  0  0  0
 21 22  1  0  0  0
 22 26  1  0  0  0
 26 27  1  0  0  0
 22 23  2  0  0  0
 23 24  1  0  0  0
 23 25  1  0  0  0
  5  9  1  0  0  0
  9 10  1  0  0  0
 10 11  1  0  0  0
 11 28  1  0  0  0
 28 29  1  0  0  0
 29 30  2  0  0  0
 30 31  1  0  0  0
 31 32  2  0  0  0
 32 33  1  0  0  0
 33 34  2  0  0  0
 11 12  1  0  0  0
 12 13  2  0  0  0
 13  1  1  0  0  0
  8  4  1  0  0  0
 25 19  2  0  0  0
 13  9  1  0  0  0
 34 29  1  0  0  0
M  END
> <minimizedAffinity>
-7.91545

$$$$
