


 40 43  0  0  0  0  0  0  0  0999 V2000
   -0.3596   63.6238   85.0273 C   0  0  0  0  0  0  0  0  0  0  0  0
   -1.0299   62.4616   85.4360 C   0  0  0  0  0  0  0  0  0  0  0  0
   -1.7162   61.6812   84.5060 C   0  0  0  0  0  0  0  0  0  0  0  0
   -1.7086   62.0555   83.1629 C   0  0  0  0  0  0  0  0  0  0  0  0
   -1.0144   63.1931   82.7395 C   0  0  0  0  0  0  0  0  0  0  0  0
   -0.3219   63.9887   83.6656 C   0  0  0  0  0  0  0  0  0  0  0  0
    0.3987   65.1667   83.1679 C   0  0  0  0  0  0  0  0  0  0  0  0
    0.2664   65.7182   81.9702 N   0  0  0  0  0  0  0  0  0  0  0  0
    1.1392   66.7805   81.9483 C   0  0  0  0  0  0  0  0  0  0  0  0
    1.3945   67.7308   80.8896 C   0  0  0  0  0  0  0  0  0  0  0  0
    0.8230   67.6870   79.8030 O   0  0  0  0  0  0  0  0  0  0  0  0
    2.3541   68.6978   81.2388 N   0  0  0  0  0  0  0  0  0  0  0  0
    2.6866   69.6986   80.2443 C   0  0  0  0  0  0  0  0  0  0  0  0
    3.0559   68.7834   82.4598 C   0  0  0  0  0  0  0  0  0  0  0  0
    3.8982   69.6644   82.6568 O   0  0  0  0  0  0  0  0  0  0  0  0
    2.7582   67.8256   83.4475 N   0  0  0  0  0  0  0  0  0  0  0  0
    1.8117   66.8752   83.1327 C   0  0  0  0  0  0  0  0  0  0  0  0
    1.3465   65.8534   83.9011 N   0  0  0  0  0  0  0  0  0  0  0  0
    1.6100   65.6132   84.8468 H   0  0  0  0  0  0  0  0  0  0  0  0
    3.4555   67.8989   84.7308 C   0  0  0  0  0  0  0  0  0  0  0  0
    4.7734   67.1006   84.7576 C   0  0  0  0  0  0  0  0  0  0  0  0
    5.8680   67.8169   85.5501 C   0  0  0  0  0  0  0  0  0  0  0  0
    4.5255   65.7145   85.3563 C   0  0  0  0  0  0  0  0  0  0  0  0
   -2.5744   61.0782   81.9616 S   0  0  0  0  0  0  0  0  0  0  0  0
   -1.9785   59.7603   81.9796 O   0  0  0  0  0  0  0  0  0  0  0  0
   -3.9964   61.2578   82.1692 O   0  0  0  0  0  0  0  0  0  0  0  0
   -2.1776   61.8322   80.4870 N   0  0  0  0  0  0  0  0  0  0  0  0
   -3.3041   61.9706   79.5079 C   0  0  0  0  0  0  0  0  0  0  0  0
   -2.7733   62.1957   78.0806 C   0  0  0  0  0  0  0  0  0  0  0  0
   -2.0075   61.0395   77.5679 N   0  0  0  0  0  0  0  0  0  0  0  0
   -1.2187   60.4023   78.6461 C   0  0  0  0  0  0  0  0  0  0  0  0
   -0.9230   61.3095   79.8557 C   0  0  0  0  0  0  0  0  0  0  0  0
   -1.1911   61.4371   76.4095 C   0  0  0  0  0  0  0  0  0  0  0  0
   -0.8261   62.9332   76.4077 C   0  0  0  0  0  0  0  0  0  0  0  0
    0.3727   63.1843   77.1487 O   0  0  0  0  0  0  0  0  0  0  0  0
    0.2952   64.3510   77.9563 C   0  0  0  0  0  0  0  0  0  0  0  0
    0.3353   64.3829   85.9388 O   0  0  0  0  0  0  0  0  0  0  0  0
   -0.1350   64.2580   87.2891 C   0  0  0  0  0  0  0  0  0  0  0  0
    0.2554   62.5804   89.1487 C   0  0  0  0  0  0  0  0  0  0  0  0
    0.8976   63.5075   88.1261 C   0  0  0  0  0  0  0  0  0  0  0  0
 39 40  1  0  0  0
 40 38  1  0  0  0
 38 37  1  0  0  0
 37  1  1  0  0  0
  1  2  1  0  0  0
  2  3  2  0  0  0
  3  4  1  0  0  0
  4 24  1  0  0  0
 24 25  2  0  0  0
 24 26  2  0  0  0
 24 27  1  0  0  0
 27 28  1  0  0  0
 28 29  1  0  0  0
 29 30  1  0  0  0
 30 33  1  0  0  0
 33 34  1  0  0  0
 34 35  1  0  0  0
 35 36  1  0  0  0
 30 31  1  0  0  0
 31 32  1  0  0  0
  4  5  2  0  0  0
  5  6  1  0  0  0
  6  7  1  0  0  0
  7  8  2  0  0  0
  8  9  1  0  0  0
  9 10  1  0  0  0
 10 11  2  0  0  0
 10 12  1  0  0  0
 12 13  1  0  0  0
 12 14  1  0  0  0
 14 15  2  0  0  0
 14 16  1  0  0  0
 16 20  1  0  0  0
 20 21  1  0  0  0
 21 22  1  0  0  0
 21 23  1  0  0  0
 16 17  1  0  0  0
 17 18  1  0  0  0
  6  1  2  0  0  0
 18  7  1  0  0  0
 32 27  1  0  0  0
 17  9  2  0  0  0
 18 19  1  0  0  0
M  END
> <minimizedAffinity>
-9.25280

$$$$



 40 43  0  0  0  0  0  0  0  0999 V2000
    3.3278   66.7388   84.2412 C   0  0  0  0  0  0  0  0  0  0  0  0
    4.1726   67.8491   84.0976 C   0  0  0  0  0  0  0  0  0  0  0  0
    3.8084   68.9076   83.2658 C   0  0  0  0  0  0  0  0  0  0  0  0
    2.5854   68.8608   82.5977 C   0  0  0  0  0  0  0  0  0  0  0  0
    1.7201   67.7746   82.7610 C   0  0  0  0  0  0  0  0  0  0  0  0
    2.0758   66.7017   83.5932 C   0  0  0  0  0  0  0  0  0  0  0  0
    1.1276   65.5905   83.7377 C   0  0  0  0  0  0  0  0  0  0  0  0
    0.5823   64.8923   82.7521 N   0  0  0  0  0  0  0  0  0  0  0  0
   -0.2409   63.9713   83.3562 C   0  0  0  0  0  0  0  0  0  0  0  0
   -1.0697   62.9528   82.7522 C   0  0  0  0  0  0  0  0  0  0  0  0
   -1.1449   62.7892   81.5370 O   0  0  0  0  0  0  0  0  0  0  0  0
   -1.7678   62.1804   83.6977 N   0  0  0  0  0  0  0  0  0  0  0  0
   -2.6323   61.1307   83.1957 C   0  0  0  0  0  0  0  0  0  0  0  0
   -1.7364   62.3370   85.0996 C   0  0  0  0  0  0  0  0  0  0  0  0
   -2.4081   61.6149   85.8423 O   0  0  0  0  0  0  0  0  0  0  0  0
   -0.9079   63.3486   85.6207 N   0  0  0  0  0  0  0  0  0  0  0  0
   -0.2042   64.1105   84.7138 C   0  0  0  0  0  0  0  0  0  0  0  0
    0.6571   65.1359   84.9540 N   0  0  0  0  0  0  0  0  0  0  0  0
    0.9397   65.5181   85.8459 H   0  0  0  0  0  0  0  0  0  0  0  0
   -0.8396   63.5238   87.0710 C   0  0  0  0  0  0  0  0  0  0  0  0
    0.3580   62.8021   87.7188 C   0  0  0  0  0  0  0  0  0  0  0  0
    1.5745   63.7174   87.8667 C   0  0  0  0  0  0  0  0  0  0  0  0
   -0.0475   62.2568   89.0897 C   0  0  0  0  0  0  0  0  0  0  0  0
    2.1007   70.1958   81.5343 S   0  0  0  0  0  0  0  0  0  0  0  0
    2.5413   69.8546   80.1995 O   0  0  0  0  0  0  0  0  0  0  0  0
    0.7135   70.5119   81.8050 O   0  0  0  0  0  0  0  0  0  0  0  0
    3.0379   71.5018   82.0969 N   0  0  0  0  0  0  0  0  0  0  0  0
    2.3581   72.4110   83.0758 C   0  0  0  0  0  0  0  0  0  0  0  0
    3.0641   73.7771   83.1456 C   0  0  0  0  0  0  0  0  0  0  0  0
    2.9914   74.5225   81.8708 N   0  0  0  0  0  0  0  0  0  0  0  0
    3.0880   73.6070   80.7118 C   0  0  0  0  0  0  0  0  0  0  0  0
    3.7516   72.2494   81.0118 C   0  0  0  0  0  0  0  0  0  0  0  0
    3.9970   75.5973   81.8462 C   0  0  0  0  0  0  0  0  0  0  0  0
    5.1415   75.3822   82.8538 C   0  0  0  0  0  0  0  0  0  0  0  0
    6.3612   75.0213   82.1971 O   0  0  0  0  0  0  0  0  0  0  0  0
    6.3765   75.3680   80.8191 C   0  0  0  0  0  0  0  0  0  0  0  0
    3.6750   65.7041   85.0771 O   0  0  0  0  0  0  0  0  0  0  0  0
    4.9961   65.8105   85.6280 C   0  0  0  0  0  0  0  0  0  0  0  0
    5.5916   65.5783   88.0808 C   0  0  0  0  0  0  0  0  0  0  0  0
    5.1355   64.8630   86.8168 C   0  0  0  0  0  0  0  0  0  0  0  0
 39 40  1  0  0  0
 40 38  1  0  0  0
 38 37  1  0  0  0
 37  1  1  0  0  0
  1  2  1  0  0  0
  2  3  2  0  0  0
  3  4  1  0  0  0
  4 24  1  0  0  0
 24 25  2  0  0  0
 24 26  2  0  0  0
 24 27  1  0  0  0
 27 28  1  0  0  0
 28 29  1  0  0  0
 29 30  1  0  0  0
 30 33  1  0  0  0
 33 34  1  0  0  0
 34 35  1  0  0  0
 35 36  1  0  0  0
 30 31  1  0  0  0
 31 32  1  0  0  0
  4  5  2  0  0  0
  5  6  1  0  0  0
  6  7  1  0  0  0
  7  8  2  0  0  0
  8  9  1  0  0  0
  9 10  1  0  0  0
 10 11  2  0  0  0
 10 12  1  0  0  0
 12 13  1  0  0  0
 12 14  1  0  0  0
 14 15  2  0  0  0
 14 16  1  0  0  0
 16 20  1  0  0  0
 20 21  1  0  0  0
 21 22  1  0  0  0
 21 23  1  0  0  0
 16 17  1  0  0  0
 17 18  1  0  0  0
  6  1  2  0  0  0
 18  7  1  0  0  0
 32 27  1  0  0  0
 17  9  2  0  0  0
 18 19  1  0  0  0
M  END
> <minimizedAffinity>
-9.12460

$$$$



 40 43  0  0  0  0  0  0  0  0999 V2000
    0.8876   65.5220   81.1506 C   0  0  0  0  0  0  0  0  0  0  0  0
    1.3767   66.3260   80.1106 C   0  0  0  0  0  0  0  0  0  0  0  0
    2.0224   67.5289   80.3951 C   0  0  0  0  0  0  0  0  0  0  0  0
    2.1976   67.9116   81.7244 C   0  0  0  0  0  0  0  0  0  0  0  0
    1.7448   67.1007   82.7697 C   0  0  0  0  0  0  0  0  0  0  0  0
    1.0910   65.8889   82.4970 C   0  0  0  0  0  0  0  0  0  0  0  0
    0.6439   65.0703   83.6304 C   0  0  0  0  0  0  0  0  0  0  0  0
    1.2299   64.9864   84.8160 N   0  0  0  0  0  0  0  0  0  0  0  0
    0.4730   64.1007   85.5463 C   0  0  0  0  0  0  0  0  0  0  0  0
    0.6548   63.6502   86.9076 C   0  0  0  0  0  0  0  0  0  0  0  0
    1.5833   64.0301   87.6166 O   0  0  0  0  0  0  0  0  0  0  0  0
   -0.3369   62.7438   87.3236 N   0  0  0  0  0  0  0  0  0  0  0  0
   -0.2452   62.2271   88.6748 C   0  0  0  0  0  0  0  0  0  0  0  0
   -1.4103   62.2574   86.5478 C   0  0  0  0  0  0  0  0  0  0  0  0
   -2.2171   61.4427   87.0056 O   0  0  0  0  0  0  0  0  0  0  0  0
   -1.5279   62.7379   85.2299 N   0  0  0  0  0  0  0  0  0  0  0  0
   -0.5746   63.6368   84.8039 C   0  0  0  0  0  0  0  0  0  0  0  0
   -0.4639   64.2464   83.5927 N   0  0  0  0  0  0  0  0  0  0  0  0
   -1.0686   64.1519   82.7884 H   0  0  0  0  0  0  0  0  0  0  0  0
   -2.6408   62.2666   84.4064 C   0  0  0  0  0  0  0  0  0  0  0  0
   -2.1990   61.7222   83.0341 C   0  0  0  0  0  0  0  0  0  0  0  0
   -2.7331   60.3134   82.7710 C   0  0  0  0  0  0  0  0  0  0  0  0
   -2.6699   62.6680   81.9273 C   0  0  0  0  0  0  0  0  0  0  0  0
    3.0164   69.4375   82.1108 S   0  0  0  0  0  0  0  0  0  0  0  0
    3.7806   69.2135   83.3183 O   0  0  0  0  0  0  0  0  0  0  0  0
    3.6509   69.9306   80.9059 O   0  0  0  0  0  0  0  0  0  0  0  0
    1.7273   70.4902   82.4728 N   0  0  0  0  0  0  0  0  0  0  0  0
    0.5582   70.4262   81.5369 C   0  0  0  0  0  0  0  0  0  0  0  0
   -0.3025   71.6985   81.6377 C   0  0  0  0  0  0  0  0  0  0  0  0
    0.4221   72.9129   81.2060 N   0  0  0  0  0  0  0  0  0  0  0  0
    1.8470   72.8524   81.6018 C   0  0  0  0  0  0  0  0  0  0  0  0
    2.1554   71.8954   82.7691 C   0  0  0  0  0  0  0  0  0  0  0  0
   -0.2641   74.1208   81.6929 C   0  0  0  0  0  0  0  0  0  0  0  0
    0.6492   75.3595   81.7456 C   0  0  0  0  0  0  0  0  0  0  0  0
    0.5542   76.0314   83.0060 O   0  0  0  0  0  0  0  0  0  0  0  0
   -0.6561   76.7601   83.1598 C   0  0  0  0  0  0  0  0  0  0  0  0
    0.2697   64.3258   80.8732 O   0  0  0  0  0  0  0  0  0  0  0  0
    0.2283   63.9944   79.4773 C   0  0  0  0  0  0  0  0  0  0  0  0
    0.6707   61.7765   80.6218 C   0  0  0  0  0  0  0  0  0  0  0  0
    0.4605   62.4965   79.2971 C   0  0  0  0  0  0  0  0  0  0  0  0
 39 40  1  0  0  0
 40 38  1  0  0  0
 38 37  1  0  0  0
 37  1  1  0  0  0
  1  2  1  0  0  0
  2  3  2  0  0  0
  3  4  1  0  0  0
  4 24  1  0  0  0
 24 25  2  0  0  0
 24 26  2  0  0  0
 24 27  1  0  0  0
 27 28  1  0  0  0
 28 29  1  0  0  0
 29 30  1  0  0  0
 30 33  1  0  0  0
 33 34  1  0  0  0
 34 35  1  0  0  0
 35 36  1  0  0  0
 30 31  1  0  0  0
 31 32  1  0  0  0
  4  5  2  0  0  0
  5  6  1  0  0  0
  6  7  1  0  0  0
  7  8  2  0  0  0
  8  9  1  0  0  0
  9 10  1  0  0  0
 10 11  2  0  0  0
 10 12  1  0  0  0
 12 13  1  0  0  0
 12 14  1  0  0  0
 14 15  2  0  0  0
 14 16  1  0  0  0
 16 20  1  0  0  0
 20 21  1  0  0  0
 21 22  1  0  0  0
 21 23  1  0  0  0
 16 17  1  0  0  0
 17 18  1  0  0  0
  6  1  2  0  0  0
 18  7  1  0  0  0
 32 27  1  0  0  0
 17  9  2  0  0  0
 18 19  1  0  0  0
M  END
> <minimizedAffinity>
-9.11021

$$$$



 40 43  0  0  0  0  0  0  0  0999 V2000
    3.3261   66.8303   84.2472 C   0  0  0  0  0  0  0  0  0  0  0  0
    4.1740   67.9357   84.0851 C   0  0  0  0  0  0  0  0  0  0  0  0
    3.9032   68.8930   83.1077 C   0  0  0  0  0  0  0  0  0  0  0  0
    2.7681   68.7518   82.3102 C   0  0  0  0  0  0  0  0  0  0  0  0
    1.8975   67.6719   82.4868 C   0  0  0  0  0  0  0  0  0  0  0  0
    2.1599   66.7002   83.4651 C   0  0  0  0  0  0  0  0  0  0  0  0
    1.2093   65.5920   83.6161 C   0  0  0  0  0  0  0  0  0  0  0  0
    0.6817   64.8729   82.6359 N   0  0  0  0  0  0  0  0  0  0  0  0
   -0.1521   63.9645   83.2445 C   0  0  0  0  0  0  0  0  0  0  0  0
   -0.9701   62.9331   82.6475 C   0  0  0  0  0  0  0  0  0  0  0  0
   -1.0235   62.7439   81.4349 O   0  0  0  0  0  0  0  0  0  0  0  0
   -1.6849   62.1806   83.5966 N   0  0  0  0  0  0  0  0  0  0  0  0
   -2.5402   61.1202   83.1015 C   0  0  0  0  0  0  0  0  0  0  0  0
   -1.6785   62.3668   84.9952 C   0  0  0  0  0  0  0  0  0  0  0  0
   -2.3633   61.6603   85.7409 O   0  0  0  0  0  0  0  0  0  0  0  0
   -0.8594   63.3896   85.5095 N   0  0  0  0  0  0  0  0  0  0  0  0
   -0.1397   64.1324   84.5994 C   0  0  0  0  0  0  0  0  0  0  0  0
    0.7172   65.1629   84.8332 N   0  0  0  0  0  0  0  0  0  0  0  0
    0.9839   65.5641   85.7217 H   0  0  0  0  0  0  0  0  0  0  0  0
   -0.8169   63.5954   86.9567 C   0  0  0  0  0  0  0  0  0  0  0  0
    0.3485   62.8593   87.6456 C   0  0  0  0  0  0  0  0  0  0  0  0
    1.5730   63.7573   87.8286 C   0  0  0  0  0  0  0  0  0  0  0  0
   -0.1086   62.3262   89.0050 C   0  0  0  0  0  0  0  0  0  0  0  0
    2.4030   69.9571   81.0604 S   0  0  0  0  0  0  0  0  0  0  0  0
    3.6517   70.6011   80.7163 O   0  0  0  0  0  0  0  0  0  0  0  0
    1.5836   69.3264   80.0464 O   0  0  0  0  0  0  0  0  0  0  0  0
    1.4209   71.0819   81.8794 N   0  0  0  0  0  0  0  0  0  0  0  0
    0.0664   71.3139   81.2808 C   0  0  0  0  0  0  0  0  0  0  0  0
   -0.5334   72.6457   81.7667 C   0  0  0  0  0  0  0  0  0  0  0  0
    0.2485   73.8193   81.3222 N   0  0  0  0  0  0  0  0  0  0  0  0
    1.6989   73.5241   81.3213 C   0  0  0  0  0  0  0  0  0  0  0  0
    2.1234   72.3574   82.2335 C   0  0  0  0  0  0  0  0  0  0  0  0
   -0.1018   75.0033   82.1236 C   0  0  0  0  0  0  0  0  0  0  0  0
    0.7996   76.2188   81.8386 C   0  0  0  0  0  0  0  0  0  0  0  0
    1.1838   76.8850   83.0460 O   0  0  0  0  0  0  0  0  0  0  0  0
    2.3731   76.3593   83.6190 C   0  0  0  0  0  0  0  0  0  0  0  0
    3.5795   65.8968   85.2241 O   0  0  0  0  0  0  0  0  0  0  0  0
    4.9284   65.9089   85.7141 C   0  0  0  0  0  0  0  0  0  0  0  0
    5.5776   65.5490   88.1377 C   0  0  0  0  0  0  0  0  0  0  0  0
    5.0702   64.9048   86.8552 C   0  0  0  0  0  0  0  0  0  0  0  0
 39 40  1  0  0  0
 40 38  1  0  0  0
 38 37  1  0  0  0
 37  1  1  0  0  0
  1  2  1  0  0  0
  2  3  2  0  0  0
  3  4  1  0  0  0
  4 24  1  0  0  0
 24 25  2  0  0  0
 24 26  2  0  0  0
 24 27  1  0  0  0
 27 28  1  0  0  0
 28 29  1  0  0  0
 29 30  1  0  0  0
 30 33  1  0  0  0
 33 34  1  0  0  0
 34 35  1  0  0  0
 35 36  1  0  0  0
 30 31  1  0  0  0
 31 32  1  0  0  0
  4  5  2  0  0  0
  5  6  1  0  0  0
  6  7  1  0  0  0
  7  8  2  0  0  0
  8  9  1  0  0  0
  9 10  1  0  0  0
 10 11  2  0  0  0
 10 12  1  0  0  0
 12 13  1  0  0  0
 12 14  1  0  0  0
 14 15  2  0  0  0
 14 16  1  0  0  0
 16 20  1  0  0  0
 20 21  1  0  0  0
 21 22  1  0  0  0
 21 23  1  0  0  0
 16 17  1  0  0  0
 17 18  1  0  0  0
  6  1  2  0  0  0
 18  7  1  0  0  0
 32 27  1  0  0  0
 17  9  2  0  0  0
 18 19  1  0  0  0
M  END
> <minimizedAffinity>
-9.10804

$$$$



 40 43  0  0  0  0  0  0  0  0999 V2000
    3.4839   66.7952   84.2961 C   0  0  0  0  0  0  0  0  0  0  0  0
    4.2962   67.8577   83.8739 C   0  0  0  0  0  0  0  0  0  0  0  0
    3.7910   68.8304   83.0117 C   0  0  0  0  0  0  0  0  0  0  0  0
    2.4633   68.7483   82.5934 C   0  0  0  0  0  0  0  0  0  0  0  0
    1.6348   67.7125   83.0360 C   0  0  0  0  0  0  0  0  0  0  0  0
    2.1317   66.7257   83.9018 C   0  0  0  0  0  0  0  0  0  0  0  0
    1.2179   65.6656   84.3443 C   0  0  0  0  0  0  0  0  0  0  0  0
    0.9583   65.3280   85.5992 N   0  0  0  0  0  0  0  0  0  0  0  0
    0.0620   64.2876   85.5296 C   0  0  0  0  0  0  0  0  0  0  0  0
   -0.5614   63.5461   86.6023 C   0  0  0  0  0  0  0  0  0  0  0  0
   -0.3357   63.7735   87.7882 O   0  0  0  0  0  0  0  0  0  0  0  0
   -1.4437   62.5520   86.1428 N   0  0  0  0  0  0  0  0  0  0  0  0
   -2.1206   61.7467   87.1401 C   0  0  0  0  0  0  0  0  0  0  0  0
   -1.7243   62.2332   84.7973 C   0  0  0  0  0  0  0  0  0  0  0  0
   -2.5033   61.3222   84.5013 O   0  0  0  0  0  0  0  0  0  0  0  0
   -1.0823   62.9952   83.8029 N   0  0  0  0  0  0  0  0  0  0  0  0
   -0.2225   63.9836   84.2293 C   0  0  0  0  0  0  0  0  0  0  0  0
    0.5109   64.8516   83.4811 N   0  0  0  0  0  0  0  0  0  0  0  0
    0.5499   64.9295   82.4742 H   0  0  0  0  0  0  0  0  0  0  0  0
   -1.3666   62.7012   82.3988 C   0  0  0  0  0  0  0  0  0  0  0  0
   -0.7254   61.3894   81.9063 C   0  0  0  0  0  0  0  0  0  0  0  0
   -1.2137   60.9941   80.5118 C   0  0  0  0  0  0  0  0  0  0  0  0
    0.7982   61.5301   81.8992 C   0  0  0  0  0  0  0  0  0  0  0  0
    1.7983   69.9743   81.4967 S   0  0  0  0  0  0  0  0  0  0  0  0
    0.7604   70.6728   82.2227 O   0  0  0  0  0  0  0  0  0  0  0  0
    2.9025   70.6931   80.8954 O   0  0  0  0  0  0  0  0  0  0  0  0
    1.0696   69.0448   80.2696 N   0  0  0  0  0  0  0  0  0  0  0  0
   -0.1781   68.3149   80.6663 C   0  0  0  0  0  0  0  0  0  0  0  0
   -0.4774   67.1600   79.6935 C   0  0  0  0  0  0  0  0  0  0  0  0
    0.5626   66.1093   79.7184 N   0  0  0  0  0  0  0  0  0  0  0  0
    1.9084   66.6958   79.9070 C   0  0  0  0  0  0  0  0  0  0  0  0
    2.0299   68.1798   79.5112 C   0  0  0  0  0  0  0  0  0  0  0  0
    0.4630   65.2596   78.5206 C   0  0  0  0  0  0  0  0  0  0  0  0
    0.6413   63.7600   78.8224 C   0  0  0  0  0  0  0  0  0  0  0  0
    0.8983   63.0094   77.6309 O   0  0  0  0  0  0  0  0  0  0  0  0
   -0.2576   62.3583   77.1216 C   0  0  0  0  0  0  0  0  0  0  0  0
    3.9736   65.8471   85.1628 O   0  0  0  0  0  0  0  0  0  0  0  0
    5.0455   66.3102   85.9974 C   0  0  0  0  0  0  0  0  0  0  0  0
    5.6013   65.4601   88.3197 C   0  0  0  0  0  0  0  0  0  0  0  0
    5.5875   65.1507   86.8292 C   0  0  0  0  0  0  0  0  0  0  0  0
 39 40  1  0  0  0
 40 38  1  0  0  0
 38 37  1  0  0  0
 37  1  1  0  0  0
  1  2  1  0  0  0
  2  3  2  0  0  0
  3  4  1  0  0  0
  4 24  1  0  0  0
 24 25  2  0  0  0
 24 26  2  0  0  0
 24 27  1  0  0  0
 27 28  1  0  0  0
 28 29  1  0  0  0
 29 30  1  0  0  0
 30 33  1  0  0  0
 33 34  1  0  0  0
 34 35  1  0  0  0
 35 36  1  0  0  0
 30 31  1  0  0  0
 31 32  1  0  0  0
  4  5  2  0  0  0
  5  6  1  0  0  0
  6  7  1  0  0  0
  7  8  2  0  0  0
  8  9  1  0  0  0
  9 10  1  0  0  0
 10 11  2  0  0  0
 10 12  1  0  0  0
 12 13  1  0  0  0
 12 14  1  0  0  0
 14 15  2  0  0  0
 14 16  1  0  0  0
 16 20  1  0  0  0
 20 21  1  0  0  0
 21 22  1  0  0  0
 21 23  1  0  0  0
 16 17  1  0  0  0
 17 18  1  0  0  0
  6  1  2  0  0  0
 18  7  1  0  0  0
 32 27  1  0  0  0
 17  9  2  0  0  0
 18 19  1  0  0  0
M  END
> <minimizedAffinity>
-9.04620

$$$$



 40 43  0  0  0  0  0  0  0  0999 V2000
    3.1940   66.6708   84.1953 C   0  0  0  0  0  0  0  0  0  0  0  0
    4.0716   67.7616   84.2793 C   0  0  0  0  0  0  0  0  0  0  0  0
    3.9771   68.8127   83.3677 C   0  0  0  0  0  0  0  0  0  0  0  0
    2.9860   68.7788   82.3874 C   0  0  0  0  0  0  0  0  0  0  0  0
    2.0839   67.7128   82.3164 C   0  0  0  0  0  0  0  0  0  0  0  0
    2.1698   66.6474   83.2261 C   0  0  0  0  0  0  0  0  0  0  0  0
    1.1925   65.5578   83.1143 C   0  0  0  0  0  0  0  0  0  0  0  0
    0.5261   65.2118   82.0224 N   0  0  0  0  0  0  0  0  0  0  0  0
   -0.2747   64.1564   82.3909 C   0  0  0  0  0  0  0  0  0  0  0  0
   -1.2007   63.3893   81.5888 C   0  0  0  0  0  0  0  0  0  0  0  0
   -1.3984   63.6178   80.3981 O   0  0  0  0  0  0  0  0  0  0  0  0
   -1.8380   62.3660   82.3131 N   0  0  0  0  0  0  0  0  0  0  0  0
   -2.7910   61.5376   81.6012 C   0  0  0  0  0  0  0  0  0  0  0  0
   -1.6663   62.0725   83.6824 C   0  0  0  0  0  0  0  0  0  0  0  0
   -2.2946   61.1605   84.2281 O   0  0  0  0  0  0  0  0  0  0  0  0
   -0.7489   62.8592   84.4041 N   0  0  0  0  0  0  0  0  0  0  0  0
   -0.1027   63.8603   83.7125 C   0  0  0  0  0  0  0  0  0  0  0  0
    0.8211   64.7482   84.1698 N   0  0  0  0  0  0  0  0  0  0  0  0
    1.2038   64.8268   85.1019 H   0  0  0  0  0  0  0  0  0  0  0  0
   -0.5349   62.5677   85.8212 C   0  0  0  0  0  0  0  0  0  0  0  0
   -1.2538   63.5523   86.7638 C   0  0  0  0  0  0  0  0  0  0  0  0
   -2.5835   62.9968   87.2764 C   0  0  0  0  0  0  0  0  0  0  0  0
   -0.3452   63.8911   87.9473 C   0  0  0  0  0  0  0  0  0  0  0  0
    2.8463   70.1048   81.2168 S   0  0  0  0  0  0  0  0  0  0  0  0
    4.1861   70.5872   80.9625 O   0  0  0  0  0  0  0  0  0  0  0  0
    1.9920   69.6660   80.1328 O   0  0  0  0  0  0  0  0  0  0  0  0
    1.9953   71.2998   82.0819 N   0  0  0  0  0  0  0  0  0  0  0  0
    0.7438   71.8031   81.4281 C   0  0  0  0  0  0  0  0  0  0  0  0
    0.3271   73.1677   82.0059 C   0  0  0  0  0  0  0  0  0  0  0  0
    1.3163   74.2309   81.7278 N   0  0  0  0  0  0  0  0  0  0  0  0
    2.6975   73.7023   81.7856 C   0  0  0  0  0  0  0  0  0  0  0  0
    2.8618   72.4062   82.6022 C   0  0  0  0  0  0  0  0  0  0  0  0
    1.0979   75.3816   82.6195 C   0  0  0  0  0  0  0  0  0  0  0  0
    2.3603   76.2392   82.8257 C   0  0  0  0  0  0  0  0  0  0  0  0
    2.6900   76.3670   84.2128 O   0  0  0  0  0  0  0  0  0  0  0  0
    3.9281   75.7567   84.5504 C   0  0  0  0  0  0  0  0  0  0  0  0
    3.2716   65.6438   85.1059 O   0  0  0  0  0  0  0  0  0  0  0  0
    4.6025   65.3626   85.5639 C   0  0  0  0  0  0  0  0  0  0  0  0
    5.5235   65.6217   87.9110 C   0  0  0  0  0  0  0  0  0  0  0  0
    4.5561   64.8695   87.0078 C   0  0  0  0  0  0  0  0  0  0  0  0
 39 40  1  0  0  0
 40 38  1  0  0  0
 38 37  1  0  0  0
 37  1  1  0  0  0
  1  2  1  0  0  0
  2  3  2  0  0  0
  3  4  1  0  0  0
  4 24  1  0  0  0
 24 25  2  0  0  0
 24 26  2  0  0  0
 24 27  1  0  0  0
 27 28  1  0  0  0
 28 29  1  0  0  0
 29 30  1  0  0  0
 30 33  1  0  0  0
 33 34  1  0  0  0
 34 35  1  0  0  0
 35 36  1  0  0  0
 30 31  1  0  0  0
 31 32  1  0  0  0
  4  5  2  0  0  0
  5  6  1  0  0  0
  6  7  1  0  0  0
  7  8  2  0  0  0
  8  9  1  0  0  0
  9 10  1  0  0  0
 10 11  2  0  0  0
 10 12  1  0  0  0
 12 13  1  0  0  0
 12 14  1  0  0  0
 14 15  2  0  0  0
 14 16  1  0  0  0
 16 20  1  0  0  0
 20 21  1  0  0  0
 21 22  1  0  0  0
 21 23  1  0  0  0
 16 17  1  0  0  0
 17 18  1  0  0  0
  6  1  2  0  0  0
 18  7  1  0  0  0
 32 27  1  0  0  0
 17  9  2  0  0  0
 18 19  1  0  0  0
M  END
> <minimizedAffinity>
-9.02528

$$$$



 40 43  0  0  0  0  0  0  0  0999 V2000
    1.1037   65.5504   83.4529 C   0  0  0  0  0  0  0  0  0  0  0  0
    1.6625   66.5362   84.2793 C   0  0  0  0  0  0  0  0  0  0  0  0
    2.1134   67.7384   83.7348 C   0  0  0  0  0  0  0  0  0  0  0  0
    1.9807   67.9590   82.3643 C   0  0  0  0  0  0  0  0  0  0  0  0
    1.3934   66.9970   81.5367 C   0  0  0  0  0  0  0  0  0  0  0  0
    0.9379   65.7819   82.0717 C   0  0  0  0  0  0  0  0  0  0  0  0
    0.3204   64.8100   81.1613 C   0  0  0  0  0  0  0  0  0  0  0  0
    0.6815   64.5698   79.9091 N   0  0  0  0  0  0  0  0  0  0  0  0
   -0.1781   63.5992   79.4509 C   0  0  0  0  0  0  0  0  0  0  0  0
   -0.2274   62.9612   78.1549 C   0  0  0  0  0  0  0  0  0  0  0  0
    0.5470   63.2428   77.2438 O   0  0  0  0  0  0  0  0  0  0  0  0
   -1.2443   61.9947   78.0566 N   0  0  0  0  0  0  0  0  0  0  0  0
   -1.3823   61.2962   76.7940 C   0  0  0  0  0  0  0  0  0  0  0  0
   -2.1732   61.6463   79.0599 C   0  0  0  0  0  0  0  0  0  0  0  0
   -3.0445   60.7944   78.8616 O   0  0  0  0  0  0  0  0  0  0  0  0
   -2.0682   62.3071   80.2984 N   0  0  0  0  0  0  0  0  0  0  0  0
   -1.0711   63.2496   80.4226 C   0  0  0  0  0  0  0  0  0  0  0  0
   -0.7584   64.0174   81.5013 N   0  0  0  0  0  0  0  0  0  0  0  0
   -1.2009   64.0277   82.4099 H   0  0  0  0  0  0  0  0  0  0  0  0
   -3.0050   61.9548   81.3648 C   0  0  0  0  0  0  0  0  0  0  0  0
   -2.3918   61.0355   82.4389 C   0  0  0  0  0  0  0  0  0  0  0  0
   -2.6427   61.5535   83.8560 C   0  0  0  0  0  0  0  0  0  0  0  0
   -2.9625   59.6230   82.2969 C   0  0  0  0  0  0  0  0  0  0  0  0
    2.5469   69.4807   81.6490 S   0  0  0  0  0  0  0  0  0  0  0  0
    3.8276   69.7803   82.2510 O   0  0  0  0  0  0  0  0  0  0  0  0
    2.4006   69.3891   80.2111 O   0  0  0  0  0  0  0  0  0  0  0  0
    1.4080   70.6191   82.2035 N   0  0  0  0  0  0  0  0  0  0  0  0
    0.2232   70.8356   81.3111 C   0  0  0  0  0  0  0  0  0  0  0  0
   -0.4679   72.1753   81.6230 C   0  0  0  0  0  0  0  0  0  0  0  0
    0.3962   73.3417   81.3423 N   0  0  0  0  0  0  0  0  0  0  0  0
    1.8091   73.0504   81.6734 C   0  0  0  0  0  0  0  0  0  0  0  0
    2.0154   71.9032   82.6809 C   0  0  0  0  0  0  0  0  0  0  0  0
   -0.1230   74.5406   82.0206 C   0  0  0  0  0  0  0  0  0  0  0  0
    0.9822   75.5244   82.4474 C   0  0  0  0  0  0  0  0  0  0  0  0
    0.4557   76.6022   83.2285 O   0  0  0  0  0  0  0  0  0  0  0  0
   -0.9518   76.7492   83.0992 C   0  0  0  0  0  0  0  0  0  0  0  0
    0.6392   64.3735   83.9905 O   0  0  0  0  0  0  0  0  0  0  0  0
    0.6077   64.3538   85.4253 C   0  0  0  0  0  0  0  0  0  0  0  0
   -0.8716   63.4490   87.2740 C   0  0  0  0  0  0  0  0  0  0  0  0
   -0.2580   63.1915   85.9048 C   0  0  0  0  0  0  0  0  0  0  0  0
 39 40  1  0  0  0
 40 38  1  0  0  0
 38 37  1  0  0  0
 37  1  1  0  0  0
  1  2  1  0  0  0
  2  3  2  0  0  0
  3  4  1  0  0  0
  4 24  1  0  0  0
 24 25  2  0  0  0
 24 26  2  0  0  0
 24 27  1  0  0  0
 27 28  1  0  0  0
 28 29  1  0  0  0
 29 30  1  0  0  0
 30 33  1  0  0  0
 33 34  1  0  0  0
 34 35  1  0  0  0
 35 36  1  0  0  0
 30 31  1  0  0  0
 31 32  1  0  0  0
  4  5  2  0  0  0
  5  6  1  0  0  0
  6  7  1  0  0  0
  7  8  2  0  0  0
  8  9  1  0  0  0
  9 10  1  0  0  0
 10 11  2  0  0  0
 10 12  1  0  0  0
 12 13  1  0  0  0
 12 14  1  0  0  0
 14 15  2  0  0  0
 14 16  1  0  0  0
 16 20  1  0  0  0
 20 21  1  0  0  0
 21 22  1  0  0  0
 21 23  1  0  0  0
 16 17  1  0  0  0
 17 18  1  0  0  0
  6  1  2  0  0  0
 18  7  1  0  0  0
 32 27  1  0  0  0
 17  9  2  0  0  0
 18 19  1  0  0  0
M  END
> <minimizedAffinity>
-8.99579

$$$$



 40 43  0  0  0  0  0  0  0  0999 V2000
    3.1240   66.7218   84.1912 C   0  0  0  0  0  0  0  0  0  0  0  0
    3.9825   67.8262   84.2940 C   0  0  0  0  0  0  0  0  0  0  0  0
    3.8974   68.8716   83.3748 C   0  0  0  0  0  0  0  0  0  0  0  0
    2.9344   68.8181   82.3678 C   0  0  0  0  0  0  0  0  0  0  0  0
    2.0507   67.7383   82.2772 C   0  0  0  0  0  0  0  0  0  0  0  0
    2.1274   66.6785   83.1944 C   0  0  0  0  0  0  0  0  0  0  0  0
    1.1702   65.5737   83.0611 C   0  0  0  0  0  0  0  0  0  0  0  0
    0.5248   65.2247   81.9575 N   0  0  0  0  0  0  0  0  0  0  0  0
   -0.2633   64.1535   82.3072 C   0  0  0  0  0  0  0  0  0  0  0  0
   -1.1651   63.3771   81.4868 C   0  0  0  0  0  0  0  0  0  0  0  0
   -1.3500   63.6110   80.2951 O   0  0  0  0  0  0  0  0  0  0  0  0
   -1.7953   62.3381   82.1948 N   0  0  0  0  0  0  0  0  0  0  0  0
   -2.7244   61.4992   81.4638 C   0  0  0  0  0  0  0  0  0  0  0  0
   -1.6378   62.0374   83.5643 C   0  0  0  0  0  0  0  0  0  0  0  0
   -2.2584   61.1113   84.0947 O   0  0  0  0  0  0  0  0  0  0  0  0
   -0.7438   62.8340   84.3044 N   0  0  0  0  0  0  0  0  0  0  0  0
   -0.1048   63.8506   83.6290 C   0  0  0  0  0  0  0  0  0  0  0  0
    0.7976   64.7504   84.1055 N   0  0  0  0  0  0  0  0  0  0  0  0
    1.1659   64.8285   85.0435 H   0  0  0  0  0  0  0  0  0  0  0  0
   -0.5448   62.5357   85.7222 C   0  0  0  0  0  0  0  0  0  0  0  0
   -1.2582   63.5268   86.6620 C   0  0  0  0  0  0  0  0  0  0  0  0
   -2.4756   62.9024   87.3457 C   0  0  0  0  0  0  0  0  0  0  0  0
   -0.2758   64.0342   87.7197 C   0  0  0  0  0  0  0  0  0  0  0  0
    2.8073   70.1365   81.1872 S   0  0  0  0  0  0  0  0  0  0  0  0
    4.1524   70.5970   80.9210 O   0  0  0  0  0  0  0  0  0  0  0  0
    1.9402   69.7015   80.1118 O   0  0  0  0  0  0  0  0  0  0  0  0
    1.9790   71.3508   82.0473 N   0  0  0  0  0  0  0  0  0  0  0  0
    0.7361   71.8736   81.3924 C   0  0  0  0  0  0  0  0  0  0  0  0
    0.3449   73.2483   81.9640 C   0  0  0  0  0  0  0  0  0  0  0  0
    1.3528   74.2921   81.6797 N   0  0  0  0  0  0  0  0  0  0  0  0
    2.7243   73.7388   81.7387 C   0  0  0  0  0  0  0  0  0  0  0  0
    2.8660   72.4439   82.5613 C   0  0  0  0  0  0  0  0  0  0  0  0
    1.1564   75.4508   82.5661 C   0  0  0  0  0  0  0  0  0  0  0  0
   -0.2942   75.9678   82.5784 C   0  0  0  0  0  0  0  0  0  0  0  0
   -0.5507   76.7910   83.7211 O   0  0  0  0  0  0  0  0  0  0  0  0
   -1.9292   77.0885   83.8960 C   0  0  0  0  0  0  0  0  0  0  0  0
    3.1919   65.7004   85.1088 O   0  0  0  0  0  0  0  0  0  0  0  0
    4.5257   65.3675   85.5214 C   0  0  0  0  0  0  0  0  0  0  0  0
    5.4899   65.6551   87.8478 C   0  0  0  0  0  0  0  0  0  0  0  0
    4.5111   64.8874   86.9704 C   0  0  0  0  0  0  0  0  0  0  0  0
 39 40  1  0  0  0
 40 38  1  0  0  0
 38 37  1  0  0  0
 37  1  1  0  0  0
  1  2  1  0  0  0
  2  3  2  0  0  0
  3  4  1  0  0  0
  4 24  1  0  0  0
 24 25  2  0  0  0
 24 26  2  0  0  0
 24 27  1  0  0  0
 27 28  1  0  0  0
 28 29  1  0  0  0
 29 30  1  0  0  0
 30 33  1  0  0  0
 33 34  1  0  0  0
 34 35  1  0  0  0
 35 36  1  0  0  0
 30 31  1  0  0  0
 31 32  1  0  0  0
  4  5  2  0  0  0
  5  6  1  0  0  0
  6  7  1  0  0  0
  7  8  2  0  0  0
  8  9  1  0  0  0
  9 10  1  0  0  0
 10 11  2  0  0  0
 10 12  1  0  0  0
 12 13  1  0  0  0
 12 14  1  0  0  0
 14 15  2  0  0  0
 14 16  1  0  0  0
 16 20  1  0  0  0
 20 21  1  0  0  0
 21 22  1  0  0  0
 21 23  1  0  0  0
 16 17  1  0  0  0
 17 18  1  0  0  0
  6  1  2  0  0  0
 18  7  1  0  0  0
 32 27  1  0  0  0
 17  9  2  0  0  0
 18 19  1  0  0  0
M  END
> <minimizedAffinity>
-8.99490

$$$$



 40 43  0  0  0  0  0  0  0  0999 V2000
    1.1813   65.9554   82.9004 C   0  0  0  0  0  0  0  0  0  0  0  0
    1.6612   67.0772   83.5921 C   0  0  0  0  0  0  0  0  0  0  0  0
    1.8152   68.2971   82.9339 C   0  0  0  0  0  0  0  0  0  0  0  0
    1.4644   68.3952   81.5879 C   0  0  0  0  0  0  0  0  0  0  0  0
    0.9522   67.2920   80.8981 C   0  0  0  0  0  0  0  0  0  0  0  0
    0.7948   66.0580   81.5481 C   0  0  0  0  0  0  0  0  0  0  0  0
    0.2439   64.9341   80.7812 C   0  0  0  0  0  0  0  0  0  0  0  0
    0.6374   64.5375   79.5796 N   0  0  0  0  0  0  0  0  0  0  0  0
   -0.1626   63.4663   79.2579 C   0  0  0  0  0  0  0  0  0  0  0  0
   -0.1573   62.6481   78.0664 C   0  0  0  0  0  0  0  0  0  0  0  0
    0.6159   62.8384   77.1311 O   0  0  0  0  0  0  0  0  0  0  0  0
   -1.1205   61.6238   78.0990 N   0  0  0  0  0  0  0  0  0  0  0  0
   -1.2012   60.7458   76.9485 C   0  0  0  0  0  0  0  0  0  0  0  0
   -2.0461   61.3725   79.1339 C   0  0  0  0  0  0  0  0  0  0  0  0
   -2.8682   60.4550   79.0523 O   0  0  0  0  0  0  0  0  0  0  0  0
   -1.9960   62.2079   80.2657 N   0  0  0  0  0  0  0  0  0  0  0  0
   -1.0518   63.2111   80.2620 C   0  0  0  0  0  0  0  0  0  0  0  0
   -0.7973   64.1409   81.2221 N   0  0  0  0  0  0  0  0  0  0  0  0
   -1.2544   64.2567   82.1160 H   0  0  0  0  0  0  0  0  0  0  0  0
   -2.9302   61.9612   81.3635 C   0  0  0  0  0  0  0  0  0  0  0  0
   -2.3253   61.1204   82.5045 C   0  0  0  0  0  0  0  0  0  0  0  0
   -2.4089   61.8326   83.8555 C   0  0  0  0  0  0  0  0  0  0  0  0
   -3.0414   59.7707   82.5872 C   0  0  0  0  0  0  0  0  0  0  0  0
    1.6513   69.9368   80.7297 S   0  0  0  0  0  0  0  0  0  0  0  0
    2.5379   69.6942   79.6128 O   0  0  0  0  0  0  0  0  0  0  0  0
    0.3356   70.5075   80.5286 O   0  0  0  0  0  0  0  0  0  0  0  0
    2.4621   70.9170   81.8621 N   0  0  0  0  0  0  0  0  0  0  0  0
    1.6141   71.9397   82.5563 C   0  0  0  0  0  0  0  0  0  0  0  0
    2.4802   73.0590   83.1619 C   0  0  0  0  0  0  0  0  0  0  0  0
    3.1989   73.8429   82.1347 N   0  0  0  0  0  0  0  0  0  0  0  0
    3.6383   72.9794   81.0158 C   0  0  0  0  0  0  0  0  0  0  0  0
    3.7560   71.4824   81.3600 C   0  0  0  0  0  0  0  0  0  0  0  0
    4.3002   74.6040   82.7469 C   0  0  0  0  0  0  0  0  0  0  0  0
    3.9668   75.1293   84.1556 C   0  0  0  0  0  0  0  0  0  0  0  0
    5.1299   75.6366   84.8181 O   0  0  0  0  0  0  0  0  0  0  0  0
    6.0757   76.2084   83.9249 C   0  0  0  0  0  0  0  0  0  0  0  0
    1.0087   64.7576   83.5526 O   0  0  0  0  0  0  0  0  0  0  0  0
    1.0645   64.8531   84.9836 C   0  0  0  0  0  0  0  0  0  0  0  0
   -0.0135   63.9973   87.1120 C   0  0  0  0  0  0  0  0  0  0  0  0
    0.1184   63.8288   85.6048 C   0  0  0  0  0  0  0  0  0  0  0  0
 39 40  1  0  0  0
 40 38  1  0  0  0
 38 37  1  0  0  0
 37  1  1  0  0  0
  1  2  1  0  0  0
  2  3  2  0  0  0
  3  4  1  0  0  0
  4 24  1  0  0  0
 24 25  2  0  0  0
 24 26  2  0  0  0
 24 27  1  0  0  0
 27 28  1  0  0  0
 28 29  1  0  0  0
 29 30  1  0  0  0
 30 33  1  0  0  0
 33 34  1  0  0  0
 34 35  1  0  0  0
 35 36  1  0  0  0
 30 31  1  0  0  0
 31 32  1  0  0  0
  4  5  2  0  0  0
  5  6  1  0  0  0
  6  7  1  0  0  0
  7  8  2  0  0  0
  8  9  1  0  0  0
  9 10  1  0  0  0
 10 11  2  0  0  0
 10 12  1  0  0  0
 12 13  1  0  0  0
 12 14  1  0  0  0
 14 15  2  0  0  0
 14 16  1  0  0  0
 16 20  1  0  0  0
 20 21  1  0  0  0
 21 22  1  0  0  0
 21 23  1  0  0  0
 16 17  1  0  0  0
 17 18  1  0  0  0
  6  1  2  0  0  0
 18  7  1  0  0  0
 32 27  1  0  0  0
 17  9  2  0  0  0
 18 19  1  0  0  0
M  END
> <minimizedAffinity>
-8.99450

$$$$
