
     RDKit          3D

 60 64  0  0  0  0  0  0  0  0999 V2000
   -2.5612    5.1663   -1.0764 C   0  0  0  0  0  0  0  0  0  0  0  0
   -1.9577    4.5499   -2.3282 C   0  0  0  0  0  0  0  0  0  0  0  0
   -1.7092    3.1494   -2.1696 O   0  0  0  0  0  0  0  0  0  0  0  0
   -0.6705    2.8019   -1.3412 C   0  0  0  0  0  0  0  0  0  0  0  0
    0.5914    3.4044   -1.4645 C   0  0  0  0  0  0  0  0  0  0  0  0
    1.6576    2.9854   -0.6693 C   0  0  0  0  0  0  0  0  0  0  0  0
    1.4664    1.9437    0.2351 C   0  0  0  0  0  0  0  0  0  0  0  0
    2.8332    1.4025    1.2319 S   0  0  0  0  0  0  0  0  0  0  0  0
    3.4739    2.5934    1.7477 O   0  0  0  0  0  0  0  0  0  0  0  0
    2.3618    0.3654    2.1238 O   0  0  0  0  0  0  0  0  0  0  0  0
    3.8656    0.6936    0.0816 N   0  0  0  0  0  0  0  0  0  0  0  0
    3.3734   -0.5365   -0.6147 C   0  0  0  0  0  0  0  0  0  0  0  0
    3.5992   -1.8194    0.2123 C   0  0  0  0  0  0  0  0  0  0  0  0
    5.0025   -1.9784    0.6442 N   0  0  0  0  0  0  0  0  0  0  0  0
    5.1510   -3.1713    1.4770 C   0  0  0  0  0  0  0  0  0  0  0  0
    5.4401   -0.7749    1.3814 C   0  0  0  0  0  0  0  0  0  0  0  0
    5.2776    0.5019    0.5367 C   0  0  0  0  0  0  0  0  0  0  0  0
    0.2185    1.3283    0.3598 C   0  0  0  0  0  0  0  0  0  0  0  0
   -0.8743    1.7380   -0.4337 C   0  0  0  0  0  0  0  0  0  0  0  0
   -2.1634    1.0381   -0.2908 C   0  0  0  0  0  0  0  0  0  0  0  0
   -3.2825    1.7928   -0.2076 N   0  0  0  0  0  0  0  0  0  0  0  0
   -4.4520    1.1551   -0.0481 C   0  0  0  0  0  0  0  0  0  0  0  0
   -5.5451    1.9722    0.0108 O   0  0  0  0  0  0  0  0  0  0  0  0
   -4.5167   -0.2300    0.0534 C   0  0  0  0  0  0  0  0  0  0  0  0
   -5.5503   -1.1172    0.2205 N   0  0  0  0  0  0  0  0  0  0  0  0
   -4.9800   -2.3027    0.2506 C   0  0  0  0  0  0  0  0  0  0  0  0
   -5.5601   -3.5876    0.4024 C   0  0  0  0  0  0  0  0  0  0  0  0
   -4.7729   -4.6762    0.4083 C   0  0  0  0  0  0  0  0  0  0  0  0
   -3.3230   -4.5854    0.2629 C   0  0  0  0  0  0  0  0  0  0  0  0
   -2.4105   -6.2192    0.2996 Br  0  0  0  0  0  0  0  0  0  0  0  0
   -2.7420   -3.3698    0.1151 C   0  0  0  0  0  0  0  0  0  0  0  0
   -1.2612   -3.1437   -0.0415 C   0  0  0  0  0  0  0  0  0  0  0  0
   -3.5902   -2.2337    0.1097 N   0  0  0  0  0  0  0  0  0  0  0  0
   -3.2982   -0.8861   -0.0225 C   0  0  0  0  0  0  0  0  0  0  0  0
   -2.0915   -0.3095   -0.1877 N   0  0  0  0  0  0  0  0  0  0  0  0
   -1.8669    5.1142   -0.2321 H   0  0  0  0  0  0  0  0  0  0  0  0
   -2.8154    6.2161   -1.2494 H   0  0  0  0  0  0  0  0  0  0  0  0
   -3.4691    4.6311   -0.7815 H   0  0  0  0  0  0  0  0  0  0  0  0
   -1.0698    5.0979   -2.6572 H   0  0  0  0  0  0  0  0  0  0  0  0
   -2.6856    4.6403   -3.1425 H   0  0  0  0  0  0  0  0  0  0  0  0
    0.7752    4.1809   -2.2006 H   0  0  0  0  0  0  0  0  0  0  0  0
    2.6327    3.4577   -0.7703 H   0  0  0  0  0  0  0  0  0  0  0  0
    2.3151   -0.4397   -0.8745 H   0  0  0  0  0  0  0  0  0  0  0  0
    3.9118   -0.6133   -1.5682 H   0  0  0  0  0  0  0  0  0  0  0  0
    2.9278   -1.8282    1.0784 H   0  0  0  0  0  0  0  0  0  0  0  0
    3.3173   -2.6753   -0.4134 H   0  0  0  0  0  0  0  0  0  0  0  0
    4.5467   -3.1196    2.3899 H   0  0  0  0  0  0  0  0  0  0  0  0
    4.8569   -4.0671    0.9191 H   0  0  0  0  0  0  0  0  0  0  0  0
    6.1990   -3.3095    1.7649 H   0  0  0  0  0  0  0  0  0  0  0  0
    4.8836   -0.6725    2.3214 H   0  0  0  0  0  0  0  0  0  0  0  0
    6.5008   -0.8762    1.6414 H   0  0  0  0  0  0  0  0  0  0  0  0
    5.6243    1.3758    1.0979 H   0  0  0  0  0  0  0  0  0  0  0  0
    5.9141    0.4450   -0.3557 H   0  0  0  0  0  0  0  0  0  0  0  0
    0.0855    0.5171    1.0755 H   0  0  0  0  0  0  0  0  0  0  0  0
   -5.1248    2.8422   -0.0987 H   0  0  0  0  0  0  0  0  0  0  0  0
   -6.6366   -3.6626    0.5118 H   0  0  0  0  0  0  0  0  0  0  0  0
   -5.2230   -5.6586    0.5254 H   0  0  0  0  0  0  0  0  0  0  0  0
   -1.0469   -2.6565   -0.9988 H   0  0  0  0  0  0  0  0  0  0  0  0
   -0.8807   -2.5164    0.7718 H   0  0  0  0  0  0  0  0  0  0  0  0
   -0.6717   -4.0633   -0.0238 H   0  0  0  0  0  0  0  0  0  0  0  0
  1  2  1  0
  2  3  1  0
  3  4  1  0
  4  5  1  0
  5  6  2  0
  6  7  1  0
  7  8  1  0
  8  9  2  0
  8 10  2  0
  8 11  1  0
 11 12  1  0
 12 13  1  0
 13 14  1  0
 14 15  1  0
 14 16  1  0
 16 17  1  0
  7 18  2  0
 18 19  1  0
 19 20  1  0
 20 21  2  0
 21 22  1  0
 22 23  1  0
 22 24  2  0
 24 25  1  0
 25 26  2  0
 26 27  1  0
 27 28  2  0
 28 29  1  0
 29 30  1  0
 29 31  2  0
 31 32  1  0
 31 33  1  0
 33 34  1  0
 34 35  2  0
 19  4  2  0
 35 20  1  0
 17 11  1  0
 34 24  1  0
 33 26  1  0
  1 36  1  0
  1 37  1  0
  1 38  1  0
  2 39  1  0
  2 40  1  0
  5 41  1  0
  6 42  1  0
 12 43  1  0
 12 44  1  0
 13 45  1  0
 13 46  1  0
 15 47  1  0
 15 48  1  0
 15 49  1  0
 16 50  1  0
 16 51  1  0
 17 52  1  0
 17 53  1  0
 18 54  1  0
 23 55  1  0
 27 56  1  0
 28 57  1  0
 32 58  1  0
 32 59  1  0
 32 60  1  0
M  END
$$$$
