


 38 41  0  0  0  0  0  0  0  0999 V2000
    2.4721   69.2392   82.7184 C   0  0  0  0  0  0  0  0  0  0  0  0
    3.7780   69.3168   83.1555 C   0  0  0  0  0  0  0  0  0  0  0  0
    4.3674   68.3410   83.8856 N   0  0  0  0  0  0  0  0  0  0  0  0
    3.6208   67.2548   84.2059 C   0  0  0  0  0  0  0  0  0  0  0  0
    2.2795   67.1039   83.8384 C   0  0  0  0  0  0  0  0  0  0  0  0
    1.7024   68.1362   83.0832 C   0  0  0  0  0  0  0  0  0  0  0  0
    1.4243   65.9202   84.1789 C   0  0  0  0  0  0  0  0  0  0  0  0
    0.6870   65.3861   83.2439 N   0  0  0  0  0  0  0  0  0  0  0  0
   -0.0738   64.2958   83.6649 C   0  0  0  0  0  0  0  0  0  0  0  0
   -0.9462   63.5380   82.9300 C   0  0  0  0  0  0  0  0  0  0  0  0
   -1.4235   62.6098   83.8304 N   0  0  0  0  0  0  0  0  0  0  0  0
   -2.3824   61.5591   83.5760 C   0  0  0  0  0  0  0  0  0  0  0  0
   -0.9009   62.7314   85.0747 N   0  0  0  0  0  0  0  0  0  0  0  0
   -0.0732   63.7795   84.9640 C   0  0  0  0  0  0  0  0  0  0  0  0
    0.7565   64.3803   85.9831 C   0  0  0  0  0  0  0  0  0  0  0  0
    0.8550   64.0205   87.1524 O   0  0  0  0  0  0  0  0  0  0  0  0
    1.4700   65.4573   85.4902 N   0  0  0  0  0  0  0  0  0  0  0  0
    2.0718   65.9021   86.1719 H   0  0  0  0  0  0  0  0  0  0  0  0
   -1.3495   63.6211   81.5002 C   0  0  0  0  0  0  0  0  0  0  0  0
   -0.2852   63.0405   80.5821 C   0  0  0  0  0  0  0  0  0  0  0  0
    1.7804   70.5712   81.7945 S   0  0  0  0  0  0  0  0  0  0  0  0
    1.1494   71.4660   82.7411 O   0  0  0  0  0  0  0  0  0  0  0  0
    1.0254   69.9879   80.7067 O   0  0  0  0  0  0  0  0  0  0  0  0
    5.0862   72.8095   79.5486 N   0  0  0  0  0  0  0  0  0  0  0  0
    4.4388   73.4324   80.7188 C   0  0  0  0  0  0  0  0  0  0  0  0
    3.0376   72.8393   80.9748 C   0  0  0  0  0  0  0  0  0  0  0  0
    3.1280   71.3605   81.1458 N   0  0  0  0  0  0  0  0  0  0  0  0
    3.8057   70.7111   79.9877 C   0  0  0  0  0  0  0  0  0  0  0  0
    5.1893   71.3522   79.7508 C   0  0  0  0  0  0  0  0  0  0  0  0
    6.3647   73.4372   79.1915 C   0  0  0  0  0  0  0  0  0  0  0  0
    8.5149   73.0054   77.9487 C   0  0  0  0  0  0  0  0  0  0  0  0
    7.5805   72.5120   79.0451 C   0  0  0  0  0  0  0  0  0  0  0  0
    4.2147   66.2689   84.9664 O   0  0  0  0  0  0  0  0  0  0  0  0
    5.5260   66.5751   85.4751 C   0  0  0  0  0  0  0  0  0  0  0  0
    6.4209   65.4000   85.0748 C   0  0  0  0  0  0  0  0  0  0  0  0
    5.4903   66.7336   87.0033 C   0  0  0  0  0  0  0  0  0  0  0  0
    5.2337   65.4729   87.6238 O   0  0  0  0  0  0  0  0  0  0  0  0
    5.7445   65.4287   88.9498 C   0  0  0  0  0  0  0  0  0  0  0  0
 31 32  1  0  0  0
 32 30  1  0  0  0
 30 24  1  0  0  0
 24 25  1  0  0  0
 25 26  1  0  0  0
 26 27  1  0  0  0
 27 21  1  0  0  0
 21 22  2  0  0  0
 21 23  2  0  0  0
 21  1  1  0  0  0
  1  2  1  0  0  0
  2  3  2  0  0  0
  3  4  1  0  0  0
  4 33  1  0  0  0
 33 34  1  0  0  0
 34 35  1  0  0  0
 34 36  1  0  0  0
 36 37  1  0  0  0
 37 38  1  0  0  0
  4  5  2  0  0  0
  5  7  1  0  0  0
  7  8  2  0  0  0
  8  9  1  0  0  0
  9 10  2  0  0  0
 10 19  1  0  0  0
 19 20  1  0  0  0
 10 11  1  0  0  0
 11 12  1  0  0  0
 11 13  1  0  0  0
 13 14  2  0  0  0
 14 15  1  0  0  0
 15 16  2  0  0  0
 15 17  1  0  0  0
  5  6  1  0  0  0
 27 28  1  0  0  0
 28 29  1  0  0  0
 29 24  1  0  0  0
  6  1  2  0  0  0
 17  7  1  0  0  0
 14  9  1  0  0  0
 17 18  1  0  0  0
M  END
> <minimizedAffinity>
-9.14362

$$$$



 38 41  0  0  0  0  0  0  0  0999 V2000
    2.4789   69.1193   82.4654 C   0  0  0  0  0  0  0  0  0  0  0  0
    3.7483   69.2664   82.9842 C   0  0  0  0  0  0  0  0  0  0  0  0
    4.3038   68.3690   83.8321 N   0  0  0  0  0  0  0  0  0  0  0  0
    3.5584   67.2934   84.1888 C   0  0  0  0  0  0  0  0  0  0  0  0
    2.2501   67.0781   83.7429 C   0  0  0  0  0  0  0  0  0  0  0  0
    1.7076   68.0300   82.8661 C   0  0  0  0  0  0  0  0  0  0  0  0
    1.3970   65.9041   84.1203 C   0  0  0  0  0  0  0  0  0  0  0  0
    0.6323   65.3631   83.2115 N   0  0  0  0  0  0  0  0  0  0  0  0
   -0.1238   64.2830   83.6658 C   0  0  0  0  0  0  0  0  0  0  0  0
   -1.0195   63.5217   82.9633 C   0  0  0  0  0  0  0  0  0  0  0  0
   -1.4787   62.6077   83.8873 N   0  0  0  0  0  0  0  0  0  0  0  0
   -2.4503   61.5600   83.6711 C   0  0  0  0  0  0  0  0  0  0  0  0
   -0.9232   62.7413   85.1160 N   0  0  0  0  0  0  0  0  0  0  0  0
   -0.0924   63.7828   84.9707 C   0  0  0  0  0  0  0  0  0  0  0  0
    0.7672   64.3909   85.9603 C   0  0  0  0  0  0  0  0  0  0  0  0
    0.8940   64.0449   87.1311 O   0  0  0  0  0  0  0  0  0  0  0  0
    1.4741   65.4572   85.4355 N   0  0  0  0  0  0  0  0  0  0  0  0
    2.0961   65.9065   86.0958 H   0  0  0  0  0  0  0  0  0  0  0  0
   -1.4595   63.5896   81.5435 C   0  0  0  0  0  0  0  0  0  0  0  0
   -0.3999   63.0410   80.6006 C   0  0  0  0  0  0  0  0  0  0  0  0
    1.8279   70.3531   81.3881 S   0  0  0  0  0  0  0  0  0  0  0  0
    0.4204   70.4905   81.6964 O   0  0  0  0  0  0  0  0  0  0  0  0
    2.2665   70.0237   80.0493 O   0  0  0  0  0  0  0  0  0  0  0  0
    3.5176   74.4905   82.3930 N   0  0  0  0  0  0  0  0  0  0  0  0
    2.8779   73.6802   83.4470 C   0  0  0  0  0  0  0  0  0  0  0  0
    1.9017   72.6440   82.8522 C   0  0  0  0  0  0  0  0  0  0  0  0
    2.6111   71.7716   81.8725 N   0  0  0  0  0  0  0  0  0  0  0  0
    3.2908   72.5701   80.8130 C   0  0  0  0  0  0  0  0  0  0  0  0
    4.2349   73.6104   81.4517 C   0  0  0  0  0  0  0  0  0  0  0  0
    4.3528   75.5756   82.9233 C   0  0  0  0  0  0  0  0  0  0  0  0
    3.9800   76.8455   85.0687 C   0  0  0  0  0  0  0  0  0  0  0  0
    4.5879   75.5991   84.4398 C   0  0  0  0  0  0  0  0  0  0  0  0
    4.1164   66.3886   85.0680 O   0  0  0  0  0  0  0  0  0  0  0  0
    5.4624   66.6744   85.4906 C   0  0  0  0  0  0  0  0  0  0  0  0
    6.3198   65.5092   84.9916 C   0  0  0  0  0  0  0  0  0  0  0  0
    5.5370   66.7861   87.0214 C   0  0  0  0  0  0  0  0  0  0  0  0
    6.0282   65.5673   87.5813 O   0  0  0  0  0  0  0  0  0  0  0  0
    5.7120   65.4613   88.9632 C   0  0  0  0  0  0  0  0  0  0  0  0
 31 32  1  0  0  0
 32 30  1  0  0  0
 30 24  1  0  0  0
 24 25  1  0  0  0
 25 26  1  0  0  0
 26 27  1  0  0  0
 27 21  1  0  0  0
 21 22  2  0  0  0
 21 23  2  0  0  0
 21  1  1  0  0  0
  1  2  1  0  0  0
  2  3  2  0  0  0
  3  4  1  0  0  0
  4 33  1  0  0  0
 33 34  1  0  0  0
 34 35  1  0  0  0
 34 36  1  0  0  0
 36 37  1  0  0  0
 37 38  1  0  0  0
  4  5  2  0  0  0
  5  7  1  0  0  0
  7  8  2  0  0  0
  8  9  1  0  0  0
  9 10  2  0  0  0
 10 19  1  0  0  0
 19 20  1  0  0  0
 10 11  1  0  0  0
 11 12  1  0  0  0
 11 13  1  0  0  0
 13 14  2  0  0  0
 14 15  1  0  0  0
 15 16  2  0  0  0
 15 17  1  0  0  0
  5  6  1  0  0  0
 27 28  1  0  0  0
 28 29  1  0  0  0
 29 24  1  0  0  0
  6  1  2  0  0  0
 17  7  1  0  0  0
 14  9  1  0  0  0
 17 18  1  0  0  0
M  END
> <minimizedAffinity>
-9.06390

$$$$



 38 41  0  0  0  0  0  0  0  0999 V2000
    1.8602   67.8094   81.4537 C   0  0  0  0  0  0  0  0  0  0  0  0
    1.7314   67.7526   80.0817 C   0  0  0  0  0  0  0  0  0  0  0  0
    1.0713   66.7557   79.4466 N   0  0  0  0  0  0  0  0  0  0  0  0
    0.5342   65.7700   80.2080 C   0  0  0  0  0  0  0  0  0  0  0  0
    0.6443   65.7236   81.6018 C   0  0  0  0  0  0  0  0  0  0  0  0
    1.3363   66.7734   82.2247 C   0  0  0  0  0  0  0  0  0  0  0  0
    0.0676   64.6480   82.4729 C   0  0  0  0  0  0  0  0  0  0  0  0
    0.1926   64.7518   83.7678 N   0  0  0  0  0  0  0  0  0  0  0  0
   -0.3724   63.6980   84.4857 C   0  0  0  0  0  0  0  0  0  0  0  0
   -0.3951   63.5143   85.8426 C   0  0  0  0  0  0  0  0  0  0  0  0
   -1.0654   62.3212   86.0073 N   0  0  0  0  0  0  0  0  0  0  0  0
   -1.3695   61.6550   87.2532 C   0  0  0  0  0  0  0  0  0  0  0  0
   -1.4705   61.7529   84.8458 N   0  0  0  0  0  0  0  0  0  0  0  0
   -1.0321   62.6077   83.9113 C   0  0  0  0  0  0  0  0  0  0  0  0
   -1.1670   62.5154   82.4756 C   0  0  0  0  0  0  0  0  0  0  0  0
   -1.7271   61.6207   81.8493 O   0  0  0  0  0  0  0  0  0  0  0  0
   -0.5746   63.5898   81.8378 N   0  0  0  0  0  0  0  0  0  0  0  0
   -0.6546   63.5677   80.8289 H   0  0  0  0  0  0  0  0  0  0  0  0
    0.1479   64.3447   86.9514 C   0  0  0  0  0  0  0  0  0  0  0  0
    1.5751   63.9519   87.3000 C   0  0  0  0  0  0  0  0  0  0  0  0
    2.7603   69.1329   82.1917 S   0  0  0  0  0  0  0  0  0  0  0  0
    1.7969   69.9941   82.8438 O   0  0  0  0  0  0  0  0  0  0  0  0
    3.6577   69.6523   81.1826 O   0  0  0  0  0  0  0  0  0  0  0  0
    5.3859   67.6492   85.6395 N   0  0  0  0  0  0  0  0  0  0  0  0
    3.9261   67.4403   85.6828 C   0  0  0  0  0  0  0  0  0  0  0  0
    3.1809   68.4563   84.7921 C   0  0  0  0  0  0  0  0  0  0  0  0
    3.6845   68.3787   83.3905 N   0  0  0  0  0  0  0  0  0  0  0  0
    5.1629   68.5577   83.3243 C   0  0  0  0  0  0  0  0  0  0  0  0
    5.8656   67.5417   84.2490 C   0  0  0  0  0  0  0  0  0  0  0  0
    6.1220   66.7893   86.5749 C   0  0  0  0  0  0  0  0  0  0  0  0
    5.4910   65.3846   88.5706 C   0  0  0  0  0  0  0  0  0  0  0  0
    5.4159   65.5141   87.0552 C   0  0  0  0  0  0  0  0  0  0  0  0
   -0.1217   64.7436   79.5603 O   0  0  0  0  0  0  0  0  0  0  0  0
    0.3696   64.4163   78.2475 C   0  0  0  0  0  0  0  0  0  0  0  0
   -0.8080   64.6190   77.2915 C   0  0  0  0  0  0  0  0  0  0  0  0
    0.8617   62.9612   78.2009 C   0  0  0  0  0  0  0  0  0  0  0  0
    0.1695   62.1754   79.1723 O   0  0  0  0  0  0  0  0  0  0  0  0
   -0.6003   61.1478   78.5620 C   0  0  0  0  0  0  0  0  0  0  0  0
 31 32  1  0  0  0
 32 30  1  0  0  0
 30 24  1  0  0  0
 24 25  1  0  0  0
 25 26  1  0  0  0
 26 27  1  0  0  0
 27 21  1  0  0  0
 21 22  2  0  0  0
 21 23  2  0  0  0
 21  1  1  0  0  0
  1  2  1  0  0  0
  2  3  2  0  0  0
  3  4  1  0  0  0
  4 33  1  0  0  0
 33 34  1  0  0  0
 34 35  1  0  0  0
 34 36  1  0  0  0
 36 37  1  0  0  0
 37 38  1  0  0  0
  4  5  2  0  0  0
  5  7  1  0  0  0
  7  8  2  0  0  0
  8  9  1  0  0  0
  9 10  2  0  0  0
 10 19  1  0  0  0
 19 20  1  0  0  0
 10 11  1  0  0  0
 11 12  1  0  0  0
 11 13  1  0  0  0
 13 14  2  0  0  0
 14 15  1  0  0  0
 15 16  2  0  0  0
 15 17  1  0  0  0
  5  6  1  0  0  0
 27 28  1  0  0  0
 28 29  1  0  0  0
 29 24  1  0  0  0
  6  1  2  0  0  0
 17  7  1  0  0  0
 14  9  1  0  0  0
 17 18  1  0  0  0
M  END
> <minimizedAffinity>
-8.91404

$$$$



 38 41  0  0  0  0  0  0  0  0999 V2000
    2.5142   69.0200   81.7858 C   0  0  0  0  0  0  0  0  0  0  0  0
    3.6689   69.3700   82.4539 C   0  0  0  0  0  0  0  0  0  0  0  0
    4.1319   68.6875   83.5275 N   0  0  0  0  0  0  0  0  0  0  0  0
    3.4067   67.6263   83.9607 C   0  0  0  0  0  0  0  0  0  0  0  0
    2.2060   67.2184   83.3701 C   0  0  0  0  0  0  0  0  0  0  0  0
    1.7571   67.9506   82.2604 C   0  0  0  0  0  0  0  0  0  0  0  0
    1.3775   66.0545   83.8254 C   0  0  0  0  0  0  0  0  0  0  0  0
    0.6950   65.3822   82.9391 N   0  0  0  0  0  0  0  0  0  0  0  0
   -0.0455   64.3244   83.4659 C   0  0  0  0  0  0  0  0  0  0  0  0
   -0.8633   63.4499   82.8012 C   0  0  0  0  0  0  0  0  0  0  0  0
   -1.3446   62.6223   83.7930 N   0  0  0  0  0  0  0  0  0  0  0  0
   -2.2580   61.5133   83.6383 C   0  0  0  0  0  0  0  0  0  0  0  0
   -0.8751   62.9155   85.0299 N   0  0  0  0  0  0  0  0  0  0  0  0
   -0.0785   63.9722   84.8183 C   0  0  0  0  0  0  0  0  0  0  0  0
    0.6908   64.7245   85.7829 C   0  0  0  0  0  0  0  0  0  0  0  0
    0.7555   64.5152   86.9905 O   0  0  0  0  0  0  0  0  0  0  0  0
    1.3873   65.7585   85.1848 N   0  0  0  0  0  0  0  0  0  0  0  0
    1.9472   66.3060   85.8263 H   0  0  0  0  0  0  0  0  0  0  0  0
   -1.2132   63.3413   81.3591 C   0  0  0  0  0  0  0  0  0  0  0  0
   -0.0921   62.7000   80.5562 C   0  0  0  0  0  0  0  0  0  0  0  0
    1.9741   69.9841   80.4127 S   0  0  0  0  0  0  0  0  0  0  0  0
    0.7475   69.3880   79.9278 O   0  0  0  0  0  0  0  0  0  0  0  0
    3.1137   70.1547   79.5377 O   0  0  0  0  0  0  0  0  0  0  0  0
    0.8731   74.2445   81.6849 N   0  0  0  0  0  0  0  0  0  0  0  0
   -0.0704   73.1365   81.9271 C   0  0  0  0  0  0  0  0  0  0  0  0
    0.1840   71.9548   80.9681 C   0  0  0  0  0  0  0  0  0  0  0  0
    1.5939   71.4850   81.0927 N   0  0  0  0  0  0  0  0  0  0  0  0
    2.5664   72.5948   80.8809 C   0  0  0  0  0  0  0  0  0  0  0  0
    2.2589   73.7643   81.8396 C   0  0  0  0  0  0  0  0  0  0  0  0
    0.5808   75.4397   82.4863 C   0  0  0  0  0  0  0  0  0  0  0  0
   -1.2887   76.9186   83.3063 C   0  0  0  0  0  0  0  0  0  0  0  0
   -0.6512   76.2638   82.0882 C   0  0  0  0  0  0  0  0  0  0  0  0
    3.8674   66.9421   85.0665 O   0  0  0  0  0  0  0  0  0  0  0  0
    5.2653   67.1075   85.3677 C   0  0  0  0  0  0  0  0  0  0  0  0
    5.9886   65.9533   84.6703 C   0  0  0  0  0  0  0  0  0  0  0  0
    5.5015   67.0578   86.8853 C   0  0  0  0  0  0  0  0  0  0  0  0
    5.9742   65.7655   87.2685 O   0  0  0  0  0  0  0  0  0  0  0  0
    5.6343   65.4619   88.6151 C   0  0  0  0  0  0  0  0  0  0  0  0
 31 32  1  0  0  0
 32 30  1  0  0  0
 30 24  1  0  0  0
 24 25  1  0  0  0
 25 26  1  0  0  0
 26 27  1  0  0  0
 27 21  1  0  0  0
 21 22  2  0  0  0
 21 23  2  0  0  0
 21  1  1  0  0  0
  1  2  1  0  0  0
  2  3  2  0  0  0
  3  4  1  0  0  0
  4 33  1  0  0  0
 33 34  1  0  0  0
 34 35  1  0  0  0
 34 36  1  0  0  0
 36 37  1  0  0  0
 37 38  1  0  0  0
  4  5  2  0  0  0
  5  7  1  0  0  0
  7  8  2  0  0  0
  8  9  1  0  0  0
  9 10  2  0  0  0
 10 19  1  0  0  0
 19 20  1  0  0  0
 10 11  1  0  0  0
 11 12  1  0  0  0
 11 13  1  0  0  0
 13 14  2  0  0  0
 14 15  1  0  0  0
 15 16  2  0  0  0
 15 17  1  0  0  0
  5  6  1  0  0  0
 27 28  1  0  0  0
 28 29  1  0  0  0
 29 24  1  0  0  0
  6  1  2  0  0  0
 17  7  1  0  0  0
 14  9  1  0  0  0
 17 18  1  0  0  0
M  END
> <minimizedAffinity>
-8.85789

$$$$



 38 41  0  0  0  0  0  0  0  0999 V2000
    2.0180   67.9629   81.7414 C   0  0  0  0  0  0  0  0  0  0  0  0
    1.9500   67.9263   80.3643 C   0  0  0  0  0  0  0  0  0  0  0  0
    1.3294   66.9328   79.6857 N   0  0  0  0  0  0  0  0  0  0  0  0
    0.7704   65.9297   80.4075 C   0  0  0  0  0  0  0  0  0  0  0  0
    0.8198   65.8626   81.8039 C   0  0  0  0  0  0  0  0  0  0  0  0
    1.4723   66.9095   82.4726 C   0  0  0  0  0  0  0  0  0  0  0  0
    0.2174   64.7674   82.6323 C   0  0  0  0  0  0  0  0  0  0  0  0
    0.3173   64.8332   83.9319 N   0  0  0  0  0  0  0  0  0  0  0  0
   -0.2702   63.7643   84.6080 C   0  0  0  0  0  0  0  0  0  0  0  0
   -0.3215   63.5421   85.9583 C   0  0  0  0  0  0  0  0  0  0  0  0
   -1.0043   62.3505   86.0756 N   0  0  0  0  0  0  0  0  0  0  0  0
   -1.3385   61.6517   87.2955 C   0  0  0  0  0  0  0  0  0  0  0  0
   -1.3905   61.8190   84.8904 N   0  0  0  0  0  0  0  0  0  0  0  0
   -0.9269   62.6963   83.9897 C   0  0  0  0  0  0  0  0  0  0  0  0
   -1.0337   62.6461   82.5495 C   0  0  0  0  0  0  0  0  0  0  0  0
   -1.5882   61.7743   81.8869 O   0  0  0  0  0  0  0  0  0  0  0  0
   -0.4202   63.7332   81.9546 N   0  0  0  0  0  0  0  0  0  0  0  0
   -0.4802   63.7405   80.9441 H   0  0  0  0  0  0  0  0  0  0  0  0
    0.2057   64.3360   87.1010 C   0  0  0  0  0  0  0  0  0  0  0  0
    1.5783   63.8482   87.5376 C   0  0  0  0  0  0  0  0  0  0  0  0
    2.8703   69.2838   82.5384 S   0  0  0  0  0  0  0  0  0  0  0  0
    4.1755   69.3847   81.9208 O   0  0  0  0  0  0  0  0  0  0  0  0
    2.7371   69.0775   83.9642 O   0  0  0  0  0  0  0  0  0  0  0  0
    0.2313   72.9804   81.9445 N   0  0  0  0  0  0  0  0  0  0  0  0
    1.6955   73.1294   82.0461 C   0  0  0  0  0  0  0  0  0  0  0  0
    2.3368   71.9388   82.7891 C   0  0  0  0  0  0  0  0  0  0  0  0
    1.9817   70.6582   82.1125 N   0  0  0  0  0  0  0  0  0  0  0  0
    0.5063   70.4986   81.9717 C   0  0  0  0  0  0  0  0  0  0  0  0
   -0.0963   71.7218   81.2491 C   0  0  0  0  0  0  0  0  0  0  0  0
   -0.4313   74.1542   81.3619 C   0  0  0  0  0  0  0  0  0  0  0  0
    0.1738   74.8273   79.0091 C   0  0  0  0  0  0  0  0  0  0  0  0
   -0.8216   74.0723   79.8798 C   0  0  0  0  0  0  0  0  0  0  0  0
    0.1548   64.9070   79.7160 O   0  0  0  0  0  0  0  0  0  0  0  0
    0.6237   64.6881   78.3728 C   0  0  0  0  0  0  0  0  0  0  0  0
   -0.5670   64.9766   77.4559 C   0  0  0  0  0  0  0  0  0  0  0  0
    1.1053   63.2394   78.1969 C   0  0  0  0  0  0  0  0  0  0  0  0
    0.5697   62.4129   79.2314 O   0  0  0  0  0  0  0  0  0  0  0  0
   -0.3455   61.4554   78.7151 C   0  0  0  0  0  0  0  0  0  0  0  0
 31 32  1  0  0  0
 32 30  1  0  0  0
 30 24  1  0  0  0
 24 25  1  0  0  0
 25 26  1  0  0  0
 26 27  1  0  0  0
 27 21  1  0  0  0
 21 22  2  0  0  0
 21 23  2  0  0  0
 21  1  1  0  0  0
  1  2  1  0  0  0
  2  3  2  0  0  0
  3  4  1  0  0  0
  4 33  1  0  0  0
 33 34  1  0  0  0
 34 35  1  0  0  0
 34 36  1  0  0  0
 36 37  1  0  0  0
 37 38  1  0  0  0
  4  5  2  0  0  0
  5  7  1  0  0  0
  7  8  2  0  0  0
  8  9  1  0  0  0
  9 10  2  0  0  0
 10 19  1  0  0  0
 19 20  1  0  0  0
 10 11  1  0  0  0
 11 12  1  0  0  0
 11 13  1  0  0  0
 13 14  2  0  0  0
 14 15  1  0  0  0
 15 16  2  0  0  0
 15 17  1  0  0  0
  5  6  1  0  0  0
 27 28  1  0  0  0
 28 29  1  0  0  0
 29 24  1  0  0  0
  6  1  2  0  0  0
 17  7  1  0  0  0
 14  9  1  0  0  0
 17 18  1  0  0  0
M  END
> <minimizedAffinity>
-8.70318

$$$$



 38 41  0  0  0  0  0  0  0  0999 V2000
    2.3221   68.9462   82.5305 C   0  0  0  0  0  0  0  0  0  0  0  0
    3.5545   69.1441   83.1171 C   0  0  0  0  0  0  0  0  0  0  0  0
    4.1290   68.2379   83.9427 N   0  0  0  0  0  0  0  0  0  0  0  0
    3.4405   67.0993   84.2061 C   0  0  0  0  0  0  0  0  0  0  0  0
    2.1704   66.8270   83.6867 C   0  0  0  0  0  0  0  0  0  0  0  0
    1.6066   67.7899   82.8359 C   0  0  0  0  0  0  0  0  0  0  0  0
    1.3800   65.5825   83.9604 C   0  0  0  0  0  0  0  0  0  0  0  0
    0.9965   65.3362   85.1833 N   0  0  0  0  0  0  0  0  0  0  0  0
    0.2737   64.1528   85.3313 C   0  0  0  0  0  0  0  0  0  0  0  0
   -0.2503   63.6186   86.4782 C   0  0  0  0  0  0  0  0  0  0  0  0
   -0.8508   62.4508   86.0594 N   0  0  0  0  0  0  0  0  0  0  0  0
   -1.5596   61.4917   86.8755 C   0  0  0  0  0  0  0  0  0  0  0  0
   -0.7451   62.2249   84.7275 N   0  0  0  0  0  0  0  0  0  0  0  0
   -0.0434   63.2785   84.2876 C   0  0  0  0  0  0  0  0  0  0  0  0
    0.3837   63.5734   82.9390 C   0  0  0  0  0  0  0  0  0  0  0  0
    0.1651   62.8977   81.9380 O   0  0  0  0  0  0  0  0  0  0  0  0
    1.1001   64.7546   82.8779 N   0  0  0  0  0  0  0  0  0  0  0  0
    1.4109   65.0025   81.9470 H   0  0  0  0  0  0  0  0  0  0  0  0
   -0.2264   64.1058   87.8840 C   0  0  0  0  0  0  0  0  0  0  0  0
    0.7046   63.2726   88.7511 C   0  0  0  0  0  0  0  0  0  0  0  0
    1.6407   70.1943   81.4891 S   0  0  0  0  0  0  0  0  0  0  0  0
    0.8360   71.0578   82.3268 O   0  0  0  0  0  0  0  0  0  0  0  0
    1.0653   69.5249   80.3428 O   0  0  0  0  0  0  0  0  0  0  0  0
    4.9841   72.6721   79.5748 N   0  0  0  0  0  0  0  0  0  0  0  0
    4.2082   73.2270   80.7002 C   0  0  0  0  0  0  0  0  0  0  0  0
    2.8274   72.5499   80.8259 C   0  0  0  0  0  0  0  0  0  0  0  0
    2.9890   71.0746   80.9720 N   0  0  0  0  0  0  0  0  0  0  0  0
    3.7957   70.4946   79.8607 C   0  0  0  0  0  0  0  0  0  0  0  0
    5.1546   71.2181   79.7536 C   0  0  0  0  0  0  0  0  0  0  0  0
    6.2491   73.3795   79.3390 C   0  0  0  0  0  0  0  0  0  0  0  0
    8.4736   73.1969   78.1673 C   0  0  0  0  0  0  0  0  0  0  0  0
    7.5013   72.5187   79.1231 C   0  0  0  0  0  0  0  0  0  0  0  0
    4.0165   66.1842   85.0627 O   0  0  0  0  0  0  0  0  0  0  0  0
    5.3722   66.4634   85.4579 C   0  0  0  0  0  0  0  0  0  0  0  0
    6.1937   65.2389   85.0485 C   0  0  0  0  0  0  0  0  0  0  0  0
    5.4577   66.6914   86.9752 C   0  0  0  0  0  0  0  0  0  0  0  0
    5.0978   65.4987   87.6739 O   0  0  0  0  0  0  0  0  0  0  0  0
    5.7220   65.4307   88.9494 C   0  0  0  0  0  0  0  0  0  0  0  0
 31 32  1  0  0  0
 32 30  1  0  0  0
 30 24  1  0  0  0
 24 25  1  0  0  0
 25 26  1  0  0  0
 26 27  1  0  0  0
 27 21  1  0  0  0
 21 22  2  0  0  0
 21 23  2  0  0  0
 21  1  1  0  0  0
  1  2  1  0  0  0
  2  3  2  0  0  0
  3  4  1  0  0  0
  4 33  1  0  0  0
 33 34  1  0  0  0
 34 35  1  0  0  0
 34 36  1  0  0  0
 36 37  1  0  0  0
 37 38  1  0  0  0
  4  5  2  0  0  0
  5  7  1  0  0  0
  7  8  2  0  0  0
  8  9  1  0  0  0
  9 10  2  0  0  0
 10 19  1  0  0  0
 19 20  1  0  0  0
 10 11  1  0  0  0
 11 12  1  0  0  0
 11 13  1  0  0  0
 13 14  2  0  0  0
 14 15  1  0  0  0
 15 16  2  0  0  0
 15 17  1  0  0  0
  5  6  1  0  0  0
 27 28  1  0  0  0
 28 29  1  0  0  0
 29 24  1  0  0  0
  6  1  2  0  0  0
 17  7  1  0  0  0
 14  9  1  0  0  0
 17 18  1  0  0  0
M  END
> <minimizedAffinity>
-8.68854

$$$$



 38 41  0  0  0  0  0  0  0  0999 V2000
    0.9047   66.5921   80.3317 C   0  0  0  0  0  0  0  0  0  0  0  0
    1.2383   66.0487   79.1088 C   0  0  0  0  0  0  0  0  0  0  0  0
    0.9069   64.7856   78.7513 N   0  0  0  0  0  0  0  0  0  0  0  0
    0.2322   64.0312   79.6544 C   0  0  0  0  0  0  0  0  0  0  0  0
   -0.1177   64.4835   80.9310 C   0  0  0  0  0  0  0  0  0  0  0  0
    0.2434   65.7974   81.2662 C   0  0  0  0  0  0  0  0  0  0  0  0
   -0.8584   63.6759   81.9545 C   0  0  0  0  0  0  0  0  0  0  0  0
   -0.5984   63.8701   83.2186 N   0  0  0  0  0  0  0  0  0  0  0  0
   -1.3359   63.0657   84.0869 C   0  0  0  0  0  0  0  0  0  0  0  0
   -1.2827   63.0259   85.4548 C   0  0  0  0  0  0  0  0  0  0  0  0
   -2.2045   62.0600   85.7973 N   0  0  0  0  0  0  0  0  0  0  0  0
   -2.5497   61.6151   87.1282 C   0  0  0  0  0  0  0  0  0  0  0  0
   -2.8358   61.5013   84.7364 N   0  0  0  0  0  0  0  0  0  0  0  0
   -2.2878   62.1246   83.6842 C   0  0  0  0  0  0  0  0  0  0  0  0
   -2.5670   61.9303   82.2798 C   0  0  0  0  0  0  0  0  0  0  0  0
   -3.3799   61.1477   81.7969 O   0  0  0  0  0  0  0  0  0  0  0  0
   -1.7909   62.7554   81.4868 N   0  0  0  0  0  0  0  0  0  0  0  0
   -1.9625   62.6564   80.4941 H   0  0  0  0  0  0  0  0  0  0  0  0
   -0.4594   63.7976   86.4246 C   0  0  0  0  0  0  0  0  0  0  0  0
    0.6641   64.5526   85.7314 C   0  0  0  0  0  0  0  0  0  0  0  0
    1.4017   68.2379   80.7201 S   0  0  0  0  0  0  0  0  0  0  0  0
    0.2193   68.9501   81.1557 O   0  0  0  0  0  0  0  0  0  0  0  0
    2.1902   68.7186   79.6063 O   0  0  0  0  0  0  0  0  0  0  0  0
    3.8265   68.1569   84.6054 N   0  0  0  0  0  0  0  0  0  0  0  0
    2.9630   67.0141   84.2522 C   0  0  0  0  0  0  0  0  0  0  0  0
    1.8396   67.4309   83.2801 C   0  0  0  0  0  0  0  0  0  0  0  0
    2.4223   68.0512   82.0555 N   0  0  0  0  0  0  0  0  0  0  0  0
    3.3230   69.1913   82.3891 C   0  0  0  0  0  0  0  0  0  0  0  0
    4.4128   68.7375   83.3830 C   0  0  0  0  0  0  0  0  0  0  0  0
    4.8267   67.8321   85.6303 C   0  0  0  0  0  0  0  0  0  0  0  0
    6.3815   65.8912   85.2180 C   0  0  0  0  0  0  0  0  0  0  0  0
    5.0963   66.3449   85.8970 C   0  0  0  0  0  0  0  0  0  0  0  0
   -0.0888   62.7376   79.2983 O   0  0  0  0  0  0  0  0  0  0  0  0
   -0.5414   62.5548   77.9442 C   0  0  0  0  0  0  0  0  0  0  0  0
   -2.0563   62.7701   77.9709 C   0  0  0  0  0  0  0  0  0  0  0  0
   -0.2032   61.1406   77.4467 C   0  0  0  0  0  0  0  0  0  0  0  0
   -0.8832   60.1643   78.2371 O   0  0  0  0  0  0  0  0  0  0  0  0
   -1.2773   59.0424   77.4581 C   0  0  0  0  0  0  0  0  0  0  0  0
 31 32  1  0  0  0
 32 30  1  0  0  0
 30 24  1  0  0  0
 24 25  1  0  0  0
 25 26  1  0  0  0
 26 27  1  0  0  0
 27 21  1  0  0  0
 21 22  2  0  0  0
 21 23  2  0  0  0
 21  1  1  0  0  0
  1  2  1  0  0  0
  2  3  2  0  0  0
  3  4  1  0  0  0
  4 33  1  0  0  0
 33 34  1  0  0  0
 34 35  1  0  0  0
 34 36  1  0  0  0
 36 37  1  0  0  0
 37 38  1  0  0  0
  4  5  2  0  0  0
  5  7  1  0  0  0
  7  8  2  0  0  0
  8  9  1  0  0  0
  9 10  2  0  0  0
 10 19  1  0  0  0
 19 20  1  0  0  0
 10 11  1  0  0  0
 11 12  1  0  0  0
 11 13  1  0  0  0
 13 14  2  0  0  0
 14 15  1  0  0  0
 15 16  2  0  0  0
 15 17  1  0  0  0
  5  6  1  0  0  0
 27 28  1  0  0  0
 28 29  1  0  0  0
 29 24  1  0  0  0
  6  1  2  0  0  0
 17  7  1  0  0  0
 14  9  1  0  0  0
 17 18  1  0  0  0
M  END
> <minimizedAffinity>
-8.67534

$$$$



 38 41  0  0  0  0  0  0  0  0999 V2000
    0.8841   66.6248   81.9600 C   0  0  0  0  0  0  0  0  0  0  0  0
    1.4549   66.8659   83.1922 C   0  0  0  0  0  0  0  0  0  0  0  0
    1.3234   66.0198   84.2408 N   0  0  0  0  0  0  0  0  0  0  0  0
    0.5807   64.8996   84.0579 C   0  0  0  0  0  0  0  0  0  0  0  0
   -0.0651   64.5886   82.8566 C   0  0  0  0  0  0  0  0  0  0  0  0
    0.0931   65.4897   81.7926 C   0  0  0  0  0  0  0  0  0  0  0  0
   -0.8966   63.3632   82.6215 C   0  0  0  0  0  0  0  0  0  0  0  0
   -0.9491   62.8589   81.4189 N   0  0  0  0  0  0  0  0  0  0  0  0
   -1.7532   61.7251   81.3061 C   0  0  0  0  0  0  0  0  0  0  0  0
   -2.0173   60.9827   80.1860 C   0  0  0  0  0  0  0  0  0  0  0  0
   -2.8663   59.9931   80.6332 N   0  0  0  0  0  0  0  0  0  0  0  0
   -3.4560   58.9296   79.8525 C   0  0  0  0  0  0  0  0  0  0  0  0
   -3.1422   60.0624   81.9581 N   0  0  0  0  0  0  0  0  0  0  0  0
   -2.4552   61.1392   82.3635 C   0  0  0  0  0  0  0  0  0  0  0  0
   -2.3775   61.7083   83.6895 C   0  0  0  0  0  0  0  0  0  0  0  0
   -2.9343   61.2885   84.6995 O   0  0  0  0  0  0  0  0  0  0  0  0
   -1.5712   62.8313   83.7159 N   0  0  0  0  0  0  0  0  0  0  0  0
   -1.4830   63.2561   84.6305 H   0  0  0  0  0  0  0  0  0  0  0  0
   -1.5500   61.1313   78.7812 C   0  0  0  0  0  0  0  0  0  0  0  0
   -2.4372   62.0814   77.9920 C   0  0  0  0  0  0  0  0  0  0  0  0
    1.0874   67.7970   80.6596 S   0  0  0  0  0  0  0  0  0  0  0  0
   -0.2070   67.9729   80.0362 O   0  0  0  0  0  0  0  0  0  0  0  0
    2.2347   67.3778   79.8840 O   0  0  0  0  0  0  0  0  0  0  0  0
    2.2796   71.9102   82.2853 N   0  0  0  0  0  0  0  0  0  0  0  0
    0.8661   71.4887   82.3130 C   0  0  0  0  0  0  0  0  0  0  0  0
    0.5776   70.4007   81.2576 C   0  0  0  0  0  0  0  0  0  0  0  0
    1.4814   69.2323   81.4624 N   0  0  0  0  0  0  0  0  0  0  0  0
    2.9158   69.6381   81.4678 C   0  0  0  0  0  0  0  0  0  0  0  0
    3.1536   70.7449   82.5165 C   0  0  0  0  0  0  0  0  0  0  0  0
    2.5658   73.0366   83.1827 C   0  0  0  0  0  0  0  0  0  0  0  0
    3.9145   75.0675   83.8239 C   0  0  0  0  0  0  0  0  0  0  0  0
    3.7658   73.9252   82.8279 C   0  0  0  0  0  0  0  0  0  0  0  0
    0.4301   64.0467   85.1316 O   0  0  0  0  0  0  0  0  0  0  0  0
    0.6019   64.6401   86.4318 C   0  0  0  0  0  0  0  0  0  0  0  0
    1.9380   64.1168   86.9633 C   0  0  0  0  0  0  0  0  0  0  0  0
   -0.5491   64.2373   87.3670 C   0  0  0  0  0  0  0  0  0  0  0  0
   -1.3373   63.2097   86.7644 O   0  0  0  0  0  0  0  0  0  0  0  0
   -2.4126   62.8136   87.6057 C   0  0  0  0  0  0  0  0  0  0  0  0
 31 32  1  0  0  0
 32 30  1  0  0  0
 30 24  1  0  0  0
 24 25  1  0  0  0
 25 26  1  0  0  0
 26 27  1  0  0  0
 27 21  1  0  0  0
 21 22  2  0  0  0
 21 23  2  0  0  0
 21  1  1  0  0  0
  1  2  1  0  0  0
  2  3  2  0  0  0
  3  4  1  0  0  0
  4 33  1  0  0  0
 33 34  1  0  0  0
 34 35  1  0  0  0
 34 36  1  0  0  0
 36 37  1  0  0  0
 37 38  1  0  0  0
  4  5  2  0  0  0
  5  7  1  0  0  0
  7  8  2  0  0  0
  8  9  1  0  0  0
  9 10  2  0  0  0
 10 19  1  0  0  0
 19 20  1  0  0  0
 10 11  1  0  0  0
 11 12  1  0  0  0
 11 13  1  0  0  0
 13 14  2  0  0  0
 14 15  1  0  0  0
 15 16  2  0  0  0
 15 17  1  0  0  0
  5  6  1  0  0  0
 27 28  1  0  0  0
 28 29  1  0  0  0
 29 24  1  0  0  0
  6  1  2  0  0  0
 17  7  1  0  0  0
 14  9  1  0  0  0
 17 18  1  0  0  0
M  END
> <minimizedAffinity>
-8.65130

$$$$



 38 41  0  0  0  0  0  0  0  0999 V2000
    2.3760   68.9885   82.4368 C   0  0  0  0  0  0  0  0  0  0  0  0
    3.6161   69.1787   83.0097 C   0  0  0  0  0  0  0  0  0  0  0  0
    4.1931   68.2698   83.8306 N   0  0  0  0  0  0  0  0  0  0  0  0
    3.4995   67.1365   84.1033 C   0  0  0  0  0  0  0  0  0  0  0  0
    2.2221   66.8723   83.5981 C   0  0  0  0  0  0  0  0  0  0  0  0
    1.6559   67.8377   82.7518 C   0  0  0  0  0  0  0  0  0  0  0  0
    1.4261   65.6337   83.8824 C   0  0  0  0  0  0  0  0  0  0  0  0
    1.0502   65.3943   85.1091 N   0  0  0  0  0  0  0  0  0  0  0  0
    0.3212   64.2160   85.2668 C   0  0  0  0  0  0  0  0  0  0  0  0
   -0.1974   63.6894   86.4197 C   0  0  0  0  0  0  0  0  0  0  0  0
   -0.8084   62.5238   86.0098 N   0  0  0  0  0  0  0  0  0  0  0  0
   -1.5170   61.5722   86.8348 C   0  0  0  0  0  0  0  0  0  0  0  0
   -0.7140   62.2923   84.6779 N   0  0  0  0  0  0  0  0  0  0  0  0
   -0.0091   63.3399   84.2289 C   0  0  0  0  0  0  0  0  0  0  0  0
    0.4096   63.6272   82.8760 C   0  0  0  0  0  0  0  0  0  0  0  0
    0.1793   62.9491   81.8792 O   0  0  0  0  0  0  0  0  0  0  0  0
    1.1329   64.8036   82.8051 N   0  0  0  0  0  0  0  0  0  0  0  0
    1.4382   65.0461   81.8710 H   0  0  0  0  0  0  0  0  0  0  0  0
   -0.1600   64.1816   87.8234 C   0  0  0  0  0  0  0  0  0  0  0  0
    0.7881   63.3588   88.6817 C   0  0  0  0  0  0  0  0  0  0  0  0
    1.6921   70.2397   81.4008 S   0  0  0  0  0  0  0  0  0  0  0  0
    0.3017   70.3907   81.7734 O   0  0  0  0  0  0  0  0  0  0  0  0
    2.0660   69.9175   80.0407 O   0  0  0  0  0  0  0  0  0  0  0  0
    3.4843   74.3470   82.3498 N   0  0  0  0  0  0  0  0  0  0  0  0
    2.8518   73.5540   83.4211 C   0  0  0  0  0  0  0  0  0  0  0  0
    1.8427   72.5348   82.8522 C   0  0  0  0  0  0  0  0  0  0  0  0
    2.5134   71.6444   81.8615 N   0  0  0  0  0  0  0  0  0  0  0  0
    3.1856   72.4249   80.7840 C   0  0  0  0  0  0  0  0  0  0  0  0
    4.1636   73.4490   81.3973 C   0  0  0  0  0  0  0  0  0  0  0  0
    4.3520   75.4176   82.8569 C   0  0  0  0  0  0  0  0  0  0  0  0
    4.1412   76.8925   84.8903 C   0  0  0  0  0  0  0  0  0  0  0  0
    4.5291   75.5118   84.3785 C   0  0  0  0  0  0  0  0  0  0  0  0
    4.0785   66.2187   84.9551 O   0  0  0  0  0  0  0  0  0  0  0  0
    5.4127   66.5292   85.3971 C   0  0  0  0  0  0  0  0  0  0  0  0
    6.2898   65.3562   84.9537 C   0  0  0  0  0  0  0  0  0  0  0  0
    5.4533   66.6897   86.9249 C   0  0  0  0  0  0  0  0  0  0  0  0
    5.9525   65.4974   87.5327 O   0  0  0  0  0  0  0  0  0  0  0  0
    5.6858   65.4704   88.9289 C   0  0  0  0  0  0  0  0  0  0  0  0
 31 32  1  0  0  0
 32 30  1  0  0  0
 30 24  1  0  0  0
 24 25  1  0  0  0
 25 26  1  0  0  0
 26 27  1  0  0  0
 27 21  1  0  0  0
 21 22  2  0  0  0
 21 23  2  0  0  0
 21  1  1  0  0  0
  1  2  1  0  0  0
  2  3  2  0  0  0
  3  4  1  0  0  0
  4 33  1  0  0  0
 33 34  1  0  0  0
 34 35  1  0  0  0
 34 36  1  0  0  0
 36 37  1  0  0  0
 37 38  1  0  0  0
  4  5  2  0  0  0
  5  7  1  0  0  0
  7  8  2  0  0  0
  8  9  1  0  0  0
  9 10  2  0  0  0
 10 19  1  0  0  0
 19 20  1  0  0  0
 10 11  1  0  0  0
 11 12  1  0  0  0
 11 13  1  0  0  0
 13 14  2  0  0  0
 14 15  1  0  0  0
 15 16  2  0  0  0
 15 17  1  0  0  0
  5  6  1  0  0  0
 27 28  1  0  0  0
 28 29  1  0  0  0
 29 24  1  0  0  0
  6  1  2  0  0  0
 17  7  1  0  0  0
 14  9  1  0  0  0
 17 18  1  0  0  0
M  END
> <minimizedAffinity>
-8.62879

$$$$
