
     RDKit          3D

 57 61  0  0  0  0  0  0  0  0999 V2000
   -6.0939    4.3280    1.4460 C   0  0  0  0  0  0  0  0  0  0  0  0
   -5.0284    3.6713    0.7580 O   0  0  0  0  0  0  0  0  0  0  0  0
   -4.1688    3.0026    1.5781 C   0  0  0  0  0  0  0  0  0  0  0  0
   -4.2647    2.9376    2.7951 O   0  0  0  0  0  0  0  0  0  0  0  0
   -3.0909    2.3509    0.7500 C   0  0  0  0  0  0  0  0  0  0  0  0
   -2.0539    1.6641    1.6306 C   0  0  0  0  0  0  0  0  0  0  0  0
   -0.9672    1.0612    0.7856 C   0  0  0  0  0  0  0  0  0  0  0  0
    0.1278    1.7010    0.5027 N   0  0  0  0  0  0  0  0  0  0  0  0
    1.0689    1.0459   -0.2953 C   0  0  0  0  0  0  0  0  0  0  0  0
    2.3383    1.8097   -0.5887 C   0  0  0  0  0  0  0  0  0  0  0  0
    2.5014    2.9450   -0.1385 O   0  0  0  0  0  0  0  0  0  0  0  0
    3.2750    1.1685   -1.3838 N   0  0  0  0  0  0  0  0  0  0  0  0
    4.5551    1.8193   -1.6489 C   0  0  0  0  0  0  0  0  0  0  0  0
    5.6101    1.4312   -0.6381 C   0  0  0  0  0  0  0  0  0  0  0  0
    6.4037    0.2925   -0.8386 C   0  0  0  0  0  0  0  0  0  0  0  0
    7.3670   -0.0742    0.1025 C   0  0  0  0  0  0  0  0  0  0  0  0
    7.5410    0.6882    1.2562 C   0  0  0  0  0  0  0  0  0  0  0  0
    6.7489    1.8144    1.4728 C   0  0  0  0  0  0  0  0  0  0  0  0
    5.7856    2.1830    0.5325 C   0  0  0  0  0  0  0  0  0  0  0  0
    3.1161   -0.0897   -1.8988 N   0  0  0  0  0  0  0  0  0  0  0  0
    2.0243   -0.7311   -1.6311 C   0  0  0  0  0  0  0  0  0  0  0  0
    1.9267   -2.1170   -2.2260 C   0  0  0  0  0  0  0  0  0  0  0  0
    0.9072   -0.1976   -0.8024 C   0  0  0  0  0  0  0  0  0  0  0  0
   -0.3062   -0.8929   -0.5140 C   0  0  0  0  0  0  0  0  0  0  0  0
   -0.9156   -2.0971   -0.7928 C   0  0  0  0  0  0  0  0  0  0  0  0
   -2.1812   -2.0691   -0.1367 C   0  0  0  0  0  0  0  0  0  0  0  0
   -3.2223   -3.1050   -0.1185 C   0  0  0  0  0  0  0  0  0  0  0  0
   -4.3169   -2.9954    0.7545 C   0  0  0  0  0  0  0  0  0  0  0  0
   -5.3133   -3.9748    0.7841 C   0  0  0  0  0  0  0  0  0  0  0  0
   -5.2305   -5.0782   -0.0605 C   0  0  0  0  0  0  0  0  0  0  0  0
   -4.1535   -5.2022   -0.9348 C   0  0  0  0  0  0  0  0  0  0  0  0
   -3.1555   -4.2224   -0.9646 C   0  0  0  0  0  0  0  0  0  0  0  0
   -2.3384   -0.9064    0.5143 N   0  0  0  0  0  0  0  0  0  0  0  0
   -1.2039   -0.2213    0.2850 N   0  0  0  0  0  0  0  0  0  0  0  0
   -6.7123    3.5992    1.9792 H   0  0  0  0  0  0  0  0  0  0  0  0
   -5.6990    5.0809    2.1352 H   0  0  0  0  0  0  0  0  0  0  0  0
   -6.7170    4.8325    0.7024 H   0  0  0  0  0  0  0  0  0  0  0  0
   -2.6064    3.1230    0.1411 H   0  0  0  0  0  0  0  0  0  0  0  0
   -3.5655    1.6277    0.0780 H   0  0  0  0  0  0  0  0  0  0  0  0
   -1.5926    2.4019    2.2995 H   0  0  0  0  0  0  0  0  0  0  0  0
   -2.5140    0.9094    2.2780 H   0  0  0  0  0  0  0  0  0  0  0  0
    4.4281    2.9086   -1.6534 H   0  0  0  0  0  0  0  0  0  0  0  0
    4.8821    1.5468   -2.6604 H   0  0  0  0  0  0  0  0  0  0  0  0
    6.2660   -0.3178   -1.7286 H   0  0  0  0  0  0  0  0  0  0  0  0
    7.9781   -0.9573   -0.0626 H   0  0  0  0  0  0  0  0  0  0  0  0
    8.2894    0.4016    1.9901 H   0  0  0  0  0  0  0  0  0  0  0  0
    6.8765    2.4049    2.3763 H   0  0  0  0  0  0  0  0  0  0  0  0
    5.1645    3.0578    0.7201 H   0  0  0  0  0  0  0  0  0  0  0  0
    1.8211   -2.8593   -1.4308 H   0  0  0  0  0  0  0  0  0  0  0  0
    2.8367   -2.3553   -2.7867 H   0  0  0  0  0  0  0  0  0  0  0  0
    1.0837   -2.1669   -2.9199 H   0  0  0  0  0  0  0  0  0  0  0  0
   -0.5258   -2.9099   -1.3861 H   0  0  0  0  0  0  0  0  0  0  0  0
   -4.4020   -2.1421    1.4252 H   0  0  0  0  0  0  0  0  0  0  0  0
   -6.1522   -3.8725    1.4680 H   0  0  0  0  0  0  0  0  0  0  0  0
   -6.0057   -5.8399   -0.0381 H   0  0  0  0  0  0  0  0  0  0  0  0
   -4.0901   -6.0623   -1.5968 H   0  0  0  0  0  0  0  0  0  0  0  0
   -2.3360   -4.3508   -1.6655 H   0  0  0  0  0  0  0  0  0  0  0  0
  1  2  1  0
  2  3  1  0
  3  4  2  0
  3  5  1  0
  5  6  1  0
  6  7  1  0
  7  8  2  0
  8  9  1  0
  9 10  1  0
 10 11  2  0
 10 12  1  0
 12 13  1  0
 13 14  1  0
 14 15  2  0
 15 16  1  0
 16 17  2  0
 17 18  1  0
 18 19  2  0
 12 20  1  0
 20 21  2  0
 21 22  1  0
 21 23  1  0
 23 24  1  0
 24 25  2  0
 25 26  1  0
 26 27  1  0
 27 28  2  0
 28 29  1  0
 29 30  2  0
 30 31  1  0
 31 32  2  0
 26 33  2  0
 33 34  1  0
 34  7  1  0
 23  9  2  0
 34 24  1  0
 19 14  1  0
 32 27  1  0
  1 35  1  0
  1 36  1  0
  1 37  1  0
  5 38  1  0
  5 39  1  0
  6 40  1  0
  6 41  1  0
 13 42  1  0
 13 43  1  0
 15 44  1  0
 16 45  1  0
 17 46  1  0
 18 47  1  0
 19 48  1  0
 22 49  1  0
 22 50  1  0
 22 51  1  0
 25 52  1  0
 28 53  1  0
 29 54  1  0
 30 55  1  0
 31 56  1  0
 32 57  1  0
M  END
$$$$
