
     RDKit          3D

 60 64  0  0  0  0  0  0  0  0999 V2000
    0.9392    3.0032   -4.8790 C   0  0  0  0  0  0  0  0  0  0  0  0
    0.0578    1.8111   -4.5539 C   0  0  0  0  0  0  0  0  0  0  0  0
   -0.2606    1.8652   -3.1581 O   0  0  0  0  0  0  0  0  0  0  0  0
   -0.7887    0.6759   -2.7181 C   0  0  0  0  0  0  0  0  0  0  0  0
   -2.0820    0.3217   -3.1290 C   0  0  0  0  0  0  0  0  0  0  0  0
   -2.6836   -0.8330   -2.6338 C   0  0  0  0  0  0  0  0  0  0  0  0
   -2.0002   -1.6124   -1.7007 C   0  0  0  0  0  0  0  0  0  0  0  0
   -2.7535   -3.0962   -1.0631 S   0  0  0  0  0  0  0  0  0  0  0  0
   -3.7846   -3.4926   -1.9991 O   0  0  0  0  0  0  0  0  0  0  0  0
   -1.6826   -4.0015   -0.7036 O   0  0  0  0  0  0  0  0  0  0  0  0
   -3.5075   -2.5786    0.3582 N   0  0  0  0  0  0  0  0  0  0  0  0
   -2.6530   -2.2047    1.5193 C   0  0  0  0  0  0  0  0  0  0  0  0
   -2.8386   -0.7267    1.9123 C   0  0  0  0  0  0  0  0  0  0  0  0
   -4.2290   -0.3306    2.2155 N   0  0  0  0  0  0  0  0  0  0  0  0
   -4.4697   -0.2359    3.6531 C   0  0  0  0  0  0  0  0  0  0  0  0
   -5.2104   -1.2384    1.5844 C   0  0  0  0  0  0  0  0  0  0  0  0
   -4.7437   -1.7609    0.2136 C   0  0  0  0  0  0  0  0  0  0  0  0
   -0.7041   -1.2675   -1.2984 C   0  0  0  0  0  0  0  0  0  0  0  0
   -0.0756   -0.1043   -1.7872 C   0  0  0  0  0  0  0  0  0  0  0  0
    1.2730    0.2464   -1.3128 C   0  0  0  0  0  0  0  0  0  0  0  0
    2.1857    0.6087   -2.2463 N   0  0  0  0  0  0  0  0  0  0  0  0
    3.4257    0.9042   -1.8236 C   0  0  0  0  0  0  0  0  0  0  0  0
    4.2944    1.2750   -2.8105 O   0  0  0  0  0  0  0  0  0  0  0  0
    3.7716    0.8245   -0.4798 C   0  0  0  0  0  0  0  0  0  0  0  0
    4.9342    1.0588    0.2191 N   0  0  0  0  0  0  0  0  0  0  0  0
    4.6353    0.8042    1.4790 C   0  0  0  0  0  0  0  0  0  0  0  0
    5.4482    0.8734    2.6650 C   0  0  0  0  0  0  0  0  0  0  0  0
    6.8964    1.2881    2.6214 C   0  0  0  0  0  0  0  0  0  0  0  0
    4.8681    0.5497    3.8466 C   0  0  0  0  0  0  0  0  0  0  0  0
    3.4760    0.1418    3.9567 C   0  0  0  0  0  0  0  0  0  0  0  0
    2.7274    0.0805    2.8451 C   0  0  0  0  0  0  0  0  0  0  0  0
    3.3063    0.4089    1.6224 N   0  0  0  0  0  0  0  0  0  0  0  0
    2.7499    0.4211    0.3647 C   0  0  0  0  0  0  0  0  0  0  0  0
    1.4853    0.1082    0.0187 N   0  0  0  0  0  0  0  0  0  0  0  0
    1.8564    2.9801   -4.2817 H   0  0  0  0  0  0  0  0  0  0  0  0
    0.4253    3.9395   -4.6374 H   0  0  0  0  0  0  0  0  0  0  0  0
    1.2084    3.0114   -5.9389 H   0  0  0  0  0  0  0  0  0  0  0  0
    0.5936    0.8854   -4.7985 H   0  0  0  0  0  0  0  0  0  0  0  0
   -0.8594    1.8674   -5.1508 H   0  0  0  0  0  0  0  0  0  0  0  0
   -2.6301    0.9563   -3.8206 H   0  0  0  0  0  0  0  0  0  0  0  0
   -3.6821   -1.1070   -2.9673 H   0  0  0  0  0  0  0  0  0  0  0  0
   -2.9256   -2.8548    2.3596 H   0  0  0  0  0  0  0  0  0  0  0  0
   -1.5948   -2.3925    1.3165 H   0  0  0  0  0  0  0  0  0  0  0  0
   -2.1640   -0.4807    2.7418 H   0  0  0  0  0  0  0  0  0  0  0  0
   -2.5083   -0.1037    1.0715 H   0  0  0  0  0  0  0  0  0  0  0  0
   -4.2997   -1.1903    4.1641 H   0  0  0  0  0  0  0  0  0  0  0  0
   -3.8141    0.5179    4.1029 H   0  0  0  0  0  0  0  0  0  0  0  0
   -5.4985    0.0851    3.8513 H   0  0  0  0  0  0  0  0  0  0  0  0
   -5.4082   -2.1040    2.2316 H   0  0  0  0  0  0  0  0  0  0  0  0
   -6.1579   -0.7013    1.4609 H   0  0  0  0  0  0  0  0  0  0  0  0
   -4.5718   -0.9140   -0.4580 H   0  0  0  0  0  0  0  0  0  0  0  0
   -5.5340   -2.3879   -0.2131 H   0  0  0  0  0  0  0  0  0  0  0  0
   -0.1686   -1.9076   -0.5974 H   0  0  0  0  0  0  0  0  0  0  0  0
    3.7179    1.2184   -3.5909 H   0  0  0  0  0  0  0  0  0  0  0  0
    6.9874    2.3001    2.2129 H   0  0  0  0  0  0  0  0  0  0  0  0
    7.4660    0.6045    1.9831 H   0  0  0  0  0  0  0  0  0  0  0  0
    7.3606    1.2847    3.6132 H   0  0  0  0  0  0  0  0  0  0  0  0
    5.4347    0.5840    4.7741 H   0  0  0  0  0  0  0  0  0  0  0  0
    3.0748   -0.1032    4.9345 H   0  0  0  0  0  0  0  0  0  0  0  0
    1.6851   -0.2122    2.8384 H   0  0  0  0  0  0  0  0  0  0  0  0
  1  2  1  0
  2  3  1  0
  3  4  1  0
  4  5  1  0
  5  6  2  0
  6  7  1  0
  7  8  1  0
  8  9  2  0
  8 10  2  0
  8 11  1  0
 11 12  1  0
 12 13  1  0
 13 14  1  0
 14 15  1  0
 14 16  1  0
 16 17  1  0
  7 18  2  0
 18 19  1  0
 19 20  1  0
 20 21  2  0
 21 22  1  0
 22 23  1  0
 22 24  2  0
 24 25  1  0
 25 26  2  0
 26 27  1  0
 27 28  1  0
 27 29  2  0
 29 30  1  0
 30 31  2  0
 31 32  1  0
 32 33  1  0
 33 34  2  0
 19  4  2  0
 34 20  1  0
 17 11  1  0
 33 24  1  0
 32 26  1  0
  1 35  1  0
  1 36  1  0
  1 37  1  0
  2 38  1  0
  2 39  1  0
  5 40  1  0
  6 41  1  0
 12 42  1  0
 12 43  1  0
 13 44  1  0
 13 45  1  0
 15 46  1  0
 15 47  1  0
 15 48  1  0
 16 49  1  0
 16 50  1  0
 17 51  1  0
 17 52  1  0
 18 53  1  0
 23 54  1  0
 28 55  1  0
 28 56  1  0
 28 57  1  0
 29 58  1  0
 30 59  1  0
 31 60  1  0
M  END
$$$$
