
     RDKit          3D

 74 77  0  0  0  0  0  0  0  0999 V2000
   -0.4513   -6.5038    0.3639 C   0  0  0  0  0  0  0  0  0  0  0  0
   -1.7076   -6.0923   -0.3915 C   0  0  0  0  0  0  0  0  0  0  0  0
   -1.4207   -5.0469   -1.4682 C   0  0  0  0  0  0  0  0  0  0  0  0
   -0.8216   -3.8714   -0.9176 O   0  0  0  0  0  0  0  0  0  0  0  0
   -1.6013   -2.8632   -0.4131 C   0  0  0  0  0  0  0  0  0  0  0  0
   -3.0031   -2.9174   -0.3633 C   0  0  0  0  0  0  0  0  0  0  0  0
   -3.7466   -1.8531    0.1541 C   0  0  0  0  0  0  0  0  0  0  0  0
   -3.0868   -0.7252    0.6320 C   0  0  0  0  0  0  0  0  0  0  0  0
   -4.0089    0.6440    1.2878 S   0  0  0  0  0  0  0  0  0  0  0  0
   -3.5634    0.8264    2.6516 O   0  0  0  0  0  0  0  0  0  0  0  0
   -5.4062    0.4296    0.9782 O   0  0  0  0  0  0  0  0  0  0  0  0
   -3.4516    1.9476    0.3522 N   0  0  0  0  0  0  0  0  0  0  0  0
   -3.7985    1.9441   -1.1027 C   0  0  0  0  0  0  0  0  0  0  0  0
   -5.2038    2.5194   -1.3795 C   0  0  0  0  0  0  0  0  0  0  0  0
   -5.4022    3.8554   -0.7823 N   0  0  0  0  0  0  0  0  0  0  0  0
   -6.7669    4.3256   -1.0168 C   0  0  0  0  0  0  0  0  0  0  0  0
   -5.1135    3.8052    0.6659 C   0  0  0  0  0  0  0  0  0  0  0  0
   -3.6864    3.3004    0.9430 C   0  0  0  0  0  0  0  0  0  0  0  0
   -1.6938   -0.6515    0.6035 C   0  0  0  0  0  0  0  0  0  0  0  0
   -0.9363   -1.7150    0.0807 C   0  0  0  0  0  0  0  0  0  0  0  0
    0.5582   -1.5363    0.0830 C   0  0  0  0  0  0  0  0  0  0  0  0
    1.0742   -0.3953    0.4257 N   0  0  0  0  0  0  0  0  0  0  0  0
    2.4279   -0.3294    0.3962 N   0  0  0  0  0  0  0  0  0  0  0  0
    3.1635    0.7861    0.7213 C   0  0  0  0  0  0  0  0  0  0  0  0
    2.4904    2.0525    1.1645 C   0  0  0  0  0  0  0  0  0  0  0  0
    1.9349    2.8785    0.0012 C   0  0  0  0  0  0  0  0  0  0  0  0
    3.0171    3.4828   -0.8825 C   0  0  0  0  0  0  0  0  0  0  0  0
    4.5113    0.4727    0.5652 C   0  0  0  0  0  0  0  0  0  0  0  0
    5.6007    1.4039    0.8138 C   0  0  0  0  0  0  0  0  0  0  0  0
    6.8269    1.0318    0.6409 N   0  0  0  0  0  0  0  0  0  0  0  0
    7.6758    2.1080    0.9434 O   0  0  0  0  0  0  0  0  0  0  0  0
    9.0201    1.6831    0.7522 C   0  0  0  0  0  0  0  0  0  0  0  0
    4.5738   -0.8970    0.1250 C   0  0  0  0  0  0  0  0  0  0  0  0
    5.8135   -1.6704   -0.1742 C   0  0  0  0  0  0  0  0  0  0  0  0
    3.2649   -1.3468    0.0363 C   0  0  0  0  0  0  0  0  0  0  0  0
    2.6959   -2.6036   -0.3430 C   0  0  0  0  0  0  0  0  0  0  0  0
    3.3153   -3.6016   -0.6993 O   0  0  0  0  0  0  0  0  0  0  0  0
    1.3274   -2.6159   -0.2828 N   0  0  0  0  0  0  0  0  0  0  0  0
   -0.6898   -7.2812    1.0967 H   0  0  0  0  0  0  0  0  0  0  0  0
    0.3043   -6.9029   -0.3202 H   0  0  0  0  0  0  0  0  0  0  0  0
   -0.0150   -5.6569    0.9028 H   0  0  0  0  0  0  0  0  0  0  0  0
   -2.1537   -6.9768   -0.8595 H   0  0  0  0  0  0  0  0  0  0  0  0
   -2.4314   -5.7051    0.3333 H   0  0  0  0  0  0  0  0  0  0  0  0
   -2.3061   -4.8165   -2.0704 H   0  0  0  0  0  0  0  0  0  0  0  0
   -0.6895   -5.4605   -2.1731 H   0  0  0  0  0  0  0  0  0  0  0  0
   -3.5598   -3.7808   -0.7142 H   0  0  0  0  0  0  0  0  0  0  0  0
   -4.8326   -1.9187    0.1853 H   0  0  0  0  0  0  0  0  0  0  0  0
   -3.0434    2.5462   -1.6241 H   0  0  0  0  0  0  0  0  0  0  0  0
   -3.7194    0.9340   -1.5167 H   0  0  0  0  0  0  0  0  0  0  0  0
   -5.3288    2.5899   -2.4670 H   0  0  0  0  0  0  0  0  0  0  0  0
   -5.9690    1.8224   -1.0190 H   0  0  0  0  0  0  0  0  0  0  0  0
   -6.9696    4.3930   -2.0914 H   0  0  0  0  0  0  0  0  0  0  0  0
   -7.5175    3.6672   -0.5648 H   0  0  0  0  0  0  0  0  0  0  0  0
   -6.9008    5.3329   -0.6073 H   0  0  0  0  0  0  0  0  0  0  0  0
   -5.8407    3.1674    1.1841 H   0  0  0  0  0  0  0  0  0  0  0  0
   -5.2048    4.8132    1.0883 H   0  0  0  0  0  0  0  0  0  0  0  0
   -2.9524    3.9905    0.5071 H   0  0  0  0  0  0  0  0  0  0  0  0
   -3.4880    3.2921    2.0197 H   0  0  0  0  0  0  0  0  0  0  0  0
   -1.2034    0.2401    0.9935 H   0  0  0  0  0  0  0  0  0  0  0  0
    1.6666    1.8030    1.8457 H   0  0  0  0  0  0  0  0  0  0  0  0
    3.1812    2.6642    1.7557 H   0  0  0  0  0  0  0  0  0  0  0  0
    1.3329    3.6965    0.4153 H   0  0  0  0  0  0  0  0  0  0  0  0
    1.2616    2.2736   -0.6173 H   0  0  0  0  0  0  0  0  0  0  0  0
    3.5900    2.7087   -1.4015 H   0  0  0  0  0  0  0  0  0  0  0  0
    2.5638    4.1264   -1.6433 H   0  0  0  0  0  0  0  0  0  0  0  0
    3.7102    4.0923   -0.2942 H   0  0  0  0  0  0  0  0  0  0  0  0
    5.3528    2.4256    1.1471 H   0  0  0  0  0  0  0  0  0  0  0  0
    9.6837    2.5193    0.9871 H   0  0  0  0  0  0  0  0  0  0  0  0
    9.1795    1.3875   -0.2893 H   0  0  0  0  0  0  0  0  0  0  0  0
    9.2526    0.8490    1.4215 H   0  0  0  0  0  0  0  0  0  0  0  0
    6.3741   -1.1924   -0.9840 H   0  0  0  0  0  0  0  0  0  0  0  0
    6.4524   -1.7239    0.7132 H   0  0  0  0  0  0  0  0  0  0  0  0
    5.6026   -2.6960   -0.4850 H   0  0  0  0  0  0  0  0  0  0  0  0
    0.8863   -3.4844   -0.5574 H   0  0  0  0  0  0  0  0  0  0  0  0
  1  2  1  0
  2  3  1  0
  3  4  1  0
  4  5  1  0
  5  6  1  0
  6  7  2  0
  7  8  1  0
  8  9  1  0
  9 10  2  0
  9 11  2  0
  9 12  1  0
 12 13  1  0
 13 14  1  0
 14 15  1  0
 15 16  1  0
 15 17  1  0
 17 18  1  0
  8 19  2  0
 19 20  1  0
 20 21  1  0
 21 22  2  0
 22 23  1  0
 23 24  1  0
 24 25  1  0
 25 26  1  0
 26 27  1  0
 24 28  2  0
 28 29  1  0
 29 30  2  0
 30 31  1  0
 31 32  1  0
 28 33  1  0
 33 34  1  0
 33 35  2  0
 35 36  1  0
 36 37  2  0
 36 38  1  0
 20  5  2  0
 38 21  1  0
 18 12  1  0
 35 23  1  0
  1 39  1  0
  1 40  1  0
  1 41  1  0
  2 42  1  0
  2 43  1  0
  3 44  1  0
  3 45  1  0
  6 46  1  0
  7 47  1  0
 13 48  1  0
 13 49  1  0
 14 50  1  0
 14 51  1  0
 16 52  1  0
 16 53  1  0
 16 54  1  0
 17 55  1  0
 17 56  1  0
 18 57  1  0
 18 58  1  0
 19 59  1  0
 25 60  1  0
 25 61  1  0
 26 62  1  0
 26 63  1  0
 27 64  1  0
 27 65  1  0
 27 66  1  0
 29 67  1  0
 32 68  1  0
 32 69  1  0
 32 70  1  0
 34 71  1  0
 34 72  1  0
 34 73  1  0
 38 74  1  0
M  END
$$$$
