
     RDKit          3D

 72 75  0  0  0  0  0  0  0  0999 V2000
    3.1345    6.5496   -0.6383 C   0  0  0  0  0  0  0  0  0  0  0  0
    2.7103    5.4101    0.2719 C   0  0  0  0  0  0  0  0  0  0  0  0
    3.6377    4.2059    0.1367 C   0  0  0  0  0  0  0  0  0  0  0  0
    3.2884    3.1833    1.0699 O   0  0  0  0  0  0  0  0  0  0  0  0
    2.2362    2.3354    0.6061 C   0  0  0  0  0  0  0  0  0  0  0  0
    1.8901    1.3339    1.7111 C   0  0  0  0  0  0  0  0  0  0  0  0
    1.0018    0.2687    1.2554 N   0  0  0  0  0  0  0  0  0  0  0  0
   -0.3729    0.5134    1.2919 C   0  0  0  0  0  0  0  0  0  0  0  0
   -0.8471    1.5993    1.6099 O   0  0  0  0  0  0  0  0  0  0  0  0
   -1.3119   -0.6645    0.8621 C   0  0  0  0  0  0  0  0  0  0  0  0
   -2.7025   -0.6104    1.0592 N   0  0  0  0  0  0  0  0  0  0  0  0
   -3.3573    0.5377    1.7103 C   0  0  0  0  0  0  0  0  0  0  0  0
   -4.7956    0.2249    2.1848 C   0  0  0  0  0  0  0  0  0  0  0  0
   -5.6726   -0.4228    1.1868 N   0  0  0  0  0  0  0  0  0  0  0  0
   -6.0552    0.5231    0.1172 C   0  0  0  0  0  0  0  0  0  0  0  0
   -7.0571    0.0138   -0.9666 C   0  0  0  0  0  0  0  0  0  0  0  0
   -7.5496    1.2042   -1.8026 C   0  0  0  0  0  0  0  0  0  0  0  0
   -8.2594   -0.7100   -0.3578 C   0  0  0  0  0  0  0  0  0  0  0  0
   -6.4019   -0.8873   -1.8707 O   0  0  0  0  0  0  0  0  0  0  0  0
   -4.9710   -1.6319    0.7124 C   0  0  0  0  0  0  0  0  0  0  0  0
   -3.5633   -1.3866    0.1394 C   0  0  0  0  0  0  0  0  0  0  0  0
   -0.7955   -1.7264    0.3008 N   0  0  0  0  0  0  0  0  0  0  0  0
    0.5890   -1.8444    0.1531 C   0  0  0  0  0  0  0  0  0  0  0  0
    1.1055   -2.9720   -0.4715 C   0  0  0  0  0  0  0  0  0  0  0  0
    2.4240   -3.2178   -0.6604 N   0  0  0  0  0  0  0  0  0  0  0  0
    3.3068   -2.2997   -0.2057 C   0  0  0  0  0  0  0  0  0  0  0  0
    4.7283   -2.6143   -0.4419 C   0  0  0  0  0  0  0  0  0  0  0  0
    5.7292   -1.6370   -0.5502 C   0  0  0  0  0  0  0  0  0  0  0  0
    7.0589   -2.0027   -0.7691 C   0  0  0  0  0  0  0  0  0  0  0  0
    7.3657   -3.3469   -0.8800 C   0  0  0  0  0  0  0  0  0  0  0  0
    8.6934   -3.6568   -1.0941 O   0  0  0  0  0  0  0  0  0  0  0  0
    8.9251   -5.0574   -1.2060 C   0  0  0  0  0  0  0  0  0  0  0  0
    6.4468   -4.3264   -0.7918 N   0  0  0  0  0  0  0  0  0  0  0  0
    5.1621   -3.9363   -0.5831 C   0  0  0  0  0  0  0  0  0  0  0  0
    2.8748   -1.1416    0.4458 C   0  0  0  0  0  0  0  0  0  0  0  0
    1.5032   -0.9048    0.6267 C   0  0  0  0  0  0  0  0  0  0  0  0
    3.1160    6.2401   -1.6882 H   0  0  0  0  0  0  0  0  0  0  0  0
    2.4556    7.4002   -0.5227 H   0  0  0  0  0  0  0  0  0  0  0  0
    4.1471    6.8886   -0.3973 H   0  0  0  0  0  0  0  0  0  0  0  0
    1.6789    5.1255    0.0381 H   0  0  0  0  0  0  0  0  0  0  0  0
    2.7009    5.7497    1.3144 H   0  0  0  0  0  0  0  0  0  0  0  0
    4.6632    4.5101    0.3733 H   0  0  0  0  0  0  0  0  0  0  0  0
    3.6429    3.8103   -0.8859 H   0  0  0  0  0  0  0  0  0  0  0  0
    2.5778    1.8111   -0.2935 H   0  0  0  0  0  0  0  0  0  0  0  0
    1.3504    2.9236    0.3453 H   0  0  0  0  0  0  0  0  0  0  0  0
    1.4025    1.8806    2.5295 H   0  0  0  0  0  0  0  0  0  0  0  0
    2.7896    0.9142    2.1742 H   0  0  0  0  0  0  0  0  0  0  0  0
   -2.8018    0.8243    2.6095 H   0  0  0  0  0  0  0  0  0  0  0  0
   -3.3698    1.3890    1.0203 H   0  0  0  0  0  0  0  0  0  0  0  0
   -4.7331   -0.4415    3.0561 H   0  0  0  0  0  0  0  0  0  0  0  0
   -5.2639    1.1436    2.5596 H   0  0  0  0  0  0  0  0  0  0  0  0
   -6.5247    1.3865    0.6076 H   0  0  0  0  0  0  0  0  0  0  0  0
   -5.1610    0.8993   -0.3949 H   0  0  0  0  0  0  0  0  0  0  0  0
   -8.1081    1.9225   -1.1934 H   0  0  0  0  0  0  0  0  0  0  0  0
   -6.7081    1.7285   -2.2698 H   0  0  0  0  0  0  0  0  0  0  0  0
   -8.1960    0.8659   -2.6206 H   0  0  0  0  0  0  0  0  0  0  0  0
   -7.9596   -1.6314    0.1520 H   0  0  0  0  0  0  0  0  0  0  0  0
   -8.7925   -0.0736    0.3559 H   0  0  0  0  0  0  0  0  0  0  0  0
   -8.9639   -1.0162   -1.1401 H   0  0  0  0  0  0  0  0  0  0  0  0
   -5.7242   -0.3866   -2.3552 H   0  0  0  0  0  0  0  0  0  0  0  0
   -4.8761   -2.3156    1.5678 H   0  0  0  0  0  0  0  0  0  0  0  0
   -5.5771   -2.1869   -0.0092 H   0  0  0  0  0  0  0  0  0  0  0  0
   -3.1242   -2.3697   -0.0657 H   0  0  0  0  0  0  0  0  0  0  0  0
   -3.6274   -0.8553   -0.8173 H   0  0  0  0  0  0  0  0  0  0  0  0
    0.4363   -3.7408   -0.8490 H   0  0  0  0  0  0  0  0  0  0  0  0
    5.4943   -0.5782   -0.4850 H   0  0  0  0  0  0  0  0  0  0  0  0
    7.8380   -1.2538   -0.8561 H   0  0  0  0  0  0  0  0  0  0  0  0
    9.9963   -5.2048   -1.3749 H   0  0  0  0  0  0  0  0  0  0  0  0
    8.6601   -5.5793   -0.2799 H   0  0  0  0  0  0  0  0  0  0  0  0
    8.3922   -5.4812   -2.0644 H   0  0  0  0  0  0  0  0  0  0  0  0
    4.4547   -4.7621   -0.5238 H   0  0  0  0  0  0  0  0  0  0  0  0
    3.6158   -0.4424    0.8111 H   0  0  0  0  0  0  0  0  0  0  0  0
  1  2  1  0
  2  3  1  0
  3  4  1  0
  4  5  1  0
  5  6  1  0
  6  7  1  0
  7  8  1  0
  8  9  2  0
  8 10  1  0
 10 11  1  0
 11 12  1  0
 12 13  1  0
 13 14  1  0
 14 15  1  0
 15 16  1  0
 16 17  1  0
 16 18  1  0
 16 19  1  0
 14 20  1  0
 20 21  1  0
 10 22  2  0
 22 23  1  0
 23 24  1  0
 24 25  2  0
 25 26  1  0
 26 27  1  0
 27 28  2  0
 28 29  1  0
 29 30  2  0
 30 31  1  0
 31 32  1  0
 30 33  1  0
 33 34  2  0
 26 35  2  0
 35 36  1  0
 36  7  1  0
 21 11  1  0
 36 23  2  0
 34 27  1  0
  1 37  1  0
  1 38  1  0
  1 39  1  0
  2 40  1  0
  2 41  1  0
  3 42  1  0
  3 43  1  0
  5 44  1  0
  5 45  1  0
  6 46  1  0
  6 47  1  0
 12 48  1  0
 12 49  1  0
 13 50  1  0
 13 51  1  0
 15 52  1  0
 15 53  1  0
 17 54  1  0
 17 55  1  0
 17 56  1  0
 18 57  1  0
 18 58  1  0
 18 59  1  0
 19 60  1  0
 20 61  1  0
 20 62  1  0
 21 63  1  0
 21 64  1  0
 24 65  1  0
 28 66  1  0
 29 67  1  0
 32 68  1  0
 32 69  1  0
 32 70  1  0
 34 71  1  0
 35 72  1  0
M  END
$$$$
