
     RDKit          3D

 72 74  0  0  0  0  0  0  0  0999 V2000
    2.9098    1.4846   -3.4872 C   0  0  0  0  0  0  0  0  0  0  0  0
    2.3064    0.4388   -2.5629 C   0  0  0  0  0  0  0  0  0  0  0  0
    3.1105    0.2243   -1.2781 C   0  0  0  0  0  0  0  0  0  0  0  0
    3.2824    1.4576   -0.3842 C   0  0  0  0  0  0  0  0  0  0  0  0
    1.9539    2.0517    0.0883 C   0  0  0  0  0  0  0  0  0  0  0  0
    2.0912    3.1436    1.1520 C   0  0  0  0  0  0  0  0  0  0  0  0
    2.8643    2.8100    2.4355 C   0  0  0  0  0  0  0  0  0  0  0  0
    2.2001    1.8028    3.3885 C   0  0  0  0  0  0  0  0  0  0  0  0
    2.3463    0.3408    3.0039 C   0  0  0  0  0  0  0  0  0  0  0  0
    1.1991   -0.1890    2.4478 N   0  0  0  0  0  0  0  0  0  0  0  0
    1.2134   -1.4147    2.0329 C   0  0  0  0  0  0  0  0  0  0  0  0
    0.0088   -2.0091    1.3822 C   0  0  0  0  0  0  0  0  0  0  0  0
   -1.2222   -1.3676    1.5852 C   0  0  0  0  0  0  0  0  0  0  0  0
   -2.3753   -1.8639    0.9724 C   0  0  0  0  0  0  0  0  0  0  0  0
   -3.9385   -1.0564    1.2241 S   0  0  0  0  0  0  0  0  0  0  0  0
   -3.7627    0.0065    2.1897 O   0  0  0  0  0  0  0  0  0  0  0  0
   -4.9248   -2.0979    1.4181 O   0  0  0  0  0  0  0  0  0  0  0  0
   -4.2153   -0.3380   -0.2953 N   0  0  0  0  0  0  0  0  0  0  0  0
   -3.2756    0.7635   -0.6852 C   0  0  0  0  0  0  0  0  0  0  0  0
   -3.9584    2.1431   -0.6883 C   0  0  0  0  0  0  0  0  0  0  0  0
   -5.1488    2.2455   -1.5559 N   0  0  0  0  0  0  0  0  0  0  0  0
   -4.8464    2.8657   -2.8423 C   0  0  0  0  0  0  0  0  0  0  0  0
   -5.8019    0.9352   -1.7441 C   0  0  0  0  0  0  0  0  0  0  0  0
   -5.6549    0.0173   -0.5194 C   0  0  0  0  0  0  0  0  0  0  0  0
   -2.3287   -3.0163    0.1855 C   0  0  0  0  0  0  0  0  0  0  0  0
   -1.1066   -3.6519   -0.0293 C   0  0  0  0  0  0  0  0  0  0  0  0
    0.0628   -3.1373    0.5441 C   0  0  0  0  0  0  0  0  0  0  0  0
    1.2628   -3.7648    0.3166 O   0  0  0  0  0  0  0  0  0  0  0  0
    1.6255   -3.7431   -1.0718 C   0  0  0  0  0  0  0  0  0  0  0  0
    3.1250   -3.9548   -1.1649 C   0  0  0  0  0  0  0  0  0  0  0  0
    2.3161   -2.2108    2.1731 N   0  0  0  0  0  0  0  0  0  0  0  0
    3.4743   -1.7853    2.7538 C   0  0  0  0  0  0  0  0  0  0  0  0
    4.4396   -2.5359    2.8592 O   0  0  0  0  0  0  0  0  0  0  0  0
    3.4745   -0.3695    3.2176 C   0  0  0  0  0  0  0  0  0  0  0  0
    5.0388    0.2725    4.0096 Br  0  0  0  0  0  0  0  0  0  0  0  0
    2.8385    2.4876   -3.0574 H   0  0  0  0  0  0  0  0  0  0  0  0
    2.3781    1.4958   -4.4442 H   0  0  0  0  0  0  0  0  0  0  0  0
    3.9638    1.2702   -3.6858 H   0  0  0  0  0  0  0  0  0  0  0  0
    1.2759    0.7133   -2.3196 H   0  0  0  0  0  0  0  0  0  0  0  0
    2.2554   -0.5150   -3.1003 H   0  0  0  0  0  0  0  0  0  0  0  0
    2.6241   -0.5692   -0.6956 H   0  0  0  0  0  0  0  0  0  0  0  0
    4.1061   -0.1534   -1.5399 H   0  0  0  0  0  0  0  0  0  0  0  0
    3.8646    2.2257   -0.9064 H   0  0  0  0  0  0  0  0  0  0  0  0
    3.8850    1.1470    0.4753 H   0  0  0  0  0  0  0  0  0  0  0  0
    1.4395    2.4945   -0.7740 H   0  0  0  0  0  0  0  0  0  0  0  0
    1.2890    1.2635    0.4473 H   0  0  0  0  0  0  0  0  0  0  0  0
    1.0852    3.4854    1.4273 H   0  0  0  0  0  0  0  0  0  0  0  0
    2.5844    4.0059    0.6846 H   0  0  0  0  0  0  0  0  0  0  0  0
    2.9607    3.7520    2.9916 H   0  0  0  0  0  0  0  0  0  0  0  0
    3.8895    2.5137    2.1954 H   0  0  0  0  0  0  0  0  0  0  0  0
    1.1364    2.0550    3.4960 H   0  0  0  0  0  0  0  0  0  0  0  0
    2.6188    1.9416    4.3933 H   0  0  0  0  0  0  0  0  0  0  0  0
   -1.2790   -0.4818    2.2159 H   0  0  0  0  0  0  0  0  0  0  0  0
   -2.8896    0.5314   -1.6854 H   0  0  0  0  0  0  0  0  0  0  0  0
   -2.4058    0.8015   -0.0216 H   0  0  0  0  0  0  0  0  0  0  0  0
   -3.2202    2.9167   -0.9367 H   0  0  0  0  0  0  0  0  0  0  0  0
   -4.2854    2.3685    0.3343 H   0  0  0  0  0  0  0  0  0  0  0  0
   -5.7550    2.9614   -3.4468 H   0  0  0  0  0  0  0  0  0  0  0  0
   -4.4581    3.8802   -2.6979 H   0  0  0  0  0  0  0  0  0  0  0  0
   -4.1081    2.2932   -3.4145 H   0  0  0  0  0  0  0  0  0  0  0  0
   -5.3777    0.4122   -2.6112 H   0  0  0  0  0  0  0  0  0  0  0  0
   -6.8669    1.0981   -1.9492 H   0  0  0  0  0  0  0  0  0  0  0  0
   -6.0715    0.5085    0.3682 H   0  0  0  0  0  0  0  0  0  0  0  0
   -6.2164   -0.9058   -0.6993 H   0  0  0  0  0  0  0  0  0  0  0  0
   -3.2373   -3.4168   -0.2607 H   0  0  0  0  0  0  0  0  0  0  0  0
   -1.0761   -4.5544   -0.6345 H   0  0  0  0  0  0  0  0  0  0  0  0
    1.3683   -2.7828   -1.5342 H   0  0  0  0  0  0  0  0  0  0  0  0
    1.1076   -4.5521   -1.5987 H   0  0  0  0  0  0  0  0  0  0  0  0
    3.4085   -4.9068   -0.7053 H   0  0  0  0  0  0  0  0  0  0  0  0
    3.4563   -3.9496   -2.2065 H   0  0  0  0  0  0  0  0  0  0  0  0
    3.6590   -3.1670   -0.6246 H   0  0  0  0  0  0  0  0  0  0  0  0
    2.3067   -3.1658    1.8347 H   0  0  0  0  0  0  0  0  0  0  0  0
  1  2  1  0
  2  3  1  0
  3  4  1  0
  4  5  1  0
  5  6  1  0
  6  7  1  0
  7  8  1  0
  8  9  1  0
  9 10  1  0
 10 11  2  0
 11 12  1  0
 12 13  1  0
 13 14  2  0
 14 15  1  0
 15 16  2  0
 15 17  2  0
 15 18  1  0
 18 19  1  0
 19 20  1  0
 20 21  1  0
 21 22  1  0
 21 23  1  0
 23 24  1  0
 14 25  1  0
 25 26  2  0
 26 27  1  0
 27 28  1  0
 28 29  1  0
 29 30  1  0
 11 31  1  0
 31 32  1  0
 32 33  2  0
 32 34  1  0
 34 35  1  0
 34  9  2  0
 27 12  2  0
 24 18  1  0
  1 36  1  0
  1 37  1  0
  1 38  1  0
  2 39  1  0
  2 40  1  0
  3 41  1  0
  3 42  1  0
  4 43  1  0
  4 44  1  0
  5 45  1  0
  5 46  1  0
  6 47  1  0
  6 48  1  0
  7 49  1  0
  7 50  1  0
  8 51  1  0
  8 52  1  0
 13 53  1  0
 19 54  1  0
 19 55  1  0
 20 56  1  0
 20 57  1  0
 22 58  1  0
 22 59  1  0
 22 60  1  0
 23 61  1  0
 23 62  1  0
 24 63  1  0
 24 64  1  0
 25 65  1  0
 26 66  1  0
 29 67  1  0
 29 68  1  0
 30 69  1  0
 30 70  1  0
 30 71  1  0
 31 72  1  0
M  END
$$$$
