


 30 32  0  0  0  0  0  0  0  0999 V2000
    3.3450   66.1604   84.8380 C   0  0  0  0  0  0  0  0  0  0  0  0
    4.1528   67.1023   84.1804 C   0  0  0  0  0  0  0  0  0  0  0  0
    3.6374   67.8965   83.1531 C   0  0  0  0  0  0  0  0  0  0  0  0
    2.3040   67.7534   82.7801 C   0  0  0  0  0  0  0  0  0  0  0  0
    1.4806   66.8264   83.4213 C   0  0  0  0  0  0  0  0  0  0  0  0
    1.9907   66.0181   84.4525 C   0  0  0  0  0  0  0  0  0  0  0  0
    1.0351   65.0391   85.0738 C   0  0  0  0  0  0  0  0  0  0  0  0
    0.2796   64.2905   84.3331 N   0  0  0  0  0  0  0  0  0  0  0  0
   -0.5912   63.4061   84.9407 C   0  0  0  0  0  0  0  0  0  0  0  0
   -1.4050   62.6274   83.9358 C   0  0  0  0  0  0  0  0  0  0  0  0
   -0.7037   63.2543   86.2760 C   0  0  0  0  0  0  0  0  0  0  0  0
   -1.8538   62.0776   87.1578 Br  0  0  0  0  0  0  0  0  0  0  0  0
    0.1780   64.1070   87.1208 C   0  0  0  0  0  0  0  0  0  0  0  0
    0.1991   64.0600   88.3473 O   0  0  0  0  0  0  0  0  0  0  0  0
    0.9887   64.9660   86.4388 N   0  0  0  0  0  0  0  0  0  0  0  0
    1.5997   65.5455   87.0006 H   0  0  0  0  0  0  0  0  0  0  0  0
    1.6305   68.7478   81.4722 S   0  0  0  0  0  0  0  0  0  0  0  0
    0.3638   68.1710   81.0731 O   0  0  0  0  0  0  0  0  0  0  0  0
    2.6973   68.9666   80.5208 O   0  0  0  0  0  0  0  0  0  0  0  0
    1.2926   70.2186   82.2579 N   0  0  0  0  0  0  0  0  0  0  0  0
    0.1419   71.0085   81.7115 C   0  0  0  0  0  0  0  0  0  0  0  0
    0.6095   72.2678   80.9591 C   0  0  0  0  0  0  0  0  0  0  0  0
    1.4250   73.1986   81.7648 N   0  0  0  0  0  0  0  0  0  0  0  0
    0.6353   74.3082   82.2915 C   0  0  0  0  0  0  0  0  0  0  0  0
    2.1326   72.4977   82.8570 C   0  0  0  0  0  0  0  0  0  0  0  0
    2.5164   71.0532   82.4920 C   0  0  0  0  0  0  0  0  0  0  0  0
    3.8040   65.3532   85.8485 O   0  0  0  0  0  0  0  0  0  0  0  0
    5.2167   65.2092   86.0188 C   0  0  0  0  0  0  0  0  0  0  0  0
    5.5340   65.4140   88.5119 C   0  0  0  0  0  0  0  0  0  0  0  0
    5.6364   66.1174   87.1708 C   0  0  0  0  0  0  0  0  0  0  0  0
 29 30  1  0  0  0
 30 28  1  0  0  0
 28 27  1  0  0  0
 27  1  1  0  0  0
  1  2  1  0  0  0
  2  3  2  0  0  0
  3  4  1  0  0  0
  4 17  1  0  0  0
 17 18  2  0  0  0
 17 19  2  0  0  0
 17 20  1  0  0  0
 20 21  1  0  0  0
 21 22  1  0  0  0
 22 23  1  0  0  0
 23 24  1  0  0  0
 23 25  1  0  0  0
 25 26  1  0  0  0
  4  5  2  0  0  0
  5  6  1  0  0  0
  6  7  1  0  0  0
  7  8  2  0  0  0
  8  9  1  0  0  0
  9 10  1  0  0  0
  9 11  2  0  0  0
 11 12  1  0  0  0
 11 13  1  0  0  0
 13 14  2  0  0  0
 13 15  1  0  0  0
  6  1  2  0  0  0
 15  7  1  0  0  0
 26 20  1  0  0  0
 15 16  1  0  0  0
M  END
> <minimizedAffinity>
-9.54956

$$$$



 30 32  0  0  0  0  0  0  0  0999 V2000
    3.5662   66.3685   84.8051 C   0  0  0  0  0  0  0  0  0  0  0  0
    4.4141   67.3513   84.2690 C   0  0  0  0  0  0  0  0  0  0  0  0
    3.9489   68.2541   83.3097 C   0  0  0  0  0  0  0  0  0  0  0  0
    2.6261   68.1794   82.8833 C   0  0  0  0  0  0  0  0  0  0  0  0
    1.7634   67.2133   83.4041 C   0  0  0  0  0  0  0  0  0  0  0  0
    2.2229   66.2962   84.3658 C   0  0  0  0  0  0  0  0  0  0  0  0
    1.2277   65.2835   84.8576 C   0  0  0  0  0  0  0  0  0  0  0  0
    0.4705   64.6409   84.0247 N   0  0  0  0  0  0  0  0  0  0  0  0
   -0.4370   63.7213   84.5149 C   0  0  0  0  0  0  0  0  0  0  0  0
   -1.2470   63.0790   83.4151 C   0  0  0  0  0  0  0  0  0  0  0  0
   -0.5847   63.4296   85.8233 C   0  0  0  0  0  0  0  0  0  0  0  0
   -1.7854   62.1980   86.5486 Br  0  0  0  0  0  0  0  0  0  0  0  0
    0.2989   64.1609   86.7735 C   0  0  0  0  0  0  0  0  0  0  0  0
    0.2900   63.9812   87.9879 O   0  0  0  0  0  0  0  0  0  0  0  0
    1.1475   65.0650   86.2054 N   0  0  0  0  0  0  0  0  0  0  0  0
    1.7600   65.5629   86.8391 H   0  0  0  0  0  0  0  0  0  0  0  0
    2.0162   69.3125   81.6598 S   0  0  0  0  0  0  0  0  0  0  0  0
    0.8441   69.9704   82.1982 O   0  0  0  0  0  0  0  0  0  0  0  0
    1.9729   68.5922   80.4067 O   0  0  0  0  0  0  0  0  0  0  0  0
    3.2563   70.4745   81.5765 N   0  0  0  0  0  0  0  0  0  0  0  0
    2.9041   71.8499   82.0570 C   0  0  0  0  0  0  0  0  0  0  0  0
    2.7753   72.8533   80.8963 C   0  0  0  0  0  0  0  0  0  0  0  0
    3.9861   72.9871   80.0616 N   0  0  0  0  0  0  0  0  0  0  0  0
    4.7861   74.1506   80.4343 C   0  0  0  0  0  0  0  0  0  0  0  0
    4.8073   71.7585   80.0918 C   0  0  0  0  0  0  0  0  0  0  0  0
    3.9669   70.4802   80.2559 C   0  0  0  0  0  0  0  0  0  0  0  0
    3.9753   65.4557   85.7447 O   0  0  0  0  0  0  0  0  0  0  0  0
    5.3735   65.1801   85.8653 C   0  0  0  0  0  0  0  0  0  0  0  0
    5.4943   65.3849   88.3757 C   0  0  0  0  0  0  0  0  0  0  0  0
    5.9023   65.9906   87.0450 C   0  0  0  0  0  0  0  0  0  0  0  0
 29 30  1  0  0  0
 30 28  1  0  0  0
 28 27  1  0  0  0
 27  1  1  0  0  0
  1  2  1  0  0  0
  2  3  2  0  0  0
  3  4  1  0  0  0
  4 17  1  0  0  0
 17 18  2  0  0  0
 17 19  2  0  0  0
 17 20  1  0  0  0
 20 21  1  0  0  0
 21 22  1  0  0  0
 22 23  1  0  0  0
 23 24  1  0  0  0
 23 25  1  0  0  0
 25 26  1  0  0  0
  4  5  2  0  0  0
  5  6  1  0  0  0
  6  7  1  0  0  0
  7  8  2  0  0  0
  8  9  1  0  0  0
  9 10  1  0  0  0
  9 11  2  0  0  0
 11 12  1  0  0  0
 11 13  1  0  0  0
 13 14  2  0  0  0
 13 15  1  0  0  0
  6  1  2  0  0  0
 15  7  1  0  0  0
 26 20  1  0  0  0
 15 16  1  0  0  0
M  END
> <minimizedAffinity>
-9.37737

$$$$



 30 32  0  0  0  0  0  0  0  0999 V2000
    3.3858   66.4804   84.5494 C   0  0  0  0  0  0  0  0  0  0  0  0
    4.1520   67.4810   83.9297 C   0  0  0  0  0  0  0  0  0  0  0  0
    3.5858   68.3308   82.9763 C   0  0  0  0  0  0  0  0  0  0  0  0
    2.2431   68.1846   82.6399 C   0  0  0  0  0  0  0  0  0  0  0  0
    1.4604   67.1997   83.2447 C   0  0  0  0  0  0  0  0  0  0  0  0
    2.0217   66.3355   84.2013 C   0  0  0  0  0  0  0  0  0  0  0  0
    1.1072   65.2972   84.7873 C   0  0  0  0  0  0  0  0  0  0  0  0
    0.3241   64.5993   84.0261 N   0  0  0  0  0  0  0  0  0  0  0  0
   -0.5072   63.6576   84.6020 C   0  0  0  0  0  0  0  0  0  0  0  0
   -1.3610   62.9498   83.5781 C   0  0  0  0  0  0  0  0  0  0  0  0
   -0.5532   63.3990   85.9248 C   0  0  0  0  0  0  0  0  0  0  0  0
   -1.6473   62.1404   86.7637 Br  0  0  0  0  0  0  0  0  0  0  0  0
    0.3598   64.1942   86.7920 C   0  0  0  0  0  0  0  0  0  0  0  0
    0.4409   64.0505   88.0085 O   0  0  0  0  0  0  0  0  0  0  0  0
    1.1278   65.1156   86.1429 N   0  0  0  0  0  0  0  0  0  0  0  0
    1.7596   65.6572   86.7193 H   0  0  0  0  0  0  0  0  0  0  0  0
    1.5052   69.2494   81.4254 S   0  0  0  0  0  0  0  0  0  0  0  0
    2.5293   70.1435   80.9271 O   0  0  0  0  0  0  0  0  0  0  0  0
    0.2757   69.7496   81.9989 O   0  0  0  0  0  0  0  0  0  0  0  0
    1.1192   68.1700   80.1682 N   0  0  0  0  0  0  0  0  0  0  0  0
   -0.2941   67.6713   80.1385 C   0  0  0  0  0  0  0  0  0  0  0  0
   -0.3956   66.1941   80.5606 C   0  0  0  0  0  0  0  0  0  0  0  0
    0.4054   65.2634   79.7405 N   0  0  0  0  0  0  0  0  0  0  0  0
   -0.3982   64.5988   78.7182 C   0  0  0  0  0  0  0  0  0  0  0  0
    1.5701   65.9388   79.1304 C   0  0  0  0  0  0  0  0  0  0  0  0
    2.1298   67.0742   80.0049 C   0  0  0  0  0  0  0  0  0  0  0  0
    3.8952   65.6177   85.4872 O   0  0  0  0  0  0  0  0  0  0  0  0
    5.3101   65.4130   85.5292 C   0  0  0  0  0  0  0  0  0  0  0  0
    5.4617   65.4369   88.0461 C   0  0  0  0  0  0  0  0  0  0  0  0
    5.8444   66.1428   86.7580 C   0  0  0  0  0  0  0  0  0  0  0  0
 29 30  1  0  0  0
 30 28  1  0  0  0
 28 27  1  0  0  0
 27  1  1  0  0  0
  1  2  1  0  0  0
  2  3  2  0  0  0
  3  4  1  0  0  0
  4 17  1  0  0  0
 17 18  2  0  0  0
 17 19  2  0  0  0
 17 20  1  0  0  0
 20 21  1  0  0  0
 21 22  1  0  0  0
 22 23  1  0  0  0
 23 24  1  0  0  0
 23 25  1  0  0  0
 25 26  1  0  0  0
  4  5  2  0  0  0
  5  6  1  0  0  0
  6  7  1  0  0  0
  7  8  2  0  0  0
  8  9  1  0  0  0
  9 10  1  0  0  0
  9 11  2  0  0  0
 11 12  1  0  0  0
 11 13  1  0  0  0
 13 14  2  0  0  0
 13 15  1  0  0  0
  6  1  2  0  0  0
 15  7  1  0  0  0
 26 20  1  0  0  0
 15 16  1  0  0  0
M  END
> <minimizedAffinity>
-9.37023

$$$$



 30 32  0  0  0  0  0  0  0  0999 V2000
    3.4989   67.1036   84.4240 C   0  0  0  0  0  0  0  0  0  0  0  0
    4.2376   68.1878   83.9227 C   0  0  0  0  0  0  0  0  0  0  0  0
    3.6953   69.0399   82.9575 C   0  0  0  0  0  0  0  0  0  0  0  0
    2.4042   68.8119   82.4901 C   0  0  0  0  0  0  0  0  0  0  0  0
    1.6494   67.7428   82.9758 C   0  0  0  0  0  0  0  0  0  0  0  0
    2.1876   66.8758   83.9431 C   0  0  0  0  0  0  0  0  0  0  0  0
    1.3077   65.7448   84.3954 C   0  0  0  0  0  0  0  0  0  0  0  0
    0.5708   65.0994   83.5468 N   0  0  0  0  0  0  0  0  0  0  0  0
   -0.2300   64.0689   84.0011 C   0  0  0  0  0  0  0  0  0  0  0  0
   -1.0321   63.4383   82.8886 C   0  0  0  0  0  0  0  0  0  0  0  0
   -0.2906   63.6706   85.2881 C   0  0  0  0  0  0  0  0  0  0  0  0
   -1.3452   62.2866   85.9644 Br  0  0  0  0  0  0  0  0  0  0  0  0
    0.5699   64.4069   86.2553 C   0  0  0  0  0  0  0  0  0  0  0  0
    0.6334   64.1392   87.4517 O   0  0  0  0  0  0  0  0  0  0  0  0
    1.3097   65.4224   85.7246 N   0  0  0  0  0  0  0  0  0  0  0  0
    1.9060   65.9258   86.3695 H   0  0  0  0  0  0  0  0  0  0  0  0
    1.6985   69.8785   81.2584 S   0  0  0  0  0  0  0  0  0  0  0  0
    0.4479   69.2956   80.8194 O   0  0  0  0  0  0  0  0  0  0  0  0
    2.7558   70.1967   80.3246 O   0  0  0  0  0  0  0  0  0  0  0  0
    1.3203   71.2780   82.1491 N   0  0  0  0  0  0  0  0  0  0  0  0
    0.0591   71.9873   81.7580 C   0  0  0  0  0  0  0  0  0  0  0  0
    0.3431   73.3147   81.0313 C   0  0  0  0  0  0  0  0  0  0  0  0
    1.1553   74.2769   81.8027 N   0  0  0  0  0  0  0  0  0  0  0  0
    0.3330   75.2888   82.4604 C   0  0  0  0  0  0  0  0  0  0  0  0
    2.0243   73.5932   82.7836 C   0  0  0  0  0  0  0  0  0  0  0  0
    2.4880   72.2054   82.3080 C   0  0  0  0  0  0  0  0  0  0  0  0
    3.9872   66.2352   85.3678 O   0  0  0  0  0  0  0  0  0  0  0  0
    5.2814   66.4866   85.9222 C   0  0  0  0  0  0  0  0  0  0  0  0
    7.4172   65.9841   84.6795 C   0  0  0  0  0  0  0  0  0  0  0  0
    6.2211   65.3996   85.4087 C   0  0  0  0  0  0  0  0  0  0  0  0
 29 30  1  0  0  0
 30 28  1  0  0  0
 28 27  1  0  0  0
 27  1  1  0  0  0
  1  2  1  0  0  0
  2  3  2  0  0  0
  3  4  1  0  0  0
  4 17  1  0  0  0
 17 18  2  0  0  0
 17 19  2  0  0  0
 17 20  1  0  0  0
 20 21  1  0  0  0
 21 22  1  0  0  0
 22 23  1  0  0  0
 23 24  1  0  0  0
 23 25  1  0  0  0
 25 26  1  0  0  0
  4  5  2  0  0  0
  5  6  1  0  0  0
  6  7  1  0  0  0
  7  8  2  0  0  0
  8  9  1  0  0  0
  9 10  1  0  0  0
  9 11  2  0  0  0
 11 12  1  0  0  0
 11 13  1  0  0  0
 13 14  2  0  0  0
 13 15  1  0  0  0
  6  1  2  0  0  0
 15  7  1  0  0  0
 26 20  1  0  0  0
 15 16  1  0  0  0
M  END
> <minimizedAffinity>
-9.34393

$$$$



 30 32  0  0  0  0  0  0  0  0999 V2000
    1.7950   66.8506   83.3701 C   0  0  0  0  0  0  0  0  0  0  0  0
    2.1840   67.5822   82.2362 C   0  0  0  0  0  0  0  0  0  0  0  0
    1.8326   67.1566   80.9528 C   0  0  0  0  0  0  0  0  0  0  0  0
    1.0839   65.9935   80.7979 C   0  0  0  0  0  0  0  0  0  0  0  0
    0.6827   65.2513   81.9101 C   0  0  0  0  0  0  0  0  0  0  0  0
    1.0357   65.6677   83.2059 C   0  0  0  0  0  0  0  0  0  0  0  0
    0.5726   64.7981   84.3404 C   0  0  0  0  0  0  0  0  0  0  0  0
   -0.4712   64.0408   84.2106 N   0  0  0  0  0  0  0  0  0  0  0  0
   -0.8703   63.2593   85.2781 C   0  0  0  0  0  0  0  0  0  0  0  0
   -2.1083   62.4552   84.9635 C   0  0  0  0  0  0  0  0  0  0  0  0
   -0.2306   63.2180   86.4646 C   0  0  0  0  0  0  0  0  0  0  0  0
   -0.7142   62.1834   87.9412 Br  0  0  0  0  0  0  0  0  0  0  0  0
    0.9766   64.0794   86.6018 C   0  0  0  0  0  0  0  0  0  0  0  0
    1.6687   64.1260   87.6146 O   0  0  0  0  0  0  0  0  0  0  0  0
    1.2844   64.8335   85.5078 N   0  0  0  0  0  0  0  0  0  0  0  0
    2.1079   65.4173   85.5843 H   0  0  0  0  0  0  0  0  0  0  0  0
    0.6325   65.4308   79.1754 S   0  0  0  0  0  0  0  0  0  0  0  0
    1.8077   65.4955   78.3321 O   0  0  0  0  0  0  0  0  0  0  0  0
   -0.5928   66.1123   78.8217 O   0  0  0  0  0  0  0  0  0  0  0  0
    0.2844   63.7857   79.4345 N   0  0  0  0  0  0  0  0  0  0  0  0
    0.9270   62.8188   78.4863 C   0  0  0  0  0  0  0  0  0  0  0  0
   -0.0898   62.2088   77.5041 C   0  0  0  0  0  0  0  0  0  0  0  0
   -1.2144   61.4983   78.1452 N   0  0  0  0  0  0  0  0  0  0  0  0
   -1.0041   60.0537   78.1814 C   0  0  0  0  0  0  0  0  0  0  0  0
   -1.4863   62.0197   79.5013 C   0  0  0  0  0  0  0  0  0  0  0  0
   -1.1774   63.5206   79.6390 C   0  0  0  0  0  0  0  0  0  0  0  0
    2.1186   67.2228   84.6508 O   0  0  0  0  0  0  0  0  0  0  0  0
    3.2115   68.1248   84.8440 C   0  0  0  0  0  0  0  0  0  0  0  0
    5.2596   67.8071   86.2802 C   0  0  0  0  0  0  0  0  0  0  0  0
    4.4606   67.2864   85.0993 C   0  0  0  0  0  0  0  0  0  0  0  0
 29 30  1  0  0  0
 30 28  1  0  0  0
 28 27  1  0  0  0
 27  1  1  0  0  0
  1  2  1  0  0  0
  2  3  2  0  0  0
  3  4  1  0  0  0
  4 17  1  0  0  0
 17 18  2  0  0  0
 17 19  2  0  0  0
 17 20  1  0  0  0
 20 21  1  0  0  0
 21 22  1  0  0  0
 22 23  1  0  0  0
 23 24  1  0  0  0
 23 25  1  0  0  0
 25 26  1  0  0  0
  4  5  2  0  0  0
  5  6  1  0  0  0
  6  7  1  0  0  0
  7  8  2  0  0  0
  8  9  1  0  0  0
  9 10  1  0  0  0
  9 11  2  0  0  0
 11 12  1  0  0  0
 11 13  1  0  0  0
 13 14  2  0  0  0
 13 15  1  0  0  0
  6  1  2  0  0  0
 15  7  1  0  0  0
 26 20  1  0  0  0
 15 16  1  0  0  0
M  END
> <minimizedAffinity>
-9.18082

$$$$



 30 32  0  0  0  0  0  0  0  0999 V2000
    0.8702   64.9644   84.4015 C   0  0  0  0  0  0  0  0  0  0  0  0
    1.5839   66.1652   84.5468 C   0  0  0  0  0  0  0  0  0  0  0  0
    1.6786   67.0754   83.4913 C   0  0  0  0  0  0  0  0  0  0  0  0
    1.0537   66.7883   82.2811 C   0  0  0  0  0  0  0  0  0  0  0  0
    0.3359   65.6029   82.1138 C   0  0  0  0  0  0  0  0  0  0  0  0
    0.2389   64.6773   83.1678 C   0  0  0  0  0  0  0  0  0  0  0  0
   -0.5411   63.4233   82.8909 C   0  0  0  0  0  0  0  0  0  0  0  0
   -0.4160   62.8018   81.7605 N   0  0  0  0  0  0  0  0  0  0  0  0
   -1.1544   61.6548   81.5398 C   0  0  0  0  0  0  0  0  0  0  0  0
   -0.9021   61.0697   80.1715 C   0  0  0  0  0  0  0  0  0  0  0  0
   -2.0031   61.1182   82.4401 C   0  0  0  0  0  0  0  0  0  0  0  0
   -3.0240   59.5728   82.2066 Br  0  0  0  0  0  0  0  0  0  0  0  0
   -2.1309   61.8292   83.7425 C   0  0  0  0  0  0  0  0  0  0  0  0
   -2.8474   61.4436   84.6618 O   0  0  0  0  0  0  0  0  0  0  0  0
   -1.3835   62.9634   83.8655 N   0  0  0  0  0  0  0  0  0  0  0  0
   -1.4541   63.4519   84.7493 H   0  0  0  0  0  0  0  0  0  0  0  0
    1.1676   67.9281   80.9242 S   0  0  0  0  0  0  0  0  0  0  0  0
   -0.1750   68.3224   80.5521 O   0  0  0  0  0  0  0  0  0  0  0  0
    2.0805   67.3472   79.9650 O   0  0  0  0  0  0  0  0  0  0  0  0
    1.9146   69.2813   81.6354 N   0  0  0  0  0  0  0  0  0  0  0  0
    1.0069   70.4132   82.0117 C   0  0  0  0  0  0  0  0  0  0  0  0
    1.1760   71.6257   81.0779 C   0  0  0  0  0  0  0  0  0  0  0  0
    2.5461   72.1739   81.0234 N   0  0  0  0  0  0  0  0  0  0  0  0
    2.7079   73.3389   81.8889 C   0  0  0  0  0  0  0  0  0  0  0  0
    3.5580   71.1443   81.3406 C   0  0  0  0  0  0  0  0  0  0  0  0
    3.1373   69.7334   80.8941 C   0  0  0  0  0  0  0  0  0  0  0  0
    0.7515   64.0357   85.4048 O   0  0  0  0  0  0  0  0  0  0  0  0
    0.2903   64.4708   86.6867 C   0  0  0  0  0  0  0  0  0  0  0  0
   -1.7482   63.3482   87.6575 C   0  0  0  0  0  0  0  0  0  0  0  0
   -0.2524   63.2478   87.4201 C   0  0  0  0  0  0  0  0  0  0  0  0
 29 30  1  0  0  0
 30 28  1  0  0  0
 28 27  1  0  0  0
 27  1  1  0  0  0
  1  2  1  0  0  0
  2  3  2  0  0  0
  3  4  1  0  0  0
  4 17  1  0  0  0
 17 18  2  0  0  0
 17 19  2  0  0  0
 17 20  1  0  0  0
 20 21  1  0  0  0
 21 22  1  0  0  0
 22 23  1  0  0  0
 23 24  1  0  0  0
 23 25  1  0  0  0
 25 26  1  0  0  0
  4  5  2  0  0  0
  5  6  1  0  0  0
  6  7  1  0  0  0
  7  8  2  0  0  0
  8  9  1  0  0  0
  9 10  1  0  0  0
  9 11  2  0  0  0
 11 12  1  0  0  0
 11 13  1  0  0  0
 13 14  2  0  0  0
 13 15  1  0  0  0
  6  1  2  0  0  0
 15  7  1  0  0  0
 26 20  1  0  0  0
 15 16  1  0  0  0
M  END
> <minimizedAffinity>
-9.08710

$$$$



 30 32  0  0  0  0  0  0  0  0999 V2000
    1.2300   66.1052   83.0267 C   0  0  0  0  0  0  0  0  0  0  0  0
    1.5114   66.5662   81.7303 C   0  0  0  0  0  0  0  0  0  0  0  0
    1.1253   65.8297   80.6077 C   0  0  0  0  0  0  0  0  0  0  0  0
    0.4495   64.6248   80.7782 C   0  0  0  0  0  0  0  0  0  0  0  0
    0.1556   64.1478   82.0568 C   0  0  0  0  0  0  0  0  0  0  0  0
    0.5447   64.8783   83.1934 C   0  0  0  0  0  0  0  0  0  0  0  0
    0.1987   64.2797   84.5275 C   0  0  0  0  0  0  0  0  0  0  0  0
   -0.9167   63.6420   84.6977 N   0  0  0  0  0  0  0  0  0  0  0  0
   -1.2029   63.1102   85.9406 C   0  0  0  0  0  0  0  0  0  0  0  0
   -2.5440   62.4180   85.9687 C   0  0  0  0  0  0  0  0  0  0  0  0
   -0.3819   63.1982   87.0069 C   0  0  0  0  0  0  0  0  0  0  0  0
   -0.7063   62.4998   88.7074 Br  0  0  0  0  0  0  0  0  0  0  0  0
    0.9046   63.9195   86.8003 C   0  0  0  0  0  0  0  0  0  0  0  0
    1.7564   64.0571   87.6736 O   0  0  0  0  0  0  0  0  0  0  0  0
    1.0944   64.4308   85.5502 N   0  0  0  0  0  0  0  0  0  0  0  0
    1.9688   64.9160   85.3933 H   0  0  0  0  0  0  0  0  0  0  0  0
   -0.0440   63.6695   79.3652 S   0  0  0  0  0  0  0  0  0  0  0  0
    1.1297   63.0075   78.8355 O   0  0  0  0  0  0  0  0  0  0  0  0
   -0.8643   64.5311   78.5431 O   0  0  0  0  0  0  0  0  0  0  0  0
   -1.0352   62.4701   80.0535 N   0  0  0  0  0  0  0  0  0  0  0  0
   -0.6253   61.0508   79.7997 C   0  0  0  0  0  0  0  0  0  0  0  0
   -1.5695   60.3437   78.8102 C   0  0  0  0  0  0  0  0  0  0  0  0
   -2.9861   60.3136   79.2262 N   0  0  0  0  0  0  0  0  0  0  0  0
   -3.3514   59.0423   79.8449 C   0  0  0  0  0  0  0  0  0  0  0  0
   -3.3152   61.4426   80.1216 C   0  0  0  0  0  0  0  0  0  0  0  0
   -2.4964   62.7086   79.8149 C   0  0  0  0  0  0  0  0  0  0  0  0
    1.5919   66.7877   84.1610 O   0  0  0  0  0  0  0  0  0  0  0  0
    2.8598   67.4490   84.1844 C   0  0  0  0  0  0  0  0  0  0  0  0
    5.3136   66.9979   84.5505 C   0  0  0  0  0  0  0  0  0  0  0  0
    3.9142   66.4099   84.5541 C   0  0  0  0  0  0  0  0  0  0  0  0
 29 30  1  0  0  0
 30 28  1  0  0  0
 28 27  1  0  0  0
 27  1  1  0  0  0
  1  2  1  0  0  0
  2  3  2  0  0  0
  3  4  1  0  0  0
  4 17  1  0  0  0
 17 18  2  0  0  0
 17 19  2  0  0  0
 17 20  1  0  0  0
 20 21  1  0  0  0
 21 22  1  0  0  0
 22 23  1  0  0  0
 23 24  1  0  0  0
 23 25  1  0  0  0
 25 26  1  0  0  0
  4  5  2  0  0  0
  5  6  1  0  0  0
  6  7  1  0  0  0
  7  8  2  0  0  0
  8  9  1  0  0  0
  9 10  1  0  0  0
  9 11  2  0  0  0
 11 12  1  0  0  0
 11 13  1  0  0  0
 13 14  2  0  0  0
 13 15  1  0  0  0
  6  1  2  0  0  0
 15  7  1  0  0  0
 26 20  1  0  0  0
 15 16  1  0  0  0
M  END
> <minimizedAffinity>
-9.07155

$$$$



 30 32  0  0  0  0  0  0  0  0999 V2000
    1.1669   66.2893   82.2471 C   0  0  0  0  0  0  0  0  0  0  0  0
    1.5065   66.7722   80.9729 C   0  0  0  0  0  0  0  0  0  0  0  0
    1.2236   66.0279   79.8250 C   0  0  0  0  0  0  0  0  0  0  0  0
    0.5935   64.7928   79.9475 C   0  0  0  0  0  0  0  0  0  0  0  0
    0.2433   64.2934   81.2031 C   0  0  0  0  0  0  0  0  0  0  0  0
    0.5285   65.0318   82.3652 C   0  0  0  0  0  0  0  0  0  0  0  0
    0.1285   64.4081   83.6724 C   0  0  0  0  0  0  0  0  0  0  0  0
   -0.9190   63.6489   83.7505 N   0  0  0  0  0  0  0  0  0  0  0  0
   -1.2589   63.0978   84.9713 C   0  0  0  0  0  0  0  0  0  0  0  0
   -2.5101   62.2576   84.8880 C   0  0  0  0  0  0  0  0  0  0  0  0
   -0.5569   63.2870   86.1071 C   0  0  0  0  0  0  0  0  0  0  0  0
   -0.9587   62.5696   87.7830 Br  0  0  0  0  0  0  0  0  0  0  0  0
    0.6539   64.1485   86.0070 C   0  0  0  0  0  0  0  0  0  0  0  0
    1.3990   64.3891   86.9525 O   0  0  0  0  0  0  0  0  0  0  0  0
    0.9014   64.6683   84.7705 N   0  0  0  0  0  0  0  0  0  0  0  0
    1.7264   65.2487   84.6862 H   0  0  0  0  0  0  0  0  0  0  0  0
    0.2312   63.8273   78.5020 S   0  0  0  0  0  0  0  0  0  0  0  0
    1.2679   62.8272   78.3557 O   0  0  0  0  0  0  0  0  0  0  0  0
   -0.0769   64.7607   77.4414 O   0  0  0  0  0  0  0  0  0  0  0  0
   -1.1974   63.0157   78.9440 N   0  0  0  0  0  0  0  0  0  0  0  0
   -1.0195   61.7076   79.6538 C   0  0  0  0  0  0  0  0  0  0  0  0
   -1.3872   60.5091   78.7599 C   0  0  0  0  0  0  0  0  0  0  0  0
   -2.7691   60.5309   78.2397 N   0  0  0  0  0  0  0  0  0  0  0  0
   -3.6674   59.6915   79.0277 C   0  0  0  0  0  0  0  0  0  0  0  0
   -3.2937   61.9094   78.1439 C   0  0  0  0  0  0  0  0  0  0  0  0
   -2.2005   62.9459   77.8314 C   0  0  0  0  0  0  0  0  0  0  0  0
    1.4274   66.9785   83.4049 O   0  0  0  0  0  0  0  0  0  0  0  0
    2.3104   68.1021   83.3465 C   0  0  0  0  0  0  0  0  0  0  0  0
    4.0087   66.6213   84.4784 C   0  0  0  0  0  0  0  0  0  0  0  0
    3.3050   67.9661   84.4956 C   0  0  0  0  0  0  0  0  0  0  0  0
 29 30  1  0  0  0
 30 28  1  0  0  0
 28 27  1  0  0  0
 27  1  1  0  0  0
  1  2  1  0  0  0
  2  3  2  0  0  0
  3  4  1  0  0  0
  4 17  1  0  0  0
 17 18  2  0  0  0
 17 19  2  0  0  0
 17 20  1  0  0  0
 20 21  1  0  0  0
 21 22  1  0  0  0
 22 23  1  0  0  0
 23 24  1  0  0  0
 23 25  1  0  0  0
 25 26  1  0  0  0
  4  5  2  0  0  0
  5  6  1  0  0  0
  6  7  1  0  0  0
  7  8  2  0  0  0
  8  9  1  0  0  0
  9 10  1  0  0  0
  9 11  2  0  0  0
 11 12  1  0  0  0
 11 13  1  0  0  0
 13 14  2  0  0  0
 13 15  1  0  0  0
  6  1  2  0  0  0
 15  7  1  0  0  0
 26 20  1  0  0  0
 15 16  1  0  0  0
M  END
> <minimizedAffinity>
-9.03706

$$$$



 30 32  0  0  0  0  0  0  0  0999 V2000
    0.3511   64.1566   83.8939 C   0  0  0  0  0  0  0  0  0  0  0  0
    1.0313   65.3111   84.3143 C   0  0  0  0  0  0  0  0  0  0  0  0
    1.2413   66.3788   83.4382 C   0  0  0  0  0  0  0  0  0  0  0  0
    0.7662   66.2970   82.1324 C   0  0  0  0  0  0  0  0  0  0  0  0
    0.0843   65.1612   81.6925 C   0  0  0  0  0  0  0  0  0  0  0  0
   -0.1275   64.0786   82.5644 C   0  0  0  0  0  0  0  0  0  0  0  0
   -0.8576   62.8934   81.9987 C   0  0  0  0  0  0  0  0  0  0  0  0
   -0.6718   62.5263   80.7697 N   0  0  0  0  0  0  0  0  0  0  0  0
   -1.3657   61.4348   80.2831 C   0  0  0  0  0  0  0  0  0  0  0  0
   -1.0451   61.1560   78.8346 C   0  0  0  0  0  0  0  0  0  0  0  0
   -2.2298   60.7020   81.0144 C   0  0  0  0  0  0  0  0  0  0  0  0
   -3.1930   59.2175   80.4200 Br  0  0  0  0  0  0  0  0  0  0  0  0
   -2.4274   61.1205   82.4300 C   0  0  0  0  0  0  0  0  0  0  0  0
   -3.1650   60.5343   83.2171 O   0  0  0  0  0  0  0  0  0  0  0  0
   -1.7206   62.2201   82.8190 N   0  0  0  0  0  0  0  0  0  0  0  0
   -1.8388   62.5105   83.7815 H   0  0  0  0  0  0  0  0  0  0  0  0
    1.0284   67.6397   81.0004 S   0  0  0  0  0  0  0  0  0  0  0  0
   -0.2398   67.9614   80.3802 O   0  0  0  0  0  0  0  0  0  0  0  0
    2.1934   67.3021   80.2132 O   0  0  0  0  0  0  0  0  0  0  0  0
    1.4274   68.9288   82.0367 N   0  0  0  0  0  0  0  0  0  0  0  0
    0.5528   70.1427   81.9454 C   0  0  0  0  0  0  0  0  0  0  0  0
    1.2701   71.3231   81.2651 C   0  0  0  0  0  0  0  0  0  0  0  0
    2.5222   71.7447   81.9247 N   0  0  0  0  0  0  0  0  0  0  0  0
    2.3243   72.9012   82.7941 C   0  0  0  0  0  0  0  0  0  0  0  0
    3.1463   70.6321   82.6712 C   0  0  0  0  0  0  0  0  0  0  0  0
    2.8901   69.2594   82.0253 C   0  0  0  0  0  0  0  0  0  0  0  0
    0.1238   63.0793   84.7131 O   0  0  0  0  0  0  0  0  0  0  0  0
   -0.2218   63.3216   86.0795 C   0  0  0  0  0  0  0  0  0  0  0  0
   -2.6623   62.7262   86.2981 C   0  0  0  0  0  0  0  0  0  0  0  0
   -1.2324   62.2564   86.4946 C   0  0  0  0  0  0  0  0  0  0  0  0
 29 30  1  0  0  0
 30 28  1  0  0  0
 28 27  1  0  0  0
 27  1  1  0  0  0
  1  2  1  0  0  0
  2  3  2  0  0  0
  3  4  1  0  0  0
  4 17  1  0  0  0
 17 18  2  0  0  0
 17 19  2  0  0  0
 17 20  1  0  0  0
 20 21  1  0  0  0
 21 22  1  0  0  0
 22 23  1  0  0  0
 23 24  1  0  0  0
 23 25  1  0  0  0
 25 26  1  0  0  0
  4  5  2  0  0  0
  5  6  1  0  0  0
  6  7  1  0  0  0
  7  8  2  0  0  0
  8  9  1  0  0  0
  9 10  1  0  0  0
  9 11  2  0  0  0
 11 12  1  0  0  0
 11 13  1  0  0  0
 13 14  2  0  0  0
 13 15  1  0  0  0
  6  1  2  0  0  0
 15  7  1  0  0  0
 26 20  1  0  0  0
 15 16  1  0  0  0
M  END
> <minimizedAffinity>
-8.89703

$$$$
