
     RDKit          3D

 55 58  0  0  0  0  0  0  0  0999 V2000
   -1.8918    5.4309   -0.0656 C   0  0  0  0  0  0  0  0  0  0  0  0
   -0.6455    4.6452    0.3014 C   0  0  0  0  0  0  0  0  0  0  0  0
   -0.9522    3.2559    0.1673 O   0  0  0  0  0  0  0  0  0  0  0  0
    0.0383    2.3412    0.4271 C   0  0  0  0  0  0  0  0  0  0  0  0
    1.3240    2.7048    0.8529 C   0  0  0  0  0  0  0  0  0  0  0  0
    2.3000    1.7360    1.1033 C   0  0  0  0  0  0  0  0  0  0  0  0
    2.0123    0.3805    0.9415 C   0  0  0  0  0  0  0  0  0  0  0  0
    3.0685   -0.6694    1.1922 C   0  0  0  0  0  0  0  0  0  0  0  0
    3.7595   -1.0282   -0.0931 C   0  0  0  0  0  0  0  0  0  0  0  0
    4.9553   -0.2482   -0.5732 C   0  0  0  0  0  0  0  0  0  0  0  0
    5.1331   -1.6740   -0.1000 C   0  0  0  0  0  0  0  0  0  0  0  0
    5.8417   -1.9835    1.1642 C   0  0  0  0  0  0  0  0  0  0  0  0
    5.3641   -2.7486    1.9939 O   0  0  0  0  0  0  0  0  0  0  0  0
    7.0731   -1.3965    1.2954 N   0  0  0  0  0  0  0  0  0  0  0  0
    7.8563   -1.8374    2.3866 O   0  0  0  0  0  0  0  0  0  0  0  0
    0.7302    0.0120    0.5123 C   0  0  0  0  0  0  0  0  0  0  0  0
   -0.2670    0.9734    0.2520 C   0  0  0  0  0  0  0  0  0  0  0  0
   -1.6061    0.4511   -0.2077 C   0  0  0  0  0  0  0  0  0  0  0  0
   -1.7586   -0.8266   -0.4377 N   0  0  0  0  0  0  0  0  0  0  0  0
   -3.0412   -1.1846   -0.8543 C   0  0  0  0  0  0  0  0  0  0  0  0
   -3.5623   -2.4470   -1.1809 C   0  0  0  0  0  0  0  0  0  0  0  0
   -2.8712   -3.7646   -1.1690 C   0  0  0  0  0  0  0  0  0  0  0  0
   -2.8931   -4.4162    0.2051 C   0  0  0  0  0  0  0  0  0  0  0  0
   -4.8583   -2.3477   -1.5351 N   0  0  0  0  0  0  0  0  0  0  0  0
   -5.1291   -1.0232   -1.4227 N   0  0  0  0  0  0  0  0  0  0  0  0
   -6.4509   -0.5303   -1.7255 C   0  0  0  0  0  0  0  0  0  0  0  0
   -4.0578   -0.2930   -1.0147 C   0  0  0  0  0  0  0  0  0  0  0  0
   -3.9042    1.0930   -0.7720 C   0  0  0  0  0  0  0  0  0  0  0  0
   -4.7736    1.9463   -0.9042 O   0  0  0  0  0  0  0  0  0  0  0  0
   -2.6254    1.3866   -0.3591 N   0  0  0  0  0  0  0  0  0  0  0  0
   -2.2026    5.2035   -1.0908 H   0  0  0  0  0  0  0  0  0  0  0  0
   -1.7142    6.5066    0.0199 H   0  0  0  0  0  0  0  0  0  0  0  0
   -2.7266    5.1566    0.5880 H   0  0  0  0  0  0  0  0  0  0  0  0
    0.1663    4.9234   -0.3801 H   0  0  0  0  0  0  0  0  0  0  0  0
   -0.3703    4.8747    1.3370 H   0  0  0  0  0  0  0  0  0  0  0  0
    1.6080    3.7417    1.0028 H   0  0  0  0  0  0  0  0  0  0  0  0
    3.2895    2.0507    1.4296 H   0  0  0  0  0  0  0  0  0  0  0  0
    3.7756   -0.3000    1.9452 H   0  0  0  0  0  0  0  0  0  0  0  0
    2.6018   -1.5643    1.6215 H   0  0  0  0  0  0  0  0  0  0  0  0
    3.0585   -1.3953   -0.8373 H   0  0  0  0  0  0  0  0  0  0  0  0
    5.3193    0.5628    0.0480 H   0  0  0  0  0  0  0  0  0  0  0  0
    5.0298   -0.0517   -1.6373 H   0  0  0  0  0  0  0  0  0  0  0  0
    5.2822   -2.4343   -0.8617 H   0  0  0  0  0  0  0  0  0  0  0  0
    7.5676   -0.9863    0.5117 H   0  0  0  0  0  0  0  0  0  0  0  0
    7.2595   -2.4796    2.8306 H   0  0  0  0  0  0  0  0  0  0  0  0
    0.5089   -1.0470    0.3807 H   0  0  0  0  0  0  0  0  0  0  0  0
   -1.8311   -3.6361   -1.4918 H   0  0  0  0  0  0  0  0  0  0  0  0
   -3.3412   -4.4386   -1.8955 H   0  0  0  0  0  0  0  0  0  0  0  0
   -2.3926   -3.7878    0.9498 H   0  0  0  0  0  0  0  0  0  0  0  0
   -2.3796   -5.3823    0.1755 H   0  0  0  0  0  0  0  0  0  0  0  0
   -3.9202   -4.5863    0.5456 H   0  0  0  0  0  0  0  0  0  0  0  0
   -6.3729    0.1873   -2.5458 H   0  0  0  0  0  0  0  0  0  0  0  0
   -6.8561   -0.0538   -0.8295 H   0  0  0  0  0  0  0  0  0  0  0  0
   -7.0920   -1.3642   -2.0231 H   0  0  0  0  0  0  0  0  0  0  0  0
   -2.4355    2.3626   -0.1737 H   0  0  0  0  0  0  0  0  0  0  0  0
  1  2  1  0
  2  3  1  0
  3  4  1  0
  4  5  1  0
  5  6  2  0
  6  7  1  0
  7  8  1  0
  8  9  1  0
  9 10  1  0
 10 11  1  0
 11 12  1  0
 12 13  2  0
 12 14  1  0
 14 15  1  0
  7 16  2  0
 16 17  1  0
 17 18  1  0
 18 19  2  0
 19 20  1  0
 20 21  1  0
 21 22  1  0
 22 23  1  0
 21 24  2  0
 24 25  1  0
 25 26  1  0
 25 27  1  0
 27 28  1  0
 28 29  2  0
 28 30  1  0
 17  4  2  0
 30 18  1  0
 11  9  1  0
 27 20  2  0
  1 31  1  0
  1 32  1  0
  1 33  1  0
  2 34  1  0
  2 35  1  0
  5 36  1  0
  6 37  1  0
  8 38  1  0
  8 39  1  0
  9 40  1  0
 10 41  1  0
 10 42  1  0
 11 43  1  0
 14 44  1  0
 15 45  1  0
 16 46  1  0
 22 47  1  0
 22 48  1  0
 23 49  1  0
 23 50  1  0
 23 51  1  0
 26 52  1  0
 26 53  1  0
 26 54  1  0
 30 55  1  0
M  END
$$$$
