
     RDKit          3D

 56 58  0  0  0  0  0  0  0  0999 V2000
    0.8444    2.6631   -3.1104 C   0  0  0  0  0  0  0  0  0  0  0  0
    2.2513    2.5520   -2.5450 C   0  0  0  0  0  0  0  0  0  0  0  0
    2.4875    1.2863   -1.7168 C   0  0  0  0  0  0  0  0  0  0  0  0
    2.3423   -0.0026   -2.5305 C   0  0  0  0  0  0  0  0  0  0  0  0
    2.8353   -1.2309   -1.7650 C   0  0  0  0  0  0  0  0  0  0  0  0
    2.0225   -1.4223   -0.6018 O   0  0  0  0  0  0  0  0  0  0  0  0
    2.1190   -2.6603   -0.0041 C   0  0  0  0  0  0  0  0  0  0  0  0
    3.2757   -3.4515   -0.0835 C   0  0  0  0  0  0  0  0  0  0  0  0
    3.3263   -4.7055    0.5286 C   0  0  0  0  0  0  0  0  0  0  0  0
    2.2266   -5.1804    1.2321 C   0  0  0  0  0  0  0  0  0  0  0  0
    1.0800   -4.3935    1.3351 C   0  0  0  0  0  0  0  0  0  0  0  0
    1.0089   -3.1223    0.7355 C   0  0  0  0  0  0  0  0  0  0  0  0
   -0.2302   -2.3515    0.9159 C   0  0  0  0  0  0  0  0  0  0  0  0
   -1.3831   -2.8212    1.3736 N   0  0  0  0  0  0  0  0  0  0  0  0
   -2.2423   -1.7500    1.4000 C   0  0  0  0  0  0  0  0  0  0  0  0
   -3.6263   -1.7011    1.8117 C   0  0  0  0  0  0  0  0  0  0  0  0
   -4.2305   -2.6798    2.2439 O   0  0  0  0  0  0  0  0  0  0  0  0
   -4.1954   -0.4226    1.6745 N   0  0  0  0  0  0  0  0  0  0  0  0
   -5.5836   -0.2733    2.0633 C   0  0  0  0  0  0  0  0  0  0  0  0
   -3.5251    0.7567    1.2877 C   0  0  0  0  0  0  0  0  0  0  0  0
   -4.0988    1.8499    1.2905 O   0  0  0  0  0  0  0  0  0  0  0  0
   -2.1742    0.6396    0.9075 N   0  0  0  0  0  0  0  0  0  0  0  0
   -1.4348    1.8405    0.5186 C   0  0  0  0  0  0  0  0  0  0  0  0
   -0.5418    2.4017    1.6427 C   0  0  0  0  0  0  0  0  0  0  0  0
    0.2741    3.5840    1.1160 C   0  0  0  0  0  0  0  0  0  0  0  0
   -1.3490    2.8399    2.8661 C   0  0  0  0  0  0  0  0  0  0  0  0
   -1.6110   -0.6165    0.9763 C   0  0  0  0  0  0  0  0  0  0  0  0
   -0.3436   -0.9989    0.6586 N   0  0  0  0  0  0  0  0  0  0  0  0
    0.0951    2.6112   -2.3158 H   0  0  0  0  0  0  0  0  0  0  0  0
    0.6384    1.8692   -3.8343 H   0  0  0  0  0  0  0  0  0  0  0  0
    0.7224    3.6211   -3.6262 H   0  0  0  0  0  0  0  0  0  0  0  0
    2.9753    2.5957   -3.3671 H   0  0  0  0  0  0  0  0  0  0  0  0
    2.4435    3.4248   -1.9096 H   0  0  0  0  0  0  0  0  0  0  0  0
    1.7964    1.2679   -0.8666 H   0  0  0  0  0  0  0  0  0  0  0  0
    3.5004    1.3391   -1.2990 H   0  0  0  0  0  0  0  0  0  0  0  0
    2.9110    0.0824   -3.4637 H   0  0  0  0  0  0  0  0  0  0  0  0
    1.2875   -0.1467   -2.7915 H   0  0  0  0  0  0  0  0  0  0  0  0
    2.7638   -2.1011   -2.4295 H   0  0  0  0  0  0  0  0  0  0  0  0
    3.8794   -1.0783   -1.4683 H   0  0  0  0  0  0  0  0  0  0  0  0
    4.1629   -3.1137   -0.6093 H   0  0  0  0  0  0  0  0  0  0  0  0
    4.2266   -5.3109    0.4565 H   0  0  0  0  0  0  0  0  0  0  0  0
    2.2578   -6.1574    1.7076 H   0  0  0  0  0  0  0  0  0  0  0  0
    0.2272   -4.7744    1.8970 H   0  0  0  0  0  0  0  0  0  0  0  0
   -6.1060    0.3712    1.3490 H   0  0  0  0  0  0  0  0  0  0  0  0
   -5.6168    0.2008    3.0496 H   0  0  0  0  0  0  0  0  0  0  0  0
   -6.1057   -1.2326    2.1115 H   0  0  0  0  0  0  0  0  0  0  0  0
   -0.8224    1.5802   -0.3526 H   0  0  0  0  0  0  0  0  0  0  0  0
   -2.1359    2.6125    0.1797 H   0  0  0  0  0  0  0  0  0  0  0  0
    0.1617    1.6241    1.9651 H   0  0  0  0  0  0  0  0  0  0  0  0
    0.9425    3.9725    1.8917 H   0  0  0  0  0  0  0  0  0  0  0  0
    0.8928    3.2834    0.2656 H   0  0  0  0  0  0  0  0  0  0  0  0
   -0.3766    4.4020    0.7887 H   0  0  0  0  0  0  0  0  0  0  0  0
   -2.1010    3.5898    2.5988 H   0  0  0  0  0  0  0  0  0  0  0  0
   -0.6931    3.2772    3.6267 H   0  0  0  0  0  0  0  0  0  0  0  0
   -1.8605    1.9906    3.3293 H   0  0  0  0  0  0  0  0  0  0  0  0
    0.4091   -0.4302    0.2970 H   0  0  0  0  0  0  0  0  0  0  0  0
  1  2  1  0
  2  3  1  0
  3  4  1  0
  4  5  1  0
  5  6  1  0
  6  7  1  0
  7  8  2  0
  8  9  1  0
  9 10  2  0
 10 11  1  0
 11 12  2  0
 12 13  1  0
 13 14  2  0
 14 15  1  0
 15 16  1  0
 16 17  2  0
 16 18  1  0
 18 19  1  0
 18 20  1  0
 20 21  2  0
 20 22  1  0
 22 23  1  0
 23 24  1  0
 24 25  1  0
 24 26  1  0
 22 27  1  0
 27 28  1  0
 12  7  1  0
 28 13  1  0
 27 15  2  0
  1 29  1  0
  1 30  1  0
  1 31  1  0
  2 32  1  0
  2 33  1  0
  3 34  1  0
  3 35  1  0
  4 36  1  0
  4 37  1  0
  5 38  1  0
  5 39  1  0
  8 40  1  0
  9 41  1  0
 10 42  1  0
 11 43  1  0
 19 44  1  0
 19 45  1  0
 19 46  1  0
 23 47  1  0
 23 48  1  0
 24 49  1  0
 25 50  1  0
 25 51  1  0
 25 52  1  0
 26 53  1  0
 26 54  1  0
 26 55  1  0
 28 56  1  0
M  END
$$$$
