


 34 37  0  0  0  0  0  0  0  0999 V2000
   -0.7838   61.3548   82.4183 N   0  0  0  0  0  0  0  0  0  0  0  0
   -0.0142   60.7116   82.2995 H   0  0  0  0  0  0  0  0  0  0  0  0
    0.4008   64.3917   84.0347 C   0  0  0  0  0  0  0  0  0  0  0  0
    0.0831   63.4814   83.0760 N   0  0  0  0  0  0  0  0  0  0  0  0
   -0.4394   62.2810   83.4037 C   0  0  0  0  0  0  0  0  0  0  0  0
   -0.6941   61.8612   84.6571 N   0  0  0  0  0  0  0  0  0  0  0  0
   -0.3644   62.7716   85.5826 C   0  0  0  0  0  0  0  0  0  0  0  0
    0.1747   64.0290   85.3750 C   0  0  0  0  0  0  0  0  0  0  0  0
    0.3858   64.6665   86.5851 N   0  0  0  0  0  0  0  0  0  0  0  0
   -0.0279   63.8148   87.4993 C   0  0  0  0  0  0  0  0  0  0  0  0
   -0.4887   62.6579   86.9386 N   0  0  0  0  0  0  0  0  0  0  0  0
   -1.0120   61.5160   87.6399 C   0  0  0  0  0  0  0  0  0  0  0  0
    0.9183   65.6027   83.5687 N   0  0  0  0  0  0  0  0  0  0  0  0
    0.4900   66.3443   84.1142 H   0  0  0  0  0  0  0  0  0  0  0  0
    0.9337   65.8066   82.1271 C   0  0  0  0  0  0  0  0  0  0  0  0
    1.7379   68.1467   82.5788 C   0  0  0  0  0  0  0  0  0  0  0  0
    1.9743   66.8794   81.7556 C   0  0  0  0  0  0  0  0  0  0  0  0
    1.9329   67.2138   80.2623 C   0  0  0  0  0  0  0  0  0  0  0  0
   -1.8477   61.2419   81.5174 C   0  0  0  0  0  0  0  0  0  0  0  0
   -3.1800   61.5265   81.8390 C   0  0  0  0  0  0  0  0  0  0  0  0
   -4.2083   61.3798   80.8994 C   0  0  0  0  0  0  0  0  0  0  0  0
   -3.9252   60.9144   79.6201 C   0  0  0  0  0  0  0  0  0  0  0  0
   -2.6112   60.5772   79.2982 C   0  0  0  0  0  0  0  0  0  0  0  0
   -1.5789   60.7606   80.2274 C   0  0  0  0  0  0  0  0  0  0  0  0
   -2.2267   59.9733   77.6682 S   0  0  0  0  0  0  0  0  0  0  0  0
   -1.1954   58.9676   77.8119 O   0  0  0  0  0  0  0  0  0  0  0  0
   -3.4827   59.6689   77.0144 O   0  0  0  0  0  0  0  0  0  0  0  0
   -1.5510   61.3190   76.8991 N   0  0  0  0  0  0  0  0  0  0  0  0
   -2.3001   62.6028   76.9862 C   0  0  0  0  0  0  0  0  0  0  0  0
   -1.4739   63.7679   76.4092 C   0  0  0  0  0  0  0  0  0  0  0  0
   -0.1715   63.9855   77.0718 N   0  0  0  0  0  0  0  0  0  0  0  0
   -0.2367   65.0469   78.0738 C   0  0  0  0  0  0  0  0  0  0  0  0
    0.3573   62.7403   77.6669 C   0  0  0  0  0  0  0  0  0  0  0  0
   -0.0683   61.4696   76.9082 C   0  0  0  0  0  0  0  0  0  0  0  0
 16 17  1  0  0  0
 17 18  1  0  0  0
 17 15  1  0  0  0
 15 13  1  0  0  0
 13  3  1  0  0  0
  3  4  1  0  0  0
  4  5  2  0  0  0
  5  1  1  0  0  0
  1 19  1  0  0  0
 19 20  1  0  0  0
 20 21  2  0  0  0
 21 22  1  0  0  0
 22 23  2  0  0  0
 23 25  1  0  0  0
 25 26  2  0  0  0
 25 27  2  0  0  0
 25 28  1  0  0  0
 28 29  1  0  0  0
 29 30  1  0  0  0
 30 31  1  0  0  0
 31 32  1  0  0  0
 31 33  1  0  0  0
 33 34  1  0  0  0
 23 24  1  0  0  0
  5  6  1  0  0  0
  6  7  2  0  0  0
  7  8  1  0  0  0
  8  9  1  0  0  0
  9 10  2  0  0  0
 10 11  1  0  0  0
 11 12  1  0  0  0
  8  3  2  0  0  0
 24 19  2  0  0  0
 11  7  1  0  0  0
 34 28  1  0  0  0
 13 14  1  0  0  0
  1  2  1  0  0  0
M  END
> <minimizedAffinity>
-9.44815

$$$$



 34 37  0  0  0  0  0  0  0  0999 V2000
   -0.2448   61.9928   82.2331 N   0  0  0  0  0  0  0  0  0  0  0  0
    0.5241   61.3392   82.2743 H   0  0  0  0  0  0  0  0  0  0  0  0
    0.5539   64.5802   84.6633 C   0  0  0  0  0  0  0  0  0  0  0  0
    0.1297   63.4078   84.1209 N   0  0  0  0  0  0  0  0  0  0  0  0
    0.1722   63.2036   82.7876 C   0  0  0  0  0  0  0  0  0  0  0  0
    0.6162   64.0929   81.8797 N   0  0  0  0  0  0  0  0  0  0  0  0
    1.0197   65.2417   82.4381 C   0  0  0  0  0  0  0  0  0  0  0  0
    1.0257   65.5703   83.7823 C   0  0  0  0  0  0  0  0  0  0  0  0
    1.5066   66.8557   83.9600 N   0  0  0  0  0  0  0  0  0  0  0  0
    1.7936   67.2860   82.7497 C   0  0  0  0  0  0  0  0  0  0  0  0
    1.5152   66.3441   81.8007 N   0  0  0  0  0  0  0  0  0  0  0  0
    1.7040   66.4778   80.3808 C   0  0  0  0  0  0  0  0  0  0  0  0
    0.4753   64.6640   86.0556 N   0  0  0  0  0  0  0  0  0  0  0  0
    1.2738   65.2059   86.3714 H   0  0  0  0  0  0  0  0  0  0  0  0
    0.2240   63.4270   86.7814 C   0  0  0  0  0  0  0  0  0  0  0  0
   -0.5396   62.9756   89.1352 C   0  0  0  0  0  0  0  0  0  0  0  0
   -0.9078   63.6348   87.8049 C   0  0  0  0  0  0  0  0  0  0  0  0
   -2.2388   63.0740   87.2974 C   0  0  0  0  0  0  0  0  0  0  0  0
   -1.3881   61.5818   81.5402 C   0  0  0  0  0  0  0  0  0  0  0  0
   -2.6795   61.5984   82.0801 C   0  0  0  0  0  0  0  0  0  0  0  0
   -3.7873   61.1589   81.3443 C   0  0  0  0  0  0  0  0  0  0  0  0
   -3.6191   60.6638   80.0559 C   0  0  0  0  0  0  0  0  0  0  0  0
   -2.3335   60.5921   79.5212 C   0  0  0  0  0  0  0  0  0  0  0  0
   -1.2318   61.0672   80.2445 C   0  0  0  0  0  0  0  0  0  0  0  0
   -2.0939   59.9558   77.8758 S   0  0  0  0  0  0  0  0  0  0  0  0
   -0.9829   59.0291   77.9283 O   0  0  0  0  0  0  0  0  0  0  0  0
   -3.3907   59.5419   77.3811 O   0  0  0  0  0  0  0  0  0  0  0  0
   -1.6089   61.3150   76.9949 N   0  0  0  0  0  0  0  0  0  0  0  0
   -2.4529   62.5367   77.1048 C   0  0  0  0  0  0  0  0  0  0  0  0
   -1.7855   63.7371   76.4072 C   0  0  0  0  0  0  0  0  0  0  0  0
   -0.4505   64.0895   76.9328 N   0  0  0  0  0  0  0  0  0  0  0  0
   -0.5124   65.1869   77.8954 C   0  0  0  0  0  0  0  0  0  0  0  0
    0.2349   62.9196   77.5212 C   0  0  0  0  0  0  0  0  0  0  0  0
   -0.1499   61.5852   76.8557 C   0  0  0  0  0  0  0  0  0  0  0  0
 16 17  1  0  0  0
 17 18  1  0  0  0
 17 15  1  0  0  0
 15 13  1  0  0  0
 13  3  1  0  0  0
  3  4  1  0  0  0
  4  5  2  0  0  0
  5  1  1  0  0  0
  1 19  1  0  0  0
 19 20  1  0  0  0
 20 21  2  0  0  0
 21 22  1  0  0  0
 22 23  2  0  0  0
 23 25  1  0  0  0
 25 26  2  0  0  0
 25 27  2  0  0  0
 25 28  1  0  0  0
 28 29  1  0  0  0
 29 30  1  0  0  0
 30 31  1  0  0  0
 31 32  1  0  0  0
 31 33  1  0  0  0
 33 34  1  0  0  0
 23 24  1  0  0  0
  5  6  1  0  0  0
  6  7  2  0  0  0
  7  8  1  0  0  0
  8  9  1  0  0  0
  9 10  2  0  0  0
 10 11  1  0  0  0
 11 12  1  0  0  0
  8  3  2  0  0  0
 24 19  2  0  0  0
 11  7  1  0  0  0
 34 28  1  0  0  0
 13 14  1  0  0  0
  1  2  1  0  0  0
M  END
> <minimizedAffinity>
-9.43875

$$$$



 34 37  0  0  0  0  0  0  0  0999 V2000
   -0.1709   64.6554   82.9279 N   0  0  0  0  0  0  0  0  0  0  0  0
   -1.1020   64.2659   82.8917 H   0  0  0  0  0  0  0  0  0  0  0  0
    2.0106   64.8472   85.8336 C   0  0  0  0  0  0  0  0  0  0  0  0
    1.5299   64.9958   84.5705 N   0  0  0  0  0  0  0  0  0  0  0  0
    0.3310   64.4855   84.2189 C   0  0  0  0  0  0  0  0  0  0  0  0
   -0.4909   63.8005   85.0358 N   0  0  0  0  0  0  0  0  0  0  0  0
    0.0090   63.6603   86.2706 C   0  0  0  0  0  0  0  0  0  0  0  0
    1.2172   64.1341   86.7507 C   0  0  0  0  0  0  0  0  0  0  0  0
    1.3803   63.7756   88.0774 N   0  0  0  0  0  0  0  0  0  0  0  0
    0.2888   63.1103   88.3906 C   0  0  0  0  0  0  0  0  0  0  0  0
   -0.5663   63.0167   87.3298 N   0  0  0  0  0  0  0  0  0  0  0  0
   -1.8458   62.3591   87.3171 C   0  0  0  0  0  0  0  0  0  0  0  0
    3.2545   65.4341   86.0785 N   0  0  0  0  0  0  0  0  0  0  0  0
    3.0914   66.2661   86.6373 H   0  0  0  0  0  0  0  0  0  0  0  0
    4.1443   65.6029   84.9384 C   0  0  0  0  0  0  0  0  0  0  0  0
    5.7476   65.2439   86.8429 C   0  0  0  0  0  0  0  0  0  0  0  0
    5.5797   65.1988   85.3232 C   0  0  0  0  0  0  0  0  0  0  0  0
    6.6194   66.1044   84.6580 C   0  0  0  0  0  0  0  0  0  0  0  0
    0.3807   65.0898   81.7182 C   0  0  0  0  0  0  0  0  0  0  0  0
    1.1241   66.2671   81.5742 C   0  0  0  0  0  0  0  0  0  0  0  0
    1.6394   66.6615   80.3330 C   0  0  0  0  0  0  0  0  0  0  0  0
    1.3945   65.8951   79.1989 C   0  0  0  0  0  0  0  0  0  0  0  0
    0.6128   64.7464   79.3145 C   0  0  0  0  0  0  0  0  0  0  0  0
    0.1303   64.3338   80.5633 C   0  0  0  0  0  0  0  0  0  0  0  0
    0.2812   63.7535   77.8745 S   0  0  0  0  0  0  0  0  0  0  0  0
   -0.1638   64.6473   76.8263 O   0  0  0  0  0  0  0  0  0  0  0  0
    1.4214   62.8818   77.6806 O   0  0  0  0  0  0  0  0  0  0  0  0
   -1.0310   62.7983   78.3487 N   0  0  0  0  0  0  0  0  0  0  0  0
   -2.2925   62.9361   77.5700 C   0  0  0  0  0  0  0  0  0  0  0  0
   -3.3251   61.8742   77.9934 C   0  0  0  0  0  0  0  0  0  0  0  0
   -2.8720   60.4773   77.8322 N   0  0  0  0  0  0  0  0  0  0  0  0
   -3.3570   59.8836   76.5883 C   0  0  0  0  0  0  0  0  0  0  0  0
   -1.4014   60.3623   77.9245 C   0  0  0  0  0  0  0  0  0  0  0  0
   -0.7605   61.4188   78.8436 C   0  0  0  0  0  0  0  0  0  0  0  0
 16 17  1  0  0  0
 17 18  1  0  0  0
 17 15  1  0  0  0
 15 13  1  0  0  0
 13  3  1  0  0  0
  3  4  1  0  0  0
  4  5  2  0  0  0
  5  1  1  0  0  0
  1 19  1  0  0  0
 19 20  1  0  0  0
 20 21  2  0  0  0
 21 22  1  0  0  0
 22 23  2  0  0  0
 23 25  1  0  0  0
 25 26  2  0  0  0
 25 27  2  0  0  0
 25 28  1  0  0  0
 28 29  1  0  0  0
 29 30  1  0  0  0
 30 31  1  0  0  0
 31 32  1  0  0  0
 31 33  1  0  0  0
 33 34  1  0  0  0
 23 24  1  0  0  0
  5  6  1  0  0  0
  6  7  2  0  0  0
  7  8  1  0  0  0
  8  9  1  0  0  0
  9 10  2  0  0  0
 10 11  1  0  0  0
 11 12  1  0  0  0
  8  3  2  0  0  0
 24 19  2  0  0  0
 11  7  1  0  0  0
 34 28  1  0  0  0
 13 14  1  0  0  0
  1  2  1  0  0  0
M  END
> <minimizedAffinity>
-9.39331

$$$$



 34 37  0  0  0  0  0  0  0  0999 V2000
    0.1263   64.5370   81.7406 N   0  0  0  0  0  0  0  0  0  0  0  0
    0.2984   64.3755   80.7587 H   0  0  0  0  0  0  0  0  0  0  0  0
   -1.7774   62.4239   84.0100 C   0  0  0  0  0  0  0  0  0  0  0  0
   -0.9921   63.4278   83.5367 N   0  0  0  0  0  0  0  0  0  0  0  0
   -0.6634   63.4953   82.2295 C   0  0  0  0  0  0  0  0  0  0  0  0
   -1.0528   62.6189   81.2848 N   0  0  0  0  0  0  0  0  0  0  0  0
   -1.8172   61.6356   81.7777 C   0  0  0  0  0  0  0  0  0  0  0  0
   -2.2213   61.4574   83.0890 C   0  0  0  0  0  0  0  0  0  0  0  0
   -2.9955   60.3159   83.2018 N   0  0  0  0  0  0  0  0  0  0  0  0
   -3.0641   59.8250   81.9826 C   0  0  0  0  0  0  0  0  0  0  0  0
   -2.3671   60.5898   81.0913 N   0  0  0  0  0  0  0  0  0  0  0  0
   -2.2280   60.3471   79.6802 C   0  0  0  0  0  0  0  0  0  0  0  0
   -2.0605   62.4730   85.3771 N   0  0  0  0  0  0  0  0  0  0  0  0
   -2.6086   63.3117   85.5423 H   0  0  0  0  0  0  0  0  0  0  0  0
   -0.9501   62.2530   86.2928 C   0  0  0  0  0  0  0  0  0  0  0  0
    0.6059   64.0918   87.0173 C   0  0  0  0  0  0  0  0  0  0  0  0
   -0.7780   63.4720   87.2181 C   0  0  0  0  0  0  0  0  0  0  0  0
   -0.9711   63.0964   88.6896 C   0  0  0  0  0  0  0  0  0  0  0  0
    0.8067   65.6045   82.3352 C   0  0  0  0  0  0  0  0  0  0  0  0
    1.1544   65.6545   83.6902 C   0  0  0  0  0  0  0  0  0  0  0  0
    1.8224   66.7583   84.2354 C   0  0  0  0  0  0  0  0  0  0  0  0
    2.1316   67.8532   83.4359 C   0  0  0  0  0  0  0  0  0  0  0  0
    1.7473   67.8423   82.0958 C   0  0  0  0  0  0  0  0  0  0  0  0
    1.1130   66.7217   81.5439 C   0  0  0  0  0  0  0  0  0  0  0  0
    2.1271   69.2360   81.0551 S   0  0  0  0  0  0  0  0  0  0  0  0
    3.5328   69.5351   81.2294 O   0  0  0  0  0  0  0  0  0  0  0  0
    1.5785   68.9567   79.7441 O   0  0  0  0  0  0  0  0  0  0  0  0
    1.2288   70.4945   81.7393 N   0  0  0  0  0  0  0  0  0  0  0  0
    1.8382   71.8529   81.7279 C   0  0  0  0  0  0  0  0  0  0  0  0
    0.8319   72.9169   82.2056 C   0  0  0  0  0  0  0  0  0  0  0  0
   -0.4066   72.9958   81.4040 N   0  0  0  0  0  0  0  0  0  0  0  0
   -0.3491   74.0649   80.4098 C   0  0  0  0  0  0  0  0  0  0  0  0
   -0.7284   71.7044   80.7611 C   0  0  0  0  0  0  0  0  0  0  0  0
   -0.2516   70.4825   81.5680 C   0  0  0  0  0  0  0  0  0  0  0  0
 16 17  1  0  0  0
 17 18  1  0  0  0
 17 15  1  0  0  0
 15 13  1  0  0  0
 13  3  1  0  0  0
  3  4  1  0  0  0
  4  5  2  0  0  0
  5  1  1  0  0  0
  1 19  1  0  0  0
 19 20  1  0  0  0
 20 21  2  0  0  0
 21 22  1  0  0  0
 22 23  2  0  0  0
 23 25  1  0  0  0
 25 26  2  0  0  0
 25 27  2  0  0  0
 25 28  1  0  0  0
 28 29  1  0  0  0
 29 30  1  0  0  0
 30 31  1  0  0  0
 31 32  1  0  0  0
 31 33  1  0  0  0
 33 34  1  0  0  0
 23 24  1  0  0  0
  5  6  1  0  0  0
  6  7  2  0  0  0
  7  8  1  0  0  0
  8  9  1  0  0  0
  9 10  2  0  0  0
 10 11  1  0  0  0
 11 12  1  0  0  0
  8  3  2  0  0  0
 24 19  2  0  0  0
 11  7  1  0  0  0
 34 28  1  0  0  0
 13 14  1  0  0  0
  1  2  1  0  0  0
M  END
> <minimizedAffinity>
-9.26347

$$$$



 34 37  0  0  0  0  0  0  0  0999 V2000
    1.0558   66.1459   82.2508 N   0  0  0  0  0  0  0  0  0  0  0  0
    0.8578   66.0828   81.2625 H   0  0  0  0  0  0  0  0  0  0  0  0
    3.5228   68.6110   83.2882 C   0  0  0  0  0  0  0  0  0  0  0  0
    2.9061   67.4205   83.0621 N   0  0  0  0  0  0  0  0  0  0  0  0
    1.6799   67.3688   82.5008 C   0  0  0  0  0  0  0  0  0  0  0  0
    0.9556   68.4370   82.1182 N   0  0  0  0  0  0  0  0  0  0  0  0
    1.5807   69.5969   82.3595 C   0  0  0  0  0  0  0  0  0  0  0  0
    2.8298   69.7804   82.9258 C   0  0  0  0  0  0  0  0  0  0  0  0
    3.1211   71.1302   83.0184 N   0  0  0  0  0  0  0  0  0  0  0  0
    2.0743   71.7438   82.5087 C   0  0  0  0  0  0  0  0  0  0  0  0
    1.1204   70.8566   82.0985 N   0  0  0  0  0  0  0  0  0  0  0  0
   -0.1471   71.1789   81.4991 C   0  0  0  0  0  0  0  0  0  0  0  0
    4.7956   68.5322   83.8586 N   0  0  0  0  0  0  0  0  0  0  0  0
    5.4601   68.4152   83.0999 H   0  0  0  0  0  0  0  0  0  0  0  0
    4.9612   67.6294   84.9889 C   0  0  0  0  0  0  0  0  0  0  0  0
    5.5534   65.2407   85.5092 C   0  0  0  0  0  0  0  0  0  0  0  0
    5.8294   66.4246   84.5808 C   0  0  0  0  0  0  0  0  0  0  0  0
    7.3209   66.7685   84.6057 C   0  0  0  0  0  0  0  0  0  0  0  0
    0.5472   65.1282   83.0642 C   0  0  0  0  0  0  0  0  0  0  0  0
    0.5973   65.1446   84.4631 C   0  0  0  0  0  0  0  0  0  0  0  0
    0.0857   64.0883   85.2274 C   0  0  0  0  0  0  0  0  0  0  0  0
   -0.4632   62.9744   84.6017 C   0  0  0  0  0  0  0  0  0  0  0  0
   -0.4748   62.9181   83.2087 C   0  0  0  0  0  0  0  0  0  0  0  0
    0.0028   63.9922   82.4466 C   0  0  0  0  0  0  0  0  0  0  0  0
   -1.1670   61.4989   82.3864 S   0  0  0  0  0  0  0  0  0  0  0  0
   -0.0638   60.6549   81.9786 O   0  0  0  0  0  0  0  0  0  0  0  0
   -2.2282   60.9879   83.2292 O   0  0  0  0  0  0  0  0  0  0  0  0
   -1.8739   62.1546   80.9974 N   0  0  0  0  0  0  0  0  0  0  0  0
   -1.1664   61.9404   79.7050 C   0  0  0  0  0  0  0  0  0  0  0  0
   -2.0207   62.4235   78.5176 C   0  0  0  0  0  0  0  0  0  0  0  0
   -3.3380   61.7651   78.3997 N   0  0  0  0  0  0  0  0  0  0  0  0
   -3.3192   60.6708   77.4317 C   0  0  0  0  0  0  0  0  0  0  0  0
   -3.8357   61.2929   79.7088 C   0  0  0  0  0  0  0  0  0  0  0  0
   -3.3606   62.1559   80.8925 C   0  0  0  0  0  0  0  0  0  0  0  0
 16 17  1  0  0  0
 17 18  1  0  0  0
 17 15  1  0  0  0
 15 13  1  0  0  0
 13  3  1  0  0  0
  3  4  1  0  0  0
  4  5  2  0  0  0
  5  1  1  0  0  0
  1 19  1  0  0  0
 19 20  1  0  0  0
 20 21  2  0  0  0
 21 22  1  0  0  0
 22 23  2  0  0  0
 23 25  1  0  0  0
 25 26  2  0  0  0
 25 27  2  0  0  0
 25 28  1  0  0  0
 28 29  1  0  0  0
 29 30  1  0  0  0
 30 31  1  0  0  0
 31 32  1  0  0  0
 31 33  1  0  0  0
 33 34  1  0  0  0
 23 24  1  0  0  0
  5  6  1  0  0  0
  6  7  2  0  0  0
  7  8  1  0  0  0
  8  9  1  0  0  0
  9 10  2  0  0  0
 10 11  1  0  0  0
 11 12  1  0  0  0
  8  3  2  0  0  0
 24 19  2  0  0  0
 11  7  1  0  0  0
 34 28  1  0  0  0
 13 14  1  0  0  0
  1  2  1  0  0  0
M  END
> <minimizedAffinity>
-9.19175

$$$$



 34 37  0  0  0  0  0  0  0  0999 V2000
    0.8912   65.9504   83.8967 N   0  0  0  0  0  0  0  0  0  0  0  0
    0.1939   66.6607   83.7255 H   0  0  0  0  0  0  0  0  0  0  0  0
    3.5987   68.3516   83.5195 C   0  0  0  0  0  0  0  0  0  0  0  0
    2.3929   67.7374   83.3884 N   0  0  0  0  0  0  0  0  0  0  0  0
    2.1358   66.5704   84.0157 C   0  0  0  0  0  0  0  0  0  0  0  0
    3.0004   65.9067   84.8057 N   0  0  0  0  0  0  0  0  0  0  0  0
    4.1827   66.5274   84.9113 C   0  0  0  0  0  0  0  0  0  0  0  0
    4.5659   67.7192   84.3218 C   0  0  0  0  0  0  0  0  0  0  0  0
    5.8716   68.0255   84.6633 N   0  0  0  0  0  0  0  0  0  0  0  0
    6.2606   67.0446   85.4499 C   0  0  0  0  0  0  0  0  0  0  0  0
    5.2727   66.1183   85.6266 N   0  0  0  0  0  0  0  0  0  0  0  0
    5.3540   64.9210   86.4200 C   0  0  0  0  0  0  0  0  0  0  0  0
    3.7368   69.5616   82.8350 N   0  0  0  0  0  0  0  0  0  0  0  0
    4.2948   70.1771   83.4189 H   0  0  0  0  0  0  0  0  0  0  0  0
    2.5281   70.1475   82.2731 C   0  0  0  0  0  0  0  0  0  0  0  0
    2.1722   69.1913   79.9739 C   0  0  0  0  0  0  0  0  0  0  0  0
    2.7093   70.3869   80.7625 C   0  0  0  0  0  0  0  0  0  0  0  0
    4.1765   70.6317   80.4010 C   0  0  0  0  0  0  0  0  0  0  0  0
    0.4287   64.6472   84.1061 C   0  0  0  0  0  0  0  0  0  0  0  0
    0.0501   64.1415   85.3553 C   0  0  0  0  0  0  0  0  0  0  0  0
   -0.3907   62.8210   85.5087 C   0  0  0  0  0  0  0  0  0  0  0  0
   -0.4339   61.9666   84.4124 C   0  0  0  0  0  0  0  0  0  0  0  0
   -0.0118   62.4382   83.1701 C   0  0  0  0  0  0  0  0  0  0  0  0
    0.3928   63.7701   83.0118 C   0  0  0  0  0  0  0  0  0  0  0  0
   -0.0526   61.3600   81.7541 S   0  0  0  0  0  0  0  0  0  0  0  0
    1.2537   60.7465   81.6402 O   0  0  0  0  0  0  0  0  0  0  0  0
   -1.2510   60.5538   81.8611 O   0  0  0  0  0  0  0  0  0  0  0  0
   -0.2536   62.4235   80.4551 N   0  0  0  0  0  0  0  0  0  0  0  0
    0.7180   62.3204   79.3317 C   0  0  0  0  0  0  0  0  0  0  0  0
    0.2954   63.2119   78.1486 C   0  0  0  0  0  0  0  0  0  0  0  0
   -1.0381   62.9039   77.5920 N   0  0  0  0  0  0  0  0  0  0  0  0
   -0.9546   62.0511   76.4086 C   0  0  0  0  0  0  0  0  0  0  0  0
   -1.9307   62.3021   78.6047 C   0  0  0  0  0  0  0  0  0  0  0  0
   -1.6398   62.7799   80.0395 C   0  0  0  0  0  0  0  0  0  0  0  0
 16 17  1  0  0  0
 17 18  1  0  0  0
 17 15  1  0  0  0
 15 13  1  0  0  0
 13  3  1  0  0  0
  3  4  1  0  0  0
  4  5  2  0  0  0
  5  1  1  0  0  0
  1 19  1  0  0  0
 19 20  1  0  0  0
 20 21  2  0  0  0
 21 22  1  0  0  0
 22 23  2  0  0  0
 23 25  1  0  0  0
 25 26  2  0  0  0
 25 27  2  0  0  0
 25 28  1  0  0  0
 28 29  1  0  0  0
 29 30  1  0  0  0
 30 31  1  0  0  0
 31 32  1  0  0  0
 31 33  1  0  0  0
 33 34  1  0  0  0
 23 24  1  0  0  0
  5  6  1  0  0  0
  6  7  2  0  0  0
  7  8  1  0  0  0
  8  9  1  0  0  0
  9 10  2  0  0  0
 10 11  1  0  0  0
 11 12  1  0  0  0
  8  3  2  0  0  0
 24 19  2  0  0  0
 11  7  1  0  0  0
 34 28  1  0  0  0
 13 14  1  0  0  0
  1  2  1  0  0  0
M  END
> <minimizedAffinity>
-9.17671

$$$$



 34 37  0  0  0  0  0  0  0  0999 V2000
    0.2795   64.9741   82.7226 N   0  0  0  0  0  0  0  0  0  0  0  0
   -0.5302   65.0966   83.3137 H   0  0  0  0  0  0  0  0  0  0  0  0
    2.9888   66.7938   84.3312 C   0  0  0  0  0  0  0  0  0  0  0  0
    2.0743   65.8285   84.0476 N   0  0  0  0  0  0  0  0  0  0  0  0
    1.2049   65.9738   83.0256 C   0  0  0  0  0  0  0  0  0  0  0  0
    1.1411   67.0400   82.2063 N   0  0  0  0  0  0  0  0  0  0  0  0
    2.0455   67.9797   82.5119 C   0  0  0  0  0  0  0  0  0  0  0  0
    2.9845   67.9486   83.5277 C   0  0  0  0  0  0  0  0  0  0  0  0
    3.7310   69.1139   83.5271 N   0  0  0  0  0  0  0  0  0  0  0  0
    3.2580   69.8249   82.5256 C   0  0  0  0  0  0  0  0  0  0  0  0
    2.2395   69.1783   81.8853 N   0  0  0  0  0  0  0  0  0  0  0  0
    1.4953   69.6633   80.7537 C   0  0  0  0  0  0  0  0  0  0  0  0
    3.8434   66.5192   85.4016 N   0  0  0  0  0  0  0  0  0  0  0  0
    4.0297   67.3990   85.8730 H   0  0  0  0  0  0  0  0  0  0  0  0
    5.0087   65.6913   85.1246 C   0  0  0  0  0  0  0  0  0  0  0  0
    7.4747   65.7244   84.6299 C   0  0  0  0  0  0  0  0  0  0  0  0
    6.2117   66.5784   84.7536 C   0  0  0  0  0  0  0  0  0  0  0  0
    6.4337   67.6892   85.7833 C   0  0  0  0  0  0  0  0  0  0  0  0
    0.3136   63.8250   81.9261 C   0  0  0  0  0  0  0  0  0  0  0  0
    0.6974   62.5613   82.3900 C   0  0  0  0  0  0  0  0  0  0  0  0
    0.7282   61.4472   81.5418 C   0  0  0  0  0  0  0  0  0  0  0  0
    0.4013   61.5830   80.1971 C   0  0  0  0  0  0  0  0  0  0  0  0
    0.0662   62.8443   79.7064 C   0  0  0  0  0  0  0  0  0  0  0  0
   -0.0006   63.9497   80.5645 C   0  0  0  0  0  0  0  0  0  0  0  0
   -0.3497   63.0427   77.9868 S   0  0  0  0  0  0  0  0  0  0  0  0
   -0.6897   64.4349   77.7822 O   0  0  0  0  0  0  0  0  0  0  0  0
    0.6974   62.4069   77.2143 O   0  0  0  0  0  0  0  0  0  0  0  0
   -1.7577   62.1226   77.8137 N   0  0  0  0  0  0  0  0  0  0  0  0
   -1.5942   60.6592   77.5937 C   0  0  0  0  0  0  0  0  0  0  0  0
   -2.9525   59.9344   77.6475 C   0  0  0  0  0  0  0  0  0  0  0  0
   -3.6866   60.0976   78.9192 N   0  0  0  0  0  0  0  0  0  0  0  0
   -3.4897   58.9607   79.8156 C   0  0  0  0  0  0  0  0  0  0  0  0
   -3.3352   61.3624   79.5983 C   0  0  0  0  0  0  0  0  0  0  0  0
   -2.9506   62.4934   78.6266 C   0  0  0  0  0  0  0  0  0  0  0  0
 16 17  1  0  0  0
 17 18  1  0  0  0
 17 15  1  0  0  0
 15 13  1  0  0  0
 13  3  1  0  0  0
  3  4  1  0  0  0
  4  5  2  0  0  0
  5  1  1  0  0  0
  1 19  1  0  0  0
 19 20  1  0  0  0
 20 21  2  0  0  0
 21 22  1  0  0  0
 22 23  2  0  0  0
 23 25  1  0  0  0
 25 26  2  0  0  0
 25 27  2  0  0  0
 25 28  1  0  0  0
 28 29  1  0  0  0
 29 30  1  0  0  0
 30 31  1  0  0  0
 31 32  1  0  0  0
 31 33  1  0  0  0
 33 34  1  0  0  0
 23 24  1  0  0  0
  5  6  1  0  0  0
  6  7  2  0  0  0
  7  8  1  0  0  0
  8  9  1  0  0  0
  9 10  2  0  0  0
 10 11  1  0  0  0
 11 12  1  0  0  0
  8  3  2  0  0  0
 24 19  2  0  0  0
 11  7  1  0  0  0
 34 28  1  0  0  0
 13 14  1  0  0  0
  1  2  1  0  0  0
M  END
> <minimizedAffinity>
-9.14832

$$$$



 34 37  0  0  0  0  0  0  0  0999 V2000
    1.9881   65.7831   85.0771 N   0  0  0  0  0  0  0  0  0  0  0  0
    2.6620   65.7308   85.8275 H   0  0  0  0  0  0  0  0  0  0  0  0
   -0.6233   63.3367   84.4183 C   0  0  0  0  0  0  0  0  0  0  0  0
    0.2931   64.3246   84.2368 N   0  0  0  0  0  0  0  0  0  0  0  0
    1.0337   64.7830   85.2677 C   0  0  0  0  0  0  0  0  0  0  0  0
    0.9563   64.3403   86.5366 N   0  0  0  0  0  0  0  0  0  0  0  0
    0.0409   63.3745   86.6906 C   0  0  0  0  0  0  0  0  0  0  0  0
   -0.7753   62.8227   85.7190 C   0  0  0  0  0  0  0  0  0  0  0  0
   -1.5960   61.8563   86.2738 N   0  0  0  0  0  0  0  0  0  0  0  0
   -1.2721   61.8206   87.5489 C   0  0  0  0  0  0  0  0  0  0  0  0
   -0.2882   62.7206   87.8443 N   0  0  0  0  0  0  0  0  0  0  0  0
    0.3027   62.9495   89.1359 C   0  0  0  0  0  0  0  0  0  0  0  0
   -1.3146   62.9373   83.2719 N   0  0  0  0  0  0  0  0  0  0  0  0
   -2.2982   63.1354   83.4276 H   0  0  0  0  0  0  0  0  0  0  0  0
   -1.0123   61.6153   82.7418 C   0  0  0  0  0  0  0  0  0  0  0  0
   -3.0054   62.3693   81.4053 C   0  0  0  0  0  0  0  0  0  0  0  0
   -2.1067   61.1803   81.7495 C   0  0  0  0  0  0  0  0  0  0  0  0
   -2.9528   60.0334   82.3083 C   0  0  0  0  0  0  0  0  0  0  0  0
    2.1019   66.8656   84.1988 C   0  0  0  0  0  0  0  0  0  0  0  0
    2.7434   68.0685   84.5169 C   0  0  0  0  0  0  0  0  0  0  0  0
    2.8129   69.1265   83.6018 C   0  0  0  0  0  0  0  0  0  0  0  0
    2.2125   69.0113   82.3529 C   0  0  0  0  0  0  0  0  0  0  0  0
    1.5251   67.8398   82.0382 C   0  0  0  0  0  0  0  0  0  0  0  0
    1.4892   66.7687   82.9405 C   0  0  0  0  0  0  0  0  0  0  0  0
    0.7434   67.6729   80.4475 S   0  0  0  0  0  0  0  0  0  0  0  0
   -0.6694   67.9295   80.6311 O   0  0  0  0  0  0  0  0  0  0  0  0
    1.5262   68.4397   79.5004 O   0  0  0  0  0  0  0  0  0  0  0  0
    0.9411   66.0340   80.0818 N   0  0  0  0  0  0  0  0  0  0  0  0
   -0.1024   65.0936   80.5754 C   0  0  0  0  0  0  0  0  0  0  0  0
    0.1110   63.6785   80.0052 C   0  0  0  0  0  0  0  0  0  0  0  0
    0.0949   63.6010   78.5299 N   0  0  0  0  0  0  0  0  0  0  0  0
   -1.2081   63.1840   78.0170 C   0  0  0  0  0  0  0  0  0  0  0  0
    0.5153   64.8742   77.9080 C   0  0  0  0  0  0  0  0  0  0  0  0
    1.5232   65.6686   78.7593 C   0  0  0  0  0  0  0  0  0  0  0  0
 16 17  1  0  0  0
 17 18  1  0  0  0
 17 15  1  0  0  0
 15 13  1  0  0  0
 13  3  1  0  0  0
  3  4  1  0  0  0
  4  5  2  0  0  0
  5  1  1  0  0  0
  1 19  1  0  0  0
 19 20  1  0  0  0
 20 21  2  0  0  0
 21 22  1  0  0  0
 22 23  2  0  0  0
 23 25  1  0  0  0
 25 26  2  0  0  0
 25 27  2  0  0  0
 25 28  1  0  0  0
 28 29  1  0  0  0
 29 30  1  0  0  0
 30 31  1  0  0  0
 31 32  1  0  0  0
 31 33  1  0  0  0
 33 34  1  0  0  0
 23 24  1  0  0  0
  5  6  1  0  0  0
  6  7  2  0  0  0
  7  8  1  0  0  0
  8  9  1  0  0  0
  9 10  2  0  0  0
 10 11  1  0  0  0
 11 12  1  0  0  0
  8  3  2  0  0  0
 24 19  2  0  0  0
 11  7  1  0  0  0
 34 28  1  0  0  0
 13 14  1  0  0  0
  1  2  1  0  0  0
M  END
> <minimizedAffinity>
-9.05196

$$$$



 34 37  0  0  0  0  0  0  0  0999 V2000
    0.6182   64.3806   81.5806 N   0  0  0  0  0  0  0  0  0  0  0  0
    1.3308   63.8581   81.0916 H   0  0  0  0  0  0  0  0  0  0  0  0
   -1.5368   62.6928   83.9778 C   0  0  0  0  0  0  0  0  0  0  0  0
   -0.6382   63.5594   83.4390 N   0  0  0  0  0  0  0  0  0  0  0  0
   -0.2892   63.4786   82.1378 C   0  0  0  0  0  0  0  0  0  0  0  0
   -0.7641   62.5738   81.2614 N   0  0  0  0  0  0  0  0  0  0  0  0
   -1.6399   61.7270   81.8184 C   0  0  0  0  0  0  0  0  0  0  0  0
   -2.0763   61.7070   83.1314 C   0  0  0  0  0  0  0  0  0  0  0  0
   -2.9752   60.6724   83.3226 N   0  0  0  0  0  0  0  0  0  0  0  0
   -3.0849   60.0903   82.1473 C   0  0  0  0  0  0  0  0  0  0  0  0
   -2.2962   60.6944   81.2101 N   0  0  0  0  0  0  0  0  0  0  0  0
   -2.1694   60.3187   79.8272 C   0  0  0  0  0  0  0  0  0  0  0  0
   -1.8281   62.8892   85.3299 N   0  0  0  0  0  0  0  0  0  0  0  0
   -2.0331   63.8758   85.4547 H   0  0  0  0  0  0  0  0  0  0  0  0
   -0.9091   62.3071   86.2977 C   0  0  0  0  0  0  0  0  0  0  0  0
    0.6798   64.1492   86.9372 C   0  0  0  0  0  0  0  0  0  0  0  0
   -0.5467   63.3467   87.3746 C   0  0  0  0  0  0  0  0  0  0  0  0
   -0.2803   62.6870   88.7301 C   0  0  0  0  0  0  0  0  0  0  0  0
    0.8079   65.7621   81.6877 C   0  0  0  0  0  0  0  0  0  0  0  0
    0.1185   66.7093   80.9214 C   0  0  0  0  0  0  0  0  0  0  0  0
    0.3615   68.0817   81.0599 C   0  0  0  0  0  0  0  0  0  0  0  0
    1.3262   68.5342   81.9533 C   0  0  0  0  0  0  0  0  0  0  0  0
    2.0585   67.6023   82.6876 C   0  0  0  0  0  0  0  0  0  0  0  0
    1.7875   66.2324   82.5750 C   0  0  0  0  0  0  0  0  0  0  0  0
    3.3030   68.1587   83.8325 S   0  0  0  0  0  0  0  0  0  0  0  0
    4.1696   69.0725   83.1186 O   0  0  0  0  0  0  0  0  0  0  0  0
    2.6221   68.5659   85.0443 O   0  0  0  0  0  0  0  0  0  0  0  0
    4.1802   66.7541   84.1739 N   0  0  0  0  0  0  0  0  0  0  0  0
    5.6218   66.9142   84.5099 C   0  0  0  0  0  0  0  0  0  0  0  0
    6.2336   65.5809   84.9802 C   0  0  0  0  0  0  0  0  0  0  0  0
    5.5801   64.9886   86.1655 N   0  0  0  0  0  0  0  0  0  0  0  0
    6.2974   65.2997   87.3998 C   0  0  0  0  0  0  0  0  0  0  0  0
    4.1626   65.3937   86.2716 C   0  0  0  0  0  0  0  0  0  0  0  0
    3.4955   65.6524   84.9079 C   0  0  0  0  0  0  0  0  0  0  0  0
 16 17  1  0  0  0
 17 18  1  0  0  0
 17 15  1  0  0  0
 15 13  1  0  0  0
 13  3  1  0  0  0
  3  4  1  0  0  0
  4  5  2  0  0  0
  5  1  1  0  0  0
  1 19  1  0  0  0
 19 20  1  0  0  0
 20 21  2  0  0  0
 21 22  1  0  0  0
 22 23  2  0  0  0
 23 25  1  0  0  0
 25 26  2  0  0  0
 25 27  2  0  0  0
 25 28  1  0  0  0
 28 29  1  0  0  0
 29 30  1  0  0  0
 30 31  1  0  0  0
 31 32  1  0  0  0
 31 33  1  0  0  0
 33 34  1  0  0  0
 23 24  1  0  0  0
  5  6  1  0  0  0
  6  7  2  0  0  0
  7  8  1  0  0  0
  8  9  1  0  0  0
  9 10  2  0  0  0
 10 11  1  0  0  0
 11 12  1  0  0  0
  8  3  2  0  0  0
 24 19  2  0  0  0
 11  7  1  0  0  0
 34 28  1  0  0  0
 13 14  1  0  0  0
  1  2  1  0  0  0
M  END
> <minimizedAffinity>
-8.98932

$$$$
