


 28 33  0  0  0  0  0  0  0  0999 V2000
   -2.2677   63.1612   81.9243 C   0  0  0  0  0  0  0  0  0  0  0  0
   -1.2052   63.7150   82.7386 N   0  0  0  0  0  0  0  0  0  0  0  0
   -0.3440   64.6771   82.1941 C   0  0  0  0  0  0  0  0  0  0  0  0
   -0.4441   65.1056   81.0473 O   0  0  0  0  0  0  0  0  0  0  0  0
    0.6765   65.1209   83.1067 C   0  0  0  0  0  0  0  0  0  0  0  0
    0.7775   64.6659   84.3917 C   0  0  0  0  0  0  0  0  0  0  0  0
    1.8144   65.2152   85.0618 N   0  0  0  0  0  0  0  0  0  0  0  0
    2.3783   66.0449   84.1967 C   0  0  0  0  0  0  0  0  0  0  0  0
    1.7112   66.0149   82.9771 N   0  0  0  0  0  0  0  0  0  0  0  0
   -0.0921   63.7769   84.8643 N   0  0  0  0  0  0  0  0  0  0  0  0
   -1.0599   63.2712   84.0461 C   0  0  0  0  0  0  0  0  0  0  0  0
   -1.8346   62.3518   84.5670 N   0  0  0  0  0  0  0  0  0  0  0  0
   -1.3016   62.1774   85.9596 C   0  0  0  0  0  0  0  0  0  0  0  0
   -2.3541   62.5833   86.9877 C   0  0  0  0  0  0  0  0  0  0  0  0
   -1.5592   63.3049   88.0649 C   0  0  0  0  0  0  0  0  0  0  0  0
   -0.5339   64.1025   87.2730 C   0  0  0  0  0  0  0  0  0  0  0  0
   -0.1122   63.1590   86.1510 C   0  0  0  0  0  0  0  0  0  0  0  0
    3.5681   66.9178   84.4747 C   0  0  0  0  0  0  0  0  0  0  0  0
    4.8776   66.1869   84.5989 C   0  0  0  0  0  0  0  0  0  0  0  0
    5.9920   66.7581   85.4390 C   0  0  0  0  0  0  0  0  0  0  0  0
    5.2659   65.5228   85.8954 C   0  0  0  0  0  0  0  0  0  0  0  0
    2.0880   66.7367   81.7685 C   0  0  0  0  0  0  0  0  0  0  0  0
    1.4413   68.0970   81.6848 C   0  0  0  0  0  0  0  0  0  0  0  0
    0.3670   68.3312   80.8133 C   0  0  0  0  0  0  0  0  0  0  0  0
   -0.2254   69.5928   80.7378 C   0  0  0  0  0  0  0  0  0  0  0  0
    0.2524   70.6373   81.5256 C   0  0  0  0  0  0  0  0  0  0  0  0
    1.3267   70.4232   82.3859 C   0  0  0  0  0  0  0  0  0  0  0  0
    1.9211   69.1623   82.4627 C   0  0  0  0  0  0  0  0  0  0  0  0
  1  2  1  0  0  0
  2  3  1  0  0  0
  3  4  2  0  0  0
  3  5  1  0  0  0
  5  6  2  0  0  0
  6  7  1  0  0  0
  7  8  2  0  0  0
  8 18  1  0  0  0
 18 19  1  0  0  0
 19 20  1  0  0  0
 20 21  1  0  0  0
  8  9  1  0  0  0
  9 22  1  0  0  0
 22 23  1  0  0  0
 23 24  2  0  0  0
 24 25  1  0  0  0
 25 26  2  0  0  0
 26 27  1  0  0  0
 27 28  2  0  0  0
  6 10  1  0  0  0
 10 11  1  0  0  0
 11 12  2  0  0  0
 12 13  1  0  0  0
 13 14  1  0  0  0
 14 15  1  0  0  0
 15 16  1  0  0  0
 16 17  1  0  0  0
 11  2  1  0  0  0
 17 13  1  0  0  0
  9  5  1  0  0  0
 28 23  1  0  0  0
 17 10  1  0  0  0
 21 19  1  0  0  0
M  END
> <minimizedAffinity>
-10.28116

$$$$



 28 33  0  0  0  0  0  0  0  0999 V2000
    1.2793   65.9261   79.0850 C   0  0  0  0  0  0  0  0  0  0  0  0
    0.9562   65.4096   80.3994 N   0  0  0  0  0  0  0  0  0  0  0  0
    1.3664   66.1122   81.5404 C   0  0  0  0  0  0  0  0  0  0  0  0
    1.9827   67.1738   81.4983 O   0  0  0  0  0  0  0  0  0  0  0  0
    0.9977   65.4724   82.7758 C   0  0  0  0  0  0  0  0  0  0  0  0
    0.2904   64.3040   82.8288 C   0  0  0  0  0  0  0  0  0  0  0  0
    0.0642   63.8856   84.0936 N   0  0  0  0  0  0  0  0  0  0  0  0
    0.6239   64.8075   84.8628 C   0  0  0  0  0  0  0  0  0  0  0  0
    1.2147   65.8019   84.0914 N   0  0  0  0  0  0  0  0  0  0  0  0
   -0.1026   63.7003   81.7103 N   0  0  0  0  0  0  0  0  0  0  0  0
    0.2492   64.2189   80.4982 C   0  0  0  0  0  0  0  0  0  0  0  0
   -0.1191   63.5301   79.4462 N   0  0  0  0  0  0  0  0  0  0  0  0
   -0.8155   62.3325   80.0245 C   0  0  0  0  0  0  0  0  0  0  0  0
   -2.2862   62.3227   79.6165 C   0  0  0  0  0  0  0  0  0  0  0  0
   -3.0128   61.8468   80.8648 C   0  0  0  0  0  0  0  0  0  0  0  0
   -2.2637   62.5375   81.9947 C   0  0  0  0  0  0  0  0  0  0  0  0
   -0.7996   62.4621   81.5730 C   0  0  0  0  0  0  0  0  0  0  0  0
    0.6233   64.8073   86.3645 C   0  0  0  0  0  0  0  0  0  0  0  0
    0.0768   63.5573   86.9998 C   0  0  0  0  0  0  0  0  0  0  0  0
    0.2751   63.3024   88.4728 C   0  0  0  0  0  0  0  0  0  0  0  0
   -1.0955   63.6265   87.9452 C   0  0  0  0  0  0  0  0  0  0  0  0
    1.9852   66.9356   84.5862 C   0  0  0  0  0  0  0  0  0  0  0  0
    3.4588   66.6296   84.6894 C   0  0  0  0  0  0  0  0  0  0  0  0
    3.9084   65.4530   85.3073 C   0  0  0  0  0  0  0  0  0  0  0  0
    5.2733   65.1767   85.4026 C   0  0  0  0  0  0  0  0  0  0  0  0
    6.2055   66.0751   84.8891 C   0  0  0  0  0  0  0  0  0  0  0  0
    5.7746   67.2536   84.2845 C   0  0  0  0  0  0  0  0  0  0  0  0
    4.4099   67.5323   84.1885 C   0  0  0  0  0  0  0  0  0  0  0  0
  1  2  1  0  0  0
  2  3  1  0  0  0
  3  4  2  0  0  0
  3  5  1  0  0  0
  5  6  2  0  0  0
  6  7  1  0  0  0
  7  8  2  0  0  0
  8 18  1  0  0  0
 18 19  1  0  0  0
 19 20  1  0  0  0
 20 21  1  0  0  0
  8  9  1  0  0  0
  9 22  1  0  0  0
 22 23  1  0  0  0
 23 24  2  0  0  0
 24 25  1  0  0  0
 25 26  2  0  0  0
 26 27  1  0  0  0
 27 28  2  0  0  0
  6 10  1  0  0  0
 10 11  1  0  0  0
 11 12  2  0  0  0
 12 13  1  0  0  0
 13 14  1  0  0  0
 14 15  1  0  0  0
 15 16  1  0  0  0
 16 17  1  0  0  0
 11  2  1  0  0  0
 17 13  1  0  0  0
  9  5  1  0  0  0
 28 23  1  0  0  0
 17 10  1  0  0  0
 21 19  1  0  0  0
M  END
> <minimizedAffinity>
-9.69229

$$$$



 28 33  0  0  0  0  0  0  0  0999 V2000
   -0.8901   62.6017   86.3003 C   0  0  0  0  0  0  0  0  0  0  0  0
   -0.4825   63.3523   85.1301 N   0  0  0  0  0  0  0  0  0  0  0  0
    0.3981   64.4332   85.2719 C   0  0  0  0  0  0  0  0  0  0  0  0
    0.8732   64.7844   86.3488 O   0  0  0  0  0  0  0  0  0  0  0  0
    0.6977   65.1001   84.0322 C   0  0  0  0  0  0  0  0  0  0  0  0
    0.1916   64.6984   82.8277 C   0  0  0  0  0  0  0  0  0  0  0  0
    0.6024   65.4758   81.8016 N   0  0  0  0  0  0  0  0  0  0  0  0
    1.3944   66.3814   82.3558 C   0  0  0  0  0  0  0  0  0  0  0  0
    1.4779   66.1894   83.7303 N   0  0  0  0  0  0  0  0  0  0  0  0
   -0.6130   63.6418   82.7509 N   0  0  0  0  0  0  0  0  0  0  0  0
   -0.9829   62.9849   83.8883 C   0  0  0  0  0  0  0  0  0  0  0  0
   -1.8297   61.9968   83.7355 N   0  0  0  0  0  0  0  0  0  0  0  0
   -2.1075   61.9844   82.2602 C   0  0  0  0  0  0  0  0  0  0  0  0
   -1.6244   60.6772   81.6380 C   0  0  0  0  0  0  0  0  0  0  0  0
   -1.0298   61.1006   80.3038 C   0  0  0  0  0  0  0  0  0  0  0  0
   -0.3222   62.4071   80.6310 C   0  0  0  0  0  0  0  0  0  0  0  0
   -1.2678   63.1121   81.5983 C   0  0  0  0  0  0  0  0  0  0  0  0
    2.1233   67.4690   81.6203 C   0  0  0  0  0  0  0  0  0  0  0  0
    1.4505   68.8149   81.6459 C   0  0  0  0  0  0  0  0  0  0  0  0
    1.5626   69.7450   80.4643 C   0  0  0  0  0  0  0  0  0  0  0  0
    0.2471   69.0878   80.7797 C   0  0  0  0  0  0  0  0  0  0  0  0
    2.1946   67.0328   84.6784 C   0  0  0  0  0  0  0  0  0  0  0  0
    3.6621   66.6923   84.7574 C   0  0  0  0  0  0  0  0  0  0  0  0
    4.0917   65.4873   85.3332 C   0  0  0  0  0  0  0  0  0  0  0  0
    5.4512   65.1790   85.4063 C   0  0  0  0  0  0  0  0  0  0  0  0
    6.3979   66.0732   84.9125 C   0  0  0  0  0  0  0  0  0  0  0  0
    5.9871   67.2794   84.3499 C   0  0  0  0  0  0  0  0  0  0  0  0
    4.6279   67.5900   84.2761 C   0  0  0  0  0  0  0  0  0  0  0  0
  1  2  1  0  0  0
  2  3  1  0  0  0
  3  4  2  0  0  0
  3  5  1  0  0  0
  5  6  2  0  0  0
  6  7  1  0  0  0
  7  8  2  0  0  0
  8 18  1  0  0  0
 18 19  1  0  0  0
 19 20  1  0  0  0
 20 21  1  0  0  0
  8  9  1  0  0  0
  9 22  1  0  0  0
 22 23  1  0  0  0
 23 24  2  0  0  0
 24 25  1  0  0  0
 25 26  2  0  0  0
 26 27  1  0  0  0
 27 28  2  0  0  0
  6 10  1  0  0  0
 10 11  1  0  0  0
 11 12  2  0  0  0
 12 13  1  0  0  0
 13 14  1  0  0  0
 14 15  1  0  0  0
 15 16  1  0  0  0
 16 17  1  0  0  0
 11  2  1  0  0  0
 17 13  1  0  0  0
  9  5  1  0  0  0
 28 23  1  0  0  0
 17 10  1  0  0  0
 21 19  1  0  0  0
M  END
> <minimizedAffinity>
-9.65348

$$$$



 28 33  0  0  0  0  0  0  0  0999 V2000
   -0.0596   64.0528   76.8979 C   0  0  0  0  0  0  0  0  0  0  0  0
   -0.1768   64.0396   78.3418 N   0  0  0  0  0  0  0  0  0  0  0  0
    0.5593   64.9555   79.1055 C   0  0  0  0  0  0  0  0  0  0  0  0
    1.3034   65.8022   78.6176 O   0  0  0  0  0  0  0  0  0  0  0  0
    0.3635   64.8130   80.5242 C   0  0  0  0  0  0  0  0  0  0  0  0
   -0.4821   63.8891   81.0716 C   0  0  0  0  0  0  0  0  0  0  0  0
   -0.5014   63.9320   82.4221 N   0  0  0  0  0  0  0  0  0  0  0  0
    0.3348   64.9076   82.7441 C   0  0  0  0  0  0  0  0  0  0  0  0
    0.8938   65.4751   81.6045 N   0  0  0  0  0  0  0  0  0  0  0  0
   -1.1823   63.0685   80.2930 N   0  0  0  0  0  0  0  0  0  0  0  0
   -1.0159   63.1088   78.9393 C   0  0  0  0  0  0  0  0  0  0  0  0
   -1.6910   62.2243   78.2475 N   0  0  0  0  0  0  0  0  0  0  0  0
   -2.4218   61.4308   79.2916 C   0  0  0  0  0  0  0  0  0  0  0  0
   -3.9301   61.6017   79.1319 C   0  0  0  0  0  0  0  0  0  0  0  0
   -4.4453   61.6897   80.5601 C   0  0  0  0  0  0  0  0  0  0  0  0
   -3.3854   62.5209   81.2675 C   0  0  0  0  0  0  0  0  0  0  0  0
   -2.0675   62.0196   80.6855 C   0  0  0  0  0  0  0  0  0  0  0  0
    0.6445   65.3648   84.1406 C   0  0  0  0  0  0  0  0  0  0  0  0
    0.8297   64.2595   85.1449 C   0  0  0  0  0  0  0  0  0  0  0  0
    0.5793   64.5121   86.6103 C   0  0  0  0  0  0  0  0  0  0  0  0
   -0.3607   63.6363   85.8285 C   0  0  0  0  0  0  0  0  0  0  0  0
    1.9085   66.5205   81.5689 C   0  0  0  0  0  0  0  0  0  0  0  0
    1.3096   67.9051   81.5797 C   0  0  0  0  0  0  0  0  0  0  0  0
    0.2611   68.2430   80.7110 C   0  0  0  0  0  0  0  0  0  0  0  0
   -0.2870   69.5267   80.7233 C   0  0  0  0  0  0  0  0  0  0  0  0
    0.2103   70.4902   81.5975 C   0  0  0  0  0  0  0  0  0  0  0  0
    1.2598   70.1733   82.4567 C   0  0  0  0  0  0  0  0  0  0  0  0
    1.8098   68.8901   82.4457 C   0  0  0  0  0  0  0  0  0  0  0  0
  1  2  1  0  0  0
  2  3  1  0  0  0
  3  4  2  0  0  0
  3  5  1  0  0  0
  5  6  2  0  0  0
  6  7  1  0  0  0
  7  8  2  0  0  0
  8 18  1  0  0  0
 18 19  1  0  0  0
 19 20  1  0  0  0
 20 21  1  0  0  0
  8  9  1  0  0  0
  9 22  1  0  0  0
 22 23  1  0  0  0
 23 24  2  0  0  0
 24 25  1  0  0  0
 25 26  2  0  0  0
 26 27  1  0  0  0
 27 28  2  0  0  0
  6 10  1  0  0  0
 10 11  1  0  0  0
 11 12  2  0  0  0
 12 13  1  0  0  0
 13 14  1  0  0  0
 14 15  1  0  0  0
 15 16  1  0  0  0
 16 17  1  0  0  0
 11  2  1  0  0  0
 17 13  1  0  0  0
  9  5  1  0  0  0
 28 23  1  0  0  0
 17 10  1  0  0  0
 21 19  1  0  0  0
M  END
> <minimizedAffinity>
-9.51639

$$$$



 28 33  0  0  0  0  0  0  0  0999 V2000
    2.7543   67.6334   84.5826 C   0  0  0  0  0  0  0  0  0  0  0  0
    1.9567   66.7959   83.7101 N   0  0  0  0  0  0  0  0  0  0  0  0
    1.5588   65.5241   84.1436 C   0  0  0  0  0  0  0  0  0  0  0  0
    1.8343   65.0676   85.2502 O   0  0  0  0  0  0  0  0  0  0  0  0
    0.7925   64.7951   83.1675 C   0  0  0  0  0  0  0  0  0  0  0  0
    0.4619   65.3077   81.9442 C   0  0  0  0  0  0  0  0  0  0  0  0
   -0.2544   64.4443   81.1909 N   0  0  0  0  0  0  0  0  0  0  0  0
   -0.3960   63.3671   81.9486 C   0  0  0  0  0  0  0  0  0  0  0  0
    0.2378   63.5386   83.1742 N   0  0  0  0  0  0  0  0  0  0  0  0
    0.8388   66.5367   81.6019 N   0  0  0  0  0  0  0  0  0  0  0  0
    1.6089   67.2737   82.4538 C   0  0  0  0  0  0  0  0  0  0  0  0
    1.9940   68.4471   82.0161 N   0  0  0  0  0  0  0  0  0  0  0  0
    1.4180   68.5228   80.6319 C   0  0  0  0  0  0  0  0  0  0  0  0
    0.3996   69.6558   80.5398 C   0  0  0  0  0  0  0  0  0  0  0  0
   -0.7110   69.0847   79.6719 C   0  0  0  0  0  0  0  0  0  0  0  0
   -0.8183   67.6411   80.1399 C   0  0  0  0  0  0  0  0  0  0  0  0
    0.6285   67.2118   80.3618 C   0  0  0  0  0  0  0  0  0  0  0  0
   -1.1443   62.1231   81.5641 C   0  0  0  0  0  0  0  0  0  0  0  0
   -2.6367   62.2856   81.4603 C   0  0  0  0  0  0  0  0  0  0  0  0
   -3.3594   61.8937   80.1961 C   0  0  0  0  0  0  0  0  0  0  0  0
   -3.5409   61.0793   81.4473 C   0  0  0  0  0  0  0  0  0  0  0  0
    0.3566   62.5433   84.2320 C   0  0  0  0  0  0  0  0  0  0  0  0
   -0.6674   62.7370   85.3228 C   0  0  0  0  0  0  0  0  0  0  0  0
   -0.2860   63.1799   86.5982 C   0  0  0  0  0  0  0  0  0  0  0  0
   -1.2376   63.3542   87.6044 C   0  0  0  0  0  0  0  0  0  0  0  0
   -2.5797   63.0813   87.3516 C   0  0  0  0  0  0  0  0  0  0  0  0
   -2.9716   62.6283   86.0941 C   0  0  0  0  0  0  0  0  0  0  0  0
   -2.0215   62.4528   85.0863 C   0  0  0  0  0  0  0  0  0  0  0  0
  1  2  1  0  0  0
  2  3  1  0  0  0
  3  4  2  0  0  0
  3  5  1  0  0  0
  5  6  2  0  0  0
  6  7  1  0  0  0
  7  8  2  0  0  0
  8 18  1  0  0  0
 18 19  1  0  0  0
 19 20  1  0  0  0
 20 21  1  0  0  0
  8  9  1  0  0  0
  9 22  1  0  0  0
 22 23  1  0  0  0
 23 24  2  0  0  0
 24 25  1  0  0  0
 25 26  2  0  0  0
 26 27  1  0  0  0
 27 28  2  0  0  0
  6 10  1  0  0  0
 10 11  1  0  0  0
 11 12  2  0  0  0
 12 13  1  0  0  0
 13 14  1  0  0  0
 14 15  1  0  0  0
 15 16  1  0  0  0
 16 17  1  0  0  0
 11  2  1  0  0  0
 17 13  1  0  0  0
  9  5  1  0  0  0
 28 23  1  0  0  0
 17 10  1  0  0  0
 21 19  1  0  0  0
M  END
> <minimizedAffinity>
-9.51223

$$$$



 28 33  0  0  0  0  0  0  0  0999 V2000
    3.9862   68.1272   85.0413 C   0  0  0  0  0  0  0  0  0  0  0  0
    2.9916   67.7151   84.0720 N   0  0  0  0  0  0  0  0  0  0  0  0
    2.5105   66.3990   84.0891 C   0  0  0  0  0  0  0  0  0  0  0  0
    2.8732   65.5547   84.9041 O   0  0  0  0  0  0  0  0  0  0  0  0
    1.5457   66.1236   83.0572 C   0  0  0  0  0  0  0  0  0  0  0  0
    1.1200   67.0659   82.1633 C   0  0  0  0  0  0  0  0  0  0  0  0
    0.2180   66.5813   81.2814 N   0  0  0  0  0  0  0  0  0  0  0  0
    0.0536   65.3125   81.6243 C   0  0  0  0  0  0  0  0  0  0  0  0
    0.8566   64.9869   82.7117 N   0  0  0  0  0  0  0  0  0  0  0  0
    1.5873   68.3102   82.2185 N   0  0  0  0  0  0  0  0  0  0  0  0
    2.5407   68.6381   83.1381 C   0  0  0  0  0  0  0  0  0  0  0  0
    2.9973   69.8651   83.0846 N   0  0  0  0  0  0  0  0  0  0  0  0
    2.2590   70.4749   81.9284 C   0  0  0  0  0  0  0  0  0  0  0  0
    1.3735   71.6221   82.4071 C   0  0  0  0  0  0  0  0  0  0  0  0
    0.1017   71.4745   81.5864 C   0  0  0  0  0  0  0  0  0  0  0  0
   -0.1083   69.9688   81.5278 C   0  0  0  0  0  0  0  0  0  0  0  0
    1.2964   69.4025   81.3466 C   0  0  0  0  0  0  0  0  0  0  0  0
   -0.8755   64.3417   80.9539 C   0  0  0  0  0  0  0  0  0  0  0  0
   -0.2636   63.5483   79.8311 C   0  0  0  0  0  0  0  0  0  0  0  0
    0.0554   62.0863   80.0173 C   0  0  0  0  0  0  0  0  0  0  0  0
   -1.0675   62.4991   79.1060 C   0  0  0  0  0  0  0  0  0  0  0  0
    0.9971   63.6691   83.3179 C   0  0  0  0  0  0  0  0  0  0  0  0
   -0.0305   63.4171   84.3932 C   0  0  0  0  0  0  0  0  0  0  0  0
    0.2178   63.7796   85.7256 C   0  0  0  0  0  0  0  0  0  0  0  0
   -0.7355   63.5411   86.7169 C   0  0  0  0  0  0  0  0  0  0  0  0
   -1.9446   62.9312   86.3912 C   0  0  0  0  0  0  0  0  0  0  0  0
   -2.1999   62.5539   85.0750 C   0  0  0  0  0  0  0  0  0  0  0  0
   -1.2476   62.7910   84.0819 C   0  0  0  0  0  0  0  0  0  0  0  0
  1  2  1  0  0  0
  2  3  1  0  0  0
  3  4  2  0  0  0
  3  5  1  0  0  0
  5  6  2  0  0  0
  6  7  1  0  0  0
  7  8  2  0  0  0
  8 18  1  0  0  0
 18 19  1  0  0  0
 19 20  1  0  0  0
 20 21  1  0  0  0
  8  9  1  0  0  0
  9 22  1  0  0  0
 22 23  1  0  0  0
 23 24  2  0  0  0
 24 25  1  0  0  0
 25 26  2  0  0  0
 26 27  1  0  0  0
 27 28  2  0  0  0
  6 10  1  0  0  0
 10 11  1  0  0  0
 11 12  2  0  0  0
 12 13  1  0  0  0
 13 14  1  0  0  0
 14 15  1  0  0  0
 15 16  1  0  0  0
 16 17  1  0  0  0
 11  2  1  0  0  0
 17 13  1  0  0  0
  9  5  1  0  0  0
 28 23  1  0  0  0
 17 10  1  0  0  0
 21 19  1  0  0  0
M  END
> <minimizedAffinity>
-9.50300

$$$$



 28 33  0  0  0  0  0  0  0  0999 V2000
   -0.9655   62.3386   84.5925 C   0  0  0  0  0  0  0  0  0  0  0  0
   -0.4591   63.3036   83.6381 N   0  0  0  0  0  0  0  0  0  0  0  0
    0.2821   64.4033   84.0909 C   0  0  0  0  0  0  0  0  0  0  0  0
    0.5526   64.5986   85.2730 O   0  0  0  0  0  0  0  0  0  0  0  0
    0.7009   65.2903   83.0377 C   0  0  0  0  0  0  0  0  0  0  0  0
    0.4241   65.0649   81.7183 C   0  0  0  0  0  0  0  0  0  0  0  0
    0.9091   66.0320   80.9087 N   0  0  0  0  0  0  0  0  0  0  0  0
    1.5176   66.8832   81.7212 C   0  0  0  0  0  0  0  0  0  0  0  0
    1.4097   66.4668   83.0433 N   0  0  0  0  0  0  0  0  0  0  0  0
   -0.2546   63.9833   81.3451 N   0  0  0  0  0  0  0  0  0  0  0  0
   -0.7280   63.1186   82.2886 C   0  0  0  0  0  0  0  0  0  0  0  0
   -1.4432   62.1143   81.8451 N   0  0  0  0  0  0  0  0  0  0  0  0
   -1.4917   62.3335   80.3608 C   0  0  0  0  0  0  0  0  0  0  0  0
   -0.7968   61.1878   79.6300 C   0  0  0  0  0  0  0  0  0  0  0  0
   -0.0502   61.8721   78.4954 C   0  0  0  0  0  0  0  0  0  0  0  0
    0.4712   63.1500   79.1355 C   0  0  0  0  0  0  0  0  0  0  0  0
   -0.6733   63.6129   80.0316 C   0  0  0  0  0  0  0  0  0  0  0  0
    2.2418   68.1280   81.2958 C   0  0  0  0  0  0  0  0  0  0  0  0
    1.4189   69.3873   81.3359 C   0  0  0  0  0  0  0  0  0  0  0  0
    1.6780   70.4332   82.3908 C   0  0  0  0  0  0  0  0  0  0  0  0
    2.0264   70.7134   80.9549 C   0  0  0  0  0  0  0  0  0  0  0  0
    1.8903   67.1846   84.2170 C   0  0  0  0  0  0  0  0  0  0  0  0
    3.3589   66.9529   84.4726 C   0  0  0  0  0  0  0  0  0  0  0  0
    4.3033   67.9552   84.2049 C   0  0  0  0  0  0  0  0  0  0  0  0
    5.6612   67.7340   84.4405 C   0  0  0  0  0  0  0  0  0  0  0  0
    6.0930   66.5072   84.9388 C   0  0  0  0  0  0  0  0  0  0  0  0
    5.1684   65.4980   85.1971 C   0  0  0  0  0  0  0  0  0  0  0  0
    3.8098   65.7169   84.9617 C   0  0  0  0  0  0  0  0  0  0  0  0
  1  2  1  0  0  0
  2  3  1  0  0  0
  3  4  2  0  0  0
  3  5  1  0  0  0
  5  6  2  0  0  0
  6  7  1  0  0  0
  7  8  2  0  0  0
  8 18  1  0  0  0
 18 19  1  0  0  0
 19 20  1  0  0  0
 20 21  1  0  0  0
  8  9  1  0  0  0
  9 22  1  0  0  0
 22 23  1  0  0  0
 23 24  2  0  0  0
 24 25  1  0  0  0
 25 26  2  0  0  0
 26 27  1  0  0  0
 27 28  2  0  0  0
  6 10  1  0  0  0
 10 11  1  0  0  0
 11 12  2  0  0  0
 12 13  1  0  0  0
 13 14  1  0  0  0
 14 15  1  0  0  0
 15 16  1  0  0  0
 16 17  1  0  0  0
 11  2  1  0  0  0
 17 13  1  0  0  0
  9  5  1  0  0  0
 28 23  1  0  0  0
 17 10  1  0  0  0
 21 19  1  0  0  0
M  END
> <minimizedAffinity>
-9.32591

$$$$



 28 33  0  0  0  0  0  0  0  0999 V2000
    2.9531   69.4571   81.0989 C   0  0  0  0  0  0  0  0  0  0  0  0
    2.5024   68.2834   81.8185 N   0  0  0  0  0  0  0  0  0  0  0  0
    1.4750   67.4945   81.2838 C   0  0  0  0  0  0  0  0  0  0  0  0
    0.9291   67.7290   80.2087 O   0  0  0  0  0  0  0  0  0  0  0  0
    1.1140   66.3761   82.1146 C   0  0  0  0  0  0  0  0  0  0  0  0
    1.7348   66.0961   83.2998 C   0  0  0  0  0  0  0  0  0  0  0  0
    1.2267   65.0037   83.9118 N   0  0  0  0  0  0  0  0  0  0  0  0
    0.2747   64.5696   83.0994 C   0  0  0  0  0  0  0  0  0  0  0  0
    0.1683   65.3890   81.9812 N   0  0  0  0  0  0  0  0  0  0  0  0
    2.7293   66.8624   83.7396 N   0  0  0  0  0  0  0  0  0  0  0  0
    3.0982   67.9696   83.0326 C   0  0  0  0  0  0  0  0  0  0  0  0
    4.0399   68.7084   83.5657 N   0  0  0  0  0  0  0  0  0  0  0  0
    4.3548   68.0140   84.8588 C   0  0  0  0  0  0  0  0  0  0  0  0
    5.7942   67.5062   84.8541 C   0  0  0  0  0  0  0  0  0  0  0  0
    5.7097   66.1497   85.5365 C   0  0  0  0  0  0  0  0  0  0  0  0
    4.4112   65.5650   85.0010 C   0  0  0  0  0  0  0  0  0  0  0  0
    3.4539   66.7522   84.9646 C   0  0  0  0  0  0  0  0  0  0  0  0
   -0.5783   63.3548   83.3269 C   0  0  0  0  0  0  0  0  0  0  0  0
    0.1547   62.0422   83.2618 C   0  0  0  0  0  0  0  0  0  0  0  0
   -0.2182   61.0122   82.2254 C   0  0  0  0  0  0  0  0  0  0  0  0
    1.0923   61.7426   82.1198 C   0  0  0  0  0  0  0  0  0  0  0  0
   -0.8135   65.2669   80.9112 C   0  0  0  0  0  0  0  0  0  0  0  0
   -0.4318   64.2184   79.8960 C   0  0  0  0  0  0  0  0  0  0  0  0
    0.7595   64.3260   79.1628 C   0  0  0  0  0  0  0  0  0  0  0  0
    1.1059   63.3543   78.2224 C   0  0  0  0  0  0  0  0  0  0  0  0
    0.2638   62.2680   77.9976 C   0  0  0  0  0  0  0  0  0  0  0  0
   -0.9286   62.1546   78.7086 C   0  0  0  0  0  0  0  0  0  0  0  0
   -1.2774   63.1255   79.6492 C   0  0  0  0  0  0  0  0  0  0  0  0
  1  2  1  0  0  0
  2  3  1  0  0  0
  3  4  2  0  0  0
  3  5  1  0  0  0
  5  6  2  0  0  0
  6  7  1  0  0  0
  7  8  2  0  0  0
  8 18  1  0  0  0
 18 19  1  0  0  0
 19 20  1  0  0  0
 20 21  1  0  0  0
  8  9  1  0  0  0
  9 22  1  0  0  0
 22 23  1  0  0  0
 23 24  2  0  0  0
 24 25  1  0  0  0
 25 26  2  0  0  0
 26 27  1  0  0  0
 27 28  2  0  0  0
  6 10  1  0  0  0
 10 11  1  0  0  0
 11 12  2  0  0  0
 12 13  1  0  0  0
 13 14  1  0  0  0
 14 15  1  0  0  0
 15 16  1  0  0  0
 16 17  1  0  0  0
 11  2  1  0  0  0
 17 13  1  0  0  0
  9  5  1  0  0  0
 28 23  1  0  0  0
 17 10  1  0  0  0
 21 19  1  0  0  0
M  END
> <minimizedAffinity>
-9.31629

$$$$



 28 33  0  0  0  0  0  0  0  0999 V2000
   -0.4391   63.9650   79.4307 C   0  0  0  0  0  0  0  0  0  0  0  0
    0.1218   64.4762   80.6648 N   0  0  0  0  0  0  0  0  0  0  0  0
    0.7667   65.7204   80.6702 C   0  0  0  0  0  0  0  0  0  0  0  0
    0.8754   66.4324   79.6752 O   0  0  0  0  0  0  0  0  0  0  0  0
    1.2947   66.0913   81.9566 C   0  0  0  0  0  0  0  0  0  0  0  0
    1.1551   65.3144   83.0726 C   0  0  0  0  0  0  0  0  0  0  0  0
    1.7357   65.8579   84.1651 N   0  0  0  0  0  0  0  0  0  0  0  0
    2.2434   67.0071   83.7452 C   0  0  0  0  0  0  0  0  0  0  0  0
    1.9984   67.1888   82.3887 N   0  0  0  0  0  0  0  0  0  0  0  0
    0.5010   64.1575   83.0134 N   0  0  0  0  0  0  0  0  0  0  0  0
    0.0124   63.7130   81.8194 C   0  0  0  0  0  0  0  0  0  0  0  0
   -0.5602   62.5346   81.8320 N   0  0  0  0  0  0  0  0  0  0  0  0
   -0.4243   62.0825   83.2570 C   0  0  0  0  0  0  0  0  0  0  0  0
   -1.7996   61.9280   83.9005 C   0  0  0  0  0  0  0  0  0  0  0  0
   -1.6087   62.4596   85.3126 C   0  0  0  0  0  0  0  0  0  0  0  0
   -0.6932   63.6591   85.1178 C   0  0  0  0  0  0  0  0  0  0  0  0
    0.3006   63.2019   84.0548 C   0  0  0  0  0  0  0  0  0  0  0  0
    2.9769   68.0001   84.6001 C   0  0  0  0  0  0  0  0  0  0  0  0
    4.4707   67.8229   84.6408 C   0  0  0  0  0  0  0  0  0  0  0  0
    5.1988   67.7952   85.9611 C   0  0  0  0  0  0  0  0  0  0  0  0
    5.0777   66.5381   85.1445 C   0  0  0  0  0  0  0  0  0  0  0  0
    2.4683   68.2969   81.5669 C   0  0  0  0  0  0  0  0  0  0  0  0
    1.5947   69.5201   81.6952 C   0  0  0  0  0  0  0  0  0  0  0  0
    0.2865   69.5270   81.1887 C   0  0  0  0  0  0  0  0  0  0  0  0
   -0.5161   70.6629   81.3075 C   0  0  0  0  0  0  0  0  0  0  0  0
   -0.0196   71.8075   81.9266 C   0  0  0  0  0  0  0  0  0  0  0  0
    1.2819   71.8199   82.4227 C   0  0  0  0  0  0  0  0  0  0  0  0
    2.0865   70.6851   82.3045 C   0  0  0  0  0  0  0  0  0  0  0  0
  1  2  1  0  0  0
  2  3  1  0  0  0
  3  4  2  0  0  0
  3  5  1  0  0  0
  5  6  2  0  0  0
  6  7  1  0  0  0
  7  8  2  0  0  0
  8 18  1  0  0  0
 18 19  1  0  0  0
 19 20  1  0  0  0
 20 21  1  0  0  0
  8  9  1  0  0  0
  9 22  1  0  0  0
 22 23  1  0  0  0
 23 24  2  0  0  0
 24 25  1  0  0  0
 25 26  2  0  0  0
 26 27  1  0  0  0
 27 28  2  0  0  0
  6 10  1  0  0  0
 10 11  1  0  0  0
 11 12  2  0  0  0
 12 13  1  0  0  0
 13 14  1  0  0  0
 14 15  1  0  0  0
 15 16  1  0  0  0
 16 17  1  0  0  0
 11  2  1  0  0  0
 17 13  1  0  0  0
  9  5  1  0  0  0
 28 23  1  0  0  0
 17 10  1  0  0  0
 21 19  1  0  0  0
M  END
> <minimizedAffinity>
-9.27348

$$$$
