
     RDKit          3D

 73 78  0  0  0  0  0  0  0  0999 V2000
   -6.8826    0.8917    4.0382 C   0  0  0  0  0  0  0  0  0  0  0  0
   -5.7396    0.2875    3.2414 C   0  0  0  0  0  0  0  0  0  0  0  0
   -4.6888    1.2577    3.1800 O   0  0  0  0  0  0  0  0  0  0  0  0
   -3.9108    1.1556    2.0585 C   0  0  0  0  0  0  0  0  0  0  0  0
   -3.6673    2.3491    1.3810 C   0  0  0  0  0  0  0  0  0  0  0  0
   -2.8920    2.3792    0.2080 C   0  0  0  0  0  0  0  0  0  0  0  0
   -2.6874    3.5914   -0.4587 C   0  0  0  0  0  0  0  0  0  0  0  0
   -1.9354    3.6704   -1.6405 C   0  0  0  0  0  0  0  0  0  0  0  0
   -1.7687    5.0229   -2.2896 C   0  0  0  0  0  0  0  0  0  0  0  0
   -0.5109    5.5578   -1.9077 O   0  0  0  0  0  0  0  0  0  0  0  0
   -1.3348    2.5004   -2.1608 C   0  0  0  0  0  0  0  0  0  0  0  0
   -0.5144    2.5940   -3.4328 C   0  0  0  0  0  0  0  0  0  0  0  0
   -1.3817    2.6608   -4.5601 O   0  0  0  0  0  0  0  0  0  0  0  0
   -1.5395    1.2527   -1.5031 C   0  0  0  0  0  0  0  0  0  0  0  0
   -0.9390    0.0177   -2.0463 C   0  0  0  0  0  0  0  0  0  0  0  0
   -1.6403   -0.7892   -2.9393 C   0  0  0  0  0  0  0  0  0  0  0  0
   -1.0268   -1.9372   -3.3968 C   0  0  0  0  0  0  0  0  0  0  0  0
    0.2122   -2.3235   -3.0291 N   0  0  0  0  0  0  0  0  0  0  0  0
    0.9132   -1.5556   -2.1654 C   0  0  0  0  0  0  0  0  0  0  0  0
    2.2341   -1.9499   -1.7570 N   0  0  0  0  0  0  0  0  0  0  0  0
    2.8500   -1.0807   -0.8784 N   0  0  0  0  0  0  0  0  0  0  0  0
    4.0436   -1.3308   -0.4398 C   0  0  0  0  0  0  0  0  0  0  0  0
    4.6410   -0.3101    0.4468 C   0  0  0  0  0  0  0  0  0  0  0  0
    3.9989    0.0507    1.6302 C   0  0  0  0  0  0  0  0  0  0  0  0
    4.5712    1.0314    2.4358 C   0  0  0  0  0  0  0  0  0  0  0  0
    5.7586    1.6162    2.0195 C   0  0  0  0  0  0  0  0  0  0  0  0
    6.3936    1.2966    0.8686 N   0  0  0  0  0  0  0  0  0  0  0  0
    5.8093    0.3522    0.0947 C   0  0  0  0  0  0  0  0  0  0  0  0
    4.7858   -2.5568   -0.7875 C   0  0  0  0  0  0  0  0  0  0  0  0
    6.0223   -2.8984   -0.2182 C   0  0  0  0  0  0  0  0  0  0  0  0
    6.6715   -4.0747   -0.6014 C   0  0  0  0  0  0  0  0  0  0  0  0
    6.0872   -4.9199   -1.5404 C   0  0  0  0  0  0  0  0  0  0  0  0
    4.8459   -4.5951   -2.0862 C   0  0  0  0  0  0  0  0  0  0  0  0
    4.1885   -3.4148   -1.7028 C   0  0  0  0  0  0  0  0  0  0  0  0
    2.8487   -3.1064   -2.2502 C   0  0  0  0  0  0  0  0  0  0  0  0
    2.4016   -3.9015   -3.0742 O   0  0  0  0  0  0  0  0  0  0  0  0
    0.3503   -0.3794   -1.6599 C   0  0  0  0  0  0  0  0  0  0  0  0
   -2.3240    1.1911   -0.3056 C   0  0  0  0  0  0  0  0  0  0  0  0
   -2.5638   -0.0030    0.4186 C   0  0  0  0  0  0  0  0  0  0  0  0
   -3.3195   -0.0151    1.5947 C   0  0  0  0  0  0  0  0  0  0  0  0
   -3.4670   -1.2162    2.2368 O   0  0  0  0  0  0  0  0  0  0  0  0
   -2.4967   -1.3300    3.2863 C   0  0  0  0  0  0  0  0  0  0  0  0
   -2.6768   -2.6858    3.9436 C   0  0  0  0  0  0  0  0  0  0  0  0
   -7.2486    1.8037    3.5549 H   0  0  0  0  0  0  0  0  0  0  0  0
   -6.5465    1.1749    5.0412 H   0  0  0  0  0  0  0  0  0  0  0  0
   -7.7109    0.1836    4.1300 H   0  0  0  0  0  0  0  0  0  0  0  0
   -5.3822   -0.6076    3.7598 H   0  0  0  0  0  0  0  0  0  0  0  0
   -6.1043    0.0168    2.2425 H   0  0  0  0  0  0  0  0  0  0  0  0
   -4.1068    3.2647    1.7717 H   0  0  0  0  0  0  0  0  0  0  0  0
   -3.1203    4.5044   -0.0501 H   0  0  0  0  0  0  0  0  0  0  0  0
   -1.8288    4.9583   -3.3800 H   0  0  0  0  0  0  0  0  0  0  0  0
   -2.5542    5.7145   -1.9656 H   0  0  0  0  0  0  0  0  0  0  0  0
   -0.3971    6.3822   -2.4090 H   0  0  0  0  0  0  0  0  0  0  0  0
    0.1605    1.7465   -3.5728 H   0  0  0  0  0  0  0  0  0  0  0  0
    0.1277    3.4801   -3.4284 H   0  0  0  0  0  0  0  0  0  0  0  0
   -2.1119    2.0427   -4.3889 H   0  0  0  0  0  0  0  0  0  0  0  0
   -2.6444   -0.5391   -3.2636 H   0  0  0  0  0  0  0  0  0  0  0  0
   -1.5276   -2.6051   -4.0919 H   0  0  0  0  0  0  0  0  0  0  0  0
    3.0631   -0.4199    1.9194 H   0  0  0  0  0  0  0  0  0  0  0  0
    4.0998    1.3383    3.3632 H   0  0  0  0  0  0  0  0  0  0  0  0
    6.2415    2.3861    2.6157 H   0  0  0  0  0  0  0  0  0  0  0  0
    6.3237    0.1468   -0.8399 H   0  0  0  0  0  0  0  0  0  0  0  0
    6.5009   -2.2771    0.5340 H   0  0  0  0  0  0  0  0  0  0  0  0
    7.6326   -4.3343   -0.1622 H   0  0  0  0  0  0  0  0  0  0  0  0
    6.5889   -5.8372   -1.8400 H   0  0  0  0  0  0  0  0  0  0  0  0
    4.3850   -5.2699   -2.8063 H   0  0  0  0  0  0  0  0  0  0  0  0
    0.9021    0.2429   -0.9613 H   0  0  0  0  0  0  0  0  0  0  0  0
   -2.1467   -0.9495    0.0811 H   0  0  0  0  0  0  0  0  0  0  0  0
   -2.6429   -0.5422    4.0349 H   0  0  0  0  0  0  0  0  0  0  0  0
   -1.4815   -1.2568    2.8772 H   0  0  0  0  0  0  0  0  0  0  0  0
   -2.5456   -3.4895    3.2115 H   0  0  0  0  0  0  0  0  0  0  0  0
   -3.6889   -2.7859    4.3494 H   0  0  0  0  0  0  0  0  0  0  0  0
   -1.9560   -2.8251    4.7541 H   0  0  0  0  0  0  0  0  0  0  0  0
  1  2  1  0
  2  3  1  0
  3  4  1  0
  4  5  1  0
  5  6  2  0
  6  7  1  0
  7  8  2  0
  8  9  1  0
  9 10  1  0
  8 11  1  0
 11 12  1  0
 12 13  1  0
 11 14  2  0
 14 15  1  0
 15 16  2  0
 16 17  1  0
 17 18  2  0
 18 19  1  0
 19 20  1  0
 20 21  1  0
 21 22  2  0
 22 23  1  0
 23 24  1  0
 24 25  2  0
 25 26  1  0
 26 27  2  0
 27 28  1  0
 22 29  1  0
 29 30  2  0
 30 31  1  0
 31 32  2  0
 32 33  1  0
 33 34  2  0
 34 35  1  0
 35 36  2  0
 19 37  2  0
 14 38  1  0
 38 39  2  0
 39 40  1  0
 40 41  1  0
 41 42  1  0
 42 43  1  0
 40  4  2  0
 38  6  1  0
 37 15  1  0
 35 20  1  0
 28 23  2  0
 34 29  1  0
  1 44  1  0
  1 45  1  0
  1 46  1  0
  2 47  1  0
  2 48  1  0
  5 49  1  0
  7 50  1  0
  9 51  1  0
  9 52  1  0
 10 53  1  0
 12 54  1  0
 12 55  1  0
 13 56  1  0
 16 57  1  0
 17 58  1  0
 24 59  1  0
 25 60  1  0
 26 61  1  0
 28 62  1  0
 30 63  1  0
 31 64  1  0
 32 65  1  0
 33 66  1  0
 37 67  1  0
 39 68  1  0
 42 69  1  0
 42 70  1  0
 43 71  1  0
 43 72  1  0
 43 73  1  0
M  END
$$$$
