
     RDKit          3D

 77 80  0  0  0  0  0  0  0  0999 V2000
   -4.0746   -4.2128   -3.1475 C   0  0  0  0  0  0  0  0  0  0  0  0
   -3.7018   -3.5633   -4.4730 C   0  0  0  0  0  0  0  0  0  0  0  0
   -2.3442   -2.8654   -4.4175 C   0  0  0  0  0  0  0  0  0  0  0  0
   -2.4237   -1.7872   -3.4822 O   0  0  0  0  0  0  0  0  0  0  0  0
   -1.2860   -1.0698   -3.2144 C   0  0  0  0  0  0  0  0  0  0  0  0
   -0.0781   -1.2525   -3.9057 C   0  0  0  0  0  0  0  0  0  0  0  0
    1.0566   -0.5039   -3.5784 C   0  0  0  0  0  0  0  0  0  0  0  0
    0.9875    0.4426   -2.5586 C   0  0  0  0  0  0  0  0  0  0  0  0
    2.4194    1.4101   -2.1332 S   0  0  0  0  0  0  0  0  0  0  0  0
    3.4409    1.1305   -3.1203 O   0  0  0  0  0  0  0  0  0  0  0  0
    1.9700    2.7609   -1.8797 O   0  0  0  0  0  0  0  0  0  0  0  0
    2.9370    0.7289   -0.6617 N   0  0  0  0  0  0  0  0  0  0  0  0
    3.5415   -0.6223   -0.7332 C   0  0  0  0  0  0  0  0  0  0  0  0
    3.8048   -1.1718    0.6713 C   0  0  0  0  0  0  0  0  0  0  0  0
    4.1789   -0.0640    1.6791 C   0  0  0  0  0  0  0  0  0  0  0  0
    5.5525    0.5995    1.3388 C   0  0  1  0  0  0  0  0  0  0  0  0
    6.0440    1.5768    2.4319 C   0  0  0  0  0  0  0  0  0  0  0  0
    6.0090    0.9207    3.7000 O   0  0  0  0  0  0  0  0  0  0  0  0
    6.4059    1.7644    4.7647 N   0  0  0  0  0  0  0  0  0  0  0  0
    6.7274    2.9179    4.4794 O   0  0  0  0  0  0  0  0  0  0  0  0
    6.3617    1.2017    5.8562 O   0  0  0  0  0  0  0  0  0  0  0  0
    6.5018   -0.4749    1.2209 O   0  0  0  0  0  0  0  0  0  0  0  0
    7.5963   -0.1948    0.3666 N   0  0  0  0  0  0  0  0  0  0  0  0
    7.6847    0.9471   -0.0818 O   0  0  0  0  0  0  0  0  0  0  0  0
    8.3323   -1.1658    0.2092 O   0  0  0  0  0  0  0  0  0  0  0  0
    3.0224    0.9584    1.7672 C   0  0  0  0  0  0  0  0  0  0  0  0
    2.1088    0.9580    0.5373 C   0  0  0  0  0  0  0  0  0  0  0  0
   -0.2147    0.6682   -1.8894 C   0  0  0  0  0  0  0  0  0  0  0  0
   -1.3542   -0.0982   -2.1911 C   0  0  0  0  0  0  0  0  0  0  0  0
   -2.5724    0.1612   -1.3482 C   0  0  0  0  0  0  0  0  0  0  0  0
   -2.4449    0.8434   -0.2433 N   0  0  0  0  0  0  0  0  0  0  0  0
   -3.6318    1.0182    0.4682 C   0  0  0  0  0  0  0  0  0  0  0  0
   -3.7944    1.7089    1.6860 C   0  0  0  0  0  0  0  0  0  0  0  0
   -2.7453    2.4209    2.4742 C   0  0  0  0  0  0  0  0  0  0  0  0
   -1.7584    1.4871    3.1795 C   0  0  0  0  0  0  0  0  0  0  0  0
   -2.3998    0.6682    4.2911 C   0  0  0  0  0  0  0  0  0  0  0  0
   -5.1444    1.5985    1.9907 C   0  0  0  0  0  0  0  0  0  0  0  0
   -5.7628    0.8697    0.9996 N   0  0  0  0  0  0  0  0  0  0  0  0
   -7.1694    0.5403    0.9590 C   0  0  0  0  0  0  0  0  0  0  0  0
   -4.8349    0.5121    0.0604 C   0  0  0  0  0  0  0  0  0  0  0  0
   -4.9730   -0.2384   -1.1429 C   0  0  0  0  0  0  0  0  0  0  0  0
   -6.0089   -0.7435   -1.5619 O   0  0  0  0  0  0  0  0  0  0  0  0
   -3.7757   -0.3531   -1.8081 N   0  0  0  0  0  0  0  0  0  0  0  0
   -5.0385   -4.7238   -3.2363 H   0  0  0  0  0  0  0  0  0  0  0  0
   -4.1607   -3.4703   -2.3483 H   0  0  0  0  0  0  0  0  0  0  0  0
   -3.3245   -4.9525   -2.8499 H   0  0  0  0  0  0  0  0  0  0  0  0
   -3.6847   -4.3282   -5.2571 H   0  0  0  0  0  0  0  0  0  0  0  0
   -4.4787   -2.8347   -4.7327 H   0  0  0  0  0  0  0  0  0  0  0  0
   -1.5748   -3.5840   -4.1108 H   0  0  0  0  0  0  0  0  0  0  0  0
   -2.1126   -2.4720   -5.4141 H   0  0  0  0  0  0  0  0  0  0  0  0
    0.0176   -1.9736   -4.7124 H   0  0  0  0  0  0  0  0  0  0  0  0
    1.9823   -0.6635   -4.1290 H   0  0  0  0  0  0  0  0  0  0  0  0
    2.8941   -1.3183   -1.2751 H   0  0  0  0  0  0  0  0  0  0  0  0
    4.4930   -0.5486   -1.2715 H   0  0  0  0  0  0  0  0  0  0  0  0
    4.5708   -1.9540    0.6258 H   0  0  0  0  0  0  0  0  0  0  0  0
    2.8964   -1.6738    1.0319 H   0  0  0  0  0  0  0  0  0  0  0  0
    4.2773   -0.5569    2.6555 H   0  0  0  0  0  0  0  0  0  0  0  0
    5.4476    1.1406    0.3906 H   0  0  0  0  0  0  0  0  0  0  0  0
    5.4060    2.4668    2.4476 H   0  0  0  0  0  0  0  0  0  0  0  0
    7.0752    1.8829    2.2226 H   0  0  0  0  0  0  0  0  0  0  0  0
    3.4023    1.9726    1.9212 H   0  0  0  0  0  0  0  0  0  0  0  0
    2.4075    0.7357    2.6484 H   0  0  0  0  0  0  0  0  0  0  0  0
    1.3507    0.1712    0.6252 H   0  0  0  0  0  0  0  0  0  0  0  0
    1.5852    1.9177    0.4949 H   0  0  0  0  0  0  0  0  0  0  0  0
   -0.2664    1.4439   -1.1269 H   0  0  0  0  0  0  0  0  0  0  0  0
   -2.1846    3.0754    1.7945 H   0  0  0  0  0  0  0  0  0  0  0  0
   -3.2183    3.0805    3.2126 H   0  0  0  0  0  0  0  0  0  0  0  0
   -0.9562    2.0945    3.6156 H   0  0  0  0  0  0  0  0  0  0  0  0
   -1.2856    0.8096    2.4589 H   0  0  0  0  0  0  0  0  0  0  0  0
   -2.8819    1.3173    5.0289 H   0  0  0  0  0  0  0  0  0  0  0  0
   -3.1496   -0.0245    3.8971 H   0  0  0  0  0  0  0  0  0  0  0  0
   -1.6381    0.0757    4.8081 H   0  0  0  0  0  0  0  0  0  0  0  0
   -5.7074    1.9822    2.8321 H   0  0  0  0  0  0  0  0  0  0  0  0
   -7.2707   -0.5478    0.9672 H   0  0  0  0  0  0  0  0  0  0  0  0
   -7.5991    0.9657    0.0487 H   0  0  0  0  0  0  0  0  0  0  0  0
   -7.6682    0.9636    1.8346 H   0  0  0  0  0  0  0  0  0  0  0  0
   -3.7958   -0.9017   -2.6572 H   0  0  0  0  0  0  0  0  0  0  0  0
  1  2  1  0
  2  3  1  0
  3  4  1  0
  4  5  1  0
  5  6  1  0
  6  7  2  0
  7  8  1  0
  8  9  1  0
  9 10  2  0
  9 11  2  0
  9 12  1  0
 12 13  1  0
 13 14  1  0
 14 15  1  0
 15 16  1  0
 16 17  1  0
 17 18  1  0
 18 19  1  0
 19 20  2  0
 19 21  1  0
 16 22  1  0
 22 23  1  0
 23 24  2  0
 23 25  1  0
 15 26  1  0
 26 27  1  0
  8 28  2  0
 28 29  1  0
 29 30  1  0
 30 31  2  0
 31 32  1  0
 32 33  1  0
 33 34  1  0
 34 35  1  0
 35 36  1  0
 33 37  2  0
 37 38  1  0
 38 39  1  0
 38 40  1  0
 40 41  1  0
 41 42  2  0
 41 43  1  0
 29  5  2  0
 43 30  1  0
 27 12  1  0
 40 32  2  0
  1 44  1  0
  1 45  1  0
  1 46  1  0
  2 47  1  0
  2 48  1  0
  3 49  1  0
  3 50  1  0
  6 51  1  0
  7 52  1  0
 13 53  1  0
 13 54  1  0
 14 55  1  0
 14 56  1  0
 15 57  1  0
 16 58  1  6
 17 59  1  0
 17 60  1  0
 26 61  1  0
 26 62  1  0
 27 63  1  0
 27 64  1  0
 28 65  1  0
 34 66  1  0
 34 67  1  0
 35 68  1  0
 35 69  1  0
 36 70  1  0
 36 71  1  0
 36 72  1  0
 37 73  1  0
 39 74  1  0
 39 75  1  0
 39 76  1  0
 43 77  1  0
M  CHG  4  19   1  21  -1  23   1  25  -1
M  END
$$$$
