


 29 31  0  0  0  0  0  0  0  0999 V2000
    3.4225   66.5972   84.4305 C   0  0  0  0  0  0  0  0  0  0  0  0
    4.1544   67.6708   83.9252 C   0  0  0  0  0  0  0  0  0  0  0  0
    3.5415   68.5934   83.0728 C   0  0  0  0  0  0  0  0  0  0  0  0
    2.1881   68.4657   82.7322 C   0  0  0  0  0  0  0  0  0  0  0  0
    1.4578   67.3921   83.2479 C   0  0  0  0  0  0  0  0  0  0  0  0
    2.0702   66.4641   84.1045 C   0  0  0  0  0  0  0  0  0  0  0  0
    1.2629   65.3412   84.6306 C   0  0  0  0  0  0  0  0  0  0  0  0
    0.5394   64.6024   83.8346 N   0  0  0  0  0  0  0  0  0  0  0  0
   -0.1375   63.6216   84.4820 C   0  0  0  0  0  0  0  0  0  0  0  0
   -0.1343   63.3442   85.8262 C   0  0  0  0  0  0  0  0  0  0  0  0
   -0.9906   62.2414   85.9970 C   0  0  0  0  0  0  0  0  0  0  0  0
   -1.3372   61.5443   87.2579 C   0  0  0  0  0  0  0  0  0  0  0  0
   -1.5111   61.8430   84.8235 N   0  0  0  0  0  0  0  0  0  0  0  0
   -0.9752   62.7006   83.9194 N   0  0  0  0  0  0  0  0  0  0  0  0
    0.6648   64.1580   86.6940 C   0  0  0  0  0  0  0  0  0  0  0  0
    0.7623   63.9978   87.9050 O   0  0  0  0  0  0  0  0  0  0  0  0
    1.3328   65.1588   86.0124 N   0  0  0  0  0  0  0  0  0  0  0  0
    1.9191   65.7490   86.5838 H   0  0  0  0  0  0  0  0  0  0  0  0
   -1.3167   62.5769   82.5178 C   0  0  0  0  0  0  0  0  0  0  0  0
   -2.4741   63.4786   82.1288 C   0  0  0  0  0  0  0  0  0  0  0  0
    1.6452   69.4448   81.8744 N   0  0  0  0  0  0  0  0  0  0  0  0
    1.4211   70.7792   82.1629 C   0  0  0  0  0  0  0  0  0  0  0  0
    0.8040   71.5247   81.0059 C   0  0  0  0  0  0  0  0  0  0  0  0
    1.7032   71.3585   83.2058 O   0  0  0  0  0  0  0  0  0  0  0  0
    1.4376   69.1444   80.9297 H   0  0  0  0  0  0  0  0  0  0  0  0
    4.0159   65.7578   85.3337 O   0  0  0  0  0  0  0  0  0  0  0  0
    5.1329   66.3963   85.9670 C   0  0  0  0  0  0  0  0  0  0  0  0
    5.5366   65.5030   88.2894 C   0  0  0  0  0  0  0  0  0  0  0  0
    5.8497   65.3485   86.8121 C   0  0  0  0  0  0  0  0  0  0  0  0
 28 29  1  0  0  0
 29 27  1  0  0  0
 27 26  1  0  0  0
 26  1  1  0  0  0
  1  2  1  0  0  0
  2  3  2  0  0  0
  3  4  1  0  0  0
  4 21  1  0  0  0
 21 22  1  0  0  0
 22 23  1  0  0  0
 22 24  2  0  0  0
  4  5  2  0  0  0
  5  6  1  0  0  0
  6  7  1  0  0  0
  7  8  2  0  0  0
  8  9  1  0  0  0
  9 10  2  0  0  0
 10 11  1  0  0  0
 11 12  1  0  0  0
 11 13  2  0  0  0
 13 14  1  0  0  0
 14 19  1  0  0  0
 19 20  1  0  0  0
 10 15  1  0  0  0
 15 16  2  0  0  0
 15 17  1  0  0  0
  6  1  2  0  0  0
 17  7  1  0  0  0
 14  9  1  0  0  0
 21 25  1  0  0  0
 17 18  1  0  0  0
M  END
> <minimizedAffinity>
-9.53681

$$$$



 29 31  0  0  0  0  0  0  0  0999 V2000
    1.1912   66.3788   82.1909 C   0  0  0  0  0  0  0  0  0  0  0  0
    2.0783   67.4490   82.2971 C   0  0  0  0  0  0  0  0  0  0  0  0
    2.9225   67.5479   83.4066 C   0  0  0  0  0  0  0  0  0  0  0  0
    2.9045   66.5703   84.4106 C   0  0  0  0  0  0  0  0  0  0  0  0
    2.0189   65.4960   84.2947 C   0  0  0  0  0  0  0  0  0  0  0  0
    1.1701   65.3935   83.1817 C   0  0  0  0  0  0  0  0  0  0  0  0
    0.2468   64.2405   83.0949 C   0  0  0  0  0  0  0  0  0  0  0  0
   -0.5392   63.9322   84.0900 N   0  0  0  0  0  0  0  0  0  0  0  0
   -1.3159   62.8482   83.8431 C   0  0  0  0  0  0  0  0  0  0  0  0
   -1.3539   62.0831   82.7042 C   0  0  0  0  0  0  0  0  0  0  0  0
   -2.3142   61.0828   82.9406 C   0  0  0  0  0  0  0  0  0  0  0  0
   -2.7410   59.9963   82.0277 C   0  0  0  0  0  0  0  0  0  0  0  0
   -2.8538   61.2058   84.1655 N   0  0  0  0  0  0  0  0  0  0  0  0
   -2.2276   62.2877   84.6923 N   0  0  0  0  0  0  0  0  0  0  0  0
   -0.4900   62.4293   81.6144 C   0  0  0  0  0  0  0  0  0  0  0  0
   -0.4464   61.8346   80.5439 O   0  0  0  0  0  0  0  0  0  0  0  0
    0.3012   63.5278   81.8963 N   0  0  0  0  0  0  0  0  0  0  0  0
    0.9170   63.8155   81.1502 H   0  0  0  0  0  0  0  0  0  0  0  0
   -2.5568   62.7305   86.0309 C   0  0  0  0  0  0  0  0  0  0  0  0
   -1.6434   62.1182   87.0772 C   0  0  0  0  0  0  0  0  0  0  0  0
    3.7949   66.7409   85.4910 N   0  0  0  0  0  0  0  0  0  0  0  0
    4.9278   65.9965   85.7677 C   0  0  0  0  0  0  0  0  0  0  0  0
    5.6258   66.4522   87.0248 C   0  0  0  0  0  0  0  0  0  0  0  0
    5.3857   65.0836   85.0897 O   0  0  0  0  0  0  0  0  0  0  0  0
    3.6051   67.5227   86.1061 H   0  0  0  0  0  0  0  0  0  0  0  0
    0.4388   66.2525   81.0549 O   0  0  0  0  0  0  0  0  0  0  0  0
    1.0486   66.9474   79.9586 C   0  0  0  0  0  0  0  0  0  0  0  0
    0.7659   64.8552   78.5812 C   0  0  0  0  0  0  0  0  0  0  0  0
    1.7373   65.9113   79.0766 C   0  0  0  0  0  0  0  0  0  0  0  0
 28 29  1  0  0  0
 29 27  1  0  0  0
 27 26  1  0  0  0
 26  1  1  0  0  0
  1  2  1  0  0  0
  2  3  2  0  0  0
  3  4  1  0  0  0
  4 21  1  0  0  0
 21 22  1  0  0  0
 22 23  1  0  0  0
 22 24  2  0  0  0
  4  5  2  0  0  0
  5  6  1  0  0  0
  6  7  1  0  0  0
  7  8  2  0  0  0
  8  9  1  0  0  0
  9 10  2  0  0  0
 10 11  1  0  0  0
 11 12  1  0  0  0
 11 13  2  0  0  0
 13 14  1  0  0  0
 14 19  1  0  0  0
 19 20  1  0  0  0
 10 15  1  0  0  0
 15 16  2  0  0  0
 15 17  1  0  0  0
  6  1  2  0  0  0
 17  7  1  0  0  0
 14  9  1  0  0  0
 21 25  1  0  0  0
 17 18  1  0  0  0
M  END
> <minimizedAffinity>
-9.15411

$$$$



 29 31  0  0  0  0  0  0  0  0999 V2000
   -0.0457   63.0138   85.3596 C   0  0  0  0  0  0  0  0  0  0  0  0
    0.4928   63.8078   86.3711 C   0  0  0  0  0  0  0  0  0  0  0  0
    1.0402   65.0560   86.0615 C   0  0  0  0  0  0  0  0  0  0  0  0
    1.0378   65.5329   84.7437 C   0  0  0  0  0  0  0  0  0  0  0  0
    0.4897   64.7361   83.7355 C   0  0  0  0  0  0  0  0  0  0  0  0
   -0.0612   63.4824   84.0432 C   0  0  0  0  0  0  0  0  0  0  0  0
   -0.6328   62.6684   82.9477 C   0  0  0  0  0  0  0  0  0  0  0  0
   -0.0990   62.6739   81.7569 N   0  0  0  0  0  0  0  0  0  0  0  0
   -0.7494   61.8753   80.8746 C   0  0  0  0  0  0  0  0  0  0  0  0
   -1.8588   61.0998   81.1021 C   0  0  0  0  0  0  0  0  0  0  0  0
   -2.1469   60.4664   79.8796 C   0  0  0  0  0  0  0  0  0  0  0  0
   -3.2473   59.5196   79.5818 C   0  0  0  0  0  0  0  0  0  0  0  0
   -1.2684   60.8239   78.9273 N   0  0  0  0  0  0  0  0  0  0  0  0
   -0.4299   61.6819   79.5604 N   0  0  0  0  0  0  0  0  0  0  0  0
   -2.4380   61.0965   82.4130 C   0  0  0  0  0  0  0  0  0  0  0  0
   -3.4150   60.4338   82.7412 O   0  0  0  0  0  0  0  0  0  0  0  0
   -1.7660   61.9290   83.2892 N   0  0  0  0  0  0  0  0  0  0  0  0
   -2.1326   61.9475   84.2294 H   0  0  0  0  0  0  0  0  0  0  0  0
    0.6669   62.2863   78.8336 C   0  0  0  0  0  0  0  0  0  0  0  0
    0.2617   63.5860   78.1625 C   0  0  0  0  0  0  0  0  0  0  0  0
    1.6014   66.8062   84.5191 N   0  0  0  0  0  0  0  0  0  0  0  0
    2.9344   67.1047   84.2999 C   0  0  0  0  0  0  0  0  0  0  0  0
    3.1733   68.5832   84.1206 C   0  0  0  0  0  0  0  0  0  0  0  0
    3.8578   66.3032   84.2128 O   0  0  0  0  0  0  0  0  0  0  0  0
    0.9499   67.5800   84.4710 H   0  0  0  0  0  0  0  0  0  0  0  0
   -0.6572   61.8368   85.6962 O   0  0  0  0  0  0  0  0  0  0  0  0
   -1.0418   61.8380   87.0777 C   0  0  0  0  0  0  0  0  0  0  0  0
   -3.0768   63.3245   87.0179 C   0  0  0  0  0  0  0  0  0  0  0  0
   -2.5645   61.9005   87.1364 C   0  0  0  0  0  0  0  0  0  0  0  0
 28 29  1  0  0  0
 29 27  1  0  0  0
 27 26  1  0  0  0
 26  1  1  0  0  0
  1  2  1  0  0  0
  2  3  2  0  0  0
  3  4  1  0  0  0
  4 21  1  0  0  0
 21 22  1  0  0  0
 22 23  1  0  0  0
 22 24  2  0  0  0
  4  5  2  0  0  0
  5  6  1  0  0  0
  6  7  1  0  0  0
  7  8  2  0  0  0
  8  9  1  0  0  0
  9 10  2  0  0  0
 10 11  1  0  0  0
 11 12  1  0  0  0
 11 13  2  0  0  0
 13 14  1  0  0  0
 14 19  1  0  0  0
 19 20  1  0  0  0
 10 15  1  0  0  0
 15 16  2  0  0  0
 15 17  1  0  0  0
  6  1  2  0  0  0
 17  7  1  0  0  0
 14  9  1  0  0  0
 21 25  1  0  0  0
 17 18  1  0  0  0
M  END
> <minimizedAffinity>
-9.13680

$$$$



 29 31  0  0  0  0  0  0  0  0999 V2000
    1.4163   66.4787   82.6751 C   0  0  0  0  0  0  0  0  0  0  0  0
    2.3857   67.4700   82.8202 C   0  0  0  0  0  0  0  0  0  0  0  0
    3.2850   67.4154   83.8887 C   0  0  0  0  0  0  0  0  0  0  0  0
    3.2392   66.3613   84.8110 C   0  0  0  0  0  0  0  0  0  0  0  0
    2.2706   65.3666   84.6560 C   0  0  0  0  0  0  0  0  0  0  0  0
    1.3663   65.4183   83.5838 C   0  0  0  0  0  0  0  0  0  0  0  0
    0.3555   64.3455   83.4534 C   0  0  0  0  0  0  0  0  0  0  0  0
   -0.3524   63.9603   84.4798 N   0  0  0  0  0  0  0  0  0  0  0  0
   -1.2278   62.9676   84.1845 C   0  0  0  0  0  0  0  0  0  0  0  0
   -1.4317   62.3600   82.9707 C   0  0  0  0  0  0  0  0  0  0  0  0
   -2.4368   61.3989   83.1818 C   0  0  0  0  0  0  0  0  0  0  0  0
   -3.0290   60.4682   82.1923 C   0  0  0  0  0  0  0  0  0  0  0  0
   -2.8460   61.3956   84.4622 N   0  0  0  0  0  0  0  0  0  0  0  0
   -2.0933   62.3594   85.0491 N   0  0  0  0  0  0  0  0  0  0  0  0
   -0.6527   62.7901   81.8474 C   0  0  0  0  0  0  0  0  0  0  0  0
   -0.7563   62.3373   80.7134 O   0  0  0  0  0  0  0  0  0  0  0  0
    0.2416   63.7919   82.1775 N   0  0  0  0  0  0  0  0  0  0  0  0
    0.8029   64.1349   81.4120 H   0  0  0  0  0  0  0  0  0  0  0  0
   -2.2588   62.6449   86.4590 C   0  0  0  0  0  0  0  0  0  0  0  0
   -1.2493   61.9028   87.3157 C   0  0  0  0  0  0  0  0  0  0  0  0
    4.1886   66.3771   85.8539 N   0  0  0  0  0  0  0  0  0  0  0  0
    5.2185   65.4770   86.0621 C   0  0  0  0  0  0  0  0  0  0  0  0
    6.0241   65.7963   87.2967 C   0  0  0  0  0  0  0  0  0  0  0  0
    5.5178   64.5303   85.3432 O   0  0  0  0  0  0  0  0  0  0  0  0
    4.1340   67.1593   86.4949 H   0  0  0  0  0  0  0  0  0  0  0  0
    0.6052   66.5017   81.5732 O   0  0  0  0  0  0  0  0  0  0  0  0
    1.0106   67.5322   80.6621 C   0  0  0  0  0  0  0  0  0  0  0  0
   -0.0280   69.7965   81.0476 C   0  0  0  0  0  0  0  0  0  0  0  0
   -0.1960   68.4298   80.4086 C   0  0  0  0  0  0  0  0  0  0  0  0
 28 29  1  0  0  0
 29 27  1  0  0  0
 27 26  1  0  0  0
 26  1  1  0  0  0
  1  2  1  0  0  0
  2  3  2  0  0  0
  3  4  1  0  0  0
  4 21  1  0  0  0
 21 22  1  0  0  0
 22 23  1  0  0  0
 22 24  2  0  0  0
  4  5  2  0  0  0
  5  6  1  0  0  0
  6  7  1  0  0  0
  7  8  2  0  0  0
  8  9  1  0  0  0
  9 10  2  0  0  0
 10 11  1  0  0  0
 11 12  1  0  0  0
 11 13  2  0  0  0
 13 14  1  0  0  0
 14 19  1  0  0  0
 19 20  1  0  0  0
 10 15  1  0  0  0
 15 16  2  0  0  0
 15 17  1  0  0  0
  6  1  2  0  0  0
 17  7  1  0  0  0
 14  9  1  0  0  0
 21 25  1  0  0  0
 17 18  1  0  0  0
M  END
> <minimizedAffinity>
-9.07029

$$$$



 29 31  0  0  0  0  0  0  0  0999 V2000
    0.3990   63.3383   82.7395 C   0  0  0  0  0  0  0  0  0  0  0  0
   -0.1158   62.1665   83.2921 C   0  0  0  0  0  0  0  0  0  0  0  0
   -0.4410   62.1199   84.6506 C   0  0  0  0  0  0  0  0  0  0  0  0
   -0.2748   63.2471   85.4665 C   0  0  0  0  0  0  0  0  0  0  0  0
    0.2341   64.4210   84.9054 C   0  0  0  0  0  0  0  0  0  0  0  0
    0.5612   64.4711   83.5414 C   0  0  0  0  0  0  0  0  0  0  0  0
    1.0969   65.7329   82.9843 C   0  0  0  0  0  0  0  0  0  0  0  0
    2.0163   66.4101   83.6162 N   0  0  0  0  0  0  0  0  0  0  0  0
    2.3904   67.5404   82.9669 C   0  0  0  0  0  0  0  0  0  0  0  0
    1.9197   68.0165   81.7686 C   0  0  0  0  0  0  0  0  0  0  0  0
    2.6167   69.2140   81.5262 C   0  0  0  0  0  0  0  0  0  0  0  0
    2.4851   70.1250   80.3648 C   0  0  0  0  0  0  0  0  0  0  0  0
    3.4810   69.4839   82.5196 N   0  0  0  0  0  0  0  0  0  0  0  0
    3.3218   68.4494   83.3824 N   0  0  0  0  0  0  0  0  0  0  0  0
    0.9122   67.2661   81.0790 C   0  0  0  0  0  0  0  0  0  0  0  0
    0.4282   67.5793   79.9976 O   0  0  0  0  0  0  0  0  0  0  0  0
    0.5378   66.1271   81.7680 N   0  0  0  0  0  0  0  0  0  0  0  0
   -0.1615   65.5603   81.3115 H   0  0  0  0  0  0  0  0  0  0  0  0
    4.1042   68.3989   84.5997 C   0  0  0  0  0  0  0  0  0  0  0  0
    5.4095   67.6476   84.4105 C   0  0  0  0  0  0  0  0  0  0  0  0
   -0.6360   63.1180   86.8238 N   0  0  0  0  0  0  0  0  0  0  0  0
    0.1613   63.3582   87.9287 C   0  0  0  0  0  0  0  0  0  0  0  0
   -0.5568   63.0920   89.2281 C   0  0  0  0  0  0  0  0  0  0  0  0
    1.3138   63.7758   87.9210 O   0  0  0  0  0  0  0  0  0  0  0  0
   -1.5987   62.8625   87.0067 H   0  0  0  0  0  0  0  0  0  0  0  0
    0.6253   63.3908   81.3909 O   0  0  0  0  0  0  0  0  0  0  0  0
    0.3697   62.1188   80.7802 C   0  0  0  0  0  0  0  0  0  0  0  0
    0.5109   63.7885   78.8970 C   0  0  0  0  0  0  0  0  0  0  0  0
    0.3065   62.3316   79.2714 C   0  0  0  0  0  0  0  0  0  0  0  0
 28 29  1  0  0  0
 29 27  1  0  0  0
 27 26  1  0  0  0
 26  1  1  0  0  0
  1  2  1  0  0  0
  2  3  2  0  0  0
  3  4  1  0  0  0
  4 21  1  0  0  0
 21 22  1  0  0  0
 22 23  1  0  0  0
 22 24  2  0  0  0
  4  5  2  0  0  0
  5  6  1  0  0  0
  6  7  1  0  0  0
  7  8  2  0  0  0
  8  9  1  0  0  0
  9 10  2  0  0  0
 10 11  1  0  0  0
 11 12  1  0  0  0
 11 13  2  0  0  0
 13 14  1  0  0  0
 14 19  1  0  0  0
 19 20  1  0  0  0
 10 15  1  0  0  0
 15 16  2  0  0  0
 15 17  1  0  0  0
  6  1  2  0  0  0
 17  7  1  0  0  0
 14  9  1  0  0  0
 21 25  1  0  0  0
 17 18  1  0  0  0
M  END
> <minimizedAffinity>
-8.76896

$$$$



 29 31  0  0  0  0  0  0  0  0999 V2000
    1.9961   67.4083   83.1905 C   0  0  0  0  0  0  0  0  0  0  0  0
    2.8872   68.4052   82.7957 C   0  0  0  0  0  0  0  0  0  0  0  0
    4.1739   68.4463   83.3398 C   0  0  0  0  0  0  0  0  0  0  0  0
    4.5911   67.4822   84.2675 C   0  0  0  0  0  0  0  0  0  0  0  0
    3.6963   66.4811   84.6534 C   0  0  0  0  0  0  0  0  0  0  0  0
    2.4036   66.4368   84.1086 C   0  0  0  0  0  0  0  0  0  0  0  0
    1.4855   65.3604   84.5421 C   0  0  0  0  0  0  0  0  0  0  0  0
    1.0467   64.4695   83.6955 N   0  0  0  0  0  0  0  0  0  0  0  0
    0.2143   63.5592   84.2591 C   0  0  0  0  0  0  0  0  0  0  0  0
   -0.1900   63.4875   85.5689 C   0  0  0  0  0  0  0  0  0  0  0  0
   -1.0467   62.3748   85.6501 C   0  0  0  0  0  0  0  0  0  0  0  0
   -1.7545   61.8558   86.8442 C   0  0  0  0  0  0  0  0  0  0  0  0
   -1.1803   61.7750   84.4547 N   0  0  0  0  0  0  0  0  0  0  0  0
   -0.4027   62.5169   83.6271 N   0  0  0  0  0  0  0  0  0  0  0  0
    0.2981   64.4676   86.4935 C   0  0  0  0  0  0  0  0  0  0  0  0
    0.0230   64.4970   87.6873 O   0  0  0  0  0  0  0  0  0  0  0  0
    1.1322   65.3919   85.8918 N   0  0  0  0  0  0  0  0  0  0  0  0
    1.5104   66.0945   86.5099 H   0  0  0  0  0  0  0  0  0  0  0  0
   -0.2991   62.1644   82.2266 C   0  0  0  0  0  0  0  0  0  0  0  0
    0.9354   61.3304   81.9361 C   0  0  0  0  0  0  0  0  0  0  0  0
    5.9082   67.5909   84.7602 N   0  0  0  0  0  0  0  0  0  0  0  0
    6.9369   66.6785   84.6076 C   0  0  0  0  0  0  0  0  0  0  0  0
    8.2067   67.1198   85.2918 C   0  0  0  0  0  0  0  0  0  0  0  0
    6.8967   65.6319   83.9706 O   0  0  0  0  0  0  0  0  0  0  0  0
    6.1345   68.4526   85.2416 H   0  0  0  0  0  0  0  0  0  0  0  0
    0.7741   67.3323   82.5794 O   0  0  0  0  0  0  0  0  0  0  0  0
    0.8945   67.5536   81.1677 C   0  0  0  0  0  0  0  0  0  0  0  0
    1.8249   66.2087   79.2492 C   0  0  0  0  0  0  0  0  0  0  0  0
    0.9448   66.1902   80.4860 C   0  0  0  0  0  0  0  0  0  0  0  0
 28 29  1  0  0  0
 29 27  1  0  0  0
 27 26  1  0  0  0
 26  1  1  0  0  0
  1  2  1  0  0  0
  2  3  2  0  0  0
  3  4  1  0  0  0
  4 21  1  0  0  0
 21 22  1  0  0  0
 22 23  1  0  0  0
 22 24  2  0  0  0
  4  5  2  0  0  0
  5  6  1  0  0  0
  6  7  1  0  0  0
  7  8  2  0  0  0
  8  9  1  0  0  0
  9 10  2  0  0  0
 10 11  1  0  0  0
 11 12  1  0  0  0
 11 13  2  0  0  0
 13 14  1  0  0  0
 14 19  1  0  0  0
 19 20  1  0  0  0
 10 15  1  0  0  0
 15 16  2  0  0  0
 15 17  1  0  0  0
  6  1  2  0  0  0
 17  7  1  0  0  0
 14  9  1  0  0  0
 21 25  1  0  0  0
 17 18  1  0  0  0
M  END
> <minimizedAffinity>
-8.70948

$$$$



 29 31  0  0  0  0  0  0  0  0999 V2000
    3.4547   66.6074   84.2877 C   0  0  0  0  0  0  0  0  0  0  0  0
    4.2870   67.7243   84.2301 C   0  0  0  0  0  0  0  0  0  0  0  0
    3.8481   68.8896   83.5955 C   0  0  0  0  0  0  0  0  0  0  0  0
    2.5677   68.9591   83.0300 C   0  0  0  0  0  0  0  0  0  0  0  0
    1.7351   67.8393   83.0976 C   0  0  0  0  0  0  0  0  0  0  0  0
    2.1728   66.6677   83.7345 C   0  0  0  0  0  0  0  0  0  0  0  0
    1.2614   65.5031   83.7861 C   0  0  0  0  0  0  0  0  0  0  0  0
    0.8842   64.9946   84.9272 N   0  0  0  0  0  0  0  0  0  0  0  0
    0.0526   63.9319   84.7913 C   0  0  0  0  0  0  0  0  0  0  0  0
   -0.4084   63.3686   83.6277 C   0  0  0  0  0  0  0  0  0  0  0  0
   -1.2346   62.2982   84.0154 C   0  0  0  0  0  0  0  0  0  0  0  0
   -1.9815   61.3620   83.1428 C   0  0  0  0  0  0  0  0  0  0  0  0
   -1.2916   62.1874   85.3538 N   0  0  0  0  0  0  0  0  0  0  0  0
   -0.4989   63.1937   85.7999 N   0  0  0  0  0  0  0  0  0  0  0  0
    0.0077   63.9341   82.3784 C   0  0  0  0  0  0  0  0  0  0  0  0
   -0.3495   63.5309   81.2777 O   0  0  0  0  0  0  0  0  0  0  0  0
    0.8659   65.0059   82.5436 N   0  0  0  0  0  0  0  0  0  0  0  0
    1.1743   65.4440   81.6883 H   0  0  0  0  0  0  0  0  0  0  0  0
   -0.3132   63.3886   87.2226 C   0  0  0  0  0  0  0  0  0  0  0  0
   -1.6175   63.2770   87.9907 C   0  0  0  0  0  0  0  0  0  0  0  0
    2.2001   70.1751   82.4171 N   0  0  0  0  0  0  0  0  0  0  0  0
    2.4949   70.5861   81.1294 C   0  0  0  0  0  0  0  0  0  0  0  0
    1.9562   71.9616   80.8244 C   0  0  0  0  0  0  0  0  0  0  0  0
    3.0892   69.9394   80.2741 O   0  0  0  0  0  0  0  0  0  0  0  0
    1.6196   70.7950   82.9688 H   0  0  0  0  0  0  0  0  0  0  0  0
    3.8680   65.5090   84.9913 O   0  0  0  0  0  0  0  0  0  0  0  0
    5.0486   65.8031   85.7502 C   0  0  0  0  0  0  0  0  0  0  0  0
    5.5632   65.5329   88.2031 C   0  0  0  0  0  0  0  0  0  0  0  0
    5.0903   64.8444   86.9355 C   0  0  0  0  0  0  0  0  0  0  0  0
 28 29  1  0  0  0
 29 27  1  0  0  0
 27 26  1  0  0  0
 26  1  1  0  0  0
  1  2  1  0  0  0
  2  3  2  0  0  0
  3  4  1  0  0  0
  4 21  1  0  0  0
 21 22  1  0  0  0
 22 23  1  0  0  0
 22 24  2  0  0  0
  4  5  2  0  0  0
  5  6  1  0  0  0
  6  7  1  0  0  0
  7  8  2  0  0  0
  8  9  1  0  0  0
  9 10  2  0  0  0
 10 11  1  0  0  0
 11 12  1  0  0  0
 11 13  2  0  0  0
 13 14  1  0  0  0
 14 19  1  0  0  0
 19 20  1  0  0  0
 10 15  1  0  0  0
 15 16  2  0  0  0
 15 17  1  0  0  0
  6  1  2  0  0  0
 17  7  1  0  0  0
 14  9  1  0  0  0
 21 25  1  0  0  0
 17 18  1  0  0  0
M  END
> <minimizedAffinity>
-8.69857

$$$$



 29 31  0  0  0  0  0  0  0  0999 V2000
    0.0541   63.8375   85.1939 C   0  0  0  0  0  0  0  0  0  0  0  0
   -0.7097   62.6854   85.3744 C   0  0  0  0  0  0  0  0  0  0  0  0
   -1.0785   61.9125   84.2698 C   0  0  0  0  0  0  0  0  0  0  0  0
   -0.6723   62.2700   82.9771 C   0  0  0  0  0  0  0  0  0  0  0  0
    0.0997   63.4214   82.8032 C   0  0  0  0  0  0  0  0  0  0  0  0
    0.4720   64.1994   83.9105 C   0  0  0  0  0  0  0  0  0  0  0  0
    1.2906   65.4113   83.6853 C   0  0  0  0  0  0  0  0  0  0  0  0
    2.3918   65.6129   84.3559 N   0  0  0  0  0  0  0  0  0  0  0  0
    3.0147   66.7718   84.0270 C   0  0  0  0  0  0  0  0  0  0  0  0
    2.6189   67.7059   83.1024 C   0  0  0  0  0  0  0  0  0  0  0  0
    3.5939   68.7194   83.1329 C   0  0  0  0  0  0  0  0  0  0  0  0
    3.6422   69.9610   82.3254 C   0  0  0  0  0  0  0  0  0  0  0  0
    4.5548   68.4436   84.0313 N   0  0  0  0  0  0  0  0  0  0  0  0
    4.1766   67.2532   84.5605 N   0  0  0  0  0  0  0  0  0  0  0  0
    1.4101   67.4765   82.3677 C   0  0  0  0  0  0  0  0  0  0  0  0
    0.9650   68.2264   81.5069 O   0  0  0  0  0  0  0  0  0  0  0  0
    0.7869   66.2968   82.7315 N   0  0  0  0  0  0  0  0  0  0  0  0
   -0.0631   66.0882   82.2289 H   0  0  0  0  0  0  0  0  0  0  0  0
    4.9865   66.6303   85.5865 C   0  0  0  0  0  0  0  0  0  0  0  0
    5.4582   67.6286   86.6280 C   0  0  0  0  0  0  0  0  0  0  0  0
   -1.0796   61.4306   81.9194 N   0  0  0  0  0  0  0  0  0  0  0  0
   -2.2180   61.5546   81.1431 C   0  0  0  0  0  0  0  0  0  0  0  0
   -2.3394   60.4567   80.1160 C   0  0  0  0  0  0  0  0  0  0  0  0
   -3.0520   62.4508   81.2074 O   0  0  0  0  0  0  0  0  0  0  0  0
   -0.4446   60.6801   81.6758 H   0  0  0  0  0  0  0  0  0  0  0  0
    0.4801   64.5291   86.2952 O   0  0  0  0  0  0  0  0  0  0  0  0
   -0.2046   64.0841   87.4740 C   0  0  0  0  0  0  0  0  0  0  0  0
    0.2561   62.2236   89.1113 C   0  0  0  0  0  0  0  0  0  0  0  0
    0.8248   63.4334   88.3920 C   0  0  0  0  0  0  0  0  0  0  0  0
 28 29  1  0  0  0
 29 27  1  0  0  0
 27 26  1  0  0  0
 26  1  1  0  0  0
  1  2  1  0  0  0
  2  3  2  0  0  0
  3  4  1  0  0  0
  4 21  1  0  0  0
 21 22  1  0  0  0
 22 23  1  0  0  0
 22 24  2  0  0  0
  4  5  2  0  0  0
  5  6  1  0  0  0
  6  7  1  0  0  0
  7  8  2  0  0  0
  8  9  1  0  0  0
  9 10  2  0  0  0
 10 11  1  0  0  0
 11 12  1  0  0  0
 11 13  2  0  0  0
 13 14  1  0  0  0
 14 19  1  0  0  0
 19 20  1  0  0  0
 10 15  1  0  0  0
 15 16  2  0  0  0
 15 17  1  0  0  0
  6  1  2  0  0  0
 17  7  1  0  0  0
 14  9  1  0  0  0
 21 25  1  0  0  0
 17 18  1  0  0  0
M  END
> <minimizedAffinity>
-8.65594

$$$$



 29 31  0  0  0  0  0  0  0  0999 V2000
    1.7861   66.7940   83.4426 C   0  0  0  0  0  0  0  0  0  0  0  0
    2.1044   67.5961   82.3476 C   0  0  0  0  0  0  0  0  0  0  0  0
    1.6122   67.2736   81.0799 C   0  0  0  0  0  0  0  0  0  0  0  0
    0.7816   66.1600   80.8953 C   0  0  0  0  0  0  0  0  0  0  0  0
    0.4597   65.3644   81.9977 C   0  0  0  0  0  0  0  0  0  0  0  0
    0.9521   65.6858   83.2721 C   0  0  0  0  0  0  0  0  0  0  0  0
    0.5880   64.8190   84.4148 C   0  0  0  0  0  0  0  0  0  0  0  0
   -0.4754   64.0637   84.3736 N   0  0  0  0  0  0  0  0  0  0  0  0
   -0.6608   63.3376   85.5039 C   0  0  0  0  0  0  0  0  0  0  0  0
    0.1236   63.3204   86.6302 C   0  0  0  0  0  0  0  0  0  0  0  0
   -0.4878   62.4139   87.5151 C   0  0  0  0  0  0  0  0  0  0  0  0
   -0.0423   62.0275   88.8746 C   0  0  0  0  0  0  0  0  0  0  0  0
   -1.6021   61.8869   86.9791 N   0  0  0  0  0  0  0  0  0  0  0  0
   -1.6831   62.4669   85.7556 N   0  0  0  0  0  0  0  0  0  0  0  0
    1.2914   64.1503   86.6672 C   0  0  0  0  0  0  0  0  0  0  0  0
    2.0760   64.2073   87.6067 O   0  0  0  0  0  0  0  0  0  0  0  0
    1.4498   64.8907   85.5100 N   0  0  0  0  0  0  0  0  0  0  0  0
    2.2683   65.4807   85.4873 H   0  0  0  0  0  0  0  0  0  0  0  0
   -2.7815   62.1360   84.8720 C   0  0  0  0  0  0  0  0  0  0  0  0
   -2.3026   61.5275   83.5666 C   0  0  0  0  0  0  0  0  0  0  0  0
    0.3208   65.9109   79.5858 N   0  0  0  0  0  0  0  0  0  0  0  0
    0.2734   64.6922   78.9328 C   0  0  0  0  0  0  0  0  0  0  0  0
   -0.2601   64.8105   77.5268 C   0  0  0  0  0  0  0  0  0  0  0  0
    0.5797   63.6008   79.3995 O   0  0  0  0  0  0  0  0  0  0  0  0
   -0.0562   66.7074   79.0867 H   0  0  0  0  0  0  0  0  0  0  0  0
    2.2030   67.1776   84.6882 O   0  0  0  0  0  0  0  0  0  0  0  0
    3.3951   67.9706   84.6059 C   0  0  0  0  0  0  0  0  0  0  0  0
    5.3084   67.8701   86.2441 C   0  0  0  0  0  0  0  0  0  0  0  0
    4.5475   67.1360   85.1548 C   0  0  0  0  0  0  0  0  0  0  0  0
 28 29  1  0  0  0
 29 27  1  0  0  0
 27 26  1  0  0  0
 26  1  1  0  0  0
  1  2  1  0  0  0
  2  3  2  0  0  0
  3  4  1  0  0  0
  4 21  1  0  0  0
 21 22  1  0  0  0
 22 23  1  0  0  0
 22 24  2  0  0  0
  4  5  2  0  0  0
  5  6  1  0  0  0
  6  7  1  0  0  0
  7  8  2  0  0  0
  8  9  1  0  0  0
  9 10  2  0  0  0
 10 11  1  0  0  0
 11 12  1  0  0  0
 11 13  2  0  0  0
 13 14  1  0  0  0
 14 19  1  0  0  0
 19 20  1  0  0  0
 10 15  1  0  0  0
 15 16  2  0  0  0
 15 17  1  0  0  0
  6  1  2  0  0  0
 17  7  1  0  0  0
 14  9  1  0  0  0
 21 25  1  0  0  0
 17 18  1  0  0  0
M  END
> <minimizedAffinity>
-8.63375

$$$$
