
     RDKit          3D

 58 64  0  0  0  0  0  0  0  0999 V2000
    4.5771    2.4543    4.9133 O   0  0  0  0  0  0  0  0  0  0  0  0
    4.8895    2.9167    3.8235 C   0  0  0  0  0  0  0  0  0  0  0  0
    4.4874    2.2799    2.5534 C   0  0  0  0  0  0  0  0  0  0  0  0
    4.8931    2.8453    1.3435 C   0  0  0  0  0  0  0  0  0  0  0  0
    4.5147    2.2454    0.1369 C   0  0  0  0  0  0  0  0  0  0  0  0
    3.7284    1.0822    0.1246 C   0  0  0  0  0  0  0  0  0  0  0  0
    3.3327    0.4703   -1.1400 C   0  0  0  0  0  0  0  0  0  0  0  0
    3.7868    0.5563   -2.4402 C   0  0  0  0  0  0  0  0  0  0  0  0
    2.9526   -0.2840   -3.2160 C   0  0  0  0  0  0  0  0  0  0  0  0
    2.0084   -0.8174   -2.3582 C   0  0  0  0  0  0  0  0  0  0  0  0
    0.9220   -1.7408   -2.6304 C   0  0  0  0  0  0  0  0  0  0  0  0
    0.9229   -2.4405   -3.6472 O   0  0  0  0  0  0  0  0  0  0  0  0
   -0.1479   -1.8304   -1.7557 N   0  0  0  0  0  0  0  0  0  0  0  0
   -1.1640   -2.8508   -1.9728 C   0  0  0  0  0  0  0  0  0  0  0  0
   -2.0553   -2.7535   -0.7870 C   0  0  0  0  0  0  0  0  0  0  0  0
   -1.6515   -1.7118    0.0346 C   0  0  0  0  0  0  0  0  0  0  0  0
   -2.2329   -1.3845    1.2044 N   0  0  0  0  0  0  0  0  0  0  0  0
   -3.3016   -2.1138    1.5734 C   0  0  0  0  0  0  0  0  0  0  0  0
   -3.9397   -1.7998    2.7655 C   0  0  0  0  0  0  0  0  0  0  0  0
   -5.0554   -2.5113    3.2158 C   0  0  0  0  0  0  0  0  0  0  0  0
   -5.5532   -3.5660    2.4618 C   0  0  0  0  0  0  0  0  0  0  0  0
   -4.9333   -3.9048    1.2606 C   0  0  0  0  0  0  0  0  0  0  0  0
   -3.8068   -3.1905    0.7998 C   0  0  0  0  0  0  0  0  0  0  0  0
   -3.1478   -3.5008   -0.4065 C   0  0  0  0  0  0  0  0  0  0  0  0
   -3.6072   -4.5391   -1.1686 O   0  0  0  0  0  0  0  0  0  0  0  0
   -0.4343   -1.0141   -0.5599 C   0  0  0  0  0  0  0  0  0  0  0  0
   -0.7062    0.4500   -0.8736 C   0  0  0  0  0  0  0  0  0  0  0  0
   -1.3909    0.8546   -2.0473 C   0  0  0  0  0  0  0  0  0  0  0  0
   -1.6310    2.2063   -2.3172 C   0  0  0  0  0  0  0  0  0  0  0  0
   -1.1885    3.1322   -1.3995 C   0  0  0  0  0  0  0  0  0  0  0  0
   -0.5368    2.7562   -0.2504 C   0  0  0  0  0  0  0  0  0  0  0  0
   -0.2881    1.4326    0.0441 C   0  0  0  0  0  0  0  0  0  0  0  0
   -0.1878    3.8204    0.5210 O   0  0  0  0  0  0  0  0  0  0  0  0
   -0.7119    4.9082   -0.2673 C   0  0  0  0  0  0  0  0  0  0  0  0
   -1.3331    4.4807   -1.4973 O   0  0  0  0  0  0  0  0  0  0  0  0
    2.2663   -0.3809   -1.0891 O   0  0  0  0  0  0  0  0  0  0  0  0
    3.3340    0.5287    1.3532 C   0  0  0  0  0  0  0  0  0  0  0  0
    3.7092    1.1219    2.5624 C   0  0  0  0  0  0  0  0  0  0  0  0
    5.4925    3.8367    3.7433 H   0  0  0  0  0  0  0  0  0  0  0  0
    5.4975    3.7483    1.3218 H   0  0  0  0  0  0  0  0  0  0  0  0
    4.8316    2.7065   -0.7959 H   0  0  0  0  0  0  0  0  0  0  0  0
    4.6234    1.1444   -2.7898 H   0  0  0  0  0  0  0  0  0  0  0  0
    3.0115   -0.4763   -4.2790 H   0  0  0  0  0  0  0  0  0  0  0  0
   -1.7018   -2.6273   -2.8999 H   0  0  0  0  0  0  0  0  0  0  0  0
   -0.6832   -3.8320   -2.0409 H   0  0  0  0  0  0  0  0  0  0  0  0
   -3.5580   -0.9746    3.3625 H   0  0  0  0  0  0  0  0  0  0  0  0
   -5.5300   -2.2368    4.1543 H   0  0  0  0  0  0  0  0  0  0  0  0
   -6.4203   -4.1245    2.8046 H   0  0  0  0  0  0  0  0  0  0  0  0
   -5.3293   -4.7328    0.6759 H   0  0  0  0  0  0  0  0  0  0  0  0
   -3.0574   -4.6491   -1.9603 H   0  0  0  0  0  0  0  0  0  0  0  0
    0.3987   -1.1312    0.1412 H   0  0  0  0  0  0  0  0  0  0  0  0
   -1.7428    0.1138   -2.7621 H   0  0  0  0  0  0  0  0  0  0  0  0
   -2.1511    2.5165   -3.2163 H   0  0  0  0  0  0  0  0  0  0  0  0
    0.2197    1.1677    0.9659 H   0  0  0  0  0  0  0  0  0  0  0  0
    0.1097    5.5920   -0.5099 H   0  0  0  0  0  0  0  0  0  0  0  0
   -1.4541    5.4496    0.3308 H   0  0  0  0  0  0  0  0  0  0  0  0
    2.7312   -0.3768    1.3817 H   0  0  0  0  0  0  0  0  0  0  0  0
    3.3924    0.6783    3.5043 H   0  0  0  0  0  0  0  0  0  0  0  0
  1  2  2  0
  2  3  1  0
  3  4  1  0
  4  5  2  0
  5  6  1  0
  6  7  1  0
  7  8  2  0
  8  9  1  0
  9 10  2  0
 10 11  1  0
 11 12  2  0
 11 13  1  0
 13 14  1  0
 14 15  1  0
 15 16  1  0
 16 17  2  0
 17 18  1  0
 18 19  2  0
 19 20  1  0
 20 21  2  0
 21 22  1  0
 22 23  2  0
 23 24  1  0
 24 25  1  0
 16 26  1  0
 26 27  1  0
 27 28  1  0
 28 29  2  0
 29 30  1  0
 30 31  2  0
 31 32  1  0
 31 33  1  0
 33 34  1  0
 34 35  1  0
 10 36  1  0
  6 37  2  0
 37 38  1  0
 38  3  2  0
 36  7  1  0
 26 13  1  0
 32 27  2  0
 24 15  2  0
 35 30  1  0
 23 18  1  0
  2 39  1  0
  4 40  1  0
  5 41  1  0
  8 42  1  0
  9 43  1  0
 14 44  1  0
 14 45  1  0
 19 46  1  0
 20 47  1  0
 21 48  1  0
 22 49  1  0
 25 50  1  0
 26 51  1  0
 28 52  1  0
 29 53  1  0
 32 54  1  0
 34 55  1  0
 34 56  1  0
 37 57  1  0
 38 58  1  0
M  END
$$$$
