
     RDKit          3D

 62 65  0  0  0  0  0  0  0  0999 V2000
    6.8267    1.4349   -3.0060 C   0  0  0  0  0  0  0  0  0  0  0  0
    5.3254    1.5633   -2.7426 C   0  0  0  0  0  0  0  0  0  0  0  0
    4.8704    2.9993   -3.0154 C   0  0  0  0  0  0  0  0  0  0  0  0
    5.0032    1.1290   -1.3006 C   0  0  0  0  0  0  0  0  0  0  0  0
    3.5614    1.0620   -1.1088 N   0  0  0  0  0  0  0  0  0  0  0  0
    3.1038    0.5062    0.0884 C   0  0  0  0  0  0  0  0  0  0  0  0
    1.8955   -0.1138    0.0237 N   0  0  0  0  0  0  0  0  0  0  0  0
    1.3430   -0.6750    1.1197 C   0  0  0  0  0  0  0  0  0  0  0  0
    0.0938   -1.2939    1.0571 N   0  0  0  0  0  0  0  0  0  0  0  0
   -0.7792   -1.6216    0.0147 C   0  0  0  0  0  0  0  0  0  0  0  0
   -0.4987   -1.4048   -1.3395 C   0  0  0  0  0  0  0  0  0  0  0  0
   -1.4189   -1.7384   -2.3413 C   0  0  0  0  0  0  0  0  0  0  0  0
   -2.6576   -2.2721   -2.0032 C   0  0  0  0  0  0  0  0  0  0  0  0
   -2.9741   -2.4471   -0.6567 C   0  0  0  0  0  0  0  0  0  0  0  0
   -4.5567   -3.1229   -0.2005 S   0  0  0  0  0  0  0  0  0  0  0  0
   -5.0391   -3.8927   -1.3276 O   0  0  0  0  0  0  0  0  0  0  0  0
   -4.4066   -3.7256    1.1079 O   0  0  0  0  0  0  0  0  0  0  0  0
   -5.5362   -1.7546   -0.0353 N   0  0  0  0  0  0  0  0  0  0  0  0
   -5.3272   -0.9069    1.1707 C   0  0  0  0  0  0  0  0  0  0  0  0
   -6.1499    0.3927    1.0852 C   0  0  0  0  0  0  0  0  0  0  0  0
   -5.8472    1.2360   -0.0895 N   0  0  0  0  0  0  0  0  0  0  0  0
   -4.9145    2.3130    0.2345 C   0  0  0  0  0  0  0  0  0  0  0  0
   -5.3433    0.4358   -1.2254 C   0  0  0  0  0  0  0  0  0  0  0  0
   -5.9072   -0.9967   -1.2638 C   0  0  0  0  0  0  0  0  0  0  0  0
   -2.0378   -2.1481    0.3416 C   0  0  0  0  0  0  0  0  0  0  0  0
    1.8957   -0.6890    2.3471 N   0  0  0  0  0  0  0  0  0  0  0  0
    3.0884   -0.0803    2.3823 C   0  0  0  0  0  0  0  0  0  0  0  0
    3.7562    0.5289    1.3346 C   0  0  0  0  0  0  0  0  0  0  0  0
    4.9690    1.0352    1.7682 N   0  0  0  0  0  0  0  0  0  0  0  0
    5.0236    0.7461    3.0510 C   0  0  0  0  0  0  0  0  0  0  0  0
    3.9093    0.0729    3.4638 N   0  0  0  0  0  0  0  0  0  0  0  0
    3.6379   -0.3975    4.7960 C   0  0  0  0  0  0  0  0  0  0  0  0
    7.0666    1.7176   -4.0365 H   0  0  0  0  0  0  0  0  0  0  0  0
    7.4050    2.0786   -2.3344 H   0  0  0  0  0  0  0  0  0  0  0  0
    7.1608    0.4026   -2.8576 H   0  0  0  0  0  0  0  0  0  0  0  0
    4.8003    0.9004   -3.4426 H   0  0  0  0  0  0  0  0  0  0  0  0
    3.7869    3.1018   -2.8971 H   0  0  0  0  0  0  0  0  0  0  0  0
    5.1188    3.2959   -4.0401 H   0  0  0  0  0  0  0  0  0  0  0  0
    5.3547    3.7059   -2.3328 H   0  0  0  0  0  0  0  0  0  0  0  0
    5.4481    0.1429   -1.1154 H   0  0  0  0  0  0  0  0  0  0  0  0
    5.4512    1.8464   -0.6034 H   0  0  0  0  0  0  0  0  0  0  0  0
    3.0360    0.6302   -1.8628 H   0  0  0  0  0  0  0  0  0  0  0  0
   -0.1302   -1.6578    1.9722 H   0  0  0  0  0  0  0  0  0  0  0  0
    0.4559   -0.9898   -1.6500 H   0  0  0  0  0  0  0  0  0  0  0  0
   -1.1569   -1.5829   -3.3853 H   0  0  0  0  0  0  0  0  0  0  0  0
   -3.3609   -2.5458   -2.7858 H   0  0  0  0  0  0  0  0  0  0  0  0
   -5.6471   -1.4691    2.0547 H   0  0  0  0  0  0  0  0  0  0  0  0
   -4.2692   -0.6532    1.2857 H   0  0  0  0  0  0  0  0  0  0  0  0
   -6.0446    0.9600    2.0182 H   0  0  0  0  0  0  0  0  0  0  0  0
   -7.2125    0.1233    1.0234 H   0  0  0  0  0  0  0  0  0  0  0  0
   -3.9535    1.9323    0.5986 H   0  0  0  0  0  0  0  0  0  0  0  0
   -4.7285    2.9387   -0.6456 H   0  0  0  0  0  0  0  0  0  0  0  0
   -5.3385    2.9696    1.0021 H   0  0  0  0  0  0  0  0  0  0  0  0
   -4.2479    0.3682   -1.1900 H   0  0  0  0  0  0  0  0  0  0  0  0
   -5.6043    0.9503   -2.1573 H   0  0  0  0  0  0  0  0  0  0  0  0
   -5.5526   -1.5000   -2.1680 H   0  0  0  0  0  0  0  0  0  0  0  0
   -7.0016   -0.9747   -1.3317 H   0  0  0  0  0  0  0  0  0  0  0  0
   -2.2952   -2.3240    1.3841 H   0  0  0  0  0  0  0  0  0  0  0  0
    5.8394    0.9995    3.7165 H   0  0  0  0  0  0  0  0  0  0  0  0
    2.7185    0.0747    5.1515 H   0  0  0  0  0  0  0  0  0  0  0  0
    3.5238   -1.4841    4.7652 H   0  0  0  0  0  0  0  0  0  0  0  0
    4.4684   -0.1316    5.4549 H   0  0  0  0  0  0  0  0  0  0  0  0
  1  2  1  0
  2  3  1  0
  2  4  1  0
  4  5  1  0
  5  6  1  0
  6  7  1  0
  7  8  2  0
  8  9  1  0
  9 10  1  0
 10 11  1  0
 11 12  2  0
 12 13  1  0
 13 14  2  0
 14 15  1  0
 15 16  2  0
 15 17  2  0
 15 18  1  0
 18 19  1  0
 19 20  1  0
 20 21  1  0
 21 22  1  0
 21 23  1  0
 23 24  1  0
 14 25  1  0
  8 26  1  0
 26 27  2  0
 27 28  1  0
 28 29  1  0
 29 30  2  0
 30 31  1  0
 31 32  1  0
 28  6  2  0
 25 10  2  0
 31 27  1  0
 24 18  1  0
  1 33  1  0
  1 34  1  0
  1 35  1  0
  2 36  1  0
  3 37  1  0
  3 38  1  0
  3 39  1  0
  4 40  1  0
  4 41  1  0
  5 42  1  0
  9 43  1  0
 11 44  1  0
 12 45  1  0
 13 46  1  0
 19 47  1  0
 19 48  1  0
 20 49  1  0
 20 50  1  0
 22 51  1  0
 22 52  1  0
 22 53  1  0
 23 54  1  0
 23 55  1  0
 24 56  1  0
 24 57  1  0
 25 58  1  0
 30 59  1  0
 32 60  1  0
 32 61  1  0
 32 62  1  0
M  END
$$$$
