


 38 41  0  0  0  0  0  0  0  0999 V2000
    3.6043   67.6623   83.9650 C   0  0  0  0  0  0  0  0  0  0  0  0
    4.2654   68.7656   83.4046 C   0  0  0  0  0  0  0  0  0  0  0  0
    3.6325   69.5724   82.4556 C   0  0  0  0  0  0  0  0  0  0  0  0
    2.3286   69.2799   82.0648 C   0  0  0  0  0  0  0  0  0  0  0  0
    1.6544   68.1842   82.6053 C   0  0  0  0  0  0  0  0  0  0  0  0
    2.2814   67.3580   83.5545 C   0  0  0  0  0  0  0  0  0  0  0  0
    1.5205   66.2016   84.0576 C   0  0  0  0  0  0  0  0  0  0  0  0
    1.3163   65.8894   85.3306 N   0  0  0  0  0  0  0  0  0  0  0  0
    0.5389   64.7549   85.3215 C   0  0  0  0  0  0  0  0  0  0  0  0
    0.0115   63.9958   86.4326 C   0  0  0  0  0  0  0  0  0  0  0  0
    0.2157   64.3000   87.6050 O   0  0  0  0  0  0  0  0  0  0  0  0
   -0.7558   62.8887   86.0258 N   0  0  0  0  0  0  0  0  0  0  0  0
   -1.3336   62.0582   87.0639 C   0  0  0  0  0  0  0  0  0  0  0  0
   -1.0365   62.4996   84.6977 C   0  0  0  0  0  0  0  0  0  0  0  0
   -1.7381   61.5136   84.4536 O   0  0  0  0  0  0  0  0  0  0  0  0
   -0.4891   63.2828   83.6650 N   0  0  0  0  0  0  0  0  0  0  0  0
    0.2696   64.3695   84.0407 C   0  0  0  0  0  0  0  0  0  0  0  0
    0.8970   65.2757   83.2452 N   0  0  0  0  0  0  0  0  0  0  0  0
    0.9098   65.3152   82.2358 H   0  0  0  0  0  0  0  0  0  0  0  0
   -0.7599   62.9306   82.2700 C   0  0  0  0  0  0  0  0  0  0  0  0
    0.5052   62.5207   81.4912 C   0  0  0  0  0  0  0  0  0  0  0  0
    1.0492   61.2015   82.0421 C   0  0  0  0  0  0  0  0  0  0  0  0
    0.2378   62.3891   79.9912 C   0  0  0  0  0  0  0  0  0  0  0  0
    1.5117   70.2944   80.8579 S   0  0  0  0  0  0  0  0  0  0  0  0
    0.5421   69.4686   80.1693 O   0  0  0  0  0  0  0  0  0  0  0  0
    2.5501   70.9891   80.1292 O   0  0  0  0  0  0  0  0  0  0  0  0
    0.6648   71.4145   81.8113 N   0  0  0  0  0  0  0  0  0  0  0  0
   -0.8176   71.4846   81.6350 C   0  0  0  0  0  0  0  0  0  0  0  0
   -1.2310   72.3866   80.4524 C   0  0  0  0  0  0  0  0  0  0  0  0
   -0.6321   73.7351   80.5223 N   0  0  0  0  0  0  0  0  0  0  0  0
   -0.9972   74.5216   79.3452 C   0  0  0  0  0  0  0  0  0  0  0  0
    0.8374   73.6264   80.6376 C   0  0  0  0  0  0  0  0  0  0  0  0
    1.2526   72.7868   81.8589 C   0  0  0  0  0  0  0  0  0  0  0  0
    4.1640   66.8315   84.9062 O   0  0  0  0  0  0  0  0  0  0  0  0
    5.1609   67.3307   85.8016 C   0  0  0  0  0  0  0  0  0  0  0  0
    6.8940   65.7152   84.9111 C   0  0  0  0  0  0  0  0  0  0  0  0
    6.1906   66.2487   86.1618 C   0  0  0  0  0  0  0  0  0  0  0  0
    5.5164   65.1082   86.9215 C   0  0  0  0  0  0  0  0  0  0  0  0
 36 37  1  0  0  0
 37 38  1  0  0  0
 37 35  1  0  0  0
 35 34  1  0  0  0
 34  1  1  0  0  0
  1  2  1  0  0  0
  2  3  2  0  0  0
  3  4  1  0  0  0
  4 24  1  0  0  0
 24 25  2  0  0  0
 24 26  2  0  0  0
 24 27  1  0  0  0
 27 28  1  0  0  0
 28 29  1  0  0  0
 29 30  1  0  0  0
 30 31  1  0  0  0
 30 32  1  0  0  0
 32 33  1  0  0  0
  4  5  2  0  0  0
  5  6  1  0  0  0
  6  7  1  0  0  0
  7  8  2  0  0  0
  8  9  1  0  0  0
  9 10  1  0  0  0
 10 11  2  0  0  0
 10 12  1  0  0  0
 12 13  1  0  0  0
 12 14  1  0  0  0
 14 15  2  0  0  0
 14 16  1  0  0  0
 16 20  1  0  0  0
 20 21  1  0  0  0
 21 22  1  0  0  0
 21 23  1  0  0  0
 16 17  1  0  0  0
 17 18  1  0  0  0
  6  1  2  0  0  0
 18  7  1  0  0  0
 33 27  1  0  0  0
 17  9  2  0  0  0
 18 19  1  0  0  0
M  END
> <minimizedAffinity>
-10.45128

$$$$



 38 41  0  0  0  0  0  0  0  0999 V2000
    3.4826   67.1811   84.2939 C   0  0  0  0  0  0  0  0  0  0  0  0
    4.3199   68.2745   84.0260 C   0  0  0  0  0  0  0  0  0  0  0  0
    3.9358   69.2641   83.1177 C   0  0  0  0  0  0  0  0  0  0  0  0
    2.7053   69.1656   82.4739 C   0  0  0  0  0  0  0  0  0  0  0  0
    1.8592   68.0837   82.7211 C   0  0  0  0  0  0  0  0  0  0  0  0
    2.2361   67.0756   83.6258 C   0  0  0  0  0  0  0  0  0  0  0  0
    1.3071   65.9481   83.8130 C   0  0  0  0  0  0  0  0  0  0  0  0
    0.7530   65.2192   82.8531 N   0  0  0  0  0  0  0  0  0  0  0  0
   -0.0143   64.2733   83.4920 C   0  0  0  0  0  0  0  0  0  0  0  0
   -0.8228   63.2158   82.9292 C   0  0  0  0  0  0  0  0  0  0  0  0
   -0.9273   63.0276   81.7199 O   0  0  0  0  0  0  0  0  0  0  0  0
   -1.4628   62.4339   83.9085 N   0  0  0  0  0  0  0  0  0  0  0  0
   -2.2998   61.3426   83.4507 C   0  0  0  0  0  0  0  0  0  0  0  0
   -1.3683   62.5928   85.3085 C   0  0  0  0  0  0  0  0  0  0  0  0
   -1.9637   61.8358   86.0808 O   0  0  0  0  0  0  0  0  0  0  0  0
   -0.5655   63.6443   85.7873 N   0  0  0  0  0  0  0  0  0  0  0  0
    0.0671   64.4255   84.8454 C   0  0  0  0  0  0  0  0  0  0  0  0
    0.8916   65.4873   85.0463 N   0  0  0  0  0  0  0  0  0  0  0  0
    1.1919   65.8854   85.9250 H   0  0  0  0  0  0  0  0  0  0  0  0
   -0.4232   63.8453   87.2305 C   0  0  0  0  0  0  0  0  0  0  0  0
    0.6803   62.9722   87.8588 C   0  0  0  0  0  0  0  0  0  0  0  0
    1.9821   63.7699   87.9539 C   0  0  0  0  0  0  0  0  0  0  0  0
    0.2838   62.4539   89.2419 C   0  0  0  0  0  0  0  0  0  0  0  0
    2.2039   70.4140   81.3148 S   0  0  0  0  0  0  0  0  0  0  0  0
    1.5822   69.7484   80.1892 O   0  0  0  0  0  0  0  0  0  0  0  0
    3.3417   71.2873   81.1284 O   0  0  0  0  0  0  0  0  0  0  0  0
    0.9965   71.2561   82.1595 N   0  0  0  0  0  0  0  0  0  0  0  0
   -0.4219   71.0090   81.7584 C   0  0  0  0  0  0  0  0  0  0  0  0
   -0.8552   71.8723   80.5542 C   0  0  0  0  0  0  0  0  0  0  0  0
   -0.5953   73.3122   80.7569 N   0  0  0  0  0  0  0  0  0  0  0  0
   -0.9567   74.0733   79.5621 C   0  0  0  0  0  0  0  0  0  0  0  0
    0.8282   73.5227   81.0946 C   0  0  0  0  0  0  0  0  0  0  0  0
    1.2435   72.7181   82.3393 C   0  0  0  0  0  0  0  0  0  0  0  0
    3.7945   66.1766   85.1788 O   0  0  0  0  0  0  0  0  0  0  0  0
    4.9362   65.3470   84.9487 C   0  0  0  0  0  0  0  0  0  0  0  0
    5.4933   66.3956   87.1840 C   0  0  0  0  0  0  0  0  0  0  0  0
    6.0299   65.5853   86.0011 C   0  0  0  0  0  0  0  0  0  0  0  0
    7.2271   66.2930   85.3698 C   0  0  0  0  0  0  0  0  0  0  0  0
 36 37  1  0  0  0
 37 38  1  0  0  0
 37 35  1  0  0  0
 35 34  1  0  0  0
 34  1  1  0  0  0
  1  2  1  0  0  0
  2  3  2  0  0  0
  3  4  1  0  0  0
  4 24  1  0  0  0
 24 25  2  0  0  0
 24 26  2  0  0  0
 24 27  1  0  0  0
 27 28  1  0  0  0
 28 29  1  0  0  0
 29 30  1  0  0  0
 30 31  1  0  0  0
 30 32  1  0  0  0
 32 33  1  0  0  0
  4  5  2  0  0  0
  5  6  1  0  0  0
  6  7  1  0  0  0
  7  8  2  0  0  0
  8  9  1  0  0  0
  9 10  1  0  0  0
 10 11  2  0  0  0
 10 12  1  0  0  0
 12 13  1  0  0  0
 12 14  1  0  0  0
 14 15  2  0  0  0
 14 16  1  0  0  0
 16 20  1  0  0  0
 20 21  1  0  0  0
 21 22  1  0  0  0
 21 23  1  0  0  0
 16 17  1  0  0  0
 17 18  1  0  0  0
  6  1  2  0  0  0
 18  7  1  0  0  0
 33 27  1  0  0  0
 17  9  2  0  0  0
 18 19  1  0  0  0
M  END
> <minimizedAffinity>
-10.34666

$$$$



 38 41  0  0  0  0  0  0  0  0999 V2000
    0.9870   65.3180   83.1227 C   0  0  0  0  0  0  0  0  0  0  0  0
    1.5862   66.3215   83.8988 C   0  0  0  0  0  0  0  0  0  0  0  0
    1.8981   67.5650   83.3434 C   0  0  0  0  0  0  0  0  0  0  0  0
    1.6069   67.8121   82.0046 C   0  0  0  0  0  0  0  0  0  0  0  0
    1.0161   66.8264   81.2129 C   0  0  0  0  0  0  0  0  0  0  0  0
    0.7047   65.5673   81.7554 C   0  0  0  0  0  0  0  0  0  0  0  0
    0.1120   64.5658   80.8527 C   0  0  0  0  0  0  0  0  0  0  0  0
    0.5105   64.2872   79.6185 N   0  0  0  0  0  0  0  0  0  0  0  0
   -0.3123   63.2786   79.1743 C   0  0  0  0  0  0  0  0  0  0  0  0
   -0.3125   62.5875   77.9049 C   0  0  0  0  0  0  0  0  0  0  0  0
    0.4838   62.8441   77.0056 O   0  0  0  0  0  0  0  0  0  0  0  0
   -1.3093   61.5980   77.8189 N   0  0  0  0  0  0  0  0  0  0  0  0
   -1.3966   60.8425   76.5850 C   0  0  0  0  0  0  0  0  0  0  0  0
   -2.2398   61.2493   78.8222 C   0  0  0  0  0  0  0  0  0  0  0  0
   -3.0660   60.3493   78.6449 O   0  0  0  0  0  0  0  0  0  0  0  0
   -2.1844   61.9646   80.0325 N   0  0  0  0  0  0  0  0  0  0  0  0
   -1.2186   62.9414   80.1367 C   0  0  0  0  0  0  0  0  0  0  0  0
   -0.9571   63.7599   81.1900 N   0  0  0  0  0  0  0  0  0  0  0  0
   -1.4220   63.7895   82.0864 H   0  0  0  0  0  0  0  0  0  0  0  0
   -3.1184   61.6342   81.1104 C   0  0  0  0  0  0  0  0  0  0  0  0
   -2.4769   60.7963   82.2335 C   0  0  0  0  0  0  0  0  0  0  0  0
   -2.8028   61.4153   83.5938 C   0  0  0  0  0  0  0  0  0  0  0  0
   -2.9410   59.3395   82.1986 C   0  0  0  0  0  0  0  0  0  0  0  0
    1.9995   69.3866   81.2835 S   0  0  0  0  0  0  0  0  0  0  0  0
    1.4577   69.4057   79.9409 O   0  0  0  0  0  0  0  0  0  0  0  0
    3.4082   69.6118   81.5217 O   0  0  0  0  0  0  0  0  0  0  0  0
    1.1011   70.4735   82.2280 N   0  0  0  0  0  0  0  0  0  0  0  0
   -0.2750   70.8176   81.7573 C   0  0  0  0  0  0  0  0  0  0  0  0
   -0.2753   71.9466   80.7044 C   0  0  0  0  0  0  0  0  0  0  0  0
    0.4579   73.1486   81.1514 N   0  0  0  0  0  0  0  0  0  0  0  0
    0.4878   74.1562   80.0924 C   0  0  0  0  0  0  0  0  0  0  0  0
    1.8311   72.7784   81.5536 C   0  0  0  0  0  0  0  0  0  0  0  0
    1.8319   71.7039   82.6557 C   0  0  0  0  0  0  0  0  0  0  0  0
    0.6483   64.0764   83.6054 O   0  0  0  0  0  0  0  0  0  0  0  0
   -0.3824   63.9455   84.5879 C   0  0  0  0  0  0  0  0  0  0  0  0
   -1.0378   62.4978   86.5579 C   0  0  0  0  0  0  0  0  0  0  0  0
    0.1156   63.1972   85.8339 C   0  0  0  0  0  0  0  0  0  0  0  0
    0.8322   64.1598   86.7786 C   0  0  0  0  0  0  0  0  0  0  0  0
 36 37  1  0  0  0
 37 38  1  0  0  0
 37 35  1  0  0  0
 35 34  1  0  0  0
 34  1  1  0  0  0
  1  2  1  0  0  0
  2  3  2  0  0  0
  3  4  1  0  0  0
  4 24  1  0  0  0
 24 25  2  0  0  0
 24 26  2  0  0  0
 24 27  1  0  0  0
 27 28  1  0  0  0
 28 29  1  0  0  0
 29 30  1  0  0  0
 30 31  1  0  0  0
 30 32  1  0  0  0
 32 33  1  0  0  0
  4  5  2  0  0  0
  5  6  1  0  0  0
  6  7  1  0  0  0
  7  8  2  0  0  0
  8  9  1  0  0  0
  9 10  1  0  0  0
 10 11  2  0  0  0
 10 12  1  0  0  0
 12 13  1  0  0  0
 12 14  1  0  0  0
 14 15  2  0  0  0
 14 16  1  0  0  0
 16 20  1  0  0  0
 20 21  1  0  0  0
 21 22  1  0  0  0
 21 23  1  0  0  0
 16 17  1  0  0  0
 17 18  1  0  0  0
  6  1  2  0  0  0
 18  7  1  0  0  0
 33 27  1  0  0  0
 17  9  2  0  0  0
 18 19  1  0  0  0
M  END
> <minimizedAffinity>
-10.17728

$$$$



 38 41  0  0  0  0  0  0  0  0999 V2000
    0.8811   65.5336   80.9920 C   0  0  0  0  0  0  0  0  0  0  0  0
    1.3023   66.3949   79.9677 C   0  0  0  0  0  0  0  0  0  0  0  0
    1.9613   67.5907   80.2644 C   0  0  0  0  0  0  0  0  0  0  0  0
    2.2063   67.9290   81.5925 C   0  0  0  0  0  0  0  0  0  0  0  0
    1.7910   67.0897   82.6272 C   0  0  0  0  0  0  0  0  0  0  0  0
    1.1189   65.8876   82.3445 C   0  0  0  0  0  0  0  0  0  0  0  0
    0.6823   65.0677   83.4876 C   0  0  0  0  0  0  0  0  0  0  0  0
    1.2792   64.9865   84.6694 N   0  0  0  0  0  0  0  0  0  0  0  0
    0.5117   64.1288   85.4223 C   0  0  0  0  0  0  0  0  0  0  0  0
    0.6940   63.6950   86.7889 C   0  0  0  0  0  0  0  0  0  0  0  0
    1.6309   64.0707   87.4887 O   0  0  0  0  0  0  0  0  0  0  0  0
   -0.3115   62.8114   87.2228 N   0  0  0  0  0  0  0  0  0  0  0  0
   -0.2242   62.3151   88.5819 C   0  0  0  0  0  0  0  0  0  0  0  0
   -1.4173   62.3576   86.4708 C   0  0  0  0  0  0  0  0  0  0  0  0
   -2.2524   61.5904   86.9586 O   0  0  0  0  0  0  0  0  0  0  0  0
   -1.5314   62.8183   85.1463 N   0  0  0  0  0  0  0  0  0  0  0  0
   -0.5551   63.6811   84.6991 C   0  0  0  0  0  0  0  0  0  0  0  0
   -0.4411   64.2652   83.4770 N   0  0  0  0  0  0  0  0  0  0  0  0
   -1.0590   64.1744   82.6830 H   0  0  0  0  0  0  0  0  0  0  0  0
   -2.6661   62.3884   84.3271 C   0  0  0  0  0  0  0  0  0  0  0  0
   -2.2445   61.8107   82.9621 C   0  0  0  0  0  0  0  0  0  0  0  0
   -2.7680   60.3805   82.8197 C   0  0  0  0  0  0  0  0  0  0  0  0
   -2.7439   62.6674   81.7978 C   0  0  0  0  0  0  0  0  0  0  0  0
    3.0405   69.4464   81.9858 S   0  0  0  0  0  0  0  0  0  0  0  0
    3.4585   70.0568   80.7411 O   0  0  0  0  0  0  0  0  0  0  0  0
    4.0002   69.1352   83.0222 O   0  0  0  0  0  0  0  0  0  0  0  0
    1.8039   70.4008   82.6495 N   0  0  0  0  0  0  0  0  0  0  0  0
    0.5191   70.4854   81.8906 C   0  0  0  0  0  0  0  0  0  0  0  0
    0.5586   71.5546   80.7777 C   0  0  0  0  0  0  0  0  0  0  0  0
    0.9819   72.8811   81.2708 N   0  0  0  0  0  0  0  0  0  0  0  0
    1.0711   73.8357   80.1670 C   0  0  0  0  0  0  0  0  0  0  0  0
    2.2822   72.7675   81.9642 C   0  0  0  0  0  0  0  0  0  0  0  0
    2.2243   71.7542   83.1212 C   0  0  0  0  0  0  0  0  0  0  0  0
    0.2341   64.3410   80.7717 O   0  0  0  0  0  0  0  0  0  0  0  0
    0.2161   63.7658   79.4627 C   0  0  0  0  0  0  0  0  0  0  0  0
   -0.6875   61.4663   78.9130 C   0  0  0  0  0  0  0  0  0  0  0  0
    0.4841   62.2536   79.5056 C   0  0  0  0  0  0  0  0  0  0  0  0
    0.7569   61.8046   80.9396 C   0  0  0  0  0  0  0  0  0  0  0  0
 36 37  1  0  0  0
 37 38  1  0  0  0
 37 35  1  0  0  0
 35 34  1  0  0  0
 34  1  1  0  0  0
  1  2  1  0  0  0
  2  3  2  0  0  0
  3  4  1  0  0  0
  4 24  1  0  0  0
 24 25  2  0  0  0
 24 26  2  0  0  0
 24 27  1  0  0  0
 27 28  1  0  0  0
 28 29  1  0  0  0
 29 30  1  0  0  0
 30 31  1  0  0  0
 30 32  1  0  0  0
 32 33  1  0  0  0
  4  5  2  0  0  0
  5  6  1  0  0  0
  6  7  1  0  0  0
  7  8  2  0  0  0
  8  9  1  0  0  0
  9 10  1  0  0  0
 10 11  2  0  0  0
 10 12  1  0  0  0
 12 13  1  0  0  0
 12 14  1  0  0  0
 14 15  2  0  0  0
 14 16  1  0  0  0
 16 20  1  0  0  0
 20 21  1  0  0  0
 21 22  1  0  0  0
 21 23  1  0  0  0
 16 17  1  0  0  0
 17 18  1  0  0  0
  6  1  2  0  0  0
 18  7  1  0  0  0
 33 27  1  0  0  0
 17  9  2  0  0  0
 18 19  1  0  0  0
M  END
> <minimizedAffinity>
-10.15428

$$$$



 38 41  0  0  0  0  0  0  0  0999 V2000
   -0.6768   63.5403   84.4031 C   0  0  0  0  0  0  0  0  0  0  0  0
   -1.4780   62.4117   84.6326 C   0  0  0  0  0  0  0  0  0  0  0  0
   -2.1298   61.7702   83.5763 C   0  0  0  0  0  0  0  0  0  0  0  0
   -1.9787   62.2550   82.2799 C   0  0  0  0  0  0  0  0  0  0  0  0
   -1.1911   63.3794   82.0297 C   0  0  0  0  0  0  0  0  0  0  0  0
   -0.5364   64.0407   83.0835 C   0  0  0  0  0  0  0  0  0  0  0  0
    0.2519   65.2391   82.7489 C   0  0  0  0  0  0  0  0  0  0  0  0
    0.1422   65.9688   81.6466 N   0  0  0  0  0  0  0  0  0  0  0  0
    1.0520   66.9918   81.7785 C   0  0  0  0  0  0  0  0  0  0  0  0
    1.3422   68.0828   80.8761 C   0  0  0  0  0  0  0  0  0  0  0  0
    0.7654   68.2315   79.8019 O   0  0  0  0  0  0  0  0  0  0  0  0
    2.3413   68.9462   81.3623 N   0  0  0  0  0  0  0  0  0  0  0  0
    2.7091   70.0770   80.5334 C   0  0  0  0  0  0  0  0  0  0  0  0
    3.0265   68.8348   82.5921 C   0  0  0  0  0  0  0  0  0  0  0  0
    3.8791   69.6621   82.9276 O   0  0  0  0  0  0  0  0  0  0  0  0
    2.6955   67.7470   83.4206 N   0  0  0  0  0  0  0  0  0  0  0  0
    1.7227   66.8862   82.9619 C   0  0  0  0  0  0  0  0  0  0  0  0
    1.2251   65.7759   83.5679 N   0  0  0  0  0  0  0  0  0  0  0  0
    1.4772   65.3911   84.4674 H   0  0  0  0  0  0  0  0  0  0  0  0
    3.3672   67.5918   84.7122 C   0  0  0  0  0  0  0  0  0  0  0  0
    4.6432   66.7313   84.6330 C   0  0  0  0  0  0  0  0  0  0  0  0
    5.8618   67.5735   85.0145 C   0  0  0  0  0  0  0  0  0  0  0  0
    4.5595   65.4973   85.5324 C   0  0  0  0  0  0  0  0  0  0  0  0
   -2.8027   61.4522   80.9272 S   0  0  0  0  0  0  0  0  0  0  0  0
   -4.1299   62.0204   80.8178 O   0  0  0  0  0  0  0  0  0  0  0  0
   -2.6139   60.0302   81.1121 O   0  0  0  0  0  0  0  0  0  0  0  0
   -1.9029   61.9561   79.5792 N   0  0  0  0  0  0  0  0  0  0  0  0
   -2.6614   62.3177   78.3432 C   0  0  0  0  0  0  0  0  0  0  0  0
   -3.0068   61.0858   77.4793 C   0  0  0  0  0  0  0  0  0  0  0  0
   -1.8258   60.2564   77.1639 N   0  0  0  0  0  0  0  0  0  0  0  0
   -2.2187   59.0688   76.4072 C   0  0  0  0  0  0  0  0  0  0  0  0
   -1.1354   59.8705   78.4125 C   0  0  0  0  0  0  0  0  0  0  0  0
   -0.7257   61.1014   79.2408 C   0  0  0  0  0  0  0  0  0  0  0  0
   -0.0033   64.2153   85.3931 O   0  0  0  0  0  0  0  0  0  0  0  0
    0.5475   63.4999   86.5020 C   0  0  0  0  0  0  0  0  0  0  0  0
    0.5446   63.2210   89.0176 C   0  0  0  0  0  0  0  0  0  0  0  0
   -0.1460   63.8781   87.8198 C   0  0  0  0  0  0  0  0  0  0  0  0
   -1.6211   63.4853   87.7737 C   0  0  0  0  0  0  0  0  0  0  0  0
 36 37  1  0  0  0
 37 38  1  0  0  0
 37 35  1  0  0  0
 35 34  1  0  0  0
 34  1  1  0  0  0
  1  2  1  0  0  0
  2  3  2  0  0  0
  3  4  1  0  0  0
  4 24  1  0  0  0
 24 25  2  0  0  0
 24 26  2  0  0  0
 24 27  1  0  0  0
 27 28  1  0  0  0
 28 29  1  0  0  0
 29 30  1  0  0  0
 30 31  1  0  0  0
 30 32  1  0  0  0
 32 33  1  0  0  0
  4  5  2  0  0  0
  5  6  1  0  0  0
  6  7  1  0  0  0
  7  8  2  0  0  0
  8  9  1  0  0  0
  9 10  1  0  0  0
 10 11  2  0  0  0
 10 12  1  0  0  0
 12 13  1  0  0  0
 12 14  1  0  0  0
 14 15  2  0  0  0
 14 16  1  0  0  0
 16 20  1  0  0  0
 20 21  1  0  0  0
 21 22  1  0  0  0
 21 23  1  0  0  0
 16 17  1  0  0  0
 17 18  1  0  0  0
  6  1  2  0  0  0
 18  7  1  0  0  0
 33 27  1  0  0  0
 17  9  2  0  0  0
 18 19  1  0  0  0
M  END
> <minimizedAffinity>
-10.13867

$$$$



 38 41  0  0  0  0  0  0  0  0999 V2000
    0.8589   65.4715   81.1162 C   0  0  0  0  0  0  0  0  0  0  0  0
    1.2439   66.3476   80.0902 C   0  0  0  0  0  0  0  0  0  0  0  0
    1.7991   67.5952   80.3857 C   0  0  0  0  0  0  0  0  0  0  0  0
    1.9759   67.9713   81.7145 C   0  0  0  0  0  0  0  0  0  0  0  0
    1.5949   67.1178   82.7507 C   0  0  0  0  0  0  0  0  0  0  0  0
    1.0266   65.8630   82.4689 C   0  0  0  0  0  0  0  0  0  0  0  0
    0.6195   65.0288   83.6124 C   0  0  0  0  0  0  0  0  0  0  0  0
    1.2162   64.9729   84.7958 N   0  0  0  0  0  0  0  0  0  0  0  0
    0.4808   64.0874   85.5485 C   0  0  0  0  0  0  0  0  0  0  0  0
    0.6764   63.6634   86.9163 C   0  0  0  0  0  0  0  0  0  0  0  0
    1.5963   64.0764   87.6176 O   0  0  0  0  0  0  0  0  0  0  0  0
   -0.2949   62.7421   87.3495 N   0  0  0  0  0  0  0  0  0  0  0  0
   -0.1918   62.2519   88.7097 C   0  0  0  0  0  0  0  0  0  0  0  0
   -1.3804   62.2443   86.5957 C   0  0  0  0  0  0  0  0  0  0  0  0
   -2.1863   61.4461   87.0830 O   0  0  0  0  0  0  0  0  0  0  0  0
   -1.5092   62.6979   85.2701 N   0  0  0  0  0  0  0  0  0  0  0  0
   -0.5661   63.5973   84.8236 C   0  0  0  0  0  0  0  0  0  0  0  0
   -0.4718   64.1832   83.6007 N   0  0  0  0  0  0  0  0  0  0  0  0
   -1.0839   64.0670   82.8054 H   0  0  0  0  0  0  0  0  0  0  0  0
   -2.6243   62.2228   84.4490 C   0  0  0  0  0  0  0  0  0  0  0  0
   -2.1935   61.7848   83.0356 C   0  0  0  0  0  0  0  0  0  0  0  0
   -2.7067   60.3722   82.7510 C   0  0  0  0  0  0  0  0  0  0  0  0
   -2.6943   62.7486   81.9590 C   0  0  0  0  0  0  0  0  0  0  0  0
    2.6779   69.5547   82.1062 S   0  0  0  0  0  0  0  0  0  0  0  0
    4.0784   69.3537   82.4138 O   0  0  0  0  0  0  0  0  0  0  0  0
    1.7875   70.1781   83.0604 O   0  0  0  0  0  0  0  0  0  0  0  0
    2.5785   70.3911   80.6327 N   0  0  0  0  0  0  0  0  0  0  0  0
    3.8123   70.4491   79.7912 C   0  0  0  0  0  0  0  0  0  0  0  0
    4.7648   71.5876   80.2152 C   0  0  0  0  0  0  0  0  0  0  0  0
    4.0946   72.9023   80.2807 N   0  0  0  0  0  0  0  0  0  0  0  0
    5.0213   73.9289   80.7548 C   0  0  0  0  0  0  0  0  0  0  0  0
    2.9143   72.8206   81.1665 C   0  0  0  0  0  0  0  0  0  0  0  0
    1.9280   71.7338   80.7027 C   0  0  0  0  0  0  0  0  0  0  0  0
    0.3131   64.2291   80.8974 O   0  0  0  0  0  0  0  0  0  0  0  0
    0.2878   63.6790   79.5777 C   0  0  0  0  0  0  0  0  0  0  0  0
   -0.7287   61.4262   79.0316 C   0  0  0  0  0  0  0  0  0  0  0  0
    0.4930   62.1564   79.5955 C   0  0  0  0  0  0  0  0  0  0  0  0
    0.7909   61.6788   81.0152 C   0  0  0  0  0  0  0  0  0  0  0  0
 36 37  1  0  0  0
 37 38  1  0  0  0
 37 35  1  0  0  0
 35 34  1  0  0  0
 34  1  1  0  0  0
  1  2  1  0  0  0
  2  3  2  0  0  0
  3  4  1  0  0  0
  4 24  1  0  0  0
 24 25  2  0  0  0
 24 26  2  0  0  0
 24 27  1  0  0  0
 27 28  1  0  0  0
 28 29  1  0  0  0
 29 30  1  0  0  0
 30 31  1  0  0  0
 30 32  1  0  0  0
 32 33  1  0  0  0
  4  5  2  0  0  0
  5  6  1  0  0  0
  6  7  1  0  0  0
  7  8  2  0  0  0
  8  9  1  0  0  0
  9 10  1  0  0  0
 10 11  2  0  0  0
 10 12  1  0  0  0
 12 13  1  0  0  0
 12 14  1  0  0  0
 14 15  2  0  0  0
 14 16  1  0  0  0
 16 20  1  0  0  0
 20 21  1  0  0  0
 21 22  1  0  0  0
 21 23  1  0  0  0
 16 17  1  0  0  0
 17 18  1  0  0  0
  6  1  2  0  0  0
 18  7  1  0  0  0
 33 27  1  0  0  0
 17  9  2  0  0  0
 18 19  1  0  0  0
M  END
> <minimizedAffinity>
-10.09795

$$$$



 38 41  0  0  0  0  0  0  0  0999 V2000
    3.0543   66.9455   84.2184 C   0  0  0  0  0  0  0  0  0  0  0  0
    3.9121   68.0552   84.2537 C   0  0  0  0  0  0  0  0  0  0  0  0
    3.6957   69.1536   83.4178 C   0  0  0  0  0  0  0  0  0  0  0  0
    2.6131   69.1480   82.5423 C   0  0  0  0  0  0  0  0  0  0  0  0
    1.7506   68.0525   82.4868 C   0  0  0  0  0  0  0  0  0  0  0  0
    1.9608   66.9363   83.3154 C   0  0  0  0  0  0  0  0  0  0  0  0
    1.0290   65.8037   83.1797 C   0  0  0  0  0  0  0  0  0  0  0  0
    0.3999   65.4324   82.0725 N   0  0  0  0  0  0  0  0  0  0  0  0
   -0.3372   64.3217   82.4110 C   0  0  0  0  0  0  0  0  0  0  0  0
   -1.1985   63.5062   81.5851 C   0  0  0  0  0  0  0  0  0  0  0  0
   -1.3875   63.7313   80.3926 O   0  0  0  0  0  0  0  0  0  0  0  0
   -1.7829   62.4375   82.2896 N   0  0  0  0  0  0  0  0  0  0  0  0
   -2.6661   61.5549   81.5532 C   0  0  0  0  0  0  0  0  0  0  0  0
   -1.5915   62.1210   83.6524 C   0  0  0  0  0  0  0  0  0  0  0  0
   -2.1450   61.1452   84.1675 O   0  0  0  0  0  0  0  0  0  0  0  0
   -0.7416   62.9588   84.3977 N   0  0  0  0  0  0  0  0  0  0  0  0
   -0.1621   64.0144   83.7287 C   0  0  0  0  0  0  0  0  0  0  0  0
    0.6908   64.9547   84.2146 N   0  0  0  0  0  0  0  0  0  0  0  0
    1.0561   65.0392   85.1527 H   0  0  0  0  0  0  0  0  0  0  0  0
   -0.4989   62.6680   85.8118 C   0  0  0  0  0  0  0  0  0  0  0  0
   -1.3122   63.5659   86.7643 C   0  0  0  0  0  0  0  0  0  0  0  0
   -2.6280   62.8770   87.1301 C   0  0  0  0  0  0  0  0  0  0  0  0
   -0.5324   63.9095   88.0342 C   0  0  0  0  0  0  0  0  0  0  0  0
    2.3262   70.5355   81.4719 S   0  0  0  0  0  0  0  0  0  0  0  0
    1.4857   70.0866   80.3817 O   0  0  0  0  0  0  0  0  0  0  0  0
    3.6167   71.1374   81.2187 O   0  0  0  0  0  0  0  0  0  0  0  0
    1.4109   71.5840   82.4433 N   0  0  0  0  0  0  0  0  0  0  0  0
    0.0922   72.0404   81.9083 C   0  0  0  0  0  0  0  0  0  0  0  0
    0.2248   73.2538   80.9632 C   0  0  0  0  0  0  0  0  0  0  0  0
    0.9778   74.3721   81.5671 N   0  0  0  0  0  0  0  0  0  0  0  0
    1.1353   75.4636   80.6073 C   0  0  0  0  0  0  0  0  0  0  0  0
    2.2976   73.8958   82.0315 C   0  0  0  0  0  0  0  0  0  0  0  0
    2.1644   72.7323   83.0303 C   0  0  0  0  0  0  0  0  0  0  0  0
    3.2046   65.8360   85.0157 O   0  0  0  0  0  0  0  0  0  0  0  0
    4.5008   65.2660   85.2147 C   0  0  0  0  0  0  0  0  0  0  0  0
    6.7395   66.1751   85.9686 C   0  0  0  0  0  0  0  0  0  0  0  0
    5.2667   65.9810   86.3384 C   0  0  0  0  0  0  0  0  0  0  0  0
    5.1437   65.1985   87.6442 C   0  0  0  0  0  0  0  0  0  0  0  0
 36 37  1  0  0  0
 37 38  1  0  0  0
 37 35  1  0  0  0
 35 34  1  0  0  0
 34  1  1  0  0  0
  1  2  1  0  0  0
  2  3  2  0  0  0
  3  4  1  0  0  0
  4 24  1  0  0  0
 24 25  2  0  0  0
 24 26  2  0  0  0
 24 27  1  0  0  0
 27 28  1  0  0  0
 28 29  1  0  0  0
 29 30  1  0  0  0
 30 31  1  0  0  0
 30 32  1  0  0  0
 32 33  1  0  0  0
  4  5  2  0  0  0
  5  6  1  0  0  0
  6  7  1  0  0  0
  7  8  2  0  0  0
  8  9  1  0  0  0
  9 10  1  0  0  0
 10 11  2  0  0  0
 10 12  1  0  0  0
 12 13  1  0  0  0
 12 14  1  0  0  0
 14 15  2  0  0  0
 14 16  1  0  0  0
 16 20  1  0  0  0
 20 21  1  0  0  0
 21 22  1  0  0  0
 21 23  1  0  0  0
 16 17  1  0  0  0
 17 18  1  0  0  0
  6  1  2  0  0  0
 18  7  1  0  0  0
 33 27  1  0  0  0
 17  9  2  0  0  0
 18 19  1  0  0  0
M  END
> <minimizedAffinity>
-9.94578

$$$$



 38 41  0  0  0  0  0  0  0  0999 V2000
   -0.8658   63.2857   84.8991 C   0  0  0  0  0  0  0  0  0  0  0  0
   -1.9290   62.3875   84.7225 C   0  0  0  0  0  0  0  0  0  0  0  0
   -2.4201   62.1023   83.4460 C   0  0  0  0  0  0  0  0  0  0  0  0
   -1.8443   62.7141   82.3357 C   0  0  0  0  0  0  0  0  0  0  0  0
   -0.7895   63.6148   82.4888 C   0  0  0  0  0  0  0  0  0  0  0  0
   -0.2906   63.9185   83.7677 C   0  0  0  0  0  0  0  0  0  0  0  0
    0.8024   64.9019   83.8552 C   0  0  0  0  0  0  0  0  0  0  0  0
    1.9339   64.7604   84.5329 N   0  0  0  0  0  0  0  0  0  0  0  0
    2.6561   65.9088   84.3068 C   0  0  0  0  0  0  0  0  0  0  0  0
    3.9665   66.2784   84.7917 C   0  0  0  0  0  0  0  0  0  0  0  0
    4.6371   65.5524   85.5211 O   0  0  0  0  0  0  0  0  0  0  0  0
    4.3839   67.5425   84.3359 N   0  0  0  0  0  0  0  0  0  0  0  0
    5.6874   68.0105   84.7638 C   0  0  0  0  0  0  0  0  0  0  0  0
    3.6651   68.4121   83.4866 C   0  0  0  0  0  0  0  0  0  0  0  0
    4.1356   69.4979   83.1349 O   0  0  0  0  0  0  0  0  0  0  0  0
    2.3947   67.9898   83.0541 N   0  0  0  0  0  0  0  0  0  0  0  0
    1.9641   66.7567   83.4921 C   0  0  0  0  0  0  0  0  0  0  0  0
    0.7920   66.1259   83.2165 N   0  0  0  0  0  0  0  0  0  0  0  0
    0.0327   66.4489   82.6338 H   0  0  0  0  0  0  0  0  0  0  0  0
    1.6129   68.8481   82.1622 C   0  0  0  0  0  0  0  0  0  0  0  0
    1.6640   68.3986   80.6890 C   0  0  0  0  0  0  0  0  0  0  0  0
    0.2531   68.0716   80.1968 C   0  0  0  0  0  0  0  0  0  0  0  0
    2.2984   69.4587   79.7876 C   0  0  0  0  0  0  0  0  0  0  0  0
   -2.4589   62.3638   80.7070 S   0  0  0  0  0  0  0  0  0  0  0  0
   -1.7848   63.2486   79.7801 O   0  0  0  0  0  0  0  0  0  0  0  0
   -3.9019   62.3453   80.8037 O   0  0  0  0  0  0  0  0  0  0  0  0
   -1.9061   60.7846   80.4220 N   0  0  0  0  0  0  0  0  0  0  0  0
   -0.7976   60.6127   79.4345 C   0  0  0  0  0  0  0  0  0  0  0  0
   -1.3066   60.5498   77.9784 C   0  0  0  0  0  0  0  0  0  0  0  0
   -2.3643   59.5372   77.7833 N   0  0  0  0  0  0  0  0  0  0  0  0
   -2.8593   59.5691   76.4080 C   0  0  0  0  0  0  0  0  0  0  0  0
   -3.4682   59.7742   78.7371 C   0  0  0  0  0  0  0  0  0  0  0  0
   -2.9737   59.7651   80.1946 C   0  0  0  0  0  0  0  0  0  0  0  0
   -0.3301   63.6068   86.1235 O   0  0  0  0  0  0  0  0  0  0  0  0
   -0.8882   63.0534   87.3180 C   0  0  0  0  0  0  0  0  0  0  0  0
    1.4515   63.6791   88.0532 C   0  0  0  0  0  0  0  0  0  0  0  0
    0.0742   63.1895   88.5079 C   0  0  0  0  0  0  0  0  0  0  0  0
    0.1985   61.8569   89.2436 C   0  0  0  0  0  0  0  0  0  0  0  0
 36 37  1  0  0  0
 37 38  1  0  0  0
 37 35  1  0  0  0
 35 34  1  0  0  0
 34  1  1  0  0  0
  1  2  1  0  0  0
  2  3  2  0  0  0
  3  4  1  0  0  0
  4 24  1  0  0  0
 24 25  2  0  0  0
 24 26  2  0  0  0
 24 27  1  0  0  0
 27 28  1  0  0  0
 28 29  1  0  0  0
 29 30  1  0  0  0
 30 31  1  0  0  0
 30 32  1  0  0  0
 32 33  1  0  0  0
  4  5  2  0  0  0
  5  6  1  0  0  0
  6  7  1  0  0  0
  7  8  2  0  0  0
  8  9  1  0  0  0
  9 10  1  0  0  0
 10 11  2  0  0  0
 10 12  1  0  0  0
 12 13  1  0  0  0
 12 14  1  0  0  0
 14 15  2  0  0  0
 14 16  1  0  0  0
 16 20  1  0  0  0
 20 21  1  0  0  0
 21 22  1  0  0  0
 21 23  1  0  0  0
 16 17  1  0  0  0
 17 18  1  0  0  0
  6  1  2  0  0  0
 18  7  1  0  0  0
 33 27  1  0  0  0
 17  9  2  0  0  0
 18 19  1  0  0  0
M  END
> <minimizedAffinity>
-9.88631

$$$$



 38 41  0  0  0  0  0  0  0  0999 V2000
    1.0523   65.7272   80.2192 C   0  0  0  0  0  0  0  0  0  0  0  0
    1.1337   65.9487   78.8362 C   0  0  0  0  0  0  0  0  0  0  0  0
    0.4689   65.1109   77.9371 C   0  0  0  0  0  0  0  0  0  0  0  0
   -0.2866   64.0460   78.4204 C   0  0  0  0  0  0  0  0  0  0  0  0
   -0.3768   63.8040   79.7917 C   0  0  0  0  0  0  0  0  0  0  0  0
    0.2939   64.6330   80.7080 C   0  0  0  0  0  0  0  0  0  0  0  0
    0.1792   64.2985   82.1378 C   0  0  0  0  0  0  0  0  0  0  0  0
   -0.6083   63.3715   82.6669 N   0  0  0  0  0  0  0  0  0  0  0  0
   -0.3651   63.3965   84.0203 C   0  0  0  0  0  0  0  0  0  0  0  0
   -0.9398   62.5865   85.0704 C   0  0  0  0  0  0  0  0  0  0  0  0
   -1.7795   61.7158   84.8573 O   0  0  0  0  0  0  0  0  0  0  0  0
   -0.4320   62.8993   86.3449 N   0  0  0  0  0  0  0  0  0  0  0  0
   -0.9421   62.1434   87.4716 C   0  0  0  0  0  0  0  0  0  0  0  0
    0.5419   63.8759   86.6481 C   0  0  0  0  0  0  0  0  0  0  0  0
    0.9282   64.0573   87.8064 O   0  0  0  0  0  0  0  0  0  0  0  0
    1.0570   64.6297   85.5776 N   0  0  0  0  0  0  0  0  0  0  0  0
    0.5703   64.3431   84.3211 C   0  0  0  0  0  0  0  0  0  0  0  0
    0.9051   64.9179   83.1357 N   0  0  0  0  0  0  0  0  0  0  0  0
    1.5775   65.6528   82.9676 H   0  0  0  0  0  0  0  0  0  0  0  0
    2.0781   65.6466   85.8354 C   0  0  0  0  0  0  0  0  0  0  0  0
    3.4797   65.2378   85.3420 C   0  0  0  0  0  0  0  0  0  0  0  0
    4.0339   66.3122   84.4048 C   0  0  0  0  0  0  0  0  0  0  0  0
    4.4504   65.0049   86.5006 C   0  0  0  0  0  0  0  0  0  0  0  0
   -1.1353   62.9709   77.2903 S   0  0  0  0  0  0  0  0  0  0  0  0
   -0.1368   62.2928   76.4905 O   0  0  0  0  0  0  0  0  0  0  0  0
   -2.1765   63.7603   76.6700 O   0  0  0  0  0  0  0  0  0  0  0  0
   -1.8514   61.8257   78.3180 N   0  0  0  0  0  0  0  0  0  0  0  0
   -0.9783   60.7314   78.8414 C   0  0  0  0  0  0  0  0  0  0  0  0
   -0.8452   59.5553   77.8503 C   0  0  0  0  0  0  0  0  0  0  0  0
   -2.1517   59.0337   77.3997 N   0  0  0  0  0  0  0  0  0  0  0  0
   -1.9685   57.9724   76.4110 C   0  0  0  0  0  0  0  0  0  0  0  0
   -2.9637   60.1326   76.8361 C   0  0  0  0  0  0  0  0  0  0  0  0
   -3.1582   61.2749   77.8491 C   0  0  0  0  0  0  0  0  0  0  0  0
    1.6747   66.5143   81.1586 O   0  0  0  0  0  0  0  0  0  0  0  0
    1.8432   67.9146   80.9231 C   0  0  0  0  0  0  0  0  0  0  0  0
    0.4588   69.9241   81.5951 C   0  0  0  0  0  0  0  0  0  0  0  0
    1.3093   68.7534   82.0945 C   0  0  0  0  0  0  0  0  0  0  0  0
    2.4662   69.2627   82.9517 C   0  0  0  0  0  0  0  0  0  0  0  0
 36 37  1  0  0  0
 37 38  1  0  0  0
 37 35  1  0  0  0
 35 34  1  0  0  0
 34  1  1  0  0  0
  1  2  1  0  0  0
  2  3  2  0  0  0
  3  4  1  0  0  0
  4 24  1  0  0  0
 24 25  2  0  0  0
 24 26  2  0  0  0
 24 27  1  0  0  0
 27 28  1  0  0  0
 28 29  1  0  0  0
 29 30  1  0  0  0
 30 31  1  0  0  0
 30 32  1  0  0  0
 32 33  1  0  0  0
  4  5  2  0  0  0
  5  6  1  0  0  0
  6  7  1  0  0  0
  7  8  2  0  0  0
  8  9  1  0  0  0
  9 10  1  0  0  0
 10 11  2  0  0  0
 10 12  1  0  0  0
 12 13  1  0  0  0
 12 14  1  0  0  0
 14 15  2  0  0  0
 14 16  1  0  0  0
 16 20  1  0  0  0
 20 21  1  0  0  0
 21 22  1  0  0  0
 21 23  1  0  0  0
 16 17  1  0  0  0
 17 18  1  0  0  0
  6  1  2  0  0  0
 18  7  1  0  0  0
 33 27  1  0  0  0
 17  9  2  0  0  0
 18 19  1  0  0  0
M  END
> <minimizedAffinity>
-9.57723

$$$$
