
     RDKit          3D

 59 61  0  0  0  0  0  0  0  0999 V2000
    6.2524   -2.4417    0.5007 C   0  0  0  0  0  0  0  0  0  0  0  0
    4.9635   -3.0158    0.3400 O   0  0  0  0  0  0  0  0  0  0  0  0
    3.9546   -2.2065   -0.1175 C   0  0  0  0  0  0  0  0  0  0  0  0
    4.0970   -0.8514   -0.4163 C   0  0  0  0  0  0  0  0  0  0  0  0
    3.0135   -0.0826   -0.8791 C   0  0  0  0  0  0  0  0  0  0  0  0
    3.2092    1.2769   -1.1389 C   0  0  0  0  0  0  0  0  0  0  0  0
    2.1741    2.1069   -1.5890 C   0  0  0  0  0  0  0  0  0  0  0  0
    2.4860    3.5745   -1.7923 C   0  0  0  0  0  0  0  0  0  0  0  0
    1.9575    4.3495   -0.7284 O   0  0  0  0  0  0  0  0  0  0  0  0
    0.8853    1.5602   -1.7938 C   0  0  0  0  0  0  0  0  0  0  0  0
   -0.2340    2.4893   -2.2165 C   0  0  0  0  0  0  0  0  0  0  0  0
   -0.5694    3.3230   -1.1124 O   0  0  0  0  0  0  0  0  0  0  0  0
    0.6639    0.1711   -1.5385 C   0  0  0  0  0  0  0  0  0  0  0  0
   -0.7353   -0.4163   -1.7265 C   0  0  0  0  0  0  0  0  0  0  0  0
   -1.7216   -0.0695   -0.6282 C   0  0  0  0  0  0  0  0  0  0  0  0
   -1.3650   -0.1250    0.7303 C   0  0  0  0  0  0  0  0  0  0  0  0
   -2.2929    0.1766    1.7335 C   0  0  0  0  0  0  0  0  0  0  0  0
   -2.0203    0.1490    3.0776 O   0  0  0  0  0  0  0  0  0  0  0  0
   -0.6575    0.0273    3.4656 C   0  0  0  0  0  0  0  0  0  0  0  0
   -3.6094    0.5112    1.3711 C   0  0  0  0  0  0  0  0  0  0  0  0
   -4.5297    0.7822    2.3558 O   0  0  0  0  0  0  0  0  0  0  0  0
   -5.1497   -0.4316    2.7830 C   0  0  0  0  0  0  0  0  0  0  0  0
   -3.9722    0.6003    0.0216 C   0  0  0  0  0  0  0  0  0  0  0  0
   -5.2152    0.9312   -0.4512 O   0  0  0  0  0  0  0  0  0  0  0  0
   -5.8017    2.0658    0.1840 C   0  0  0  0  0  0  0  0  0  0  0  0
   -3.0382    0.2755   -0.9648 C   0  0  0  0  0  0  0  0  0  0  0  0
    1.7396   -0.6621   -1.0659 C   0  0  0  0  0  0  0  0  0  0  0  0
    1.6224   -2.0417   -0.7434 C   0  0  0  0  0  0  0  0  0  0  0  0
    2.7015   -2.8090   -0.2796 C   0  0  0  0  0  0  0  0  0  0  0  0
    2.6273   -4.1409    0.0456 O   0  0  0  0  0  0  0  0  0  0  0  0
    1.3845   -4.8048   -0.1295 C   0  0  0  0  0  0  0  0  0  0  0  0
    6.9262   -3.2268    0.8575 H   0  0  0  0  0  0  0  0  0  0  0  0
    6.6447   -2.0763   -0.4540 H   0  0  0  0  0  0  0  0  0  0  0  0
    6.2396   -1.6477    1.2546 H   0  0  0  0  0  0  0  0  0  0  0  0
    5.0577   -0.3616   -0.2885 H   0  0  0  0  0  0  0  0  0  0  0  0
    4.1923    1.7167   -0.9686 H   0  0  0  0  0  0  0  0  0  0  0  0
    2.0915    3.9405   -2.7451 H   0  0  0  0  0  0  0  0  0  0  0  0
    3.5675    3.7457   -1.8243 H   0  0  0  0  0  0  0  0  0  0  0  0
    0.9998    4.1440   -0.6846 H   0  0  0  0  0  0  0  0  0  0  0  0
   -1.1392    1.9899   -2.5617 H   0  0  0  0  0  0  0  0  0  0  0  0
    0.0833    3.1208   -3.0522 H   0  0  0  0  0  0  0  0  0  0  0  0
   -0.9664    2.7363   -0.4401 H   0  0  0  0  0  0  0  0  0  0  0  0
   -0.7217   -1.5037   -1.8368 H   0  0  0  0  0  0  0  0  0  0  0  0
   -1.1124   -0.0842   -2.7023 H   0  0  0  0  0  0  0  0  0  0  0  0
   -0.3518   -0.4137    0.9919 H   0  0  0  0  0  0  0  0  0  0  0  0
   -0.2668   -0.9641    3.2146 H   0  0  0  0  0  0  0  0  0  0  0  0
   -0.6091    0.1374    4.5532 H   0  0  0  0  0  0  0  0  0  0  0  0
   -0.0440    0.8195    3.0232 H   0  0  0  0  0  0  0  0  0  0  0  0
   -5.6638   -0.9283    1.9526 H   0  0  0  0  0  0  0  0  0  0  0  0
   -4.4262   -1.1126    3.2436 H   0  0  0  0  0  0  0  0  0  0  0  0
   -5.8989   -0.1751    3.5379 H   0  0  0  0  0  0  0  0  0  0  0  0
   -5.0576    2.8082    0.4946 H   0  0  0  0  0  0  0  0  0  0  0  0
   -6.4627    2.5461   -0.5443 H   0  0  0  0  0  0  0  0  0  0  0  0
   -6.4199    1.7509    1.0293 H   0  0  0  0  0  0  0  0  0  0  0  0
   -3.3488    0.3108   -2.0075 H   0  0  0  0  0  0  0  0  0  0  0  0
    0.6603   -2.5263   -0.8428 H   0  0  0  0  0  0  0  0  0  0  0  0
    1.0707   -4.7874   -1.1784 H   0  0  0  0  0  0  0  0  0  0  0  0
    1.5209   -5.8516    0.1584 H   0  0  0  0  0  0  0  0  0  0  0  0
    0.6148   -4.3791    0.5226 H   0  0  0  0  0  0  0  0  0  0  0  0
  1  2  1  0
  2  3  1  0
  3  4  1  0
  4  5  2  0
  5  6  1  0
  6  7  2  0
  7  8  1  0
  8  9  1  0
  7 10  1  0
 10 11  1  0
 11 12  1  0
 10 13  2  0
 13 14  1  0
 14 15  1  0
 15 16  1  0
 16 17  2  0
 17 18  1  0
 18 19  1  0
 17 20  1  0
 20 21  1  0
 21 22  1  0
 20 23  2  0
 23 24  1  0
 24 25  1  0
 23 26  1  0
 13 27  1  0
 27 28  2  0
 28 29  1  0
 29 30  1  0
 30 31  1  0
 29  3  2  0
 27  5  1  0
 26 15  2  0
  1 32  1  0
  1 33  1  0
  1 34  1  0
  4 35  1  0
  6 36  1  0
  8 37  1  0
  8 38  1  0
  9 39  1  0
 11 40  1  0
 11 41  1  0
 12 42  1  0
 14 43  1  0
 14 44  1  0
 16 45  1  0
 19 46  1  0
 19 47  1  0
 19 48  1  0
 22 49  1  0
 22 50  1  0
 22 51  1  0
 25 52  1  0
 25 53  1  0
 25 54  1  0
 26 55  1  0
 28 56  1  0
 31 57  1  0
 31 58  1  0
 31 59  1  0
M  END
$$$$
