


 39 43  0  0  0  0  0  0  0  0999 V2000
    2.1872   66.1522   84.2969 C   0  0  0  0  0  0  0  0  0  0  0  0
    1.7792   66.9476   83.2088 C   0  0  0  0  0  0  0  0  0  0  0  0
    2.6475   67.8921   82.6628 C   0  0  0  0  0  0  0  0  0  0  0  0
    3.9202   68.0744   83.1971 C   0  0  0  0  0  0  0  0  0  0  0  0
    4.3327   67.2968   84.2816 C   0  0  0  0  0  0  0  0  0  0  0  0
    3.4802   66.3349   84.8453 C   0  0  0  0  0  0  0  0  0  0  0  0
   -1.2292   62.5848   83.9076 C   0  0  0  0  0  0  0  0  0  0  0  0
   -1.9371   61.9173   84.8394 N   0  0  0  0  0  0  0  0  0  0  0  0
   -1.5073   62.4386   86.0157 N   0  0  0  0  0  0  0  0  0  0  0  0
   -2.0600   61.9605   87.2598 C   0  0  0  0  0  0  0  0  0  0  0  0
   -0.5593   63.3998   85.8578 C   0  0  0  0  0  0  0  0  0  0  0  0
    0.1437   64.1893   86.7991 C   0  0  0  0  0  0  0  0  0  0  0  0
    0.0252   64.1319   88.0173 O   0  0  0  0  0  0  0  0  0  0  0  0
    1.0086   65.0579   86.1735 N   0  0  0  0  0  0  0  0  0  0  0  0
    1.1884   65.1393   84.7967 C   0  0  0  0  0  0  0  0  0  0  0  0
    0.5417   64.3989   83.9368 N   0  0  0  0  0  0  0  0  0  0  0  0
   -0.3621   63.5072   84.5148 C   0  0  0  0  0  0  0  0  0  0  0  0
    1.5619   65.6438   86.7849 H   0  0  0  0  0  0  0  0  0  0  0  0
   -1.4131   62.3003   82.4568 C   0  0  0  0  0  0  0  0  0  0  0  0
    0.8733   61.3646   81.8249 C   0  0  0  0  0  0  0  0  0  0  0  0
   -0.6180   61.0893   81.9635 C   0  0  0  0  0  0  0  0  0  0  0  0
    2.1331   68.9045   81.2975 S   0  0  0  0  0  0  0  0  0  0  0  0
    3.2736   69.6511   80.8124 O   0  0  0  0  0  0  0  0  0  0  0  0
    1.3557   68.0607   80.4150 O   0  0  0  0  0  0  0  0  0  0  0  0
    1.0745   70.0111   82.0425 N   0  0  0  0  0  0  0  0  0  0  0  0
    1.7209   71.1976   82.6910 C   0  0  0  0  0  0  0  0  0  0  0  0
    1.4816   72.4890   81.8872 C   0  0  0  0  0  0  0  0  0  0  0  0
    0.0539   72.8627   81.8163 N   0  0  0  0  0  0  0  0  0  0  0  0
   -0.7962   71.6539   81.6837 C   0  0  0  0  0  0  0  0  0  0  0  0
   -0.0737   70.3960   81.1622 C   0  0  0  0  0  0  0  0  0  0  0  0
   -0.2547   73.9088   80.8125 C   0  0  0  0  0  0  0  0  0  0  0  0
   -1.3866   73.5132   79.8324 C   0  0  0  0  0  0  0  0  0  0  0  0
   -1.6351   74.5822   78.7690 C   0  0  0  0  0  0  0  0  0  0  0  0
   -0.3691   74.9082   77.9900 C   0  0  0  0  0  0  0  0  0  0  0  0
    0.7650   75.2996   78.9265 C   0  0  0  0  0  0  0  0  0  0  0  0
    1.0158   74.2292   79.9874 C   0  0  0  0  0  0  0  0  0  0  0  0
    3.8347   65.5384   85.9039 O   0  0  0  0  0  0  0  0  0  0  0  0
    5.2019   65.1713   86.1042 C   0  0  0  0  0  0  0  0  0  0  0  0
    5.6436   65.4893   87.5218 C   0  0  0  0  0  0  0  0  0  0  0  0
 20 21  1  0  0  0
 21 19  1  0  0  0
 19  7  1  0  0  0
  7  8  2  0  0  0
  8  9  1  0  0  0
  9 10  1  0  0  0
  9 11  1  0  0  0
 11 12  1  0  0  0
 12 13  2  0  0  0
 12 14  1  0  0  0
 14 15  1  0  0  0
 15  1  1  0  0  0
  1  2  1  0  0  0
  2  3  2  0  0  0
  3 22  1  0  0  0
 22 23  2  0  0  0
 22 24  2  0  0  0
 22 25  1  0  0  0
 25 26  1  0  0  0
 26 27  1  0  0  0
 27 28  1  0  0  0
 28 31  1  0  0  0
 31 32  1  0  0  0
 32 33  1  0  0  0
 33 34  1  0  0  0
 34 35  1  0  0  0
 35 36  1  0  0  0
 28 29  1  0  0  0
 29 30  1  0  0  0
  3  4  1  0  0  0
  4  5  2  0  0  0
  5  6  1  0  0  0
  6 37  1  0  0  0
 37 38  1  0  0  0
 38 39  1  0  0  0
 15 16  2  0  0  0
 16 17  1  0  0  0
 17  7  1  0  0  0
 17 11  2  0  0  0
  6  1  2  0  0  0
 30 25  1  0  0  0
 36 31  1  0  0  0
 14 18  1  0  0  0
M  END
> <minimizedAffinity>
-10.49214

$$$$



 39 43  0  0  0  0  0  0  0  0999 V2000
    2.2166   66.3085   84.2874 C   0  0  0  0  0  0  0  0  0  0  0  0
    1.7271   67.2382   83.3497 C   0  0  0  0  0  0  0  0  0  0  0  0
    2.5638   68.2299   82.8393 C   0  0  0  0  0  0  0  0  0  0  0  0
    3.8865   68.3261   83.2633 C   0  0  0  0  0  0  0  0  0  0  0  0
    4.3805   67.4144   84.1992 C   0  0  0  0  0  0  0  0  0  0  0  0
    3.5607   66.4030   84.7234 C   0  0  0  0  0  0  0  0  0  0  0  0
   -1.0748   62.6381   83.7929 C   0  0  0  0  0  0  0  0  0  0  0  0
   -1.7750   61.9343   84.7037 N   0  0  0  0  0  0  0  0  0  0  0  0
   -1.3809   62.4521   85.8939 N   0  0  0  0  0  0  0  0  0  0  0  0
   -1.9370   61.9383   87.1222 C   0  0  0  0  0  0  0  0  0  0  0  0
   -0.4626   63.4458   85.7649 C   0  0  0  0  0  0  0  0  0  0  0  0
    0.1995   64.2440   86.7284 C   0  0  0  0  0  0  0  0  0  0  0  0
    0.0638   64.1650   87.9436 O   0  0  0  0  0  0  0  0  0  0  0  0
    1.0451   65.1493   86.1292 N   0  0  0  0  0  0  0  0  0  0  0  0
    1.2437   65.2565   84.7567 C   0  0  0  0  0  0  0  0  0  0  0  0
    0.6351   64.5081   83.8761 N   0  0  0  0  0  0  0  0  0  0  0  0
   -0.2479   63.5792   84.4269 C   0  0  0  0  0  0  0  0  0  0  0  0
    1.5693   65.7439   86.7575 H   0  0  0  0  0  0  0  0  0  0  0  0
   -1.2265   62.3688   82.3355 C   0  0  0  0  0  0  0  0  0  0  0  0
    1.0438   61.2772   81.9398 C   0  0  0  0  0  0  0  0  0  0  0  0
   -0.4694   61.1272   81.8589 C   0  0  0  0  0  0  0  0  0  0  0  0
    1.9476   69.4108   81.6648 S   0  0  0  0  0  0  0  0  0  0  0  0
    2.2813   68.9619   80.3303 O   0  0  0  0  0  0  0  0  0  0  0  0
    0.5809   69.7058   82.0394 O   0  0  0  0  0  0  0  0  0  0  0  0
    2.8972   70.7849   81.9965 N   0  0  0  0  0  0  0  0  0  0  0  0
    3.3890   71.5428   80.8007 C   0  0  0  0  0  0  0  0  0  0  0  0
    2.6503   72.8830   80.6303 C   0  0  0  0  0  0  0  0  0  0  0  0
    2.8840   73.8124   81.7550 N   0  0  0  0  0  0  0  0  0  0  0  0
    2.9398   73.0731   83.0401 C   0  0  0  0  0  0  0  0  0  0  0  0
    2.2806   71.6797   83.0263 C   0  0  0  0  0  0  0  0  0  0  0  0
    1.9654   74.9754   81.7875 C   0  0  0  0  0  0  0  0  0  0  0  0
    2.0424   75.7897   83.1025 C   0  0  0  0  0  0  0  0  0  0  0  0
    1.0371   76.9403   83.1337 C   0  0  0  0  0  0  0  0  0  0  0  0
   -0.3870   76.4514   82.9126 C   0  0  0  0  0  0  0  0  0  0  0  0
   -0.4958   75.6443   81.6268 C   0  0  0  0  0  0  0  0  0  0  0  0
    0.5068   74.4919   81.5973 C   0  0  0  0  0  0  0  0  0  0  0  0
    3.9941   65.4766   85.6371 O   0  0  0  0  0  0  0  0  0  0  0  0
    5.3922   65.3034   85.8808 C   0  0  0  0  0  0  0  0  0  0  0  0
    5.7461   65.7073   87.3012 C   0  0  0  0  0  0  0  0  0  0  0  0
 20 21  1  0  0  0
 21 19  1  0  0  0
 19  7  1  0  0  0
  7  8  2  0  0  0
  8  9  1  0  0  0
  9 10  1  0  0  0
  9 11  1  0  0  0
 11 12  1  0  0  0
 12 13  2  0  0  0
 12 14  1  0  0  0
 14 15  1  0  0  0
 15  1  1  0  0  0
  1  2  1  0  0  0
  2  3  2  0  0  0
  3 22  1  0  0  0
 22 23  2  0  0  0
 22 24  2  0  0  0
 22 25  1  0  0  0
 25 26  1  0  0  0
 26 27  1  0  0  0
 27 28  1  0  0  0
 28 31  1  0  0  0
 31 32  1  0  0  0
 32 33  1  0  0  0
 33 34  1  0  0  0
 34 35  1  0  0  0
 35 36  1  0  0  0
 28 29  1  0  0  0
 29 30  1  0  0  0
  3  4  1  0  0  0
  4  5  2  0  0  0
  5  6  1  0  0  0
  6 37  1  0  0  0
 37 38  1  0  0  0
 38 39  1  0  0  0
 15 16  2  0  0  0
 16 17  1  0  0  0
 17  7  1  0  0  0
 17 11  2  0  0  0
  6  1  2  0  0  0
 30 25  1  0  0  0
 36 31  1  0  0  0
 14 18  1  0  0  0
M  END
> <minimizedAffinity>
-10.21509

$$$$



 39 43  0  0  0  0  0  0  0  0999 V2000
    1.4335   65.8154   83.8034 C   0  0  0  0  0  0  0  0  0  0  0  0
    0.6320   66.0265   82.6650 C   0  0  0  0  0  0  0  0  0  0  0  0
    1.0633   66.8780   81.6486 C   0  0  0  0  0  0  0  0  0  0  0  0
    2.2812   67.5445   81.7542 C   0  0  0  0  0  0  0  0  0  0  0  0
    3.0807   67.3491   82.8828 C   0  0  0  0  0  0  0  0  0  0  0  0
    2.6723   66.4923   83.9166 C   0  0  0  0  0  0  0  0  0  0  0  0
   -1.6659   62.4141   85.6406 C   0  0  0  0  0  0  0  0  0  0  0  0
   -1.7021   61.7859   86.8318 N   0  0  0  0  0  0  0  0  0  0  0  0
   -0.6377   62.2919   87.5034 N   0  0  0  0  0  0  0  0  0  0  0  0
   -0.3563   61.8470   88.8469 C   0  0  0  0  0  0  0  0  0  0  0  0
    0.0628   63.2057   86.7811 C   0  0  0  0  0  0  0  0  0  0  0  0
    1.2160   63.9653   87.0927 C   0  0  0  0  0  0  0  0  0  0  0  0
    1.8449   63.9196   88.1433 O   0  0  0  0  0  0  0  0  0  0  0  0
    1.5677   64.7882   86.0474 N   0  0  0  0  0  0  0  0  0  0  0  0
    0.8942   64.8541   84.8322 C   0  0  0  0  0  0  0  0  0  0  0  0
   -0.1635   64.1413   84.5508 N   0  0  0  0  0  0  0  0  0  0  0  0
   -0.5757   63.2969   85.5819 C   0  0  0  0  0  0  0  0  0  0  0  0
    2.3968   65.3500   86.1898 H   0  0  0  0  0  0  0  0  0  0  0  0
   -2.6883   62.1315   84.5944 C   0  0  0  0  0  0  0  0  0  0  0  0
   -3.0383   60.3854   82.7693 C   0  0  0  0  0  0  0  0  0  0  0  0
   -2.1182   61.4523   83.3471 C   0  0  0  0  0  0  0  0  0  0  0  0
    0.0508   67.1553   80.2163 S   0  0  0  0  0  0  0  0  0  0  0  0
   -1.3352   66.9450   80.5749 O   0  0  0  0  0  0  0  0  0  0  0  0
    0.4934   68.3977   79.6200 O   0  0  0  0  0  0  0  0  0  0  0  0
    0.5145   65.8787   79.1890 N   0  0  0  0  0  0  0  0  0  0  0  0
    1.0057   64.6376   79.8707 C   0  0  0  0  0  0  0  0  0  0  0  0
   -0.0183   63.4915   79.7780 C   0  0  0  0  0  0  0  0  0  0  0  0
   -0.2638   63.0544   78.3881 N   0  0  0  0  0  0  0  0  0  0  0  0
   -0.2604   64.2173   77.4668 C   0  0  0  0  0  0  0  0  0  0  0  0
   -0.5061   65.5852   78.1337 C   0  0  0  0  0  0  0  0  0  0  0  0
   -1.4491   62.1796   78.2231 C   0  0  0  0  0  0  0  0  0  0  0  0
   -2.4539   62.2686   79.3983 C   0  0  0  0  0  0  0  0  0  0  0  0
   -3.6297   61.3067   79.2321 C   0  0  0  0  0  0  0  0  0  0  0  0
   -3.1624   59.8685   79.0609 C   0  0  0  0  0  0  0  0  0  0  0  0
   -2.1705   59.7477   77.9129 C   0  0  0  0  0  0  0  0  0  0  0  0
   -0.9931   60.7067   78.0809 C   0  0  0  0  0  0  0  0  0  0  0  0
    3.4195   66.2564   85.0422 O   0  0  0  0  0  0  0  0  0  0  0  0
    4.8362   66.4481   85.0207 C   0  0  0  0  0  0  0  0  0  0  0  0
    5.2573   67.4739   86.0581 C   0  0  0  0  0  0  0  0  0  0  0  0
 20 21  1  0  0  0
 21 19  1  0  0  0
 19  7  1  0  0  0
  7  8  2  0  0  0
  8  9  1  0  0  0
  9 10  1  0  0  0
  9 11  1  0  0  0
 11 12  1  0  0  0
 12 13  2  0  0  0
 12 14  1  0  0  0
 14 15  1  0  0  0
 15  1  1  0  0  0
  1  2  1  0  0  0
  2  3  2  0  0  0
  3 22  1  0  0  0
 22 23  2  0  0  0
 22 24  2  0  0  0
 22 25  1  0  0  0
 25 26  1  0  0  0
 26 27  1  0  0  0
 27 28  1  0  0  0
 28 31  1  0  0  0
 31 32  1  0  0  0
 32 33  1  0  0  0
 33 34  1  0  0  0
 34 35  1  0  0  0
 35 36  1  0  0  0
 28 29  1  0  0  0
 29 30  1  0  0  0
  3  4  1  0  0  0
  4  5  2  0  0  0
  5  6  1  0  0  0
  6 37  1  0  0  0
 37 38  1  0  0  0
 38 39  1  0  0  0
 15 16  2  0  0  0
 16 17  1  0  0  0
 17  7  1  0  0  0
 17 11  2  0  0  0
  6  1  2  0  0  0
 30 25  1  0  0  0
 36 31  1  0  0  0
 14 18  1  0  0  0
M  END
> <minimizedAffinity>
-10.20279

$$$$



 39 43  0  0  0  0  0  0  0  0999 V2000
    1.7640   66.2231   84.0795 C   0  0  0  0  0  0  0  0  0  0  0  0
    1.1139   67.0615   83.1536 C   0  0  0  0  0  0  0  0  0  0  0  0
    1.8267   68.0533   82.4809 C   0  0  0  0  0  0  0  0  0  0  0  0
    3.1839   68.2401   82.7292 C   0  0  0  0  0  0  0  0  0  0  0  0
    3.8373   67.4195   83.6517 C   0  0  0  0  0  0  0  0  0  0  0  0
    3.1440   66.4100   84.3372 C   0  0  0  0  0  0  0  0  0  0  0  0
   -1.4820   62.4831   84.2420 C   0  0  0  0  0  0  0  0  0  0  0  0
   -1.9915   61.7837   85.2746 N   0  0  0  0  0  0  0  0  0  0  0  0
   -1.4012   62.3311   86.3664 N   0  0  0  0  0  0  0  0  0  0  0  0
   -1.7160   61.8302   87.6824 C   0  0  0  0  0  0  0  0  0  0  0  0
   -0.5428   63.3392   86.0589 C   0  0  0  0  0  0  0  0  0  0  0  0
    0.2642   64.1676   86.8752 C   0  0  0  0  0  0  0  0  0  0  0  0
    0.3510   64.1090   88.0960 O   0  0  0  0  0  0  0  0  0  0  0  0
    0.9684   65.0771   86.1197 N   0  0  0  0  0  0  0  0  0  0  0  0
    0.9146   65.1621   84.7324 C   0  0  0  0  0  0  0  0  0  0  0  0
    0.1739   64.3860   83.9874 N   0  0  0  0  0  0  0  0  0  0  0  0
   -0.5753   63.4513   84.7023 C   0  0  0  0  0  0  0  0  0  0  0  0
    1.5839   65.6931   86.6342 H   0  0  0  0  0  0  0  0  0  0  0  0
   -1.8874   62.1837   82.8401 C   0  0  0  0  0  0  0  0  0  0  0  0
   -2.7044   59.8550   82.1981 C   0  0  0  0  0  0  0  0  0  0  0  0
   -3.0791   61.2293   82.7365 C   0  0  0  0  0  0  0  0  0  0  0  0
    1.0085   69.1197   81.3204 S   0  0  0  0  0  0  0  0  0  0  0  0
   -0.3155   69.4250   81.8179 O   0  0  0  0  0  0  0  0  0  0  0  0
    1.9443   70.1698   80.9788 O   0  0  0  0  0  0  0  0  0  0  0  0
    0.8258   68.1090   79.9620 N   0  0  0  0  0  0  0  0  0  0  0  0
    1.9570   67.1626   79.6956 C   0  0  0  0  0  0  0  0  0  0  0  0
    1.5765   65.7088   80.0308 C   0  0  0  0  0  0  0  0  0  0  0  0
    0.4814   65.1938   79.1831 N   0  0  0  0  0  0  0  0  0  0  0  0
   -0.5207   66.2563   78.9223 C   0  0  0  0  0  0  0  0  0  0  0  0
   -0.5084   67.4311   79.9203 C   0  0  0  0  0  0  0  0  0  0  0  0
   -0.1196   63.9270   79.6642 C   0  0  0  0  0  0  0  0  0  0  0  0
    0.8875   62.7531   79.7420 C   0  0  0  0  0  0  0  0  0  0  0  0
    0.2248   61.4461   80.1756 C   0  0  0  0  0  0  0  0  0  0  0  0
   -0.9343   61.0715   79.2634 C   0  0  0  0  0  0  0  0  0  0  0  0
   -1.9426   62.2072   79.1639 C   0  0  0  0  0  0  0  0  0  0  0  0
   -1.2806   63.5130   78.7270 C   0  0  0  0  0  0  0  0  0  0  0  0
    3.7354   65.5705   85.2462 O   0  0  0  0  0  0  0  0  0  0  0  0
    4.9932   65.9137   85.8329 C   0  0  0  0  0  0  0  0  0  0  0  0
    5.1889   65.1877   87.1522 C   0  0  0  0  0  0  0  0  0  0  0  0
 20 21  1  0  0  0
 21 19  1  0  0  0
 19  7  1  0  0  0
  7  8  2  0  0  0
  8  9  1  0  0  0
  9 10  1  0  0  0
  9 11  1  0  0  0
 11 12  1  0  0  0
 12 13  2  0  0  0
 12 14  1  0  0  0
 14 15  1  0  0  0
 15  1  1  0  0  0
  1  2  1  0  0  0
  2  3  2  0  0  0
  3 22  1  0  0  0
 22 23  2  0  0  0
 22 24  2  0  0  0
 22 25  1  0  0  0
 25 26  1  0  0  0
 26 27  1  0  0  0
 27 28  1  0  0  0
 28 31  1  0  0  0
 31 32  1  0  0  0
 32 33  1  0  0  0
 33 34  1  0  0  0
 34 35  1  0  0  0
 35 36  1  0  0  0
 28 29  1  0  0  0
 29 30  1  0  0  0
  3  4  1  0  0  0
  4  5  2  0  0  0
  5  6  1  0  0  0
  6 37  1  0  0  0
 37 38  1  0  0  0
 38 39  1  0  0  0
 15 16  2  0  0  0
 16 17  1  0  0  0
 17  7  1  0  0  0
 17 11  2  0  0  0
  6  1  2  0  0  0
 30 25  1  0  0  0
 36 31  1  0  0  0
 14 18  1  0  0  0
M  END
> <minimizedAffinity>
-10.05980

$$$$



 39 43  0  0  0  0  0  0  0  0999 V2000
    2.3789   66.4489   83.8069 C   0  0  0  0  0  0  0  0  0  0  0  0
    2.1460   67.4280   82.8220 C   0  0  0  0  0  0  0  0  0  0  0  0
    3.0490   68.4752   82.6432 C   0  0  0  0  0  0  0  0  0  0  0  0
    4.1812   68.5772   83.4472 C   0  0  0  0  0  0  0  0  0  0  0  0
    4.4181   67.6162   84.4329 C   0  0  0  0  0  0  0  0  0  0  0  0
    3.5280   66.5490   84.6287 C   0  0  0  0  0  0  0  0  0  0  0  0
   -0.7763   63.3787   86.0805 C   0  0  0  0  0  0  0  0  0  0  0  0
   -1.5664   62.3952   85.6076 N   0  0  0  0  0  0  0  0  0  0  0  0
   -1.3283   62.3948   84.2722 N   0  0  0  0  0  0  0  0  0  0  0  0
   -2.0083   61.4498   83.4199 C   0  0  0  0  0  0  0  0  0  0  0  0
   -0.4267   63.3379   83.8914 C   0  0  0  0  0  0  0  0  0  0  0  0
    0.1013   63.6743   82.6218 C   0  0  0  0  0  0  0  0  0  0  0  0
   -0.1943   63.1453   81.5568 O   0  0  0  0  0  0  0  0  0  0  0  0
    1.0139   64.6999   82.7177 N   0  0  0  0  0  0  0  0  0  0  0  0
    1.3608   65.3408   83.9024 C   0  0  0  0  0  0  0  0  0  0  0  0
    0.8601   65.0293   85.0679 N   0  0  0  0  0  0  0  0  0  0  0  0
   -0.0625   63.9835   85.0336 C   0  0  0  0  0  0  0  0  0  0  0  0
    1.4212   65.0091   81.8450 H   0  0  0  0  0  0  0  0  0  0  0  0
   -0.7452   63.7039   87.5340 C   0  0  0  0  0  0  0  0  0  0  0  0
    0.2973   62.1592   89.2745 C   0  0  0  0  0  0  0  0  0  0  0  0
    0.5353   63.2485   88.2374 C   0  0  0  0  0  0  0  0  0  0  0  0
    2.7536   69.7179   81.4096 S   0  0  0  0  0  0  0  0  0  0  0  0
    3.8721   70.6356   81.3921 O   0  0  0  0  0  0  0  0  0  0  0  0
    2.3266   69.0295   80.2100 O   0  0  0  0  0  0  0  0  0  0  0  0
    1.4139   70.5538   82.0472 N   0  0  0  0  0  0  0  0  0  0  0  0
    1.7072   71.8941   82.6503 C   0  0  0  0  0  0  0  0  0  0  0  0
    1.1940   73.0439   81.7640 C   0  0  0  0  0  0  0  0  0  0  0  0
   -0.2761   73.0402   81.6161 N   0  0  0  0  0  0  0  0  0  0  0  0
   -0.7876   71.6507   81.5212 C   0  0  0  0  0  0  0  0  0  0  0  0
    0.2535   70.5940   81.1022 C   0  0  0  0  0  0  0  0  0  0  0  0
   -0.7843   73.9263   80.5419 C   0  0  0  0  0  0  0  0  0  0  0  0
   -1.7784   73.2285   79.5810 C   0  0  0  0  0  0  0  0  0  0  0  0
   -2.2317   74.1464   78.4463 C   0  0  0  0  0  0  0  0  0  0  0  0
   -1.0510   74.6944   77.6580 C   0  0  0  0  0  0  0  0  0  0  0  0
   -0.0528   75.3857   78.5757 C   0  0  0  0  0  0  0  0  0  0  0  0
    0.4031   74.4668   79.7080 C   0  0  0  0  0  0  0  0  0  0  0  0
    3.7143   65.5733   85.5742 O   0  0  0  0  0  0  0  0  0  0  0  0
    5.0352   65.1678   85.9416 C   0  0  0  0  0  0  0  0  0  0  0  0
    5.2605   65.3506   87.4321 C   0  0  0  0  0  0  0  0  0  0  0  0
 20 21  1  0  0  0
 21 19  1  0  0  0
 19  7  1  0  0  0
  7  8  2  0  0  0
  8  9  1  0  0  0
  9 10  1  0  0  0
  9 11  1  0  0  0
 11 12  1  0  0  0
 12 13  2  0  0  0
 12 14  1  0  0  0
 14 15  1  0  0  0
 15  1  1  0  0  0
  1  2  1  0  0  0
  2  3  2  0  0  0
  3 22  1  0  0  0
 22 23  2  0  0  0
 22 24  2  0  0  0
 22 25  1  0  0  0
 25 26  1  0  0  0
 26 27  1  0  0  0
 27 28  1  0  0  0
 28 31  1  0  0  0
 31 32  1  0  0  0
 32 33  1  0  0  0
 33 34  1  0  0  0
 34 35  1  0  0  0
 35 36  1  0  0  0
 28 29  1  0  0  0
 29 30  1  0  0  0
  3  4  1  0  0  0
  4  5  2  0  0  0
  5  6  1  0  0  0
  6 37  1  0  0  0
 37 38  1  0  0  0
 38 39  1  0  0  0
 15 16  2  0  0  0
 16 17  1  0  0  0
 17  7  1  0  0  0
 17 11  2  0  0  0
  6  1  2  0  0  0
 30 25  1  0  0  0
 36 31  1  0  0  0
 14 18  1  0  0  0
M  END
> <minimizedAffinity>
-9.83525

$$$$



 39 43  0  0  0  0  0  0  0  0999 V2000
    0.6657   65.3174   82.7713 C   0  0  0  0  0  0  0  0  0  0  0  0
    0.8844   66.4145   81.9160 C   0  0  0  0  0  0  0  0  0  0  0  0
    1.5725   67.5375   82.3737 C   0  0  0  0  0  0  0  0  0  0  0  0
    2.0351   67.5970   83.6856 C   0  0  0  0  0  0  0  0  0  0  0  0
    1.8168   66.5179   84.5452 C   0  0  0  0  0  0  0  0  0  0  0  0
    1.1327   65.3735   84.1072 C   0  0  0  0  0  0  0  0  0  0  0  0
   -0.5390   62.0464   79.2500 C   0  0  0  0  0  0  0  0  0  0  0  0
   -1.4138   61.0219   79.2409 N   0  0  0  0  0  0  0  0  0  0  0  0
   -1.9561   61.0407   80.4841 N   0  0  0  0  0  0  0  0  0  0  0  0
   -2.9601   60.0698   80.8465 C   0  0  0  0  0  0  0  0  0  0  0  0
   -1.4546   62.0303   81.2693 C   0  0  0  0  0  0  0  0  0  0  0  0
   -1.7368   62.4035   82.6053 C   0  0  0  0  0  0  0  0  0  0  0  0
   -2.5327   61.8492   83.3540 O   0  0  0  0  0  0  0  0  0  0  0  0
   -0.9898   63.4948   82.9860 N   0  0  0  0  0  0  0  0  0  0  0  0
   -0.0613   64.1387   82.1749 C   0  0  0  0  0  0  0  0  0  0  0  0
    0.1991   63.7802   80.9462 N   0  0  0  0  0  0  0  0  0  0  0  0
   -0.5413   62.6852   80.5004 C   0  0  0  0  0  0  0  0  0  0  0  0
   -1.1239   63.8088   83.9381 H   0  0  0  0  0  0  0  0  0  0  0  0
    0.2764   62.3679   78.0454 C   0  0  0  0  0  0  0  0  0  0  0  0
   -0.4942   64.6604   77.2373 C   0  0  0  0  0  0  0  0  0  0  0  0
   -0.4870   63.1594   76.9810 C   0  0  0  0  0  0  0  0  0  0  0  0
    1.8409   68.9275   81.3016 S   0  0  0  0  0  0  0  0  0  0  0  0
    3.2152   69.3610   81.4322 O   0  0  0  0  0  0  0  0  0  0  0  0
    1.2805   68.5815   80.0126 O   0  0  0  0  0  0  0  0  0  0  0  0
    0.8559   70.1258   82.0043 N   0  0  0  0  0  0  0  0  0  0  0  0
    1.5782   71.2768   82.6364 C   0  0  0  0  0  0  0  0  0  0  0  0
    1.4461   72.5629   81.8000 C   0  0  0  0  0  0  0  0  0  0  0  0
    0.0509   73.0382   81.6977 N   0  0  0  0  0  0  0  0  0  0  0  0
   -0.8837   71.8920   81.5786 C   0  0  0  0  0  0  0  0  0  0  0  0
   -0.2481   70.5727   81.0972 C   0  0  0  0  0  0  0  0  0  0  0  0
   -0.1654   74.0802   80.6658 C   0  0  0  0  0  0  0  0  0  0  0  0
   -1.3103   73.7461   79.6777 C   0  0  0  0  0  0  0  0  0  0  0  0
   -1.4641   74.8050   78.5866 C   0  0  0  0  0  0  0  0  0  0  0  0
   -0.1669   75.0178   77.8199 C   0  0  0  0  0  0  0  0  0  0  0  0
    0.9803   75.3464   78.7645 C   0  0  0  0  0  0  0  0  0  0  0  0
    1.1364   74.2859   79.8531 C   0  0  0  0  0  0  0  0  0  0  0  0
    0.8974   64.2824   84.9041 O   0  0  0  0  0  0  0  0  0  0  0  0
    0.5268   64.4562   86.2739 C   0  0  0  0  0  0  0  0  0  0  0  0
   -0.5443   63.4569   86.6737 C   0  0  0  0  0  0  0  0  0  0  0  0
 20 21  1  0  0  0
 21 19  1  0  0  0
 19  7  1  0  0  0
  7  8  2  0  0  0
  8  9  1  0  0  0
  9 10  1  0  0  0
  9 11  1  0  0  0
 11 12  1  0  0  0
 12 13  2  0  0  0
 12 14  1  0  0  0
 14 15  1  0  0  0
 15  1  1  0  0  0
  1  2  1  0  0  0
  2  3  2  0  0  0
  3 22  1  0  0  0
 22 23  2  0  0  0
 22 24  2  0  0  0
 22 25  1  0  0  0
 25 26  1  0  0  0
 26 27  1  0  0  0
 27 28  1  0  0  0
 28 31  1  0  0  0
 31 32  1  0  0  0
 32 33  1  0  0  0
 33 34  1  0  0  0
 34 35  1  0  0  0
 35 36  1  0  0  0
 28 29  1  0  0  0
 29 30  1  0  0  0
  3  4  1  0  0  0
  4  5  2  0  0  0
  5  6  1  0  0  0
  6 37  1  0  0  0
 37 38  1  0  0  0
 38 39  1  0  0  0
 15 16  2  0  0  0
 16 17  1  0  0  0
 17  7  1  0  0  0
 17 11  2  0  0  0
  6  1  2  0  0  0
 30 25  1  0  0  0
 36 31  1  0  0  0
 14 18  1  0  0  0
M  END
> <minimizedAffinity>
-9.76584

$$$$



 39 43  0  0  0  0  0  0  0  0999 V2000
    0.2482   64.0177   85.5365 C   0  0  0  0  0  0  0  0  0  0  0  0
   -0.4877   63.4954   84.4555 C   0  0  0  0  0  0  0  0  0  0  0  0
   -1.5413   62.6110   84.6833 C   0  0  0  0  0  0  0  0  0  0  0  0
   -1.8671   62.2184   85.9789 C   0  0  0  0  0  0  0  0  0  0  0  0
   -1.1386   62.7238   87.0582 C   0  0  0  0  0  0  0  0  0  0  0  0
   -0.0778   63.6202   86.8562 C   0  0  0  0  0  0  0  0  0  0  0  0
    2.3269   67.8648   83.2066 C   0  0  0  0  0  0  0  0  0  0  0  0
    3.5669   68.3875   83.2715 N   0  0  0  0  0  0  0  0  0  0  0  0
    4.2073   67.6050   84.1757 N   0  0  0  0  0  0  0  0  0  0  0  0
    5.5877   67.8666   84.5046 C   0  0  0  0  0  0  0  0  0  0  0  0
    3.4192   66.6192   84.6802 C   0  0  0  0  0  0  0  0  0  0  0  0
    3.6804   65.5994   85.6265 C   0  0  0  0  0  0  0  0  0  0  0  0
    4.7395   65.4193   86.2157 O   0  0  0  0  0  0  0  0  0  0  0  0
    2.5735   64.8054   85.8216 N   0  0  0  0  0  0  0  0  0  0  0  0
    1.3480   64.9891   85.1897 C   0  0  0  0  0  0  0  0  0  0  0  0
    1.1142   65.9398   84.3252 N   0  0  0  0  0  0  0  0  0  0  0  0
    2.2079   66.7691   84.0764 C   0  0  0  0  0  0  0  0  0  0  0  0
    2.6787   64.0636   86.5011 H   0  0  0  0  0  0  0  0  0  0  0  0
    1.2949   68.4511   82.3062 C   0  0  0  0  0  0  0  0  0  0  0  0
    1.9508   66.8325   80.4482 C   0  0  0  0  0  0  0  0  0  0  0  0
    0.8128   67.4898   81.2175 C   0  0  0  0  0  0  0  0  0  0  0  0
   -2.4650   61.9417   83.3223 S   0  0  0  0  0  0  0  0  0  0  0  0
   -3.1825   60.7695   83.7748 O   0  0  0  0  0  0  0  0  0  0  0  0
   -3.1535   63.0489   82.6936 O   0  0  0  0  0  0  0  0  0  0  0  0
   -1.2341   61.4154   82.2697 N   0  0  0  0  0  0  0  0  0  0  0  0
   -1.6429   60.4060   81.2401 C   0  0  0  0  0  0  0  0  0  0  0  0
   -1.7054   61.0214   79.8300 C   0  0  0  0  0  0  0  0  0  0  0  0
   -0.3895   61.4951   79.3535 N   0  0  0  0  0  0  0  0  0  0  0  0
    0.3844   62.0950   80.4682 C   0  0  0  0  0  0  0  0  0  0  0  0
   -0.4529   62.5485   81.6805 C   0  0  0  0  0  0  0  0  0  0  0  0
   -0.4501   62.3594   78.1507 C   0  0  0  0  0  0  0  0  0  0  0  0
    0.0696   63.7978   78.3939 C   0  0  0  0  0  0  0  0  0  0  0  0
   -0.0686   64.6831   77.1559 C   0  0  0  0  0  0  0  0  0  0  0  0
   -1.5046   64.7316   76.6543 C   0  0  0  0  0  0  0  0  0  0  0  0
   -2.0463   63.3309   76.4073 C   0  0  0  0  0  0  0  0  0  0  0  0
   -1.9114   62.4470   77.6461 C   0  0  0  0  0  0  0  0  0  0  0  0
    0.6654   64.1540   87.8777 O   0  0  0  0  0  0  0  0  0  0  0  0
    1.3012   63.2985   88.8305 C   0  0  0  0  0  0  0  0  0  0  0  0
    0.2876   62.3832   89.4942 C   0  0  0  0  0  0  0  0  0  0  0  0
 20 21  1  0  0  0
 21 19  1  0  0  0
 19  7  1  0  0  0
  7  8  2  0  0  0
  8  9  1  0  0  0
  9 10  1  0  0  0
  9 11  1  0  0  0
 11 12  1  0  0  0
 12 13  2  0  0  0
 12 14  1  0  0  0
 14 15  1  0  0  0
 15  1  1  0  0  0
  1  2  1  0  0  0
  2  3  2  0  0  0
  3 22  1  0  0  0
 22 23  2  0  0  0
 22 24  2  0  0  0
 22 25  1  0  0  0
 25 26  1  0  0  0
 26 27  1  0  0  0
 27 28  1  0  0  0
 28 31  1  0  0  0
 31 32  1  0  0  0
 32 33  1  0  0  0
 33 34  1  0  0  0
 34 35  1  0  0  0
 35 36  1  0  0  0
 28 29  1  0  0  0
 29 30  1  0  0  0
  3  4  1  0  0  0
  4  5  2  0  0  0
  5  6  1  0  0  0
  6 37  1  0  0  0
 37 38  1  0  0  0
 38 39  1  0  0  0
 15 16  2  0  0  0
 16 17  1  0  0  0
 17  7  1  0  0  0
 17 11  2  0  0  0
  6  1  2  0  0  0
 30 25  1  0  0  0
 36 31  1  0  0  0
 14 18  1  0  0  0
M  END
> <minimizedAffinity>
-9.52868

$$$$



 39 43  0  0  0  0  0  0  0  0999 V2000
   -0.1622   63.8162   83.1969 C   0  0  0  0  0  0  0  0  0  0  0  0
    0.6428   64.7689   82.5433 C   0  0  0  0  0  0  0  0  0  0  0  0
    1.3767   65.6960   83.2822 C   0  0  0  0  0  0  0  0  0  0  0  0
    1.3088   65.7044   84.6729 C   0  0  0  0  0  0  0  0  0  0  0  0
    0.5072   64.7692   85.3316 C   0  0  0  0  0  0  0  0  0  0  0  0
   -0.2362   63.8215   84.6112 C   0  0  0  0  0  0  0  0  0  0  0  0
   -1.9130   61.9956   78.9342 C   0  0  0  0  0  0  0  0  0  0  0  0
   -2.6439   60.8970   78.6627 N   0  0  0  0  0  0  0  0  0  0  0  0
   -2.8313   60.3181   79.8751 N   0  0  0  0  0  0  0  0  0  0  0  0
   -3.5918   59.0964   79.9798 C   0  0  0  0  0  0  0  0  0  0  0  0
   -2.2456   61.0063   80.8904 C   0  0  0  0  0  0  0  0  0  0  0  0
   -2.1967   60.7637   82.2842 C   0  0  0  0  0  0  0  0  0  0  0  0
   -2.6987   59.8094   82.8661 O   0  0  0  0  0  0  0  0  0  0  0  0
   -1.4956   61.7514   82.9373 N   0  0  0  0  0  0  0  0  0  0  0  0
   -0.8929   62.8380   82.3122 C   0  0  0  0  0  0  0  0  0  0  0  0
   -0.9355   63.0475   81.0237 N   0  0  0  0  0  0  0  0  0  0  0  0
   -1.6475   62.0831   80.3102 C   0  0  0  0  0  0  0  0  0  0  0  0
   -1.4016   61.6357   83.9377 H   0  0  0  0  0  0  0  0  0  0  0  0
   -1.4901   62.9220   77.8469 C   0  0  0  0  0  0  0  0  0  0  0  0
    0.5102   64.4870   78.0757 C   0  0  0  0  0  0  0  0  0  0  0  0
    0.0275   63.0837   77.7342 C   0  0  0  0  0  0  0  0  0  0  0  0
    2.3846   66.9060   82.4615 S   0  0  0  0  0  0  0  0  0  0  0  0
    3.6710   66.9688   83.1209 O   0  0  0  0  0  0  0  0  0  0  0  0
    2.2792   66.6505   81.0407 O   0  0  0  0  0  0  0  0  0  0  0  0
    1.5620   68.3577   82.8022 N   0  0  0  0  0  0  0  0  0  0  0  0
    2.3284   69.3716   83.5963 C   0  0  0  0  0  0  0  0  0  0  0  0
    2.7624   70.5675   82.7289 C   0  0  0  0  0  0  0  0  0  0  0  0
    1.6168   71.3331   82.1953 N   0  0  0  0  0  0  0  0  0  0  0  0
    0.5066   70.4212   81.8250 C   0  0  0  0  0  0  0  0  0  0  0  0
    0.9121   68.9525   81.5917 C   0  0  0  0  0  0  0  0  0  0  0  0
    1.9699   72.2924   81.1219 C   0  0  0  0  0  0  0  0  0  0  0  0
    3.2584   73.1010   81.4120 C   0  0  0  0  0  0  0  0  0  0  0  0
    3.5586   74.1280   80.3209 C   0  0  0  0  0  0  0  0  0  0  0  0
    2.3906   75.0793   80.1047 C   0  0  0  0  0  0  0  0  0  0  0  0
    1.1063   74.3142   79.8189 C   0  0  0  0  0  0  0  0  0  0  0  0
    0.8044   73.2900   80.9116 C   0  0  0  0  0  0  0  0  0  0  0  0
   -1.0324   62.8757   85.2048 O   0  0  0  0  0  0  0  0  0  0  0  0
   -1.2917   62.9299   86.6098 C   0  0  0  0  0  0  0  0  0  0  0  0
   -2.7852   62.9195   86.8833 C   0  0  0  0  0  0  0  0  0  0  0  0
 20 21  1  0  0  0
 21 19  1  0  0  0
 19  7  1  0  0  0
  7  8  2  0  0  0
  8  9  1  0  0  0
  9 10  1  0  0  0
  9 11  1  0  0  0
 11 12  1  0  0  0
 12 13  2  0  0  0
 12 14  1  0  0  0
 14 15  1  0  0  0
 15  1  1  0  0  0
  1  2  1  0  0  0
  2  3  2  0  0  0
  3 22  1  0  0  0
 22 23  2  0  0  0
 22 24  2  0  0  0
 22 25  1  0  0  0
 25 26  1  0  0  0
 26 27  1  0  0  0
 27 28  1  0  0  0
 28 31  1  0  0  0
 31 32  1  0  0  0
 32 33  1  0  0  0
 33 34  1  0  0  0
 34 35  1  0  0  0
 35 36  1  0  0  0
 28 29  1  0  0  0
 29 30  1  0  0  0
  3  4  1  0  0  0
  4  5  2  0  0  0
  5  6  1  0  0  0
  6 37  1  0  0  0
 37 38  1  0  0  0
 38 39  1  0  0  0
 15 16  2  0  0  0
 16 17  1  0  0  0
 17  7  1  0  0  0
 17 11  2  0  0  0
  6  1  2  0  0  0
 30 25  1  0  0  0
 36 31  1  0  0  0
 14 18  1  0  0  0
M  END
> <minimizedAffinity>
-9.47886

$$$$



 39 43  0  0  0  0  0  0  0  0999 V2000
    1.3045   68.5578   82.0955 C   0  0  0  0  0  0  0  0  0  0  0  0
    0.7739   67.8038   81.0311 C   0  0  0  0  0  0  0  0  0  0  0  0
    0.9065   66.4159   81.0170 C   0  0  0  0  0  0  0  0  0  0  0  0
    1.5806   65.7598   82.0435 C   0  0  0  0  0  0  0  0  0  0  0  0
    2.1182   66.4983   83.1002 C   0  0  0  0  0  0  0  0  0  0  0  0
    1.9927   67.8956   83.1412 C   0  0  0  0  0  0  0  0  0  0  0  0
   -0.9116   72.7553   80.6741 C   0  0  0  0  0  0  0  0  0  0  0  0
   -0.6506   74.0462   80.9576 N   0  0  0  0  0  0  0  0  0  0  0  0
    0.4249   73.9914   81.7824 N   0  0  0  0  0  0  0  0  0  0  0  0
    1.0010   75.2103   82.2964 C   0  0  0  0  0  0  0  0  0  0  0  0
    0.8435   72.7218   82.0286 C   0  0  0  0  0  0  0  0  0  0  0  0
    1.9082   72.2195   82.8146 C   0  0  0  0  0  0  0  0  0  0  0  0
    2.6924   72.8898   83.4758 O   0  0  0  0  0  0  0  0  0  0  0  0
    1.9663   70.8459   82.7551 N   0  0  0  0  0  0  0  0  0  0  0  0
    1.0834   70.0481   82.0349 C   0  0  0  0  0  0  0  0  0  0  0  0
    0.0977   70.5211   81.3204 N   0  0  0  0  0  0  0  0  0  0  0  0
   -0.0013   71.9126   81.3318 C   0  0  0  0  0  0  0  0  0  0  0  0
    2.6929   70.4122   83.3092 H   0  0  0  0  0  0  0  0  0  0  0  0
   -2.0418   72.3813   79.7784 C   0  0  0  0  0  0  0  0  0  0  0  0
   -3.4206   73.0181   77.7301 C   0  0  0  0  0  0  0  0  0  0  0  0
   -2.4340   73.4839   78.7923 C   0  0  0  0  0  0  0  0  0  0  0  0
    0.2482   65.4624   79.6713 S   0  0  0  0  0  0  0  0  0  0  0  0
   -0.7039   66.2738   78.9442 O   0  0  0  0  0  0  0  0  0  0  0  0
    1.3725   64.8417   79.0034 O   0  0  0  0  0  0  0  0  0  0  0  0
   -0.6265   64.2454   80.4800 N   0  0  0  0  0  0  0  0  0  0  0  0
    0.0640   62.9216   80.6097 C   0  0  0  0  0  0  0  0  0  0  0  0
    0.5274   62.6582   82.0543 C   0  0  0  0  0  0  0  0  0  0  0  0
   -0.5974   62.5618   83.0076 N   0  0  0  0  0  0  0  0  0  0  0  0
   -1.6609   63.5365   82.6604 C   0  0  0  0  0  0  0  0  0  0  0  0
   -1.2088   64.7157   81.7766 C   0  0  0  0  0  0  0  0  0  0  0  0
   -0.1961   62.6157   84.4335 C   0  0  0  0  0  0  0  0  0  0  0  0
   -1.2985   62.1298   85.4067 C   0  0  0  0  0  0  0  0  0  0  0  0
   -0.8807   62.2609   86.8708 C   0  0  0  0  0  0  0  0  0  0  0  0
   -0.4790   63.6872   87.2175 C   0  0  0  0  0  0  0  0  0  0  0  0
    0.6034   64.1958   86.2761 C   0  0  0  0  0  0  0  0  0  0  0  0
    0.1842   64.0681   84.8125 C   0  0  0  0  0  0  0  0  0  0  0  0
    2.4926   68.6698   84.1569 O   0  0  0  0  0  0  0  0  0  0  0  0
    3.6265   68.2296   84.9082 C   0  0  0  0  0  0  0  0  0  0  0  0
    4.8891   68.2948   84.0671 C   0  0  0  0  0  0  0  0  0  0  0  0
 20 21  1  0  0  0
 21 19  1  0  0  0
 19  7  1  0  0  0
  7  8  2  0  0  0
  8  9  1  0  0  0
  9 10  1  0  0  0
  9 11  1  0  0  0
 11 12  1  0  0  0
 12 13  2  0  0  0
 12 14  1  0  0  0
 14 15  1  0  0  0
 15  1  1  0  0  0
  1  2  1  0  0  0
  2  3  2  0  0  0
  3 22  1  0  0  0
 22 23  2  0  0  0
 22 24  2  0  0  0
 22 25  1  0  0  0
 25 26  1  0  0  0
 26 27  1  0  0  0
 27 28  1  0  0  0
 28 31  1  0  0  0
 31 32  1  0  0  0
 32 33  1  0  0  0
 33 34  1  0  0  0
 34 35  1  0  0  0
 35 36  1  0  0  0
 28 29  1  0  0  0
 29 30  1  0  0  0
  3  4  1  0  0  0
  4  5  2  0  0  0
  5  6  1  0  0  0
  6 37  1  0  0  0
 37 38  1  0  0  0
 38 39  1  0  0  0
 15 16  2  0  0  0
 16 17  1  0  0  0
 17  7  1  0  0  0
 17 11  2  0  0  0
  6  1  2  0  0  0
 30 25  1  0  0  0
 36 31  1  0  0  0
 14 18  1  0  0  0
M  END
> <minimizedAffinity>
-9.46250

$$$$
