
     RDKit          3D

 65 68  0  0  0  0  0  0  0  0999 V2000
   -6.5617   -4.0051    0.8115 C   0  0  0  0  0  0  0  0  0  0  0  0
   -6.4034   -3.0490   -0.3623 C   0  0  0  0  0  0  0  0  0  0  0  0
   -4.9573   -2.9447   -0.8341 C   0  0  0  0  0  0  0  0  0  0  0  0
   -4.1595   -2.3897    0.2111 O   0  0  0  0  0  0  0  0  0  0  0  0
   -2.7927   -2.2567   -0.1822 C   0  0  0  0  0  0  0  0  0  0  0  0
   -1.9857   -1.7555    1.0168 C   0  0  0  0  0  0  0  0  0  0  0  0
   -0.6535   -1.2887    0.6424 N   0  0  0  0  0  0  0  0  0  0  0  0
    0.3727   -2.2406    0.5546 C   0  0  0  0  0  0  0  0  0  0  0  0
    0.1375   -3.4277    0.7692 O   0  0  0  0  0  0  0  0  0  0  0  0
    1.6411   -1.8358    0.2204 N   0  0  0  0  0  0  0  0  0  0  0  0
    1.9143   -0.6015   -0.0742 C   0  0  0  0  0  0  0  0  0  0  0  0
    3.1981   -0.2159   -0.4196 N   0  0  0  0  0  0  0  0  0  0  0  0
    4.3750   -1.0413   -0.1966 C   0  0  0  0  0  0  0  0  0  0  0  0
    4.8453   -0.9072    1.2520 C   0  0  0  0  0  0  0  0  0  0  0  0
    6.0458   -1.8087    1.5451 C   0  0  0  0  0  0  0  0  0  0  0  0
    6.8791   -2.1375    0.3059 C   0  0  0  0  0  0  0  0  0  0  0  0
    6.8981   -0.9776   -0.6923 C   0  0  0  0  0  0  0  0  0  0  0  0
    7.7842   -1.2968   -1.8751 C   0  0  0  0  0  0  0  0  0  0  0  0
    8.3229   -2.3597   -2.1302 O   0  0  0  0  0  0  0  0  0  0  0  0
    7.9641   -0.2307   -2.6802 O   0  0  0  0  0  0  0  0  0  0  0  0
    5.4834   -0.6136   -1.1719 C   0  0  0  0  0  0  0  0  0  0  0  0
    0.8634    0.4401   -0.0582 C   0  0  0  0  0  0  0  0  0  0  0  0
    1.2185    1.6988   -0.3950 N   0  0  0  0  0  0  0  0  0  0  0  0
    0.2576    2.6666   -0.3967 N   0  0  0  0  0  0  0  0  0  0  0  0
   -1.0259    2.3702   -0.0677 C   0  0  0  0  0  0  0  0  0  0  0  0
   -1.9751    3.4937   -0.1182 C   0  0  0  0  0  0  0  0  0  0  0  0
   -1.7990    4.5678   -1.0041 C   0  0  0  0  0  0  0  0  0  0  0  0
   -2.7138    5.6206   -1.0386 C   0  0  0  0  0  0  0  0  0  0  0  0
   -3.7948    5.5814   -0.1774 C   0  0  0  0  0  0  0  0  0  0  0  0
   -4.6754    6.6408   -0.2495 O   0  0  0  0  0  0  0  0  0  0  0  0
   -5.7519    6.5360    0.6764 C   0  0  0  0  0  0  0  0  0  0  0  0
   -4.0094    4.5793    0.6981 N   0  0  0  0  0  0  0  0  0  0  0  0
   -3.0980    3.5746    0.7087 C   0  0  0  0  0  0  0  0  0  0  0  0
   -1.3863    1.0654    0.2774 C   0  0  0  0  0  0  0  0  0  0  0  0
   -0.4134    0.0651    0.2956 C   0  0  0  0  0  0  0  0  0  0  0  0
   -6.2171   -5.0099    0.5469 H   0  0  0  0  0  0  0  0  0  0  0  0
   -5.9930   -3.6646    1.6825 H   0  0  0  0  0  0  0  0  0  0  0  0
   -7.6146   -4.0733    1.1030 H   0  0  0  0  0  0  0  0  0  0  0  0
   -6.7615   -2.0596   -0.0547 H   0  0  0  0  0  0  0  0  0  0  0  0
   -7.0327   -3.3891   -1.1921 H   0  0  0  0  0  0  0  0  0  0  0  0
   -4.9074   -2.2914   -1.7126 H   0  0  0  0  0  0  0  0  0  0  0  0
   -4.5743   -3.9347   -1.1075 H   0  0  0  0  0  0  0  0  0  0  0  0
   -2.7328   -1.5425   -1.0115 H   0  0  0  0  0  0  0  0  0  0  0  0
   -2.4013   -3.2214   -0.5255 H   0  0  0  0  0  0  0  0  0  0  0  0
   -2.5264   -0.9781    1.5674 H   0  0  0  0  0  0  0  0  0  0  0  0
   -1.8929   -2.5759    1.7406 H   0  0  0  0  0  0  0  0  0  0  0  0
    3.3592    0.7890   -0.4688 H   0  0  0  0  0  0  0  0  0  0  0  0
    4.1321   -2.0921   -0.4010 H   0  0  0  0  0  0  0  0  0  0  0  0
    4.0363   -1.1417    1.9545 H   0  0  0  0  0  0  0  0  0  0  0  0
    5.1213    0.1373    1.4509 H   0  0  0  0  0  0  0  0  0  0  0  0
    5.7026   -2.7480    1.9956 H   0  0  0  0  0  0  0  0  0  0  0  0
    6.6764   -1.3213    2.2987 H   0  0  0  0  0  0  0  0  0  0  0  0
    6.4675   -3.0330   -0.1790 H   0  0  0  0  0  0  0  0  0  0  0  0
    7.8979   -2.4044    0.6130 H   0  0  0  0  0  0  0  0  0  0  0  0
    7.3461   -0.1122   -0.1849 H   0  0  0  0  0  0  0  0  0  0  0  0
    8.5521   -0.5665   -3.3895 H   0  0  0  0  0  0  0  0  0  0  0  0
    5.2719   -1.0588   -2.1537 H   0  0  0  0  0  0  0  0  0  0  0  0
    5.4525    0.4722   -1.3383 H   0  0  0  0  0  0  0  0  0  0  0  0
   -0.9457    4.5927   -1.6801 H   0  0  0  0  0  0  0  0  0  0  0  0
   -2.5835    6.4518   -1.7225 H   0  0  0  0  0  0  0  0  0  0  0  0
   -6.3645    5.6504    0.4745 H   0  0  0  0  0  0  0  0  0  0  0  0
   -6.3887    7.4166    0.5476 H   0  0  0  0  0  0  0  0  0  0  0  0
   -5.3886    6.5368    1.7100 H   0  0  0  0  0  0  0  0  0  0  0  0
   -3.3130    2.8116    1.4530 H   0  0  0  0  0  0  0  0  0  0  0  0
   -2.4228    0.8437    0.5017 H   0  0  0  0  0  0  0  0  0  0  0  0
  1  2  1  0
  2  3  1  0
  3  4  1  0
  4  5  1  0
  5  6  1  0
  6  7  1  0
  7  8  1  0
  8  9  2  0
  8 10  1  0
 10 11  2  0
 11 12  1  0
 12 13  1  0
 13 14  1  0
 14 15  1  0
 15 16  1  0
 16 17  1  0
 17 18  1  0
 18 19  2  0
 18 20  1  0
 17 21  1  0
 11 22  1  0
 22 23  1  0
 23 24  2  0
 24 25  1  0
 25 26  1  0
 26 27  2  0
 27 28  1  0
 28 29  2  0
 29 30  1  0
 30 31  1  0
 29 32  1  0
 32 33  2  0
 25 34  2  0
 34 35  1  0
 35  7  1  0
 21 13  1  0
 35 22  2  0
 33 26  1  0
  1 36  1  0
  1 37  1  0
  1 38  1  0
  2 39  1  0
  2 40  1  0
  3 41  1  0
  3 42  1  0
  5 43  1  0
  5 44  1  0
  6 45  1  0
  6 46  1  0
 12 47  1  0
 13 48  1  0
 14 49  1  0
 14 50  1  0
 15 51  1  0
 15 52  1  0
 16 53  1  0
 16 54  1  0
 17 55  1  0
 20 56  1  0
 21 57  1  0
 21 58  1  0
 27 59  1  0
 28 60  1  0
 31 61  1  0
 31 62  1  0
 31 63  1  0
 33 64  1  0
 34 65  1  0
M  END
$$$$
