


 29 31  0  0  0  0  0  0  0  0999 V2000
   -1.5519   62.0997   83.8804 C   0  0  0  0  0  0  0  0  0  0  0  0
   -2.2836   61.1206   83.3653 N   0  0  0  0  0  0  0  0  0  0  0  0
   -1.9736   61.0823   82.0279 C   0  0  0  0  0  0  0  0  0  0  0  0
   -2.4813   60.2042   80.9990 C   0  0  0  0  0  0  0  0  0  0  0  0
   -3.3330   59.3450   81.2134 O   0  0  0  0  0  0  0  0  0  0  0  0
   -1.9073   60.4458   79.7382 N   0  0  0  0  0  0  0  0  0  0  0  0
   -2.3545   59.6132   78.6394 C   0  0  0  0  0  0  0  0  0  0  0  0
   -1.0092   61.4830   79.4104 C   0  0  0  0  0  0  0  0  0  0  0  0
   -0.6374   61.6645   78.2472 O   0  0  0  0  0  0  0  0  0  0  0  0
   -0.5611   62.3084   80.4597 N   0  0  0  0  0  0  0  0  0  0  0  0
   -1.0645   62.0517   81.7169 C   0  0  0  0  0  0  0  0  0  0  0  0
   -0.7888   62.6863   82.8894 N   0  0  0  0  0  0  0  0  0  0  0  0
   -0.1490   63.4514   83.0509 H   0  0  0  0  0  0  0  0  0  0  0  0
   -0.5081   63.2682   85.8818 C   0  0  0  0  0  0  0  0  0  0  0  0
   -0.6265   63.6834   87.2174 C   0  0  0  0  0  0  0  0  0  0  0  0
   -1.7551   63.3532   87.9703 C   0  0  0  0  0  0  0  0  0  0  0  0
   -2.7804   62.6116   87.3971 C   0  0  0  0  0  0  0  0  0  0  0  0
   -2.6825   62.2120   86.0647 C   0  0  0  0  0  0  0  0  0  0  0  0
   -1.5597   62.5414   85.2828 C   0  0  0  0  0  0  0  0  0  0  0  0
    0.5924   63.5628   85.1063 O   0  0  0  0  0  0  0  0  0  0  0  0
    1.1605   64.8620   85.3051 C   0  0  0  0  0  0  0  0  0  0  0  0
    0.9806   65.6931   84.0344 C   0  0  0  0  0  0  0  0  0  0  0  0
    1.8714   66.9384   84.0233 C   0  0  0  0  0  0  0  0  0  0  0  0
    1.6369   68.6567   82.1446 C   0  0  0  0  0  0  0  0  0  0  0  0
    2.2907   67.3672   82.6147 C   0  0  0  0  0  0  0  0  0  0  0  0
    0.3551   63.4091   80.1614 C   0  0  0  0  0  0  0  0  0  0  0  0
   -0.3445   64.6429   79.5579 C   0  0  0  0  0  0  0  0  0  0  0  0
   -0.3711   65.7779   80.5836 C   0  0  0  0  0  0  0  0  0  0  0  0
    0.3311   65.1276   78.2738 C   0  0  0  0  0  0  0  0  0  0  0  0
 24 25  1  0  0  0
 25 23  1  0  0  0
 23 22  1  0  0  0
 22 21  1  0  0  0
 21 20  1  0  0  0
 20 14  1  0  0  0
 14 15  2  0  0  0
 15 16  1  0  0  0
 16 17  2  0  0  0
 17 18  1  0  0  0
 18 19  2  0  0  0
 19  1  1  0  0  0
  1  2  2  0  0  0
  2  3  1  0  0  0
  3  4  1  0  0  0
  4  5  2  0  0  0
  4  6  1  0  0  0
  6  7  1  0  0  0
  6  8  1  0  0  0
  8  9  2  0  0  0
  8 10  1  0  0  0
 10 26  1  0  0  0
 26 27  1  0  0  0
 27 28  1  0  0  0
 27 29  1  0  0  0
 10 11  1  0  0  0
 11 12  1  0  0  0
 19 14  1  0  0  0
 12  1  1  0  0  0
 11  3  2  0  0  0
 12 13  1  0  0  0
M  END
> <minimizedAffinity>
-8.91585

$$$$



 29 31  0  0  0  0  0  0  0  0999 V2000
    0.9891   64.9948   85.0808 C   0  0  0  0  0  0  0  0  0  0  0  0
    0.5073   65.5690   83.9865 N   0  0  0  0  0  0  0  0  0  0  0  0
    1.4615   66.4707   83.5831 C   0  0  0  0  0  0  0  0  0  0  0  0
    1.4506   67.3628   82.4467 C   0  0  0  0  0  0  0  0  0  0  0  0
    0.5033   67.4426   81.6682 O   0  0  0  0  0  0  0  0  0  0  0  0
    2.6254   68.1277   82.3374 N   0  0  0  0  0  0  0  0  0  0  0  0
    2.7083   69.0544   81.2261 C   0  0  0  0  0  0  0  0  0  0  0  0
    3.6955   68.1572   83.2560 C   0  0  0  0  0  0  0  0  0  0  0  0
    4.6410   68.9381   83.1131 O   0  0  0  0  0  0  0  0  0  0  0  0
    3.6383   67.2682   84.3467 N   0  0  0  0  0  0  0  0  0  0  0  0
    2.5227   66.4645   84.4415 C   0  0  0  0  0  0  0  0  0  0  0  0
    2.2299   65.5232   85.3806 N   0  0  0  0  0  0  0  0  0  0  0  0
    2.7894   65.2320   86.1698 H   0  0  0  0  0  0  0  0  0  0  0  0
   -0.4572   62.9222   85.3510 C   0  0  0  0  0  0  0  0  0  0  0  0
   -1.0313   61.9704   86.2082 C   0  0  0  0  0  0  0  0  0  0  0  0
   -0.8827   62.0747   87.5926 C   0  0  0  0  0  0  0  0  0  0  0  0
   -0.1543   63.1252   88.1363 C   0  0  0  0  0  0  0  0  0  0  0  0
    0.4381   64.0645   87.2928 C   0  0  0  0  0  0  0  0  0  0  0  0
    0.3110   63.9747   85.8941 C   0  0  0  0  0  0  0  0  0  0  0  0
   -0.5879   62.8632   83.9804 O   0  0  0  0  0  0  0  0  0  0  0  0
    0.0265   61.7353   83.3474 C   0  0  0  0  0  0  0  0  0  0  0  0
    0.8311   62.2102   82.1371 C   0  0  0  0  0  0  0  0  0  0  0  0
    1.5875   61.0658   81.4567 C   0  0  0  0  0  0  0  0  0  0  0  0
    3.9079   60.0442   81.7875 C   0  0  0  0  0  0  0  0  0  0  0  0
    2.5460   60.3326   82.3986 C   0  0  0  0  0  0  0  0  0  0  0  0
    4.7170   67.2795   85.3348 C   0  0  0  0  0  0  0  0  0  0  0  0
    5.6975   66.0994   85.1858 C   0  0  0  0  0  0  0  0  0  0  0  0
    7.0406   66.6044   84.6548 C   0  0  0  0  0  0  0  0  0  0  0  0
    5.9149   65.3509   86.5021 C   0  0  0  0  0  0  0  0  0  0  0  0
 24 25  1  0  0  0
 25 23  1  0  0  0
 23 22  1  0  0  0
 22 21  1  0  0  0
 21 20  1  0  0  0
 20 14  1  0  0  0
 14 15  2  0  0  0
 15 16  1  0  0  0
 16 17  2  0  0  0
 17 18  1  0  0  0
 18 19  2  0  0  0
 19  1  1  0  0  0
  1  2  2  0  0  0
  2  3  1  0  0  0
  3  4  1  0  0  0
  4  5  2  0  0  0
  4  6  1  0  0  0
  6  7  1  0  0  0
  6  8  1  0  0  0
  8  9  2  0  0  0
  8 10  1  0  0  0
 10 26  1  0  0  0
 26 27  1  0  0  0
 27 28  1  0  0  0
 27 29  1  0  0  0
 10 11  1  0  0  0
 11 12  1  0  0  0
 19 14  1  0  0  0
 12  1  1  0  0  0
 11  3  2  0  0  0
 12 13  1  0  0  0
M  END
> <minimizedAffinity>
-8.86614

$$$$



 29 31  0  0  0  0  0  0  0  0999 V2000
    1.0391   65.7063   83.2426 C   0  0  0  0  0  0  0  0  0  0  0  0
    0.4249   65.3487   82.1227 N   0  0  0  0  0  0  0  0  0  0  0  0
   -0.3619   64.2722   82.4520 C   0  0  0  0  0  0  0  0  0  0  0  0
   -1.2424   63.4950   81.6105 C   0  0  0  0  0  0  0  0  0  0  0  0
   -1.3771   63.7067   80.4076 O   0  0  0  0  0  0  0  0  0  0  0  0
   -1.9120   62.4753   82.3098 N   0  0  0  0  0  0  0  0  0  0  0  0
   -2.8195   61.6398   81.5488 C   0  0  0  0  0  0  0  0  0  0  0  0
   -1.7182   62.1177   83.6604 C   0  0  0  0  0  0  0  0  0  0  0  0
   -2.2909   61.1412   84.1530 O   0  0  0  0  0  0  0  0  0  0  0  0
   -0.8390   62.9120   84.4216 N   0  0  0  0  0  0  0  0  0  0  0  0
   -0.2163   63.9557   83.7716 C   0  0  0  0  0  0  0  0  0  0  0  0
    0.6591   64.8693   84.2740 N   0  0  0  0  0  0  0  0  0  0  0  0
    0.9967   64.9564   85.2223 H   0  0  0  0  0  0  0  0  0  0  0  0
    3.2129   66.6894   84.1193 C   0  0  0  0  0  0  0  0  0  0  0  0
    4.0998   67.7766   84.1626 C   0  0  0  0  0  0  0  0  0  0  0  0
    3.7893   68.9772   83.5209 C   0  0  0  0  0  0  0  0  0  0  0  0
    2.5946   69.1038   82.8235 C   0  0  0  0  0  0  0  0  0  0  0  0
    1.7160   68.0231   82.7563 C   0  0  0  0  0  0  0  0  0  0  0  0
    2.0116   66.7998   83.3862 C   0  0  0  0  0  0  0  0  0  0  0  0
    3.4748   65.4908   84.7469 O   0  0  0  0  0  0  0  0  0  0  0  0
    4.1270   65.5866   86.0180 C   0  0  0  0  0  0  0  0  0  0  0  0
    5.4741   64.8665   85.9513 C   0  0  0  0  0  0  0  0  0  0  0  0
    6.6559   65.8390   85.9971 C   0  0  0  0  0  0  0  0  0  0  0  0
    8.5837   66.8970   84.6927 C   0  0  0  0  0  0  0  0  0  0  0  0
    7.4566   65.8767   84.6929 C   0  0  0  0  0  0  0  0  0  0  0  0
   -0.5929   62.5648   85.8212 C   0  0  0  0  0  0  0  0  0  0  0  0
   -1.2987   63.5039   86.8192 C   0  0  0  0  0  0  0  0  0  0  0  0
   -2.6482   62.9089   87.2264 C   0  0  0  0  0  0  0  0  0  0  0  0
   -0.4565   63.7678   88.0687 C   0  0  0  0  0  0  0  0  0  0  0  0
 24 25  1  0  0  0
 25 23  1  0  0  0
 23 22  1  0  0  0
 22 21  1  0  0  0
 21 20  1  0  0  0
 20 14  1  0  0  0
 14 15  2  0  0  0
 15 16  1  0  0  0
 16 17  2  0  0  0
 17 18  1  0  0  0
 18 19  2  0  0  0
 19  1  1  0  0  0
  1  2  2  0  0  0
  2  3  1  0  0  0
  3  4  1  0  0  0
  4  5  2  0  0  0
  4  6  1  0  0  0
  6  7  1  0  0  0
  6  8  1  0  0  0
  8  9  2  0  0  0
  8 10  1  0  0  0
 10 26  1  0  0  0
 26 27  1  0  0  0
 27 28  1  0  0  0
 27 29  1  0  0  0
 10 11  1  0  0  0
 11 12  1  0  0  0
 19 14  1  0  0  0
 12  1  1  0  0  0
 11  3  2  0  0  0
 12 13  1  0  0  0
M  END
> <minimizedAffinity>
-8.81028

$$$$



 29 31  0  0  0  0  0  0  0  0999 V2000
    1.4485   66.3117   83.5216 C   0  0  0  0  0  0  0  0  0  0  0  0
    1.2987   66.0863   84.8201 N   0  0  0  0  0  0  0  0  0  0  0  0
    0.5961   64.9104   84.9197 C   0  0  0  0  0  0  0  0  0  0  0  0
    0.1631   64.2043   86.1035 C   0  0  0  0  0  0  0  0  0  0  0  0
    0.3650   64.6204   87.2418 O   0  0  0  0  0  0  0  0  0  0  0  0
   -0.5158   63.0079   85.8120 N   0  0  0  0  0  0  0  0  0  0  0  0
   -0.9902   62.2276   86.9375 C   0  0  0  0  0  0  0  0  0  0  0  0
   -0.8698   62.5351   84.5311 C   0  0  0  0  0  0  0  0  0  0  0  0
   -1.5514   61.5154   84.3904 O   0  0  0  0  0  0  0  0  0  0  0  0
   -0.4234   63.2766   83.4201 N   0  0  0  0  0  0  0  0  0  0  0  0
    0.2969   64.4225   83.6806 C   0  0  0  0  0  0  0  0  0  0  0  0
    0.8461   65.3010   82.7975 N   0  0  0  0  0  0  0  0  0  0  0  0
    0.8388   65.2600   81.7880 H   0  0  0  0  0  0  0  0  0  0  0  0
    3.1168   68.2288   83.5638 C   0  0  0  0  0  0  0  0  0  0  0  0
    3.7274   69.2953   82.8856 C   0  0  0  0  0  0  0  0  0  0  0  0
    3.3300   69.6398   81.5920 C   0  0  0  0  0  0  0  0  0  0  0  0
    2.3247   68.9199   80.9589 C   0  0  0  0  0  0  0  0  0  0  0  0
    1.7261   67.8452   81.6155 C   0  0  0  0  0  0  0  0  0  0  0  0
    2.1166   67.4727   82.9153 C   0  0  0  0  0  0  0  0  0  0  0  0
    3.4705   67.8620   84.8442 O   0  0  0  0  0  0  0  0  0  0  0  0
    4.8585   67.5726   85.0446 C   0  0  0  0  0  0  0  0  0  0  0  0
    5.1503   66.1456   84.5797 C   0  0  0  0  0  0  0  0  0  0  0  0
    5.8518   65.3150   85.6579 C   0  0  0  0  0  0  0  0  0  0  0  0
    5.5556   65.5155   88.1896 C   0  0  0  0  0  0  0  0  0  0  0  0
    4.9654   65.0336   86.8740 C   0  0  0  0  0  0  0  0  0  0  0  0
   -0.7848   62.8336   82.0736 C   0  0  0  0  0  0  0  0  0  0  0  0
    0.4079   62.2797   81.2695 C   0  0  0  0  0  0  0  0  0  0  0  0
    1.1303   61.2059   82.0857 C   0  0  0  0  0  0  0  0  0  0  0  0
   -0.0171   61.6987   79.9196 C   0  0  0  0  0  0  0  0  0  0  0  0
 24 25  1  0  0  0
 25 23  1  0  0  0
 23 22  1  0  0  0
 22 21  1  0  0  0
 21 20  1  0  0  0
 20 14  1  0  0  0
 14 15  2  0  0  0
 15 16  1  0  0  0
 16 17  2  0  0  0
 17 18  1  0  0  0
 18 19  2  0  0  0
 19  1  1  0  0  0
  1  2  2  0  0  0
  2  3  1  0  0  0
  3  4  1  0  0  0
  4  5  2  0  0  0
  4  6  1  0  0  0
  6  7  1  0  0  0
  6  8  1  0  0  0
  8  9  2  0  0  0
  8 10  1  0  0  0
 10 26  1  0  0  0
 26 27  1  0  0  0
 27 28  1  0  0  0
 27 29  1  0  0  0
 10 11  1  0  0  0
 11 12  1  0  0  0
 19 14  1  0  0  0
 12  1  1  0  0  0
 11  3  2  0  0  0
 12 13  1  0  0  0
M  END
> <minimizedAffinity>
-8.80485

$$$$



 29 31  0  0  0  0  0  0  0  0999 V2000
    0.3358   64.9396   80.9438 C   0  0  0  0  0  0  0  0  0  0  0  0
    0.7371   64.5561   79.7391 N   0  0  0  0  0  0  0  0  0  0  0  0
   -0.1194   63.5520   79.3588 C   0  0  0  0  0  0  0  0  0  0  0  0
   -0.1373   62.7834   78.1355 C   0  0  0  0  0  0  0  0  0  0  0  0
    0.6906   62.9322   77.2399 O   0  0  0  0  0  0  0  0  0  0  0  0
   -1.1882   61.8503   78.0885 N   0  0  0  0  0  0  0  0  0  0  0  0
   -1.2891   61.0300   76.8979 C   0  0  0  0  0  0  0  0  0  0  0  0
   -2.0999   61.5609   79.1252 C   0  0  0  0  0  0  0  0  0  0  0  0
   -2.9288   60.6527   79.0143 O   0  0  0  0  0  0  0  0  0  0  0  0
   -2.0214   62.3419   80.2944 N   0  0  0  0  0  0  0  0  0  0  0  0
   -1.0363   63.3049   80.3391 C   0  0  0  0  0  0  0  0  0  0  0  0
   -0.7566   64.1899   81.3351 N   0  0  0  0  0  0  0  0  0  0  0  0
   -1.2351   64.3110   82.2166 H   0  0  0  0  0  0  0  0  0  0  0  0
    1.0614   65.8999   83.1825 C   0  0  0  0  0  0  0  0  0  0  0  0
    1.7173   66.9212   83.8873 C   0  0  0  0  0  0  0  0  0  0  0  0
    2.2393   68.0295   83.2173 C   0  0  0  0  0  0  0  0  0  0  0  0
    2.1189   68.1273   81.8368 C   0  0  0  0  0  0  0  0  0  0  0  0
    1.4878   67.1081   81.1245 C   0  0  0  0  0  0  0  0  0  0  0  0
    0.9629   65.9767   81.7764 C   0  0  0  0  0  0  0  0  0  0  0  0
    0.5226   64.7946   83.8048 O   0  0  0  0  0  0  0  0  0  0  0  0
    0.8546   64.6397   85.1890 C   0  0  0  0  0  0  0  0  0  0  0  0
   -0.2056   63.7736   85.8700 C   0  0  0  0  0  0  0  0  0  0  0  0
   -0.2449   63.9873   87.3857 C   0  0  0  0  0  0  0  0  0  0  0  0
   -2.6255   63.0580   87.3068 C   0  0  0  0  0  0  0  0  0  0  0  0
   -1.3226   63.1542   88.0843 C   0  0  0  0  0  0  0  0  0  0  0  0
   -2.9344   62.0627   81.4027 C   0  0  0  0  0  0  0  0  0  0  0  0
   -2.3369   61.1215   82.4672 C   0  0  0  0  0  0  0  0  0  0  0  0
   -2.4570   61.7613   83.8519 C   0  0  0  0  0  0  0  0  0  0  0  0
   -3.0102   59.7479   82.4766 C   0  0  0  0  0  0  0  0  0  0  0  0
 24 25  1  0  0  0
 25 23  1  0  0  0
 23 22  1  0  0  0
 22 21  1  0  0  0
 21 20  1  0  0  0
 20 14  1  0  0  0
 14 15  2  0  0  0
 15 16  1  0  0  0
 16 17  2  0  0  0
 17 18  1  0  0  0
 18 19  2  0  0  0
 19  1  1  0  0  0
  1  2  2  0  0  0
  2  3  1  0  0  0
  3  4  1  0  0  0
  4  5  2  0  0  0
  4  6  1  0  0  0
  6  7  1  0  0  0
  6  8  1  0  0  0
  8  9  2  0  0  0
  8 10  1  0  0  0
 10 26  1  0  0  0
 26 27  1  0  0  0
 27 28  1  0  0  0
 27 29  1  0  0  0
 10 11  1  0  0  0
 11 12  1  0  0  0
 19 14  1  0  0  0
 12  1  1  0  0  0
 11  3  2  0  0  0
 12 13  1  0  0  0
M  END
> <minimizedAffinity>
-8.72779

$$$$



 29 31  0  0  0  0  0  0  0  0999 V2000
   -1.9762   62.0968   82.6967 C   0  0  0  0  0  0  0  0  0  0  0  0
   -2.5411   61.7310   83.8396 N   0  0  0  0  0  0  0  0  0  0  0  0
   -1.8148   62.3432   84.8316 C   0  0  0  0  0  0  0  0  0  0  0  0
   -1.9990   62.2873   86.2635 C   0  0  0  0  0  0  0  0  0  0  0  0
   -2.8753   61.6130   86.7993 O   0  0  0  0  0  0  0  0  0  0  0  0
   -1.0691   63.0723   86.9681 N   0  0  0  0  0  0  0  0  0  0  0  0
   -1.1737   63.0804   88.4136 C   0  0  0  0  0  0  0  0  0  0  0  0
    0.0202   63.7788   86.4170 C   0  0  0  0  0  0  0  0  0  0  0  0
    0.8356   64.3623   87.1373 O   0  0  0  0  0  0  0  0  0  0  0  0
    0.1464   63.7847   85.0144 N   0  0  0  0  0  0  0  0  0  0  0  0
   -0.7903   63.0707   84.2985 C   0  0  0  0  0  0  0  0  0  0  0  0
   -0.8998   62.9252   82.9493 N   0  0  0  0  0  0  0  0  0  0  0  0
   -0.3213   63.3314   82.2276 H   0  0  0  0  0  0  0  0  0  0  0  0
   -1.4874   61.2241   80.3600 C   0  0  0  0  0  0  0  0  0  0  0  0
   -1.9813   60.7960   79.1179 C   0  0  0  0  0  0  0  0  0  0  0  0
   -3.3487   60.8424   78.8389 C   0  0  0  0  0  0  0  0  0  0  0  0
   -4.2383   61.3095   79.7982 C   0  0  0  0  0  0  0  0  0  0  0  0
   -3.7605   61.7174   81.0431 C   0  0  0  0  0  0  0  0  0  0  0  0
   -2.3881   61.6703   81.3512 C   0  0  0  0  0  0  0  0  0  0  0  0
   -0.1454   61.2054   80.6731 O   0  0  0  0  0  0  0  0  0  0  0  0
    0.7192   61.8519   79.7325 C   0  0  0  0  0  0  0  0  0  0  0  0
    0.3054   63.3168   79.5885 C   0  0  0  0  0  0  0  0  0  0  0  0
    0.6637   63.8895   78.2144 C   0  0  0  0  0  0  0  0  0  0  0  0
   -1.1497   64.7730   76.6432 C   0  0  0  0  0  0  0  0  0  0  0  0
   -0.3727   63.5627   77.1361 C   0  0  0  0  0  0  0  0  0  0  0  0
    1.2731   64.4880   84.4014 C   0  0  0  0  0  0  0  0  0  0  0  0
    0.9059   65.8869   83.8681 C   0  0  0  0  0  0  0  0  0  0  0  0
    1.9363   66.9117   84.3465 C   0  0  0  0  0  0  0  0  0  0  0  0
    0.8154   65.9247   82.3414 C   0  0  0  0  0  0  0  0  0  0  0  0
 24 25  1  0  0  0
 25 23  1  0  0  0
 23 22  1  0  0  0
 22 21  1  0  0  0
 21 20  1  0  0  0
 20 14  1  0  0  0
 14 15  2  0  0  0
 15 16  1  0  0  0
 16 17  2  0  0  0
 17 18  1  0  0  0
 18 19  2  0  0  0
 19  1  1  0  0  0
  1  2  2  0  0  0
  2  3  1  0  0  0
  3  4  1  0  0  0
  4  5  2  0  0  0
  4  6  1  0  0  0
  6  7  1  0  0  0
  6  8  1  0  0  0
  8  9  2  0  0  0
  8 10  1  0  0  0
 10 26  1  0  0  0
 26 27  1  0  0  0
 27 28  1  0  0  0
 27 29  1  0  0  0
 10 11  1  0  0  0
 11 12  1  0  0  0
 19 14  1  0  0  0
 12  1  1  0  0  0
 11  3  2  0  0  0
 12 13  1  0  0  0
M  END
> <minimizedAffinity>
-8.71287

$$$$



 29 31  0  0  0  0  0  0  0  0999 V2000
    0.9322   65.2820   84.1078 C   0  0  0  0  0  0  0  0  0  0  0  0
    1.5000   65.1058   85.2935 N   0  0  0  0  0  0  0  0  0  0  0  0
    0.7276   64.1766   85.9465 C   0  0  0  0  0  0  0  0  0  0  0  0
    0.8945   63.6196   87.2691 C   0  0  0  0  0  0  0  0  0  0  0  0
    1.7985   63.9593   88.0287 O   0  0  0  0  0  0  0  0  0  0  0  0
   -0.0864   62.6648   87.5908 N   0  0  0  0  0  0  0  0  0  0  0  0
   -0.0028   62.0485   88.8999 C   0  0  0  0  0  0  0  0  0  0  0  0
   -1.2047   62.3140   86.8059 C   0  0  0  0  0  0  0  0  0  0  0  0
   -2.0606   61.5291   87.2250 O   0  0  0  0  0  0  0  0  0  0  0  0
   -1.3112   62.9010   85.5303 N   0  0  0  0  0  0  0  0  0  0  0  0
   -0.3272   63.7957   85.1685 C   0  0  0  0  0  0  0  0  0  0  0  0
   -0.1910   64.4846   84.0022 N   0  0  0  0  0  0  0  0  0  0  0  0
   -0.7805   64.4493   83.1825 H   0  0  0  0  0  0  0  0  0  0  0  0
    1.1840   65.9887   81.6792 C   0  0  0  0  0  0  0  0  0  0  0  0
    1.6156   66.9528   80.7549 C   0  0  0  0  0  0  0  0  0  0  0  0
    2.2753   68.1068   81.1826 C   0  0  0  0  0  0  0  0  0  0  0  0
    2.5050   68.3147   82.5368 C   0  0  0  0  0  0  0  0  0  0  0  0
    2.0616   67.3734   83.4651 C   0  0  0  0  0  0  0  0  0  0  0  0
    1.3856   66.2077   83.0592 C   0  0  0  0  0  0  0  0  0  0  0  0
    0.5391   64.8313   81.3000 O   0  0  0  0  0  0  0  0  0  0  0  0
    0.0571   64.8039   79.9519 C   0  0  0  0  0  0  0  0  0  0  0  0
    0.4463   63.4758   79.3021 C   0  0  0  0  0  0  0  0  0  0  0  0
   -0.1165   62.2706   80.0605 C   0  0  0  0  0  0  0  0  0  0  0  0
    1.0856   61.4328   82.1558 C   0  0  0  0  0  0  0  0  0  0  0  0
    0.9705   61.3626   80.6415 C   0  0  0  0  0  0  0  0  0  0  0  0
   -2.4658   62.5810   84.6907 C   0  0  0  0  0  0  0  0  0  0  0  0
   -2.0909   62.2509   83.2325 C   0  0  0  0  0  0  0  0  0  0  0  0
   -2.6027   60.8559   82.8680 C   0  0  0  0  0  0  0  0  0  0  0  0
   -2.6446   63.2758   82.2408 C   0  0  0  0  0  0  0  0  0  0  0  0
 24 25  1  0  0  0
 25 23  1  0  0  0
 23 22  1  0  0  0
 22 21  1  0  0  0
 21 20  1  0  0  0
 20 14  1  0  0  0
 14 15  2  0  0  0
 15 16  1  0  0  0
 16 17  2  0  0  0
 17 18  1  0  0  0
 18 19  2  0  0  0
 19  1  1  0  0  0
  1  2  2  0  0  0
  2  3  1  0  0  0
  3  4  1  0  0  0
  4  5  2  0  0  0
  4  6  1  0  0  0
  6  7  1  0  0  0
  6  8  1  0  0  0
  8  9  2  0  0  0
  8 10  1  0  0  0
 10 26  1  0  0  0
 26 27  1  0  0  0
 27 28  1  0  0  0
 27 29  1  0  0  0
 10 11  1  0  0  0
 11 12  1  0  0  0
 19 14  1  0  0  0
 12  1  1  0  0  0
 11  3  2  0  0  0
 12 13  1  0  0  0
M  END
> <minimizedAffinity>
-8.62764

$$$$



 29 31  0  0  0  0  0  0  0  0999 V2000
    0.8840   65.3651   83.8156 C   0  0  0  0  0  0  0  0  0  0  0  0
    1.3828   65.2107   85.0348 N   0  0  0  0  0  0  0  0  0  0  0  0
    0.6167   64.2417   85.6352 C   0  0  0  0  0  0  0  0  0  0  0  0
    0.7257   63.6868   86.9647 C   0  0  0  0  0  0  0  0  0  0  0  0
    1.5617   64.0663   87.7814 O   0  0  0  0  0  0  0  0  0  0  0  0
   -0.2259   62.6838   87.2211 N   0  0  0  0  0  0  0  0  0  0  0  0
   -0.1960   62.0657   88.5317 C   0  0  0  0  0  0  0  0  0  0  0  0
   -1.2732   62.2830   86.3655 C   0  0  0  0  0  0  0  0  0  0  0  0
   -2.1147   61.4553   86.7274 O   0  0  0  0  0  0  0  0  0  0  0  0
   -1.3266   62.8705   85.0868 N   0  0  0  0  0  0  0  0  0  0  0  0
   -0.3664   63.8139   84.7906 C   0  0  0  0  0  0  0  0  0  0  0  0
   -0.1898   64.5145   83.6367 N   0  0  0  0  0  0  0  0  0  0  0  0
   -0.7233   64.4546   82.7809 H   0  0  0  0  0  0  0  0  0  0  0  0
    2.0683   67.4984   83.1035 C   0  0  0  0  0  0  0  0  0  0  0  0
    2.5171   68.3237   82.0605 C   0  0  0  0  0  0  0  0  0  0  0  0
    2.2356   68.0089   80.7295 C   0  0  0  0  0  0  0  0  0  0  0  0
    1.5099   66.8643   80.4245 C   0  0  0  0  0  0  0  0  0  0  0  0
    1.0775   66.0263   81.4518 C   0  0  0  0  0  0  0  0  0  0  0  0
    1.3577   66.3170   82.7999 C   0  0  0  0  0  0  0  0  0  0  0  0
    2.3144   67.7770   84.4305 O   0  0  0  0  0  0  0  0  0  0  0  0
    3.6554   68.1705   84.7426 C   0  0  0  0  0  0  0  0  0  0  0  0
    4.5602   66.9381   84.7315 C   0  0  0  0  0  0  0  0  0  0  0  0
    5.5656   66.9448   85.8863 C   0  0  0  0  0  0  0  0  0  0  0  0
    7.5212   65.7881   84.7137 C   0  0  0  0  0  0  0  0  0  0  0  0
    6.5226   65.7502   85.8595 C   0  0  0  0  0  0  0  0  0  0  0  0
   -2.4081   62.4989   84.1744 C   0  0  0  0  0  0  0  0  0  0  0  0
   -1.9927   61.4468   83.1273 C   0  0  0  0  0  0  0  0  0  0  0  0
   -3.1117   60.4181   82.9530 C   0  0  0  0  0  0  0  0  0  0  0  0
   -1.6555   62.0725   81.7726 C   0  0  0  0  0  0  0  0  0  0  0  0
 24 25  1  0  0  0
 25 23  1  0  0  0
 23 22  1  0  0  0
 22 21  1  0  0  0
 21 20  1  0  0  0
 20 14  1  0  0  0
 14 15  2  0  0  0
 15 16  1  0  0  0
 16 17  2  0  0  0
 17 18  1  0  0  0
 18 19  2  0  0  0
 19  1  1  0  0  0
  1  2  2  0  0  0
  2  3  1  0  0  0
  3  4  1  0  0  0
  4  5  2  0  0  0
  4  6  1  0  0  0
  6  7  1  0  0  0
  6  8  1  0  0  0
  8  9  2  0  0  0
  8 10  1  0  0  0
 10 26  1  0  0  0
 26 27  1  0  0  0
 27 28  1  0  0  0
 27 29  1  0  0  0
 10 11  1  0  0  0
 11 12  1  0  0  0
 19 14  1  0  0  0
 12  1  1  0  0  0
 11  3  2  0  0  0
 12 13  1  0  0  0
M  END
> <minimizedAffinity>
-8.55130

$$$$



 29 31  0  0  0  0  0  0  0  0999 V2000
    0.8229   65.0559   84.9468 C   0  0  0  0  0  0  0  0  0  0  0  0
    0.3742   65.3795   83.7413 N   0  0  0  0  0  0  0  0  0  0  0  0
    1.2017   66.3768   83.2866 C   0  0  0  0  0  0  0  0  0  0  0  0
    1.1655   67.0899   82.0305 C   0  0  0  0  0  0  0  0  0  0  0  0
    0.3092   66.8899   81.1724 O   0  0  0  0  0  0  0  0  0  0  0  0
    2.2000   68.0339   81.9048 N   0  0  0  0  0  0  0  0  0  0  0  0
    2.2471   68.8012   80.6761 C   0  0  0  0  0  0  0  0  0  0  0  0
    3.1429   68.3818   82.8945 C   0  0  0  0  0  0  0  0  0  0  0  0
    3.9538   69.2951   82.7140 O   0  0  0  0  0  0  0  0  0  0  0  0
    3.1169   67.6531   84.0993 N   0  0  0  0  0  0  0  0  0  0  0  0
    2.1485   66.6800   84.2218 C   0  0  0  0  0  0  0  0  0  0  0  0
    1.9170   65.8370   85.2655 N   0  0  0  0  0  0  0  0  0  0  0  0
    2.4277   65.7620   86.1339 H   0  0  0  0  0  0  0  0  0  0  0  0
   -0.1948   62.7756   85.4207 C   0  0  0  0  0  0  0  0  0  0  0  0
   -0.6978   61.8651   86.3632 C   0  0  0  0  0  0  0  0  0  0  0  0
   -0.8070   62.2186   87.7096 C   0  0  0  0  0  0  0  0  0  0  0  0
   -0.4092   63.4811   88.1312 C   0  0  0  0  0  0  0  0  0  0  0  0
    0.1116   64.3859   87.2067 C   0  0  0  0  0  0  0  0  0  0  0  0
    0.2409   64.0490   85.8465 C   0  0  0  0  0  0  0  0  0  0  0  0
   -0.0799   62.4719   84.0814 O   0  0  0  0  0  0  0  0  0  0  0  0
   -1.2167   61.8314   83.4916 C   0  0  0  0  0  0  0  0  0  0  0  0
   -2.3860   62.8156   83.4474 C   0  0  0  0  0  0  0  0  0  0  0  0
   -2.5858   63.4185   82.0542 C   0  0  0  0  0  0  0  0  0  0  0  0
   -3.9681   61.8486   80.5836 C   0  0  0  0  0  0  0  0  0  0  0  0
   -2.5849   62.3707   80.9380 C   0  0  0  0  0  0  0  0  0  0  0  0
    4.0638   67.9941   85.1611 C   0  0  0  0  0  0  0  0  0  0  0  0
    5.1271   66.9056   85.4073 C   0  0  0  0  0  0  0  0  0  0  0  0
    6.3420   67.1547   84.5113 C   0  0  0  0  0  0  0  0  0  0  0  0
    5.5722   66.8441   86.8697 C   0  0  0  0  0  0  0  0  0  0  0  0
 24 25  1  0  0  0
 25 23  1  0  0  0
 23 22  1  0  0  0
 22 21  1  0  0  0
 21 20  1  0  0  0
 20 14  1  0  0  0
 14 15  2  0  0  0
 15 16  1  0  0  0
 16 17  2  0  0  0
 17 18  1  0  0  0
 18 19  2  0  0  0
 19  1  1  0  0  0
  1  2  2  0  0  0
  2  3  1  0  0  0
  3  4  1  0  0  0
  4  5  2  0  0  0
  4  6  1  0  0  0
  6  7  1  0  0  0
  6  8  1  0  0  0
  8  9  2  0  0  0
  8 10  1  0  0  0
 10 26  1  0  0  0
 26 27  1  0  0  0
 27 28  1  0  0  0
 27 29  1  0  0  0
 10 11  1  0  0  0
 11 12  1  0  0  0
 19 14  1  0  0  0
 12  1  1  0  0  0
 11  3  2  0  0  0
 12 13  1  0  0  0
M  END
> <minimizedAffinity>
-8.51308

$$$$
