
     RDKit          3D

 69 72  0  0  0  0  0  0  0  0999 V2000
   -2.1092    6.9250   -0.2672 C   0  0  0  0  0  0  0  0  0  0  0  0
   -2.3181    5.4238   -0.3510 C   0  0  0  0  0  0  0  0  0  0  0  0
   -1.0920    4.7096   -0.9119 C   0  0  0  0  0  0  0  0  0  0  0  0
   -1.3880    3.3108   -0.9508 O   0  0  0  0  0  0  0  0  0  0  0  0
   -0.4144    2.4476   -1.3853 C   0  0  0  0  0  0  0  0  0  0  0  0
    0.8385    2.8732   -1.8532 C   0  0  0  0  0  0  0  0  0  0  0  0
    1.7982    1.9487   -2.2742 C   0  0  0  0  0  0  0  0  0  0  0  0
    1.5114    0.5857   -2.2286 C   0  0  0  0  0  0  0  0  0  0  0  0
    2.7182   -0.5933   -2.8039 S   0  0  0  0  0  0  0  0  0  0  0  0
    1.9991   -1.7403   -3.3125 O   0  0  0  0  0  0  0  0  0  0  0  0
    3.6571    0.1339   -3.6320 O   0  0  0  0  0  0  0  0  0  0  0  0
    3.5185   -1.0498   -1.3782 N   0  0  0  0  0  0  0  0  0  0  0  0
    2.8331   -2.0206   -0.4944 C   0  0  0  0  0  0  0  0  0  0  0  0
    3.4699   -2.0696    0.8909 C   0  0  0  0  0  0  0  0  0  0  0  0
    4.9969   -2.0102    0.8163 C   0  0  0  0  0  0  0  0  0  0  0  0
    5.7449   -2.2148    2.4296 P   0  0  0  0  0  0  0  0  0  0  0  0
    5.4600   -3.5007    3.1259 O   0  0  0  0  0  0  0  0  0  0  0  0
    5.3531   -0.9198    3.2867 O   0  0  0  0  0  0  0  0  0  0  0  0
    7.3101   -1.9541    2.2232 O   0  0  0  0  0  0  0  0  0  0  0  0
    5.4719   -0.7635    0.0519 C   0  0  0  0  0  0  0  0  0  0  0  0
    4.3534   -0.0483   -0.7013 C   0  0  0  0  0  0  0  0  0  0  0  0
    0.2599    0.1442   -1.7983 C   0  0  0  0  0  0  0  0  0  0  0  0
   -0.7079    1.0649   -1.3562 C   0  0  0  0  0  0  0  0  0  0  0  0
   -2.0046    0.4865   -0.8558 C   0  0  0  0  0  0  0  0  0  0  0  0
   -2.0784   -0.7927   -0.6030 N   0  0  0  0  0  0  0  0  0  0  0  0
   -3.3276   -1.2116   -0.1438 C   0  0  0  0  0  0  0  0  0  0  0  0
   -3.7679   -2.4935    0.2233 C   0  0  0  0  0  0  0  0  0  0  0  0
   -3.0082   -3.7752    0.2077 C   0  0  0  0  0  0  0  0  0  0  0  0
   -1.9754   -3.8908    1.3314 C   0  0  0  0  0  0  0  0  0  0  0  0
   -2.6048   -3.9880    2.7143 C   0  0  0  0  0  0  0  0  0  0  0  0
   -5.0546   -2.4554    0.6198 N   0  0  0  0  0  0  0  0  0  0  0  0
   -5.3998   -1.1497    0.4959 N   0  0  0  0  0  0  0  0  0  0  0  0
   -6.7346   -0.7223    0.8389 C   0  0  0  0  0  0  0  0  0  0  0  0
   -4.3836   -0.3712    0.0389 C   0  0  0  0  0  0  0  0  0  0  0  0
   -4.3109    1.0175   -0.2266 C   0  0  0  0  0  0  0  0  0  0  0  0
   -5.2144    1.8293   -0.0656 O   0  0  0  0  0  0  0  0  0  0  0  0
   -3.0657    1.3708   -0.6936 N   0  0  0  0  0  0  0  0  0  0  0  0
   -1.2652    7.1676    0.3863 H   0  0  0  0  0  0  0  0  0  0  0  0
   -3.0027    7.4104    0.1377 H   0  0  0  0  0  0  0  0  0  0  0  0
   -1.9110    7.3492   -1.2566 H   0  0  0  0  0  0  0  0  0  0  0  0
   -3.1905    5.2033   -0.9780 H   0  0  0  0  0  0  0  0  0  0  0  0
   -2.5533    5.0241    0.6429 H   0  0  0  0  0  0  0  0  0  0  0  0
   -0.8868    5.0769   -1.9243 H   0  0  0  0  0  0  0  0  0  0  0  0
   -0.2306    4.8944   -0.2591 H   0  0  0  0  0  0  0  0  0  0  0  0
    1.1029    3.9252   -1.9111 H   0  0  0  0  0  0  0  0  0  0  0  0
    2.7581    2.3027   -2.6466 H   0  0  0  0  0  0  0  0  0  0  0  0
    1.7729   -1.7811   -0.3824 H   0  0  0  0  0  0  0  0  0  0  0  0
    2.9103   -3.0104   -0.9591 H   0  0  0  0  0  0  0  0  0  0  0  0
    3.1487   -2.9805    1.4096 H   0  0  0  0  0  0  0  0  0  0  0  0
    3.1037   -1.2334    1.5004 H   0  0  0  0  0  0  0  0  0  0  0  0
    5.3268   -2.8846    0.2384 H   0  0  0  0  0  0  0  0  0  0  0  0
    5.2204   -0.0898    2.7982 H   0  0  0  0  0  0  0  0  0  0  0  0
    7.8094   -2.1976    3.0279 H   0  0  0  0  0  0  0  0  0  0  0  0
    6.2459   -1.0754   -0.6617 H   0  0  0  0  0  0  0  0  0  0  0  0
    5.9597   -0.0480    0.7222 H   0  0  0  0  0  0  0  0  0  0  0  0
    4.8066    0.6466   -1.4150 H   0  0  0  0  0  0  0  0  0  0  0  0
    3.7407    0.5435   -0.0114 H   0  0  0  0  0  0  0  0  0  0  0  0
    0.0347   -0.9217   -1.8114 H   0  0  0  0  0  0  0  0  0  0  0  0
   -3.7003   -4.6253    0.2549 H   0  0  0  0  0  0  0  0  0  0  0  0
   -2.4884   -3.8581   -0.7553 H   0  0  0  0  0  0  0  0  0  0  0  0
   -1.3740   -4.7917    1.1603 H   0  0  0  0  0  0  0  0  0  0  0  0
   -1.2849   -3.0393    1.3080 H   0  0  0  0  0  0  0  0  0  0  0  0
   -3.3014   -4.8305    2.7702 H   0  0  0  0  0  0  0  0  0  0  0  0
   -3.1469   -3.0734    2.9732 H   0  0  0  0  0  0  0  0  0  0  0  0
   -1.8280   -4.1403    3.4705 H   0  0  0  0  0  0  0  0  0  0  0  0
   -6.6664    0.0050    1.6515 H   0  0  0  0  0  0  0  0  0  0  0  0
   -7.1927   -0.2743   -0.0462 H   0  0  0  0  0  0  0  0  0  0  0  0
   -7.3221   -1.5854    1.1628 H   0  0  0  0  0  0  0  0  0  0  0  0
   -2.9296    2.3559   -0.8795 H   0  0  0  0  0  0  0  0  0  0  0  0
  1  2  1  0
  2  3  1  0
  3  4  1  0
  4  5  1  0
  5  6  1  0
  6  7  2  0
  7  8  1  0
  8  9  1  0
  9 10  2  0
  9 11  2  0
  9 12  1  0
 12 13  1  0
 13 14  1  0
 14 15  1  0
 15 16  1  0
 16 17  2  0
 16 18  1  0
 16 19  1  0
 15 20  1  0
 20 21  1  0
  8 22  2  0
 22 23  1  0
 23 24  1  0
 24 25  2  0
 25 26  1  0
 26 27  1  0
 27 28  1  0
 28 29  1  0
 29 30  1  0
 27 31  2  0
 31 32  1  0
 32 33  1  0
 32 34  1  0
 34 35  1  0
 35 36  2  0
 35 37  1  0
 23  5  2  0
 37 24  1  0
 21 12  1  0
 34 26  2  0
  1 38  1  0
  1 39  1  0
  1 40  1  0
  2 41  1  0
  2 42  1  0
  3 43  1  0
  3 44  1  0
  6 45  1  0
  7 46  1  0
 13 47  1  0
 13 48  1  0
 14 49  1  0
 14 50  1  0
 15 51  1  0
 18 52  1  0
 19 53  1  0
 20 54  1  0
 20 55  1  0
 21 56  1  0
 21 57  1  0
 22 58  1  0
 28 59  1  0
 28 60  1  0
 29 61  1  0
 29 62  1  0
 30 63  1  0
 30 64  1  0
 30 65  1  0
 33 66  1  0
 33 67  1  0
 33 68  1  0
 37 69  1  0
M  END
$$$$
