
     RDKit          3D

 33 35  0  0  0  0  0  0  0  0999 V2000
    3.0288    1.6375   -0.8439 C   0  0  0  0  0  0  0  0  0  0  0  0
    3.8894    0.3858   -0.9494 C   0  0  0  0  0  0  0  0  0  0  0  0
    3.0719   -0.9066   -1.0062 C   0  0  0  0  0  0  0  0  0  0  0  0
    2.3706   -1.2260    0.2691 C   0  0  0  0  0  0  0  0  0  0  0  0
    3.0239   -1.8163    1.2903 N   0  0  0  0  0  0  0  0  0  0  0  0
    2.0810   -1.9432    2.2534 N   0  0  0  0  0  0  0  0  0  0  0  0
    0.8701   -1.4631    1.8769 C   0  0  0  0  0  0  0  0  0  0  0  0
   -0.3535   -1.4011    2.5792 C   0  0  0  0  0  0  0  0  0  0  0  0
   -0.5365   -1.7843    3.7276 O   0  0  0  0  0  0  0  0  0  0  0  0
   -1.3456   -0.8363    1.8093 N   0  0  0  0  0  0  0  0  0  0  0  0
   -1.1430   -0.3682    0.5114 C   0  0  0  0  0  0  0  0  0  0  0  0
   -2.3337    0.2365   -0.1486 C   0  0  0  0  0  0  0  0  0  0  0  0
   -2.1396    1.2879   -1.0533 C   0  0  0  0  0  0  0  0  0  0  0  0
   -3.2339    1.8806   -1.6853 C   0  0  0  0  0  0  0  0  0  0  0  0
   -4.5235    1.4201   -1.4235 C   0  0  0  0  0  0  0  0  0  0  0  0
   -4.7217    0.3622   -0.5363 C   0  0  0  0  0  0  0  0  0  0  0  0
   -3.6299   -0.2338    0.0998 C   0  0  0  0  0  0  0  0  0  0  0  0
   -0.0050   -0.4135   -0.1254 N   0  0  0  0  0  0  0  0  0  0  0  0
    1.0268   -0.9987    0.6087 C   0  0  0  0  0  0  0  0  0  0  0  0
    2.3045    1.6872   -1.6632 H   0  0  0  0  0  0  0  0  0  0  0  0
    2.4826    1.6702    0.1036 H   0  0  0  0  0  0  0  0  0  0  0  0
    3.6588    2.5313   -0.8947 H   0  0  0  0  0  0  0  0  0  0  0  0
    4.5918    0.3578   -0.1078 H   0  0  0  0  0  0  0  0  0  0  0  0
    4.4905    0.4570   -1.8639 H   0  0  0  0  0  0  0  0  0  0  0  0
    3.7464   -1.7367   -1.2532 H   0  0  0  0  0  0  0  0  0  0  0  0
    2.3468   -0.8503   -1.8275 H   0  0  0  0  0  0  0  0  0  0  0  0
    2.3396   -2.3655    3.1396 H   0  0  0  0  0  0  0  0  0  0  0  0
   -2.2296   -0.7162    2.2785 H   0  0  0  0  0  0  0  0  0  0  0  0
   -1.1365    1.6520   -1.2670 H   0  0  0  0  0  0  0  0  0  0  0  0
   -3.0787    2.6987   -2.3845 H   0  0  0  0  0  0  0  0  0  0  0  0
   -5.3747    1.8800   -1.9202 H   0  0  0  0  0  0  0  0  0  0  0  0
   -5.7282   -0.0052   -0.3496 H   0  0  0  0  0  0  0  0  0  0  0  0
   -3.8100   -1.0799    0.7564 H   0  0  0  0  0  0  0  0  0  0  0  0
  1  2  1  0
  2  3  1  0
  3  4  1  0
  4  5  2  0
  5  6  1  0
  6  7  1  0
  7  8  1  0
  8  9  2  0
  8 10  1  0
 10 11  1  0
 11 12  1  0
 12 13  2  0
 13 14  1  0
 14 15  2  0
 15 16  1  0
 16 17  2  0
 11 18  2  0
 18 19  1  0
 19  4  1  0
 19  7  2  0
 17 12  1  0
  1 20  1  0
  1 21  1  0
  1 22  1  0
  2 23  1  0
  2 24  1  0
  3 25  1  0
  3 26  1  0
  6 27  1  0
 10 28  1  0
 13 29  1  0
 14 30  1  0
 15 31  1  0
 16 32  1  0
 17 33  1  0
M  END
$$$$
