
     RDKit          3D

 38 40  0  0  0  0  0  0  0  0999 V2000
    4.4728   -2.2342   -0.1488 C   0  0  0  0  0  0  0  0  0  0  0  0
    3.6119   -1.0501    0.2612 C   0  0  0  0  0  0  0  0  0  0  0  0
    3.0161   -0.3420   -0.9562 C   0  0  0  0  0  0  0  0  0  0  0  0
    2.1683    0.8199   -0.5700 C   0  0  0  0  0  0  0  0  0  0  0  0
    2.6794    2.0650   -0.5243 N   0  0  0  0  0  0  0  0  0  0  0  0
    1.6317    2.8380   -0.1439 N   0  0  0  0  0  0  0  0  0  0  0  0
    1.8053    4.2627    0.0075 C   0  0  0  0  0  0  0  0  0  0  0  0
    0.4908    2.1264    0.0577 C   0  0  0  0  0  0  0  0  0  0  0  0
   -0.8059    2.5293    0.4594 C   0  0  0  0  0  0  0  0  0  0  0  0
   -1.1504    3.6741    0.7246 O   0  0  0  0  0  0  0  0  0  0  0  0
   -1.6684    1.4555    0.5304 N   0  0  0  0  0  0  0  0  0  0  0  0
   -1.2965    0.1466    0.2410 C   0  0  0  0  0  0  0  0  0  0  0  0
   -2.3397   -0.9023    0.4008 C   0  0  0  0  0  0  0  0  0  0  0  0
   -1.9691   -2.0581    1.1061 C   0  0  0  0  0  0  0  0  0  0  0  0
   -2.8710   -3.1153    1.2695 C   0  0  0  0  0  0  0  0  0  0  0  0
   -4.1508   -3.0415    0.7188 C   0  0  0  0  0  0  0  0  0  0  0  0
   -4.5338   -1.9106    0.0000 C   0  0  0  0  0  0  0  0  0  0  0  0
   -3.6231   -0.8544   -0.1501 C   0  0  0  0  0  0  0  0  0  0  0  0
   -4.0601    0.2867   -0.9149 N   0  0  0  0  0  0  0  0  0  0  0  0
   -4.2329    0.1263   -2.1276 O   0  0  0  0  0  0  0  0  0  0  0  0
   -4.2530    1.3333   -0.2803 O   0  0  0  0  0  0  0  0  0  0  0  0
   -0.0987   -0.2231   -0.1163 N   0  0  0  0  0  0  0  0  0  0  0  0
    0.8108    0.8306   -0.2123 C   0  0  0  0  0  0  0  0  0  0  0  0
    4.8884   -2.7253    0.7366 H   0  0  0  0  0  0  0  0  0  0  0  0
    5.3062   -1.9129   -0.7816 H   0  0  0  0  0  0  0  0  0  0  0  0
    3.8851   -2.9732   -0.7027 H   0  0  0  0  0  0  0  0  0  0  0  0
    4.2194   -0.3474    0.8445 H   0  0  0  0  0  0  0  0  0  0  0  0
    2.8105   -1.4006    0.9231 H   0  0  0  0  0  0  0  0  0  0  0  0
    2.4141   -1.0508   -1.5386 H   0  0  0  0  0  0  0  0  0  0  0  0
    3.8231   -0.0042   -1.6188 H   0  0  0  0  0  0  0  0  0  0  0  0
    1.1170    4.7694   -0.6734 H   0  0  0  0  0  0  0  0  0  0  0  0
    1.5914    4.5284    1.0455 H   0  0  0  0  0  0  0  0  0  0  0  0
    2.8354    4.5328   -0.2393 H   0  0  0  0  0  0  0  0  0  0  0  0
   -2.6172    1.7037    0.7897 H   0  0  0  0  0  0  0  0  0  0  0  0
   -0.9685   -2.1453    1.5292 H   0  0  0  0  0  0  0  0  0  0  0  0
   -2.5672   -4.0040    1.8201 H   0  0  0  0  0  0  0  0  0  0  0  0
   -4.8438   -3.8715    0.8425 H   0  0  0  0  0  0  0  0  0  0  0  0
   -5.5273   -1.8618   -0.4416 H   0  0  0  0  0  0  0  0  0  0  0  0
  1  2  1  0
  2  3  1  0
  3  4  1  0
  4  5  2  0
  5  6  1  0
  6  7  1  0
  6  8  1  0
  8  9  1  0
  9 10  2  0
  9 11  1  0
 11 12  1  0
 12 13  1  0
 13 14  2  0
 14 15  1  0
 15 16  2  0
 16 17  1  0
 17 18  2  0
 18 19  1  0
 19 20  2  0
 19 21  1  0
 12 22  2  0
 22 23  1  0
 23  4  1  0
 23  8  2  0
 18 13  1  0
  1 24  1  0
  1 25  1  0
  1 26  1  0
  2 27  1  0
  2 28  1  0
  3 29  1  0
  3 30  1  0
  7 31  1  0
  7 32  1  0
  7 33  1  0
 11 34  1  0
 14 35  1  0
 15 36  1  0
 16 37  1  0
 17 38  1  0
M  CHG  2  19   1  21  -1
M  END
$$$$
