
     RDKit          3D

 50 53  0  0  0  0  0  0  0  0999 V2000
   -5.6353   -3.1263   -2.6221 C   0  0  0  0  0  0  0  0  0  0  0  0
   -5.8725   -2.7562   -1.2710 O   0  0  0  0  0  0  0  0  0  0  0  0
   -4.7915   -2.6940   -0.4303 C   0  0  0  0  0  0  0  0  0  0  0  0
   -3.4844   -3.0325   -0.7934 C   0  0  0  0  0  0  0  0  0  0  0  0
   -2.4408   -2.9420    0.1359 C   0  0  0  0  0  0  0  0  0  0  0  0
   -2.6813   -2.5150    1.4472 C   0  0  0  0  0  0  0  0  0  0  0  0
   -1.5543   -2.4054    2.4470 C   0  0  0  0  0  0  0  0  0  0  0  0
   -1.2415   -1.0067    2.7223 N   0  0  0  0  0  0  0  0  0  0  0  0
   -0.3543   -0.3800    1.8156 C   0  0  0  0  0  0  0  0  0  0  0  0
    0.2417   -1.0959    0.8431 N   0  0  0  0  0  0  0  0  0  0  0  0
    1.1374   -0.5168   -0.0174 N   0  0  0  0  0  0  0  0  0  0  0  0
    1.4628    0.7868    0.0896 C   0  0  0  0  0  0  0  0  0  0  0  0
    2.3902    1.3510   -0.8054 N   0  0  0  0  0  0  0  0  0  0  0  0
    3.0502    0.3975   -1.6984 C   0  0  0  0  0  0  0  0  0  0  0  0
    4.2600    1.0619   -2.3364 C   0  0  0  0  0  0  0  0  0  0  0  0
    4.6125    0.7665   -3.6514 C   0  0  0  0  0  0  0  0  0  0  0  0
    5.7468    1.3655   -4.1923 C   0  0  0  0  0  0  0  0  0  0  0  0
    6.5011    2.2316   -3.4098 C   0  0  0  0  0  0  0  0  0  0  0  0
    6.0916    2.4641   -2.1080 C   0  0  0  0  0  0  0  0  0  0  0  0
    4.9980    1.8990   -1.5510 N   0  0  0  0  0  0  0  0  0  0  0  0
    0.8381    1.5978    1.0603 C   0  0  0  0  0  0  0  0  0  0  0  0
    1.0879    2.9882    1.1815 C   0  0  0  0  0  0  0  0  0  0  0  0
    0.4544    3.7698    2.1501 C   0  0  0  0  0  0  0  0  0  0  0  0
   -0.4568    3.1838    3.0215 C   0  0  0  0  0  0  0  0  0  0  0  0
   -1.1183    3.9760    4.0163 C   0  0  0  0  0  0  0  0  0  0  0  0
   -1.6466    4.6142    4.8289 N   0  0  0  0  0  0  0  0  0  0  0  0
   -0.7266    1.8157    2.9167 C   0  0  0  0  0  0  0  0  0  0  0  0
   -0.0893    0.9992    1.9470 C   0  0  0  0  0  0  0  0  0  0  0  0
   -3.9893   -2.1676    1.8101 C   0  0  0  0  0  0  0  0  0  0  0  0
   -5.0323   -2.2597    0.8827 C   0  0  0  0  0  0  0  0  0  0  0  0
   -6.6208   -1.8193    1.4103 Cl  0  0  0  0  0  0  0  0  0  0  0  0
   -4.9604   -2.4182   -3.1142 H   0  0  0  0  0  0  0  0  0  0  0  0
   -5.2536   -4.1504   -2.6889 H   0  0  0  0  0  0  0  0  0  0  0  0
   -6.5930   -3.0941   -3.1505 H   0  0  0  0  0  0  0  0  0  0  0  0
   -3.2361   -3.3667   -1.7954 H   0  0  0  0  0  0  0  0  0  0  0  0
   -1.4287   -3.1934   -0.1791 H   0  0  0  0  0  0  0  0  0  0  0  0
   -1.8953   -2.8698    3.3817 H   0  0  0  0  0  0  0  0  0  0  0  0
   -0.6760   -2.9897    2.1449 H   0  0  0  0  0  0  0  0  0  0  0  0
   -0.8592   -0.8935    3.6569 H   0  0  0  0  0  0  0  0  0  0  0  0
    3.1124    1.8658   -0.2998 H   0  0  0  0  0  0  0  0  0  0  0  0
    3.4207   -0.4809   -1.1553 H   0  0  0  0  0  0  0  0  0  0  0  0
    2.3452    0.0725   -2.4724 H   0  0  0  0  0  0  0  0  0  0  0  0
    4.0163    0.0857   -4.2506 H   0  0  0  0  0  0  0  0  0  0  0  0
    6.0402    1.1572   -5.2175 H   0  0  0  0  0  0  0  0  0  0  0  0
    7.3888    2.7130   -3.8046 H   0  0  0  0  0  0  0  0  0  0  0  0
    6.6512    3.1307   -1.4579 H   0  0  0  0  0  0  0  0  0  0  0  0
    1.7767    3.4826    0.4971 H   0  0  0  0  0  0  0  0  0  0  0  0
    0.6731    4.8347    2.2054 H   0  0  0  0  0  0  0  0  0  0  0  0
   -1.4655    1.3776    3.5880 H   0  0  0  0  0  0  0  0  0  0  0  0
   -4.1934   -1.8141    2.8182 H   0  0  0  0  0  0  0  0  0  0  0  0
  1  2  1  0
  2  3  1  0
  3  4  1  0
  4  5  2  0
  5  6  1  0
  6  7  1  0
  7  8  1  0
  8  9  1  0
  9 10  1  0
 10 11  2  0
 11 12  1  0
 12 13  1  0
 13 14  1  0
 14 15  1  0
 15 16  2  0
 16 17  1  0
 17 18  2  0
 18 19  1  0
 19 20  2  0
 12 21  2  0
 21 22  1  0
 22 23  2  0
 23 24  1  0
 24 25  1  0
 25 26  3  0
 24 27  2  0
 27 28  1  0
  6 29  2  0
 29 30  1  0
 30 31  1  0
 30  3  2  0
 28  9  2  0
 20 15  1  0
 28 21  1  0
  1 32  1  0
  1 33  1  0
  1 34  1  0
  4 35  1  0
  5 36  1  0
  7 37  1  0
  7 38  1  0
  8 39  1  0
 13 40  1  0
 14 41  1  0
 14 42  1  0
 16 43  1  0
 17 44  1  0
 18 45  1  0
 19 46  1  0
 22 47  1  0
 23 48  1  0
 27 49  1  0
 29 50  1  0
M  END
$$$$
