


 31 33  0  0  0  0  0  0  0  0999 V2000
    0.1434   63.8840   80.5927 N   0  0  0  0  0  0  0  0  0  0  0  0
    0.2195   65.2572   80.4427 C   0  0  0  0  0  0  0  0  0  0  0  0
   -0.1271   65.9233   79.4755 O   0  0  0  0  0  0  0  0  0  0  0  0
    0.4992   63.5707   81.4916 H   0  0  0  0  0  0  0  0  0  0  0  0
   -2.3038   62.4833   81.2159 C   0  0  0  0  0  0  0  0  0  0  0  0
   -1.4942   62.1848   79.9764 C   0  0  0  0  0  0  0  0  0  0  0  0
   -0.3145   62.9114   79.6787 C   0  0  0  0  0  0  0  0  0  0  0  0
    0.3822   62.6361   78.4940 C   0  0  0  0  0  0  0  0  0  0  0  0
   -0.0428   61.6366   77.6190 C   0  0  0  0  0  0  0  0  0  0  0  0
   -1.1705   60.8861   77.9218 C   0  0  0  0  0  0  0  0  0  0  0  0
   -1.8928   61.1524   79.0938 C   0  0  0  0  0  0  0  0  0  0  0  0
   -3.0624   60.2833   79.3866 C   0  0  0  0  0  0  0  0  0  0  0  0
   -4.2167   60.6793   79.2607 O   0  0  0  0  0  0  0  0  0  0  0  0
   -2.7593   58.9962   79.7734 N   0  0  0  0  0  0  0  0  0  0  0  0
   -3.8672   58.1181   79.8476 O   0  0  0  0  0  0  0  0  0  0  0  0
   -1.8600   58.5704   79.5738 H   0  0  0  0  0  0  0  0  0  0  0  0
   -4.6215   58.7187   79.6550 H   0  0  0  0  0  0  0  0  0  0  0  0
    0.7960   65.9337   81.6542 C   0  0  0  0  0  0  0  0  0  0  0  0
    1.3973   67.1787   81.5400 C   0  0  0  0  0  0  0  0  0  0  0  0
    1.9095   67.7629   82.6919 C   0  0  0  0  0  0  0  0  0  0  0  0
    1.8027   67.0890   83.9064 C   0  0  0  0  0  0  0  0  0  0  0  0
    1.1798   65.8409   83.9427 C   0  0  0  0  0  0  0  0  0  0  0  0
    0.6781   65.2462   82.8293 N   0  0  0  0  0  0  0  0  0  0  0  0
    1.0629   65.0840   85.2493 C   0  0  0  0  0  0  0  0  0  0  0  0
    0.5942   63.7442   85.0745 O   0  0  0  0  0  0  0  0  0  0  0  0
   -0.5364   63.3591   85.7407 C   0  0  0  0  0  0  0  0  0  0  0  0
   -0.5239   63.6379   87.1105 C   0  0  0  0  0  0  0  0  0  0  0  0
   -1.6141   63.3054   87.9162 C   0  0  0  0  0  0  0  0  0  0  0  0
   -2.7305   62.6933   87.3533 C   0  0  0  0  0  0  0  0  0  0  0  0
   -2.7540   62.4176   85.9875 C   0  0  0  0  0  0  0  0  0  0  0  0
   -1.6604   62.7503   85.1813 C   0  0  0  0  0  0  0  0  0  0  0  0
  5  6  1  0  0  0
  6  7  1  0  0  0
  7  1  1  0  0  0
  1  2  1  0  0  0
  2  3  2  0  0  0
  2 18  1  0  0  0
 18 19  1  0  0  0
 19 20  2  0  0  0
 20 21  1  0  0  0
 21 22  2  0  0  0
 22 24  1  0  0  0
 24 25  1  0  0  0
 25 26  1  0  0  0
 26 27  2  0  0  0
 27 28  1  0  0  0
 28 29  2  0  0  0
 29 30  1  0  0  0
 30 31  2  0  0  0
 22 23  1  0  0  0
  7  8  2  0  0  0
  8  9  1  0  0  0
  9 10  2  0  0  0
 10 11  1  0  0  0
 11 12  1  0  0  0
 12 13  2  0  0  0
 12 14  1  0  0  0
 14 15  1  0  0  0
 11  6  2  0  0  0
 23 18  2  0  0  0
 31 26  1  0  0  0
  1  4  1  0  0  0
 14 16  1  0  0  0
 15 17  1  0  0  0
M  END
> <minimizedAffinity>
-10.48520

$$$$



 31 33  0  0  0  0  0  0  0  0999 V2000
   -1.3793   62.5926   82.4109 N   0  0  0  0  0  0  0  0  0  0  0  0
   -1.6563   62.2139   83.7125 C   0  0  0  0  0  0  0  0  0  0  0  0
   -2.4359   61.3479   84.0885 O   0  0  0  0  0  0  0  0  0  0  0  0
   -0.6932   63.3407   82.3613 H   0  0  0  0  0  0  0  0  0  0  0  0
    0.4104   61.4335   80.4634 C   0  0  0  0  0  0  0  0  0  0  0  0
   -1.0735   61.5695   80.2181 C   0  0  0  0  0  0  0  0  0  0  0  0
   -1.9332   62.1118   81.2055 C   0  0  0  0  0  0  0  0  0  0  0  0
   -3.3111   62.1769   80.9571 C   0  0  0  0  0  0  0  0  0  0  0  0
   -3.8495   61.7509   79.7430 C   0  0  0  0  0  0  0  0  0  0  0  0
   -3.0130   61.2609   78.7497 C   0  0  0  0  0  0  0  0  0  0  0  0
   -1.6326   61.1723   78.9798 C   0  0  0  0  0  0  0  0  0  0  0  0
   -0.7844   60.6849   77.8608 C   0  0  0  0  0  0  0  0  0  0  0  0
   -0.1766   61.4522   77.1213 O   0  0  0  0  0  0  0  0  0  0  0  0
   -0.7014   59.3154   77.7361 N   0  0  0  0  0  0  0  0  0  0  0  0
    0.2652   58.8574   76.8089 O   0  0  0  0  0  0  0  0  0  0  0  0
   -0.9205   58.6894   78.5041 H   0  0  0  0  0  0  0  0  0  0  0  0
    0.5980   59.6983   76.4233 H   0  0  0  0  0  0  0  0  0  0  0  0
   -0.8603   62.9973   84.7176 C   0  0  0  0  0  0  0  0  0  0  0  0
   -0.8856   62.6432   86.0588 C   0  0  0  0  0  0  0  0  0  0  0  0
   -0.1273   63.3970   86.9461 C   0  0  0  0  0  0  0  0  0  0  0  0
    0.6236   64.4676   86.4660 C   0  0  0  0  0  0  0  0  0  0  0  0
    0.6020   64.7600   85.1017 C   0  0  0  0  0  0  0  0  0  0  0  0
   -0.1369   64.0426   84.2162 N   0  0  0  0  0  0  0  0  0  0  0  0
    1.4006   65.9266   84.5585 C   0  0  0  0  0  0  0  0  0  0  0  0
    2.7365   65.5648   84.1984 O   0  0  0  0  0  0  0  0  0  0  0  0
    3.7622   65.9877   84.9981 C   0  0  0  0  0  0  0  0  0  0  0  0
    4.1680   67.3059   84.7698 C   0  0  0  0  0  0  0  0  0  0  0  0
    5.2014   67.8738   85.5168 C   0  0  0  0  0  0  0  0  0  0  0  0
    5.8352   67.1247   86.5042 C   0  0  0  0  0  0  0  0  0  0  0  0
    5.4327   65.8121   86.7427 C   0  0  0  0  0  0  0  0  0  0  0  0
    4.3977   65.2436   85.9928 C   0  0  0  0  0  0  0  0  0  0  0  0
  5  6  1  0  0  0
  6  7  1  0  0  0
  7  1  1  0  0  0
  1  2  1  0  0  0
  2  3  2  0  0  0
  2 18  1  0  0  0
 18 19  1  0  0  0
 19 20  2  0  0  0
 20 21  1  0  0  0
 21 22  2  0  0  0
 22 24  1  0  0  0
 24 25  1  0  0  0
 25 26  1  0  0  0
 26 27  2  0  0  0
 27 28  1  0  0  0
 28 29  2  0  0  0
 29 30  1  0  0  0
 30 31  2  0  0  0
 22 23  1  0  0  0
  7  8  2  0  0  0
  8  9  1  0  0  0
  9 10  2  0  0  0
 10 11  1  0  0  0
 11 12  1  0  0  0
 12 13  2  0  0  0
 12 14  1  0  0  0
 14 15  1  0  0  0
 11  6  2  0  0  0
 23 18  2  0  0  0
 31 26  1  0  0  0
  1  4  1  0  0  0
 14 16  1  0  0  0
 15 17  1  0  0  0
M  END
> <minimizedAffinity>
-10.38433

$$$$



 31 33  0  0  0  0  0  0  0  0999 V2000
   -1.3730   62.5358   82.1883 N   0  0  0  0  0  0  0  0  0  0  0  0
   -1.6087   62.0809   83.4735 C   0  0  0  0  0  0  0  0  0  0  0  0
   -2.3142   61.1403   83.8152 O   0  0  0  0  0  0  0  0  0  0  0  0
   -0.7487   63.3375   82.1680 H   0  0  0  0  0  0  0  0  0  0  0  0
    0.4684   61.4166   80.2659 C   0  0  0  0  0  0  0  0  0  0  0  0
   -1.0112   61.5420   79.9905 C   0  0  0  0  0  0  0  0  0  0  0  0
   -1.8966   62.0646   80.9657 C   0  0  0  0  0  0  0  0  0  0  0  0
   -3.2695   62.1201   80.6888 C   0  0  0  0  0  0  0  0  0  0  0  0
   -3.7779   61.7040   79.4585 C   0  0  0  0  0  0  0  0  0  0  0  0
   -2.9160   61.2335   78.4775 C   0  0  0  0  0  0  0  0  0  0  0  0
   -1.5400   61.1547   78.7359 C   0  0  0  0  0  0  0  0  0  0  0  0
   -0.6638   60.6885   77.6296 C   0  0  0  0  0  0  0  0  0  0  0  0
   -0.0291   61.4691   76.9275 O   0  0  0  0  0  0  0  0  0  0  0  0
   -0.5877   59.3219   77.4727 N   0  0  0  0  0  0  0  0  0  0  0  0
    0.4017   58.8793   76.5621 O   0  0  0  0  0  0  0  0  0  0  0  0
   -0.8336   58.6787   78.2180 H   0  0  0  0  0  0  0  0  0  0  0  0
    0.7518   59.7269   76.2076 H   0  0  0  0  0  0  0  0  0  0  0  0
   -0.8693   62.8813   84.5080 C   0  0  0  0  0  0  0  0  0  0  0  0
   -0.9210   62.5138   85.8448 C   0  0  0  0  0  0  0  0  0  0  0  0
   -0.2148   63.2846   86.7601 C   0  0  0  0  0  0  0  0  0  0  0  0
    0.5124   64.3846   86.3112 C   0  0  0  0  0  0  0  0  0  0  0  0
    0.5201   64.6891   84.9495 C   0  0  0  0  0  0  0  0  0  0  0  0
   -0.1680   63.9553   84.0367 N   0  0  0  0  0  0  0  0  0  0  0  0
    1.2936   65.8872   84.4396 C   0  0  0  0  0  0  0  0  0  0  0  0
    1.6045   65.7953   83.0467 O   0  0  0  0  0  0  0  0  0  0  0  0
    1.0834   66.7355   82.2012 C   0  0  0  0  0  0  0  0  0  0  0  0
    0.1429   66.2393   81.2936 C   0  0  0  0  0  0  0  0  0  0  0  0
   -0.4765   67.0866   80.3733 C   0  0  0  0  0  0  0  0  0  0  0  0
   -0.1608   68.4424   80.3581 C   0  0  0  0  0  0  0  0  0  0  0  0
    0.7708   68.9464   81.2637 C   0  0  0  0  0  0  0  0  0  0  0  0
    1.3917   68.0962   82.1847 C   0  0  0  0  0  0  0  0  0  0  0  0
  5  6  1  0  0  0
  6  7  1  0  0  0
  7  1  1  0  0  0
  1  2  1  0  0  0
  2  3  2  0  0  0
  2 18  1  0  0  0
 18 19  1  0  0  0
 19 20  2  0  0  0
 20 21  1  0  0  0
 21 22  2  0  0  0
 22 24  1  0  0  0
 24 25  1  0  0  0
 25 26  1  0  0  0
 26 27  2  0  0  0
 27 28  1  0  0  0
 28 29  2  0  0  0
 29 30  1  0  0  0
 30 31  2  0  0  0
 22 23  1  0  0  0
  7  8  2  0  0  0
  8  9  1  0  0  0
  9 10  2  0  0  0
 10 11  1  0  0  0
 11 12  1  0  0  0
 12 13  2  0  0  0
 12 14  1  0  0  0
 14 15  1  0  0  0
 11  6  2  0  0  0
 23 18  2  0  0  0
 31 26  1  0  0  0
  1  4  1  0  0  0
 14 16  1  0  0  0
 15 17  1  0  0  0
M  END
> <minimizedAffinity>
-10.28861

$$$$



 31 33  0  0  0  0  0  0  0  0999 V2000
    0.2008   64.7646   80.2480 N   0  0  0  0  0  0  0  0  0  0  0  0
   -0.0939   66.0499   80.6667 C   0  0  0  0  0  0  0  0  0  0  0  0
   -0.8831   66.8377   80.1610 O   0  0  0  0  0  0  0  0  0  0  0  0
    0.8950   64.3132   80.8373 H   0  0  0  0  0  0  0  0  0  0  0  0
   -0.9625   62.1627   80.7131 C   0  0  0  0  0  0  0  0  0  0  0  0
   -0.8422   62.7595   79.3310 C   0  0  0  0  0  0  0  0  0  0  0  0
   -0.2973   64.0531   79.1360 C   0  0  0  0  0  0  0  0  0  0  0  0
   -0.2469   64.5902   77.8423 C   0  0  0  0  0  0  0  0  0  0  0  0
   -0.6900   63.8627   76.7379 C   0  0  0  0  0  0  0  0  0  0  0  0
   -1.1829   62.5766   76.9096 C   0  0  0  0  0  0  0  0  0  0  0  0
   -1.2570   62.0228   78.1957 C   0  0  0  0  0  0  0  0  0  0  0  0
   -1.7484   60.6247   78.3092 C   0  0  0  0  0  0  0  0  0  0  0  0
   -2.9213   60.3640   78.5572 O   0  0  0  0  0  0  0  0  0  0  0  0
   -0.8047   59.6470   78.0818 N   0  0  0  0  0  0  0  0  0  0  0  0
   -1.3188   58.3316   77.9847 O   0  0  0  0  0  0  0  0  0  0  0  0
    0.0538   59.8335   77.5739 H   0  0  0  0  0  0  0  0  0  0  0  0
   -2.2717   58.4656   78.1864 H   0  0  0  0  0  0  0  0  0  0  0  0
    0.6788   66.4427   81.8941 C   0  0  0  0  0  0  0  0  0  0  0  0
    1.4063   67.6238   81.9140 C   0  0  0  0  0  0  0  0  0  0  0  0
    2.0986   67.9431   83.0756 C   0  0  0  0  0  0  0  0  0  0  0  0
    2.0389   67.0792   84.1668 C   0  0  0  0  0  0  0  0  0  0  0  0
    1.2818   65.9109   84.0727 C   0  0  0  0  0  0  0  0  0  0  0  0
    0.6026   65.5736   82.9458 N   0  0  0  0  0  0  0  0  0  0  0  0
    1.2119   64.9505   85.2417 C   0  0  0  0  0  0  0  0  0  0  0  0
    0.4473   63.7773   84.9512 O   0  0  0  0  0  0  0  0  0  0  0  0
   -0.5549   63.4251   85.8125 C   0  0  0  0  0  0  0  0  0  0  0  0
   -1.6339   62.7727   85.2086 C   0  0  0  0  0  0  0  0  0  0  0  0
   -2.7269   62.3497   85.9667 C   0  0  0  0  0  0  0  0  0  0  0  0
   -2.7455   62.5737   87.3405 C   0  0  0  0  0  0  0  0  0  0  0  0
   -1.6712   63.2175   87.9516 C   0  0  0  0  0  0  0  0  0  0  0  0
   -0.5769   63.6419   87.1907 C   0  0  0  0  0  0  0  0  0  0  0  0
  5  6  1  0  0  0
  6  7  1  0  0  0
  7  1  1  0  0  0
  1  2  1  0  0  0
  2  3  2  0  0  0
  2 18  1  0  0  0
 18 19  1  0  0  0
 19 20  2  0  0  0
 20 21  1  0  0  0
 21 22  2  0  0  0
 22 24  1  0  0  0
 24 25  1  0  0  0
 25 26  1  0  0  0
 26 27  2  0  0  0
 27 28  1  0  0  0
 28 29  2  0  0  0
 29 30  1  0  0  0
 30 31  2  0  0  0
 22 23  1  0  0  0
  7  8  2  0  0  0
  8  9  1  0  0  0
  9 10  2  0  0  0
 10 11  1  0  0  0
 11 12  1  0  0  0
 12 13  2  0  0  0
 12 14  1  0  0  0
 14 15  1  0  0  0
 11  6  2  0  0  0
 23 18  2  0  0  0
 31 26  1  0  0  0
  1  4  1  0  0  0
 14 16  1  0  0  0
 15 17  1  0  0  0
M  END
> <minimizedAffinity>
-10.09583

$$$$



 31 33  0  0  0  0  0  0  0  0999 V2000
    0.5558   65.8197   82.3498 N   0  0  0  0  0  0  0  0  0  0  0  0
    0.2958   65.0756   81.2128 C   0  0  0  0  0  0  0  0  0  0  0  0
    0.7975   65.2066   80.1035 O   0  0  0  0  0  0  0  0  0  0  0  0
    0.0061   65.5147   83.1483 H   0  0  0  0  0  0  0  0  0  0  0  0
    2.7653   65.5354   84.1873 C   0  0  0  0  0  0  0  0  0  0  0  0
    2.4969   66.8186   83.4376 C   0  0  0  0  0  0  0  0  0  0  0  0
    1.4247   66.9190   82.5165 C   0  0  0  0  0  0  0  0  0  0  0  0
    1.2383   68.1124   81.8055 C   0  0  0  0  0  0  0  0  0  0  0  0
    2.0659   69.2159   82.0123 C   0  0  0  0  0  0  0  0  0  0  0  0
    3.0910   69.1461   82.9454 C   0  0  0  0  0  0  0  0  0  0  0  0
    3.3067   67.9583   83.6587 C   0  0  0  0  0  0  0  0  0  0  0  0
    4.3885   67.9615   84.6779 C   0  0  0  0  0  0  0  0  0  0  0  0
    5.5661   67.7909   84.3793 O   0  0  0  0  0  0  0  0  0  0  0  0
    3.9803   68.2042   85.9712 N   0  0  0  0  0  0  0  0  0  0  0  0
    5.0287   68.4130   86.8993 O   0  0  0  0  0  0  0  0  0  0  0  0
    3.0958   68.6547   86.1823 H   0  0  0  0  0  0  0  0  0  0  0  0
    5.8278   68.2516   86.3498 H   0  0  0  0  0  0  0  0  0  0  0  0
   -0.7230   63.9982   81.4551 C   0  0  0  0  0  0  0  0  0  0  0  0
   -1.2405   63.2732   80.3914 C   0  0  0  0  0  0  0  0  0  0  0  0
   -2.1757   62.2843   80.6707 C   0  0  0  0  0  0  0  0  0  0  0  0
   -2.5565   62.0561   81.9911 C   0  0  0  0  0  0  0  0  0  0  0  0
   -1.9881   62.8235   83.0085 C   0  0  0  0  0  0  0  0  0  0  0  0
   -1.0778   63.8005   82.7599 N   0  0  0  0  0  0  0  0  0  0  0  0
   -2.3956   62.6017   84.4502 C   0  0  0  0  0  0  0  0  0  0  0  0
   -1.4593   61.7992   85.1744 O   0  0  0  0  0  0  0  0  0  0  0  0
   -0.7466   62.3842   86.1844 C   0  0  0  0  0  0  0  0  0  0  0  0
   -0.8773   61.7534   87.4252 C   0  0  0  0  0  0  0  0  0  0  0  0
   -0.2018   62.2378   88.5465 C   0  0  0  0  0  0  0  0  0  0  0  0
    0.6159   63.3586   88.4323 C   0  0  0  0  0  0  0  0  0  0  0  0
    0.7569   63.9897   87.1978 C   0  0  0  0  0  0  0  0  0  0  0  0
    0.0787   63.5040   86.0750 C   0  0  0  0  0  0  0  0  0  0  0  0
  5  6  1  0  0  0
  6  7  1  0  0  0
  7  1  1  0  0  0
  1  2  1  0  0  0
  2  3  2  0  0  0
  2 18  1  0  0  0
 18 19  1  0  0  0
 19 20  2  0  0  0
 20 21  1  0  0  0
 21 22  2  0  0  0
 22 24  1  0  0  0
 24 25  1  0  0  0
 25 26  1  0  0  0
 26 27  2  0  0  0
 27 28  1  0  0  0
 28 29  2  0  0  0
 29 30  1  0  0  0
 30 31  2  0  0  0
 22 23  1  0  0  0
  7  8  2  0  0  0
  8  9  1  0  0  0
  9 10  2  0  0  0
 10 11  1  0  0  0
 11 12  1  0  0  0
 12 13  2  0  0  0
 12 14  1  0  0  0
 14 15  1  0  0  0
 11  6  2  0  0  0
 23 18  2  0  0  0
 31 26  1  0  0  0
  1  4  1  0  0  0
 14 16  1  0  0  0
 15 17  1  0  0  0
M  END
> <minimizedAffinity>
-10.07087

$$$$



 31 33  0  0  0  0  0  0  0  0999 V2000
   -0.1183   62.9353   80.9127 N   0  0  0  0  0  0  0  0  0  0  0  0
    0.5337   62.3154   81.9638 C   0  0  0  0  0  0  0  0  0  0  0  0
    1.1156   61.2381   81.9506 O   0  0  0  0  0  0  0  0  0  0  0  0
   -0.5257   63.8273   81.1797 H   0  0  0  0  0  0  0  0  0  0  0  0
   -2.1420   60.9309   80.4369 C   0  0  0  0  0  0  0  0  0  0  0  0
   -1.2680   61.4760   79.3324 C   0  0  0  0  0  0  0  0  0  0  0  0
   -0.3055   62.4838   79.5890 C   0  0  0  0  0  0  0  0  0  0  0  0
    0.4528   62.9969   78.5277 C   0  0  0  0  0  0  0  0  0  0  0  0
    0.3039   62.5102   77.2291 C   0  0  0  0  0  0  0  0  0  0  0  0
   -0.6024   61.4908   76.9724 C   0  0  0  0  0  0  0  0  0  0  0  0
   -1.3830   60.9711   78.0150 C   0  0  0  0  0  0  0  0  0  0  0  0
   -2.2999   59.8484   77.6864 C   0  0  0  0  0  0  0  0  0  0  0  0
   -1.9966   58.6776   77.8917 O   0  0  0  0  0  0  0  0  0  0  0  0
   -3.5231   60.2169   77.1705 N   0  0  0  0  0  0  0  0  0  0  0  0
   -4.4644   59.1657   77.0563 O   0  0  0  0  0  0  0  0  0  0  0  0
   -3.9028   61.1495   77.2959 H   0  0  0  0  0  0  0  0  0  0  0  0
   -3.9366   58.3834   77.3320 H   0  0  0  0  0  0  0  0  0  0  0  0
    0.4836   63.1279   83.2267 C   0  0  0  0  0  0  0  0  0  0  0  0
   -0.0917   62.6015   84.3742 C   0  0  0  0  0  0  0  0  0  0  0  0
   -0.1074   63.3921   85.5167 C   0  0  0  0  0  0  0  0  0  0  0  0
    0.4484   64.6688   85.4728 C   0  0  0  0  0  0  0  0  0  0  0  0
    1.0133   65.1275   84.2822 C   0  0  0  0  0  0  0  0  0  0  0  0
    1.0340   64.3763   83.1507 N   0  0  0  0  0  0  0  0  0  0  0  0
    1.6124   66.5164   84.2071 C   0  0  0  0  0  0  0  0  0  0  0  0
    2.9910   66.5063   83.8268 O   0  0  0  0  0  0  0  0  0  0  0  0
    3.9365   66.6297   84.8072 C   0  0  0  0  0  0  0  0  0  0  0  0
    4.4847   65.4179   85.2379 C   0  0  0  0  0  0  0  0  0  0  0  0
    5.4658   65.3914   86.2304 C   0  0  0  0  0  0  0  0  0  0  0  0
    5.9100   66.5825   86.7976 C   0  0  0  0  0  0  0  0  0  0  0  0
    5.3736   67.7954   86.3696 C   0  0  0  0  0  0  0  0  0  0  0  0
    4.3896   67.8207   85.3756 C   0  0  0  0  0  0  0  0  0  0  0  0
  5  6  1  0  0  0
  6  7  1  0  0  0
  7  1  1  0  0  0
  1  2  1  0  0  0
  2  3  2  0  0  0
  2 18  1  0  0  0
 18 19  1  0  0  0
 19 20  2  0  0  0
 20 21  1  0  0  0
 21 22  2  0  0  0
 22 24  1  0  0  0
 24 25  1  0  0  0
 25 26  1  0  0  0
 26 27  2  0  0  0
 27 28  1  0  0  0
 28 29  2  0  0  0
 29 30  1  0  0  0
 30 31  2  0  0  0
 22 23  1  0  0  0
  7  8  2  0  0  0
  8  9  1  0  0  0
  9 10  2  0  0  0
 10 11  1  0  0  0
 11 12  1  0  0  0
 12 13  2  0  0  0
 12 14  1  0  0  0
 14 15  1  0  0  0
 11  6  2  0  0  0
 23 18  2  0  0  0
 31 26  1  0  0  0
  1  4  1  0  0  0
 14 16  1  0  0  0
 15 17  1  0  0  0
M  END
> <minimizedAffinity>
-10.05902

$$$$



 31 33  0  0  0  0  0  0  0  0999 V2000
   -0.0031   63.3595   80.9719 N   0  0  0  0  0  0  0  0  0  0  0  0
    0.1325   64.7321   81.0806 C   0  0  0  0  0  0  0  0  0  0  0  0
   -0.0465   65.5717   80.2075 O   0  0  0  0  0  0  0  0  0  0  0  0
    0.2049   62.8781   81.8425 H   0  0  0  0  0  0  0  0  0  0  0  0
   -2.4039   61.7600   81.1036 C   0  0  0  0  0  0  0  0  0  0  0  0
   -1.4996   61.7634   79.8940 C   0  0  0  0  0  0  0  0  0  0  0  0
   -0.3453   62.5840   79.8439 C   0  0  0  0  0  0  0  0  0  0  0  0
    0.4417   62.5938   78.6841 C   0  0  0  0  0  0  0  0  0  0  0  0
    0.1312   61.7851   77.5909 C   0  0  0  0  0  0  0  0  0  0  0  0
   -0.9702   60.9422   77.6450 C   0  0  0  0  0  0  0  0  0  0  0  0
   -1.7813   60.9252   78.7887 C   0  0  0  0  0  0  0  0  0  0  0  0
   -2.9173   59.9669   78.8052 C   0  0  0  0  0  0  0  0  0  0  0  0
   -3.7327   59.9065   77.8906 O   0  0  0  0  0  0  0  0  0  0  0  0
   -2.9683   59.1307   79.8989 N   0  0  0  0  0  0  0  0  0  0  0  0
   -3.9215   58.0880   79.8098 O   0  0  0  0  0  0  0  0  0  0  0  0
   -2.1546   58.9486   80.4773 H   0  0  0  0  0  0  0  0  0  0  0  0
   -4.3727   58.2911   78.9602 H   0  0  0  0  0  0  0  0  0  0  0  0
    0.5390   65.1589   82.4627 C   0  0  0  0  0  0  0  0  0  0  0  0
    0.1595   64.4084   83.5661 C   0  0  0  0  0  0  0  0  0  0  0  0
    0.5662   64.8439   84.8213 C   0  0  0  0  0  0  0  0  0  0  0  0
    1.3320   66.0026   84.9284 C   0  0  0  0  0  0  0  0  0  0  0  0
    1.6785   66.7019   83.7717 C   0  0  0  0  0  0  0  0  0  0  0  0
    1.2868   66.3004   82.5346 N   0  0  0  0  0  0  0  0  0  0  0  0
    2.5000   67.9709   83.8643 C   0  0  0  0  0  0  0  0  0  0  0  0
    3.9028   67.7361   83.7147 O   0  0  0  0  0  0  0  0  0  0  0  0
    4.5907   67.2124   84.7743 C   0  0  0  0  0  0  0  0  0  0  0  0
    5.0009   65.8874   84.5996 C   0  0  0  0  0  0  0  0  0  0  0  0
    5.7180   65.2251   85.5973 C   0  0  0  0  0  0  0  0  0  0  0  0
    6.0345   65.8885   86.7796 C   0  0  0  0  0  0  0  0  0  0  0  0
    5.6351   67.2114   86.9593 C   0  0  0  0  0  0  0  0  0  0  0  0
    4.9155   67.8738   85.9592 C   0  0  0  0  0  0  0  0  0  0  0  0
  5  6  1  0  0  0
  6  7  1  0  0  0
  7  1  1  0  0  0
  1  2  1  0  0  0
  2  3  2  0  0  0
  2 18  1  0  0  0
 18 19  1  0  0  0
 19 20  2  0  0  0
 20 21  1  0  0  0
 21 22  2  0  0  0
 22 24  1  0  0  0
 24 25  1  0  0  0
 25 26  1  0  0  0
 26 27  2  0  0  0
 27 28  1  0  0  0
 28 29  2  0  0  0
 29 30  1  0  0  0
 30 31  2  0  0  0
 22 23  1  0  0  0
  7  8  2  0  0  0
  8  9  1  0  0  0
  9 10  2  0  0  0
 10 11  1  0  0  0
 11 12  1  0  0  0
 12 13  2  0  0  0
 12 14  1  0  0  0
 14 15  1  0  0  0
 11  6  2  0  0  0
 23 18  2  0  0  0
 31 26  1  0  0  0
  1  4  1  0  0  0
 14 16  1  0  0  0
 15 17  1  0  0  0
M  END
> <minimizedAffinity>
-9.90380

$$$$



 31 33  0  0  0  0  0  0  0  0999 V2000
    1.7270   65.7957   84.9386 N   0  0  0  0  0  0  0  0  0  0  0  0
    0.9634   64.8811   84.2353 C   0  0  0  0  0  0  0  0  0  0  0  0
    0.9825   64.6616   83.0308 O   0  0  0  0  0  0  0  0  0  0  0  0
    1.5228   65.7889   85.9341 H   0  0  0  0  0  0  0  0  0  0  0  0
    4.4950   65.3635   85.6388 C   0  0  0  0  0  0  0  0  0  0  0  0
    4.0444   66.5464   84.8151 C   0  0  0  0  0  0  0  0  0  0  0  0
    2.6834   66.7153   84.4582 C   0  0  0  0  0  0  0  0  0  0  0  0
    2.3133   67.8009   83.6526 C   0  0  0  0  0  0  0  0  0  0  0  0
    3.2526   68.7387   83.2242 C   0  0  0  0  0  0  0  0  0  0  0  0
    4.5811   68.6106   83.6053 C   0  0  0  0  0  0  0  0  0  0  0  0
    4.9786   67.5250   84.3989 C   0  0  0  0  0  0  0  0  0  0  0  0
    6.4046   67.4694   84.8140 C   0  0  0  0  0  0  0  0  0  0  0  0
    6.7930   67.9422   85.8773 O   0  0  0  0  0  0  0  0  0  0  0  0
    7.2490   66.8206   83.9398 N   0  0  0  0  0  0  0  0  0  0  0  0
    8.5555   66.5881   84.4329 O   0  0  0  0  0  0  0  0  0  0  0  0
    6.9065   66.1646   83.2455 H   0  0  0  0  0  0  0  0  0  0  0  0
    8.5326   67.0428   85.3043 H   0  0  0  0  0  0  0  0  0  0  0  0
    0.0382   64.1027   85.1273 C   0  0  0  0  0  0  0  0  0  0  0  0
    0.1676   64.1798   86.5064 C   0  0  0  0  0  0  0  0  0  0  0  0
   -0.7169   63.4445   87.2859 C   0  0  0  0  0  0  0  0  0  0  0  0
   -1.6915   62.6663   86.6652 C   0  0  0  0  0  0  0  0  0  0  0  0
   -1.7623   62.6431   85.2718 C   0  0  0  0  0  0  0  0  0  0  0  0
   -0.9045   63.3472   84.4886 N   0  0  0  0  0  0  0  0  0  0  0  0
   -2.8055   61.7949   84.5746 C   0  0  0  0  0  0  0  0  0  0  0  0
   -2.2385   60.8832   83.6299 O   0  0  0  0  0  0  0  0  0  0  0  0
   -2.6663   60.9425   82.3323 C   0  0  0  0  0  0  0  0  0  0  0  0
   -2.9198   59.6973   81.7494 C   0  0  0  0  0  0  0  0  0  0  0  0
   -3.3679   59.6049   80.4306 C   0  0  0  0  0  0  0  0  0  0  0  0
   -3.5703   60.7627   79.6848 C   0  0  0  0  0  0  0  0  0  0  0  0
   -3.3262   62.0083   80.2602 C   0  0  0  0  0  0  0  0  0  0  0  0
   -2.8762   62.0997   81.5815 C   0  0  0  0  0  0  0  0  0  0  0  0
  5  6  1  0  0  0
  6  7  1  0  0  0
  7  1  1  0  0  0
  1  2  1  0  0  0
  2  3  2  0  0  0
  2 18  1  0  0  0
 18 19  1  0  0  0
 19 20  2  0  0  0
 20 21  1  0  0  0
 21 22  2  0  0  0
 22 24  1  0  0  0
 24 25  1  0  0  0
 25 26  1  0  0  0
 26 27  2  0  0  0
 27 28  1  0  0  0
 28 29  2  0  0  0
 29 30  1  0  0  0
 30 31  2  0  0  0
 22 23  1  0  0  0
  7  8  2  0  0  0
  8  9  1  0  0  0
  9 10  2  0  0  0
 10 11  1  0  0  0
 11 12  1  0  0  0
 12 13  2  0  0  0
 12 14  1  0  0  0
 14 15  1  0  0  0
 11  6  2  0  0  0
 23 18  2  0  0  0
 31 26  1  0  0  0
  1  4  1  0  0  0
 14 16  1  0  0  0
 15 17  1  0  0  0
M  END
> <minimizedAffinity>
-9.86899

$$$$



 31 33  0  0  0  0  0  0  0  0999 V2000
   -1.2162   62.9005   83.0775 N   0  0  0  0  0  0  0  0  0  0  0  0
   -0.7891   61.8967   82.2265 C   0  0  0  0  0  0  0  0  0  0  0  0
    0.2709   61.2852   82.2657 O   0  0  0  0  0  0  0  0  0  0  0  0
   -2.1381   63.2515   82.8330 H   0  0  0  0  0  0  0  0  0  0  0  0
   -1.7190   61.8353   85.7142 C   0  0  0  0  0  0  0  0  0  0  0  0
   -0.7985   63.0090   85.4780 C   0  0  0  0  0  0  0  0  0  0  0  0
   -0.5441   63.4896   84.1694 C   0  0  0  0  0  0  0  0  0  0  0  0
    0.3536   64.5508   83.9888 C   0  0  0  0  0  0  0  0  0  0  0  0
    0.9751   65.1669   85.0749 C   0  0  0  0  0  0  0  0  0  0  0  0
    0.6990   64.7363   86.3652 C   0  0  0  0  0  0  0  0  0  0  0  0
   -0.1844   63.6669   86.5707 C   0  0  0  0  0  0  0  0  0  0  0  0
   -0.4765   63.2839   87.9768 C   0  0  0  0  0  0  0  0  0  0  0  0
   -1.6077   63.3452   88.4476 O   0  0  0  0  0  0  0  0  0  0  0  0
    0.6022   62.8235   88.6995 N   0  0  0  0  0  0  0  0  0  0  0  0
    0.2824   62.2671   89.9613 O   0  0  0  0  0  0  0  0  0  0  0  0
    1.4407   62.4694   88.2509 H   0  0  0  0  0  0  0  0  0  0  0  0
   -0.6856   62.4291   90.0204 H   0  0  0  0  0  0  0  0  0  0  0  0
   -1.8050   61.5742   81.1675 C   0  0  0  0  0  0  0  0  0  0  0  0
   -3.1357   61.9241   81.3454 C   0  0  0  0  0  0  0  0  0  0  0  0
   -4.0335   61.6078   80.3333 C   0  0  0  0  0  0  0  0  0  0  0  0
   -3.5738   60.9599   79.1889 C   0  0  0  0  0  0  0  0  0  0  0  0
   -2.2189   60.6441   79.0802 C   0  0  0  0  0  0  0  0  0  0  0  0
   -1.3236   60.9363   80.0590 N   0  0  0  0  0  0  0  0  0  0  0  0
   -1.6982   59.9289   77.8509 C   0  0  0  0  0  0  0  0  0  0  0  0
   -0.6552   60.6500   77.1895 O   0  0  0  0  0  0  0  0  0  0  0  0
   -0.7614   62.0105   77.1002 C   0  0  0  0  0  0  0  0  0  0  0  0
    0.2575   62.7141   77.7494 C   0  0  0  0  0  0  0  0  0  0  0  0
    0.2809   64.1096   77.7366 C   0  0  0  0  0  0  0  0  0  0  0  0
   -0.7167   64.8133   77.0677 C   0  0  0  0  0  0  0  0  0  0  0  0
   -1.7325   64.1198   76.4126 C   0  0  0  0  0  0  0  0  0  0  0  0
   -1.7556   62.7213   76.4269 C   0  0  0  0  0  0  0  0  0  0  0  0
  5  6  1  0  0  0
  6  7  1  0  0  0
  7  1  1  0  0  0
  1  2  1  0  0  0
  2  3  2  0  0  0
  2 18  1  0  0  0
 18 19  1  0  0  0
 19 20  2  0  0  0
 20 21  1  0  0  0
 21 22  2  0  0  0
 22 24  1  0  0  0
 24 25  1  0  0  0
 25 26  1  0  0  0
 26 27  2  0  0  0
 27 28  1  0  0  0
 28 29  2  0  0  0
 29 30  1  0  0  0
 30 31  2  0  0  0
 22 23  1  0  0  0
  7  8  2  0  0  0
  8  9  1  0  0  0
  9 10  2  0  0  0
 10 11  1  0  0  0
 11 12  1  0  0  0
 12 13  2  0  0  0
 12 14  1  0  0  0
 14 15  1  0  0  0
 11  6  2  0  0  0
 23 18  2  0  0  0
 31 26  1  0  0  0
  1  4  1  0  0  0
 14 16  1  0  0  0
 15 17  1  0  0  0
M  END
> <minimizedAffinity>
-9.84129

$$$$
