


 24 26  0  0  0  0  0  0  0  0999 V2000
   -1.1606   62.7404   80.1051 C   0  0  0  0  0  0  0  0  0  0  0  0
   -1.5362   61.8340   79.1352 N   0  0  0  0  0  0  0  0  0  0  0  0
   -2.0961   60.8250   79.7787 C   0  0  0  0  0  0  0  0  0  0  0  0
   -2.6523   59.6064   79.1429 C   0  0  0  0  0  0  0  0  0  0  0  0
   -2.0958   61.0600   81.1344 N   0  0  0  0  0  0  0  0  0  0  0  0
   -2.5489   60.3625   82.2317 C   0  0  0  0  0  0  0  0  0  0  0  0
   -3.1177   59.1802   81.9446 O   0  0  0  0  0  0  0  0  0  0  0  0
   -2.4521   60.7879   83.4416 N   0  0  0  0  0  0  0  0  0  0  0  0
   -1.8348   62.0247   83.6057 C   0  0  0  0  0  0  0  0  0  0  0  0
   -1.3794   62.7547   82.6250 N   0  0  0  0  0  0  0  0  0  0  0  0
   -1.5037   62.2761   81.3593 C   0  0  0  0  0  0  0  0  0  0  0  0
   -3.3876   58.7715   82.7846 H   0  0  0  0  0  0  0  0  0  0  0  0
   -1.7502   62.5044   85.0184 C   0  0  0  0  0  0  0  0  0  0  0  0
   -2.7990   62.1852   85.8984 C   0  0  0  0  0  0  0  0  0  0  0  0
   -2.7708   62.6157   87.2271 C   0  0  0  0  0  0  0  0  0  0  0  0
   -1.6902   63.3595   87.6945 C   0  0  0  0  0  0  0  0  0  0  0  0
   -0.6405   63.6773   86.8332 C   0  0  0  0  0  0  0  0  0  0  0  0
   -0.6767   63.2700   85.4935 C   0  0  0  0  0  0  0  0  0  0  0  0
    0.4170   63.5377   84.7124 O   0  0  0  0  0  0  0  0  0  0  0  0
    0.7757   64.9229   84.7950 C   0  0  0  0  0  0  0  0  0  0  0  0
    0.8789   65.4638   83.3813 C   0  0  0  0  0  0  0  0  0  0  0  0
   -0.4760   64.0084   79.7348 C   0  0  0  0  0  0  0  0  0  0  0  0
   -0.3942   64.7346   77.3237 C   0  0  0  0  0  0  0  0  0  0  0  0
    0.2751   63.9046   78.4076 C   0  0  0  0  0  0  0  0  0  0  0  0
 23 24  1  0  0  0
 24 22  1  0  0  0
 22  1  1  0  0  0
  1  2  1  0  0  0
  2  3  2  0  0  0
  3  4  1  0  0  0
  3  5  1  0  0  0
  5  6  1  0  0  0
  6  7  1  0  0  0
  6  8  2  0  0  0
  8  9  1  0  0  0
  9 13  1  0  0  0
 13 14  2  0  0  0
 14 15  1  0  0  0
 15 16  2  0  0  0
 16 17  1  0  0  0
 17 18  2  0  0  0
 18 19  1  0  0  0
 19 20  1  0  0  0
 20 21  1  0  0  0
  9 10  2  0  0  0
 10 11  1  0  0  0
 11  1  2  0  0  0
 11  5  1  0  0  0
 18 13  1  0  0  0
  7 12  1  0  0  0
M  END
> <minimizedAffinity>
-8.82251

$$$$



 24 26  0  0  0  0  0  0  0  0999 V2000
   -0.9019   63.0636   80.4251 C   0  0  0  0  0  0  0  0  0  0  0  0
   -1.3383   62.2467   79.4026 N   0  0  0  0  0  0  0  0  0  0  0  0
   -2.0130   61.2694   79.9817 C   0  0  0  0  0  0  0  0  0  0  0  0
   -2.6693   60.1444   79.2730 C   0  0  0  0  0  0  0  0  0  0  0  0
   -2.0269   61.4383   81.3471 N   0  0  0  0  0  0  0  0  0  0  0  0
   -2.5771   60.7383   82.3974 C   0  0  0  0  0  0  0  0  0  0  0  0
   -3.2520   59.6340   82.0384 O   0  0  0  0  0  0  0  0  0  0  0  0
   -2.4722   61.0937   83.6291 N   0  0  0  0  0  0  0  0  0  0  0  0
   -1.7403   62.2532   83.8690 C   0  0  0  0  0  0  0  0  0  0  0  0
   -1.1879   62.9798   82.9368 N   0  0  0  0  0  0  0  0  0  0  0  0
   -1.3238   62.5769   81.6462 C   0  0  0  0  0  0  0  0  0  0  0  0
   -3.5842   59.2149   82.8505 H   0  0  0  0  0  0  0  0  0  0  0  0
   -1.6478   62.6541   85.3056 C   0  0  0  0  0  0  0  0  0  0  0  0
   -2.7247   62.3506   86.1567 C   0  0  0  0  0  0  0  0  0  0  0  0
   -2.6901   62.7100   87.5062 C   0  0  0  0  0  0  0  0  0  0  0  0
   -1.5756   63.3659   88.0230 C   0  0  0  0  0  0  0  0  0  0  0  0
   -0.4981   63.6669   87.1905 C   0  0  0  0  0  0  0  0  0  0  0  0
   -0.5391   63.3317   85.8312 C   0  0  0  0  0  0  0  0  0  0  0  0
    0.5783   63.5763   85.0766 O   0  0  0  0  0  0  0  0  0  0  0  0
    1.0945   64.8872   85.3400 C   0  0  0  0  0  0  0  0  0  0  0  0
    0.9791   65.6997   84.0639 C   0  0  0  0  0  0  0  0  0  0  0  0
   -0.0851   64.2728   80.1346 C   0  0  0  0  0  0  0  0  0  0  0  0
    0.0898   66.7787   80.3291 C   0  0  0  0  0  0  0  0  0  0  0  0
   -0.6423   65.5316   80.7989 C   0  0  0  0  0  0  0  0  0  0  0  0
 23 24  1  0  0  0
 24 22  1  0  0  0
 22  1  1  0  0  0
  1  2  1  0  0  0
  2  3  2  0  0  0
  3  4  1  0  0  0
  3  5  1  0  0  0
  5  6  1  0  0  0
  6  7  1  0  0  0
  6  8  2  0  0  0
  8  9  1  0  0  0
  9 13  1  0  0  0
 13 14  2  0  0  0
 14 15  1  0  0  0
 15 16  2  0  0  0
 16 17  1  0  0  0
 17 18  2  0  0  0
 18 19  1  0  0  0
 19 20  1  0  0  0
 20 21  1  0  0  0
  9 10  2  0  0  0
 10 11  1  0  0  0
 11  1  2  0  0  0
 11  5  1  0  0  0
 18 13  1  0  0  0
  7 12  1  0  0  0
M  END
> <minimizedAffinity>
-8.66631

$$$$



 24 26  0  0  0  0  0  0  0  0999 V2000
    4.8019   67.0495   84.8602 C   0  0  0  0  0  0  0  0  0  0  0  0
    5.0486   68.1843   84.1154 N   0  0  0  0  0  0  0  0  0  0  0  0
    3.9452   68.4125   83.4254 C   0  0  0  0  0  0  0  0  0  0  0  0
    3.7448   69.5341   82.4765 C   0  0  0  0  0  0  0  0  0  0  0  0
    2.9945   67.4594   83.7099 N   0  0  0  0  0  0  0  0  0  0  0  0
    1.7026   67.2341   83.2903 C   0  0  0  0  0  0  0  0  0  0  0  0
    1.2434   68.1256   82.3971 O   0  0  0  0  0  0  0  0  0  0  0  0
    0.9730   66.2604   83.7073 N   0  0  0  0  0  0  0  0  0  0  0  0
    1.5691   65.4017   84.6265 C   0  0  0  0  0  0  0  0  0  0  0  0
    2.7841   65.5405   85.0812 N   0  0  0  0  0  0  0  0  0  0  0  0
    3.5241   66.5837   84.6225 C   0  0  0  0  0  0  0  0  0  0  0  0
    0.3358   67.8669   82.1626 H   0  0  0  0  0  0  0  0  0  0  0  0
    0.6953   64.2894   85.1084 C   0  0  0  0  0  0  0  0  0  0  0  0
    0.2519   64.3152   86.4422 C   0  0  0  0  0  0  0  0  0  0  0  0
   -0.5611   63.2956   86.9431 C   0  0  0  0  0  0  0  0  0  0  0  0
   -0.9494   62.2455   86.1151 C   0  0  0  0  0  0  0  0  0  0  0  0
   -0.5215   62.2115   84.7883 C   0  0  0  0  0  0  0  0  0  0  0  0
    0.3149   63.2180   84.2888 C   0  0  0  0  0  0  0  0  0  0  0  0
    0.6387   63.1804   82.9577 O   0  0  0  0  0  0  0  0  0  0  0  0
    0.1780   61.9644   82.3551 C   0  0  0  0  0  0  0  0  0  0  0  0
    1.3947   61.1519   81.9536 C   0  0  0  0  0  0  0  0  0  0  0  0
    5.8481   66.4873   85.7564 C   0  0  0  0  0  0  0  0  0  0  0  0
    8.1853   66.1151   84.8924 C   0  0  0  0  0  0  0  0  0  0  0  0
    6.7898   65.5272   85.0299 C   0  0  0  0  0  0  0  0  0  0  0  0
 23 24  1  0  0  0
 24 22  1  0  0  0
 22  1  1  0  0  0
  1  2  1  0  0  0
  2  3  2  0  0  0
  3  4  1  0  0  0
  3  5  1  0  0  0
  5  6  1  0  0  0
  6  7  1  0  0  0
  6  8  2  0  0  0
  8  9  1  0  0  0
  9 13  1  0  0  0
 13 14  2  0  0  0
 14 15  1  0  0  0
 15 16  2  0  0  0
 16 17  1  0  0  0
 17 18  2  0  0  0
 18 19  1  0  0  0
 19 20  1  0  0  0
 20 21  1  0  0  0
  9 10  2  0  0  0
 10 11  1  0  0  0
 11  1  2  0  0  0
 11  5  1  0  0  0
 18 13  1  0  0  0
  7 12  1  0  0  0
M  END
> <minimizedAffinity>
-8.61577

$$$$



 24 26  0  0  0  0  0  0  0  0999 V2000
   -0.8667   63.2245   86.0150 C   0  0  0  0  0  0  0  0  0  0  0  0
   -1.5643   62.1699   85.4633 N   0  0  0  0  0  0  0  0  0  0  0  0
   -1.3026   62.1994   84.1686 C   0  0  0  0  0  0  0  0  0  0  0  0
   -1.8405   61.2506   83.1641 C   0  0  0  0  0  0  0  0  0  0  0  0
   -0.4522   63.2401   83.8736 N   0  0  0  0  0  0  0  0  0  0  0  0
    0.1303   63.7081   82.7171 C   0  0  0  0  0  0  0  0  0  0  0  0
   -0.1915   63.0166   81.6118 O   0  0  0  0  0  0  0  0  0  0  0  0
    0.9244   64.7189   82.6727 N   0  0  0  0  0  0  0  0  0  0  0  0
    1.1712   65.3544   83.8864 C   0  0  0  0  0  0  0  0  0  0  0  0
    0.6661   64.9783   85.0290 N   0  0  0  0  0  0  0  0  0  0  0  0
   -0.1646   63.9030   85.0389 C   0  0  0  0  0  0  0  0  0  0  0  0
    0.2604   63.4361   80.8599 H   0  0  0  0  0  0  0  0  0  0  0  0
    2.1101   66.5145   83.8108 C   0  0  0  0  0  0  0  0  0  0  0  0
    1.7014   67.6628   83.1104 C   0  0  0  0  0  0  0  0  0  0  0  0
    2.5449   68.7715   83.0049 C   0  0  0  0  0  0  0  0  0  0  0  0
    3.8004   68.7500   83.6068 C   0  0  0  0  0  0  0  0  0  0  0  0
    4.2151   67.6193   84.3099 C   0  0  0  0  0  0  0  0  0  0  0  0
    3.3833   66.4956   84.3964 C   0  0  0  0  0  0  0  0  0  0  0  0
    3.8049   65.4439   85.1671 O   0  0  0  0  0  0  0  0  0  0  0  0
    5.2143   65.5257   85.4144 C   0  0  0  0  0  0  0  0  0  0  0  0
    5.4671   65.0594   86.8358 C   0  0  0  0  0  0  0  0  0  0  0  0
   -0.9432   63.5048   87.4742 C   0  0  0  0  0  0  0  0  0  0  0  0
    0.3033   62.2039   89.2354 C   0  0  0  0  0  0  0  0  0  0  0  0
    0.3951   63.2976   88.1832 C   0  0  0  0  0  0  0  0  0  0  0  0
 23 24  1  0  0  0
 24 22  1  0  0  0
 22  1  1  0  0  0
  1  2  1  0  0  0
  2  3  2  0  0  0
  3  4  1  0  0  0
  3  5  1  0  0  0
  5  6  1  0  0  0
  6  7  1  0  0  0
  6  8  2  0  0  0
  8  9  1  0  0  0
  9 13  1  0  0  0
 13 14  2  0  0  0
 14 15  1  0  0  0
 15 16  2  0  0  0
 16 17  1  0  0  0
 17 18  2  0  0  0
 18 19  1  0  0  0
 19 20  1  0  0  0
 20 21  1  0  0  0
  9 10  2  0  0  0
 10 11  1  0  0  0
 11  1  2  0  0  0
 11  5  1  0  0  0
 18 13  1  0  0  0
  7 12  1  0  0  0
M  END
> <minimizedAffinity>
-8.60554

$$$$



 24 26  0  0  0  0  0  0  0  0999 V2000
   -0.7295   61.4130   79.2468 C   0  0  0  0  0  0  0  0  0  0  0  0
   -1.6385   60.4782   78.7961 N   0  0  0  0  0  0  0  0  0  0  0  0
   -2.3825   60.1623   79.8412 C   0  0  0  0  0  0  0  0  0  0  0  0
   -3.4974   59.1848   79.8350 C   0  0  0  0  0  0  0  0  0  0  0  0
   -1.9807   60.8717   80.9495 N   0  0  0  0  0  0  0  0  0  0  0  0
   -2.4046   60.9332   82.2581 C   0  0  0  0  0  0  0  0  0  0  0  0
   -3.4368   60.1245   82.5480 O   0  0  0  0  0  0  0  0  0  0  0  0
   -1.8761   61.6971   83.1477 N   0  0  0  0  0  0  0  0  0  0  0  0
   -0.8075   62.4809   82.7215 C   0  0  0  0  0  0  0  0  0  0  0  0
   -0.3423   62.4894   81.5027 N   0  0  0  0  0  0  0  0  0  0  0  0
   -0.9287   61.6735   80.5879 C   0  0  0  0  0  0  0  0  0  0  0  0
   -3.6441   60.2381   83.4913 H   0  0  0  0  0  0  0  0  0  0  0  0
   -0.2225   63.3719   83.7688 C   0  0  0  0  0  0  0  0  0  0  0  0
    0.2798   64.6254   83.3781 C   0  0  0  0  0  0  0  0  0  0  0  0
    0.8430   65.4923   84.3178 C   0  0  0  0  0  0  0  0  0  0  0  0
    0.9004   65.1219   85.6590 C   0  0  0  0  0  0  0  0  0  0  0  0
    0.3999   63.8839   86.0604 C   0  0  0  0  0  0  0  0  0  0  0  0
   -0.1421   63.0006   85.1180 C   0  0  0  0  0  0  0  0  0  0  0  0
   -0.6938   61.8331   85.5767 O   0  0  0  0  0  0  0  0  0  0  0  0
   -1.2306   62.0060   86.8943 C   0  0  0  0  0  0  0  0  0  0  0  0
   -2.7207   62.2587   86.7622 C   0  0  0  0  0  0  0  0  0  0  0  0
    0.2889   61.9868   78.3263 C   0  0  0  0  0  0  0  0  0  0  0  0
    0.7888   64.4499   78.5023 C   0  0  0  0  0  0  0  0  0  0  0  0
   -0.0794   63.3896   77.8437 C   0  0  0  0  0  0  0  0  0  0  0  0
 23 24  1  0  0  0
 24 22  1  0  0  0
 22  1  1  0  0  0
  1  2  1  0  0  0
  2  3  2  0  0  0
  3  4  1  0  0  0
  3  5  1  0  0  0
  5  6  1  0  0  0
  6  7  1  0  0  0
  6  8  2  0  0  0
  8  9  1  0  0  0
  9 13  1  0  0  0
 13 14  2  0  0  0
 14 15  1  0  0  0
 15 16  2  0  0  0
 16 17  1  0  0  0
 17 18  2  0  0  0
 18 19  1  0  0  0
 19 20  1  0  0  0
 20 21  1  0  0  0
  9 10  2  0  0  0
 10 11  1  0  0  0
 11  1  2  0  0  0
 11  5  1  0  0  0
 18 13  1  0  0  0
  7 12  1  0  0  0
M  END
> <minimizedAffinity>
-8.53949

$$$$



 24 26  0  0  0  0  0  0  0  0999 V2000
   -1.7231   62.3596   85.4365 C   0  0  0  0  0  0  0  0  0  0  0  0
   -1.6611   61.8149   86.7025 N   0  0  0  0  0  0  0  0  0  0  0  0
   -0.6329   62.3941   87.2967 C   0  0  0  0  0  0  0  0  0  0  0  0
   -0.1767   62.1187   88.6804 C   0  0  0  0  0  0  0  0  0  0  0  0
   -0.0358   63.2995   86.4501 N   0  0  0  0  0  0  0  0  0  0  0  0
    1.0351   64.1579   86.5600 C   0  0  0  0  0  0  0  0  0  0  0  0
    1.6607   64.1190   87.7477 O   0  0  0  0  0  0  0  0  0  0  0  0
    1.4220   64.9455   85.6197 N   0  0  0  0  0  0  0  0  0  0  0  0
    0.6942   64.8841   84.4346 C   0  0  0  0  0  0  0  0  0  0  0  0
   -0.3346   64.1049   84.2434 N   0  0  0  0  0  0  0  0  0  0  0  0
   -0.7183   63.2900   85.2608 C   0  0  0  0  0  0  0  0  0  0  0  0
    2.4007   64.7488   87.7116 H   0  0  0  0  0  0  0  0  0  0  0  0
    1.1525   65.8209   83.3644 C   0  0  0  0  0  0  0  0  0  0  0  0
    1.7348   67.0419   83.7468 C   0  0  0  0  0  0  0  0  0  0  0  0
    2.1733   67.9550   82.7847 C   0  0  0  0  0  0  0  0  0  0  0  0
    2.0455   67.6541   81.4310 C   0  0  0  0  0  0  0  0  0  0  0  0
    1.4754   66.4435   81.0387 C   0  0  0  0  0  0  0  0  0  0  0  0
    1.0107   65.5362   81.9994 C   0  0  0  0  0  0  0  0  0  0  0  0
    0.5347   64.3277   81.5624 O   0  0  0  0  0  0  0  0  0  0  0  0
   -0.4966   64.5097   80.5838 C   0  0  0  0  0  0  0  0  0  0  0  0
   -0.9184   63.1387   80.0893 C   0  0  0  0  0  0  0  0  0  0  0  0
   -2.7672   61.9207   84.4716 C   0  0  0  0  0  0  0  0  0  0  0  0
   -3.0952   60.3222   82.5520 C   0  0  0  0  0  0  0  0  0  0  0  0
   -2.1742   61.3554   83.1811 C   0  0  0  0  0  0  0  0  0  0  0  0
 23 24  1  0  0  0
 24 22  1  0  0  0
 22  1  1  0  0  0
  1  2  1  0  0  0
  2  3  2  0  0  0
  3  4  1  0  0  0
  3  5  1  0  0  0
  5  6  1  0  0  0
  6  7  1  0  0  0
  6  8  2  0  0  0
  8  9  1  0  0  0
  9 13  1  0  0  0
 13 14  2  0  0  0
 14 15  1  0  0  0
 15 16  2  0  0  0
 16 17  1  0  0  0
 17 18  2  0  0  0
 18 19  1  0  0  0
 19 20  1  0  0  0
 20 21  1  0  0  0
  9 10  2  0  0  0
 10 11  1  0  0  0
 11  1  2  0  0  0
 11  5  1  0  0  0
 18 13  1  0  0  0
  7 12  1  0  0  0
M  END
> <minimizedAffinity>
-8.47188

$$$$



 24 26  0  0  0  0  0  0  0  0999 V2000
    0.5492   64.1894   86.0453 C   0  0  0  0  0  0  0  0  0  0  0  0
    0.4794   64.2098   87.4230 N   0  0  0  0  0  0  0  0  0  0  0  0
   -0.5605   63.4608   87.7447 C   0  0  0  0  0  0  0  0  0  0  0  0
   -1.0284   63.1926   89.1259 C   0  0  0  0  0  0  0  0  0  0  0  0
   -1.1576   62.9555   86.6128 N   0  0  0  0  0  0  0  0  0  0  0  0
   -2.2380   62.1342   86.3801 C   0  0  0  0  0  0  0  0  0  0  0  0
   -2.8755   61.7244   87.4888 O   0  0  0  0  0  0  0  0  0  0  0  0
   -2.6227   61.7707   85.2079 N   0  0  0  0  0  0  0  0  0  0  0  0
   -1.8821   62.2707   84.1406 C   0  0  0  0  0  0  0  0  0  0  0  0
   -0.8439   63.0504   84.2677 N   0  0  0  0  0  0  0  0  0  0  0  0
   -0.4627   63.4098   85.5215 C   0  0  0  0  0  0  0  0  0  0  0  0
   -3.6212   61.1659   87.2104 H   0  0  0  0  0  0  0  0  0  0  0  0
   -2.3384   61.8199   82.7909 C   0  0  0  0  0  0  0  0  0  0  0  0
   -2.8198   60.5067   82.6503 C   0  0  0  0  0  0  0  0  0  0  0  0
   -3.2519   60.0348   81.4083 C   0  0  0  0  0  0  0  0  0  0  0  0
   -3.2185   60.8722   80.2962 C   0  0  0  0  0  0  0  0  0  0  0  0
   -2.7491   62.1791   80.4238 C   0  0  0  0  0  0  0  0  0  0  0  0
   -2.2907   62.6485   81.6614 C   0  0  0  0  0  0  0  0  0  0  0  0
   -1.9174   63.9640   81.7497 O   0  0  0  0  0  0  0  0  0  0  0  0
   -0.8427   64.2508   80.8459 C   0  0  0  0  0  0  0  0  0  0  0  0
   -0.4723   65.7130   81.0096 C   0  0  0  0  0  0  0  0  0  0  0  0
    1.6075   64.9500   85.3275 C   0  0  0  0  0  0  0  0  0  0  0  0
    1.9609   67.0237   83.9410 C   0  0  0  0  0  0  0  0  0  0  0  0
    1.0421   65.8462   84.2259 C   0  0  0  0  0  0  0  0  0  0  0  0
 23 24  1  0  0  0
 24 22  1  0  0  0
 22  1  1  0  0  0
  1  2  1  0  0  0
  2  3  2  0  0  0
  3  4  1  0  0  0
  3  5  1  0  0  0
  5  6  1  0  0  0
  6  7  1  0  0  0
  6  8  2  0  0  0
  8  9  1  0  0  0
  9 13  1  0  0  0
 13 14  2  0  0  0
 14 15  1  0  0  0
 15 16  2  0  0  0
 16 17  1  0  0  0
 17 18  2  0  0  0
 18 19  1  0  0  0
 19 20  1  0  0  0
 20 21  1  0  0  0
  9 10  2  0  0  0
 10 11  1  0  0  0
 11  1  2  0  0  0
 11  5  1  0  0  0
 18 13  1  0  0  0
  7 12  1  0  0  0
M  END
> <minimizedAffinity>
-8.44211

$$$$



 24 26  0  0  0  0  0  0  0  0999 V2000
    4.3850   67.0584   84.8971 C   0  0  0  0  0  0  0  0  0  0  0  0
    4.7184   68.2688   84.3252 N   0  0  0  0  0  0  0  0  0  0  0  0
    3.7545   68.5405   83.4632 C   0  0  0  0  0  0  0  0  0  0  0  0
    3.6877   69.7482   82.6056 C   0  0  0  0  0  0  0  0  0  0  0  0
    2.8085   67.5414   83.4691 N   0  0  0  0  0  0  0  0  0  0  0  0
    1.6284   67.3301   82.7920 C   0  0  0  0  0  0  0  0  0  0  0  0
    1.3067   68.2973   81.9176 O   0  0  0  0  0  0  0  0  0  0  0  0
    0.8754   66.3022   82.9675 N   0  0  0  0  0  0  0  0  0  0  0  0
    1.3252   65.3682   83.8965 C   0  0  0  0  0  0  0  0  0  0  0  0
    2.4269   65.4880   84.5850 N   0  0  0  0  0  0  0  0  0  0  0  0
    3.1949   66.5897   84.3775 C   0  0  0  0  0  0  0  0  0  0  0  0
    0.4707   68.0428   81.4913 H   0  0  0  0  0  0  0  0  0  0  0  0
    0.4245   64.1924   84.0947 C   0  0  0  0  0  0  0  0  0  0  0  0
    0.0172   63.4622   82.9646 C   0  0  0  0  0  0  0  0  0  0  0  0
   -0.8298   62.3590   83.0957 C   0  0  0  0  0  0  0  0  0  0  0  0
   -1.2701   61.9662   84.3571 C   0  0  0  0  0  0  0  0  0  0  0  0
   -0.8682   62.6784   85.4866 C   0  0  0  0  0  0  0  0  0  0  0  0
   -0.0400   63.8006   85.3577 C   0  0  0  0  0  0  0  0  0  0  0  0
    0.3912   64.4143   86.5047 O   0  0  0  0  0  0  0  0  0  0  0  0
   -0.3128   63.9115   87.6474 C   0  0  0  0  0  0  0  0  0  0  0  0
    0.7066   63.3091   88.5961 C   0  0  0  0  0  0  0  0  0  0  0  0
    5.2682   66.4322   85.9176 C   0  0  0  0  0  0  0  0  0  0  0  0
    7.3452   65.7564   84.6617 C   0  0  0  0  0  0  0  0  0  0  0  0
    6.0830   65.2679   85.3544 C   0  0  0  0  0  0  0  0  0  0  0  0
 23 24  1  0  0  0
 24 22  1  0  0  0
 22  1  1  0  0  0
  1  2  1  0  0  0
  2  3  2  0  0  0
  3  4  1  0  0  0
  3  5  1  0  0  0
  5  6  1  0  0  0
  6  7  1  0  0  0
  6  8  2  0  0  0
  8  9  1  0  0  0
  9 13  1  0  0  0
 13 14  2  0  0  0
 14 15  1  0  0  0
 15 16  2  0  0  0
 16 17  1  0  0  0
 17 18  2  0  0  0
 18 19  1  0  0  0
 19 20  1  0  0  0
 20 21  1  0  0  0
  9 10  2  0  0  0
 10 11  1  0  0  0
 11  1  2  0  0  0
 11  5  1  0  0  0
 18 13  1  0  0  0
  7 12  1  0  0  0
M  END
> <minimizedAffinity>
-8.41029

$$$$



 24 26  0  0  0  0  0  0  0  0999 V2000
   -0.8655   62.4415   83.7923 C   0  0  0  0  0  0  0  0  0  0  0  0
   -1.6160   61.7770   84.7402 N   0  0  0  0  0  0  0  0  0  0  0  0
   -1.3326   62.3518   85.8956 C   0  0  0  0  0  0  0  0  0  0  0  0
   -1.9053   61.9657   87.2077 C   0  0  0  0  0  0  0  0  0  0  0  0
   -0.4253   63.3705   85.7161 N   0  0  0  0  0  0  0  0  0  0  0  0
    0.1857   64.2737   86.5567 C   0  0  0  0  0  0  0  0  0  0  0  0
   -0.1571   64.1519   87.8495 O   0  0  0  0  0  0  0  0  0  0  0  0
    1.0162   65.1727   86.1613 N   0  0  0  0  0  0  0  0  0  0  0  0
    1.2939   65.1887   84.7973 C   0  0  0  0  0  0  0  0  0  0  0  0
    0.7598   64.3747   83.9289 N   0  0  0  0  0  0  0  0  0  0  0  0
   -0.1176   63.4411   84.3817 C   0  0  0  0  0  0  0  0  0  0  0  0
    0.3368   64.8237   88.3497 H   0  0  0  0  0  0  0  0  0  0  0  0
    2.2477   66.2530   84.3609 C   0  0  0  0  0  0  0  0  0  0  0  0
    1.7642   67.2953   83.5510 C   0  0  0  0  0  0  0  0  0  0  0  0
    2.6169   68.3106   83.1109 C   0  0  0  0  0  0  0  0  0  0  0  0
    3.9586   68.3024   83.4838 C   0  0  0  0  0  0  0  0  0  0  0  0
    4.4492   67.2775   84.2921 C   0  0  0  0  0  0  0  0  0  0  0  0
    3.6040   66.2435   84.7145 C   0  0  0  0  0  0  0  0  0  0  0  0
    4.1167   65.3069   85.5735 O   0  0  0  0  0  0  0  0  0  0  0  0
    5.4515   65.6514   85.9658 C   0  0  0  0  0  0  0  0  0  0  0  0
    5.5388   65.5368   87.4761 C   0  0  0  0  0  0  0  0  0  0  0  0
   -0.9254   62.0423   82.3602 C   0  0  0  0  0  0  0  0  0  0  0  0
    0.6550   61.6104   80.4462 C   0  0  0  0  0  0  0  0  0  0  0  0
    0.3348   61.3088   81.9016 C   0  0  0  0  0  0  0  0  0  0  0  0
 23 24  1  0  0  0
 24 22  1  0  0  0
 22  1  1  0  0  0
  1  2  1  0  0  0
  2  3  2  0  0  0
  3  4  1  0  0  0
  3  5  1  0  0  0
  5  6  1  0  0  0
  6  7  1  0  0  0
  6  8  2  0  0  0
  8  9  1  0  0  0
  9 13  1  0  0  0
 13 14  2  0  0  0
 14 15  1  0  0  0
 15 16  2  0  0  0
 16 17  1  0  0  0
 17 18  2  0  0  0
 18 19  1  0  0  0
 19 20  1  0  0  0
 20 21  1  0  0  0
  9 10  2  0  0  0
 10 11  1  0  0  0
 11  1  2  0  0  0
 11  5  1  0  0  0
 18 13  1  0  0  0
  7 12  1  0  0  0
M  END
> <minimizedAffinity>
-8.30798

$$$$
