
     RDKit          3D

 59 62  0  0  0  0  0  0  0  0999 V2000
    3.8776   -3.4437    2.2849 C   0  0  0  0  0  0  0  0  0  0  0  0
    4.9517   -2.3815    2.4727 C   0  0  0  0  0  0  0  0  0  0  0  0
    4.3938   -1.0881    3.0673 C   0  0  0  0  0  0  0  0  0  0  0  0
    3.3497   -0.5402    2.2609 O   0  0  0  0  0  0  0  0  0  0  0  0
    3.7515    0.2904    1.2346 C   0  0  0  0  0  0  0  0  0  0  0  0
    5.0816    0.4731    1.0408 N   0  0  0  0  0  0  0  0  0  0  0  0
    5.4607    1.2409   -0.0081 C   0  0  0  0  0  0  0  0  0  0  0  0
    4.5721    1.8372   -0.8886 C   0  0  0  0  0  0  0  0  0  0  0  0
    5.1065    2.6505   -2.0098 C   0  0  0  0  0  0  0  0  0  0  0  0
    4.1417    3.2850   -2.9765 C   0  0  0  0  0  0  0  0  0  0  0  0
    6.3208    2.7928   -2.1305 O   0  0  0  0  0  0  0  0  0  0  0  0
    3.2092    1.6349   -0.6663 C   0  0  0  0  0  0  0  0  0  0  0  0
    2.7632    0.8521    0.4197 C   0  0  0  0  0  0  0  0  0  0  0  0
    1.3257    0.6474    0.6424 C   0  0  0  0  0  0  0  0  0  0  0  0
    0.8780    0.7969    1.9318 N   0  0  0  0  0  0  0  0  0  0  0  0
   -0.4411    0.6473    2.1847 C   0  0  0  0  0  0  0  0  0  0  0  0
   -0.8207    0.7854    3.4883 O   0  0  0  0  0  0  0  0  0  0  0  0
   -1.2936    0.3698    1.1072 C   0  0  0  0  0  0  0  0  0  0  0  0
   -2.6217    0.1739    1.0124 N   0  0  0  0  0  0  0  0  0  0  0  0
   -2.8537   -0.0659   -0.3004 N   0  0  0  0  0  0  0  0  0  0  0  0
   -4.2277   -0.3247   -0.7375 C   0  0  0  0  0  0  0  0  0  0  0  0
   -4.9938   -1.2774    0.1993 C   0  0  0  0  0  0  0  0  0  0  0  0
   -5.9227   -0.5060    1.1296 C   0  0  0  0  0  0  0  0  0  0  0  0
   -6.9193    0.2861    0.4069 N   0  0  0  0  0  0  0  0  0  0  0  0
   -6.4819    0.7751   -0.8979 C   0  0  0  0  0  0  0  0  0  0  0  0
   -4.9766    0.9960   -0.9680 C   0  0  0  0  0  0  0  0  0  0  0  0
   -1.7226   -0.0081   -1.0851 C   0  0  0  0  0  0  0  0  0  0  0  0
   -1.6806   -0.2043   -2.5601 C   0  0  0  0  0  0  0  0  0  0  0  0
   -1.4751   -1.6659   -2.9274 C   0  0  0  0  0  0  0  0  0  0  0  0
   -0.7160    0.2608   -0.1952 C   0  0  0  0  0  0  0  0  0  0  0  0
    0.5940    0.4028   -0.4881 N   0  0  0  0  0  0  0  0  0  0  0  0
    3.3889   -3.6791    3.2357 H   0  0  0  0  0  0  0  0  0  0  0  0
    4.3225   -4.3647    1.8950 H   0  0  0  0  0  0  0  0  0  0  0  0
    3.1115   -3.1145    1.5758 H   0  0  0  0  0  0  0  0  0  0  0  0
    5.7342   -2.7716    3.1330 H   0  0  0  0  0  0  0  0  0  0  0  0
    5.4139   -2.1842    1.4995 H   0  0  0  0  0  0  0  0  0  0  0  0
    3.9431   -1.3141    4.0411 H   0  0  0  0  0  0  0  0  0  0  0  0
    5.1881   -0.3604    3.2739 H   0  0  0  0  0  0  0  0  0  0  0  0
    6.5366    1.3580   -0.1203 H   0  0  0  0  0  0  0  0  0  0  0  0
    3.5480    2.5167   -3.4787 H   0  0  0  0  0  0  0  0  0  0  0  0
    3.4973    3.9976   -2.4552 H   0  0  0  0  0  0  0  0  0  0  0  0
    4.7048    3.8309   -3.7399 H   0  0  0  0  0  0  0  0  0  0  0  0
    2.4659    2.0790   -1.3246 H   0  0  0  0  0  0  0  0  0  0  0  0
    0.0383    0.9470    3.9151 H   0  0  0  0  0  0  0  0  0  0  0  0
   -4.1421   -0.8495   -1.6965 H   0  0  0  0  0  0  0  0  0  0  0  0
   -5.6012   -1.9613   -0.4094 H   0  0  0  0  0  0  0  0  0  0  0  0
   -4.3142   -1.9135    0.7787 H   0  0  0  0  0  0  0  0  0  0  0  0
   -5.3432    0.1613    1.7775 H   0  0  0  0  0  0  0  0  0  0  0  0
   -6.4416   -1.2043    1.7960 H   0  0  0  0  0  0  0  0  0  0  0  0
   -7.7902   -0.2350    0.3099 H   0  0  0  0  0  0  0  0  0  0  0  0
   -6.7802    0.0588   -1.6736 H   0  0  0  0  0  0  0  0  0  0  0  0
   -7.0051    1.7124   -1.1150 H   0  0  0  0  0  0  0  0  0  0  0  0
   -4.6848    1.7520   -0.2265 H   0  0  0  0  0  0  0  0  0  0  0  0
   -4.7036    1.4094   -1.9466 H   0  0  0  0  0  0  0  0  0  0  0  0
   -0.8591    0.3871   -2.9828 H   0  0  0  0  0  0  0  0  0  0  0  0
   -2.5955    0.1727   -3.0299 H   0  0  0  0  0  0  0  0  0  0  0  0
   -0.5348   -2.0490   -2.5162 H   0  0  0  0  0  0  0  0  0  0  0  0
   -2.2873   -2.2928   -2.5445 H   0  0  0  0  0  0  0  0  0  0  0  0
   -1.4410   -1.7816   -4.0153 H   0  0  0  0  0  0  0  0  0  0  0  0
  1  2  1  0
  2  3  1  0
  3  4  1  0
  4  5  1  0
  5  6  1  0
  6  7  2  0
  7  8  1  0
  8  9  1  0
  9 10  1  0
  9 11  2  0
  8 12  2  0
 12 13  1  0
 13 14  1  0
 14 15  1  0
 15 16  2  0
 16 17  1  0
 16 18  1  0
 18 19  2  0
 19 20  1  0
 20 21  1  0
 21 22  1  0
 22 23  1  0
 23 24  1  0
 24 25  1  0
 25 26  1  0
 20 27  1  0
 27 28  1  0
 28 29  1  0
 27 30  2  0
 30 31  1  0
 13  5  2  0
 31 14  2  0
 30 18  1  0
 26 21  1  0
  1 32  1  0
  1 33  1  0
  1 34  1  0
  2 35  1  0
  2 36  1  0
  3 37  1  0
  3 38  1  0
  7 39  1  0
 10 40  1  0
 10 41  1  0
 10 42  1  0
 12 43  1  0
 17 44  1  0
 21 45  1  0
 22 46  1  0
 22 47  1  0
 23 48  1  0
 23 49  1  0
 24 50  1  0
 25 51  1  0
 25 52  1  0
 26 53  1  0
 26 54  1  0
 28 55  1  0
 28 56  1  0
 29 57  1  0
 29 58  1  0
 29 59  1  0
M  END
$$$$
