


 35 39  0  0  0  0  0  0  0  0999 V2000
   -0.0766   63.2028   85.3786 C   0  0  0  0  0  0  0  0  0  0  0  0
    0.5642   64.0007   86.2716 N   0  0  0  0  0  0  0  0  0  0  0  0
    1.2880   65.0350   85.7823 C   0  0  0  0  0  0  0  0  0  0  0  0
    1.4175   65.2857   84.4319 C   0  0  0  0  0  0  0  0  0  0  0  0
    0.7349   64.4768   83.5253 C   0  0  0  0  0  0  0  0  0  0  0  0
   -0.0251   63.3950   83.9943 C   0  0  0  0  0  0  0  0  0  0  0  0
   -0.7041   62.5224   82.9826 C   0  0  0  0  0  0  0  0  0  0  0  0
   -0.3597   62.6284   81.7279 N   0  0  0  0  0  0  0  0  0  0  0  0
   -1.0539   61.7758   80.8710 C   0  0  0  0  0  0  0  0  0  0  0  0
   -0.9377   61.6552   79.5156 C   0  0  0  0  0  0  0  0  0  0  0  0
   -1.8546   60.6880   79.1824 N   0  0  0  0  0  0  0  0  0  0  0  0
   -2.5309   60.1745   80.2332 N   0  0  0  0  0  0  0  0  0  0  0  0
   -2.0366   60.8616   81.2754 C   0  0  0  0  0  0  0  0  0  0  0  0
   -2.3935   60.7545   82.6718 C   0  0  0  0  0  0  0  0  0  0  0  0
   -3.2192   59.9878   83.1587 O   0  0  0  0  0  0  0  0  0  0  0  0
   -1.6735   61.6411   83.4514 N   0  0  0  0  0  0  0  0  0  0  0  0
   -2.0630   60.1647   77.8449 C   0  0  0  0  0  0  0  0  0  0  0  0
   -1.4573   61.0733   76.7739 C   0  0  0  0  0  0  0  0  0  0  0  0
   -0.0601   61.5495   77.1825 C   0  0  0  0  0  0  0  0  0  0  0  0
   -0.1086   62.3421   78.4935 C   0  0  0  0  0  0  0  0  0  0  0  0
   -1.8837   61.5884   84.4406 H   0  0  0  0  0  0  0  0  0  0  0  0
    2.3709   66.6649   83.8869 S   0  0  0  0  0  0  0  0  0  0  0  0
    1.5980   67.8556   84.1684 O   0  0  0  0  0  0  0  0  0  0  0  0
    2.8207   66.3664   82.5450 O   0  0  0  0  0  0  0  0  0  0  0  0
    3.7140   66.6571   84.9172 N   0  0  0  0  0  0  0  0  0  0  0  0
    4.3969   67.9575   85.1627 C   0  0  0  0  0  0  0  0  0  0  0  0
    5.3696   67.8400   86.3550 C   0  0  0  0  0  0  0  0  0  0  0  0
    6.3621   66.7458   86.2425 N   0  0  0  0  0  0  0  0  0  0  0  0
    5.6339   65.4831   85.9878 C   0  0  0  0  0  0  0  0  0  0  0  0
    4.6650   65.5190   84.7871 C   0  0  0  0  0  0  0  0  0  0  0  0
    7.3895   67.0531   85.2380 C   0  0  0  0  0  0  0  0  0  0  0  0
    8.2198   65.8333   84.8524 C   0  0  0  0  0  0  0  0  0  0  0  0
   -0.8131   62.1440   85.8723 O   0  0  0  0  0  0  0  0  0  0  0  0
   -2.7692   62.9104   86.9949 C   0  0  0  0  0  0  0  0  0  0  0  0
   -1.3622   62.3691   87.1749 C   0  0  0  0  0  0  0  0  0  0  0  0
 34 35  1  0  0  0
 35 33  1  0  0  0
 33  1  1  0  0  0
  1  2  1  0  0  0
  2  3  2  0  0  0
  3  4  1  0  0  0
  4 22  1  0  0  0
 22 23  2  0  0  0
 22 24  2  0  0  0
 22 25  1  0  0  0
 25 26  1  0  0  0
 26 27  1  0  0  0
 27 28  1  0  0  0
 28 31  1  0  0  0
 31 32  1  0  0  0
 28 29  1  0  0  0
 29 30  1  0  0  0
  4  5  2  0  0  0
  5  6  1  0  0  0
  6  7  1  0  0  0
  7  8  2  0  0  0
  8  9  1  0  0  0
  9 10  2  0  0  0
 10 11  1  0  0  0
 11 12  1  0  0  0
 12 13  2  0  0  0
 13 14  1  0  0  0
 14 15  2  0  0  0
 14 16  1  0  0  0
 11 17  1  0  0  0
 17 18  1  0  0  0
 18 19  1  0  0  0
 19 20  1  0  0  0
  6  1  2  0  0  0
 16  7  1  0  0  0
 30 25  1  0  0  0
 13  9  1  0  0  0
 20 10  1  0  0  0
 16 21  1  0  0  0
M  END
> <minimizedAffinity>
-10.39818

$$$$



 35 39  0  0  0  0  0  0  0  0999 V2000
    0.2473   63.7011   85.3843 C   0  0  0  0  0  0  0  0  0  0  0  0
   -0.5530   62.6070   85.4684 N   0  0  0  0  0  0  0  0  0  0  0  0
   -1.0591   62.1097   84.3153 C   0  0  0  0  0  0  0  0  0  0  0  0
   -0.8170   62.6814   83.0833 C   0  0  0  0  0  0  0  0  0  0  0  0
    0.0266   63.7879   83.0052 C   0  0  0  0  0  0  0  0  0  0  0  0
    0.5699   64.3320   84.1785 C   0  0  0  0  0  0  0  0  0  0  0  0
    1.4334   65.5505   84.0536 C   0  0  0  0  0  0  0  0  0  0  0  0
    1.0313   66.5312   83.2917 N   0  0  0  0  0  0  0  0  0  0  0  0
    1.9090   67.6131   83.2425 C   0  0  0  0  0  0  0  0  0  0  0  0
    1.7863   68.7744   82.5343 C   0  0  0  0  0  0  0  0  0  0  0  0
    2.9272   69.4772   82.8371 N   0  0  0  0  0  0  0  0  0  0  0  0
    3.7557   68.8508   83.7012 N   0  0  0  0  0  0  0  0  0  0  0  0
    3.1227   67.6909   83.9395 C   0  0  0  0  0  0  0  0  0  0  0  0
    3.5417   66.5969   84.7859 C   0  0  0  0  0  0  0  0  0  0  0  0
    4.5659   66.5451   85.4603 O   0  0  0  0  0  0  0  0  0  0  0  0
    2.6272   65.5598   84.7685 N   0  0  0  0  0  0  0  0  0  0  0  0
    3.2301   70.8154   82.3645 C   0  0  0  0  0  0  0  0  0  0  0  0
    2.3572   71.2130   81.1731 C   0  0  0  0  0  0  0  0  0  0  0  0
    0.8969   70.8126   81.4033 C   0  0  0  0  0  0  0  0  0  0  0  0
    0.7635   69.2977   81.5942 C   0  0  0  0  0  0  0  0  0  0  0  0
    2.8766   64.7773   85.3608 H   0  0  0  0  0  0  0  0  0  0  0  0
   -1.5083   61.9562   81.6326 S   0  0  0  0  0  0  0  0  0  0  0  0
   -2.8840   62.3976   81.5491 O   0  0  0  0  0  0  0  0  0  0  0  0
   -1.1760   60.5487   81.6619 O   0  0  0  0  0  0  0  0  0  0  0  0
   -0.6475   62.6845   80.3701 N   0  0  0  0  0  0  0  0  0  0  0  0
   -1.1550   63.9870   79.8567 C   0  0  0  0  0  0  0  0  0  0  0  0
   -0.0967   64.6634   78.9600 C   0  0  0  0  0  0  0  0  0  0  0  0
    0.4015   63.8247   77.8449 N   0  0  0  0  0  0  0  0  0  0  0  0
    0.8810   62.5426   78.4069 C   0  0  0  0  0  0  0  0  0  0  0  0
   -0.1398   61.7945   79.2901 C   0  0  0  0  0  0  0  0  0  0  0  0
   -0.6129   63.6709   76.7931 C   0  0  0  0  0  0  0  0  0  0  0  0
   -1.2671   64.9937   76.4079 C   0  0  0  0  0  0  0  0  0  0  0  0
    0.7630   64.2146   86.5580 O   0  0  0  0  0  0  0  0  0  0  0  0
    0.6209   63.2456   88.7292 C   0  0  0  0  0  0  0  0  0  0  0  0
   -0.1049   64.0788   87.6881 C   0  0  0  0  0  0  0  0  0  0  0  0
 34 35  1  0  0  0
 35 33  1  0  0  0
 33  1  1  0  0  0
  1  2  1  0  0  0
  2  3  2  0  0  0
  3  4  1  0  0  0
  4 22  1  0  0  0
 22 23  2  0  0  0
 22 24  2  0  0  0
 22 25  1  0  0  0
 25 26  1  0  0  0
 26 27  1  0  0  0
 27 28  1  0  0  0
 28 31  1  0  0  0
 31 32  1  0  0  0
 28 29  1  0  0  0
 29 30  1  0  0  0
  4  5  2  0  0  0
  5  6  1  0  0  0
  6  7  1  0  0  0
  7  8  2  0  0  0
  8  9  1  0  0  0
  9 10  2  0  0  0
 10 11  1  0  0  0
 11 12  1  0  0  0
 12 13  2  0  0  0
 13 14  1  0  0  0
 14 15  2  0  0  0
 14 16  1  0  0  0
 11 17  1  0  0  0
 17 18  1  0  0  0
 18 19  1  0  0  0
 19 20  1  0  0  0
  6  1  2  0  0  0
 16  7  1  0  0  0
 30 25  1  0  0  0
 13  9  1  0  0  0
 20 10  1  0  0  0
 16 21  1  0  0  0
M  END
> <minimizedAffinity>
-9.91996

$$$$



 35 39  0  0  0  0  0  0  0  0999 V2000
   -2.0792   61.6718   83.6449 C   0  0  0  0  0  0  0  0  0  0  0  0
   -2.8931   60.5988   83.4688 N   0  0  0  0  0  0  0  0  0  0  0  0
   -3.3026   60.3221   82.2083 C   0  0  0  0  0  0  0  0  0  0  0  0
   -2.9508   61.0940   81.1203 C   0  0  0  0  0  0  0  0  0  0  0  0
   -2.0943   62.1772   81.3081 C   0  0  0  0  0  0  0  0  0  0  0  0
   -1.6491   62.4955   82.5997 C   0  0  0  0  0  0  0  0  0  0  0  0
   -0.7678   63.6966   82.7629 C   0  0  0  0  0  0  0  0  0  0  0  0
   -0.8176   64.6407   81.8627 N   0  0  0  0  0  0  0  0  0  0  0  0
    0.0437   65.7091   82.1072 C   0  0  0  0  0  0  0  0  0  0  0  0
    0.2365   66.8333   81.3561 C   0  0  0  0  0  0  0  0  0  0  0  0
    1.1946   67.5386   82.0428 N   0  0  0  0  0  0  0  0  0  0  0  0
    1.6095   66.9491   83.1855 N   0  0  0  0  0  0  0  0  0  0  0  0
    0.8992   65.8101   83.2129 C   0  0  0  0  0  0  0  0  0  0  0  0
    0.9291   64.7571   84.2025 C   0  0  0  0  0  0  0  0  0  0  0  0
    1.6146   64.7294   85.2202 O   0  0  0  0  0  0  0  0  0  0  0  0
    0.0606   63.7303   83.8805 N   0  0  0  0  0  0  0  0  0  0  0  0
    1.6952   68.8472   81.6647 C   0  0  0  0  0  0  0  0  0  0  0  0
    1.3579   69.1917   80.2131 C   0  0  0  0  0  0  0  0  0  0  0  0
   -0.0904   68.8193   79.8818 C   0  0  0  0  0  0  0  0  0  0  0  0
   -0.3319   67.3179   80.0731 C   0  0  0  0  0  0  0  0  0  0  0  0
    0.0405   62.9770   84.5569 H   0  0  0  0  0  0  0  0  0  0  0  0
   -3.5213   60.6491   79.5125 S   0  0  0  0  0  0  0  0  0  0  0  0
   -4.7199   61.4187   79.2571 O   0  0  0  0  0  0  0  0  0  0  0  0
   -3.5344   59.2040   79.4516 O   0  0  0  0  0  0  0  0  0  0  0  0
   -2.3043   61.2185   78.4828 N   0  0  0  0  0  0  0  0  0  0  0  0
   -0.9937   60.5123   78.5148 C   0  0  0  0  0  0  0  0  0  0  0  0
   -0.1255   60.9300   77.3093 C   0  0  0  0  0  0  0  0  0  0  0  0
    0.0755   62.3908   77.1641 N   0  0  0  0  0  0  0  0  0  0  0  0
   -1.2527   63.0428   77.1499 C   0  0  0  0  0  0  0  0  0  0  0  0
   -2.1638   62.6943   78.3458 C   0  0  0  0  0  0  0  0  0  0  0  0
    0.9839   62.9134   78.1939 C   0  0  0  0  0  0  0  0  0  0  0  0
    0.9328   64.4334   78.3081 C   0  0  0  0  0  0  0  0  0  0  0  0
   -1.6619   61.9607   84.9292 O   0  0  0  0  0  0  0  0  0  0  0  0
   -2.0664   62.8279   87.1105 C   0  0  0  0  0  0  0  0  0  0  0  0
   -2.7051   62.4199   85.7950 C   0  0  0  0  0  0  0  0  0  0  0  0
 34 35  1  0  0  0
 35 33  1  0  0  0
 33  1  1  0  0  0
  1  2  1  0  0  0
  2  3  2  0  0  0
  3  4  1  0  0  0
  4 22  1  0  0  0
 22 23  2  0  0  0
 22 24  2  0  0  0
 22 25  1  0  0  0
 25 26  1  0  0  0
 26 27  1  0  0  0
 27 28  1  0  0  0
 28 31  1  0  0  0
 31 32  1  0  0  0
 28 29  1  0  0  0
 29 30  1  0  0  0
  4  5  2  0  0  0
  5  6  1  0  0  0
  6  7  1  0  0  0
  7  8  2  0  0  0
  8  9  1  0  0  0
  9 10  2  0  0  0
 10 11  1  0  0  0
 11 12  1  0  0  0
 12 13  2  0  0  0
 13 14  1  0  0  0
 14 15  2  0  0  0
 14 16  1  0  0  0
 11 17  1  0  0  0
 17 18  1  0  0  0
 18 19  1  0  0  0
 19 20  1  0  0  0
  6  1  2  0  0  0
 16  7  1  0  0  0
 30 25  1  0  0  0
 13  9  1  0  0  0
 20 10  1  0  0  0
 16 21  1  0  0  0
M  END
> <minimizedAffinity>
-9.90115

$$$$



 35 39  0  0  0  0  0  0  0  0999 V2000
    0.2555   64.7713   82.7316 C   0  0  0  0  0  0  0  0  0  0  0  0
   -0.2759   63.5767   82.3639 N   0  0  0  0  0  0  0  0  0  0  0  0
   -0.3554   63.3064   81.0397 C   0  0  0  0  0  0  0  0  0  0  0  0
    0.0517   64.1970   80.0679 C   0  0  0  0  0  0  0  0  0  0  0  0
    0.6196   65.4089   80.4563 C   0  0  0  0  0  0  0  0  0  0  0  0
    0.7186   65.7249   81.8194 C   0  0  0  0  0  0  0  0  0  0  0  0
    1.2920   67.0586   82.1917 C   0  0  0  0  0  0  0  0  0  0  0  0
    0.6504   68.1396   81.8399 N   0  0  0  0  0  0  0  0  0  0  0  0
    1.2707   69.3250   82.2315 C   0  0  0  0  0  0  0  0  0  0  0  0
    0.8653   70.6097   82.0072 C   0  0  0  0  0  0  0  0  0  0  0  0
    1.8418   71.3793   82.5916 N   0  0  0  0  0  0  0  0  0  0  0  0
    2.8281   70.6726   83.1860 N   0  0  0  0  0  0  0  0  0  0  0  0
    2.4726   69.3997   82.9490 C   0  0  0  0  0  0  0  0  0  0  0  0
    3.1594   68.1887   83.3370 C   0  0  0  0  0  0  0  0  0  0  0  0
    4.2033   68.1137   83.9782 O   0  0  0  0  0  0  0  0  0  0  0  0
    2.4901   67.0606   82.8993 N   0  0  0  0  0  0  0  0  0  0  0  0
    1.8251   72.8284   82.6670 C   0  0  0  0  0  0  0  0  0  0  0  0
    0.8283   73.4414   81.6820 C   0  0  0  0  0  0  0  0  0  0  0  0
   -0.4980   72.6755   81.6934 C   0  0  0  0  0  0  0  0  0  0  0  0
   -0.2921   71.2094   81.2969 C   0  0  0  0  0  0  0  0  0  0  0  0
    2.9317   66.1882   83.1630 H   0  0  0  0  0  0  0  0  0  0  0  0
   -0.0776   63.7530   78.3666 S   0  0  0  0  0  0  0  0  0  0  0  0
    1.2286   63.2947   77.9448 O   0  0  0  0  0  0  0  0  0  0  0  0
   -0.7389   64.8480   77.6912 O   0  0  0  0  0  0  0  0  0  0  0  0
   -1.1216   62.4205   78.3774 N   0  0  0  0  0  0  0  0  0  0  0  0
   -0.5051   61.0665   78.3116 C   0  0  0  0  0  0  0  0  0  0  0  0
   -1.5458   59.9817   78.6604 C   0  0  0  0  0  0  0  0  0  0  0  0
   -2.7862   60.0270   77.8513 N   0  0  0  0  0  0  0  0  0  0  0  0
   -3.3494   61.3923   77.9413 C   0  0  0  0  0  0  0  0  0  0  0  0
   -2.3706   62.5277   77.5744 C   0  0  0  0  0  0  0  0  0  0  0  0
   -2.5473   59.5715   76.4750 C   0  0  0  0  0  0  0  0  0  0  0  0
   -1.7026   58.3031   76.4127 C   0  0  0  0  0  0  0  0  0  0  0  0
    0.3352   65.0536   84.0811 O   0  0  0  0  0  0  0  0  0  0  0  0
    0.4706   64.3051   86.3384 C   0  0  0  0  0  0  0  0  0  0  0  0
    0.0310   63.9428   84.9311 C   0  0  0  0  0  0  0  0  0  0  0  0
 34 35  1  0  0  0
 35 33  1  0  0  0
 33  1  1  0  0  0
  1  2  1  0  0  0
  2  3  2  0  0  0
  3  4  1  0  0  0
  4 22  1  0  0  0
 22 23  2  0  0  0
 22 24  2  0  0  0
 22 25  1  0  0  0
 25 26  1  0  0  0
 26 27  1  0  0  0
 27 28  1  0  0  0
 28 31  1  0  0  0
 31 32  1  0  0  0
 28 29  1  0  0  0
 29 30  1  0  0  0
  4  5  2  0  0  0
  5  6  1  0  0  0
  6  7  1  0  0  0
  7  8  2  0  0  0
  8  9  1  0  0  0
  9 10  2  0  0  0
 10 11  1  0  0  0
 11 12  1  0  0  0
 12 13  2  0  0  0
 13 14  1  0  0  0
 14 15  2  0  0  0
 14 16  1  0  0  0
 11 17  1  0  0  0
 17 18  1  0  0  0
 18 19  1  0  0  0
 19 20  1  0  0  0
  6  1  2  0  0  0
 16  7  1  0  0  0
 30 25  1  0  0  0
 13  9  1  0  0  0
 20 10  1  0  0  0
 16 21  1  0  0  0
M  END
> <minimizedAffinity>
-9.67008

$$$$



 35 39  0  0  0  0  0  0  0  0999 V2000
    1.0415   65.9192   80.6983 C   0  0  0  0  0  0  0  0  0  0  0  0
    1.6800   66.8606   79.9562 N   0  0  0  0  0  0  0  0  0  0  0  0
    2.3013   67.8655   80.6174 C   0  0  0  0  0  0  0  0  0  0  0  0
    2.2853   67.9797   81.9921 C   0  0  0  0  0  0  0  0  0  0  0  0
    1.6497   66.9944   82.7453 C   0  0  0  0  0  0  0  0  0  0  0  0
    0.9946   65.9375   82.0960 C   0  0  0  0  0  0  0  0  0  0  0  0
    0.2834   64.9258   82.9424 C   0  0  0  0  0  0  0  0  0  0  0  0
    0.6309   64.7965   84.1940 N   0  0  0  0  0  0  0  0  0  0  0  0
   -0.0893   63.8267   84.8896 C   0  0  0  0  0  0  0  0  0  0  0  0
    0.0418   63.4447   86.1943 C   0  0  0  0  0  0  0  0  0  0  0  0
   -0.8967   62.4541   86.3525 N   0  0  0  0  0  0  0  0  0  0  0  0
   -1.6255   62.1939   85.2450 N   0  0  0  0  0  0  0  0  0  0  0  0
   -1.1117   63.0414   84.3393 C   0  0  0  0  0  0  0  0  0  0  0  0
   -1.4865   63.2100   82.9537 C   0  0  0  0  0  0  0  0  0  0  0  0
   -2.3706   62.6033   82.3563 O   0  0  0  0  0  0  0  0  0  0  0  0
   -0.7177   64.1766   82.3317 N   0  0  0  0  0  0  0  0  0  0  0  0
   -1.1815   61.7694   87.5999 C   0  0  0  0  0  0  0  0  0  0  0  0
   -0.0647   61.9627   88.6270 C   0  0  0  0  0  0  0  0  0  0  0  0
    0.4033   63.4207   88.6627 C   0  0  0  0  0  0  0  0  0  0  0  0
    0.9438   63.8605   87.2976 C   0  0  0  0  0  0  0  0  0  0  0  0
   -0.9581   64.3362   81.3610 H   0  0  0  0  0  0  0  0  0  0  0  0
    3.1341   69.3163   82.7677 S   0  0  0  0  0  0  0  0  0  0  0  0
    2.1520   70.0646   83.5225 O   0  0  0  0  0  0  0  0  0  0  0  0
    3.9394   69.9552   81.7501 O   0  0  0  0  0  0  0  0  0  0  0  0
    4.1680   68.5510   83.8681 N   0  0  0  0  0  0  0  0  0  0  0  0
    5.0473   67.4695   83.3439 C   0  0  0  0  0  0  0  0  0  0  0  0
    6.1388   67.1134   84.3751 C   0  0  0  0  0  0  0  0  0  0  0  0
    5.6310   66.7623   85.7220 N   0  0  0  0  0  0  0  0  0  0  0  0
    4.7567   67.8609   86.1892 C   0  0  0  0  0  0  0  0  0  0  0  0
    3.6207   68.2487   85.2192 C   0  0  0  0  0  0  0  0  0  0  0  0
    4.9829   65.4437   85.7253 C   0  0  0  0  0  0  0  0  0  0  0  0
    4.7120   64.9240   87.1333 C   0  0  0  0  0  0  0  0  0  0  0  0
    0.4029   64.8941   80.0286 O   0  0  0  0  0  0  0  0  0  0  0  0
    0.9661   63.4184   78.2456 C   0  0  0  0  0  0  0  0  0  0  0  0
    0.6675   64.8585   78.6223 C   0  0  0  0  0  0  0  0  0  0  0  0
 34 35  1  0  0  0
 35 33  1  0  0  0
 33  1  1  0  0  0
  1  2  1  0  0  0
  2  3  2  0  0  0
  3  4  1  0  0  0
  4 22  1  0  0  0
 22 23  2  0  0  0
 22 24  2  0  0  0
 22 25  1  0  0  0
 25 26  1  0  0  0
 26 27  1  0  0  0
 27 28  1  0  0  0
 28 31  1  0  0  0
 31 32  1  0  0  0
 28 29  1  0  0  0
 29 30  1  0  0  0
  4  5  2  0  0  0
  5  6  1  0  0  0
  6  7  1  0  0  0
  7  8  2  0  0  0
  8  9  1  0  0  0
  9 10  2  0  0  0
 10 11  1  0  0  0
 11 12  1  0  0  0
 12 13  2  0  0  0
 13 14  1  0  0  0
 14 15  2  0  0  0
 14 16  1  0  0  0
 11 17  1  0  0  0
 17 18  1  0  0  0
 18 19  1  0  0  0
 19 20  1  0  0  0
  6  1  2  0  0  0
 16  7  1  0  0  0
 30 25  1  0  0  0
 13  9  1  0  0  0
 20 10  1  0  0  0
 16 21  1  0  0  0
M  END
> <minimizedAffinity>
-9.60806

$$$$



 35 39  0  0  0  0  0  0  0  0999 V2000
    3.5051   67.4444   84.1857 C   0  0  0  0  0  0  0  0  0  0  0  0
    4.3000   68.4671   83.7771 N   0  0  0  0  0  0  0  0  0  0  0  0
    3.9128   69.1643   82.6831 C   0  0  0  0  0  0  0  0  0  0  0  0
    2.7742   68.8604   81.9658 C   0  0  0  0  0  0  0  0  0  0  0  0
    1.9518   67.8261   82.4086 C   0  0  0  0  0  0  0  0  0  0  0  0
    2.3199   67.0805   83.5384 C   0  0  0  0  0  0  0  0  0  0  0  0
    1.4314   65.9468   83.9520 C   0  0  0  0  0  0  0  0  0  0  0  0
    0.8028   65.2709   83.0290 N   0  0  0  0  0  0  0  0  0  0  0  0
    0.0011   64.2420   83.5206 C   0  0  0  0  0  0  0  0  0  0  0  0
   -0.7862   63.3714   82.8223 C   0  0  0  0  0  0  0  0  0  0  0  0
   -1.3595   62.5830   83.7902 N   0  0  0  0  0  0  0  0  0  0  0  0
   -0.9772   62.8809   85.0513 N   0  0  0  0  0  0  0  0  0  0  0  0
   -0.1419   63.9176   84.8768 C   0  0  0  0  0  0  0  0  0  0  0  0
    0.5728   64.6734   85.8801 C   0  0  0  0  0  0  0  0  0  0  0  0
    0.5502   64.4834   87.0925 O   0  0  0  0  0  0  0  0  0  0  0  0
    1.3310   65.6820   85.3144 N   0  0  0  0  0  0  0  0  0  0  0  0
   -2.2419   61.4599   83.5335 C   0  0  0  0  0  0  0  0  0  0  0  0
   -2.8004   61.4844   82.1097 C   0  0  0  0  0  0  0  0  0  0  0  0
   -1.7046   61.8232   81.0948 C   0  0  0  0  0  0  0  0  0  0  0  0
   -1.0944   63.2000   81.3802 C   0  0  0  0  0  0  0  0  0  0  0  0
    1.8599   66.2280   85.9835 H   0  0  0  0  0  0  0  0  0  0  0  0
    2.3415   69.8329   80.5603 S   0  0  0  0  0  0  0  0  0  0  0  0
    1.5164   69.0054   79.7067 O   0  0  0  0  0  0  0  0  0  0  0  0
    3.5621   70.4316   80.0663 O   0  0  0  0  0  0  0  0  0  0  0  0
    1.3657   71.0572   81.2040 N   0  0  0  0  0  0  0  0  0  0  0  0
   -0.0810   71.0370   80.8514 C   0  0  0  0  0  0  0  0  0  0  0  0
   -0.8727   71.9975   81.7636 C   0  0  0  0  0  0  0  0  0  0  0  0
   -0.3647   73.3891   81.7912 N   0  0  0  0  0  0  0  0  0  0  0  0
    1.0743   73.3511   82.1334 C   0  0  0  0  0  0  0  0  0  0  0  0
    1.9340   72.4328   81.2392 C   0  0  0  0  0  0  0  0  0  0  0  0
   -0.6594   74.0939   80.5362 C   0  0  0  0  0  0  0  0  0  0  0  0
   -0.2651   75.5665   80.5810 C   0  0  0  0  0  0  0  0  0  0  0  0
    3.8976   66.7276   85.2989 O   0  0  0  0  0  0  0  0  0  0  0  0
    5.2307   65.0528   86.3438 C   0  0  0  0  0  0  0  0  0  0  0  0
    4.9954   65.8389   85.0664 C   0  0  0  0  0  0  0  0  0  0  0  0
 34 35  1  0  0  0
 35 33  1  0  0  0
 33  1  1  0  0  0
  1  2  1  0  0  0
  2  3  2  0  0  0
  3  4  1  0  0  0
  4 22  1  0  0  0
 22 23  2  0  0  0
 22 24  2  0  0  0
 22 25  1  0  0  0
 25 26  1  0  0  0
 26 27  1  0  0  0
 27 28  1  0  0  0
 28 31  1  0  0  0
 31 32  1  0  0  0
 28 29  1  0  0  0
 29 30  1  0  0  0
  4  5  2  0  0  0
  5  6  1  0  0  0
  6  7  1  0  0  0
  7  8  2  0  0  0
  8  9  1  0  0  0
  9 10  2  0  0  0
 10 11  1  0  0  0
 11 12  1  0  0  0
 12 13  2  0  0  0
 13 14  1  0  0  0
 14 15  2  0  0  0
 14 16  1  0  0  0
 11 17  1  0  0  0
 17 18  1  0  0  0
 18 19  1  0  0  0
 19 20  1  0  0  0
  6  1  2  0  0  0
 16  7  1  0  0  0
 30 25  1  0  0  0
 13  9  1  0  0  0
 20 10  1  0  0  0
 16 21  1  0  0  0
M  END
> <minimizedAffinity>
-9.60400

$$$$



 35 39  0  0  0  0  0  0  0  0999 V2000
    0.9871   66.0005   80.4064 C   0  0  0  0  0  0  0  0  0  0  0  0
    1.5940   66.9730   79.6779 N   0  0  0  0  0  0  0  0  0  0  0  0
    2.1261   68.0208   80.3502 C   0  0  0  0  0  0  0  0  0  0  0  0
    2.0505   68.1465   81.7220 C   0  0  0  0  0  0  0  0  0  0  0  0
    1.4488   67.1305   82.4622 C   0  0  0  0  0  0  0  0  0  0  0  0
    0.8857   66.0289   81.8010 C   0  0  0  0  0  0  0  0  0  0  0  0
    0.2067   64.9826   82.6318 C   0  0  0  0  0  0  0  0  0  0  0  0
    0.5049   64.8946   83.8996 N   0  0  0  0  0  0  0  0  0  0  0  0
   -0.1790   63.8874   84.5786 C   0  0  0  0  0  0  0  0  0  0  0  0
   -0.0820   63.5332   85.8941 C   0  0  0  0  0  0  0  0  0  0  0  0
   -0.9577   62.4831   86.0269 N   0  0  0  0  0  0  0  0  0  0  0  0
   -1.6161   62.1586   84.8927 N   0  0  0  0  0  0  0  0  0  0  0  0
   -1.1199   63.0267   83.9966 C   0  0  0  0  0  0  0  0  0  0  0  0
   -1.4419   63.1504   82.5931 C   0  0  0  0  0  0  0  0  0  0  0  0
   -2.2548   62.4766   81.9673 O   0  0  0  0  0  0  0  0  0  0  0  0
   -0.7126   64.1586   81.9898 N   0  0  0  0  0  0  0  0  0  0  0  0
   -1.2520   61.7977   87.2718 C   0  0  0  0  0  0  0  0  0  0  0  0
   -0.1987   62.0809   88.3441 C   0  0  0  0  0  0  0  0  0  0  0  0
    0.1676   63.5677   88.3762 C   0  0  0  0  0  0  0  0  0  0  0  0
    0.7388   64.0246   87.0293 C   0  0  0  0  0  0  0  0  0  0  0  0
   -0.9189   64.2881   81.0068 H   0  0  0  0  0  0  0  0  0  0  0  0
    2.7844   69.5406   82.5133 S   0  0  0  0  0  0  0  0  0  0  0  0
    3.9052   69.9538   81.6963 O   0  0  0  0  0  0  0  0  0  0  0  0
    2.9634   69.1927   83.9059 O   0  0  0  0  0  0  0  0  0  0  0  0
    1.5911   70.7366   82.4081 N   0  0  0  0  0  0  0  0  0  0  0  0
    0.3294   70.3853   81.6993 C   0  0  0  0  0  0  0  0  0  0  0  0
   -0.7583   71.4444   81.9757 C   0  0  0  0  0  0  0  0  0  0  0  0
   -0.3613   72.8384   81.6685 N   0  0  0  0  0  0  0  0  0  0  0  0
    0.8994   73.1307   82.3856 C   0  0  0  0  0  0  0  0  0  0  0  0
    2.0438   72.1273   82.1297 C   0  0  0  0  0  0  0  0  0  0  0  0
   -0.2890   73.0697   80.2193 C   0  0  0  0  0  0  0  0  0  0  0  0
   -1.6650   73.1866   79.5720 C   0  0  0  0  0  0  0  0  0  0  0  0
    0.4394   64.9314   79.7251 O   0  0  0  0  0  0  0  0  0  0  0  0
   -0.5191   64.8393   77.5464 C   0  0  0  0  0  0  0  0  0  0  0  0
    0.7775   64.8871   78.3349 C   0  0  0  0  0  0  0  0  0  0  0  0
 34 35  1  0  0  0
 35 33  1  0  0  0
 33  1  1  0  0  0
  1  2  1  0  0  0
  2  3  2  0  0  0
  3  4  1  0  0  0
  4 22  1  0  0  0
 22 23  2  0  0  0
 22 24  2  0  0  0
 22 25  1  0  0  0
 25 26  1  0  0  0
 26 27  1  0  0  0
 27 28  1  0  0  0
 28 31  1  0  0  0
 31 32  1  0  0  0
 28 29  1  0  0  0
 29 30  1  0  0  0
  4  5  2  0  0  0
  5  6  1  0  0  0
  6  7  1  0  0  0
  7  8  2  0  0  0
  8  9  1  0  0  0
  9 10  2  0  0  0
 10 11  1  0  0  0
 11 12  1  0  0  0
 12 13  2  0  0  0
 13 14  1  0  0  0
 14 15  2  0  0  0
 14 16  1  0  0  0
 11 17  1  0  0  0
 17 18  1  0  0  0
 18 19  1  0  0  0
 19 20  1  0  0  0
  6  1  2  0  0  0
 16  7  1  0  0  0
 30 25  1  0  0  0
 13  9  1  0  0  0
 20 10  1  0  0  0
 16 21  1  0  0  0
M  END
> <minimizedAffinity>
-9.59873

$$$$



 35 39  0  0  0  0  0  0  0  0999 V2000
    2.7821   66.5220   84.1688 C   0  0  0  0  0  0  0  0  0  0  0  0
    3.5506   67.6090   83.8991 N   0  0  0  0  0  0  0  0  0  0  0  0
    3.0916   68.4891   82.9784 C   0  0  0  0  0  0  0  0  0  0  0  0
    1.9055   68.3095   82.2971 C   0  0  0  0  0  0  0  0  0  0  0  0
    1.1119   67.2047   82.6001 C   0  0  0  0  0  0  0  0  0  0  0  0
    1.5542   66.2704   83.5484 C   0  0  0  0  0  0  0  0  0  0  0  0
    0.6924   65.0724   83.8094 C   0  0  0  0  0  0  0  0  0  0  0  0
    0.0553   64.5258   82.8097 N   0  0  0  0  0  0  0  0  0  0  0  0
   -0.7198   63.4219   83.1614 C   0  0  0  0  0  0  0  0  0  0  0  0
   -1.5077   62.6472   82.3586 C   0  0  0  0  0  0  0  0  0  0  0  0
   -2.0483   61.7164   83.2122 N   0  0  0  0  0  0  0  0  0  0  0  0
   -1.6444   61.8356   84.4960 N   0  0  0  0  0  0  0  0  0  0  0  0
   -0.8293   62.9018   84.4584 C   0  0  0  0  0  0  0  0  0  0  0  0
   -0.1057   63.5175   85.5476 C   0  0  0  0  0  0  0  0  0  0  0  0
   -0.1001   63.1535   86.7198 O   0  0  0  0  0  0  0  0  0  0  0  0
    0.6246   64.6113   85.1205 N   0  0  0  0  0  0  0  0  0  0  0  0
   -2.9181   60.6262   82.8114 C   0  0  0  0  0  0  0  0  0  0  0  0
   -3.5066   60.8463   81.4168 C   0  0  0  0  0  0  0  0  0  0  0  0
   -2.4376   61.3488   80.4418 C   0  0  0  0  0  0  0  0  0  0  0  0
   -1.8432   62.6808   80.9129 C   0  0  0  0  0  0  0  0  0  0  0  0
    1.1587   65.0642   85.8520 H   0  0  0  0  0  0  0  0  0  0  0  0
    1.3806   69.5162   81.1237 S   0  0  0  0  0  0  0  0  0  0  0  0
   -0.0364   69.7244   81.3307 O   0  0  0  0  0  0  0  0  0  0  0  0
    1.8951   69.1072   79.8352 O   0  0  0  0  0  0  0  0  0  0  0  0
    2.1918   70.9224   81.6035 N   0  0  0  0  0  0  0  0  0  0  0  0
    1.4997   71.8157   82.5734 C   0  0  0  0  0  0  0  0  0  0  0  0
    2.4854   72.8535   83.1502 C   0  0  0  0  0  0  0  0  0  0  0  0
    3.2114   73.6526   82.1355 N   0  0  0  0  0  0  0  0  0  0  0  0
    3.8686   72.7198   81.1936 C   0  0  0  0  0  0  0  0  0  0  0  0
    2.9336   71.6724   80.5530 C   0  0  0  0  0  0  0  0  0  0  0  0
    2.3260   74.6287   81.4859 C   0  0  0  0  0  0  0  0  0  0  0  0
    1.6392   75.5561   82.4830 C   0  0  0  0  0  0  0  0  0  0  0  0
    3.2477   65.6192   85.1044 O   0  0  0  0  0  0  0  0  0  0  0  0
    4.9784   65.1067   86.6587 C   0  0  0  0  0  0  0  0  0  0  0  0
    4.6701   65.6222   85.2643 C   0  0  0  0  0  0  0  0  0  0  0  0
 34 35  1  0  0  0
 35 33  1  0  0  0
 33  1  1  0  0  0
  1  2  1  0  0  0
  2  3  2  0  0  0
  3  4  1  0  0  0
  4 22  1  0  0  0
 22 23  2  0  0  0
 22 24  2  0  0  0
 22 25  1  0  0  0
 25 26  1  0  0  0
 26 27  1  0  0  0
 27 28  1  0  0  0
 28 31  1  0  0  0
 31 32  1  0  0  0
 28 29  1  0  0  0
 29 30  1  0  0  0
  4  5  2  0  0  0
  5  6  1  0  0  0
  6  7  1  0  0  0
  7  8  2  0  0  0
  8  9  1  0  0  0
  9 10  2  0  0  0
 10 11  1  0  0  0
 11 12  1  0  0  0
 12 13  2  0  0  0
 13 14  1  0  0  0
 14 15  2  0  0  0
 14 16  1  0  0  0
 11 17  1  0  0  0
 17 18  1  0  0  0
 18 19  1  0  0  0
 19 20  1  0  0  0
  6  1  2  0  0  0
 16  7  1  0  0  0
 30 25  1  0  0  0
 13  9  1  0  0  0
 20 10  1  0  0  0
 16 21  1  0  0  0
M  END
> <minimizedAffinity>
-9.56225

$$$$



 35 39  0  0  0  0  0  0  0  0999 V2000
   -0.2175   66.4947   80.3104 C   0  0  0  0  0  0  0  0  0  0  0  0
   -0.5228   66.6218   78.9930 N   0  0  0  0  0  0  0  0  0  0  0  0
   -0.5492   65.4946   78.2435 C   0  0  0  0  0  0  0  0  0  0  0  0
   -0.2552   64.2478   78.7557 C   0  0  0  0  0  0  0  0  0  0  0  0
    0.0312   64.1249   80.1140 C   0  0  0  0  0  0  0  0  0  0  0  0
    0.0683   65.2704   80.9230 C   0  0  0  0  0  0  0  0  0  0  0  0
    0.4270   65.0987   82.3679 C   0  0  0  0  0  0  0  0  0  0  0  0
   -0.3463   64.3698   83.1259 N   0  0  0  0  0  0  0  0  0  0  0  0
    0.0749   64.2785   84.4516 C   0  0  0  0  0  0  0  0  0  0  0  0
   -0.5158   63.6107   85.4862 C   0  0  0  0  0  0  0  0  0  0  0  0
    0.3019   63.8614   86.5612 N   0  0  0  0  0  0  0  0  0  0  0  0
    1.3788   64.6261   86.2768 N   0  0  0  0  0  0  0  0  0  0  0  0
    1.2253   64.8897   84.9693 C   0  0  0  0  0  0  0  0  0  0  0  0
    2.0722   65.6833   84.1080 C   0  0  0  0  0  0  0  0  0  0  0  0
    3.1105   66.2541   84.4281 O   0  0  0  0  0  0  0  0  0  0  0  0
    1.5791   65.7368   82.8171 N   0  0  0  0  0  0  0  0  0  0  0  0
    0.1194   63.3109   87.8915 C   0  0  0  0  0  0  0  0  0  0  0  0
   -1.2910   62.7541   88.0921 C   0  0  0  0  0  0  0  0  0  0  0  0
   -1.7381   61.9376   86.8758 C   0  0  0  0  0  0  0  0  0  0  0  0
   -1.7526   62.7988   85.6080 C   0  0  0  0  0  0  0  0  0  0  0  0
    2.1518   66.2727   82.1766 H   0  0  0  0  0  0  0  0  0  0  0  0
   -0.3279   62.8329   77.7063 S   0  0  0  0  0  0  0  0  0  0  0  0
    0.9227   62.1216   77.8620 O   0  0  0  0  0  0  0  0  0  0  0  0
   -0.7704   63.2902   76.4073 O   0  0  0  0  0  0  0  0  0  0  0  0
   -1.5556   61.8888   78.3896 N   0  0  0  0  0  0  0  0  0  0  0  0
   -2.7762   62.5943   78.8691 C   0  0  0  0  0  0  0  0  0  0  0  0
   -3.9087   61.5843   79.1497 C   0  0  0  0  0  0  0  0  0  0  0  0
   -3.5469   60.4857   80.0756 N   0  0  0  0  0  0  0  0  0  0  0  0
   -2.3255   59.8281   79.5607 C   0  0  0  0  0  0  0  0  0  0  0  0
   -1.1392   60.7766   79.2875 C   0  0  0  0  0  0  0  0  0  0  0  0
   -3.4258   60.9663   81.4588 C   0  0  0  0  0  0  0  0  0  0  0  0
   -2.9676   59.8770   82.4229 C   0  0  0  0  0  0  0  0  0  0  0  0
   -0.1854   67.6420   81.0785 O   0  0  0  0  0  0  0  0  0  0  0  0
   -0.0241   70.0111   81.2658 C   0  0  0  0  0  0  0  0  0  0  0  0
    0.2203   68.8142   80.3642 C   0  0  0  0  0  0  0  0  0  0  0  0
 34 35  1  0  0  0
 35 33  1  0  0  0
 33  1  1  0  0  0
  1  2  1  0  0  0
  2  3  2  0  0  0
  3  4  1  0  0  0
  4 22  1  0  0  0
 22 23  2  0  0  0
 22 24  2  0  0  0
 22 25  1  0  0  0
 25 26  1  0  0  0
 26 27  1  0  0  0
 27 28  1  0  0  0
 28 31  1  0  0  0
 31 32  1  0  0  0
 28 29  1  0  0  0
 29 30  1  0  0  0
  4  5  2  0  0  0
  5  6  1  0  0  0
  6  7  1  0  0  0
  7  8  2  0  0  0
  8  9  1  0  0  0
  9 10  2  0  0  0
 10 11  1  0  0  0
 11 12  1  0  0  0
 12 13  2  0  0  0
 13 14  1  0  0  0
 14 15  2  0  0  0
 14 16  1  0  0  0
 11 17  1  0  0  0
 17 18  1  0  0  0
 18 19  1  0  0  0
 19 20  1  0  0  0
  6  1  2  0  0  0
 16  7  1  0  0  0
 30 25  1  0  0  0
 13  9  1  0  0  0
 20 10  1  0  0  0
 16 21  1  0  0  0
M  END
> <minimizedAffinity>
-9.54911

$$$$
