
     RDKit          3D

 64 67  0  0  0  0  0  0  0  0999 V2000
   -3.5986    5.7124   -0.4955 C   0  0  0  0  0  0  0  0  0  0  0  0
   -2.5927    5.1490   -1.4892 C   0  0  0  0  0  0  0  0  0  0  0  0
   -1.5528    4.2562   -0.8198 C   0  0  0  0  0  0  0  0  0  0  0  0
   -2.2048    3.1173   -0.2577 O   0  0  0  0  0  0  0  0  0  0  0  0
   -1.3046    2.2363    0.4165 C   0  0  0  0  0  0  0  0  0  0  0  0
   -0.6207    1.2779   -0.5639 C   0  0  0  0  0  0  0  0  0  0  0  0
    0.1718    0.2555    0.1092 N   0  0  0  0  0  0  0  0  0  0  0  0
    1.4942    0.5638    0.4303 C   0  0  0  0  0  0  0  0  0  0  0  0
    2.0125    1.6461    0.1817 O   0  0  0  0  0  0  0  0  0  0  0  0
    2.3125   -0.5541    1.1351 C   0  0  0  0  0  0  0  0  0  0  0  0
    3.6505   -0.4198    1.4511 N   0  0  0  0  0  0  0  0  0  0  0  0
    4.6044    0.5021    0.8544 C   0  0  1  0  0  0  0  0  0  0  0  0
    5.8921    0.4828    1.7049 C   0  0  0  0  0  0  0  0  0  0  0  0
    7.1124    0.8575    0.8765 C   0  0  0  0  0  0  0  0  0  0  0  0
    7.3544   -0.1464   -0.2548 C   0  0  2  0  0  0  0  0  0  0  0  0
    8.0026    0.5496   -1.3164 O   0  0  0  0  0  0  0  0  0  0  0  0
    6.0669   -0.7982   -0.7725 C   0  0  0  0  0  0  0  0  0  0  0  0
    4.8664    0.1344   -0.6182 C   0  0  0  0  0  0  0  0  0  0  0  0
    1.7675   -1.6924    1.4631 N   0  0  0  0  0  0  0  0  0  0  0  0
    0.4196   -1.9125    1.1832 C   0  0  0  0  0  0  0  0  0  0  0  0
   -0.0234   -3.1125    1.6118 N   0  0  0  0  0  0  0  0  0  0  0  0
   -1.3226   -3.4087    1.3899 C   0  0  0  0  0  0  0  0  0  0  0  0
   -2.2307   -2.5643    0.7556 C   0  0  0  0  0  0  0  0  0  0  0  0
   -3.6325   -2.9488    0.5565 C   0  0  0  0  0  0  0  0  0  0  0  0
   -4.4295   -3.4134    1.6102 C   0  0  0  0  0  0  0  0  0  0  0  0
   -5.7588   -3.7679    1.3818 C   0  0  0  0  0  0  0  0  0  0  0  0
   -6.2627   -3.6493    0.0981 C   0  0  0  0  0  0  0  0  0  0  0  0
   -7.5830   -4.0110   -0.0763 O   0  0  0  0  0  0  0  0  0  0  0  0
   -8.0295   -3.8591   -1.4197 C   0  0  0  0  0  0  0  0  0  0  0  0
   -5.5364   -3.2092   -0.9491 N   0  0  0  0  0  0  0  0  0  0  0  0
   -4.2486   -2.8736   -0.6949 C   0  0  0  0  0  0  0  0  0  0  0  0
   -1.7322   -1.3259    0.3211 C   0  0  0  0  0  0  0  0  0  0  0  0
   -0.3895   -0.9815    0.5253 C   0  0  0  0  0  0  0  0  0  0  0  0
   -4.3092    6.3678   -1.0089 H   0  0  0  0  0  0  0  0  0  0  0  0
   -4.1682    4.9145   -0.0089 H   0  0  0  0  0  0  0  0  0  0  0  0
   -3.0958    6.2986    0.2803 H   0  0  0  0  0  0  0  0  0  0  0  0
   -2.0868    5.9765   -1.9987 H   0  0  0  0  0  0  0  0  0  0  0  0
   -3.1376    4.5733   -2.2465 H   0  0  0  0  0  0  0  0  0  0  0  0
   -1.0293    4.8107   -0.0326 H   0  0  0  0  0  0  0  0  0  0  0  0
   -0.8230    3.9327   -1.5690 H   0  0  0  0  0  0  0  0  0  0  0  0
   -0.5746    2.8014    1.0084 H   0  0  0  0  0  0  0  0  0  0  0  0
   -1.9074    1.6615    1.1279 H   0  0  0  0  0  0  0  0  0  0  0  0
   -1.3452    0.8230   -1.2480 H   0  0  0  0  0  0  0  0  0  0  0  0
    0.0410    1.8540   -1.2223 H   0  0  0  0  0  0  0  0  0  0  0  0
    4.0348   -1.3045    1.7699 H   0  0  0  0  0  0  0  0  0  0  0  0
    4.2103    1.5219    0.8989 H   0  0  0  0  0  0  0  0  0  0  0  0
    6.0584   -0.5069    2.1508 H   0  0  0  0  0  0  0  0  0  0  0  0
    5.7812    1.1778    2.5463 H   0  0  0  0  0  0  0  0  0  0  0  0
    6.9874    1.8712    0.4737 H   0  0  0  0  0  0  0  0  0  0  0  0
    8.0024    0.9017    1.5159 H   0  0  0  0  0  0  0  0  0  0  0  0
    8.0415   -0.9299    0.0852 H   0  0  0  0  0  0  0  0  0  0  0  0
    8.2355   -0.1029   -1.9993 H   0  0  0  0  0  0  0  0  0  0  0  0
    6.1740   -1.0824   -1.8256 H   0  0  0  0  0  0  0  0  0  0  0  0
    5.8711   -1.7174   -0.2064 H   0  0  0  0  0  0  0  0  0  0  0  0
    3.9848   -0.3232   -1.0814 H   0  0  0  0  0  0  0  0  0  0  0  0
    5.0661    1.0547   -1.1828 H   0  0  0  0  0  0  0  0  0  0  0  0
   -1.6202   -4.3921    1.7479 H   0  0  0  0  0  0  0  0  0  0  0  0
   -4.0307   -3.4914    2.6194 H   0  0  0  0  0  0  0  0  0  0  0  0
   -6.3890   -4.1251    2.1886 H   0  0  0  0  0  0  0  0  0  0  0  0
   -7.9784   -2.8125   -1.7396 H   0  0  0  0  0  0  0  0  0  0  0  0
   -7.4677   -4.5077   -2.1009 H   0  0  0  0  0  0  0  0  0  0  0  0
   -9.0790   -4.1671   -1.4584 H   0  0  0  0  0  0  0  0  0  0  0  0
   -3.6999   -2.5361   -1.5714 H   0  0  0  0  0  0  0  0  0  0  0  0
   -2.4212   -0.6342   -0.1546 H   0  0  0  0  0  0  0  0  0  0  0  0
  1  2  1  0
  2  3  1  0
  3  4  1  0
  4  5  1  0
  5  6  1  0
  6  7  1  0
  7  8  1  0
  8  9  2  0
  8 10  1  0
 10 11  1  0
 11 12  1  0
 12 13  1  0
 13 14  1  0
 14 15  1  0
 15 16  1  0
 15 17  1  0
 17 18  1  0
 10 19  2  0
 19 20  1  0
 20 21  1  0
 21 22  2  0
 22 23  1  0
 23 24  1  0
 24 25  2  0
 25 26  1  0
 26 27  2  0
 27 28  1  0
 28 29  1  0
 27 30  1  0
 30 31  2  0
 23 32  2  0
 32 33  1  0
 33  7  1  0
 18 12  1  0
 33 20  2  0
 31 24  1  0
  1 34  1  0
  1 35  1  0
  1 36  1  0
  2 37  1  0
  2 38  1  0
  3 39  1  0
  3 40  1  0
  5 41  1  0
  5 42  1  0
  6 43  1  0
  6 44  1  0
 11 45  1  0
 12 46  1  6
 13 47  1  0
 13 48  1  0
 14 49  1  0
 14 50  1  0
 15 51  1  1
 16 52  1  0
 17 53  1  0
 17 54  1  0
 18 55  1  0
 18 56  1  0
 22 57  1  0
 25 58  1  0
 26 59  1  0
 29 60  1  0
 29 61  1  0
 29 62  1  0
 31 63  1  0
 32 64  1  0
M  END
$$$$
