
     RDKit          3D

 42 44  0  0  0  0  0  0  0  0999 V2000
    4.1440    0.4238    3.3051 C   0  0  0  0  0  0  0  0  0  0  0  0
    5.0317   -0.3266    2.4917 O   0  0  0  0  0  0  0  0  0  0  0  0
    5.2240    0.2169    1.1806 C   0  0  0  0  0  0  0  0  0  0  0  0
    4.0422   -0.0381    0.2315 C   0  0  0  0  0  0  0  0  0  0  0  0
    3.0887    1.0658    0.2730 N   0  0  0  0  0  0  0  0  0  0  0  0
    1.9662    0.8719   -0.5233 C   0  0  0  0  0  0  0  0  0  0  0  0
    0.8234    1.3266   -0.0115 N   0  0  0  0  0  0  0  0  0  0  0  0
   -0.2938    1.1827   -0.7480 C   0  0  0  0  0  0  0  0  0  0  0  0
   -1.4859    1.6682   -0.1728 N   0  0  0  0  0  0  0  0  0  0  0  0
   -2.4507    0.8336    0.4118 C   0  0  0  0  0  0  0  0  0  0  0  0
   -2.0983   -0.1861    1.2902 C   0  0  0  0  0  0  0  0  0  0  0  0
   -3.0978   -0.9815    1.8467 C   0  0  0  0  0  0  0  0  0  0  0  0
   -4.4291   -0.7456    1.5129 C   0  0  0  0  0  0  0  0  0  0  0  0
   -5.5386   -1.5458    2.1155 C   0  0  0  0  0  0  0  0  0  0  0  0
   -4.6884    0.3081    0.6460 C   0  0  0  0  0  0  0  0  0  0  0  0
   -3.7351    1.0918    0.0893 N   0  0  0  0  0  0  0  0  0  0  0  0
   -0.2917    0.5585   -2.0069 C   0  0  0  0  0  0  0  0  0  0  0  0
   -1.4262    0.3547   -2.8377 C   0  0  0  0  0  0  0  0  0  0  0  0
   -1.3034   -0.2778   -4.0726 C   0  0  0  0  0  0  0  0  0  0  0  0
   -0.0546   -0.7126   -4.4923 C   0  0  0  0  0  0  0  0  0  0  0  0
    1.0593   -0.5135   -3.6723 C   0  0  0  0  0  0  0  0  0  0  0  0
    0.9618    0.1139   -2.4356 C   0  0  0  0  0  0  0  0  0  0  0  0
    2.0710    0.2638   -1.7073 N   0  0  0  0  0  0  0  0  0  0  0  0
    4.3786    1.4918    3.2712 H   0  0  0  0  0  0  0  0  0  0  0  0
    4.2541    0.0779    4.3368 H   0  0  0  0  0  0  0  0  0  0  0  0
    3.1091    0.2460    3.0032 H   0  0  0  0  0  0  0  0  0  0  0  0
    6.0977   -0.3079    0.7782 H   0  0  0  0  0  0  0  0  0  0  0  0
    5.4886    1.2792    1.2434 H   0  0  0  0  0  0  0  0  0  0  0  0
    3.5506   -0.9823    0.4958 H   0  0  0  0  0  0  0  0  0  0  0  0
    4.4468   -0.1209   -0.7847 H   0  0  0  0  0  0  0  0  0  0  0  0
    2.7160    1.2945    1.1869 H   0  0  0  0  0  0  0  0  0  0  0  0
   -1.9959    2.2575   -0.8225 H   0  0  0  0  0  0  0  0  0  0  0  0
   -1.0585   -0.3542    1.5517 H   0  0  0  0  0  0  0  0  0  0  0  0
   -2.8287   -1.7740    2.5400 H   0  0  0  0  0  0  0  0  0  0  0  0
   -5.8763   -1.0788    3.0458 H   0  0  0  0  0  0  0  0  0  0  0  0
   -6.3875   -1.6171    1.4272 H   0  0  0  0  0  0  0  0  0  0  0  0
   -5.2101   -2.5677    2.3324 H   0  0  0  0  0  0  0  0  0  0  0  0
   -5.7060    0.5655    0.3630 H   0  0  0  0  0  0  0  0  0  0  0  0
   -2.4140    0.6823   -2.5201 H   0  0  0  0  0  0  0  0  0  0  0  0
   -2.1783   -0.4305   -4.6995 H   0  0  0  0  0  0  0  0  0  0  0  0
    0.0602   -1.2076   -5.4532 H   0  0  0  0  0  0  0  0  0  0  0  0
    2.0348   -0.8583   -4.0095 H   0  0  0  0  0  0  0  0  0  0  0  0
  1  2  1  0
  2  3  1  0
  3  4  1  0
  4  5  1  0
  5  6  1  0
  6  7  2  0
  7  8  1  0
  8  9  1  0
  9 10  1  0
 10 11  2  0
 11 12  1  0
 12 13  2  0
 13 14  1  0
 13 15  1  0
 15 16  2  0
  8 17  2  0
 17 18  1  0
 18 19  2  0
 19 20  1  0
 20 21  2  0
 21 22  1  0
 22 23  2  0
 23  6  1  0
 16 10  1  0
 22 17  1  0
  1 24  1  0
  1 25  1  0
  1 26  1  0
  3 27  1  0
  3 28  1  0
  4 29  1  0
  4 30  1  0
  5 31  1  0
  9 32  1  0
 11 33  1  0
 12 34  1  0
 14 35  1  0
 14 36  1  0
 14 37  1  0
 15 38  1  0
 18 39  1  0
 19 40  1  0
 20 41  1  0
 21 42  1  0
M  END
$$$$
