
     RDKit          3D

 64 66  0  0  0  0  0  0  0  0999 V2000
   -2.3065    0.5783    5.7444 C   0  0  0  0  0  0  0  0  0  0  0  0
   -2.1632    1.9874    5.1859 C   0  0  0  0  0  0  0  0  0  0  0  0
   -1.0322    2.0968    4.1650 C   0  0  0  0  0  0  0  0  0  0  0  0
   -1.3632    1.2955    3.0279 O   0  0  0  0  0  0  0  0  0  0  0  0
   -0.4619    1.2243    1.9967 C   0  0  0  0  0  0  0  0  0  0  0  0
    0.7450    1.9331    1.9782 C   0  0  0  0  0  0  0  0  0  0  0  0
    1.6340    1.8216    0.9011 C   0  0  0  0  0  0  0  0  0  0  0  0
    1.3370    1.0008   -0.1813 C   0  0  0  0  0  0  0  0  0  0  0  0
    2.1747    0.8294   -1.3033 N   0  0  0  0  0  0  0  0  0  0  0  0
    3.4077    1.4271   -1.5372 C   0  0  0  0  0  0  0  0  0  0  0  0
    3.9750    2.2161   -0.7885 O   0  0  0  0  0  0  0  0  0  0  0  0
    4.0256    0.9764   -2.8816 C   0  0  2  0  0  0  0  0  0  0  0  0
    4.4788   -0.4883   -2.7625 C   0  0  0  0  0  0  0  0  0  0  0  0
    5.7533   -0.5537   -3.5925 C   0  0  0  0  0  0  0  0  0  0  0  0
    6.3804    0.8090   -3.3611 C   0  0  0  0  0  0  0  0  0  0  0  0
    5.2410    1.7009   -3.2667 N   0  0  0  0  0  0  0  0  0  0  0  0
    5.3375    3.0117   -3.6784 C   0  0  0  0  0  0  0  0  0  0  0  0
    4.0869    3.8521   -3.6227 C   0  0  0  0  0  0  0  0  0  0  0  0
    6.3960    3.4993   -4.0765 O   0  0  0  0  0  0  0  0  0  0  0  0
    0.1316    0.2922   -0.1707 C   0  0  0  0  0  0  0  0  0  0  0  0
   -0.7769    0.3925    0.9031 C   0  0  0  0  0  0  0  0  0  0  0  0
   -2.0376   -0.4177    0.7910 C   0  0  0  0  0  0  0  0  0  0  0  0
   -2.2283   -1.2085   -0.2181 N   0  0  0  0  0  0  0  0  0  0  0  0
   -3.3968   -1.9385   -0.2855 C   0  0  0  0  0  0  0  0  0  0  0  0
   -3.4688   -2.8159   -1.5214 C   0  0  0  0  0  0  0  0  0  0  0  0
   -2.5360   -4.0162   -1.4207 C   0  0  0  0  0  0  0  0  0  0  0  0
   -4.3749   -1.8797    0.6427 C   0  0  0  0  0  0  0  0  0  0  0  0
   -5.6875   -2.6169    0.6389 C   0  0  0  0  0  0  0  0  0  0  0  0
   -5.6156   -3.9130    1.4336 C   0  0  0  0  0  0  0  0  0  0  0  0
   -4.1436   -0.9747    1.7981 C   0  0  0  0  0  0  0  0  0  0  0  0
   -4.9503   -0.8503    2.7140 O   0  0  0  0  0  0  0  0  0  0  0  0
   -2.9705   -0.2887    1.7810 N   0  0  0  0  0  0  0  0  0  0  0  0
   -1.3805    0.2542    6.2298 H   0  0  0  0  0  0  0  0  0  0  0  0
   -2.5517   -0.1415    4.9577 H   0  0  0  0  0  0  0  0  0  0  0  0
   -3.1082    0.5480    6.4891 H   0  0  0  0  0  0  0  0  0  0  0  0
   -1.9754    2.6835    6.0109 H   0  0  0  0  0  0  0  0  0  0  0  0
   -3.1115    2.2728    4.7158 H   0  0  0  0  0  0  0  0  0  0  0  0
   -0.0955    1.7508    4.6181 H   0  0  0  0  0  0  0  0  0  0  0  0
   -0.9363    3.1459    3.8617 H   0  0  0  0  0  0  0  0  0  0  0  0
    1.0384    2.5926    2.7897 H   0  0  0  0  0  0  0  0  0  0  0  0
    2.5542    2.3969    0.9486 H   0  0  0  0  0  0  0  0  0  0  0  0
    1.8260    0.1983   -2.0154 H   0  0  0  0  0  0  0  0  0  0  0  0
    3.2887    1.0970   -3.6834 H   0  0  0  0  0  0  0  0  0  0  0  0
    3.7160   -1.1862   -3.1219 H   0  0  0  0  0  0  0  0  0  0  0  0
    4.7047   -0.7523   -1.7216 H   0  0  0  0  0  0  0  0  0  0  0  0
    6.4107   -1.3773   -3.3015 H   0  0  0  0  0  0  0  0  0  0  0  0
    5.4966   -0.6751   -4.6519 H   0  0  0  0  0  0  0  0  0  0  0  0
    7.0670    1.0960   -4.1627 H   0  0  0  0  0  0  0  0  0  0  0  0
    6.9112    0.8454   -2.4033 H   0  0  0  0  0  0  0  0  0  0  0  0
    3.8834    4.1517   -2.5927 H   0  0  0  0  0  0  0  0  0  0  0  0
    3.2300    3.3209   -4.0419 H   0  0  0  0  0  0  0  0  0  0  0  0
    4.2378    4.7555   -4.2222 H   0  0  0  0  0  0  0  0  0  0  0  0
   -0.1174   -0.3536   -1.0107 H   0  0  0  0  0  0  0  0  0  0  0  0
   -3.1945   -2.2173   -2.3995 H   0  0  0  0  0  0  0  0  0  0  0  0
   -4.4810   -3.1776   -1.7186 H   0  0  0  0  0  0  0  0  0  0  0  0
   -2.7926   -4.6458   -0.5625 H   0  0  0  0  0  0  0  0  0  0  0  0
   -2.6126   -4.6291   -2.3246 H   0  0  0  0  0  0  0  0  0  0  0  0
   -1.4915   -3.7044   -1.3154 H   0  0  0  0  0  0  0  0  0  0  0  0
   -6.0202   -2.8370   -0.3799 H   0  0  0  0  0  0  0  0  0  0  0  0
   -6.4781   -1.9799    1.0546 H   0  0  0  0  0  0  0  0  0  0  0  0
   -4.8747   -4.5982    1.0089 H   0  0  0  0  0  0  0  0  0  0  0  0
   -6.5871   -4.4174    1.4194 H   0  0  0  0  0  0  0  0  0  0  0  0
   -5.3489   -3.7274    2.4792 H   0  0  0  0  0  0  0  0  0  0  0  0
   -2.7981    0.3278    2.5644 H   0  0  0  0  0  0  0  0  0  0  0  0
  1  2  1  0
  2  3  1  0
  3  4  1  0
  4  5  1  0
  5  6  1  0
  6  7  2  0
  7  8  1  0
  8  9  1  0
  9 10  1  0
 10 11  2  0
 10 12  1  0
 12 13  1  0
 13 14  1  0
 14 15  1  0
 15 16  1  0
 16 17  1  0
 17 18  1  0
 17 19  2  0
  8 20  2  0
 20 21  1  0
 21 22  1  0
 22 23  2  0
 23 24  1  0
 24 25  1  0
 25 26  1  0
 24 27  2  0
 27 28  1  0
 28 29  1  0
 27 30  1  0
 30 31  2  0
 30 32  1  0
 21  5  2  0
 32 22  1  0
 16 12  1  0
  1 33  1  0
  1 34  1  0
  1 35  1  0
  2 36  1  0
  2 37  1  0
  3 38  1  0
  3 39  1  0
  6 40  1  0
  7 41  1  0
  9 42  1  0
 12 43  1  6
 13 44  1  0
 13 45  1  0
 14 46  1  0
 14 47  1  0
 15 48  1  0
 15 49  1  0
 18 50  1  0
 18 51  1  0
 18 52  1  0
 20 53  1  0
 25 54  1  0
 25 55  1  0
 26 56  1  0
 26 57  1  0
 26 58  1  0
 28 59  1  0
 28 60  1  0
 29 61  1  0
 29 62  1  0
 29 63  1  0
 32 64  1  0
M  END
$$$$
