
     RDKit          3D

 80 83  0  0  0  0  0  0  0  0999 V2000
   -3.3475   -5.0237   -3.9849 C   0  0  0  0  0  0  0  0  0  0  0  0
   -1.8502   -5.2673   -4.1163 C   0  0  0  0  0  0  0  0  0  0  0  0
   -1.1133   -5.0771   -2.7917 C   0  0  0  0  0  0  0  0  0  0  0  0
   -1.3049   -3.7597   -2.2709 O   0  0  0  0  0  0  0  0  0  0  0  0
   -0.4293   -2.7571   -2.5955 C   0  0  0  0  0  0  0  0  0  0  0  0
    0.5795   -2.8845   -3.5625 C   0  0  0  0  0  0  0  0  0  0  0  0
    1.4547   -1.8274   -3.8333 C   0  0  0  0  0  0  0  0  0  0  0  0
    1.3147   -0.6243   -3.1471 C   0  0  0  0  0  0  0  0  0  0  0  0
    2.4136    0.7292   -3.4882 S   0  0  0  0  0  0  0  0  0  0  0  0
    1.7214    1.9649   -3.1906 O   0  0  0  0  0  0  0  0  0  0  0  0
    2.9936    0.4992   -4.7945 O   0  0  0  0  0  0  0  0  0  0  0  0
    3.6440    0.5230   -2.3200 N   0  0  0  0  0  0  0  0  0  0  0  0
    3.1851    0.5832   -0.8906 C   0  0  0  0  0  0  0  0  0  0  0  0
    4.3117    1.0162    0.0665 C   0  0  0  0  0  0  0  0  0  0  0  0
    4.8990    2.3401   -0.2285 N   0  0  0  0  0  0  0  0  0  0  0  0
    4.2978    3.4417    0.5475 C   0  0  0  0  0  0  0  0  0  0  0  0
    4.7113    3.4569    2.0291 C   0  0  0  0  0  0  0  0  0  0  0  0
    6.1175    3.6808    2.1119 O   0  0  0  0  0  0  0  0  0  0  0  0
    6.5919    3.6594    3.4419 N   0  0  0  0  0  0  0  0  0  0  0  0
    7.8065    3.8337    3.5194 O   0  0  0  0  0  0  0  0  0  0  0  0
    5.7611    3.4862    4.3357 O   0  0  0  0  0  0  0  0  0  0  0  0
    4.8271    2.6407   -1.6791 C   0  0  0  0  0  0  0  0  0  0  0  0
    4.8510    1.3838   -2.5662 C   0  0  0  0  0  0  0  0  0  0  0  0
    0.2899   -0.4609   -2.2164 C   0  0  0  0  0  0  0  0  0  0  0  0
   -0.5723   -1.5287   -1.9122 C   0  0  0  0  0  0  0  0  0  0  0  0
   -1.5730   -1.2798   -0.8191 C   0  0  0  0  0  0  0  0  0  0  0  0
   -1.3986   -0.2646   -0.0199 N   0  0  0  0  0  0  0  0  0  0  0  0
   -2.3753   -0.1286    0.9654 C   0  0  0  0  0  0  0  0  0  0  0  0
   -2.4345    0.8794    1.9433 C   0  0  0  0  0  0  0  0  0  0  0  0
   -1.4583    2.0071    2.0858 C   0  0  0  0  0  0  0  0  0  0  0  0
   -0.2623    1.6276    2.9607 C   0  0  0  0  0  0  0  0  0  0  0  0
    0.7452    2.7628    3.0514 C   0  0  0  0  0  0  0  0  0  0  0  0
   -3.5738    0.6115    2.7139 C   0  0  0  0  0  0  0  0  0  0  0  0
   -4.0442    1.4045    3.8320 C   0  0  0  0  0  0  0  0  0  0  0  0
   -5.1885    1.2025    4.4037 N   0  0  0  0  0  0  0  0  0  0  0  0
   -5.3564    2.1310    5.4394 O   0  0  0  0  0  0  0  0  0  0  0  0
   -4.1533   -0.5497    2.1991 N   0  0  0  0  0  0  0  0  0  0  0  0
   -5.3175   -1.2465    2.7291 C   0  0  0  0  0  0  0  0  0  0  0  0
   -6.6143   -0.7768    2.0936 C   0  0  0  0  0  0  0  0  0  0  0  0
   -3.4286   -0.9820    1.1121 C   0  0  0  0  0  0  0  0  0  0  0  0
   -3.6222   -2.0904    0.2305 C   0  0  0  0  0  0  0  0  0  0  0  0
   -4.5336   -2.9094    0.2800 O   0  0  0  0  0  0  0  0  0  0  0  0
   -2.6381   -2.1605   -0.7273 N   0  0  0  0  0  0  0  0  0  0  0  0
   -3.7893   -5.6920   -3.2391 H   0  0  0  0  0  0  0  0  0  0  0  0
   -3.5587   -3.9910   -3.6901 H   0  0  0  0  0  0  0  0  0  0  0  0
   -3.8447   -5.2079   -4.9425 H   0  0  0  0  0  0  0  0  0  0  0  0
   -1.4572   -4.5803   -4.8731 H   0  0  0  0  0  0  0  0  0  0  0  0
   -1.6808   -6.2872   -4.4787 H   0  0  0  0  0  0  0  0  0  0  0  0
   -0.0536   -5.3451   -2.8655 H   0  0  0  0  0  0  0  0  0  0  0  0
   -1.5374   -5.7647   -2.0501 H   0  0  0  0  0  0  0  0  0  0  0  0
    0.7186   -3.7978   -4.1328 H   0  0  0  0  0  0  0  0  0  0  0  0
    2.2372   -1.9519   -4.5802 H   0  0  0  0  0  0  0  0  0  0  0  0
    2.3472    1.2795   -0.7782 H   0  0  0  0  0  0  0  0  0  0  0  0
    2.8443   -0.4167   -0.6009 H   0  0  0  0  0  0  0  0  0  0  0  0
    5.1233    0.2798   -0.0001 H   0  0  0  0  0  0  0  0  0  0  0  0
    3.9480    0.9533    1.0973 H   0  0  0  0  0  0  0  0  0  0  0  0
    4.6351    4.3944    0.1175 H   0  0  0  0  0  0  0  0  0  0  0  0
    3.2042    3.4158    0.4678 H   0  0  0  0  0  0  0  0  0  0  0  0
    4.4355    2.5152    2.5162 H   0  0  0  0  0  0  0  0  0  0  0  0
    4.1815    4.2822    2.5213 H   0  0  0  0  0  0  0  0  0  0  0  0
    3.9135    3.2044   -1.9104 H   0  0  0  0  0  0  0  0  0  0  0  0
    5.6778    3.2806   -1.9398 H   0  0  0  0  0  0  0  0  0  0  0  0
    5.7454    0.7817   -2.3644 H   0  0  0  0  0  0  0  0  0  0  0  0
    4.9176    1.6802   -3.6182 H   0  0  0  0  0  0  0  0  0  0  0  0
    0.1693    0.4978   -1.7137 H   0  0  0  0  0  0  0  0  0  0  0  0
   -1.1042    2.3050    1.0903 H   0  0  0  0  0  0  0  0  0  0  0  0
   -1.9600    2.8894    2.5002 H   0  0  0  0  0  0  0  0  0  0  0  0
   -0.6035    1.3647    3.9693 H   0  0  0  0  0  0  0  0  0  0  0  0
    0.2367    0.7396    2.5537 H   0  0  0  0  0  0  0  0  0  0  0  0
    1.1310    3.0240    2.0609 H   0  0  0  0  0  0  0  0  0  0  0  0
    1.5928    2.4690    3.6784 H   0  0  0  0  0  0  0  0  0  0  0  0
    0.2907    3.6565    3.4906 H   0  0  0  0  0  0  0  0  0  0  0  0
   -3.3881    2.2192    4.1873 H   0  0  0  0  0  0  0  0  0  0  0  0
   -6.2403    1.9037    5.7842 H   0  0  0  0  0  0  0  0  0  0  0  0
   -5.1770   -2.3192    2.5634 H   0  0  0  0  0  0  0  0  0  0  0  0
   -5.3348   -1.1272    3.8152 H   0  0  0  0  0  0  0  0  0  0  0  0
   -7.4637   -1.3166    2.5233 H   0  0  0  0  0  0  0  0  0  0  0  0
   -6.7747    0.2942    2.2523 H   0  0  0  0  0  0  0  0  0  0  0  0
   -6.6114   -0.9533    1.0129 H   0  0  0  0  0  0  0  0  0  0  0  0
   -2.6969   -2.9458   -1.3617 H   0  0  0  0  0  0  0  0  0  0  0  0
  1  2  1  0
  2  3  1  0
  3  4  1  0
  4  5  1  0
  5  6  1  0
  6  7  2  0
  7  8  1  0
  8  9  1  0
  9 10  2  0
  9 11  2  0
  9 12  1  0
 12 13  1  0
 13 14  1  0
 14 15  1  0
 15 16  1  0
 16 17  1  0
 17 18  1  0
 18 19  1  0
 19 20  2  0
 19 21  1  0
 15 22  1  0
 22 23  1  0
  8 24  2  0
 24 25  1  0
 25 26  1  0
 26 27  2  0
 27 28  1  0
 28 29  1  0
 29 30  1  0
 30 31  1  0
 31 32  1  0
 29 33  2  0
 33 34  1  0
 34 35  2  0
 35 36  1  0
 33 37  1  0
 37 38  1  0
 38 39  1  0
 37 40  1  0
 40 41  1  0
 41 42  2  0
 41 43  1  0
 25  5  2  0
 43 26  1  0
 23 12  1  0
 40 28  2  0
  1 44  1  0
  1 45  1  0
  1 46  1  0
  2 47  1  0
  2 48  1  0
  3 49  1  0
  3 50  1  0
  6 51  1  0
  7 52  1  0
 13 53  1  0
 13 54  1  0
 14 55  1  0
 14 56  1  0
 16 57  1  0
 16 58  1  0
 17 59  1  0
 17 60  1  0
 22 61  1  0
 22 62  1  0
 23 63  1  0
 23 64  1  0
 24 65  1  0
 30 66  1  0
 30 67  1  0
 31 68  1  0
 31 69  1  0
 32 70  1  0
 32 71  1  0
 32 72  1  0
 34 73  1  0
 36 74  1  0
 38 75  1  0
 38 76  1  0
 39 77  1  0
 39 78  1  0
 39 79  1  0
 43 80  1  0
M  CHG  2  19   1  21  -1
M  END
$$$$
