
     RDKit          3D

 73 76  0  0  0  0  0  0  0  0999 V2000
   -6.7286    0.0576   -1.3969 C   0  0  0  0  0  0  0  0  0  0  0  0
   -5.6356   -0.8557   -0.8619 C   0  0  0  0  0  0  0  0  0  0  0  0
   -5.3706   -0.6892    0.6382 C   0  0  0  0  0  0  0  0  0  0  0  0
   -4.6979    0.6122    0.9710 C   0  0  0  0  0  0  0  0  0  0  0  0
   -5.2001    1.8223    1.4524 C   0  0  0  0  0  0  0  0  0  0  0  0
   -6.5784    2.1419    1.7985 C   0  0  0  0  0  0  0  0  0  0  0  0
   -7.5246    1.2683    1.6752 N   0  0  0  0  0  0  0  0  0  0  0  0
   -8.7379    1.8420    2.0777 O   0  0  0  0  0  0  0  0  0  0  0  0
   -4.0834    2.7275    1.5423 C   0  0  0  0  0  0  0  0  0  0  0  0
   -4.1027    4.1519    1.9835 C   0  0  0  0  0  0  0  0  0  0  0  0
   -2.9610    2.0169    1.1522 C   0  0  0  0  0  0  0  0  0  0  0  0
   -1.5834    2.3861    1.0565 C   0  0  0  0  0  0  0  0  0  0  0  0
   -1.1139    3.4904    1.3153 O   0  0  0  0  0  0  0  0  0  0  0  0
   -0.7727    1.3662    0.6347 N   0  0  0  0  0  0  0  0  0  0  0  0
   -1.2455    0.1101    0.3261 C   0  0  0  0  0  0  0  0  0  0  0  0
   -0.2089   -0.8588   -0.1030 C   0  0  0  0  0  0  0  0  0  0  0  0
    0.8849   -1.0834    0.7446 C   0  0  0  0  0  0  0  0  0  0  0  0
    1.8720   -1.9943    0.3602 C   0  0  0  0  0  0  0  0  0  0  0  0
    3.2407   -2.3264    1.4534 S   0  0  0  0  0  0  0  0  0  0  0  0
    3.6994   -3.6691    1.1696 O   0  0  0  0  0  0  0  0  0  0  0  0
    2.8244   -1.9402    2.7844 O   0  0  0  0  0  0  0  0  0  0  0  0
    4.4304   -1.2291    0.9267 N   0  0  0  0  0  0  0  0  0  0  0  0
    4.1791    0.2071    1.1799 C   0  0  0  0  0  0  0  0  0  0  0  0
    5.5013    0.9674    1.1189 C   0  0  0  0  0  0  0  0  0  0  0  0
    6.2209    0.7538   -0.2249 C   0  0  0  0  0  0  0  0  0  0  0  0
    7.5722    1.4957   -0.2137 C   0  0  0  0  0  0  0  0  0  0  0  0
    8.3588    1.4304   -1.5196 C   0  0  0  0  0  0  0  0  0  0  0  0
    7.5977    1.9580   -2.5955 O   0  0  0  0  0  0  0  0  0  0  0  0
    6.3778   -0.7516   -0.4919 C   0  0  0  0  0  0  0  0  0  0  0  0
    5.0391   -1.4838   -0.3974 C   0  0  0  0  0  0  0  0  0  0  0  0
    1.7606   -2.6995   -0.8409 C   0  0  0  0  0  0  0  0  0  0  0  0
    0.6681   -2.4701   -1.6819 C   0  0  0  0  0  0  0  0  0  0  0  0
   -0.3307   -1.5618   -1.3131 C   0  0  0  0  0  0  0  0  0  0  0  0
   -1.3918   -1.2647   -2.1236 O   0  0  0  0  0  0  0  0  0  0  0  0
   -2.0345   -2.3616   -2.7807 C   0  0  0  0  0  0  0  0  0  0  0  0
   -2.6914   -3.3288   -1.8074 C   0  0  0  0  0  0  0  0  0  0  0  0
   -2.4911   -0.2348    0.4093 N   0  0  0  0  0  0  0  0  0  0  0  0
   -3.3354    0.7463    0.8207 N   0  0  0  0  0  0  0  0  0  0  0  0
   -6.4535    1.1122   -1.3036 H   0  0  0  0  0  0  0  0  0  0  0  0
   -6.9012   -0.1476   -2.4584 H   0  0  0  0  0  0  0  0  0  0  0  0
   -7.6718   -0.1063   -0.8668 H   0  0  0  0  0  0  0  0  0  0  0  0
   -5.9371   -1.8940   -1.0465 H   0  0  0  0  0  0  0  0  0  0  0  0
   -4.7177   -0.6863   -1.4368 H   0  0  0  0  0  0  0  0  0  0  0  0
   -4.7300   -1.5165    0.9712 H   0  0  0  0  0  0  0  0  0  0  0  0
   -6.3006   -0.8126    1.2004 H   0  0  0  0  0  0  0  0  0  0  0  0
   -6.7913    3.1562    2.1757 H   0  0  0  0  0  0  0  0  0  0  0  0
   -9.3665    1.1071    1.9484 H   0  0  0  0  0  0  0  0  0  0  0  0
   -5.0994    4.5923    1.8942 H   0  0  0  0  0  0  0  0  0  0  0  0
   -3.4309    4.7618    1.3714 H   0  0  0  0  0  0  0  0  0  0  0  0
   -3.7858    4.2267    3.0285 H   0  0  0  0  0  0  0  0  0  0  0  0
    0.1991    1.6116    0.5272 H   0  0  0  0  0  0  0  0  0  0  0  0
    0.9497   -0.5788    1.7066 H   0  0  0  0  0  0  0  0  0  0  0  0
    3.4801    0.6040    0.4353 H   0  0  0  0  0  0  0  0  0  0  0  0
    3.7429    0.3553    2.1726 H   0  0  0  0  0  0  0  0  0  0  0  0
    5.3108    2.0357    1.2758 H   0  0  0  0  0  0  0  0  0  0  0  0
    6.1481    0.6326    1.9406 H   0  0  0  0  0  0  0  0  0  0  0  0
    5.5901    1.1822   -1.0151 H   0  0  0  0  0  0  0  0  0  0  0  0
    7.3749    2.5522    0.0105 H   0  0  0  0  0  0  0  0  0  0  0  0
    8.2026    1.1100    0.5969 H   0  0  0  0  0  0  0  0  0  0  0  0
    9.2667    2.0353   -1.4284 H   0  0  0  0  0  0  0  0  0  0  0  0
    8.6697    0.4103   -1.7646 H   0  0  0  0  0  0  0  0  0  0  0  0
    6.9836    1.2664   -2.8919 H   0  0  0  0  0  0  0  0  0  0  0  0
    6.7987   -0.9222   -1.4887 H   0  0  0  0  0  0  0  0  0  0  0  0
    7.0796   -1.1828    0.2338 H   0  0  0  0  0  0  0  0  0  0  0  0
    4.3675   -1.1414   -1.1925 H   0  0  0  0  0  0  0  0  0  0  0  0
    5.2229   -2.5532   -0.5405 H   0  0  0  0  0  0  0  0  0  0  0  0
    2.5147   -3.4302   -1.1283 H   0  0  0  0  0  0  0  0  0  0  0  0
    0.6223   -3.0050   -2.6258 H   0  0  0  0  0  0  0  0  0  0  0  0
   -1.3538   -2.8748   -3.4676 H   0  0  0  0  0  0  0  0  0  0  0  0
   -2.8186   -1.9205   -3.4067 H   0  0  0  0  0  0  0  0  0  0  0  0
   -3.3324   -2.7951   -1.1001 H   0  0  0  0  0  0  0  0  0  0  0  0
   -3.2954   -4.0643   -2.3466 H   0  0  0  0  0  0  0  0  0  0  0  0
   -1.9453   -3.8697   -1.2172 H   0  0  0  0  0  0  0  0  0  0  0  0
  1  2  1  0
  2  3  1  0
  3  4  1  0
  4  5  2  0
  5  6  1  0
  6  7  2  0
  7  8  1  0
  5  9  1  0
  9 10  1  0
  9 11  2  0
 11 12  1  0
 12 13  2  0
 12 14  1  0
 14 15  1  0
 15 16  1  0
 16 17  1  0
 17 18  2  0
 18 19  1  0
 19 20  2  0
 19 21  2  0
 19 22  1  0
 22 23  1  0
 23 24  1  0
 24 25  1  0
 25 26  1  0
 26 27  1  0
 27 28  1  0
 25 29  1  0
 29 30  1  0
 18 31  1  0
 31 32  2  0
 32 33  1  0
 33 34  1  0
 34 35  1  0
 35 36  1  0
 15 37  2  0
 37 38  1  0
 38  4  1  0
 38 11  1  0
 33 16  2  0
 30 22  1  0
  1 39  1  0
  1 40  1  0
  1 41  1  0
  2 42  1  0
  2 43  1  0
  3 44  1  0
  3 45  1  0
  6 46  1  0
  8 47  1  0
 10 48  1  0
 10 49  1  0
 10 50  1  0
 14 51  1  0
 17 52  1  0
 23 53  1  0
 23 54  1  0
 24 55  1  0
 24 56  1  0
 25 57  1  0
 26 58  1  0
 26 59  1  0
 27 60  1  0
 27 61  1  0
 28 62  1  0
 29 63  1  0
 29 64  1  0
 30 65  1  0
 30 66  1  0
 31 67  1  0
 32 68  1  0
 35 69  1  0
 35 70  1  0
 36 71  1  0
 36 72  1  0
 36 73  1  0
M  END
$$$$
