


 35 39  0  0  0  0  0  0  0  0999 V2000
    0.5087   65.1187   82.1880 C   0  0  0  0  0  0  0  0  0  0  0  0
    1.2108   66.2731   82.1318 N   0  0  0  0  0  0  0  0  0  0  0  0
    1.3898   66.5002   80.8111 N   0  0  0  0  0  0  0  0  0  0  0  0
    0.7992   65.5655   80.0089 C   0  0  0  0  0  0  0  0  0  0  0  0
    0.7886   65.5511   78.6587 N   0  0  0  0  0  0  0  0  0  0  0  0
    0.1328   64.4812   78.1491 C   0  0  0  0  0  0  0  0  0  0  0  0
   -0.4797   63.4873   78.8955 C   0  0  0  0  0  0  0  0  0  0  0  0
   -1.1030   62.4712   78.2851 F   0  0  0  0  0  0  0  0  0  0  0  0
   -0.4483   63.5465   80.2842 C   0  0  0  0  0  0  0  0  0  0  0  0
    0.2215   64.6379   80.8683 C   0  0  0  0  0  0  0  0  0  0  0  0
   -2.1033   63.3039   87.8481 C   0  0  0  0  0  0  0  0  0  0  0  0
   -0.7750   62.8883   87.2163 C   0  0  0  0  0  0  0  0  0  0  0  0
   -0.5016   61.3963   87.4064 C   0  0  0  0  0  0  0  0  0  0  0  0
    0.3665   63.6879   87.8916 C   0  0  0  0  0  0  0  0  0  0  0  0
    0.6728   63.6766   89.0718 O   0  0  0  0  0  0  0  0  0  0  0  0
    0.9896   64.4287   86.9072 N   0  0  0  0  0  0  0  0  0  0  0  0
    0.4078   64.2283   85.6719 C   0  0  0  0  0  0  0  0  0  0  0  0
    0.8258   64.8318   84.5653 N   0  0  0  0  0  0  0  0  0  0  0  0
    0.1200   64.4997   83.4708 C   0  0  0  0  0  0  0  0  0  0  0  0
   -0.9271   63.6373   83.4587 N   0  0  0  0  0  0  0  0  0  0  0  0
   -1.3079   63.0500   84.6221 C   0  0  0  0  0  0  0  0  0  0  0  0
   -0.6387   63.3338   85.7829 C   0  0  0  0  0  0  0  0  0  0  0  0
    1.7711   65.0440   87.0677 H   0  0  0  0  0  0  0  0  0  0  0  0
   -2.4851   62.1012   84.5566 C   0  0  0  0  0  0  0  0  0  0  0  0
   -2.3324   61.0594   83.5322 N   0  0  0  0  0  0  0  0  0  0  0  0
   -1.4491   60.5790   83.7236 H   0  0  0  0  0  0  0  0  0  0  0  0
   -2.1279   61.5385   82.6509 H   0  0  0  0  0  0  0  0  0  0  0  0
    2.1234   67.6758   80.3670 C   0  0  0  0  0  0  0  0  0  0  0  0
    1.5450   68.9415   80.9402 C   0  0  0  0  0  0  0  0  0  0  0  0
    0.2686   69.3920   80.5674 C   0  0  0  0  0  0  0  0  0  0  0  0
   -0.2559   70.5667   81.1123 C   0  0  0  0  0  0  0  0  0  0  0  0
    0.4873   71.3057   82.0323 C   0  0  0  0  0  0  0  0  0  0  0  0
    1.7568   70.8701   82.4066 C   0  0  0  0  0  0  0  0  0  0  0  0
    2.2737   69.6983   81.8604 C   0  0  0  0  0  0  0  0  0  0  0  0
    3.5027   69.3077   82.2255 F   0  0  0  0  0  0  0  0  0  0  0  0
 11 12  1  0  0  0
 12 13  1  0  0  0
 12 14  1  0  0  0
 14 15  2  0  0  0
 14 16  1  0  0  0
 16 17  1  0  0  0
 17 18  1  0  0  0
 18 19  2  0  0  0
 19  1  1  0  0  0
  1  2  2  0  0  0
  2  3  1  0  0  0
  3 28  1  0  0  0
 28 29  1  0  0  0
 29 30  2  0  0  0
 30 31  1  0  0  0
 31 32  2  0  0  0
 32 33  1  0  0  0
 33 34  2  0  0  0
 34 35  1  0  0  0
  3  4  1  0  0  0
  4  5  1  0  0  0
  5  6  2  0  0  0
  6  7  1  0  0  0
  7  8  1  0  0  0
  7  9  2  0  0  0
  9 10  1  0  0  0
 19 20  1  0  0  0
 20 21  2  0  0  0
 21 24  1  0  0  0
 24 25  1  0  0  0
 21 22  1  0  0  0
 22 12  1  0  0  0
 22 17  2  0  0  0
 10  1  1  0  0  0
 34 29  1  0  0  0
 10  4  2  0  0  0
 16 23  1  0  0  0
 25 26  1  0  0  0
 25 27  1  0  0  0
M  END
> <minimizedAffinity>
-11.42679

$$$$



 35 39  0  0  0  0  0  0  0  0999 V2000
    0.3079   64.2691   82.7858 C   0  0  0  0  0  0  0  0  0  0  0  0
    0.9776   65.4438   82.8052 N   0  0  0  0  0  0  0  0  0  0  0  0
    1.1349   65.7257   84.1181 N   0  0  0  0  0  0  0  0  0  0  0  0
    0.6328   64.7650   84.9493 C   0  0  0  0  0  0  0  0  0  0  0  0
    0.6722   64.7643   86.2991 N   0  0  0  0  0  0  0  0  0  0  0  0
    0.0735   63.6776   86.8424 C   0  0  0  0  0  0  0  0  0  0  0  0
   -0.5234   62.6512   86.1280 C   0  0  0  0  0  0  0  0  0  0  0  0
   -1.0874   61.6202   86.7702 F   0  0  0  0  0  0  0  0  0  0  0  0
   -0.5351   62.6914   84.7383 C   0  0  0  0  0  0  0  0  0  0  0  0
    0.0730   63.7999   84.1199 C   0  0  0  0  0  0  0  0  0  0  0  0
   -2.4872   62.1132   77.3367 C   0  0  0  0  0  0  0  0  0  0  0  0
   -1.2916   61.5468   78.1021 C   0  0  0  0  0  0  0  0  0  0  0  0
   -0.1853   61.0799   77.1560 C   0  0  0  0  0  0  0  0  0  0  0  0
   -1.7683   60.3338   78.9385 C   0  0  0  0  0  0  0  0  0  0  0  0
   -2.2678   59.3033   78.5196 O   0  0  0  0  0  0  0  0  0  0  0  0
   -1.5243   60.6263   80.2656 N   0  0  0  0  0  0  0  0  0  0  0  0
   -0.9541   61.8740   80.4170 C   0  0  0  0  0  0  0  0  0  0  0  0
   -0.6286   62.3856   81.5984 N   0  0  0  0  0  0  0  0  0  0  0  0
   -0.0888   63.6142   81.5234 C   0  0  0  0  0  0  0  0  0  0  0  0
    0.1165   64.2990   80.3706 N   0  0  0  0  0  0  0  0  0  0  0  0
   -0.2360   63.7231   79.1926 C   0  0  0  0  0  0  0  0  0  0  0  0
   -0.7911   62.4711   79.1823 C   0  0  0  0  0  0  0  0  0  0  0  0
   -1.7383   60.0089   81.0324 H   0  0  0  0  0  0  0  0  0  0  0  0
    0.0075   64.5306   77.9360 C   0  0  0  0  0  0  0  0  0  0  0  0
    1.0844   65.5190   78.0829 N   0  0  0  0  0  0  0  0  0  0  0  0
    1.9170   65.0105   78.3922 H   0  0  0  0  0  0  0  0  0  0  0  0
    0.8593   66.0816   78.9082 H   0  0  0  0  0  0  0  0  0  0  0  0
    1.8214   66.9427   84.5247 C   0  0  0  0  0  0  0  0  0  0  0  0
    3.3099   66.7384   84.6128 C   0  0  0  0  0  0  0  0  0  0  0  0
    3.8518   65.5444   85.1143 C   0  0  0  0  0  0  0  0  0  0  0  0
    5.2361   65.3687   85.1853 C   0  0  0  0  0  0  0  0  0  0  0  0
    6.0942   66.3822   84.7594 C   0  0  0  0  0  0  0  0  0  0  0  0
    5.5673   67.5730   84.2635 C   0  0  0  0  0  0  0  0  0  0  0  0
    4.1870   67.7418   84.1949 C   0  0  0  0  0  0  0  0  0  0  0  0
    3.7046   68.9015   83.7273 F   0  0  0  0  0  0  0  0  0  0  0  0
 11 12  1  0  0  0
 12 13  1  0  0  0
 12 14  1  0  0  0
 14 15  2  0  0  0
 14 16  1  0  0  0
 16 17  1  0  0  0
 17 18  1  0  0  0
 18 19  2  0  0  0
 19  1  1  0  0  0
  1  2  2  0  0  0
  2  3  1  0  0  0
  3 28  1  0  0  0
 28 29  1  0  0  0
 29 30  2  0  0  0
 30 31  1  0  0  0
 31 32  2  0  0  0
 32 33  1  0  0  0
 33 34  2  0  0  0
 34 35  1  0  0  0
  3  4  1  0  0  0
  4  5  1  0  0  0
  5  6  2  0  0  0
  6  7  1  0  0  0
  7  8  1  0  0  0
  7  9  2  0  0  0
  9 10  1  0  0  0
 19 20  1  0  0  0
 20 21  2  0  0  0
 21 24  1  0  0  0
 24 25  1  0  0  0
 21 22  1  0  0  0
 22 12  1  0  0  0
 22 17  2  0  0  0
 10  1  1  0  0  0
 34 29  1  0  0  0
 10  4  2  0  0  0
 16 23  1  0  0  0
 25 26  1  0  0  0
 25 27  1  0  0  0
M  END
> <minimizedAffinity>
-11.25798

$$$$



 35 39  0  0  0  0  0  0  0  0999 V2000
    0.7114   65.3949   82.1602 C   0  0  0  0  0  0  0  0  0  0  0  0
    0.6859   64.8125   80.9400 N   0  0  0  0  0  0  0  0  0  0  0  0
    1.1994   65.7443   80.1059 N   0  0  0  0  0  0  0  0  0  0  0  0
    1.5942   66.8888   80.7385 C   0  0  0  0  0  0  0  0  0  0  0  0
    2.1643   67.9715   80.1673 N   0  0  0  0  0  0  0  0  0  0  0  0
    2.4283   68.9581   81.0570 C   0  0  0  0  0  0  0  0  0  0  0  0
    2.1630   68.9030   82.4159 C   0  0  0  0  0  0  0  0  0  0  0  0
    2.4672   69.9406   83.2062 F   0  0  0  0  0  0  0  0  0  0  0  0
    1.5799   67.7648   82.9613 C   0  0  0  0  0  0  0  0  0  0  0  0
    1.2829   66.7073   82.0812 C   0  0  0  0  0  0  0  0  0  0  0  0
   -2.4695   63.2138   87.3830 C   0  0  0  0  0  0  0  0  0  0  0  0
   -1.0413   62.9191   86.9251 C   0  0  0  0  0  0  0  0  0  0  0  0
   -0.6789   61.4466   87.1187 C   0  0  0  0  0  0  0  0  0  0  0  0
   -0.0646   63.7807   87.7630 C   0  0  0  0  0  0  0  0  0  0  0  0
    0.0842   63.7557   88.9729 O   0  0  0  0  0  0  0  0  0  0  0  0
    0.6220   64.5965   86.8860 N   0  0  0  0  0  0  0  0  0  0  0  0
    0.2248   64.3915   85.5803 C   0  0  0  0  0  0  0  0  0  0  0  0
    0.7356   65.0589   84.5520 N   0  0  0  0  0  0  0  0  0  0  0  0
    0.2077   64.7088   83.3666 C   0  0  0  0  0  0  0  0  0  0  0  0
   -0.7577   63.7710   83.1972 N   0  0  0  0  0  0  0  0  0  0  0  0
   -1.2405   63.1208   84.2870 C   0  0  0  0  0  0  0  0  0  0  0  0
   -0.7536   63.4179   85.5322 C   0  0  0  0  0  0  0  0  0  0  0  0
    1.3249   65.2634   87.1620 H   0  0  0  0  0  0  0  0  0  0  0  0
   -2.3207   62.0888   84.0455 C   0  0  0  0  0  0  0  0  0  0  0  0
   -1.8831   60.9844   83.1813 N   0  0  0  0  0  0  0  0  0  0  0  0
   -1.0441   60.5840   83.6094 H   0  0  0  0  0  0  0  0  0  0  0  0
   -1.5062   61.4073   82.3285 H   0  0  0  0  0  0  0  0  0  0  0  0
    1.3215   65.4609   78.6838 C   0  0  0  0  0  0  0  0  0  0  0  0
    0.4627   64.2951   78.2735 C   0  0  0  0  0  0  0  0  0  0  0  0
    0.8940   62.9723   78.4609 C   0  0  0  0  0  0  0  0  0  0  0  0
    0.0826   61.9009   78.0787 C   0  0  0  0  0  0  0  0  0  0  0  0
   -1.1657   62.1372   77.5037 C   0  0  0  0  0  0  0  0  0  0  0  0
   -1.6024   63.4460   77.3094 C   0  0  0  0  0  0  0  0  0  0  0  0
   -0.7894   64.5093   77.6928 C   0  0  0  0  0  0  0  0  0  0  0  0
   -1.2256   65.7591   77.4827 F   0  0  0  0  0  0  0  0  0  0  0  0
 11 12  1  0  0  0
 12 13  1  0  0  0
 12 14  1  0  0  0
 14 15  2  0  0  0
 14 16  1  0  0  0
 16 17  1  0  0  0
 17 18  1  0  0  0
 18 19  2  0  0  0
 19  1  1  0  0  0
  1  2  2  0  0  0
  2  3  1  0  0  0
  3 28  1  0  0  0
 28 29  1  0  0  0
 29 30  2  0  0  0
 30 31  1  0  0  0
 31 32  2  0  0  0
 32 33  1  0  0  0
 33 34  2  0  0  0
 34 35  1  0  0  0
  3  4  1  0  0  0
  4  5  1  0  0  0
  5  6  2  0  0  0
  6  7  1  0  0  0
  7  8  1  0  0  0
  7  9  2  0  0  0
  9 10  1  0  0  0
 19 20  1  0  0  0
 20 21  2  0  0  0
 21 24  1  0  0  0
 24 25  1  0  0  0
 21 22  1  0  0  0
 22 12  1  0  0  0
 22 17  2  0  0  0
 10  1  1  0  0  0
 34 29  1  0  0  0
 10  4  2  0  0  0
 16 23  1  0  0  0
 25 26  1  0  0  0
 25 27  1  0  0  0
M  END
> <minimizedAffinity>
-11.17638

$$$$



 35 39  0  0  0  0  0  0  0  0999 V2000
   -0.0134   63.4180   83.1989 C   0  0  0  0  0  0  0  0  0  0  0  0
    1.0631   64.2244   83.0590 N   0  0  0  0  0  0  0  0  0  0  0  0
    1.2841   64.7174   84.2983 N   0  0  0  0  0  0  0  0  0  0  0  0
    0.4233   64.2339   85.2424 C   0  0  0  0  0  0  0  0  0  0  0  0
    0.4239   64.5261   86.5608 N   0  0  0  0  0  0  0  0  0  0  0  0
   -0.5676   63.9002   87.2388 C   0  0  0  0  0  0  0  0  0  0  0  0
   -1.5007   63.0411   86.6810 C   0  0  0  0  0  0  0  0  0  0  0  0
   -2.4410   62.4747   87.4481 F   0  0  0  0  0  0  0  0  0  0  0  0
   -1.4593   62.7647   85.3190 C   0  0  0  0  0  0  0  0  0  0  0  0
   -0.4486   63.3895   84.5645 C   0  0  0  0  0  0  0  0  0  0  0  0
   -3.5172   61.1180   78.2404 C   0  0  0  0  0  0  0  0  0  0  0  0
   -2.3692   60.4583   79.0040 C   0  0  0  0  0  0  0  0  0  0  0  0
   -1.4244   59.7078   78.0653 C   0  0  0  0  0  0  0  0  0  0  0  0
   -2.9634   59.4475   80.0158 C   0  0  0  0  0  0  0  0  0  0  0  0
   -3.6473   58.4704   79.7623 O   0  0  0  0  0  0  0  0  0  0  0  0
   -2.5763   59.8515   81.2780 N   0  0  0  0  0  0  0  0  0  0  0  0
   -1.8092   60.9980   81.2345 C   0  0  0  0  0  0  0  0  0  0  0  0
   -1.3190   61.5859   82.3196 N   0  0  0  0  0  0  0  0  0  0  0  0
   -0.6022   62.6918   82.0562 C   0  0  0  0  0  0  0  0  0  0  0  0
   -0.3816   63.1922   80.8147 N   0  0  0  0  0  0  0  0  0  0  0  0
   -0.9082   62.5463   79.7428 C   0  0  0  0  0  0  0  0  0  0  0  0
   -1.6502   61.4097   79.9258 C   0  0  0  0  0  0  0  0  0  0  0  0
   -2.8243   59.3726   82.1290 H   0  0  0  0  0  0  0  0  0  0  0  0
   -0.6389   63.1482   78.3807 C   0  0  0  0  0  0  0  0  0  0  0  0
    0.6115   62.6717   77.7744 N   0  0  0  0  0  0  0  0  0  0  0  0
    0.5619   61.6497   77.7509 H   0  0  0  0  0  0  0  0  0  0  0  0
    1.3537   62.8334   78.4608 H   0  0  0  0  0  0  0  0  0  0  0  0
    2.3825   65.6437   84.5287 C   0  0  0  0  0  0  0  0  0  0  0  0
    2.1960   66.9278   83.7662 C   0  0  0  0  0  0  0  0  0  0  0  0
    1.3372   66.9976   82.6579 C   0  0  0  0  0  0  0  0  0  0  0  0
    1.1715   68.1986   81.9635 C   0  0  0  0  0  0  0  0  0  0  0  0
    1.8620   69.3417   82.3653 C   0  0  0  0  0  0  0  0  0  0  0  0
    2.7200   69.2831   83.4617 C   0  0  0  0  0  0  0  0  0  0  0  0
    2.8803   68.0833   84.1497 C   0  0  0  0  0  0  0  0  0  0  0  0
    3.7220   68.0489   85.1923 F   0  0  0  0  0  0  0  0  0  0  0  0
 11 12  1  0  0  0
 12 13  1  0  0  0
 12 14  1  0  0  0
 14 15  2  0  0  0
 14 16  1  0  0  0
 16 17  1  0  0  0
 17 18  1  0  0  0
 18 19  2  0  0  0
 19  1  1  0  0  0
  1  2  2  0  0  0
  2  3  1  0  0  0
  3 28  1  0  0  0
 28 29  1  0  0  0
 29 30  2  0  0  0
 30 31  1  0  0  0
 31 32  2  0  0  0
 32 33  1  0  0  0
 33 34  2  0  0  0
 34 35  1  0  0  0
  3  4  1  0  0  0
  4  5  1  0  0  0
  5  6  2  0  0  0
  6  7  1  0  0  0
  7  8  1  0  0  0
  7  9  2  0  0  0
  9 10  1  0  0  0
 19 20  1  0  0  0
 20 21  2  0  0  0
 21 24  1  0  0  0
 24 25  1  0  0  0
 21 22  1  0  0  0
 22 12  1  0  0  0
 22 17  2  0  0  0
 10  1  1  0  0  0
 34 29  1  0  0  0
 10  4  2  0  0  0
 16 23  1  0  0  0
 25 26  1  0  0  0
 25 27  1  0  0  0
M  END
> <minimizedAffinity>
-11.02177

$$$$



 35 39  0  0  0  0  0  0  0  0999 V2000
    0.5948   65.1914   81.9749 C   0  0  0  0  0  0  0  0  0  0  0  0
    0.6289   64.5147   80.8045 N   0  0  0  0  0  0  0  0  0  0  0  0
    1.0872   65.4128   79.9038 N   0  0  0  0  0  0  0  0  0  0  0  0
    1.3902   66.6289   80.4473 C   0  0  0  0  0  0  0  0  0  0  0  0
    1.8903   67.7017   79.7973 N   0  0  0  0  0  0  0  0  0  0  0  0
    2.0702   68.7714   80.6083 C   0  0  0  0  0  0  0  0  0  0  0  0
    1.7893   68.8042   81.9648 C   0  0  0  0  0  0  0  0  0  0  0  0
    2.0073   69.9197   82.6731 F   0  0  0  0  0  0  0  0  0  0  0  0
    1.2806   67.6732   82.5934 C   0  0  0  0  0  0  0  0  0  0  0  0
    1.0727   66.5313   81.7972 C   0  0  0  0  0  0  0  0  0  0  0  0
   -2.4356   63.2937   87.3941 C   0  0  0  0  0  0  0  0  0  0  0  0
   -1.0278   62.9576   86.9027 C   0  0  0  0  0  0  0  0  0  0  0  0
   -0.6787   61.4901   87.1505 C   0  0  0  0  0  0  0  0  0  0  0  0
   -0.0118   63.8413   87.6677 C   0  0  0  0  0  0  0  0  0  0  0  0
    0.1777   63.8683   88.8719 O   0  0  0  0  0  0  0  0  0  0  0  0
    0.6554   64.6068   86.7322 N   0  0  0  0  0  0  0  0  0  0  0  0
    0.2114   64.3494   85.4511 C   0  0  0  0  0  0  0  0  0  0  0  0
    0.6957   64.9624   84.3773 N   0  0  0  0  0  0  0  0  0  0  0  0
    0.1233   64.5676   83.2272 C   0  0  0  0  0  0  0  0  0  0  0  0
   -0.8598   63.6376   83.1327 N   0  0  0  0  0  0  0  0  0  0  0  0
   -1.3139   63.0441   84.2663 C   0  0  0  0  0  0  0  0  0  0  0  0
   -0.7810   63.3893   85.4798 C   0  0  0  0  0  0  0  0  0  0  0  0
    1.3761   65.2749   86.9541 H   0  0  0  0  0  0  0  0  0  0  0  0
   -2.4154   62.0184   84.1079 C   0  0  0  0  0  0  0  0  0  0  0  0
   -2.0983   60.9763   83.1221 N   0  0  0  0  0  0  0  0  0  0  0  0
   -1.2080   60.5581   83.4049 H   0  0  0  0  0  0  0  0  0  0  0  0
   -1.8423   61.4569   82.2552 H   0  0  0  0  0  0  0  0  0  0  0  0
    1.2502   65.0282   78.5099 C   0  0  0  0  0  0  0  0  0  0  0  0
    0.1804   64.0653   78.0700 C   0  0  0  0  0  0  0  0  0  0  0  0
   -0.9773   64.5140   77.4147 C   0  0  0  0  0  0  0  0  0  0  0  0
   -1.9590   63.6066   77.0086 C   0  0  0  0  0  0  0  0  0  0  0  0
   -1.7981   62.2432   77.2538 C   0  0  0  0  0  0  0  0  0  0  0  0
   -0.6549   61.7871   77.9069 C   0  0  0  0  0  0  0  0  0  0  0  0
    0.3201   62.6963   78.3086 C   0  0  0  0  0  0  0  0  0  0  0  0
    1.4040   62.2346   78.9475 F   0  0  0  0  0  0  0  0  0  0  0  0
 11 12  1  0  0  0
 12 13  1  0  0  0
 12 14  1  0  0  0
 14 15  2  0  0  0
 14 16  1  0  0  0
 16 17  1  0  0  0
 17 18  1  0  0  0
 18 19  2  0  0  0
 19  1  1  0  0  0
  1  2  2  0  0  0
  2  3  1  0  0  0
  3 28  1  0  0  0
 28 29  1  0  0  0
 29 30  2  0  0  0
 30 31  1  0  0  0
 31 32  2  0  0  0
 32 33  1  0  0  0
 33 34  2  0  0  0
 34 35  1  0  0  0
  3  4  1  0  0  0
  4  5  1  0  0  0
  5  6  2  0  0  0
  6  7  1  0  0  0
  7  8  1  0  0  0
  7  9  2  0  0  0
  9 10  1  0  0  0
 19 20  1  0  0  0
 20 21  2  0  0  0
 21 24  1  0  0  0
 24 25  1  0  0  0
 21 22  1  0  0  0
 22 12  1  0  0  0
 22 17  2  0  0  0
 10  1  1  0  0  0
 34 29  1  0  0  0
 10  4  2  0  0  0
 16 23  1  0  0  0
 25 26  1  0  0  0
 25 27  1  0  0  0
M  END
> <minimizedAffinity>
-10.98838

$$$$



 35 39  0  0  0  0  0  0  0  0999 V2000
   -0.0068   64.0977   83.0073 C   0  0  0  0  0  0  0  0  0  0  0  0
    0.6297   65.2890   82.9404 N   0  0  0  0  0  0  0  0  0  0  0  0
    0.8867   65.6118   84.2279 N   0  0  0  0  0  0  0  0  0  0  0  0
    0.4812   64.6627   85.1227 C   0  0  0  0  0  0  0  0  0  0  0  0
    0.6315   64.7011   86.4641 N   0  0  0  0  0  0  0  0  0  0  0  0
    0.1096   63.6155   87.0834 C   0  0  0  0  0  0  0  0  0  0  0  0
   -0.5155   62.5545   86.4480 C   0  0  0  0  0  0  0  0  0  0  0  0
   -0.9962   61.5282   87.1615 F   0  0  0  0  0  0  0  0  0  0  0  0
   -0.6426   62.5551   85.0635 C   0  0  0  0  0  0  0  0  0  0  0  0
   -0.1181   63.6607   84.3681 C   0  0  0  0  0  0  0  0  0  0  0  0
   -1.8287   59.9572   78.3500 C   0  0  0  0  0  0  0  0  0  0  0  0
   -1.6041   61.4670   78.2708 C   0  0  0  0  0  0  0  0  0  0  0  0
   -2.6731   62.1530   77.4200 C   0  0  0  0  0  0  0  0  0  0  0  0
   -0.2200   61.7290   77.6274 C   0  0  0  0  0  0  0  0  0  0  0  0
    0.1476   61.3946   76.5140 O   0  0  0  0  0  0  0  0  0  0  0  0
    0.5394   62.4207   78.5500 N   0  0  0  0  0  0  0  0  0  0  0  0
   -0.1580   62.6461   79.7194 C   0  0  0  0  0  0  0  0  0  0  0  0
    0.3578   63.2887   80.7608 N   0  0  0  0  0  0  0  0  0  0  0  0
   -0.4878   63.3975   81.7997 C   0  0  0  0  0  0  0  0  0  0  0  0
   -1.7527   62.9080   81.8212 N   0  0  0  0  0  0  0  0  0  0  0  0
   -2.2253   62.2605   80.7253 C   0  0  0  0  0  0  0  0  0  0  0  0
   -1.4267   62.1088   79.6230 C   0  0  0  0  0  0  0  0  0  0  0  0
    1.4878   62.7224   78.3936 H   0  0  0  0  0  0  0  0  0  0  0  0
   -3.6397   61.7277   80.8019 C   0  0  0  0  0  0  0  0  0  0  0  0
   -3.7270   60.4074   81.4402 N   0  0  0  0  0  0  0  0  0  0  0  0
   -3.2867   60.4904   82.3604 H   0  0  0  0  0  0  0  0  0  0  0  0
   -3.0725   59.7954   80.9451 H   0  0  0  0  0  0  0  0  0  0  0  0
    1.5705   66.8568   84.5442 C   0  0  0  0  0  0  0  0  0  0  0  0
    3.0636   66.6742   84.5927 C   0  0  0  0  0  0  0  0  0  0  0  0
    3.6371   65.5101   85.1284 C   0  0  0  0  0  0  0  0  0  0  0  0
    5.0251   65.3540   85.1618 C   0  0  0  0  0  0  0  0  0  0  0  0
    5.8556   66.3577   84.6640 C   0  0  0  0  0  0  0  0  0  0  0  0
    5.2975   67.5189   84.1335 C   0  0  0  0  0  0  0  0  0  0  0  0
    3.9135   67.6682   84.1026 C   0  0  0  0  0  0  0  0  0  0  0  0
    3.4012   68.8003   83.6003 F   0  0  0  0  0  0  0  0  0  0  0  0
 11 12  1  0  0  0
 12 13  1  0  0  0
 12 14  1  0  0  0
 14 15  2  0  0  0
 14 16  1  0  0  0
 16 17  1  0  0  0
 17 18  1  0  0  0
 18 19  2  0  0  0
 19  1  1  0  0  0
  1  2  2  0  0  0
  2  3  1  0  0  0
  3 28  1  0  0  0
 28 29  1  0  0  0
 29 30  2  0  0  0
 30 31  1  0  0  0
 31 32  2  0  0  0
 32 33  1  0  0  0
 33 34  2  0  0  0
 34 35  1  0  0  0
  3  4  1  0  0  0
  4  5  1  0  0  0
  5  6  2  0  0  0
  6  7  1  0  0  0
  7  8  1  0  0  0
  7  9  2  0  0  0
  9 10  1  0  0  0
 19 20  1  0  0  0
 20 21  2  0  0  0
 21 24  1  0  0  0
 24 25  1  0  0  0
 21 22  1  0  0  0
 22 12  1  0  0  0
 22 17  2  0  0  0
 10  1  1  0  0  0
 34 29  1  0  0  0
 10  4  2  0  0  0
 16 23  1  0  0  0
 25 26  1  0  0  0
 25 27  1  0  0  0
M  END
> <minimizedAffinity>
-10.98795

$$$$



 35 39  0  0  0  0  0  0  0  0999 V2000
   -0.0406   63.6008   83.5281 C   0  0  0  0  0  0  0  0  0  0  0  0
    1.0491   64.3776   83.3338 N   0  0  0  0  0  0  0  0  0  0  0  0
    1.3659   64.8361   84.5655 N   0  0  0  0  0  0  0  0  0  0  0  0
    0.5540   64.3577   85.5544 C   0  0  0  0  0  0  0  0  0  0  0  0
    0.6499   64.6204   86.8755 N   0  0  0  0  0  0  0  0  0  0  0  0
   -0.3142   64.0095   87.6047 C   0  0  0  0  0  0  0  0  0  0  0  0
   -1.3082   63.1911   87.0925 C   0  0  0  0  0  0  0  0  0  0  0  0
   -2.2135   62.6361   87.9085 F   0  0  0  0  0  0  0  0  0  0  0  0
   -1.3645   62.9440   85.7254 C   0  0  0  0  0  0  0  0  0  0  0  0
   -0.3863   63.5550   84.9187 C   0  0  0  0  0  0  0  0  0  0  0  0
   -2.0280   59.8298   78.6309 C   0  0  0  0  0  0  0  0  0  0  0  0
   -2.5668   61.1840   79.0915 C   0  0  0  0  0  0  0  0  0  0  0  0
   -4.0944   61.2271   79.0513 C   0  0  0  0  0  0  0  0  0  0  0  0
   -2.0184   62.2825   78.1476 C   0  0  0  0  0  0  0  0  0  0  0  0
   -2.1969   62.3738   76.9449 O   0  0  0  0  0  0  0  0  0  0  0  0
   -1.2793   63.1574   78.9186 N   0  0  0  0  0  0  0  0  0  0  0  0
   -1.2628   62.7797   80.2460 C   0  0  0  0  0  0  0  0  0  0  0  0
   -0.6159   63.4583   81.1865 N   0  0  0  0  0  0  0  0  0  0  0  0
   -0.7253   62.9181   82.4123 C   0  0  0  0  0  0  0  0  0  0  0  0
   -1.4182   61.7878   82.6997 N   0  0  0  0  0  0  0  0  0  0  0  0
   -2.0604   61.1376   81.6956 C   0  0  0  0  0  0  0  0  0  0  0  0
   -2.0001   61.6244   80.4168 C   0  0  0  0  0  0  0  0  0  0  0  0
   -0.8058   63.9709   78.5594 H   0  0  0  0  0  0  0  0  0  0  0  0
   -2.8136   59.8786   82.0669 C   0  0  0  0  0  0  0  0  0  0  0  0
   -3.5074   59.9789   83.3580 N   0  0  0  0  0  0  0  0  0  0  0  0
   -4.1147   60.8012   83.3080 H   0  0  0  0  0  0  0  0  0  0  0  0
   -2.8093   60.2710   84.0474 H   0  0  0  0  0  0  0  0  0  0  0  0
    2.5054   65.7239   84.7415 C   0  0  0  0  0  0  0  0  0  0  0  0
    2.3516   66.9908   83.9437 C   0  0  0  0  0  0  0  0  0  0  0  0
    1.5108   67.0457   82.8208 C   0  0  0  0  0  0  0  0  0  0  0  0
    1.3754   68.2310   82.0935 C   0  0  0  0  0  0  0  0  0  0  0  0
    2.0786   69.3728   82.4766 C   0  0  0  0  0  0  0  0  0  0  0  0
    2.9188   69.3287   83.5872 C   0  0  0  0  0  0  0  0  0  0  0  0
    3.0491   68.1447   84.3081 C   0  0  0  0  0  0  0  0  0  0  0  0
    3.8742   68.1236   85.3641 F   0  0  0  0  0  0  0  0  0  0  0  0
 11 12  1  0  0  0
 12 13  1  0  0  0
 12 14  1  0  0  0
 14 15  2  0  0  0
 14 16  1  0  0  0
 16 17  1  0  0  0
 17 18  1  0  0  0
 18 19  2  0  0  0
 19  1  1  0  0  0
  1  2  2  0  0  0
  2  3  1  0  0  0
  3 28  1  0  0  0
 28 29  1  0  0  0
 29 30  2  0  0  0
 30 31  1  0  0  0
 31 32  2  0  0  0
 32 33  1  0  0  0
 33 34  2  0  0  0
 34 35  1  0  0  0
  3  4  1  0  0  0
  4  5  1  0  0  0
  5  6  2  0  0  0
  6  7  1  0  0  0
  7  8  1  0  0  0
  7  9  2  0  0  0
  9 10  1  0  0  0
 19 20  1  0  0  0
 20 21  2  0  0  0
 21 24  1  0  0  0
 24 25  1  0  0  0
 21 22  1  0  0  0
 22 12  1  0  0  0
 22 17  2  0  0  0
 10  1  1  0  0  0
 34 29  1  0  0  0
 10  4  2  0  0  0
 16 23  1  0  0  0
 25 26  1  0  0  0
 25 27  1  0  0  0
M  END
> <minimizedAffinity>
-10.94268

$$$$



 35 39  0  0  0  0  0  0  0  0999 V2000
    0.6555   64.4905   83.2788 C   0  0  0  0  0  0  0  0  0  0  0  0
    0.5088   63.5620   82.3066 N   0  0  0  0  0  0  0  0  0  0  0  0
    0.0244   62.4729   82.9447 N   0  0  0  0  0  0  0  0  0  0  0  0
   -0.1876   62.6686   84.2799 C   0  0  0  0  0  0  0  0  0  0  0  0
   -0.6882   61.7729   85.1577 N   0  0  0  0  0  0  0  0  0  0  0  0
   -0.7643   62.2589   86.4196 C   0  0  0  0  0  0  0  0  0  0  0  0
   -0.3849   63.5328   86.8114 C   0  0  0  0  0  0  0  0  0  0  0  0
   -0.5044   63.9097   88.0909 F   0  0  0  0  0  0  0  0  0  0  0  0
    0.1203   64.4239   85.8713 C   0  0  0  0  0  0  0  0  0  0  0  0
    0.2224   63.9707   84.5427 C   0  0  0  0  0  0  0  0  0  0  0  0
    2.3225   70.7623   83.0821 C   0  0  0  0  0  0  0  0  0  0  0  0
    2.5076   69.6767   82.0221 C   0  0  0  0  0  0  0  0  0  0  0  0
    3.8704   69.7825   81.3376 C   0  0  0  0  0  0  0  0  0  0  0  0
    1.4035   69.8393   80.9484 C   0  0  0  0  0  0  0  0  0  0  0  0
    1.2087   70.8094   80.2360 O   0  0  0  0  0  0  0  0  0  0  0  0
    0.6647   68.6729   80.9367 N   0  0  0  0  0  0  0  0  0  0  0  0
    1.1314   67.7634   81.8639 C   0  0  0  0  0  0  0  0  0  0  0  0
    0.5849   66.5670   82.0470 N   0  0  0  0  0  0  0  0  0  0  0  0
    1.1899   65.8384   83.0006 C   0  0  0  0  0  0  0  0  0  0  0  0
    2.2564   66.2526   83.7296 N   0  0  0  0  0  0  0  0  0  0  0  0
    2.7723   67.4866   83.4963 C   0  0  0  0  0  0  0  0  0  0  0  0
    2.2144   68.2916   82.5390 C   0  0  0  0  0  0  0  0  0  0  0  0
   -0.1216   68.5043   80.3298 H   0  0  0  0  0  0  0  0  0  0  0  0
    3.9573   67.9038   84.3402 C   0  0  0  0  0  0  0  0  0  0  0  0
    3.5740   68.4184   85.6618 N   0  0  0  0  0  0  0  0  0  0  0  0
    3.0054   67.6955   86.1108 H   0  0  0  0  0  0  0  0  0  0  0  0
    2.8877   69.1612   85.5026 H   0  0  0  0  0  0  0  0  0  0  0  0
   -0.2549   61.2554   82.1981 C   0  0  0  0  0  0  0  0  0  0  0  0
   -1.3697   61.4545   81.2069 C   0  0  0  0  0  0  0  0  0  0  0  0
   -2.7048   61.5666   81.6264 C   0  0  0  0  0  0  0  0  0  0  0  0
   -3.7277   61.7558   80.6938 C   0  0  0  0  0  0  0  0  0  0  0  0
   -3.4307   61.8325   79.3333 C   0  0  0  0  0  0  0  0  0  0  0  0
   -2.1096   61.7187   78.9052 C   0  0  0  0  0  0  0  0  0  0  0  0
   -1.0947   61.5308   79.8397 C   0  0  0  0  0  0  0  0  0  0  0  0
    0.1664   61.4100   79.4020 F   0  0  0  0  0  0  0  0  0  0  0  0
 11 12  1  0  0  0
 12 13  1  0  0  0
 12 14  1  0  0  0
 14 15  2  0  0  0
 14 16  1  0  0  0
 16 17  1  0  0  0
 17 18  1  0  0  0
 18 19  2  0  0  0
 19  1  1  0  0  0
  1  2  2  0  0  0
  2  3  1  0  0  0
  3 28  1  0  0  0
 28 29  1  0  0  0
 29 30  2  0  0  0
 30 31  1  0  0  0
 31 32  2  0  0  0
 32 33  1  0  0  0
 33 34  2  0  0  0
 34 35  1  0  0  0
  3  4  1  0  0  0
  4  5  1  0  0  0
  5  6  2  0  0  0
  6  7  1  0  0  0
  7  8  1  0  0  0
  7  9  2  0  0  0
  9 10  1  0  0  0
 19 20  1  0  0  0
 20 21  2  0  0  0
 21 24  1  0  0  0
 24 25  1  0  0  0
 21 22  1  0  0  0
 22 12  1  0  0  0
 22 17  2  0  0  0
 10  1  1  0  0  0
 34 29  1  0  0  0
 10  4  2  0  0  0
 16 23  1  0  0  0
 25 26  1  0  0  0
 25 27  1  0  0  0
M  END
> <minimizedAffinity>
-10.88111

$$$$



 35 39  0  0  0  0  0  0  0  0999 V2000
    0.3510   64.1118   82.0624 C   0  0  0  0  0  0  0  0  0  0  0  0
    0.2989   63.5167   83.2757 N   0  0  0  0  0  0  0  0  0  0  0  0
    0.7966   64.4387   84.1301 N   0  0  0  0  0  0  0  0  0  0  0  0
    1.1305   65.6193   83.5295 C   0  0  0  0  0  0  0  0  0  0  0  0
    1.6215   66.7223   84.1343 N   0  0  0  0  0  0  0  0  0  0  0  0
    1.8704   67.7317   83.2662 C   0  0  0  0  0  0  0  0  0  0  0  0
    1.6550   67.6827   81.8982 C   0  0  0  0  0  0  0  0  0  0  0  0
    1.9370   68.7440   81.1316 F   0  0  0  0  0  0  0  0  0  0  0  0
    1.1422   66.5272   81.3196 C   0  0  0  0  0  0  0  0  0  0  0  0
    0.8656   65.4450   82.1760 C   0  0  0  0  0  0  0  0  0  0  0  0
   -2.6325   61.7853   76.7862 C   0  0  0  0  0  0  0  0  0  0  0  0
   -1.3929   61.2596   77.5094 C   0  0  0  0  0  0  0  0  0  0  0  0
   -0.3192   60.7956   76.5250 C   0  0  0  0  0  0  0  0  0  0  0  0
   -1.8067   60.0550   78.3902 C   0  0  0  0  0  0  0  0  0  0  0  0
   -2.3019   59.0060   78.0145 O   0  0  0  0  0  0  0  0  0  0  0  0
   -1.5114   60.3803   79.6991 N   0  0  0  0  0  0  0  0  0  0  0  0
   -0.9617   61.6422   79.8002 C   0  0  0  0  0  0  0  0  0  0  0  0
   -0.5960   62.1851   80.9556 N   0  0  0  0  0  0  0  0  0  0  0  0
   -0.0863   63.4225   80.8322 C   0  0  0  0  0  0  0  0  0  0  0  0
    0.0539   64.0870   79.6579 N   0  0  0  0  0  0  0  0  0  0  0  0
   -0.3373   63.4795   78.5084 C   0  0  0  0  0  0  0  0  0  0  0  0
   -0.8655   62.2164   78.5477 C   0  0  0  0  0  0  0  0  0  0  0  0
   -1.6784   59.7748   80.4868 H   0  0  0  0  0  0  0  0  0  0  0  0
   -0.1661   64.2651   77.2264 C   0  0  0  0  0  0  0  0  0  0  0  0
   -1.1256   65.3695   77.0919 N   0  0  0  0  0  0  0  0  0  0  0  0
   -1.0293   65.9527   77.9274 H   0  0  0  0  0  0  0  0  0  0  0  0
   -2.0588   64.9680   77.2186 H   0  0  0  0  0  0  0  0  0  0  0  0
    0.8986   64.1361   85.5499 C   0  0  0  0  0  0  0  0  0  0  0  0
   -0.3920   63.5867   86.0953 C   0  0  0  0  0  0  0  0  0  0  0  0
   -1.3739   63.0555   85.2441 C   0  0  0  0  0  0  0  0  0  0  0  0
   -2.5649   62.5451   85.7667 C   0  0  0  0  0  0  0  0  0  0  0  0
   -2.7903   62.5612   87.1429 C   0  0  0  0  0  0  0  0  0  0  0  0
   -1.8243   63.0895   87.9969 C   0  0  0  0  0  0  0  0  0  0  0  0
   -0.6394   63.5961   87.4699 C   0  0  0  0  0  0  0  0  0  0  0  0
    0.2682   64.1118   88.3106 F   0  0  0  0  0  0  0  0  0  0  0  0
 11 12  1  0  0  0
 12 13  1  0  0  0
 12 14  1  0  0  0
 14 15  2  0  0  0
 14 16  1  0  0  0
 16 17  1  0  0  0
 17 18  1  0  0  0
 18 19  2  0  0  0
 19  1  1  0  0  0
  1  2  2  0  0  0
  2  3  1  0  0  0
  3 28  1  0  0  0
 28 29  1  0  0  0
 29 30  2  0  0  0
 30 31  1  0  0  0
 31 32  2  0  0  0
 32 33  1  0  0  0
 33 34  2  0  0  0
 34 35  1  0  0  0
  3  4  1  0  0  0
  4  5  1  0  0  0
  5  6  2  0  0  0
  6  7  1  0  0  0
  7  8  1  0  0  0
  7  9  2  0  0  0
  9 10  1  0  0  0
 19 20  1  0  0  0
 20 21  2  0  0  0
 21 24  1  0  0  0
 24 25  1  0  0  0
 21 22  1  0  0  0
 22 12  1  0  0  0
 22 17  2  0  0  0
 10  1  1  0  0  0
 34 29  1  0  0  0
 10  4  2  0  0  0
 16 23  1  0  0  0
 25 26  1  0  0  0
 25 27  1  0  0  0
M  END
> <minimizedAffinity>
-10.80276

$$$$
