


 32 36  0  0  0  0  0  0  0  0999 V2000
    1.1828   65.3970   83.5044 C   0  0  0  0  0  0  0  0  0  0  0  0
    2.4829   65.8445   83.6266 N   0  0  0  0  0  0  0  0  0  0  0  0
    2.9927   65.5483   84.8760 C   0  0  0  0  0  0  0  0  0  0  0  0
    1.9971   64.8823   85.5688 C   0  0  0  0  0  0  0  0  0  0  0  0
    1.9500   64.3040   86.8948 C   0  0  0  0  0  0  0  0  0  0  0  0
    2.8811   64.2626   87.6887 O   0  0  0  0  0  0  0  0  0  0  0  0
    0.6274   63.7052   87.2388 C   0  0  0  0  0  0  0  0  0  0  0  0
    0.4264   63.1370   88.5018 C   0  0  0  0  0  0  0  0  0  0  0  0
   -0.8108   62.5735   88.8208 C   0  0  0  0  0  0  0  0  0  0  0  0
   -1.8460   62.5750   87.8831 C   0  0  0  0  0  0  0  0  0  0  0  0
   -1.6513   63.1392   86.6207 C   0  0  0  0  0  0  0  0  0  0  0  0
   -0.4175   63.7043   86.2963 C   0  0  0  0  0  0  0  0  0  0  0  0
   -0.2968   64.2417   85.0290 O   0  0  0  0  0  0  0  0  0  0  0  0
    0.8824   64.8094   84.7076 C   0  0  0  0  0  0  0  0  0  0  0  0
    2.9921   66.3344   82.9020 H   0  0  0  0  0  0  0  0  0  0  0  0
    4.3164   65.9378   85.2566 C   0  0  0  0  0  0  0  0  0  0  0  0
    5.4413   65.1451   85.4309 C   0  0  0  0  0  0  0  0  0  0  0  0
    6.5090   66.0016   85.7961 C   0  0  0  0  0  0  0  0  0  0  0  0
    5.9825   67.2684   85.8188 C   0  0  0  0  0  0  0  0  0  0  0  0
    4.6692   67.2397   85.4877 O   0  0  0  0  0  0  0  0  0  0  0  0
    0.3557   65.5852   82.2740 C   0  0  0  0  0  0  0  0  0  0  0  0
   -1.4682   61.9363   80.8734 C   0  0  0  0  0  0  0  0  0  0  0  0
   -0.0934   62.1178   80.7445 C   0  0  0  0  0  0  0  0  0  0  0  0
    0.4961   63.3075   81.1761 C   0  0  0  0  0  0  0  0  0  0  0  0
   -0.2849   64.3131   81.7643 C   0  0  0  0  0  0  0  0  0  0  0  0
   -1.6617   64.0981   81.9286 C   0  0  0  0  0  0  0  0  0  0  0  0
   -2.2475   62.9070   81.4968 C   0  0  0  0  0  0  0  0  0  0  0  0
   -2.0277   60.7443   80.5139 O   0  0  0  0  0  0  0  0  0  0  0  0
   -1.3753   59.9223   78.2633 C   0  0  0  0  0  0  0  0  0  0  0  0
   -2.4388   60.6084   79.1334 C   0  0  0  0  0  0  0  0  0  0  0  0
   -2.8677   61.9456   78.5120 C   0  0  0  0  0  0  0  0  0  0  0  0
   -3.6726   59.6911   79.1932 C   0  0  0  0  0  0  0  0  0  0  0  0
 29 30  1  0  0  0
 30 31  1  0  0  0
 30 32  1  0  0  0
 30 28  1  0  0  0
 28 22  1  0  0  0
 22 23  1  0  0  0
 23 24  2  0  0  0
 24 25  1  0  0  0
 25 21  1  0  0  0
 21  1  1  0  0  0
  1  2  1  0  0  0
  2  3  1  0  0  0
  3 16  1  0  0  0
 16 17  2  0  0  0
 17 18  1  0  0  0
 18 19  2  0  0  0
 19 20  1  0  0  0
  3  4  2  0  0  0
  4  5  1  0  0  0
  5  6  2  0  0  0
  5  7  1  0  0  0
  7  8  2  0  0  0
  8  9  1  0  0  0
  9 10  2  0  0  0
 10 11  1  0  0  0
 11 12  2  0  0  0
 12 13  1  0  0  0
 13 14  1  0  0  0
 25 26  2  0  0  0
 26 27  1  0  0  0
 27 22  2  0  0  0
 14  1  2  0  0  0
 20 16  1  0  0  0
 14  4  1  0  0  0
 12  7  1  0  0  0
  2 15  1  0  0  0
M  END
> <minimizedAffinity>
-10.41206

$$$$



 32 36  0  0  0  0  0  0  0  0999 V2000
    0.1890   64.6829   80.2086 C   0  0  0  0  0  0  0  0  0  0  0  0
   -0.5934   63.7916   79.5022 N   0  0  0  0  0  0  0  0  0  0  0  0
   -1.2415   62.9187   80.3545 C   0  0  0  0  0  0  0  0  0  0  0  0
   -0.8745   63.2676   81.6423 C   0  0  0  0  0  0  0  0  0  0  0  0
   -1.2479   62.7446   82.9393 C   0  0  0  0  0  0  0  0  0  0  0  0
   -2.0592   61.8503   83.1414 O   0  0  0  0  0  0  0  0  0  0  0  0
   -0.5611   63.4227   84.0771 C   0  0  0  0  0  0  0  0  0  0  0  0
   -0.8019   62.9995   85.3891 C   0  0  0  0  0  0  0  0  0  0  0  0
   -0.1614   63.6377   86.4532 C   0  0  0  0  0  0  0  0  0  0  0  0
    0.7169   64.6965   86.2112 C   0  0  0  0  0  0  0  0  0  0  0  0
    0.9603   65.1243   84.9045 C   0  0  0  0  0  0  0  0  0  0  0  0
    0.3237   64.4901   83.8370 C   0  0  0  0  0  0  0  0  0  0  0  0
    0.6108   64.9681   82.5727 O   0  0  0  0  0  0  0  0  0  0  0  0
    0.0194   64.3529   81.5298 C   0  0  0  0  0  0  0  0  0  0  0  0
   -0.6734   63.7721   78.4934 H   0  0  0  0  0  0  0  0  0  0  0  0
   -2.0902   61.8785   79.8581 C   0  0  0  0  0  0  0  0  0  0  0  0
   -3.4759   61.8283   79.8215 C   0  0  0  0  0  0  0  0  0  0  0  0
   -3.8382   60.5956   79.2246 C   0  0  0  0  0  0  0  0  0  0  0  0
   -2.6581   59.9637   78.9236 C   0  0  0  0  0  0  0  0  0  0  0  0
   -1.6044   60.7310   79.2927 O   0  0  0  0  0  0  0  0  0  0  0  0
    1.0262   65.7397   79.5639 C   0  0  0  0  0  0  0  0  0  0  0  0
    1.1374   69.4244   81.8030 C   0  0  0  0  0  0  0  0  0  0  0  0
   -0.0050   69.0856   81.0820 C   0  0  0  0  0  0  0  0  0  0  0  0
   -0.0351   67.9047   80.3380 C   0  0  0  0  0  0  0  0  0  0  0  0
    1.0706   67.0418   80.3327 C   0  0  0  0  0  0  0  0  0  0  0  0
    2.1978   67.3738   81.0994 C   0  0  0  0  0  0  0  0  0  0  0  0
    2.2240   68.5548   81.8429 C   0  0  0  0  0  0  0  0  0  0  0  0
    1.1351   70.5442   82.5834 O   0  0  0  0  0  0  0  0  0  0  0  0
    0.0832   72.5473   81.5598 C   0  0  0  0  0  0  0  0  0  0  0  0
    1.3794   71.8038   81.9149 C   0  0  0  0  0  0  0  0  0  0  0  0
    2.2730   71.6496   80.6757 C   0  0  0  0  0  0  0  0  0  0  0  0
    2.1430   72.6432   82.9540 C   0  0  0  0  0  0  0  0  0  0  0  0
 29 30  1  0  0  0
 30 31  1  0  0  0
 30 32  1  0  0  0
 30 28  1  0  0  0
 28 22  1  0  0  0
 22 23  1  0  0  0
 23 24  2  0  0  0
 24 25  1  0  0  0
 25 21  1  0  0  0
 21  1  1  0  0  0
  1  2  1  0  0  0
  2  3  1  0  0  0
  3 16  1  0  0  0
 16 17  2  0  0  0
 17 18  1  0  0  0
 18 19  2  0  0  0
 19 20  1  0  0  0
  3  4  2  0  0  0
  4  5  1  0  0  0
  5  6  2  0  0  0
  5  7  1  0  0  0
  7  8  2  0  0  0
  8  9  1  0  0  0
  9 10  2  0  0  0
 10 11  1  0  0  0
 11 12  2  0  0  0
 12 13  1  0  0  0
 13 14  1  0  0  0
 25 26  2  0  0  0
 26 27  1  0  0  0
 27 22  2  0  0  0
 14  1  2  0  0  0
 20 16  1  0  0  0
 14  4  1  0  0  0
 12  7  1  0  0  0
  2 15  1  0  0  0
M  END
> <minimizedAffinity>
-10.32384

$$$$



 32 36  0  0  0  0  0  0  0  0999 V2000
    1.0187   65.1326   84.0791 C   0  0  0  0  0  0  0  0  0  0  0  0
    0.4539   65.9809   83.1480 N   0  0  0  0  0  0  0  0  0  0  0  0
    1.3068   67.0259   82.8492 C   0  0  0  0  0  0  0  0  0  0  0  0
    2.4538   66.8356   83.5995 C   0  0  0  0  0  0  0  0  0  0  0  0
    3.6949   67.5750   83.6899 C   0  0  0  0  0  0  0  0  0  0  0  0
    3.9877   68.5615   83.0267 O   0  0  0  0  0  0  0  0  0  0  0  0
    4.6569   67.0086   84.6798 C   0  0  0  0  0  0  0  0  0  0  0  0
    5.8872   67.6394   84.8963 C   0  0  0  0  0  0  0  0  0  0  0  0
    6.7881   67.1059   85.8202 C   0  0  0  0  0  0  0  0  0  0  0  0
    6.4647   65.9453   86.5268 C   0  0  0  0  0  0  0  0  0  0  0  0
    5.2393   65.3104   86.3144 C   0  0  0  0  0  0  0  0  0  0  0  0
    4.3347   65.8392   85.3929 C   0  0  0  0  0  0  0  0  0  0  0  0
    3.1437   65.1570   85.2334 O   0  0  0  0  0  0  0  0  0  0  0  0
    2.2510   65.6663   84.3618 C   0  0  0  0  0  0  0  0  0  0  0  0
   -0.4669   65.8606   82.7455 H   0  0  0  0  0  0  0  0  0  0  0  0
    0.9341   68.0577   81.9299 C   0  0  0  0  0  0  0  0  0  0  0  0
    0.4292   67.9373   80.6435 C   0  0  0  0  0  0  0  0  0  0  0  0
    0.2077   69.2476   80.1524 C   0  0  0  0  0  0  0  0  0  0  0  0
    0.5817   70.0953   81.1642 C   0  0  0  0  0  0  0  0  0  0  0  0
    1.0106   69.3889   82.2376 O   0  0  0  0  0  0  0  0  0  0  0  0
    0.3316   63.9192   84.6162 C   0  0  0  0  0  0  0  0  0  0  0  0
   -1.4963   61.4101   81.6218 C   0  0  0  0  0  0  0  0  0  0  0  0
   -0.1090   61.4545   81.7362 C   0  0  0  0  0  0  0  0  0  0  0  0
    0.4857   62.2833   82.6893 C   0  0  0  0  0  0  0  0  0  0  0  0
   -0.3071   63.0537   83.5525 C   0  0  0  0  0  0  0  0  0  0  0  0
   -1.7040   62.9650   83.4559 C   0  0  0  0  0  0  0  0  0  0  0  0
   -2.2952   62.1345   82.5024 C   0  0  0  0  0  0  0  0  0  0  0  0
   -2.0728   60.5462   80.7361 O   0  0  0  0  0  0  0  0  0  0  0  0
   -1.8048   62.3271   79.0265 C   0  0  0  0  0  0  0  0  0  0  0  0
   -2.6160   61.1221   79.5252 C   0  0  0  0  0  0  0  0  0  0  0  0
   -4.1014   61.4872   79.6611 C   0  0  0  0  0  0  0  0  0  0  0  0
   -2.4932   59.9979   78.4819 C   0  0  0  0  0  0  0  0  0  0  0  0
 29 30  1  0  0  0
 30 31  1  0  0  0
 30 32  1  0  0  0
 30 28  1  0  0  0
 28 22  1  0  0  0
 22 23  1  0  0  0
 23 24  2  0  0  0
 24 25  1  0  0  0
 25 21  1  0  0  0
 21  1  1  0  0  0
  1  2  1  0  0  0
  2  3  1  0  0  0
  3 16  1  0  0  0
 16 17  2  0  0  0
 17 18  1  0  0  0
 18 19  2  0  0  0
 19 20  1  0  0  0
  3  4  2  0  0  0
  4  5  1  0  0  0
  5  6  2  0  0  0
  5  7  1  0  0  0
  7  8  2  0  0  0
  8  9  1  0  0  0
  9 10  2  0  0  0
 10 11  1  0  0  0
 11 12  2  0  0  0
 12 13  1  0  0  0
 13 14  1  0  0  0
 25 26  2  0  0  0
 26 27  1  0  0  0
 27 22  2  0  0  0
 14  1  2  0  0  0
 20 16  1  0  0  0
 14  4  1  0  0  0
 12  7  1  0  0  0
  2 15  1  0  0  0
M  END
> <minimizedAffinity>
-10.29529

$$$$



 32 36  0  0  0  0  0  0  0  0999 V2000
    0.3609   65.1735   82.5457 C   0  0  0  0  0  0  0  0  0  0  0  0
    1.5537   65.8249   82.7876 N   0  0  0  0  0  0  0  0  0  0  0  0
    1.9659   65.6342   84.0923 C   0  0  0  0  0  0  0  0  0  0  0  0
    1.0186   64.8289   84.6995 C   0  0  0  0  0  0  0  0  0  0  0  0
    0.9202   64.2719   86.0318 C   0  0  0  0  0  0  0  0  0  0  0  0
    1.7551   64.3927   86.9191 O   0  0  0  0  0  0  0  0  0  0  0  0
   -0.3211   63.4751   86.2561 C   0  0  0  0  0  0  0  0  0  0  0  0
   -0.5653   62.9024   87.5094 C   0  0  0  0  0  0  0  0  0  0  0  0
   -1.7256   62.1537   87.7166 C   0  0  0  0  0  0  0  0  0  0  0  0
   -2.6409   61.9745   86.6768 C   0  0  0  0  0  0  0  0  0  0  0  0
   -2.4023   62.5422   85.4236 C   0  0  0  0  0  0  0  0  0  0  0  0
   -1.2450   63.2920   85.2107 C   0  0  0  0  0  0  0  0  0  0  0  0
   -1.0743   63.8213   83.9457 O   0  0  0  0  0  0  0  0  0  0  0  0
    0.0286   64.5649   83.7300 C   0  0  0  0  0  0  0  0  0  0  0  0
    2.0546   66.3782   82.1040 H   0  0  0  0  0  0  0  0  0  0  0  0
    3.1630   66.2364   84.5953 C   0  0  0  0  0  0  0  0  0  0  0  0
    4.3188   65.6235   85.0567 C   0  0  0  0  0  0  0  0  0  0  0  0
    5.2199   66.6501   85.4326 C   0  0  0  0  0  0  0  0  0  0  0  0
    4.5710   67.8313   85.1754 C   0  0  0  0  0  0  0  0  0  0  0  0
    3.3393   67.5917   84.6645 O   0  0  0  0  0  0  0  0  0  0  0  0
   -0.3478   65.2072   81.2306 C   0  0  0  0  0  0  0  0  0  0  0  0
   -0.7185   61.3758   79.2849 C   0  0  0  0  0  0  0  0  0  0  0  0
   -1.7571   61.8522   80.0811 C   0  0  0  0  0  0  0  0  0  0  0  0
   -1.6302   63.0815   80.7304 C   0  0  0  0  0  0  0  0  0  0  0  0
   -0.4715   63.8544   80.5649 C   0  0  0  0  0  0  0  0  0  0  0  0
    0.5479   63.3827   79.7241 C   0  0  0  0  0  0  0  0  0  0  0  0
    0.4171   62.1536   79.0757 C   0  0  0  0  0  0  0  0  0  0  0  0
   -0.8770   60.2070   78.5977 O   0  0  0  0  0  0  0  0  0  0  0  0
   -1.1957   61.5312   76.5214 C   0  0  0  0  0  0  0  0  0  0  0  0
   -1.5770   60.2850   77.3340 C   0  0  0  0  0  0  0  0  0  0  0  0
   -3.1009   60.1897   77.4978 C   0  0  0  0  0  0  0  0  0  0  0  0
   -1.1006   59.0442   76.5589 C   0  0  0  0  0  0  0  0  0  0  0  0
 29 30  1  0  0  0
 30 31  1  0  0  0
 30 32  1  0  0  0
 30 28  1  0  0  0
 28 22  1  0  0  0
 22 23  1  0  0  0
 23 24  2  0  0  0
 24 25  1  0  0  0
 25 21  1  0  0  0
 21  1  1  0  0  0
  1  2  1  0  0  0
  2  3  1  0  0  0
  3 16  1  0  0  0
 16 17  2  0  0  0
 17 18  1  0  0  0
 18 19  2  0  0  0
 19 20  1  0  0  0
  3  4  2  0  0  0
  4  5  1  0  0  0
  5  6  2  0  0  0
  5  7  1  0  0  0
  7  8  2  0  0  0
  8  9  1  0  0  0
  9 10  2  0  0  0
 10 11  1  0  0  0
 11 12  2  0  0  0
 12 13  1  0  0  0
 13 14  1  0  0  0
 25 26  2  0  0  0
 26 27  1  0  0  0
 27 22  2  0  0  0
 14  1  2  0  0  0
 20 16  1  0  0  0
 14  4  1  0  0  0
 12  7  1  0  0  0
  2 15  1  0  0  0
M  END
> <minimizedAffinity>
-10.26045

$$$$



 32 36  0  0  0  0  0  0  0  0999 V2000
   -0.6854   64.2000   82.2286 C   0  0  0  0  0  0  0  0  0  0  0  0
   -0.7455   64.0092   83.5945 N   0  0  0  0  0  0  0  0  0  0  0  0
   -1.4496   62.8614   83.9032 C   0  0  0  0  0  0  0  0  0  0  0  0
   -1.8406   62.2947   82.7029 C   0  0  0  0  0  0  0  0  0  0  0  0
   -2.5692   61.0848   82.3863 C   0  0  0  0  0  0  0  0  0  0  0  0
   -2.9640   60.2567   83.1970 O   0  0  0  0  0  0  0  0  0  0  0  0
   -2.7963   60.8894   80.9246 C   0  0  0  0  0  0  0  0  0  0  0  0
   -3.5154   59.7769   80.4731 C   0  0  0  0  0  0  0  0  0  0  0  0
   -3.7237   59.5935   79.1047 C   0  0  0  0  0  0  0  0  0  0  0  0
   -3.2157   60.5159   78.1870 C   0  0  0  0  0  0  0  0  0  0  0  0
   -2.4963   61.6271   78.6311 C   0  0  0  0  0  0  0  0  0  0  0  0
   -2.2854   61.8163   79.9973 C   0  0  0  0  0  0  0  0  0  0  0  0
   -1.5634   62.9362   80.3630 O   0  0  0  0  0  0  0  0  0  0  0  0
   -1.3685   63.1436   81.6802 C   0  0  0  0  0  0  0  0  0  0  0  0
   -0.3381   64.6327   84.2798 H   0  0  0  0  0  0  0  0  0  0  0  0
   -1.6755   62.4631   85.2593 C   0  0  0  0  0  0  0  0  0  0  0  0
   -2.8132   62.6245   86.0364 C   0  0  0  0  0  0  0  0  0  0  0  0
   -2.5437   62.0516   87.3038 C   0  0  0  0  0  0  0  0  0  0  0  0
   -1.2623   61.5665   87.2311 C   0  0  0  0  0  0  0  0  0  0  0  0
   -0.7374   61.8018   86.0045 O   0  0  0  0  0  0  0  0  0  0  0  0
   -0.0060   65.3654   81.5855 C   0  0  0  0  0  0  0  0  0  0  0  0
    2.9726   67.2606   84.0632 C   0  0  0  0  0  0  0  0  0  0  0  0
    3.0265   67.4077   82.6793 C   0  0  0  0  0  0  0  0  0  0  0  0
    2.0770   66.7764   81.8737 C   0  0  0  0  0  0  0  0  0  0  0  0
    1.0509   66.0145   82.4516 C   0  0  0  0  0  0  0  0  0  0  0  0
    0.9826   65.9119   83.8492 C   0  0  0  0  0  0  0  0  0  0  0  0
    1.9331   66.5453   84.6516 C   0  0  0  0  0  0  0  0  0  0  0  0
    3.8613   67.9365   84.8484 O   0  0  0  0  0  0  0  0  0  0  0  0
    6.2295   67.3819   84.3481 C   0  0  0  0  0  0  0  0  0  0  0  0
    5.0286   67.2041   85.2889 C   0  0  0  0  0  0  0  0  0  0  0  0
    4.7369   65.7144   85.5203 C   0  0  0  0  0  0  0  0  0  0  0  0
    5.3852   67.8381   86.6448 C   0  0  0  0  0  0  0  0  0  0  0  0
 29 30  1  0  0  0
 30 31  1  0  0  0
 30 32  1  0  0  0
 30 28  1  0  0  0
 28 22  1  0  0  0
 22 23  1  0  0  0
 23 24  2  0  0  0
 24 25  1  0  0  0
 25 21  1  0  0  0
 21  1  1  0  0  0
  1  2  1  0  0  0
  2  3  1  0  0  0
  3 16  1  0  0  0
 16 17  2  0  0  0
 17 18  1  0  0  0
 18 19  2  0  0  0
 19 20  1  0  0  0
  3  4  2  0  0  0
  4  5  1  0  0  0
  5  6  2  0  0  0
  5  7  1  0  0  0
  7  8  2  0  0  0
  8  9  1  0  0  0
  9 10  2  0  0  0
 10 11  1  0  0  0
 11 12  2  0  0  0
 12 13  1  0  0  0
 13 14  1  0  0  0
 25 26  2  0  0  0
 26 27  1  0  0  0
 27 22  2  0  0  0
 14  1  2  0  0  0
 20 16  1  0  0  0
 14  4  1  0  0  0
 12  7  1  0  0  0
  2 15  1  0  0  0
M  END
> <minimizedAffinity>
-10.20467

$$$$



 32 36  0  0  0  0  0  0  0  0999 V2000
    1.4089   65.5004   84.1108 C   0  0  0  0  0  0  0  0  0  0  0  0
    2.5182   65.1484   84.8532 N   0  0  0  0  0  0  0  0  0  0  0  0
    3.5245   66.0847   84.7135 C   0  0  0  0  0  0  0  0  0  0  0  0
    3.0429   67.0694   83.8690 C   0  0  0  0  0  0  0  0  0  0  0  0
    3.6189   68.3043   83.3811 C   0  0  0  0  0  0  0  0  0  0  0  0
    4.7143   68.7531   83.6934 O   0  0  0  0  0  0  0  0  0  0  0  0
    2.7297   69.0482   82.4419 C   0  0  0  0  0  0  0  0  0  0  0  0
    3.1694   70.2454   81.8659 C   0  0  0  0  0  0  0  0  0  0  0  0
    2.3345   70.9424   80.9901 C   0  0  0  0  0  0  0  0  0  0  0  0
    1.0631   70.4485   80.6891 C   0  0  0  0  0  0  0  0  0  0  0  0
    0.6180   69.2552   81.2616 C   0  0  0  0  0  0  0  0  0  0  0  0
    1.4480   68.5539   82.1370 C   0  0  0  0  0  0  0  0  0  0  0  0
    0.9405   67.3829   82.6667 O   0  0  0  0  0  0  0  0  0  0  0  0
    1.7378   66.6835   83.4981 C   0  0  0  0  0  0  0  0  0  0  0  0
    2.5901   64.3105   85.4162 H   0  0  0  0  0  0  0  0  0  0  0  0
    4.7898   65.9271   85.3636 C   0  0  0  0  0  0  0  0  0  0  0  0
    5.0555   65.6478   86.6962 C   0  0  0  0  0  0  0  0  0  0  0  0
    6.4632   65.5782   86.8405 C   0  0  0  0  0  0  0  0  0  0  0  0
    6.9801   65.8114   85.5912 C   0  0  0  0  0  0  0  0  0  0  0  0
    5.9821   66.0130   84.6975 O   0  0  0  0  0  0  0  0  0  0  0  0
    0.1636   64.6771   84.0436 C   0  0  0  0  0  0  0  0  0  0  0  0
   -0.1659   62.3888   80.4025 C   0  0  0  0  0  0  0  0  0  0  0  0
   -0.6557   63.6917   80.4490 C   0  0  0  0  0  0  0  0  0  0  0  0
   -0.5709   64.4264   81.6331 C   0  0  0  0  0  0  0  0  0  0  0  0
    0.0295   63.8692   82.7717 C   0  0  0  0  0  0  0  0  0  0  0  0
    0.5588   62.5720   82.6972 C   0  0  0  0  0  0  0  0  0  0  0  0
    0.4732   61.8407   81.5114 C   0  0  0  0  0  0  0  0  0  0  0  0
   -0.1886   61.7014   79.2234 O   0  0  0  0  0  0  0  0  0  0  0  0
   -2.3214   62.0430   77.9983 C   0  0  0  0  0  0  0  0  0  0  0  0
   -1.4497   61.1025   78.8435 C   0  0  0  0  0  0  0  0  0  0  0  0
   -2.2370   60.5715   80.0503 C   0  0  0  0  0  0  0  0  0  0  0  0
   -1.0512   59.9026   77.9667 C   0  0  0  0  0  0  0  0  0  0  0  0
 29 30  1  0  0  0
 30 31  1  0  0  0
 30 32  1  0  0  0
 30 28  1  0  0  0
 28 22  1  0  0  0
 22 23  1  0  0  0
 23 24  2  0  0  0
 24 25  1  0  0  0
 25 21  1  0  0  0
 21  1  1  0  0  0
  1  2  1  0  0  0
  2  3  1  0  0  0
  3 16  1  0  0  0
 16 17  2  0  0  0
 17 18  1  0  0  0
 18 19  2  0  0  0
 19 20  1  0  0  0
  3  4  2  0  0  0
  4  5  1  0  0  0
  5  6  2  0  0  0
  5  7  1  0  0  0
  7  8  2  0  0  0
  8  9  1  0  0  0
  9 10  2  0  0  0
 10 11  1  0  0  0
 11 12  2  0  0  0
 12 13  1  0  0  0
 13 14  1  0  0  0
 25 26  2  0  0  0
 26 27  1  0  0  0
 27 22  2  0  0  0
 14  1  2  0  0  0
 20 16  1  0  0  0
 14  4  1  0  0  0
 12  7  1  0  0  0
  2 15  1  0  0  0
M  END
> <minimizedAffinity>
-10.13886

$$$$



 32 36  0  0  0  0  0  0  0  0999 V2000
    1.7269   66.7587   81.6377 C   0  0  0  0  0  0  0  0  0  0  0  0
    1.4496   66.4226   80.3278 N   0  0  0  0  0  0  0  0  0  0  0  0
    0.6759   65.2799   80.2633 C   0  0  0  0  0  0  0  0  0  0  0  0
    0.4405   64.8798   81.5669 C   0  0  0  0  0  0  0  0  0  0  0  0
   -0.3197   63.7841   82.1295 C   0  0  0  0  0  0  0  0  0  0  0  0
   -0.9808   62.9735   81.4932 O   0  0  0  0  0  0  0  0  0  0  0  0
   -0.2628   63.7202   83.6191 C   0  0  0  0  0  0  0  0  0  0  0  0
   -0.9260   62.6924   84.2989 C   0  0  0  0  0  0  0  0  0  0  0  0
   -0.8751   62.6363   85.6932 C   0  0  0  0  0  0  0  0  0  0  0  0
   -0.1656   63.6030   86.4096 C   0  0  0  0  0  0  0  0  0  0  0  0
    0.4971   64.6318   85.7372 C   0  0  0  0  0  0  0  0  0  0  0  0
    0.4504   64.6927   84.3439 C   0  0  0  0  0  0  0  0  0  0  0  0
    1.1273   65.7392   83.7471 O   0  0  0  0  0  0  0  0  0  0  0  0
    1.1085   65.8004   82.4011 C   0  0  0  0  0  0  0  0  0  0  0  0
    1.7784   66.9376   79.5210 H   0  0  0  0  0  0  0  0  0  0  0  0
    0.2811   64.7122   79.0101 C   0  0  0  0  0  0  0  0  0  0  0  0
    0.5797   63.4625   78.4874 C   0  0  0  0  0  0  0  0  0  0  0  0
   -0.0543   63.3708   77.2238 C   0  0  0  0  0  0  0  0  0  0  0  0
   -0.7095   64.5630   77.0457 C   0  0  0  0  0  0  0  0  0  0  0  0
   -0.5204   65.3702   78.1172 O   0  0  0  0  0  0  0  0  0  0  0  0
    2.5584   67.9364   82.0310 C   0  0  0  0  0  0  0  0  0  0  0  0
    0.4175   71.6801   81.9690 C   0  0  0  0  0  0  0  0  0  0  0  0
   -0.1256   70.5606   81.3433 C   0  0  0  0  0  0  0  0  0  0  0  0
    0.5760   69.3537   81.3422 C   0  0  0  0  0  0  0  0  0  0  0  0
    1.8153   69.2534   81.9913 C   0  0  0  0  0  0  0  0  0  0  0  0
    2.3293   70.3772   82.6559 C   0  0  0  0  0  0  0  0  0  0  0  0
    1.6246   71.5820   82.6558 C   0  0  0  0  0  0  0  0  0  0  0  0
   -0.3044   72.8371   82.0267 O   0  0  0  0  0  0  0  0  0  0  0  0
   -1.1938   73.7255   79.8852 C   0  0  0  0  0  0  0  0  0  0  0  0
   -0.0955   73.7885   80.9569 C   0  0  0  0  0  0  0  0  0  0  0  0
    1.2945   73.6599   80.3171 C   0  0  0  0  0  0  0  0  0  0  0  0
   -0.1792   75.1608   81.6476 C   0  0  0  0  0  0  0  0  0  0  0  0
 29 30  1  0  0  0
 30 31  1  0  0  0
 30 32  1  0  0  0
 30 28  1  0  0  0
 28 22  1  0  0  0
 22 23  1  0  0  0
 23 24  2  0  0  0
 24 25  1  0  0  0
 25 21  1  0  0  0
 21  1  1  0  0  0
  1  2  1  0  0  0
  2  3  1  0  0  0
  3 16  1  0  0  0
 16 17  2  0  0  0
 17 18  1  0  0  0
 18 19  2  0  0  0
 19 20  1  0  0  0
  3  4  2  0  0  0
  4  5  1  0  0  0
  5  6  2  0  0  0
  5  7  1  0  0  0
  7  8  2  0  0  0
  8  9  1  0  0  0
  9 10  2  0  0  0
 10 11  1  0  0  0
 11 12  2  0  0  0
 12 13  1  0  0  0
 13 14  1  0  0  0
 25 26  2  0  0  0
 26 27  1  0  0  0
 27 22  2  0  0  0
 14  1  2  0  0  0
 20 16  1  0  0  0
 14  4  1  0  0  0
 12  7  1  0  0  0
  2 15  1  0  0  0
M  END
> <minimizedAffinity>
-10.05672

$$$$



 32 36  0  0  0  0  0  0  0  0999 V2000
    1.8858   66.4246   83.0922 C   0  0  0  0  0  0  0  0  0  0  0  0
    0.8845   65.7672   83.7784 N   0  0  0  0  0  0  0  0  0  0  0  0
    1.3706   65.2018   84.9414 C   0  0  0  0  0  0  0  0  0  0  0  0
    2.7166   65.5156   85.0088 C   0  0  0  0  0  0  0  0  0  0  0  0
    3.7371   65.2308   85.9950 C   0  0  0  0  0  0  0  0  0  0  0  0
    3.5604   64.6470   87.0565 O   0  0  0  0  0  0  0  0  0  0  0  0
    5.0868   65.7473   85.6243 C   0  0  0  0  0  0  0  0  0  0  0  0
    6.1780   65.5175   86.4699 C   0  0  0  0  0  0  0  0  0  0  0  0
    7.4398   66.0049   86.1234 C   0  0  0  0  0  0  0  0  0  0  0  0
    7.6146   66.7212   84.9371 C   0  0  0  0  0  0  0  0  0  0  0  0
    6.5296   66.9551   84.0898 C   0  0  0  0  0  0  0  0  0  0  0  0
    5.2664   66.4699   84.4303 C   0  0  0  0  0  0  0  0  0  0  0  0
    4.2401   66.7411   83.5457 O   0  0  0  0  0  0  0  0  0  0  0  0
    3.0180   66.2619   83.8505 C   0  0  0  0  0  0  0  0  0  0  0  0
   -0.0758   65.6983   83.4662 H   0  0  0  0  0  0  0  0  0  0  0  0
    0.5288   64.4392   85.8123 C   0  0  0  0  0  0  0  0  0  0  0  0
   -0.1634   63.2665   85.5479 C   0  0  0  0  0  0  0  0  0  0  0  0
   -0.8411   62.8990   86.7364 C   0  0  0  0  0  0  0  0  0  0  0  0
   -0.5224   63.8601   87.6622 C   0  0  0  0  0  0  0  0  0  0  0  0
    0.3064   64.7833   87.1180 O   0  0  0  0  0  0  0  0  0  0  0  0
    1.6741   67.1215   81.7874 C   0  0  0  0  0  0  0  0  0  0  0  0
    0.7840   71.3195   82.2201 C   0  0  0  0  0  0  0  0  0  0  0  0
   -0.0618   70.5053   81.4710 C   0  0  0  0  0  0  0  0  0  0  0  0
    0.2365   69.1510   81.3104 C   0  0  0  0  0  0  0  0  0  0  0  0
    1.3710   68.5975   81.9217 C   0  0  0  0  0  0  0  0  0  0  0  0
    2.1896   69.4200   82.7105 C   0  0  0  0  0  0  0  0  0  0  0  0
    1.8878   70.7734   82.8697 C   0  0  0  0  0  0  0  0  0  0  0  0
    0.4500   72.6261   82.4312 O   0  0  0  0  0  0  0  0  0  0  0  0
   -0.2767   73.8797   80.4145 C   0  0  0  0  0  0  0  0  0  0  0  0
    0.8496   73.5726   81.4125 C   0  0  0  0  0  0  0  0  0  0  0  0
    2.1251   73.1407   80.6747 C   0  0  0  0  0  0  0  0  0  0  0  0
    1.1615   74.8613   82.1932 C   0  0  0  0  0  0  0  0  0  0  0  0
 29 30  1  0  0  0
 30 31  1  0  0  0
 30 32  1  0  0  0
 30 28  1  0  0  0
 28 22  1  0  0  0
 22 23  1  0  0  0
 23 24  2  0  0  0
 24 25  1  0  0  0
 25 21  1  0  0  0
 21  1  1  0  0  0
  1  2  1  0  0  0
  2  3  1  0  0  0
  3 16  1  0  0  0
 16 17  2  0  0  0
 17 18  1  0  0  0
 18 19  2  0  0  0
 19 20  1  0  0  0
  3  4  2  0  0  0
  4  5  1  0  0  0
  5  6  2  0  0  0
  5  7  1  0  0  0
  7  8  2  0  0  0
  8  9  1  0  0  0
  9 10  2  0  0  0
 10 11  1  0  0  0
 11 12  2  0  0  0
 12 13  1  0  0  0
 13 14  1  0  0  0
 25 26  2  0  0  0
 26 27  1  0  0  0
 27 22  2  0  0  0
 14  1  2  0  0  0
 20 16  1  0  0  0
 14  4  1  0  0  0
 12  7  1  0  0  0
  2 15  1  0  0  0
M  END
> <minimizedAffinity>
-10.00681

$$$$



 32 36  0  0  0  0  0  0  0  0999 V2000
    1.0886   65.5656   83.7819 C   0  0  0  0  0  0  0  0  0  0  0  0
    0.2009   64.9115   84.6124 N   0  0  0  0  0  0  0  0  0  0  0  0
    0.8226   64.5002   85.7755 C   0  0  0  0  0  0  0  0  0  0  0  0
    2.1410   64.9124   85.6939 C   0  0  0  0  0  0  0  0  0  0  0  0
    3.2575   64.7992   86.6080 C   0  0  0  0  0  0  0  0  0  0  0  0
    3.2139   64.3131   87.7309 O   0  0  0  0  0  0  0  0  0  0  0  0
    4.5282   65.3693   86.0727 C   0  0  0  0  0  0  0  0  0  0  0  0
    5.6991   65.3016   86.8361 C   0  0  0  0  0  0  0  0  0  0  0  0
    6.8866   65.8390   86.3353 C   0  0  0  0  0  0  0  0  0  0  0  0
    6.9078   66.4440   85.0765 C   0  0  0  0  0  0  0  0  0  0  0  0
    5.7425   66.5159   84.3105 C   0  0  0  0  0  0  0  0  0  0  0  0
    4.5530   65.9800   84.8053 C   0  0  0  0  0  0  0  0  0  0  0  0
    3.4400   66.0894   83.9937 O   0  0  0  0  0  0  0  0  0  0  0  0
    2.2880   65.5588   84.4488 C   0  0  0  0  0  0  0  0  0  0  0  0
   -0.7733   64.7450   84.3943 H   0  0  0  0  0  0  0  0  0  0  0  0
    0.1167   63.7713   86.7849 C   0  0  0  0  0  0  0  0  0  0  0  0
   -0.6346   62.6121   86.6574 C   0  0  0  0  0  0  0  0  0  0  0  0
   -1.1187   62.2787   87.9464 C   0  0  0  0  0  0  0  0  0  0  0  0
   -0.6334   63.2451   88.7907 C   0  0  0  0  0  0  0  0  0  0  0  0
    0.1162   64.1397   88.1028 O   0  0  0  0  0  0  0  0  0  0  0  0
    0.7176   66.1127   82.4417 C   0  0  0  0  0  0  0  0  0  0  0  0
    0.3120   63.0869   79.3948 C   0  0  0  0  0  0  0  0  0  0  0  0
    0.5824   64.4041   79.0320 C   0  0  0  0  0  0  0  0  0  0  0  0
    0.6914   65.3895   80.0149 C   0  0  0  0  0  0  0  0  0  0  0  0
    0.5562   65.0566   81.3707 C   0  0  0  0  0  0  0  0  0  0  0  0
    0.3286   63.7180   81.7242 C   0  0  0  0  0  0  0  0  0  0  0  0
    0.2212   62.7352   80.7389 C   0  0  0  0  0  0  0  0  0  0  0  0
    0.2760   62.1168   78.4353 O   0  0  0  0  0  0  0  0  0  0  0  0
   -1.1557   62.4809   76.4393 C   0  0  0  0  0  0  0  0  0  0  0  0
   -1.0103   61.8470   77.8307 C   0  0  0  0  0  0  0  0  0  0  0  0
   -2.1832   62.2508   78.7358 C   0  0  0  0  0  0  0  0  0  0  0  0
   -1.0385   60.3176   77.6649 C   0  0  0  0  0  0  0  0  0  0  0  0
 29 30  1  0  0  0
 30 31  1  0  0  0
 30 32  1  0  0  0
 30 28  1  0  0  0
 28 22  1  0  0  0
 22 23  1  0  0  0
 23 24  2  0  0  0
 24 25  1  0  0  0
 25 21  1  0  0  0
 21  1  1  0  0  0
  1  2  1  0  0  0
  2  3  1  0  0  0
  3 16  1  0  0  0
 16 17  2  0  0  0
 17 18  1  0  0  0
 18 19  2  0  0  0
 19 20  1  0  0  0
  3  4  2  0  0  0
  4  5  1  0  0  0
  5  6  2  0  0  0
  5  7  1  0  0  0
  7  8  2  0  0  0
  8  9  1  0  0  0
  9 10  2  0  0  0
 10 11  1  0  0  0
 11 12  2  0  0  0
 12 13  1  0  0  0
 13 14  1  0  0  0
 25 26  2  0  0  0
 26 27  1  0  0  0
 27 22  2  0  0  0
 14  1  2  0  0  0
 20 16  1  0  0  0
 14  4  1  0  0  0
 12  7  1  0  0  0
  2 15  1  0  0  0
M  END
> <minimizedAffinity>
-9.97752

$$$$
