


 26 28  0  0  0  0  0  0  0  0999 V2000
   -1.3744   62.3168   81.4948 C   0  0  0  0  0  0  0  0  0  0  0  0
   -1.0087   63.5587   81.5916 N   0  0  0  0  0  0  0  0  0  0  0  0
   -0.1886   63.6529   82.6798 N   0  0  0  0  0  0  0  0  0  0  0  0
   -0.1384   62.4185   83.4652 C   0  0  0  0  0  0  0  0  0  0  0  0
   -0.7663   61.3970   82.5177 C   0  0  0  0  0  0  0  0  0  0  0  0
   -0.9162   62.4960   84.7718 C   0  0  0  0  0  0  0  0  0  0  0  0
   -2.3208   62.4812   84.8108 C   0  0  0  0  0  0  0  0  0  0  0  0
   -3.0045   62.5289   86.0276 C   0  0  0  0  0  0  0  0  0  0  0  0
   -2.2956   62.5843   87.2258 C   0  0  0  0  0  0  0  0  0  0  0  0
   -0.9035   62.5912   87.2008 C   0  0  0  0  0  0  0  0  0  0  0  0
    0.0631   62.6609   88.8242 Br  0  0  0  0  0  0  0  0  0  0  0  0
   -0.2134   62.5447   85.9882 C   0  0  0  0  0  0  0  0  0  0  0  0
    0.4847   64.8380   82.9681 C   0  0  0  0  0  0  0  0  0  0  0  0
    0.6291   65.8384   81.9898 C   0  0  0  0  0  0  0  0  0  0  0  0
    1.3009   67.0405   82.2471 C   0  0  0  0  0  0  0  0  0  0  0  0
    1.8520   67.2731   83.5070 C   0  0  0  0  0  0  0  0  0  0  0  0
    1.7241   66.2969   84.4973 C   0  0  0  0  0  0  0  0  0  0  0  0
    1.0498   65.0980   84.2265 C   0  0  0  0  0  0  0  0  0  0  0  0
    2.5732   68.5252   83.8372 C   0  0  0  0  0  0  0  0  0  0  0  0
    2.8617   69.4101   83.0526 O   0  0  0  0  0  0  0  0  0  0  0  0
    2.9012   68.6134   85.1385 O   0  0  0  0  0  0  0  0  0  0  0  0
    3.3639   69.4745   85.2052 H   0  0  0  0  0  0  0  0  0  0  0  0
   -3.7832   62.2362   80.7691 C   0  0  0  0  0  0  0  0  0  0  0  0
   -2.3440   61.8125   80.4319 C   0  0  0  0  0  0  0  0  0  0  0  0
   -1.9683   62.3916   79.0620 C   0  0  0  0  0  0  0  0  0  0  0  0
   -2.2679   60.2807   80.3952 C   0  0  0  0  0  0  0  0  0  0  0  0
 23 24  1  0  0  0
 24 25  1  0  0  0
 24 26  1  0  0  0
 24  1  1  0  0  0
  1  2  2  0  0  0
  2  3  1  0  0  0
  3 13  1  0  0  0
 13 14  1  0  0  0
 14 15  2  0  0  0
 15 16  1  0  0  0
 16 19  1  0  0  0
 19 20  2  0  0  0
 19 21  1  0  0  0
 16 17  2  0  0  0
 17 18  1  0  0  0
  3  4  1  0  0  0
  4  6  1  0  0  0
  6  7  2  0  0  0
  7  8  1  0  0  0
  8  9  2  0  0  0
  9 10  1  0  0  0
 10 11  1  0  0  0
 10 12  2  0  0  0
  4  5  1  0  0  0
  5  1  1  0  0  0
 18 13  2  0  0  0
 12  6  1  0  0  0
 21 22  1  0  0  0
M  END
> <minimizedAffinity>
-10.08885

$$$$



 26 28  0  0  0  0  0  0  0  0999 V2000
   -1.2595   62.3769   81.4716 C   0  0  0  0  0  0  0  0  0  0  0  0
   -0.8921   63.6177   81.5764 N   0  0  0  0  0  0  0  0  0  0  0  0
   -0.0945   63.7091   82.6814 N   0  0  0  0  0  0  0  0  0  0  0  0
   -0.0644   62.4743   83.4673 C   0  0  0  0  0  0  0  0  0  0  0  0
   -0.6756   61.4550   82.5066 C   0  0  0  0  0  0  0  0  0  0  0  0
   -0.8689   62.5538   84.7575 C   0  0  0  0  0  0  0  0  0  0  0  0
   -2.2730   62.4974   84.7708 C   0  0  0  0  0  0  0  0  0  0  0  0
   -2.9808   62.5482   85.9736 C   0  0  0  0  0  0  0  0  0  0  0  0
   -2.2968   62.6484   87.1833 C   0  0  0  0  0  0  0  0  0  0  0  0
   -0.9054   62.6967   87.1838 C   0  0  0  0  0  0  0  0  0  0  0  0
    0.0277   62.8272   88.8231 Br  0  0  0  0  0  0  0  0  0  0  0  0
   -0.1912   62.6474   85.9854 C   0  0  0  0  0  0  0  0  0  0  0  0
    0.5763   64.8920   82.9840 C   0  0  0  0  0  0  0  0  0  0  0  0
    1.1837   65.0722   84.2399 C   0  0  0  0  0  0  0  0  0  0  0  0
    1.8647   66.2494   84.5761 C   0  0  0  0  0  0  0  0  0  0  0  0
    1.9551   67.2887   83.6505 C   0  0  0  0  0  0  0  0  0  0  0  0
    1.3608   67.1374   82.3960 C   0  0  0  0  0  0  0  0  0  0  0  0
    0.6817   65.9543   82.0725 C   0  0  0  0  0  0  0  0  0  0  0  0
    2.6624   68.5565   83.9497 C   0  0  0  0  0  0  0  0  0  0  0  0
    2.8310   69.4792   83.1737 O   0  0  0  0  0  0  0  0  0  0  0  0
    3.1275   68.6122   85.2104 O   0  0  0  0  0  0  0  0  0  0  0  0
    3.5632   69.4884   85.2603 H   0  0  0  0  0  0  0  0  0  0  0  0
   -1.8643   62.5130   79.0321 C   0  0  0  0  0  0  0  0  0  0  0  0
   -2.2084   61.8759   80.3887 C   0  0  0  0  0  0  0  0  0  0  0  0
   -2.0982   60.3514   80.2589 C   0  0  0  0  0  0  0  0  0  0  0  0
   -3.6390   62.2694   80.7789 C   0  0  0  0  0  0  0  0  0  0  0  0
 23 24  1  0  0  0
 24 25  1  0  0  0
 24 26  1  0  0  0
 24  1  1  0  0  0
  1  2  2  0  0  0
  2  3  1  0  0  0
  3 13  1  0  0  0
 13 14  1  0  0  0
 14 15  2  0  0  0
 15 16  1  0  0  0
 16 19  1  0  0  0
 19 20  2  0  0  0
 19 21  1  0  0  0
 16 17  2  0  0  0
 17 18  1  0  0  0
  3  4  1  0  0  0
  4  6  1  0  0  0
  6  7  2  0  0  0
  7  8  1  0  0  0
  8  9  2  0  0  0
  9 10  1  0  0  0
 10 11  1  0  0  0
 10 12  2  0  0  0
  4  5  1  0  0  0
  5  1  1  0  0  0
 18 13  2  0  0  0
 12  6  1  0  0  0
 21 22  1  0  0  0
M  END
> <minimizedAffinity>
-10.05668

$$$$



 26 28  0  0  0  0  0  0  0  0999 V2000
   -0.9361   62.7423   85.1561 C   0  0  0  0  0  0  0  0  0  0  0  0
   -1.7760   62.4606   84.2070 N   0  0  0  0  0  0  0  0  0  0  0  0
   -1.0839   62.5071   83.0305 N   0  0  0  0  0  0  0  0  0  0  0  0
    0.2771   63.0227   83.1888 C   0  0  0  0  0  0  0  0  0  0  0  0
    0.4811   62.9605   84.7021 C   0  0  0  0  0  0  0  0  0  0  0  0
    0.4528   64.4454   82.6760 C   0  0  0  0  0  0  0  0  0  0  0  0
   -0.2051   64.9152   81.5264 C   0  0  0  0  0  0  0  0  0  0  0  0
   -0.0420   66.2336   81.0959 C   0  0  0  0  0  0  0  0  0  0  0  0
    0.7750   67.1065   81.8114 C   0  0  0  0  0  0  0  0  0  0  0  0
    1.4256   66.6554   82.9566 C   0  0  0  0  0  0  0  0  0  0  0  0
    2.5312   67.8374   83.9340 Br  0  0  0  0  0  0  0  0  0  0  0  0
    1.2682   65.3386   83.3924 C   0  0  0  0  0  0  0  0  0  0  0  0
   -1.6782   62.1107   81.8344 C   0  0  0  0  0  0  0  0  0  0  0  0
   -0.9605   61.3507   80.8931 C   0  0  0  0  0  0  0  0  0  0  0  0
   -1.5282   60.9371   79.6810 C   0  0  0  0  0  0  0  0  0  0  0  0
   -2.8459   61.2790   79.3779 C   0  0  0  0  0  0  0  0  0  0  0  0
   -3.5819   62.0334   80.2939 C   0  0  0  0  0  0  0  0  0  0  0  0
   -3.0015   62.4416   81.5031 C   0  0  0  0  0  0  0  0  0  0  0  0
   -3.4993   60.8697   78.1119 C   0  0  0  0  0  0  0  0  0  0  0  0
   -3.4566   59.7598   77.6138 O   0  0  0  0  0  0  0  0  0  0  0  0
   -4.1789   61.8712   77.5254 O   0  0  0  0  0  0  0  0  0  0  0  0
   -4.5481   61.4606   76.7160 H   0  0  0  0  0  0  0  0  0  0  0  0
   -0.9466   61.5692   87.3830 C   0  0  0  0  0  0  0  0  0  0  0  0
   -1.3383   62.8472   86.6228 C   0  0  0  0  0  0  0  0  0  0  0  0
   -0.6346   64.0437   87.2755 C   0  0  0  0  0  0  0  0  0  0  0  0
   -2.8601   63.0272   86.6956 C   0  0  0  0  0  0  0  0  0  0  0  0
 23 24  1  0  0  0
 24 25  1  0  0  0
 24 26  1  0  0  0
 24  1  1  0  0  0
  1  2  2  0  0  0
  2  3  1  0  0  0
  3 13  1  0  0  0
 13 14  1  0  0  0
 14 15  2  0  0  0
 15 16  1  0  0  0
 16 19  1  0  0  0
 19 20  2  0  0  0
 19 21  1  0  0  0
 16 17  2  0  0  0
 17 18  1  0  0  0
  3  4  1  0  0  0
  4  6  1  0  0  0
  6  7  2  0  0  0
  7  8  1  0  0  0
  8  9  2  0  0  0
  9 10  1  0  0  0
 10 11  1  0  0  0
 10 12  2  0  0  0
  4  5  1  0  0  0
  5  1  1  0  0  0
 18 13  2  0  0  0
 12  6  1  0  0  0
 21 22  1  0  0  0
M  END
> <minimizedAffinity>
-9.91090

$$$$



 26 28  0  0  0  0  0  0  0  0999 V2000
    2.3803   68.7530   82.3512 C   0  0  0  0  0  0  0  0  0  0  0  0
    1.8169   67.5835   82.3318 N   0  0  0  0  0  0  0  0  0  0  0  0
    1.9082   67.0721   83.5951 N   0  0  0  0  0  0  0  0  0  0  0  0
    2.7420   67.8860   84.4814 C   0  0  0  0  0  0  0  0  0  0  0  0
    2.8792   69.1923   83.7003 C   0  0  0  0  0  0  0  0  0  0  0  0
    4.1084   67.2758   84.7620 C   0  0  0  0  0  0  0  0  0  0  0  0
    5.1616   67.3351   83.8335 C   0  0  0  0  0  0  0  0  0  0  0  0
    6.4111   66.7871   84.1311 C   0  0  0  0  0  0  0  0  0  0  0  0
    6.6310   66.1777   85.3647 C   0  0  0  0  0  0  0  0  0  0  0  0
    5.5980   66.1199   86.2963 C   0  0  0  0  0  0  0  0  0  0  0  0
    5.8930   65.2988   87.9737 Br  0  0  0  0  0  0  0  0  0  0  0  0
    4.3461   66.6647   86.0054 C   0  0  0  0  0  0  0  0  0  0  0  0
    1.2672   65.8824   83.9337 C   0  0  0  0  0  0  0  0  0  0  0  0
    0.8036   65.0068   82.9351 C   0  0  0  0  0  0  0  0  0  0  0  0
    0.1545   63.8039   83.2419 C   0  0  0  0  0  0  0  0  0  0  0  0
   -0.0489   63.4436   84.5738 C   0  0  0  0  0  0  0  0  0  0  0  0
    0.4005   64.2943   85.5859 C   0  0  0  0  0  0  0  0  0  0  0  0
    1.0481   65.4957   85.2652 C   0  0  0  0  0  0  0  0  0  0  0  0
   -0.7288   62.1840   84.9587 C   0  0  0  0  0  0  0  0  0  0  0  0
   -0.7911   61.7222   86.0833 O   0  0  0  0  0  0  0  0  0  0  0  0
   -1.3020   61.5579   83.9155 O   0  0  0  0  0  0  0  0  0  0  0  0
   -1.7030   60.7579   84.3145 H   0  0  0  0  0  0  0  0  0  0  0  0
    3.9800   70.1270   80.9769 C   0  0  0  0  0  0  0  0  0  0  0  0
    2.5321   69.6269   81.1113 C   0  0  0  0  0  0  0  0  0  0  0  0
    2.1699   68.8236   79.8557 C   0  0  0  0  0  0  0  0  0  0  0  0
    1.5959   70.8341   81.2526 C   0  0  0  0  0  0  0  0  0  0  0  0
 23 24  1  0  0  0
 24 25  1  0  0  0
 24 26  1  0  0  0
 24  1  1  0  0  0
  1  2  2  0  0  0
  2  3  1  0  0  0
  3 13  1  0  0  0
 13 14  1  0  0  0
 14 15  2  0  0  0
 15 16  1  0  0  0
 16 19  1  0  0  0
 19 20  2  0  0  0
 19 21  1  0  0  0
 16 17  2  0  0  0
 17 18  1  0  0  0
  3  4  1  0  0  0
  4  6  1  0  0  0
  6  7  2  0  0  0
  7  8  1  0  0  0
  8  9  2  0  0  0
  9 10  1  0  0  0
 10 11  1  0  0  0
 10 12  2  0  0  0
  4  5  1  0  0  0
  5  1  1  0  0  0
 18 13  2  0  0  0
 12  6  1  0  0  0
 21 22  1  0  0  0
M  END
> <minimizedAffinity>
-9.70839

$$$$



 26 28  0  0  0  0  0  0  0  0999 V2000
   -0.9569   62.6709   85.4005 C   0  0  0  0  0  0  0  0  0  0  0  0
   -1.7990   62.4227   84.4441 N   0  0  0  0  0  0  0  0  0  0  0  0
   -1.0970   62.4504   83.2728 N   0  0  0  0  0  0  0  0  0  0  0  0
    0.2799   62.9177   83.4434 C   0  0  0  0  0  0  0  0  0  0  0  0
    0.4704   62.8417   84.9578 C   0  0  0  0  0  0  0  0  0  0  0  0
    0.5086   64.3357   82.9385 C   0  0  0  0  0  0  0  0  0  0  0  0
    1.1276   65.3217   83.7256 C   0  0  0  0  0  0  0  0  0  0  0  0
    1.3451   66.6068   83.2242 C   0  0  0  0  0  0  0  0  0  0  0  0
    0.9548   66.9255   81.9251 C   0  0  0  0  0  0  0  0  0  0  0  0
    0.3481   65.9549   81.1325 C   0  0  0  0  0  0  0  0  0  0  0  0
   -0.1786   66.3808   79.3673 Br  0  0  0  0  0  0  0  0  0  0  0  0
    0.1264   64.6686   81.6274 C   0  0  0  0  0  0  0  0  0  0  0  0
   -1.6957   62.0801   82.0706 C   0  0  0  0  0  0  0  0  0  0  0  0
   -1.0326   61.2257   81.1711 C   0  0  0  0  0  0  0  0  0  0  0  0
   -1.6063   60.8352   79.9541 C   0  0  0  0  0  0  0  0  0  0  0  0
   -2.8747   61.2970   79.6035 C   0  0  0  0  0  0  0  0  0  0  0  0
   -3.5559   62.1469   80.4773 C   0  0  0  0  0  0  0  0  0  0  0  0
   -2.9701   62.5306   81.6919 C   0  0  0  0  0  0  0  0  0  0  0  0
   -3.5317   60.9177   78.3301 C   0  0  0  0  0  0  0  0  0  0  0  0
   -3.5172   59.8116   77.8220 O   0  0  0  0  0  0  0  0  0  0  0  0
   -4.1794   61.9432   77.7489 O   0  0  0  0  0  0  0  0  0  0  0  0
   -4.5551   61.5505   76.9336 H   0  0  0  0  0  0  0  0  0  0  0  0
   -2.8786   63.0331   86.9853 C   0  0  0  0  0  0  0  0  0  0  0  0
   -1.3661   62.7832   86.8647 C   0  0  0  0  0  0  0  0  0  0  0  0
   -1.0207   61.4859   87.6069 C   0  0  0  0  0  0  0  0  0  0  0  0
   -0.6115   63.9641   87.4889 C   0  0  0  0  0  0  0  0  0  0  0  0
 23 24  1  0  0  0
 24 25  1  0  0  0
 24 26  1  0  0  0
 24  1  1  0  0  0
  1  2  2  0  0  0
  2  3  1  0  0  0
  3 13  1  0  0  0
 13 14  1  0  0  0
 14 15  2  0  0  0
 15 16  1  0  0  0
 16 19  1  0  0  0
 19 20  2  0  0  0
 19 21  1  0  0  0
 16 17  2  0  0  0
 17 18  1  0  0  0
  3  4  1  0  0  0
  4  6  1  0  0  0
  6  7  2  0  0  0
  7  8  1  0  0  0
  8  9  2  0  0  0
  9 10  1  0  0  0
 10 11  1  0  0  0
 10 12  2  0  0  0
  4  5  1  0  0  0
  5  1  1  0  0  0
 18 13  2  0  0  0
 12  6  1  0  0  0
 21 22  1  0  0  0
M  END
> <minimizedAffinity>
-9.65469

$$$$



 26 28  0  0  0  0  0  0  0  0999 V2000
   -1.4090   61.8074   81.2928 C   0  0  0  0  0  0  0  0  0  0  0  0
   -1.1786   63.0811   81.1924 N   0  0  0  0  0  0  0  0  0  0  0  0
   -0.3330   63.4183   82.2106 N   0  0  0  0  0  0  0  0  0  0  0  0
   -0.1176   62.3246   83.1596 C   0  0  0  0  0  0  0  0  0  0  0  0
   -0.6651   61.1157   82.4019 C   0  0  0  0  0  0  0  0  0  0  0  0
   -0.8489   62.5127   84.4817 C   0  0  0  0  0  0  0  0  0  0  0  0
   -2.2451   62.3957   84.5901 C   0  0  0  0  0  0  0  0  0  0  0  0
   -2.8836   62.5497   85.8225 C   0  0  0  0  0  0  0  0  0  0  0  0
   -2.1367   62.8155   86.9683 C   0  0  0  0  0  0  0  0  0  0  0  0
   -0.7519   62.9255   86.8753 C   0  0  0  0  0  0  0  0  0  0  0  0
    0.2668   63.2808   88.4281 Br  0  0  0  0  0  0  0  0  0  0  0  0
   -0.1068   62.7738   85.6467 C   0  0  0  0  0  0  0  0  0  0  0  0
    0.2165   64.6960   82.2912 C   0  0  0  0  0  0  0  0  0  0  0  0
   -0.0531   65.6577   81.3007 C   0  0  0  0  0  0  0  0  0  0  0  0
    0.4842   66.9504   81.3516 C   0  0  0  0  0  0  0  0  0  0  0  0
    1.3158   67.3166   82.4097 C   0  0  0  0  0  0  0  0  0  0  0  0
    1.6010   66.3817   83.4070 C   0  0  0  0  0  0  0  0  0  0  0  0
    1.0573   65.0910   83.3437 C   0  0  0  0  0  0  0  0  0  0  0  0
    1.9127   68.6690   82.5167 C   0  0  0  0  0  0  0  0  0  0  0  0
    1.3346   69.7215   82.3167 O   0  0  0  0  0  0  0  0  0  0  0  0
    3.2099   68.6428   82.8707 O   0  0  0  0  0  0  0  0  0  0  0  0
    3.4636   69.5888   82.8997 H   0  0  0  0  0  0  0  0  0  0  0  0
   -1.5925   60.4810   79.1614 C   0  0  0  0  0  0  0  0  0  0  0  0
   -2.3571   61.0551   80.3658 C   0  0  0  0  0  0  0  0  0  0  0  0
   -3.0234   59.8991   81.1226 C   0  0  0  0  0  0  0  0  0  0  0  0
   -3.4219   62.0377   79.8615 C   0  0  0  0  0  0  0  0  0  0  0  0
 23 24  1  0  0  0
 24 25  1  0  0  0
 24 26  1  0  0  0
 24  1  1  0  0  0
  1  2  2  0  0  0
  2  3  1  0  0  0
  3 13  1  0  0  0
 13 14  1  0  0  0
 14 15  2  0  0  0
 15 16  1  0  0  0
 16 19  1  0  0  0
 19 20  2  0  0  0
 19 21  1  0  0  0
 16 17  2  0  0  0
 17 18  1  0  0  0
  3  4  1  0  0  0
  4  6  1  0  0  0
  6  7  2  0  0  0
  7  8  1  0  0  0
  8  9  2  0  0  0
  9 10  1  0  0  0
 10 11  1  0  0  0
 10 12  2  0  0  0
  4  5  1  0  0  0
  5  1  1  0  0  0
 18 13  2  0  0  0
 12  6  1  0  0  0
 21 22  1  0  0  0
M  END
> <minimizedAffinity>
-9.65062

$$$$



 26 28  0  0  0  0  0  0  0  0999 V2000
    0.2957   64.9114   81.1485 C   0  0  0  0  0  0  0  0  0  0  0  0
    0.0167   65.1021   82.4020 N   0  0  0  0  0  0  0  0  0  0  0  0
    0.0403   63.8793   83.0099 N   0  0  0  0  0  0  0  0  0  0  0  0
    0.1783   62.7728   82.0612 C   0  0  0  0  0  0  0  0  0  0  0  0
    0.6055   63.4867   80.7793 C   0  0  0  0  0  0  0  0  0  0  0  0
   -1.1110   61.9928   81.8436 C   0  0  0  0  0  0  0  0  0  0  0  0
   -1.6387   61.1287   82.8182 C   0  0  0  0  0  0  0  0  0  0  0  0
   -2.8368   60.4461   82.5976 C   0  0  0  0  0  0  0  0  0  0  0  0
   -3.5315   60.6218   81.4026 C   0  0  0  0  0  0  0  0  0  0  0  0
   -3.0232   61.4816   80.4326 C   0  0  0  0  0  0  0  0  0  0  0  0
   -3.9648   61.7276   78.8115 Br  0  0  0  0  0  0  0  0  0  0  0  0
   -1.8256   62.1664   80.6457 C   0  0  0  0  0  0  0  0  0  0  0  0
   -0.0814   63.7651   84.3930 C   0  0  0  0  0  0  0  0  0  0  0  0
    0.8190   64.4235   85.2501 C   0  0  0  0  0  0  0  0  0  0  0  0
    0.7249   64.3285   86.6446 C   0  0  0  0  0  0  0  0  0  0  0  0
   -0.2864   63.5615   87.2225 C   0  0  0  0  0  0  0  0  0  0  0  0
   -1.1941   62.8963   86.3956 C   0  0  0  0  0  0  0  0  0  0  0  0
   -1.0883   62.9993   85.0014 C   0  0  0  0  0  0  0  0  0  0  0  0
   -0.4356   63.4242   88.6908 C   0  0  0  0  0  0  0  0  0  0  0  0
   -1.4548   63.1105   89.2778 O   0  0  0  0  0  0  0  0  0  0  0  0
    0.7014   63.6861   89.3598 O   0  0  0  0  0  0  0  0  0  0  0  0
    0.4545   63.5587   90.2994 H   0  0  0  0  0  0  0  0  0  0  0  0
   -0.6265   67.1740   80.5435 C   0  0  0  0  0  0  0  0  0  0  0  0
    0.3132   66.0340   80.1171 C   0  0  0  0  0  0  0  0  0  0  0  0
    1.7342   66.5940   79.9753 C   0  0  0  0  0  0  0  0  0  0  0  0
   -0.1653   65.4654   78.7750 C   0  0  0  0  0  0  0  0  0  0  0  0
 23 24  1  0  0  0
 24 25  1  0  0  0
 24 26  1  0  0  0
 24  1  1  0  0  0
  1  2  2  0  0  0
  2  3  1  0  0  0
  3 13  1  0  0  0
 13 14  1  0  0  0
 14 15  2  0  0  0
 15 16  1  0  0  0
 16 19  1  0  0  0
 19 20  2  0  0  0
 19 21  1  0  0  0
 16 17  2  0  0  0
 17 18  1  0  0  0
  3  4  1  0  0  0
  4  6  1  0  0  0
  6  7  2  0  0  0
  7  8  1  0  0  0
  8  9  2  0  0  0
  9 10  1  0  0  0
 10 11  1  0  0  0
 10 12  2  0  0  0
  4  5  1  0  0  0
  5  1  1  0  0  0
 18 13  2  0  0  0
 12  6  1  0  0  0
 21 22  1  0  0  0
M  END
> <minimizedAffinity>
-9.57905

$$$$



 26 28  0  0  0  0  0  0  0  0999 V2000
    0.2014   64.6338   80.6991 C   0  0  0  0  0  0  0  0  0  0  0  0
   -0.3281   64.7740   81.8761 N   0  0  0  0  0  0  0  0  0  0  0  0
   -0.3928   63.5310   82.4387 N   0  0  0  0  0  0  0  0  0  0  0  0
   -0.0369   62.4621   81.5038 C   0  0  0  0  0  0  0  0  0  0  0  0
    0.6183   63.2299   80.3563 C   0  0  0  0  0  0  0  0  0  0  0  0
   -1.2344   61.6633   81.0077 C   0  0  0  0  0  0  0  0  0  0  0  0
   -1.8123   60.6297   81.7644 C   0  0  0  0  0  0  0  0  0  0  0  0
   -2.9259   59.9321   81.2918 C   0  0  0  0  0  0  0  0  0  0  0  0
   -3.4852   60.2610   80.0588 C   0  0  0  0  0  0  0  0  0  0  0  0
   -2.9268   61.2887   79.3035 C   0  0  0  0  0  0  0  0  0  0  0  0
   -3.6852   61.7425   77.6320 Br  0  0  0  0  0  0  0  0  0  0  0  0
   -1.8130   61.9897   79.7690 C   0  0  0  0  0  0  0  0  0  0  0  0
   -0.7856   63.3653   83.7650 C   0  0  0  0  0  0  0  0  0  0  0  0
    0.0826   63.7031   84.8189 C   0  0  0  0  0  0  0  0  0  0  0  0
   -0.2813   63.5477   86.1628 C   0  0  0  0  0  0  0  0  0  0  0  0
   -1.5402   63.0435   86.4884 C   0  0  0  0  0  0  0  0  0  0  0  0
   -2.4225   62.6992   85.4622 C   0  0  0  0  0  0  0  0  0  0  0  0
   -2.0455   62.8591   84.1213 C   0  0  0  0  0  0  0  0  0  0  0  0
   -1.9803   62.8574   87.8914 C   0  0  0  0  0  0  0  0  0  0  0  0
   -1.3530   63.1783   88.8841 O   0  0  0  0  0  0  0  0  0  0  0  0
   -3.1895   62.2767   87.9887 O   0  0  0  0  0  0  0  0  0  0  0  0
   -3.3441   62.2187   88.9545 H   0  0  0  0  0  0  0  0  0  0  0  0
    1.8222   66.3525   79.8303 C   0  0  0  0  0  0  0  0  0  0  0  0
    0.3939   65.7923   79.7270 C   0  0  0  0  0  0  0  0  0  0  0  0
    0.1547   65.3156   78.2887 C   0  0  0  0  0  0  0  0  0  0  0  0
   -0.6058   66.8984   80.0885 C   0  0  0  0  0  0  0  0  0  0  0  0
 23 24  1  0  0  0
 24 25  1  0  0  0
 24 26  1  0  0  0
 24  1  1  0  0  0
  1  2  2  0  0  0
  2  3  1  0  0  0
  3 13  1  0  0  0
 13 14  1  0  0  0
 14 15  2  0  0  0
 15 16  1  0  0  0
 16 19  1  0  0  0
 19 20  2  0  0  0
 19 21  1  0  0  0
 16 17  2  0  0  0
 17 18  1  0  0  0
  3  4  1  0  0  0
  4  6  1  0  0  0
  6  7  2  0  0  0
  7  8  1  0  0  0
  8  9  2  0  0  0
  9 10  1  0  0  0
 10 11  1  0  0  0
 10 12  2  0  0  0
  4  5  1  0  0  0
  5  1  1  0  0  0
 18 13  2  0  0  0
 12  6  1  0  0  0
 21 22  1  0  0  0
M  END
> <minimizedAffinity>
-9.49817

$$$$



 26 28  0  0  0  0  0  0  0  0999 V2000
    2.4163   68.5463   82.6036 C   0  0  0  0  0  0  0  0  0  0  0  0
    1.7555   67.4316   82.5247 N   0  0  0  0  0  0  0  0  0  0  0  0
    1.8161   66.8401   83.7544 N   0  0  0  0  0  0  0  0  0  0  0  0
    2.7250   67.5268   84.6738 C   0  0  0  0  0  0  0  0  0  0  0  0
    2.9646   68.8611   83.9683 C   0  0  0  0  0  0  0  0  0  0  0  0
    4.0376   66.7883   84.8974 C   0  0  0  0  0  0  0  0  0  0  0  0
    4.0848   65.4805   85.4097 C   0  0  0  0  0  0  0  0  0  0  0  0
    5.3040   64.8212   85.5800 C   0  0  0  0  0  0  0  0  0  0  0  0
    6.4956   65.4550   85.2339 C   0  0  0  0  0  0  0  0  0  0  0  0
    6.4614   66.7476   84.7177 C   0  0  0  0  0  0  0  0  0  0  0  0
    8.0752   67.6100   84.2415 Br  0  0  0  0  0  0  0  0  0  0  0  0
    5.2465   67.4132   84.5456 C   0  0  0  0  0  0  0  0  0  0  0  0
    1.0799   65.6906   84.0327 C   0  0  0  0  0  0  0  0  0  0  0  0
    0.5182   64.9280   82.9928 C   0  0  0  0  0  0  0  0  0  0  0  0
   -0.2279   63.7680   83.2388 C   0  0  0  0  0  0  0  0  0  0  0  0
   -0.4325   63.3379   84.5496 C   0  0  0  0  0  0  0  0  0  0  0  0
    0.1132   64.0761   85.6019 C   0  0  0  0  0  0  0  0  0  0  0  0
    0.8573   65.2355   85.3419 C   0  0  0  0  0  0  0  0  0  0  0  0
   -1.2126   62.1191   84.8707 C   0  0  0  0  0  0  0  0  0  0  0  0
   -1.9214   61.5018   84.0972 O   0  0  0  0  0  0  0  0  0  0  0  0
   -1.0691   61.7269   86.1491 O   0  0  0  0  0  0  0  0  0  0  0  0
   -1.6318   60.9273   86.2129 H   0  0  0  0  0  0  0  0  0  0  0  0
    4.0875   69.9608   81.3618 C   0  0  0  0  0  0  0  0  0  0  0  0
    2.6290   69.4765   81.4147 C   0  0  0  0  0  0  0  0  0  0  0  0
    2.3069   68.7400   80.1081 C   0  0  0  0  0  0  0  0  0  0  0  0
    1.7036   70.6893   81.5776 C   0  0  0  0  0  0  0  0  0  0  0  0
 23 24  1  0  0  0
 24 25  1  0  0  0
 24 26  1  0  0  0
 24  1  1  0  0  0
  1  2  2  0  0  0
  2  3  1  0  0  0
  3 13  1  0  0  0
 13 14  1  0  0  0
 14 15  2  0  0  0
 15 16  1  0  0  0
 16 19  1  0  0  0
 19 20  2  0  0  0
 19 21  1  0  0  0
 16 17  2  0  0  0
 17 18  1  0  0  0
  3  4  1  0  0  0
  4  6  1  0  0  0
  6  7  2  0  0  0
  7  8  1  0  0  0
  8  9  2  0  0  0
  9 10  1  0  0  0
 10 11  1  0  0  0
 10 12  2  0  0  0
  4  5  1  0  0  0
  5  1  1  0  0  0
 18 13  2  0  0  0
 12  6  1  0  0  0
 21 22  1  0  0  0
M  END
> <minimizedAffinity>
-9.36594

$$$$
