
     RDKit          3D

 51 55  0  0  0  0  0  0  0  0999 V2000
   -4.3925    3.2426    1.2327 C   0  0  0  0  0  0  0  0  0  0  0  0
   -4.4692    1.7182    1.1518 C   0  0  0  0  0  0  0  0  0  0  0  0
   -5.6981    1.2555    0.3690 C   0  0  0  0  0  0  0  0  0  0  0  0
   -4.5586    1.1496    2.5895 C   0  0  0  0  0  0  0  0  0  0  0  0
   -5.4304    1.3689    3.4133 O   0  0  0  0  0  0  0  0  0  0  0  0
   -3.4601    0.3352    2.7800 N   0  0  0  0  0  0  0  0  0  0  0  0
   -2.6543    0.2944    1.6603 C   0  0  0  0  0  0  0  0  0  0  0  0
   -1.5347   -0.4169    1.5963 N   0  0  0  0  0  0  0  0  0  0  0  0
   -0.8985   -0.3155    0.4168 C   0  0  0  0  0  0  0  0  0  0  0  0
    0.3583   -1.0713    0.2463 C   0  0  0  0  0  0  0  0  0  0  0  0
    1.0453   -1.0681   -0.9185 N   0  0  0  0  0  0  0  0  0  0  0  0
    2.1289   -1.8400   -0.6782 N   0  0  0  0  0  0  0  0  0  0  0  0
    3.1133   -2.0605   -1.7270 C   0  0  0  0  0  0  0  0  0  0  0  0
    4.2160   -1.0374   -1.6785 C   0  0  0  0  0  0  0  0  0  0  0  0
    3.9730    0.3094   -1.9916 C   0  0  0  0  0  0  0  0  0  0  0  0
    5.0067    1.2478   -1.9373 C   0  0  0  0  0  0  0  0  0  0  0  0
    6.2936    0.8529   -1.5728 C   0  0  0  0  0  0  0  0  0  0  0  0
    6.5471   -0.4819   -1.2637 C   0  0  0  0  0  0  0  0  0  0  0  0
    5.5126   -1.4121   -1.3192 C   0  0  0  0  0  0  0  0  0  0  0  0
    5.7846   -2.6925   -1.0311 F   0  0  0  0  0  0  0  0  0  0  0  0
    2.1527   -2.3761    0.5780 C   0  0  0  0  0  0  0  0  0  0  0  0
    3.0918   -3.2034    1.0851 N   0  0  0  0  0  0  0  0  0  0  0  0
    2.8461   -3.5533    2.3703 C   0  0  0  0  0  0  0  0  0  0  0  0
    1.7587   -3.1348    3.1203 C   0  0  0  0  0  0  0  0  0  0  0  0
    1.6138   -3.5447    4.3870 F   0  0  0  0  0  0  0  0  0  0  0  0
    0.8132   -2.2870    2.5544 C   0  0  0  0  0  0  0  0  0  0  0  0
    1.0193   -1.8902    1.2198 C   0  0  0  0  0  0  0  0  0  0  0  0
   -1.3261    0.4339   -0.6300 N   0  0  0  0  0  0  0  0  0  0  0  0
   -2.4795    1.1393   -0.5053 C   0  0  0  0  0  0  0  0  0  0  0  0
   -2.9098    1.9643   -1.6988 C   0  0  0  0  0  0  0  0  0  0  0  0
   -2.0049    1.8341   -2.8488 N   0  0  0  0  0  0  0  0  0  0  0  0
   -3.1895    1.0882    0.6648 C   0  0  0  0  0  0  0  0  0  0  0  0
   -4.3432    3.7004    0.2402 H   0  0  0  0  0  0  0  0  0  0  0  0
   -3.5109    3.5715    1.7959 H   0  0  0  0  0  0  0  0  0  0  0  0
   -5.2725    3.6544    1.7405 H   0  0  0  0  0  0  0  0  0  0  0  0
   -6.6220    1.6000    0.8480 H   0  0  0  0  0  0  0  0  0  0  0  0
   -5.7513    0.1616    0.3138 H   0  0  0  0  0  0  0  0  0  0  0  0
   -5.6973    1.6404   -0.6550 H   0  0  0  0  0  0  0  0  0  0  0  0
   -3.2654   -0.1665    3.6317 H   0  0  0  0  0  0  0  0  0  0  0  0
    3.4920   -3.0831   -1.6210 H   0  0  0  0  0  0  0  0  0  0  0  0
    2.5944   -2.0122   -2.6920 H   0  0  0  0  0  0  0  0  0  0  0  0
    2.9722    0.6357   -2.2729 H   0  0  0  0  0  0  0  0  0  0  0  0
    4.8053    2.2892   -2.1781 H   0  0  0  0  0  0  0  0  0  0  0  0
    7.0966    1.5842   -1.5302 H   0  0  0  0  0  0  0  0  0  0  0  0
    7.5435   -0.8057   -0.9804 H   0  0  0  0  0  0  0  0  0  0  0  0
    3.5836   -4.2161    2.8144 H   0  0  0  0  0  0  0  0  0  0  0  0
   -0.0417   -1.9559    3.1321 H   0  0  0  0  0  0  0  0  0  0  0  0
   -2.9460    3.0201   -1.4166 H   0  0  0  0  0  0  0  0  0  0  0  0
   -3.9075    1.6533   -2.0196 H   0  0  0  0  0  0  0  0  0  0  0  0
   -1.9363    0.8358   -3.0638 H   0  0  0  0  0  0  0  0  0  0  0  0
   -1.0623    2.0443   -2.5091 H   0  0  0  0  0  0  0  0  0  0  0  0
  1  2  1  0
  2  3  1  0
  2  4  1  0
  4  5  2  0
  4  6  1  0
  6  7  1  0
  7  8  1  0
  8  9  2  0
  9 10  1  0
 10 11  2  0
 11 12  1  0
 12 13  1  0
 13 14  1  0
 14 15  2  0
 15 16  1  0
 16 17  2  0
 17 18  1  0
 18 19  2  0
 19 20  1  0
 12 21  1  0
 21 22  1  0
 22 23  2  0
 23 24  1  0
 24 25  1  0
 24 26  2  0
 26 27  1  0
  9 28  1  0
 28 29  2  0
 29 30  1  0
 30 31  1  0
 29 32  1  0
 32  2  1  0
 32  7  2  0
 27 10  1  0
 19 14  1  0
 27 21  2  0
  1 33  1  0
  1 34  1  0
  1 35  1  0
  3 36  1  0
  3 37  1  0
  3 38  1  0
  6 39  1  0
 13 40  1  0
 13 41  1  0
 15 42  1  0
 16 43  1  0
 17 44  1  0
 18 45  1  0
 23 46  1  0
 26 47  1  0
 30 48  1  0
 30 49  1  0
 31 50  1  0
 31 51  1  0
M  END
$$$$
