


 41 46  0  0  0  0  0  0  0  0999 V2000
    0.5666   65.7468   80.8806 N   0  0  0  0  0  0  0  0  0  0  0  0
    1.0142   65.2180   79.5969 C   0  0  0  0  0  0  0  0  0  0  0  0
    0.2602   63.9389   79.4554 C   0  0  0  0  0  0  0  0  0  0  0  0
   -0.6516   63.7944   80.4890 C   0  0  0  0  0  0  0  0  0  0  0  0
   -1.5310   62.7768   80.6007 N   0  0  0  0  0  0  0  0  0  0  0  0
   -1.4796   61.8238   79.6531 C   0  0  0  0  0  0  0  0  0  0  0  0
   -2.3531   60.7487   79.7451 C   0  0  0  0  0  0  0  0  0  0  0  0
   -2.3619   59.7208   78.7979 C   0  0  0  0  0  0  0  0  0  0  0  0
   -1.4787   59.7606   77.7269 C   0  0  0  0  0  0  0  0  0  0  0  0
   -0.5901   60.8273   77.6083 C   0  0  0  0  0  0  0  0  0  0  0  0
   -0.5749   61.8677   78.5620 C   0  0  0  0  0  0  0  0  0  0  0  0
    0.3048   62.9653   78.4806 C   0  0  0  0  0  0  0  0  0  0  0  0
    1.1765   63.0409   77.4289 O   0  0  0  0  0  0  0  0  0  0  0  0
   -0.5551   64.9779   81.4479 C   0  0  0  0  0  0  0  0  0  0  0  0
    1.7726   63.7983   77.5372 H   0  0  0  0  0  0  0  0  0  0  0  0
    0.5985   69.8408   81.4485 C   0  0  0  0  0  0  0  0  0  0  0  0
    1.4684   68.9742   82.0781 C   0  0  0  0  0  0  0  0  0  0  0  0
    1.4839   67.6337   81.8993 N   0  0  0  0  0  0  0  0  0  0  0  0
    0.5888   67.1100   81.0458 C   0  0  0  0  0  0  0  0  0  0  0  0
   -0.2937   67.8655   80.3778 N   0  0  0  0  0  0  0  0  0  0  0  0
   -0.2749   69.1991   80.5953 C   0  0  0  0  0  0  0  0  0  0  0  0
    0.6042   74.0920   82.0778 C   0  0  0  0  0  0  0  0  0  0  0  0
   -0.3931   73.4898   81.3079 C   0  0  0  0  0  0  0  0  0  0  0  0
   -0.3926   72.1057   81.1051 C   0  0  0  0  0  0  0  0  0  0  0  0
    0.6021   71.2907   81.6639 C   0  0  0  0  0  0  0  0  0  0  0  0
    1.6025   71.9067   82.4379 C   0  0  0  0  0  0  0  0  0  0  0  0
    1.6124   73.2928   82.6493 C   0  0  0  0  0  0  0  0  0  0  0  0
   -0.5125   76.1149   82.6904 C   0  0  0  0  0  0  0  0  0  0  0  0
    0.6835   75.4386   82.3309 O   0  0  0  0  0  0  0  0  0  0  0  0
    2.5548   73.9567   83.3959 O   0  0  0  0  0  0  0  0  0  0  0  0
    3.8584   74.0961   82.8504 C   0  0  0  0  0  0  0  0  0  0  0  0
   -0.3027   64.5432   82.8855 C   0  0  0  0  0  0  0  0  0  0  0  0
    0.6396   65.1718   83.7109 C   0  0  0  0  0  0  0  0  0  0  0  0
    0.8505   64.7353   85.0224 C   0  0  0  0  0  0  0  0  0  0  0  0
    0.1321   63.6508   85.5333 C   0  0  0  0  0  0  0  0  0  0  0  0
   -0.8035   62.9928   84.7124 C   0  0  0  0  0  0  0  0  0  0  0  0
   -1.0138   63.4445   83.4029 C   0  0  0  0  0  0  0  0  0  0  0  0
    0.2743   63.1553   86.8065 O   0  0  0  0  0  0  0  0  0  0  0  0
   -0.2620   63.9230   87.8735 C   0  0  0  0  0  0  0  0  0  0  0  0
   -1.4653   61.9311   85.2804 O   0  0  0  0  0  0  0  0  0  0  0  0
   -2.8038   62.1459   85.7037 C   0  0  0  0  0  0  0  0  0  0  0  0
 28 29  1  0  0  0
 29 22  1  0  0  0
 22 23  1  0  0  0
 23 24  2  0  0  0
 24 25  1  0  0  0
 25 16  1  0  0  0
 16 17  2  0  0  0
 17 18  1  0  0  0
 18 19  2  0  0  0
 19  1  1  0  0  0
  1  2  1  0  0  0
  2  3  1  0  0  0
  3  4  1  0  0  0
  4  5  2  0  0  0
  5  6  1  0  0  0
  6  7  2  0  0  0
  7  8  1  0  0  0
  8  9  2  0  0  0
  9 10  1  0  0  0
 10 11  2  0  0  0
 11 12  1  0  0  0
 12 13  1  0  0  0
  4 14  1  0  0  0
 14 32  1  0  0  0
 32 33  1  0  0  0
 33 34  2  0  0  0
 34 35  1  0  0  0
 35 38  1  0  0  0
 38 39  1  0  0  0
 35 36  2  0  0  0
 36 40  1  0  0  0
 40 41  1  0  0  0
 36 37  1  0  0  0
 19 20  1  0  0  0
 20 21  2  0  0  0
 25 26  2  0  0  0
 26 27  1  0  0  0
 27 30  1  0  0  0
 30 31  1  0  0  0
 27 22  2  0  0  0
 21 16  1  0  0  0
 14  1  1  0  0  0
 37 32  2  0  0  0
 12  3  2  0  0  0
 11  6  1  0  0  0
 13 15  1  0  0  0
M  END
> <minimizedAffinity>
-11.48909

$$$$



 41 46  0  0  0  0  0  0  0  0999 V2000
    0.4930   65.6796   80.7903 N   0  0  0  0  0  0  0  0  0  0  0  0
    0.9517   65.1660   79.5044 C   0  0  0  0  0  0  0  0  0  0  0  0
    0.2156   63.8779   79.3514 C   0  0  0  0  0  0  0  0  0  0  0  0
   -0.6973   63.7136   80.3811 C   0  0  0  0  0  0  0  0  0  0  0  0
   -1.5630   62.6833   80.4829 N   0  0  0  0  0  0  0  0  0  0  0  0
   -1.4957   61.7379   79.5287 C   0  0  0  0  0  0  0  0  0  0  0  0
   -2.3547   60.6503   79.6103 C   0  0  0  0  0  0  0  0  0  0  0  0
   -2.3467   59.6293   78.6559 C   0  0  0  0  0  0  0  0  0  0  0  0
   -1.4609   59.6887   77.5879 C   0  0  0  0  0  0  0  0  0  0  0  0
   -0.5866   60.7682   77.4796 C   0  0  0  0  0  0  0  0  0  0  0  0
   -0.5885   61.8019   78.4408 C   0  0  0  0  0  0  0  0  0  0  0  0
    0.2765   62.9120   78.3699 C   0  0  0  0  0  0  0  0  0  0  0  0
    1.1502   63.0069   77.3214 O   0  0  0  0  0  0  0  0  0  0  0  0
   -0.6198   64.8914   81.3487 C   0  0  0  0  0  0  0  0  0  0  0  0
    1.7355   63.7716   77.4369 H   0  0  0  0  0  0  0  0  0  0  0  0
    0.4671   69.7694   81.3873 C   0  0  0  0  0  0  0  0  0  0  0  0
    1.3451   68.9100   82.0156 C   0  0  0  0  0  0  0  0  0  0  0  0
    1.3795   67.5712   81.8275 N   0  0  0  0  0  0  0  0  0  0  0  0
    0.4961   67.0417   80.9653 C   0  0  0  0  0  0  0  0  0  0  0  0
   -0.3927   67.7901   80.2978 N   0  0  0  0  0  0  0  0  0  0  0  0
   -0.3930   69.1222   80.5248 C   0  0  0  0  0  0  0  0  0  0  0  0
    0.4125   74.0157   82.0470 C   0  0  0  0  0  0  0  0  0  0  0  0
   -0.6154   73.3948   81.3341 C   0  0  0  0  0  0  0  0  0  0  0  0
   -0.5951   72.0124   81.1214 C   0  0  0  0  0  0  0  0  0  0  0  0
    0.4502   71.2177   81.6130 C   0  0  0  0  0  0  0  0  0  0  0  0
    1.4810   71.8524   82.3298 C   0  0  0  0  0  0  0  0  0  0  0  0
    1.4717   73.2370   82.5506 C   0  0  0  0  0  0  0  0  0  0  0  0
   -0.5758   76.1795   81.8118 C   0  0  0  0  0  0  0  0  0  0  0  0
    0.4757   75.3622   82.3049 O   0  0  0  0  0  0  0  0  0  0  0  0
    2.4418   73.9184   83.2440 O   0  0  0  0  0  0  0  0  0  0  0  0
    3.7678   73.8875   82.7368 C   0  0  0  0  0  0  0  0  0  0  0  0
   -0.3657   64.4499   82.7839 C   0  0  0  0  0  0  0  0  0  0  0  0
   -1.2034   63.5507   83.4577 C   0  0  0  0  0  0  0  0  0  0  0  0
   -0.9427   63.1788   84.7800 C   0  0  0  0  0  0  0  0  0  0  0  0
    0.1557   63.7089   85.4627 C   0  0  0  0  0  0  0  0  0  0  0  0
    0.9966   64.6303   84.8097 C   0  0  0  0  0  0  0  0  0  0  0  0
    0.7314   64.9887   83.4814 C   0  0  0  0  0  0  0  0  0  0  0  0
    0.4868   63.4010   86.7596 O   0  0  0  0  0  0  0  0  0  0  0  0
   -0.4828   63.6593   87.7639 C   0  0  0  0  0  0  0  0  0  0  0  0
    2.0507   65.1144   85.5462 O   0  0  0  0  0  0  0  0  0  0  0  0
    3.0891   65.7797   84.8420 C   0  0  0  0  0  0  0  0  0  0  0  0
 28 29  1  0  0  0
 29 22  1  0  0  0
 22 23  1  0  0  0
 23 24  2  0  0  0
 24 25  1  0  0  0
 25 16  1  0  0  0
 16 17  2  0  0  0
 17 18  1  0  0  0
 18 19  2  0  0  0
 19  1  1  0  0  0
  1  2  1  0  0  0
  2  3  1  0  0  0
  3  4  1  0  0  0
  4  5  2  0  0  0
  5  6  1  0  0  0
  6  7  2  0  0  0
  7  8  1  0  0  0
  8  9  2  0  0  0
  9 10  1  0  0  0
 10 11  2  0  0  0
 11 12  1  0  0  0
 12 13  1  0  0  0
  4 14  1  0  0  0
 14 32  1  0  0  0
 32 33  1  0  0  0
 33 34  2  0  0  0
 34 35  1  0  0  0
 35 38  1  0  0  0
 38 39  1  0  0  0
 35 36  2  0  0  0
 36 40  1  0  0  0
 40 41  1  0  0  0
 36 37  1  0  0  0
 19 20  1  0  0  0
 20 21  2  0  0  0
 25 26  2  0  0  0
 26 27  1  0  0  0
 27 30  1  0  0  0
 30 31  1  0  0  0
 27 22  2  0  0  0
 21 16  1  0  0  0
 14  1  1  0  0  0
 37 32  2  0  0  0
 12  3  2  0  0  0
 11  6  1  0  0  0
 13 15  1  0  0  0
M  END
> <minimizedAffinity>
-10.93141

$$$$



 41 46  0  0  0  0  0  0  0  0999 V2000
    0.1215   64.7332   80.7433 N   0  0  0  0  0  0  0  0  0  0  0  0
    0.6745   64.2464   79.4843 C   0  0  0  0  0  0  0  0  0  0  0  0
   -0.2781   63.1779   79.0655 C   0  0  0  0  0  0  0  0  0  0  0  0
   -1.3669   63.1335   79.9218 C   0  0  0  0  0  0  0  0  0  0  0  0
   -2.4337   62.3217   79.7662 N   0  0  0  0  0  0  0  0  0  0  0  0
   -2.4046   61.4751   78.7216 C   0  0  0  0  0  0  0  0  0  0  0  0
   -3.4734   60.6080   78.5400 C   0  0  0  0  0  0  0  0  0  0  0  0
   -3.5171   59.7015   77.4770 C   0  0  0  0  0  0  0  0  0  0  0  0
   -2.4699   59.6539   76.5661 C   0  0  0  0  0  0  0  0  0  0  0  0
   -1.3834   60.5121   76.7227 C   0  0  0  0  0  0  0  0  0  0  0  0
   -1.3323   61.4288   77.7948 C   0  0  0  0  0  0  0  0  0  0  0  0
   -0.2548   62.3154   77.9905 C   0  0  0  0  0  0  0  0  0  0  0  0
    0.7849   62.3032   77.1014 O   0  0  0  0  0  0  0  0  0  0  0  0
   -1.2102   64.1714   81.0298 C   0  0  0  0  0  0  0  0  0  0  0  0
    1.4891   62.9016   77.3960 H   0  0  0  0  0  0  0  0  0  0  0  0
    0.9338   68.6706   81.7028 C   0  0  0  0  0  0  0  0  0  0  0  0
   -0.0795   68.2845   80.8494 C   0  0  0  0  0  0  0  0  0  0  0  0
   -0.3707   67.0030   80.5299 N   0  0  0  0  0  0  0  0  0  0  0  0
    0.3801   66.0378   81.0856 C   0  0  0  0  0  0  0  0  0  0  0  0
    1.3822   66.3064   81.9336 N   0  0  0  0  0  0  0  0  0  0  0  0
    1.6394   67.6026   82.2164 C   0  0  0  0  0  0  0  0  0  0  0  0
    1.8054   72.7686   82.6599 C   0  0  0  0  0  0  0  0  0  0  0  0
    2.7307   71.7615   82.9421 C   0  0  0  0  0  0  0  0  0  0  0  0
    2.4444   70.4286   82.6290 C   0  0  0  0  0  0  0  0  0  0  0  0
    1.2293   70.0689   82.0288 C   0  0  0  0  0  0  0  0  0  0  0  0
    0.3036   71.0905   81.7485 C   0  0  0  0  0  0  0  0  0  0  0  0
    0.5792   72.4304   82.0566 C   0  0  0  0  0  0  0  0  0  0  0  0
    3.1672   74.4642   83.6521 C   0  0  0  0  0  0  0  0  0  0  0  0
    1.9998   74.1001   82.9299 O   0  0  0  0  0  0  0  0  0  0  0  0
   -0.2762   73.4754   81.8067 O   0  0  0  0  0  0  0  0  0  0  0  0
   -0.7398   73.6521   80.4762 C   0  0  0  0  0  0  0  0  0  0  0  0
   -1.3026   63.5569   82.4202 C   0  0  0  0  0  0  0  0  0  0  0  0
   -2.3360   62.6877   82.7955 C   0  0  0  0  0  0  0  0  0  0  0  0
   -2.3922   62.1532   84.0862 C   0  0  0  0  0  0  0  0  0  0  0  0
   -1.4220   62.4871   85.0351 C   0  0  0  0  0  0  0  0  0  0  0  0
   -0.3879   63.3756   84.6836 C   0  0  0  0  0  0  0  0  0  0  0  0
   -0.3359   63.8979   83.3845 C   0  0  0  0  0  0  0  0  0  0  0  0
   -1.3988   62.0108   86.3232 O   0  0  0  0  0  0  0  0  0  0  0  0
   -2.4806   62.3624   87.1728 C   0  0  0  0  0  0  0  0  0  0  0  0
    0.5240   63.6632   85.6703 O   0  0  0  0  0  0  0  0  0  0  0  0
    1.1123   64.9557   85.6601 C   0  0  0  0  0  0  0  0  0  0  0  0
 28 29  1  0  0  0
 29 22  1  0  0  0
 22 23  1  0  0  0
 23 24  2  0  0  0
 24 25  1  0  0  0
 25 16  1  0  0  0
 16 17  2  0  0  0
 17 18  1  0  0  0
 18 19  2  0  0  0
 19  1  1  0  0  0
  1  2  1  0  0  0
  2  3  1  0  0  0
  3  4  1  0  0  0
  4  5  2  0  0  0
  5  6  1  0  0  0
  6  7  2  0  0  0
  7  8  1  0  0  0
  8  9  2  0  0  0
  9 10  1  0  0  0
 10 11  2  0  0  0
 11 12  1  0  0  0
 12 13  1  0  0  0
  4 14  1  0  0  0
 14 32  1  0  0  0
 32 33  1  0  0  0
 33 34  2  0  0  0
 34 35  1  0  0  0
 35 38  1  0  0  0
 38 39  1  0  0  0
 35 36  2  0  0  0
 36 40  1  0  0  0
 40 41  1  0  0  0
 36 37  1  0  0  0
 19 20  1  0  0  0
 20 21  2  0  0  0
 25 26  2  0  0  0
 26 27  1  0  0  0
 27 30  1  0  0  0
 30 31  1  0  0  0
 27 22  2  0  0  0
 21 16  1  0  0  0
 14  1  1  0  0  0
 37 32  2  0  0  0
 12  3  2  0  0  0
 11  6  1  0  0  0
 13 15  1  0  0  0
M  END
> <minimizedAffinity>
-10.85455

$$$$



 41 46  0  0  0  0  0  0  0  0999 V2000
    1.8284   67.7450   81.6502 N   0  0  0  0  0  0  0  0  0  0  0  0
    1.7233   67.3618   80.2466 C   0  0  0  0  0  0  0  0  0  0  0  0
    1.0457   66.0338   80.2889 C   0  0  0  0  0  0  0  0  0  0  0  0
    0.6596   65.7254   81.5837 C   0  0  0  0  0  0  0  0  0  0  0  0
   -0.0389   64.6255   81.9354 N   0  0  0  0  0  0  0  0  0  0  0  0
   -0.3406   63.7584   80.9526 C   0  0  0  0  0  0  0  0  0  0  0  0
   -1.0391   62.6036   81.2777 C   0  0  0  0  0  0  0  0  0  0  0  0
   -1.3915   61.6567   80.3118 C   0  0  0  0  0  0  0  0  0  0  0  0
   -1.0417   61.8614   78.9835 C   0  0  0  0  0  0  0  0  0  0  0  0
   -0.3403   63.0115   78.6271 C   0  0  0  0  0  0  0  0  0  0  0  0
    0.0200   63.9709   79.5977 C   0  0  0  0  0  0  0  0  0  0  0  0
    0.7274   65.1479   79.2820 C   0  0  0  0  0  0  0  0  0  0  0  0
    1.0731   65.3857   77.9798 O   0  0  0  0  0  0  0  0  0  0  0  0
    1.0885   66.8339   82.5411 C   0  0  0  0  0  0  0  0  0  0  0  0
    1.6201   66.1839   77.9153 H   0  0  0  0  0  0  0  0  0  0  0  0
    1.8847   71.8008   82.4447 C   0  0  0  0  0  0  0  0  0  0  0  0
    0.7507   71.1106   82.0679 C   0  0  0  0  0  0  0  0  0  0  0  0
    0.7061   69.7830   81.8139 N   0  0  0  0  0  0  0  0  0  0  0  0
    1.8481   69.0872   81.9400 C   0  0  0  0  0  0  0  0  0  0  0  0
    3.0015   69.6611   82.3088 N   0  0  0  0  0  0  0  0  0  0  0  0
    2.9973   70.9917   82.5446 C   0  0  0  0  0  0  0  0  0  0  0  0
    1.9380   76.0271   83.2221 C   0  0  0  0  0  0  0  0  0  0  0  0
    0.8987   75.4538   82.4864 C   0  0  0  0  0  0  0  0  0  0  0  0
    0.8838   74.0777   82.2354 C   0  0  0  0  0  0  0  0  0  0  0  0
    1.9046   73.2421   82.7106 C   0  0  0  0  0  0  0  0  0  0  0  0
    2.9472   73.8291   83.4506 C   0  0  0  0  0  0  0  0  0  0  0  0
    2.9730   75.2069   83.7099 C   0  0  0  0  0  0  0  0  0  0  0  0
    1.0368   77.9298   84.3543 C   0  0  0  0  0  0  0  0  0  0  0  0
    2.0352   77.3638   83.5178 O   0  0  0  0  0  0  0  0  0  0  0  0
    3.9564   75.8427   84.4275 O   0  0  0  0  0  0  0  0  0  0  0  0
    5.3057   75.6322   84.0382 C   0  0  0  0  0  0  0  0  0  0  0  0
    1.9419   66.3130   83.6899 C   0  0  0  0  0  0  0  0  0  0  0  0
    3.3196   66.5549   83.7783 C   0  0  0  0  0  0  0  0  0  0  0  0
    4.0710   66.0492   84.8434 C   0  0  0  0  0  0  0  0  0  0  0  0
    3.4625   65.2783   85.8378 C   0  0  0  0  0  0  0  0  0  0  0  0
    2.0835   65.0063   85.7550 C   0  0  0  0  0  0  0  0  0  0  0  0
    1.3384   65.5260   84.6884 C   0  0  0  0  0  0  0  0  0  0  0  0
    4.1213   64.7421   86.9172 O   0  0  0  0  0  0  0  0  0  0  0  0
    5.3982   65.2737   87.2373 C   0  0  0  0  0  0  0  0  0  0  0  0
    1.5574   64.2357   86.7636 O   0  0  0  0  0  0  0  0  0  0  0  0
    0.1640   63.9650   86.7203 C   0  0  0  0  0  0  0  0  0  0  0  0
 28 29  1  0  0  0
 29 22  1  0  0  0
 22 23  1  0  0  0
 23 24  2  0  0  0
 24 25  1  0  0  0
 25 16  1  0  0  0
 16 17  2  0  0  0
 17 18  1  0  0  0
 18 19  2  0  0  0
 19  1  1  0  0  0
  1  2  1  0  0  0
  2  3  1  0  0  0
  3  4  1  0  0  0
  4  5  2  0  0  0
  5  6  1  0  0  0
  6  7  2  0  0  0
  7  8  1  0  0  0
  8  9  2  0  0  0
  9 10  1  0  0  0
 10 11  2  0  0  0
 11 12  1  0  0  0
 12 13  1  0  0  0
  4 14  1  0  0  0
 14 32  1  0  0  0
 32 33  1  0  0  0
 33 34  2  0  0  0
 34 35  1  0  0  0
 35 38  1  0  0  0
 38 39  1  0  0  0
 35 36  2  0  0  0
 36 40  1  0  0  0
 40 41  1  0  0  0
 36 37  1  0  0  0
 19 20  1  0  0  0
 20 21  2  0  0  0
 25 26  2  0  0  0
 26 27  1  0  0  0
 27 30  1  0  0  0
 30 31  1  0  0  0
 27 22  2  0  0  0
 21 16  1  0  0  0
 14  1  1  0  0  0
 37 32  2  0  0  0
 12  3  2  0  0  0
 11  6  1  0  0  0
 13 15  1  0  0  0
M  END
> <minimizedAffinity>
-10.40362

$$$$



 41 46  0  0  0  0  0  0  0  0999 V2000
    1.9595   67.6495   82.1980 N   0  0  0  0  0  0  0  0  0  0  0  0
    1.0632   66.7722   81.4531 C   0  0  0  0  0  0  0  0  0  0  0  0
    0.6556   65.7449   82.4545 C   0  0  0  0  0  0  0  0  0  0  0  0
    1.1510   66.0643   83.7088 C   0  0  0  0  0  0  0  0  0  0  0  0
    0.8945   65.3679   84.8360 N   0  0  0  0  0  0  0  0  0  0  0  0
    0.1331   64.2666   84.7087 C   0  0  0  0  0  0  0  0  0  0  0  0
   -0.1350   63.5105   85.8417 C   0  0  0  0  0  0  0  0  0  0  0  0
   -0.9201   62.3553   85.7903 C   0  0  0  0  0  0  0  0  0  0  0  0
   -1.4563   61.9376   84.5792 C   0  0  0  0  0  0  0  0  0  0  0  0
   -1.2042   62.6763   83.4250 C   0  0  0  0  0  0  0  0  0  0  0  0
   -0.4110   63.8429   83.4696 C   0  0  0  0  0  0  0  0  0  0  0  0
   -0.1319   64.6206   82.3283 C   0  0  0  0  0  0  0  0  0  0  0  0
   -0.6583   64.2436   81.1231 O   0  0  0  0  0  0  0  0  0  0  0  0
    1.9790   67.3445   83.6394 C   0  0  0  0  0  0  0  0  0  0  0  0
   -0.3256   64.8163   80.4145 H   0  0  0  0  0  0  0  0  0  0  0  0
    2.2772   71.5995   81.0232 C   0  0  0  0  0  0  0  0  0  0  0  0
    3.0152   70.5744   80.4677 C   0  0  0  0  0  0  0  0  0  0  0  0
    2.9201   69.2743   80.8279 N   0  0  0  0  0  0  0  0  0  0  0  0
    2.0423   68.9596   81.7946 C   0  0  0  0  0  0  0  0  0  0  0  0
    1.2721   69.8791   82.3921 N   0  0  0  0  0  0  0  0  0  0  0  0
    1.4085   71.1660   82.0029 C   0  0  0  0  0  0  0  0  0  0  0  0
    2.6421   75.7111   79.8269 C   0  0  0  0  0  0  0  0  0  0  0  0
    1.3906   75.0930   79.8707 C   0  0  0  0  0  0  0  0  0  0  0  0
    1.2749   73.7547   80.2610 C   0  0  0  0  0  0  0  0  0  0  0  0
    2.4035   73.0017   80.6151 C   0  0  0  0  0  0  0  0  0  0  0  0
    3.6598   73.6333   80.5677 C   0  0  0  0  0  0  0  0  0  0  0  0
    3.7888   74.9744   80.1792 C   0  0  0  0  0  0  0  0  0  0  0  0
    2.0371   78.0118   80.0611 C   0  0  0  0  0  0  0  0  0  0  0  0
    2.8513   77.0164   79.4583 O   0  0  0  0  0  0  0  0  0  0  0  0
    4.9817   75.6520   80.1153 O   0  0  0  0  0  0  0  0  0  0  0  0
    6.0044   75.2862   81.0299 C   0  0  0  0  0  0  0  0  0  0  0  0
    3.3895   67.1556   84.1816 C   0  0  0  0  0  0  0  0  0  0  0  0
    4.4168   68.0819   83.9554 C   0  0  0  0  0  0  0  0  0  0  0  0
    5.7025   67.8665   84.4606 C   0  0  0  0  0  0  0  0  0  0  0  0
    5.9928   66.7120   85.1930 C   0  0  0  0  0  0  0  0  0  0  0  0
    4.9795   65.7595   85.4125 C   0  0  0  0  0  0  0  0  0  0  0  0
    3.6921   65.9899   84.9098 C   0  0  0  0  0  0  0  0  0  0  0  0
    7.2246   66.4189   85.7254 O   0  0  0  0  0  0  0  0  0  0  0  0
    8.2520   66.0285   84.8269 C   0  0  0  0  0  0  0  0  0  0  0  0
    5.3410   64.6471   86.1336 O   0  0  0  0  0  0  0  0  0  0  0  0
    4.9156   64.5786   87.4868 C   0  0  0  0  0  0  0  0  0  0  0  0
 28 29  1  0  0  0
 29 22  1  0  0  0
 22 23  1  0  0  0
 23 24  2  0  0  0
 24 25  1  0  0  0
 25 16  1  0  0  0
 16 17  2  0  0  0
 17 18  1  0  0  0
 18 19  2  0  0  0
 19  1  1  0  0  0
  1  2  1  0  0  0
  2  3  1  0  0  0
  3  4  1  0  0  0
  4  5  2  0  0  0
  5  6  1  0  0  0
  6  7  2  0  0  0
  7  8  1  0  0  0
  8  9  2  0  0  0
  9 10  1  0  0  0
 10 11  2  0  0  0
 11 12  1  0  0  0
 12 13  1  0  0  0
  4 14  1  0  0  0
 14 32  1  0  0  0
 32 33  1  0  0  0
 33 34  2  0  0  0
 34 35  1  0  0  0
 35 38  1  0  0  0
 38 39  1  0  0  0
 35 36  2  0  0  0
 36 40  1  0  0  0
 40 41  1  0  0  0
 36 37  1  0  0  0
 19 20  1  0  0  0
 20 21  2  0  0  0
 25 26  2  0  0  0
 26 27  1  0  0  0
 27 30  1  0  0  0
 30 31  1  0  0  0
 27 22  2  0  0  0
 21 16  1  0  0  0
 14  1  1  0  0  0
 37 32  2  0  0  0
 12  3  2  0  0  0
 11  6  1  0  0  0
 13 15  1  0  0  0
M  END
> <minimizedAffinity>
-10.36739

$$$$



 41 46  0  0  0  0  0  0  0  0999 V2000
    1.9256   67.6833   82.1690 N   0  0  0  0  0  0  0  0  0  0  0  0
    1.0465   66.7991   81.4118 C   0  0  0  0  0  0  0  0  0  0  0  0
    0.6417   65.7623   82.4046 C   0  0  0  0  0  0  0  0  0  0  0  0
    1.1218   66.0816   83.6649 C   0  0  0  0  0  0  0  0  0  0  0  0
    0.8632   65.3769   84.7865 N   0  0  0  0  0  0  0  0  0  0  0  0
    0.1159   64.2674   84.6471 C   0  0  0  0  0  0  0  0  0  0  0  0
   -0.1537   63.5029   85.7741 C   0  0  0  0  0  0  0  0  0  0  0  0
   -0.9247   62.3388   85.7101 C   0  0  0  0  0  0  0  0  0  0  0  0
   -1.4447   61.9206   84.4921 C   0  0  0  0  0  0  0  0  0  0  0  0
   -1.1907   62.6676   83.3437 C   0  0  0  0  0  0  0  0  0  0  0  0
   -0.4117   63.8433   83.4011 C   0  0  0  0  0  0  0  0  0  0  0  0
   -0.1313   64.6296   82.2659 C   0  0  0  0  0  0  0  0  0  0  0  0
   -0.6421   64.2521   81.0542 O   0  0  0  0  0  0  0  0  0  0  0  0
    1.9353   67.3717   83.6092 C   0  0  0  0  0  0  0  0  0  0  0  0
   -0.3097   64.8320   80.3514 H   0  0  0  0  0  0  0  0  0  0  0  0
    2.2096   71.6412   81.0122 C   0  0  0  0  0  0  0  0  0  0  0  0
    2.9220   70.6181   80.4205 C   0  0  0  0  0  0  0  0  0  0  0  0
    2.8369   69.3156   80.7745 N   0  0  0  0  0  0  0  0  0  0  0  0
    1.9966   68.9962   81.7725 C   0  0  0  0  0  0  0  0  0  0  0  0
    1.2534   69.9133   82.4065 N   0  0  0  0  0  0  0  0  0  0  0  0
    1.3785   71.2027   82.0219 C   0  0  0  0  0  0  0  0  0  0  0  0
    2.5514   75.7596   79.8328 C   0  0  0  0  0  0  0  0  0  0  0  0
    3.6891   75.0169   80.1557 C   0  0  0  0  0  0  0  0  0  0  0  0
    3.5748   73.6764   80.5388 C   0  0  0  0  0  0  0  0  0  0  0  0
    2.3243   73.0461   80.6100 C   0  0  0  0  0  0  0  0  0  0  0  0
    1.1842   73.8026   80.2829 C   0  0  0  0  0  0  0  0  0  0  0  0
    1.2857   75.1467   79.8965 C   0  0  0  0  0  0  0  0  0  0  0  0
    2.9717   78.0418   80.4062 C   0  0  0  0  0  0  0  0  0  0  0  0
    2.5671   77.0764   79.4464 O   0  0  0  0  0  0  0  0  0  0  0  0
    0.2161   75.9399   79.5606 O   0  0  0  0  0  0  0  0  0  0  0  0
   -0.7409   76.2285   80.5692 C   0  0  0  0  0  0  0  0  0  0  0  0
    3.3429   67.1968   84.1635 C   0  0  0  0  0  0  0  0  0  0  0  0
    4.3720   68.1160   83.9176 C   0  0  0  0  0  0  0  0  0  0  0  0
    5.6550   67.9136   84.4350 C   0  0  0  0  0  0  0  0  0  0  0  0
    5.9407   66.7793   85.1999 C   0  0  0  0  0  0  0  0  0  0  0  0
    4.9256   65.8336   85.4399 C   0  0  0  0  0  0  0  0  0  0  0  0
    3.6410   66.0511   84.9246 C   0  0  0  0  0  0  0  0  0  0  0  0
    7.1695   66.5000   85.7463 O   0  0  0  0  0  0  0  0  0  0  0  0
    8.1942   66.0604   84.8675 C   0  0  0  0  0  0  0  0  0  0  0  0
    5.2826   64.7410   86.1927 O   0  0  0  0  0  0  0  0  0  0  0  0
    4.7841   64.6710   87.5206 C   0  0  0  0  0  0  0  0  0  0  0  0
 28 29  1  0  0  0
 29 22  1  0  0  0
 22 23  1  0  0  0
 23 24  2  0  0  0
 24 25  1  0  0  0
 25 16  1  0  0  0
 16 17  2  0  0  0
 17 18  1  0  0  0
 18 19  2  0  0  0
 19  1  1  0  0  0
  1  2  1  0  0  0
  2  3  1  0  0  0
  3  4  1  0  0  0
  4  5  2  0  0  0
  5  6  1  0  0  0
  6  7  2  0  0  0
  7  8  1  0  0  0
  8  9  2  0  0  0
  9 10  1  0  0  0
 10 11  2  0  0  0
 11 12  1  0  0  0
 12 13  1  0  0  0
  4 14  1  0  0  0
 14 32  1  0  0  0
 32 33  1  0  0  0
 33 34  2  0  0  0
 34 35  1  0  0  0
 35 38  1  0  0  0
 38 39  1  0  0  0
 35 36  2  0  0  0
 36 40  1  0  0  0
 40 41  1  0  0  0
 36 37  1  0  0  0
 19 20  1  0  0  0
 20 21  2  0  0  0
 25 26  2  0  0  0
 26 27  1  0  0  0
 27 30  1  0  0  0
 30 31  1  0  0  0
 27 22  2  0  0  0
 21 16  1  0  0  0
 14  1  1  0  0  0
 37 32  2  0  0  0
 12  3  2  0  0  0
 11  6  1  0  0  0
 13 15  1  0  0  0
M  END
> <minimizedAffinity>
-10.30246

$$$$



 41 46  0  0  0  0  0  0  0  0999 V2000
    0.7558   65.5199   80.7048 N   0  0  0  0  0  0  0  0  0  0  0  0
    1.0242   64.8882   79.4177 C   0  0  0  0  0  0  0  0  0  0  0  0
   -0.0023   63.8098   79.3283 C   0  0  0  0  0  0  0  0  0  0  0  0
   -0.8833   63.8868   80.3954 C   0  0  0  0  0  0  0  0  0  0  0  0
   -1.9637   63.0945   80.5581 N   0  0  0  0  0  0  0  0  0  0  0  0
   -2.1634   62.1428   79.6291 C   0  0  0  0  0  0  0  0  0  0  0  0
   -3.2516   61.2929   79.7730 C   0  0  0  0  0  0  0  0  0  0  0  0
   -3.5268   60.2818   78.8480 C   0  0  0  0  0  0  0  0  0  0  0  0
   -2.6986   60.1087   77.7466 C   0  0  0  0  0  0  0  0  0  0  0  0
   -1.5986   60.9467   77.5758 C   0  0  0  0  0  0  0  0  0  0  0  0
   -1.3141   61.9687   78.5069 C   0  0  0  0  0  0  0  0  0  0  0  0
   -0.2143   62.8393   78.3728 C   0  0  0  0  0  0  0  0  0  0  0  0
    0.6114   62.7039   77.2904 O   0  0  0  0  0  0  0  0  0  0  0  0
   -0.4874   65.0300   81.3260 C   0  0  0  0  0  0  0  0  0  0  0  0
    1.3659   63.3092   77.3627 H   0  0  0  0  0  0  0  0  0  0  0  0
    1.7891   69.5077   81.0414 C   0  0  0  0  0  0  0  0  0  0  0  0
    0.7019   69.0572   80.3208 C   0  0  0  0  0  0  0  0  0  0  0  0
    0.3384   67.7596   80.2059 N   0  0  0  0  0  0  0  0  0  0  0  0
    1.0894   66.8451   80.8412 C   0  0  0  0  0  0  0  0  0  0  0  0
    2.1604   67.1791   81.5739 N   0  0  0  0  0  0  0  0  0  0  0  0
    2.4880   68.4878   81.6527 C   0  0  0  0  0  0  0  0  0  0  0  0
    2.8867   73.6517   81.3447 C   0  0  0  0  0  0  0  0  0  0  0  0
    3.7476   72.7315   80.7428 C   0  0  0  0  0  0  0  0  0  0  0  0
    3.3874   71.3834   80.6451 C   0  0  0  0  0  0  0  0  0  0  0  0
    2.1619   70.9215   81.1459 C   0  0  0  0  0  0  0  0  0  0  0  0
    1.3015   71.8560   81.7505 C   0  0  0  0  0  0  0  0  0  0  0  0
    1.6506   73.2102   81.8536 C   0  0  0  0  0  0  0  0  0  0  0  0
    4.2525   75.5235   80.7575 C   0  0  0  0  0  0  0  0  0  0  0  0
    3.1547   74.9905   81.4839 O   0  0  0  0  0  0  0  0  0  0  0  0
    0.8576   74.1740   82.4266 O   0  0  0  0  0  0  0  0  0  0  0  0
   -0.2939   74.5991   81.7126 C   0  0  0  0  0  0  0  0  0  0  0  0
   -0.2844   64.5673   82.7626 C   0  0  0  0  0  0  0  0  0  0  0  0
    0.6132   65.1929   83.6386 C   0  0  0  0  0  0  0  0  0  0  0  0
    0.7798   64.7306   84.9476 C   0  0  0  0  0  0  0  0  0  0  0  0
    0.0611   63.6230   85.4056 C   0  0  0  0  0  0  0  0  0  0  0  0
   -0.8295   62.9679   84.5338 C   0  0  0  0  0  0  0  0  0  0  0  0
   -0.9958   63.4453   83.2271 C   0  0  0  0  0  0  0  0  0  0  0  0
    0.1615   63.1014   86.6723 O   0  0  0  0  0  0  0  0  0  0  0  0
    0.0857   64.0068   87.7631 C   0  0  0  0  0  0  0  0  0  0  0  0
   -1.4943   61.8827   85.0516 O   0  0  0  0  0  0  0  0  0  0  0  0
   -2.8111   62.0945   85.5395 C   0  0  0  0  0  0  0  0  0  0  0  0
 28 29  1  0  0  0
 29 22  1  0  0  0
 22 23  1  0  0  0
 23 24  2  0  0  0
 24 25  1  0  0  0
 25 16  1  0  0  0
 16 17  2  0  0  0
 17 18  1  0  0  0
 18 19  2  0  0  0
 19  1  1  0  0  0
  1  2  1  0  0  0
  2  3  1  0  0  0
  3  4  1  0  0  0
  4  5  2  0  0  0
  5  6  1  0  0  0
  6  7  2  0  0  0
  7  8  1  0  0  0
  8  9  2  0  0  0
  9 10  1  0  0  0
 10 11  2  0  0  0
 11 12  1  0  0  0
 12 13  1  0  0  0
  4 14  1  0  0  0
 14 32  1  0  0  0
 32 33  1  0  0  0
 33 34  2  0  0  0
 34 35  1  0  0  0
 35 38  1  0  0  0
 38 39  1  0  0  0
 35 36  2  0  0  0
 36 40  1  0  0  0
 40 41  1  0  0  0
 36 37  1  0  0  0
 19 20  1  0  0  0
 20 21  2  0  0  0
 25 26  2  0  0  0
 26 27  1  0  0  0
 27 30  1  0  0  0
 30 31  1  0  0  0
 27 22  2  0  0  0
 21 16  1  0  0  0
 14  1  1  0  0  0
 37 32  2  0  0  0
 12  3  2  0  0  0
 11  6  1  0  0  0
 13 15  1  0  0  0
M  END
> <minimizedAffinity>
-10.19115

$$$$



 41 46  0  0  0  0  0  0  0  0999 V2000
    1.7659   67.6967   81.4848 N   0  0  0  0  0  0  0  0  0  0  0  0
    1.6505   67.2769   80.0926 C   0  0  0  0  0  0  0  0  0  0  0  0
    0.9357   65.9702   80.1719 C   0  0  0  0  0  0  0  0  0  0  0  0
    0.5406   65.7098   81.4745 C   0  0  0  0  0  0  0  0  0  0  0  0
   -0.1887   64.6405   81.8566 N   0  0  0  0  0  0  0  0  0  0  0  0
   -0.5145   63.7547   80.8985 C   0  0  0  0  0  0  0  0  0  0  0  0
   -1.2454   62.6297   81.2555 C   0  0  0  0  0  0  0  0  0  0  0  0
   -1.6240   61.6660   80.3166 C   0  0  0  0  0  0  0  0  0  0  0  0
   -1.2682   61.8228   78.9834 C   0  0  0  0  0  0  0  0  0  0  0  0
   -0.5344   62.9420   78.5952 C   0  0  0  0  0  0  0  0  0  0  0  0
   -0.1476   63.9182   79.5385 C   0  0  0  0  0  0  0  0  0  0  0  0
    0.5929   65.0653   79.1902 C   0  0  0  0  0  0  0  0  0  0  0  0
    0.9455   65.2560   77.8822 O   0  0  0  0  0  0  0  0  0  0  0  0
    1.0003   66.8326   82.4004 C   0  0  0  0  0  0  0  0  0  0  0  0
    1.5149   66.0364   77.7956 H   0  0  0  0  0  0  0  0  0  0  0  0
    1.9501   71.7408   82.3186 C   0  0  0  0  0  0  0  0  0  0  0  0
    3.0566   70.9175   82.2744 C   0  0  0  0  0  0  0  0  0  0  0  0
    3.0218   69.5952   81.9930 N   0  0  0  0  0  0  0  0  0  0  0  0
    1.8234   69.0456   81.7363 C   0  0  0  0  0  0  0  0  0  0  0  0
    0.6894   69.7594   81.7453 N   0  0  0  0  0  0  0  0  0  0  0  0
    0.7745   71.0757   82.0391 C   0  0  0  0  0  0  0  0  0  0  0  0
    2.1514   75.9349   83.2338 C   0  0  0  0  0  0  0  0  0  0  0  0
    3.1341   75.0588   83.6995 C   0  0  0  0  0  0  0  0  0  0  0  0
    3.0662   73.6942   83.3996 C   0  0  0  0  0  0  0  0  0  0  0  0
    2.0170   73.1716   82.6300 C   0  0  0  0  0  0  0  0  0  0  0  0
    1.0319   74.0621   82.1656 C   0  0  0  0  0  0  0  0  0  0  0  0
    1.0893   75.4322   82.4586 C   0  0  0  0  0  0  0  0  0  0  0  0
    1.9846   77.7133   84.8224 C   0  0  0  0  0  0  0  0  0  0  0  0
    2.1365   77.2856   83.4767 O   0  0  0  0  0  0  0  0  0  0  0  0
    0.1653   76.3554   82.0342 O   0  0  0  0  0  0  0  0  0  0  0  0
   -0.7115   75.9834   80.9810 C   0  0  0  0  0  0  0  0  0  0  0  0
    1.8383   66.3207   83.5645 C   0  0  0  0  0  0  0  0  0  0  0  0
    3.2134   66.5688   83.6727 C   0  0  0  0  0  0  0  0  0  0  0  0
    3.9506   66.0713   84.7515 C   0  0  0  0  0  0  0  0  0  0  0  0
    3.3303   65.3027   85.7403 C   0  0  0  0  0  0  0  0  0  0  0  0
    1.9538   65.0247   85.6379 C   0  0  0  0  0  0  0  0  0  0  0  0
    1.2228   65.5362   84.5576 C   0  0  0  0  0  0  0  0  0  0  0  0
    3.9748   64.7745   86.8322 O   0  0  0  0  0  0  0  0  0  0  0  0
    5.3897   64.8828   86.8752 C   0  0  0  0  0  0  0  0  0  0  0  0
    1.4155   64.2569   86.6422 O   0  0  0  0  0  0  0  0  0  0  0  0
    0.1731   63.6195   86.3834 C   0  0  0  0  0  0  0  0  0  0  0  0
 28 29  1  0  0  0
 29 22  1  0  0  0
 22 23  1  0  0  0
 23 24  2  0  0  0
 24 25  1  0  0  0
 25 16  1  0  0  0
 16 17  2  0  0  0
 17 18  1  0  0  0
 18 19  2  0  0  0
 19  1  1  0  0  0
  1  2  1  0  0  0
  2  3  1  0  0  0
  3  4  1  0  0  0
  4  5  2  0  0  0
  5  6  1  0  0  0
  6  7  2  0  0  0
  7  8  1  0  0  0
  8  9  2  0  0  0
  9 10  1  0  0  0
 10 11  2  0  0  0
 11 12  1  0  0  0
 12 13  1  0  0  0
  4 14  1  0  0  0
 14 32  1  0  0  0
 32 33  1  0  0  0
 33 34  2  0  0  0
 34 35  1  0  0  0
 35 38  1  0  0  0
 38 39  1  0  0  0
 35 36  2  0  0  0
 36 40  1  0  0  0
 40 41  1  0  0  0
 36 37  1  0  0  0
 19 20  1  0  0  0
 20 21  2  0  0  0
 25 26  2  0  0  0
 26 27  1  0  0  0
 27 30  1  0  0  0
 30 31  1  0  0  0
 27 22  2  0  0  0
 21 16  1  0  0  0
 14  1  1  0  0  0
 37 32  2  0  0  0
 12  3  2  0  0  0
 11  6  1  0  0  0
 13 15  1  0  0  0
M  END
> <minimizedAffinity>
-10.14553

$$$$



 41 46  0  0  0  0  0  0  0  0999 V2000
    1.8670   67.7861   81.5800 N   0  0  0  0  0  0  0  0  0  0  0  0
    1.6865   67.4136   80.1813 C   0  0  0  0  0  0  0  0  0  0  0  0
    1.0430   66.0699   80.2499 C   0  0  0  0  0  0  0  0  0  0  0  0
    0.7424   65.7406   81.5622 C   0  0  0  0  0  0  0  0  0  0  0  0
    0.0915   64.6215   81.9434 N   0  0  0  0  0  0  0  0  0  0  0  0
   -0.2490   63.7568   80.9712 C   0  0  0  0  0  0  0  0  0  0  0  0
   -0.9003   62.5830   81.3253 C   0  0  0  0  0  0  0  0  0  0  0  0
   -1.2885   61.6371   80.3723 C   0  0  0  0  0  0  0  0  0  0  0  0
   -1.0239   61.8622   79.0276 C   0  0  0  0  0  0  0  0  0  0  0  0
   -0.3714   63.0315   78.6421 C   0  0  0  0  0  0  0  0  0  0  0  0
    0.0247   63.9900   79.5995 C   0  0  0  0  0  0  0  0  0  0  0  0
    0.6850   65.1861   79.2546 C   0  0  0  0  0  0  0  0  0  0  0  0
    0.9463   65.4438   77.9366 O   0  0  0  0  0  0  0  0  0  0  0  0
    1.2028   66.8499   82.5039 C   0  0  0  0  0  0  0  0  0  0  0  0
    1.4702   66.2552   77.8479 H   0  0  0  0  0  0  0  0  0  0  0  0
    1.8806   71.8346   82.4126 C   0  0  0  0  0  0  0  0  0  0  0  0
    0.7456   71.1273   82.0725 C   0  0  0  0  0  0  0  0  0  0  0  0
    0.7152   69.8015   81.8071 N   0  0  0  0  0  0  0  0  0  0  0  0
    1.8736   69.1258   81.8823 C   0  0  0  0  0  0  0  0  0  0  0  0
    3.0298   69.7173   82.2124 N   0  0  0  0  0  0  0  0  0  0  0  0
    3.0106   71.0453   82.4616 C   0  0  0  0  0  0  0  0  0  0  0  0
    1.8877   76.0538   83.2296 C   0  0  0  0  0  0  0  0  0  0  0  0
    0.8667   75.4798   82.4692 C   0  0  0  0  0  0  0  0  0  0  0  0
    0.8668   74.1061   82.2053 C   0  0  0  0  0  0  0  0  0  0  0  0
    1.8847   73.2736   82.6920 C   0  0  0  0  0  0  0  0  0  0  0  0
    2.9088   73.8612   83.4569 C   0  0  0  0  0  0  0  0  0  0  0  0
    2.9195   75.2367   83.7292 C   0  0  0  0  0  0  0  0  0  0  0  0
    0.9792   77.9281   84.4026 C   0  0  0  0  0  0  0  0  0  0  0  0
    1.9693   77.3884   83.5393 O   0  0  0  0  0  0  0  0  0  0  0  0
    3.8844   75.8730   84.4710 O   0  0  0  0  0  0  0  0  0  0  0  0
    5.2437   75.6496   84.1262 C   0  0  0  0  0  0  0  0  0  0  0  0
    2.1353   66.3384   83.5939 C   0  0  0  0  0  0  0  0  0  0  0  0
    1.6929   65.5276   84.6481 C   0  0  0  0  0  0  0  0  0  0  0  0
    2.5785   65.0877   85.6366 C   0  0  0  0  0  0  0  0  0  0  0  0
    3.9250   65.4603   85.5996 C   0  0  0  0  0  0  0  0  0  0  0  0
    4.3839   66.2921   84.5604 C   0  0  0  0  0  0  0  0  0  0  0  0
    3.4899   66.7193   83.5698 C   0  0  0  0  0  0  0  0  0  0  0  0
    4.8631   65.0761   86.5263 O   0  0  0  0  0  0  0  0  0  0  0  0
    4.3976   64.6904   87.8108 C   0  0  0  0  0  0  0  0  0  0  0  0
    5.7170   66.6228   84.5944 O   0  0  0  0  0  0  0  0  0  0  0  0
    6.0805   67.8007   85.2997 C   0  0  0  0  0  0  0  0  0  0  0  0
 28 29  1  0  0  0
 29 22  1  0  0  0
 22 23  1  0  0  0
 23 24  2  0  0  0
 24 25  1  0  0  0
 25 16  1  0  0  0
 16 17  2  0  0  0
 17 18  1  0  0  0
 18 19  2  0  0  0
 19  1  1  0  0  0
  1  2  1  0  0  0
  2  3  1  0  0  0
  3  4  1  0  0  0
  4  5  2  0  0  0
  5  6  1  0  0  0
  6  7  2  0  0  0
  7  8  1  0  0  0
  8  9  2  0  0  0
  9 10  1  0  0  0
 10 11  2  0  0  0
 11 12  1  0  0  0
 12 13  1  0  0  0
  4 14  1  0  0  0
 14 32  1  0  0  0
 32 33  1  0  0  0
 33 34  2  0  0  0
 34 35  1  0  0  0
 35 38  1  0  0  0
 38 39  1  0  0  0
 35 36  2  0  0  0
 36 40  1  0  0  0
 40 41  1  0  0  0
 36 37  1  0  0  0
 19 20  1  0  0  0
 20 21  2  0  0  0
 25 26  2  0  0  0
 26 27  1  0  0  0
 27 30  1  0  0  0
 30 31  1  0  0  0
 27 22  2  0  0  0
 21 16  1  0  0  0
 14  1  1  0  0  0
 37 32  2  0  0  0
 12  3  2  0  0  0
 11  6  1  0  0  0
 13 15  1  0  0  0
M  END
> <minimizedAffinity>
-9.95858

$$$$
