


 36 40  0  0  0  0  0  0  0  0999 V2000
    0.5689   65.2138   79.6167 N   0  0  0  0  0  0  0  0  0  0  0  0
    0.7322   66.5845   80.1016 C   0  0  0  0  0  0  0  0  0  0  0  0
    1.5309   66.6426   81.4288 C   0  0  0  0  0  0  0  0  0  0  0  0
    1.2396   65.5815   82.4182 N   0  0  0  0  0  0  0  0  0  0  0  0
   -0.0414   64.8913   82.1080 C   0  0  0  0  0  0  0  0  0  0  0  0
   -0.3439   63.6837   83.0460 C   0  0  0  0  0  0  0  0  0  0  0  0
   -0.0598   64.0329   84.4610 C   0  0  0  0  0  0  0  0  0  0  0  0
    0.7211   65.1232   84.7763 C   0  0  0  0  0  0  0  0  0  0  0  0
    0.8345   65.1779   86.1400 N   0  0  0  0  0  0  0  0  0  0  0  0
    0.1303   64.1402   86.7124 C   0  0  0  0  0  0  0  0  0  0  0  0
   -0.0353   63.7997   88.0602 C   0  0  0  0  0  0  0  0  0  0  0  0
   -0.8089   62.6725   88.3536 C   0  0  0  0  0  0  0  0  0  0  0  0
   -1.3907   61.9163   87.3384 C   0  0  0  0  0  0  0  0  0  0  0  0
   -1.2144   62.2682   85.9951 C   0  0  0  0  0  0  0  0  0  0  0  0
   -0.4419   63.4011   85.6736 C   0  0  0  0  0  0  0  0  0  0  0  0
    1.3163   66.1073   83.8084 C   0  0  0  0  0  0  0  0  0  0  0  0
   -0.1108   64.3824   80.6321 C   0  0  0  0  0  0  0  0  0  0  0  0
    1.3732   65.8603   86.6555 H   0  0  0  0  0  0  0  0  0  0  0  0
    2.7472   66.4732   84.1969 C   0  0  0  0  0  0  0  0  0  0  0  0
    3.1803   67.8082   84.1382 C   0  0  0  0  0  0  0  0  0  0  0  0
    4.4837   68.1484   84.5086 C   0  0  0  0  0  0  0  0  0  0  0  0
    5.3620   67.1567   84.9417 C   0  0  0  0  0  0  0  0  0  0  0  0
    7.1249   67.6204   85.4428 Br  0  0  0  0  0  0  0  0  0  0  0  0
    4.9513   65.8278   85.0085 C   0  0  0  0  0  0  0  0  0  0  0  0
    3.6489   65.4885   84.6380 C   0  0  0  0  0  0  0  0  0  0  0  0
   -0.1028   65.1146   78.3155 C   0  0  0  0  0  0  0  0  0  0  0  0
   -0.1592   63.6750   77.7853 C   0  0  0  0  0  0  0  0  0  0  0  0
   -1.5874   63.1850   77.5186 C   0  0  0  0  0  0  0  0  0  0  0  0
   -2.1212   62.2517   78.6064 C   0  0  0  0  0  0  0  0  0  0  0  0
   -3.3241   61.4512   78.1097 C   0  0  0  0  0  0  0  0  0  0  0  0
   -2.3664   59.2152   78.1732 O   0  0  0  0  0  0  0  0  0  0  0  0
   -3.2482   59.9962   78.5217 C   0  0  0  0  0  0  0  0  0  0  0  0
   -4.2873   59.6064   79.3382 N   0  0  0  0  0  0  0  0  0  0  0  0
   -4.1760   58.2914   79.8535 O   0  0  0  0  0  0  0  0  0  0  0  0
   -4.7796   60.2709   79.9259 H   0  0  0  0  0  0  0  0  0  0  0  0
   -3.3581   57.9624   79.4181 H   0  0  0  0  0  0  0  0  0  0  0  0
 31 32  2  0  0  0
 32 30  1  0  0  0
 30 29  1  0  0  0
 29 28  1  0  0  0
 28 27  1  0  0  0
 27 26  1  0  0  0
 26  1  1  0  0  0
  1  2  1  0  0  0
  2  3  1  0  0  0
  3  4  1  0  0  0
  4  5  1  0  0  0
  5  6  1  0  0  0
  6  7  1  0  0  0
  7  8  2  0  0  0
  8  9  1  0  0  0
  9 10  1  0  0  0
 10 11  2  0  0  0
 11 12  1  0  0  0
 12 13  2  0  0  0
 13 14  1  0  0  0
 14 15  2  0  0  0
  8 16  1  0  0  0
 16 19  1  0  0  0
 19 20  1  0  0  0
 20 21  2  0  0  0
 21 22  1  0  0  0
 22 23  1  0  0  0
 22 24  2  0  0  0
 24 25  1  0  0  0
  5 17  1  0  0  0
 32 33  1  0  0  0
 33 34  1  0  0  0
 17  1  1  0  0  0
 16  4  1  0  0  0
 25 19  2  0  0  0
 15  7  1  0  0  0
 15 10  1  0  0  0
  9 18  1  0  0  0
 33 35  1  0  0  0
 34 36  1  0  0  0
M  END
> <minimizedAffinity>
-11.89987

$$$$



 36 40  0  0  0  0  0  0  0  0999 V2000
   -0.6756   61.9391   79.4297 N   0  0  0  0  0  0  0  0  0  0  0  0
    0.3565   61.4542   80.3463 C   0  0  0  0  0  0  0  0  0  0  0  0
    0.3682   62.2419   81.6813 C   0  0  0  0  0  0  0  0  0  0  0  0
    0.1496   63.7022   81.5846 N   0  0  0  0  0  0  0  0  0  0  0  0
    0.3490   64.1868   80.1922 C   0  0  0  0  0  0  0  0  0  0  0  0
    0.0165   65.6978   80.0025 C   0  0  0  0  0  0  0  0  0  0  0  0
    0.5819   66.5041   81.1138 C   0  0  0  0  0  0  0  0  0  0  0  0
    0.9752   65.9065   82.2911 C   0  0  0  0  0  0  0  0  0  0  0  0
    1.4214   66.8905   83.1327 N   0  0  0  0  0  0  0  0  0  0  0  0
    1.3289   68.1179   82.5118 C   0  0  0  0  0  0  0  0  0  0  0  0
    1.6645   69.3928   82.9827 C   0  0  0  0  0  0  0  0  0  0  0  0
    1.4543   70.4767   82.1247 C   0  0  0  0  0  0  0  0  0  0  0  0
    0.9272   70.2912   80.8485 C   0  0  0  0  0  0  0  0  0  0  0  0
    0.5944   69.0102   80.3926 C   0  0  0  0  0  0  0  0  0  0  0  0
    0.7996   67.9017   81.2367 C   0  0  0  0  0  0  0  0  0  0  0  0
    0.9590   64.4347   82.5963 C   0  0  0  0  0  0  0  0  0  0  0  0
   -0.4830   63.3768   79.1463 C   0  0  0  0  0  0  0  0  0  0  0  0
    1.7482   66.7479   84.0784 H   0  0  0  0  0  0  0  0  0  0  0  0
    0.4664   64.1670   84.0168 C   0  0  0  0  0  0  0  0  0  0  0  0
   -0.6566   63.3524   84.2379 C   0  0  0  0  0  0  0  0  0  0  0  0
   -1.0999   63.0922   85.5369 C   0  0  0  0  0  0  0  0  0  0  0  0
   -0.4226   63.6431   86.6234 C   0  0  0  0  0  0  0  0  0  0  0  0
   -1.0247   63.2885   88.3801 Br  0  0  0  0  0  0  0  0  0  0  0  0
    0.6936   64.4517   86.4253 C   0  0  0  0  0  0  0  0  0  0  0  0
    1.1358   64.7115   85.1270 C   0  0  0  0  0  0  0  0  0  0  0  0
   -0.7855   61.1650   78.1876 C   0  0  0  0  0  0  0  0  0  0  0  0
   -1.6838   59.9290   78.3365 C   0  0  0  0  0  0  0  0  0  0  0  0
   -3.1741   60.2400   78.1554 C   0  0  0  0  0  0  0  0  0  0  0  0
   -3.9085   60.4786   79.4758 C   0  0  0  0  0  0  0  0  0  0  0  0
   -3.2295   59.7420   80.6295 C   0  0  0  0  0  0  0  0  0  0  0  0
   -2.9454   61.7960   81.9026 O   0  0  0  0  0  0  0  0  0  0  0  0
   -3.1642   60.5874   81.8838 C   0  0  0  0  0  0  0  0  0  0  0  0
   -3.3682   59.8648   83.0390 N   0  0  0  0  0  0  0  0  0  0  0  0
   -3.4500   60.6435   84.2197 O   0  0  0  0  0  0  0  0  0  0  0  0
   -3.9050   59.0038   83.0397 H   0  0  0  0  0  0  0  0  0  0  0  0
   -3.2724   61.5514   83.8866 H   0  0  0  0  0  0  0  0  0  0  0  0
 31 32  2  0  0  0
 32 30  1  0  0  0
 30 29  1  0  0  0
 29 28  1  0  0  0
 28 27  1  0  0  0
 27 26  1  0  0  0
 26  1  1  0  0  0
  1  2  1  0  0  0
  2  3  1  0  0  0
  3  4  1  0  0  0
  4  5  1  0  0  0
  5  6  1  0  0  0
  6  7  1  0  0  0
  7  8  2  0  0  0
  8  9  1  0  0  0
  9 10  1  0  0  0
 10 11  2  0  0  0
 11 12  1  0  0  0
 12 13  2  0  0  0
 13 14  1  0  0  0
 14 15  2  0  0  0
  8 16  1  0  0  0
 16 19  1  0  0  0
 19 20  1  0  0  0
 20 21  2  0  0  0
 21 22  1  0  0  0
 22 23  1  0  0  0
 22 24  2  0  0  0
 24 25  1  0  0  0
  5 17  1  0  0  0
 32 33  1  0  0  0
 33 34  1  0  0  0
 17  1  1  0  0  0
 16  4  1  0  0  0
 25 19  2  0  0  0
 15  7  1  0  0  0
 15 10  1  0  0  0
  9 18  1  0  0  0
 33 35  1  0  0  0
 34 36  1  0  0  0
M  END
> <minimizedAffinity>
-10.82956

$$$$



 36 40  0  0  0  0  0  0  0  0999 V2000
    0.8542   64.9149   85.4557 N   0  0  0  0  0  0  0  0  0  0  0  0
    2.1043   65.5427   85.0272 C   0  0  0  0  0  0  0  0  0  0  0  0
    1.9018   66.4683   83.8005 C   0  0  0  0  0  0  0  0  0  0  0  0
    0.9701   65.9836   82.7580 N   0  0  0  0  0  0  0  0  0  0  0  0
    0.7076   64.5265   82.9041 C   0  0  0  0  0  0  0  0  0  0  0  0
   -0.3596   63.9805   81.9077 C   0  0  0  0  0  0  0  0  0  0  0  0
   -0.1287   64.5185   80.5431 C   0  0  0  0  0  0  0  0  0  0  0  0
    0.6675   65.6253   80.3456 C   0  0  0  0  0  0  0  0  0  0  0  0
    0.6707   65.9062   79.0052 N   0  0  0  0  0  0  0  0  0  0  0  0
   -0.1081   64.9901   78.3309 C   0  0  0  0  0  0  0  0  0  0  0  0
   -0.3958   64.8851   76.9649 C   0  0  0  0  0  0  0  0  0  0  0  0
   -1.2357   63.8440   76.5577 C   0  0  0  0  0  0  0  0  0  0  0  0
   -1.7674   62.9466   77.4812 C   0  0  0  0  0  0  0  0  0  0  0  0
   -1.4721   63.0659   78.8443 C   0  0  0  0  0  0  0  0  0  0  0  0
   -0.6262   64.1044   79.2795 C   0  0  0  0  0  0  0  0  0  0  0  0
    1.4328   66.3764   81.3991 C   0  0  0  0  0  0  0  0  0  0  0  0
    0.2597   64.1358   84.3494 C   0  0  0  0  0  0  0  0  0  0  0  0
    1.1505   66.6828   78.5712 H   0  0  0  0  0  0  0  0  0  0  0  0
    1.3399   67.8854   81.1838 C   0  0  0  0  0  0  0  0  0  0  0  0
    0.0957   68.5355   81.2365 C   0  0  0  0  0  0  0  0  0  0  0  0
    0.0092   69.9182   81.0563 C   0  0  0  0  0  0  0  0  0  0  0  0
    1.1660   70.6602   80.8241 C   0  0  0  0  0  0  0  0  0  0  0  0
    1.0457   72.5312   80.5814 Br  0  0  0  0  0  0  0  0  0  0  0  0
    2.4089   70.0347   80.7700 C   0  0  0  0  0  0  0  0  0  0  0  0
    2.4945   68.6531   80.9498 C   0  0  0  0  0  0  0  0  0  0  0  0
    0.9785   64.0997   86.6699 C   0  0  0  0  0  0  0  0  0  0  0  0
   -0.3709   63.8511   87.3582 C   0  0  0  0  0  0  0  0  0  0  0  0
   -0.7738   62.3719   87.3813 C   0  0  0  0  0  0  0  0  0  0  0  0
   -2.2512   62.1409   87.0597 C   0  0  0  0  0  0  0  0  0  0  0  0
   -2.6095   62.6830   85.6767 C   0  0  0  0  0  0  0  0  0  0  0  0
   -1.3222   61.4604   84.0127 O   0  0  0  0  0  0  0  0  0  0  0  0
   -2.3900   61.6535   84.5883 C   0  0  0  0  0  0  0  0  0  0  0  0
   -3.5249   60.9350   84.2813 N   0  0  0  0  0  0  0  0  0  0  0  0
   -3.3250   59.8722   83.3661 O   0  0  0  0  0  0  0  0  0  0  0  0
   -4.2686   60.8010   84.9583 H   0  0  0  0  0  0  0  0  0  0  0  0
   -2.3746   59.9695   83.1337 H   0  0  0  0  0  0  0  0  0  0  0  0
 31 32  2  0  0  0
 32 30  1  0  0  0
 30 29  1  0  0  0
 29 28  1  0  0  0
 28 27  1  0  0  0
 27 26  1  0  0  0
 26  1  1  0  0  0
  1  2  1  0  0  0
  2  3  1  0  0  0
  3  4  1  0  0  0
  4  5  1  0  0  0
  5  6  1  0  0  0
  6  7  1  0  0  0
  7  8  2  0  0  0
  8  9  1  0  0  0
  9 10  1  0  0  0
 10 11  2  0  0  0
 11 12  1  0  0  0
 12 13  2  0  0  0
 13 14  1  0  0  0
 14 15  2  0  0  0
  8 16  1  0  0  0
 16 19  1  0  0  0
 19 20  1  0  0  0
 20 21  2  0  0  0
 21 22  1  0  0  0
 22 23  1  0  0  0
 22 24  2  0  0  0
 24 25  1  0  0  0
  5 17  1  0  0  0
 32 33  1  0  0  0
 33 34  1  0  0  0
 17  1  1  0  0  0
 16  4  1  0  0  0
 25 19  2  0  0  0
 15  7  1  0  0  0
 15 10  1  0  0  0
  9 18  1  0  0  0
 33 35  1  0  0  0
 34 36  1  0  0  0
M  END
> <minimizedAffinity>
-10.63821

$$$$



 36 40  0  0  0  0  0  0  0  0999 V2000
    1.3206   67.4257   80.6181 N   0  0  0  0  0  0  0  0  0  0  0  0
    1.8233   66.2170   79.9648 C   0  0  0  0  0  0  0  0  0  0  0  0
    0.9455   64.9777   80.2756 C   0  0  0  0  0  0  0  0  0  0  0  0
    0.4367   64.8634   81.6605 N   0  0  0  0  0  0  0  0  0  0  0  0
    1.1863   65.7548   82.5862 C   0  0  0  0  0  0  0  0  0  0  0  0
    0.6186   65.7681   84.0378 C   0  0  0  0  0  0  0  0  0  0  0  0
    0.3041   64.3898   84.4920 C   0  0  0  0  0  0  0  0  0  0  0  0
    0.1793   63.3590   83.5866 C   0  0  0  0  0  0  0  0  0  0  0  0
   -0.1411   62.2246   84.2838 N   0  0  0  0  0  0  0  0  0  0  0  0
   -0.2181   62.5066   85.6310 C   0  0  0  0  0  0  0  0  0  0  0  0
   -0.5150   61.6671   86.7112 C   0  0  0  0  0  0  0  0  0  0  0  0
   -0.5299   62.2354   87.9887 C   0  0  0  0  0  0  0  0  0  0  0  0
   -0.2609   63.5894   88.1759 C   0  0  0  0  0  0  0  0  0  0  0  0
    0.0324   64.4167   87.0855 C   0  0  0  0  0  0  0  0  0  0  0  0
    0.0566   63.8676   85.7888 C   0  0  0  0  0  0  0  0  0  0  0  0
    0.3922   63.4425   82.1009 C   0  0  0  0  0  0  0  0  0  0  0  0
    1.2500   67.2325   82.0816 C   0  0  0  0  0  0  0  0  0  0  0  0
   -0.3200   61.3176   83.8752 H   0  0  0  0  0  0  0  0  0  0  0  0
   -0.6683   62.6477   81.3419 C   0  0  0  0  0  0  0  0  0  0  0  0
   -0.2967   61.5696   80.5216 C   0  0  0  0  0  0  0  0  0  0  0  0
   -1.2658   60.8303   79.8389 C   0  0  0  0  0  0  0  0  0  0  0  0
   -2.6126   61.1628   79.9731 C   0  0  0  0  0  0  0  0  0  0  0  0
   -3.9216   60.1600   79.0484 Br  0  0  0  0  0  0  0  0  0  0  0  0
   -3.0015   62.2269   80.7828 C   0  0  0  0  0  0  0  0  0  0  0  0
   -2.0326   62.9653   81.4644 C   0  0  0  0  0  0  0  0  0  0  0  0
    2.0668   68.6437   80.2805 C   0  0  0  0  0  0  0  0  0  0  0  0
    1.9803   69.7153   81.3764 C   0  0  0  0  0  0  0  0  0  0  0  0
    3.3521   70.2329   81.8247 C   0  0  0  0  0  0  0  0  0  0  0  0
    4.1164   69.2416   82.7038 C   0  0  0  0  0  0  0  0  0  0  0  0
    3.3016   68.8489   83.9352 C   0  0  0  0  0  0  0  0  0  0  0  0
    4.1764   66.6036   84.2731 O   0  0  0  0  0  0  0  0  0  0  0  0
    3.9551   67.7280   84.7155 C   0  0  0  0  0  0  0  0  0  0  0  0
    4.2831   68.0819   86.0061 N   0  0  0  0  0  0  0  0  0  0  0  0
    5.0182   67.1043   86.7210 O   0  0  0  0  0  0  0  0  0  0  0  0
    4.4647   69.0464   86.2629 H   0  0  0  0  0  0  0  0  0  0  0  0
    5.0549   66.3582   86.0816 H   0  0  0  0  0  0  0  0  0  0  0  0
 31 32  2  0  0  0
 32 30  1  0  0  0
 30 29  1  0  0  0
 29 28  1  0  0  0
 28 27  1  0  0  0
 27 26  1  0  0  0
 26  1  1  0  0  0
  1  2  1  0  0  0
  2  3  1  0  0  0
  3  4  1  0  0  0
  4  5  1  0  0  0
  5  6  1  0  0  0
  6  7  1  0  0  0
  7  8  2  0  0  0
  8  9  1  0  0  0
  9 10  1  0  0  0
 10 11  2  0  0  0
 11 12  1  0  0  0
 12 13  2  0  0  0
 13 14  1  0  0  0
 14 15  2  0  0  0
  8 16  1  0  0  0
 16 19  1  0  0  0
 19 20  1  0  0  0
 20 21  2  0  0  0
 21 22  1  0  0  0
 22 23  1  0  0  0
 22 24  2  0  0  0
 24 25  1  0  0  0
  5 17  1  0  0  0
 32 33  1  0  0  0
 33 34  1  0  0  0
 17  1  1  0  0  0
 16  4  1  0  0  0
 25 19  2  0  0  0
 15  7  1  0  0  0
 15 10  1  0  0  0
  9 18  1  0  0  0
 33 35  1  0  0  0
 34 36  1  0  0  0
M  END
> <minimizedAffinity>
-10.43543

$$$$



 36 40  0  0  0  0  0  0  0  0999 V2000
    1.7589   67.3808   80.2121 N   0  0  0  0  0  0  0  0  0  0  0  0
    0.4916   67.5703   80.9183 C   0  0  0  0  0  0  0  0  0  0  0  0
   -0.0081   66.2615   81.5816 C   0  0  0  0  0  0  0  0  0  0  0  0
    0.1786   65.0172   80.8027 N   0  0  0  0  0  0  0  0  0  0  0  0
    0.4552   65.3129   79.3712 C   0  0  0  0  0  0  0  0  0  0  0  0
    0.7791   64.0462   78.5224 C   0  0  0  0  0  0  0  0  0  0  0  0
   -0.1634   62.9442   78.8418 C   0  0  0  0  0  0  0  0  0  0  0  0
   -0.9176   62.9715   79.9944 C   0  0  0  0  0  0  0  0  0  0  0  0
   -1.6614   61.8224   80.0366 N   0  0  0  0  0  0  0  0  0  0  0  0
   -1.4037   61.0542   78.9212 C   0  0  0  0  0  0  0  0  0  0  0  0
   -1.9262   59.8116   78.5433 C   0  0  0  0  0  0  0  0  0  0  0  0
   -1.4711   59.2549   77.3441 C   0  0  0  0  0  0  0  0  0  0  0  0
   -0.5296   59.9147   76.5573 C   0  0  0  0  0  0  0  0  0  0  0  0
   -0.0148   61.1559   76.9496 C   0  0  0  0  0  0  0  0  0  0  0  0
   -0.4594   61.7392   78.1519 C   0  0  0  0  0  0  0  0  0  0  0  0
   -0.9557   64.0767   81.0126 C   0  0  0  0  0  0  0  0  0  0  0  0
    1.6253   66.3312   79.1804 C   0  0  0  0  0  0  0  0  0  0  0  0
   -2.2894   61.5590   80.7835 H   0  0  0  0  0  0  0  0  0  0  0  0
   -0.9747   63.5215   82.4352 C   0  0  0  0  0  0  0  0  0  0  0  0
    0.2271   63.3059   83.1300 C   0  0  0  0  0  0  0  0  0  0  0  0
    0.2125   62.8135   84.4373 C   0  0  0  0  0  0  0  0  0  0  0  0
   -1.0035   62.5352   85.0592 C   0  0  0  0  0  0  0  0  0  0  0  0
   -1.0198   61.8697   86.8286 Br  0  0  0  0  0  0  0  0  0  0  0  0
   -2.2056   62.7437   84.3880 C   0  0  0  0  0  0  0  0  0  0  0  0
   -2.1902   63.2354   83.0816 C   0  0  0  0  0  0  0  0  0  0  0  0
    2.3183   68.6131   79.6440 C   0  0  0  0  0  0  0  0  0  0  0  0
    2.3059   69.7833   80.6376 C   0  0  0  0  0  0  0  0  0  0  0  0
    3.4581   69.7303   81.6477 C   0  0  0  0  0  0  0  0  0  0  0  0
    3.0045   69.3852   83.0671 C   0  0  0  0  0  0  0  0  0  0  0  0
    3.4067   67.9610   83.4473 C   0  0  0  0  0  0  0  0  0  0  0  0
    5.6326   67.6924   84.3928 O   0  0  0  0  0  0  0  0  0  0  0  0
    4.4399   67.9383   84.5538 C   0  0  0  0  0  0  0  0  0  0  0  0
    3.9135   68.2163   85.7964 N   0  0  0  0  0  0  0  0  0  0  0  0
    4.8715   68.3383   86.8331 O   0  0  0  0  0  0  0  0  0  0  0  0
    3.0720   68.7725   85.9049 H   0  0  0  0  0  0  0  0  0  0  0  0
    5.7119   68.1231   86.3704 H   0  0  0  0  0  0  0  0  0  0  0  0
 31 32  2  0  0  0
 32 30  1  0  0  0
 30 29  1  0  0  0
 29 28  1  0  0  0
 28 27  1  0  0  0
 27 26  1  0  0  0
 26  1  1  0  0  0
  1  2  1  0  0  0
  2  3  1  0  0  0
  3  4  1  0  0  0
  4  5  1  0  0  0
  5  6  1  0  0  0
  6  7  1  0  0  0
  7  8  2  0  0  0
  8  9  1  0  0  0
  9 10  1  0  0  0
 10 11  2  0  0  0
 11 12  1  0  0  0
 12 13  2  0  0  0
 13 14  1  0  0  0
 14 15  2  0  0  0
  8 16  1  0  0  0
 16 19  1  0  0  0
 19 20  1  0  0  0
 20 21  2  0  0  0
 21 22  1  0  0  0
 22 23  1  0  0  0
 22 24  2  0  0  0
 24 25  1  0  0  0
  5 17  1  0  0  0
 32 33  1  0  0  0
 33 34  1  0  0  0
 17  1  1  0  0  0
 16  4  1  0  0  0
 25 19  2  0  0  0
 15  7  1  0  0  0
 15 10  1  0  0  0
  9 18  1  0  0  0
 33 35  1  0  0  0
 34 36  1  0  0  0
M  END
> <minimizedAffinity>
-10.38648

$$$$



 36 40  0  0  0  0  0  0  0  0999 V2000
    0.0750   66.1952   79.6408 N   0  0  0  0  0  0  0  0  0  0  0  0
   -0.6121   67.4009   80.1041 C   0  0  0  0  0  0  0  0  0  0  0  0
    0.3762   68.4601   80.6556 C   0  0  0  0  0  0  0  0  0  0  0  0
    1.5074   67.9476   81.4603 N   0  0  0  0  0  0  0  0  0  0  0  0
    1.2606   66.5512   81.9103 C   0  0  0  0  0  0  0  0  0  0  0  0
    2.4683   65.9139   82.6620 C   0  0  0  0  0  0  0  0  0  0  0  0
    3.0465   66.8734   83.6366 C   0  0  0  0  0  0  0  0  0  0  0  0
    2.7693   68.2202   83.5514 C   0  0  0  0  0  0  0  0  0  0  0  0
    3.4580   68.8545   84.5508 N   0  0  0  0  0  0  0  0  0  0  0  0
    4.1724   67.9337   85.2872 C   0  0  0  0  0  0  0  0  0  0  0  0
    5.0123   68.1204   86.3916 C   0  0  0  0  0  0  0  0  0  0  0  0
    5.6216   66.9882   86.9412 C   0  0  0  0  0  0  0  0  0  0  0  0
    5.4004   65.7216   86.4049 C   0  0  0  0  0  0  0  0  0  0  0  0
    4.5595   65.5511   85.2990 C   0  0  0  0  0  0  0  0  0  0  0  0
    3.9315   66.6755   84.7290 C   0  0  0  0  0  0  0  0  0  0  0  0
    1.8470   68.8832   82.5668 C   0  0  0  0  0  0  0  0  0  0  0  0
    0.8693   65.5985   80.7349 C   0  0  0  0  0  0  0  0  0  0  0  0
    3.4654   69.8519   84.7145 H   0  0  0  0  0  0  0  0  0  0  0  0
    2.4402   70.1889   82.0418 C   0  0  0  0  0  0  0  0  0  0  0  0
    1.9591   71.4248   82.5049 C   0  0  0  0  0  0  0  0  0  0  0  0
    2.5108   72.6208   82.0389 C   0  0  0  0  0  0  0  0  0  0  0  0
    3.5480   72.5890   81.1084 C   0  0  0  0  0  0  0  0  0  0  0  0
    4.2928   74.2091   80.4803 Br  0  0  0  0  0  0  0  0  0  0  0  0
    4.0400   71.3741   80.6384 C   0  0  0  0  0  0  0  0  0  0  0  0
    3.4881   70.1795   81.1042 C   0  0  0  0  0  0  0  0  0  0  0  0
   -0.8110   65.1994   79.0261 C   0  0  0  0  0  0  0  0  0  0  0  0
   -0.5162   63.7696   79.5010 C   0  0  0  0  0  0  0  0  0  0  0  0
   -1.2572   62.6993   78.6912 C   0  0  0  0  0  0  0  0  0  0  0  0
   -2.5496   62.2226   79.3561 C   0  0  0  0  0  0  0  0  0  0  0  0
   -3.4340   61.4624   78.3688 C   0  0  0  0  0  0  0  0  0  0  0  0
   -2.5256   59.2287   78.0431 O   0  0  0  0  0  0  0  0  0  0  0  0
   -3.3551   59.9641   78.5722 C   0  0  0  0  0  0  0  0  0  0  0  0
   -4.3268   59.4775   79.4192 N   0  0  0  0  0  0  0  0  0  0  0  0
   -4.2005   58.1033   79.7401 O   0  0  0  0  0  0  0  0  0  0  0  0
   -4.7502   60.0607   80.1333 H   0  0  0  0  0  0  0  0  0  0  0  0
   -3.4319   57.8283   79.1921 H   0  0  0  0  0  0  0  0  0  0  0  0
 31 32  2  0  0  0
 32 30  1  0  0  0
 30 29  1  0  0  0
 29 28  1  0  0  0
 28 27  1  0  0  0
 27 26  1  0  0  0
 26  1  1  0  0  0
  1  2  1  0  0  0
  2  3  1  0  0  0
  3  4  1  0  0  0
  4  5  1  0  0  0
  5  6  1  0  0  0
  6  7  1  0  0  0
  7  8  2  0  0  0
  8  9  1  0  0  0
  9 10  1  0  0  0
 10 11  2  0  0  0
 11 12  1  0  0  0
 12 13  2  0  0  0
 13 14  1  0  0  0
 14 15  2  0  0  0
  8 16  1  0  0  0
 16 19  1  0  0  0
 19 20  1  0  0  0
 20 21  2  0  0  0
 21 22  1  0  0  0
 22 23  1  0  0  0
 22 24  2  0  0  0
 24 25  1  0  0  0
  5 17  1  0  0  0
 32 33  1  0  0  0
 33 34  1  0  0  0
 17  1  1  0  0  0
 16  4  1  0  0  0
 25 19  2  0  0  0
 15  7  1  0  0  0
 15 10  1  0  0  0
  9 18  1  0  0  0
 33 35  1  0  0  0
 34 36  1  0  0  0
M  END
> <minimizedAffinity>
-10.31195

$$$$



 36 40  0  0  0  0  0  0  0  0999 V2000
    1.6234   67.6296   81.4541 N   0  0  0  0  0  0  0  0  0  0  0  0
    1.9883   66.4362   80.6904 C   0  0  0  0  0  0  0  0  0  0  0  0
    1.0012   65.2654   80.9305 C   0  0  0  0  0  0  0  0  0  0  0  0
    0.5185   65.0867   82.3179 N   0  0  0  0  0  0  0  0  0  0  0  0
    1.3750   65.8229   83.2863 C   0  0  0  0  0  0  0  0  0  0  0  0
    0.8479   65.7709   84.7523 C   0  0  0  0  0  0  0  0  0  0  0  0
    0.4110   64.3965   85.1056 C   0  0  0  0  0  0  0  0  0  0  0  0
    0.1629   63.4604   84.1257 C   0  0  0  0  0  0  0  0  0  0  0  0
   -0.2497   62.3084   84.7406 N   0  0  0  0  0  0  0  0  0  0  0  0
   -0.2649   62.4846   86.1078 C   0  0  0  0  0  0  0  0  0  0  0  0
   -0.6157   61.5913   87.1270 C   0  0  0  0  0  0  0  0  0  0  0  0
   -0.5426   62.0512   88.4455 C   0  0  0  0  0  0  0  0  0  0  0  0
   -0.1372   63.3532   88.7308 C   0  0  0  0  0  0  0  0  0  0  0  0
    0.2084   64.2356   87.7006 C   0  0  0  0  0  0  0  0  0  0  0  0
    0.1460   63.7953   86.3643 C   0  0  0  0  0  0  0  0  0  0  0  0
    0.3456   63.6452   82.6451 C   0  0  0  0  0  0  0  0  0  0  0  0
    1.5709   67.3242   82.8991 C   0  0  0  0  0  0  0  0  0  0  0  0
   -0.5271   61.4595   84.2673 H   0  0  0  0  0  0  0  0  0  0  0  0
   -0.8065   63.0210   81.8607 C   0  0  0  0  0  0  0  0  0  0  0  0
   -2.1153   63.5088   82.0113 C   0  0  0  0  0  0  0  0  0  0  0  0
   -3.1688   62.9508   81.2829 C   0  0  0  0  0  0  0  0  0  0  0  0
   -2.9206   61.9029   80.3980 C   0  0  0  0  0  0  0  0  0  0  0  0
   -4.3483   61.1505   79.4134 Br  0  0  0  0  0  0  0  0  0  0  0  0
   -1.6301   61.4064   80.2334 C   0  0  0  0  0  0  0  0  0  0  0  0
   -0.5780   61.9643   80.9617 C   0  0  0  0  0  0  0  0  0  0  0  0
    2.4769   68.7941   81.1900 C   0  0  0  0  0  0  0  0  0  0  0  0
    1.8225   69.8056   80.2385 C   0  0  0  0  0  0  0  0  0  0  0  0
    0.2963   69.8622   80.3738 C   0  0  0  0  0  0  0  0  0  0  0  0
   -0.1742   70.6041   81.6259 C   0  0  0  0  0  0  0  0  0  0  0  0
   -0.3670   72.0942   81.3485 C   0  0  0  0  0  0  0  0  0  0  0  0
    0.6101   74.1748   82.1467 O   0  0  0  0  0  0  0  0  0  0  0  0
    0.6265   72.9471   82.1088 C   0  0  0  0  0  0  0  0  0  0  0  0
    1.5855   72.2095   82.7679 N   0  0  0  0  0  0  0  0  0  0  0  0
    2.4484   72.9655   83.5993 O   0  0  0  0  0  0  0  0  0  0  0  0
    1.4114   71.2548   83.0641 H   0  0  0  0  0  0  0  0  0  0  0  0
    2.1491   73.8870   83.4318 H   0  0  0  0  0  0  0  0  0  0  0  0
 31 32  2  0  0  0
 32 30  1  0  0  0
 30 29  1  0  0  0
 29 28  1  0  0  0
 28 27  1  0  0  0
 27 26  1  0  0  0
 26  1  1  0  0  0
  1  2  1  0  0  0
  2  3  1  0  0  0
  3  4  1  0  0  0
  4  5  1  0  0  0
  5  6  1  0  0  0
  6  7  1  0  0  0
  7  8  2  0  0  0
  8  9  1  0  0  0
  9 10  1  0  0  0
 10 11  2  0  0  0
 11 12  1  0  0  0
 12 13  2  0  0  0
 13 14  1  0  0  0
 14 15  2  0  0  0
  8 16  1  0  0  0
 16 19  1  0  0  0
 19 20  1  0  0  0
 20 21  2  0  0  0
 21 22  1  0  0  0
 22 23  1  0  0  0
 22 24  2  0  0  0
 24 25  1  0  0  0
  5 17  1  0  0  0
 32 33  1  0  0  0
 33 34  1  0  0  0
 17  1  1  0  0  0
 16  4  1  0  0  0
 25 19  2  0  0  0
 15  7  1  0  0  0
 15 10  1  0  0  0
  9 18  1  0  0  0
 33 35  1  0  0  0
 34 36  1  0  0  0
M  END
> <minimizedAffinity>
-10.29760

$$$$



 36 40  0  0  0  0  0  0  0  0999 V2000
    1.7674   67.7917   81.3664 N   0  0  0  0  0  0  0  0  0  0  0  0
    2.1241   66.5979   80.5994 C   0  0  0  0  0  0  0  0  0  0  0  0
    1.1248   65.4358   80.8306 C   0  0  0  0  0  0  0  0  0  0  0  0
    0.6346   65.2561   82.2152 N   0  0  0  0  0  0  0  0  0  0  0  0
    1.4940   65.9801   83.1902 C   0  0  0  0  0  0  0  0  0  0  0  0
    0.9603   65.9272   84.6538 C   0  0  0  0  0  0  0  0  0  0  0  0
    0.5088   64.5556   84.9996 C   0  0  0  0  0  0  0  0  0  0  0  0
    0.2558   63.6260   84.0149 C   0  0  0  0  0  0  0  0  0  0  0  0
   -0.1704   62.4755   84.6234 N   0  0  0  0  0  0  0  0  0  0  0  0
   -0.1896   62.6463   85.9912 C   0  0  0  0  0  0  0  0  0  0  0  0
   -0.5532   61.7523   87.0053 C   0  0  0  0  0  0  0  0  0  0  0  0
   -0.4812   62.2062   88.3259 C   0  0  0  0  0  0  0  0  0  0  0  0
   -0.0646   63.5030   88.6183 C   0  0  0  0  0  0  0  0  0  0  0  0
    0.2938   64.3862   87.5931 C   0  0  0  0  0  0  0  0  0  0  0  0
    0.2328   63.9520   86.2547 C   0  0  0  0  0  0  0  0  0  0  0  0
    0.4465   63.8150   82.5359 C   0  0  0  0  0  0  0  0  0  0  0  0
    1.7059   67.4810   82.8100 C   0  0  0  0  0  0  0  0  0  0  0  0
   -0.4539   61.6312   84.1455 H   0  0  0  0  0  0  0  0  0  0  0  0
   -0.7082   63.2051   81.7441 C   0  0  0  0  0  0  0  0  0  0  0  0
   -0.4606   62.2320   80.7617 C   0  0  0  0  0  0  0  0  0  0  0  0
   -1.5162   61.6602   80.0471 C   0  0  0  0  0  0  0  0  0  0  0  0
   -2.8262   62.0561   80.3112 C   0  0  0  0  0  0  0  0  0  0  0  0
   -4.2524   61.2800   79.3430 Br  0  0  0  0  0  0  0  0  0  0  0  0
   -3.0926   63.0179   81.2823 C   0  0  0  0  0  0  0  0  0  0  0  0
   -2.0373   63.5890   81.9957 C   0  0  0  0  0  0  0  0  0  0  0  0
    2.6332   68.9490   81.1106 C   0  0  0  0  0  0  0  0  0  0  0  0
    1.8570   70.1668   80.5899 C   0  0  0  0  0  0  0  0  0  0  0  0
    0.3397   69.9488   80.5608 C   0  0  0  0  0  0  0  0  0  0  0  0
   -0.4142   70.7953   81.5878 C   0  0  0  0  0  0  0  0  0  0  0  0
   -0.5356   72.2475   81.1283 C   0  0  0  0  0  0  0  0  0  0  0  0
    1.1938   72.8827   82.7178 O   0  0  0  0  0  0  0  0  0  0  0  0
    0.2230   73.1953   82.0331 C   0  0  0  0  0  0  0  0  0  0  0  0
   -0.2873   74.4751   82.0317 N   0  0  0  0  0  0  0  0  0  0  0  0
    0.4778   75.4199   82.7592 O   0  0  0  0  0  0  0  0  0  0  0  0
   -0.8024   74.8411   81.2380 H   0  0  0  0  0  0  0  0  0  0  0  0
    1.1900   74.8627   83.1451 H   0  0  0  0  0  0  0  0  0  0  0  0
 31 32  2  0  0  0
 32 30  1  0  0  0
 30 29  1  0  0  0
 29 28  1  0  0  0
 28 27  1  0  0  0
 27 26  1  0  0  0
 26  1  1  0  0  0
  1  2  1  0  0  0
  2  3  1  0  0  0
  3  4  1  0  0  0
  4  5  1  0  0  0
  5  6  1  0  0  0
  6  7  1  0  0  0
  7  8  2  0  0  0
  8  9  1  0  0  0
  9 10  1  0  0  0
 10 11  2  0  0  0
 11 12  1  0  0  0
 12 13  2  0  0  0
 13 14  1  0  0  0
 14 15  2  0  0  0
  8 16  1  0  0  0
 16 19  1  0  0  0
 19 20  1  0  0  0
 20 21  2  0  0  0
 21 22  1  0  0  0
 22 23  1  0  0  0
 22 24  2  0  0  0
 24 25  1  0  0  0
  5 17  1  0  0  0
 32 33  1  0  0  0
 33 34  1  0  0  0
 17  1  1  0  0  0
 16  4  1  0  0  0
 25 19  2  0  0  0
 15  7  1  0  0  0
 15 10  1  0  0  0
  9 18  1  0  0  0
 33 35  1  0  0  0
 34 36  1  0  0  0
M  END
> <minimizedAffinity>
-10.12961

$$$$



 36 40  0  0  0  0  0  0  0  0999 V2000
    1.8166   67.7907   81.4472 N   0  0  0  0  0  0  0  0  0  0  0  0
    2.1740   66.6046   80.6688 C   0  0  0  0  0  0  0  0  0  0  0  0
    1.1606   65.4488   80.8680 C   0  0  0  0  0  0  0  0  0  0  0  0
    0.6474   65.2541   82.2423 N   0  0  0  0  0  0  0  0  0  0  0  0
    1.4984   65.9560   83.2405 C   0  0  0  0  0  0  0  0  0  0  0  0
    0.9417   65.8875   84.6949 C   0  0  0  0  0  0  0  0  0  0  0  0
    0.4723   64.5155   85.0141 C   0  0  0  0  0  0  0  0  0  0  0  0
    0.2259   63.6023   84.0124 C   0  0  0  0  0  0  0  0  0  0  0  0
   -0.2203   62.4474   84.5978 N   0  0  0  0  0  0  0  0  0  0  0  0
   -0.2589   62.5989   85.9674 C   0  0  0  0  0  0  0  0  0  0  0  0
   -0.6464   61.6941   86.9629 C   0  0  0  0  0  0  0  0  0  0  0  0
   -0.5906   62.1285   88.2908 C   0  0  0  0  0  0  0  0  0  0  0  0
   -0.1665   63.4171   88.6081 C   0  0  0  0  0  0  0  0  0  0  0  0
    0.2158   64.3113   87.6012 C   0  0  0  0  0  0  0  0  0  0  0  0
    0.1714   63.8967   86.2560 C   0  0  0  0  0  0  0  0  0  0  0  0
    0.4411   63.8104   82.5393 C   0  0  0  0  0  0  0  0  0  0  0  0
    1.7300   67.4601   82.8851 C   0  0  0  0  0  0  0  0  0  0  0  0
   -0.5042   61.6127   84.1035 H   0  0  0  0  0  0  0  0  0  0  0  0
   -0.7069   63.2228   81.7214 C   0  0  0  0  0  0  0  0  0  0  0  0
   -0.4480   62.3015   80.6930 C   0  0  0  0  0  0  0  0  0  0  0  0
   -1.4972   61.7496   79.9538 C   0  0  0  0  0  0  0  0  0  0  0  0
   -2.8120   62.1138   80.2389 C   0  0  0  0  0  0  0  0  0  0  0  0
   -4.2295   61.3647   79.2372 Br  0  0  0  0  0  0  0  0  0  0  0  0
   -3.0895   63.0241   81.2554 C   0  0  0  0  0  0  0  0  0  0  0  0
   -2.0406   63.5753   81.9934 C   0  0  0  0  0  0  0  0  0  0  0  0
    2.6969   68.9432   81.2213 C   0  0  0  0  0  0  0  0  0  0  0  0
    3.1779   69.5876   82.5291 C   0  0  0  0  0  0  0  0  0  0  0  0
    2.6536   71.0146   82.7279 C   0  0  0  0  0  0  0  0  0  0  0  0
    1.8651   71.5433   81.5286 C   0  0  0  0  0  0  0  0  0  0  0  0
    0.3692   71.6084   81.8331 C   0  0  0  0  0  0  0  0  0  0  0  0
   -1.2908   71.6779   80.0554 O   0  0  0  0  0  0  0  0  0  0  0  0
   -0.4658   71.0405   80.7050 C   0  0  0  0  0  0  0  0  0  0  0  0
   -0.2225   69.7055   80.4659 N   0  0  0  0  0  0  0  0  0  0  0  0
   -0.8843   69.1756   79.3308 O   0  0  0  0  0  0  0  0  0  0  0  0
    0.6676   69.2775   80.6980 H   0  0  0  0  0  0  0  0  0  0  0  0
   -1.4228   69.9392   79.0246 H   0  0  0  0  0  0  0  0  0  0  0  0
 31 32  2  0  0  0
 32 30  1  0  0  0
 30 29  1  0  0  0
 29 28  1  0  0  0
 28 27  1  0  0  0
 27 26  1  0  0  0
 26  1  1  0  0  0
  1  2  1  0  0  0
  2  3  1  0  0  0
  3  4  1  0  0  0
  4  5  1  0  0  0
  5  6  1  0  0  0
  6  7  1  0  0  0
  7  8  2  0  0  0
  8  9  1  0  0  0
  9 10  1  0  0  0
 10 11  2  0  0  0
 11 12  1  0  0  0
 12 13  2  0  0  0
 13 14  1  0  0  0
 14 15  2  0  0  0
  8 16  1  0  0  0
 16 19  1  0  0  0
 19 20  1  0  0  0
 20 21  2  0  0  0
 21 22  1  0  0  0
 22 23  1  0  0  0
 22 24  2  0  0  0
 24 25  1  0  0  0
  5 17  1  0  0  0
 32 33  1  0  0  0
 33 34  1  0  0  0
 17  1  1  0  0  0
 16  4  1  0  0  0
 25 19  2  0  0  0
 15  7  1  0  0  0
 15 10  1  0  0  0
  9 18  1  0  0  0
 33 35  1  0  0  0
 34 36  1  0  0  0
M  END
> <minimizedAffinity>
-9.94500

$$$$
