
     RDKit          3D

 36 39  0  0  0  0  0  0  0  0999 V2000
    4.3359    3.4782    0.8236 O   0  0  0  0  0  0  0  0  0  0  0  0
    4.5584    2.9686   -0.4856 C   0  0  0  0  0  0  0  0  0  0  0  0
    3.9965    1.6010   -0.5358 C   0  0  0  0  0  0  0  0  0  0  0  0
    4.5279    0.3574   -0.7870 C   0  0  0  0  0  0  0  0  0  0  0  0
    3.4540   -0.5628   -0.6729 C   0  0  0  0  0  0  0  0  0  0  0  0
    2.3240    0.1661   -0.3552 C   0  0  0  0  0  0  0  0  0  0  0  0
    0.8600   -0.3544   -0.1110 C   0  0  0  0  0  0  0  0  0  0  0  0
   -0.0958    0.5227    0.2016 N   0  0  0  0  0  0  0  0  0  0  0  0
   -1.2424   -0.1983    0.2555 N   0  0  0  0  0  0  0  0  0  0  0  0
   -2.4840    0.4985    0.3778 C   0  0  0  0  0  0  0  0  0  0  0  0
   -2.4750    1.8318    0.8232 C   0  0  0  0  0  0  0  0  0  0  0  0
   -3.6686    2.5454    0.9544 C   0  0  0  0  0  0  0  0  0  0  0  0
   -4.8799    1.9427    0.6267 C   0  0  0  0  0  0  0  0  0  0  0  0
   -4.8973    0.6316    0.1555 C   0  0  0  0  0  0  0  0  0  0  0  0
   -3.7048   -0.0883    0.0242 C   0  0  0  0  0  0  0  0  0  0  0  0
   -0.9927   -1.5675    0.1644 C   0  0  0  0  0  0  0  0  0  0  0  0
   -1.7981   -2.7092    0.3510 C   0  0  0  0  0  0  0  0  0  0  0  0
   -1.2349   -3.9703    0.1403 C   0  0  0  0  0  0  0  0  0  0  0  0
    0.0965   -4.1010   -0.2275 C   0  0  0  0  0  0  0  0  0  0  0  0
    0.9080   -2.9704   -0.3632 C   0  0  0  0  0  0  0  0  0  0  0  0
    0.3689   -1.6841   -0.1435 C   0  0  0  0  0  0  0  0  0  0  0  0
    2.6645    1.4923   -0.2745 O   0  0  0  0  0  0  0  0  0  0  0  0
    3.4045    3.2732    1.0313 H   0  0  0  0  0  0  0  0  0  0  0  0
    4.0661    3.6244   -1.2096 H   0  0  0  0  0  0  0  0  0  0  0  0
    5.6342    2.9702   -0.6811 H   0  0  0  0  0  0  0  0  0  0  0  0
    5.5613    0.1389   -1.0179 H   0  0  0  0  0  0  0  0  0  0  0  0
    3.5226   -1.6297   -0.8076 H   0  0  0  0  0  0  0  0  0  0  0  0
   -1.5412    2.3268    1.0864 H   0  0  0  0  0  0  0  0  0  0  0  0
   -3.6482    3.5725    1.3098 H   0  0  0  0  0  0  0  0  0  0  0  0
   -5.8082    2.4996    0.7242 H   0  0  0  0  0  0  0  0  0  0  0  0
   -5.8415    0.1722   -0.1272 H   0  0  0  0  0  0  0  0  0  0  0  0
   -3.7657   -1.0784   -0.4121 H   0  0  0  0  0  0  0  0  0  0  0  0
   -2.8297   -2.6403    0.6791 H   0  0  0  0  0  0  0  0  0  0  0  0
   -1.8468   -4.8599    0.2746 H   0  0  0  0  0  0  0  0  0  0  0  0
    0.5193   -5.0901   -0.3879 H   0  0  0  0  0  0  0  0  0  0  0  0
    1.9525   -3.1094   -0.6172 H   0  0  0  0  0  0  0  0  0  0  0  0
  1  2  1  0
  2  3  1  0
  3  4  2  0
  4  5  1  0
  5  6  2  0
  6  7  1  0
  7  8  2  0
  8  9  1  0
  9 10  1  0
 10 11  2  0
 11 12  1  0
 12 13  2  0
 13 14  1  0
 14 15  2  0
  9 16  1  0
 16 17  2  0
 17 18  1  0
 18 19  2  0
 19 20  1  0
 20 21  2  0
  6 22  1  0
 22  3  1  0
 21  7  1  0
 15 10  1  0
 21 16  1  0
  1 23  1  0
  2 24  1  0
  2 25  1  0
  4 26  1  0
  5 27  1  0
 11 28  1  0
 12 29  1  0
 13 30  1  0
 14 31  1  0
 15 32  1  0
 17 33  1  0
 18 34  1  0
 19 35  1  0
 20 36  1  0
M  END
$$$$
