
     RDKit          3D

 64 67  0  0  0  0  0  0  0  0999 V2000
   -2.5577   -3.1238    5.1719 C   0  0  0  0  0  0  0  0  0  0  0  0
   -1.3906   -3.2779    4.2130 C   0  0  0  0  0  0  0  0  0  0  0  0
   -1.1562   -2.0057    3.6047 O   0  0  0  0  0  0  0  0  0  0  0  0
   -0.2258   -1.9328    2.5977 C   0  0  0  0  0  0  0  0  0  0  0  0
    0.6575   -2.9789    2.2956 C   0  0  0  0  0  0  0  0  0  0  0  0
    1.5915   -2.8552    1.2631 C   0  0  0  0  0  0  0  0  0  0  0  0
    1.6678   -1.6820    0.5117 C   0  0  0  0  0  0  0  0  0  0  0  0
    2.6732   -1.5484   -0.6080 C   0  0  0  0  0  0  0  0  0  0  0  0
    2.2580   -2.2833   -1.9014 C   0  0  1  0  0  0  0  0  0  0  0  0
    0.9877   -1.6634   -2.5204 C   0  0  0  0  0  0  0  0  0  0  0  0
    0.9199   -1.8876   -4.0283 C   0  0  0  0  0  0  0  0  0  0  0  0
    2.0911   -1.2041   -4.7564 C   0  0  1  0  0  0  0  0  0  0  0  0
    1.7357    0.2127   -5.2036 C   0  0  0  0  0  0  0  0  0  0  0  0
    0.7010    0.8028   -4.9006 O   0  0  0  0  0  0  0  0  0  0  0  0
    2.6947    0.8055   -5.9984 N   0  0  0  0  0  0  0  0  0  0  0  0
    2.3233    2.0639   -6.5336 O   0  0  0  0  0  0  0  0  0  0  0  0
    3.3749   -1.1765   -3.9072 C   0  0  0  0  0  0  0  0  0  0  0  0
    3.4263   -2.3264   -2.9073 C   0  0  0  0  0  0  0  0  0  0  0  0
    0.7898   -0.6330    0.8117 C   0  0  0  0  0  0  0  0  0  0  0  0
   -0.1577   -0.7379    1.8494 C   0  0  0  0  0  0  0  0  0  0  0  0
   -1.0489    0.4570    2.0751 C   0  0  0  0  0  0  0  0  0  0  0  0
   -1.0445    1.4391    1.2134 N   0  0  0  0  0  0  0  0  0  0  0  0
   -1.9098    2.4852    1.5332 C   0  0  0  0  0  0  0  0  0  0  0  0
   -2.1671    3.6819    0.8452 C   0  0  0  0  0  0  0  0  0  0  0  0
   -1.5749    4.1574   -0.4345 C   0  0  0  0  0  0  0  0  0  0  0  0
   -0.2547    4.8834   -0.2267 C   0  0  0  0  0  0  0  0  0  0  0  0
   -3.0776    4.4223    1.5070 N   0  0  0  0  0  0  0  0  0  0  0  0
   -3.3823    3.6722    2.5956 N   0  0  0  0  0  0  0  0  0  0  0  0
   -4.3493    4.1528    3.5525 C   0  0  0  0  0  0  0  0  0  0  0  0
   -2.6955    2.5005    2.6453 C   0  0  0  0  0  0  0  0  0  0  0  0
   -2.7093    1.4420    3.5854 C   0  0  0  0  0  0  0  0  0  0  0  0
   -3.4011    1.3862    4.5953 O   0  0  0  0  0  0  0  0  0  0  0  0
   -1.8350    0.4435    3.2234 N   0  0  0  0  0  0  0  0  0  0  0  0
   -2.3270   -2.3788    5.9413 H   0  0  0  0  0  0  0  0  0  0  0  0
   -2.7906   -4.0746    5.6601 H   0  0  0  0  0  0  0  0  0  0  0  0
   -3.4482   -2.7675    4.6422 H   0  0  0  0  0  0  0  0  0  0  0  0
   -1.6468   -4.0250    3.4527 H   0  0  0  0  0  0  0  0  0  0  0  0
   -0.5061   -3.5946    4.7769 H   0  0  0  0  0  0  0  0  0  0  0  0
    0.6538   -3.9117    2.8509 H   0  0  0  0  0  0  0  0  0  0  0  0
    2.2632   -3.6853    1.0519 H   0  0  0  0  0  0  0  0  0  0  0  0
    2.8604   -0.4873   -0.8186 H   0  0  0  0  0  0  0  0  0  0  0  0
    3.6299   -1.9470   -0.2438 H   0  0  0  0  0  0  0  0  0  0  0  0
    2.0323   -3.3269   -1.6407 H   0  0  0  0  0  0  0  0  0  0  0  0
    0.9477   -0.5849   -2.3224 H   0  0  0  0  0  0  0  0  0  0  0  0
    0.1012   -2.1011   -2.0459 H   0  0  0  0  0  0  0  0  0  0  0  0
   -0.0460   -1.5412   -4.4128 H   0  0  0  0  0  0  0  0  0  0  0  0
    0.9552   -2.9670   -4.2248 H   0  0  0  0  0  0  0  0  0  0  0  0
    2.2778   -1.7783   -5.6742 H   0  0  0  0  0  0  0  0  0  0  0  0
    3.3206    0.2512   -6.5730 H   0  0  0  0  0  0  0  0  0  0  0  0
    1.4414    2.2148   -6.1248 H   0  0  0  0  0  0  0  0  0  0  0  0
    4.2483   -1.2312   -4.5690 H   0  0  0  0  0  0  0  0  0  0  0  0
    3.4626   -0.2255   -3.3657 H   0  0  0  0  0  0  0  0  0  0  0  0
    3.3817   -3.2727   -3.4630 H   0  0  0  0  0  0  0  0  0  0  0  0
    4.3917   -2.3286   -2.3884 H   0  0  0  0  0  0  0  0  0  0  0  0
    0.8451    0.2823    0.2229 H   0  0  0  0  0  0  0  0  0  0  0  0
   -1.4158    3.3028   -1.1035 H   0  0  0  0  0  0  0  0  0  0  0  0
   -2.2780    4.8260   -0.9458 H   0  0  0  0  0  0  0  0  0  0  0  0
    0.4853    4.2310    0.2490 H   0  0  0  0  0  0  0  0  0  0  0  0
   -0.3843    5.7645    0.4108 H   0  0  0  0  0  0  0  0  0  0  0  0
    0.1518    5.2144   -1.1876 H   0  0  0  0  0  0  0  0  0  0  0  0
   -3.8452    4.2918    4.5121 H   0  0  0  0  0  0  0  0  0  0  0  0
   -4.7618    5.1048    3.2081 H   0  0  0  0  0  0  0  0  0  0  0  0
   -5.1501    3.4142    3.6387 H   0  0  0  0  0  0  0  0  0  0  0  0
   -1.8045   -0.3602    3.8366 H   0  0  0  0  0  0  0  0  0  0  0  0
  1  2  1  0
  2  3  1  0
  3  4  1  0
  4  5  1  0
  5  6  2  0
  6  7  1  0
  7  8  1  0
  8  9  1  0
  9 10  1  0
 10 11  1  0
 11 12  1  0
 12 13  1  0
 13 14  2  0
 13 15  1  0
 15 16  1  0
 12 17  1  0
 17 18  1  0
  7 19  2  0
 19 20  1  0
 20 21  1  0
 21 22  2  0
 22 23  1  0
 23 24  1  0
 24 25  1  0
 25 26  1  0
 24 27  2  0
 27 28  1  0
 28 29  1  0
 28 30  1  0
 30 31  1  0
 31 32  2  0
 31 33  1  0
 20  4  2  0
 33 21  1  0
 18  9  1  0
 30 23  2  0
  1 34  1  0
  1 35  1  0
  1 36  1  0
  2 37  1  0
  2 38  1  0
  5 39  1  0
  6 40  1  0
  8 41  1  0
  8 42  1  0
  9 43  1  1
 10 44  1  0
 10 45  1  0
 11 46  1  0
 11 47  1  0
 12 48  1  6
 15 49  1  0
 16 50  1  0
 17 51  1  0
 17 52  1  0
 18 53  1  0
 18 54  1  0
 19 55  1  0
 25 56  1  0
 25 57  1  0
 26 58  1  0
 26 59  1  0
 26 60  1  0
 29 61  1  0
 29 62  1  0
 29 63  1  0
 33 64  1  0
M  END
$$$$
