


 34 39  0  0  0  0  0  0  0  0999 V2000
    1.8141   67.9874   83.4990 O   0  0  0  0  0  0  0  0  0  0  0  0
    1.6357   67.0974   82.6669 C   0  0  0  0  0  0  0  0  0  0  0  0
    1.3462   65.6397   83.0850 C   0  0  0  0  0  0  0  0  0  0  0  0
    0.6668   65.6777   84.4748 C   0  0  0  0  0  0  0  0  0  0  0  0
    0.2999   64.3032   84.8842 C   0  0  0  0  0  0  0  0  0  0  0  0
    0.0749   63.3276   83.9399 C   0  0  0  0  0  0  0  0  0  0  0  0
   -0.2277   62.1666   84.6027 N   0  0  0  0  0  0  0  0  0  0  0  0
   -0.2118   62.3844   85.9636 C   0  0  0  0  0  0  0  0  0  0  0  0
   -0.4637   61.5006   87.0195 C   0  0  0  0  0  0  0  0  0  0  0  0
   -0.3742   62.0041   88.3208 C   0  0  0  0  0  0  0  0  0  0  0  0
   -0.0463   63.3378   88.5544 C   0  0  0  0  0  0  0  0  0  0  0  0
    0.2023   64.2095   87.4878 C   0  0  0  0  0  0  0  0  0  0  0  0
    0.1180   63.7264   86.1679 C   0  0  0  0  0  0  0  0  0  0  0  0
    0.1492   63.4624   82.4477 C   0  0  0  0  0  0  0  0  0  0  0  0
    0.6063   64.8307   82.0822 N   0  0  0  0  0  0  0  0  0  0  0  0
    1.0282   64.9717   80.7547 C   0  0  0  0  0  0  0  0  0  0  0  0
    0.9984   64.0650   79.9250 O   0  0  0  0  0  0  0  0  0  0  0  0
    1.2866   66.4138   80.3338 C   0  0  0  0  0  0  0  0  0  0  0  0
    1.9267   67.2725   81.3195 N   0  0  0  0  0  0  0  0  0  0  0  0
   -0.4483   61.2810   84.1663 H   0  0  0  0  0  0  0  0  0  0  0  0
   -1.2082   63.1434   81.8204 C   0  0  0  0  0  0  0  0  0  0  0  0
   -2.3563   63.8299   82.2737 C   0  0  0  0  0  0  0  0  0  0  0  0
   -3.6192   63.5657   81.7416 C   0  0  0  0  0  0  0  0  0  0  0  0
   -3.7662   62.6020   80.7510 C   0  0  0  0  0  0  0  0  0  0  0  0
   -2.6522   61.8958   80.3009 C   0  0  0  0  0  0  0  0  0  0  0  0
   -1.3828   62.1565   80.8339 C   0  0  0  0  0  0  0  0  0  0  0  0
    0.0463   61.0849   80.1823 Br  0  0  0  0  0  0  0  0  0  0  0  0
    2.3858   68.5817   80.8604 C   0  0  0  0  0  0  0  0  0  0  0  0
    1.3817   69.6880   81.0890 C   0  0  0  0  0  0  0  0  0  0  0  0
    1.6983   70.7810   81.9100 C   0  0  0  0  0  0  0  0  0  0  0  0
    0.7768   71.8113   82.1054 C   0  0  0  0  0  0  0  0  0  0  0  0
   -0.4690   71.7611   81.4831 C   0  0  0  0  0  0  0  0  0  0  0  0
   -0.7953   70.6810   80.6660 C   0  0  0  0  0  0  0  0  0  0  0  0
    0.1245   69.6500   80.4691 C   0  0  0  0  0  0  0  0  0  0  0  0
  1  2  2  0  0  0
  2  3  1  0  0  0
  3  4  1  0  0  0
  4  5  1  0  0  0
  5  6  2  0  0  0
  6  7  1  0  0  0
  7  8  1  0  0  0
  8  9  2  0  0  0
  9 10  1  0  0  0
 10 11  2  0  0  0
 11 12  1  0  0  0
 12 13  2  0  0  0
  6 14  1  0  0  0
 14 21  1  0  0  0
 21 22  2  0  0  0
 22 23  1  0  0  0
 23 24  2  0  0  0
 24 25  1  0  0  0
 25 26  2  0  0  0
 26 27  1  0  0  0
 14 15  1  0  0  0
 15 16  1  0  0  0
 16 17  2  0  0  0
 16 18  1  0  0  0
 18 19  1  0  0  0
 19 28  1  0  0  0
 28 29  1  0  0  0
 29 30  2  0  0  0
 30 31  1  0  0  0
 31 32  2  0  0  0
 32 33  1  0  0  0
 33 34  2  0  0  0
 19  2  1  0  0  0
 34 29  1  0  0  0
 15  3  1  0  0  0
 13  5  1  0  0  0
 26 21  1  0  0  0
 13  8  1  0  0  0
  7 20  1  0  0  0
M  END
> <minimizedAffinity>
-10.05403

$$$$



 34 39  0  0  0  0  0  0  0  0999 V2000
    0.3048   62.1641   80.2579 O   0  0  0  0  0  0  0  0  0  0  0  0
    0.5280   63.3690   80.3785 C   0  0  0  0  0  0  0  0  0  0  0  0
    0.3086   64.1066   81.7169 C   0  0  0  0  0  0  0  0  0  0  0  0
    0.4843   63.0729   82.8550 C   0  0  0  0  0  0  0  0  0  0  0  0
    0.3584   63.7522   84.1643 C   0  0  0  0  0  0  0  0  0  0  0  0
    0.6406   65.0935   84.2875 C   0  0  0  0  0  0  0  0  0  0  0  0
    0.4238   65.4477   85.5939 N   0  0  0  0  0  0  0  0  0  0  0  0
    0.0159   64.3478   86.3176 C   0  0  0  0  0  0  0  0  0  0  0  0
   -0.3098   64.2333   87.6741 C   0  0  0  0  0  0  0  0  0  0  0  0
   -0.6974   62.9745   88.1432 C   0  0  0  0  0  0  0  0  0  0  0  0
   -0.7558   61.8759   87.2885 C   0  0  0  0  0  0  0  0  0  0  0  0
   -0.4265   62.0062   85.9343 C   0  0  0  0  0  0  0  0  0  0  0  0
   -0.0327   63.2637   85.4379 C   0  0  0  0  0  0  0  0  0  0  0  0
    1.0930   66.0371   83.2127 C   0  0  0  0  0  0  0  0  0  0  0  0
    1.1205   65.3374   81.8994 N   0  0  0  0  0  0  0  0  0  0  0  0
    1.2026   66.1836   80.7871 C   0  0  0  0  0  0  0  0  0  0  0  0
    1.2853   67.4080   80.8607 O   0  0  0  0  0  0  0  0  0  0  0  0
    1.4477   65.4573   79.4696 C   0  0  0  0  0  0  0  0  0  0  0  0
    0.7445   64.1965   79.2833 N   0  0  0  0  0  0  0  0  0  0  0  0
    0.5573   66.3722   85.9821 H   0  0  0  0  0  0  0  0  0  0  0  0
    2.4634   66.6180   83.5623 C   0  0  0  0  0  0  0  0  0  0  0  0
    3.4605   65.7661   84.0868 C   0  0  0  0  0  0  0  0  0  0  0  0
    4.7228   66.2506   84.4329 C   0  0  0  0  0  0  0  0  0  0  0  0
    5.0152   67.5999   84.2726 C   0  0  0  0  0  0  0  0  0  0  0  0
    4.0419   68.4653   83.7765 C   0  0  0  0  0  0  0  0  0  0  0  0
    2.7727   67.9833   83.4298 C   0  0  0  0  0  0  0  0  0  0  0  0
    1.5134   69.2723   82.8232 Br  0  0  0  0  0  0  0  0  0  0  0  0
    0.7868   63.6043   77.9480 C   0  0  0  0  0  0  0  0  0  0  0  0
   -0.4356   62.7804   77.6140 C   0  0  0  0  0  0  0  0  0  0  0  0
   -1.7186   63.3435   77.6901 C   0  0  0  0  0  0  0  0  0  0  0  0
   -2.8454   62.5868   77.3633 C   0  0  0  0  0  0  0  0  0  0  0  0
   -2.7027   61.2616   76.9572 C   0  0  0  0  0  0  0  0  0  0  0  0
   -1.4342   60.6910   76.8781 C   0  0  0  0  0  0  0  0  0  0  0  0
   -0.3064   61.4457   77.2041 C   0  0  0  0  0  0  0  0  0  0  0  0
  1  2  2  0  0  0
  2  3  1  0  0  0
  3  4  1  0  0  0
  4  5  1  0  0  0
  5  6  2  0  0  0
  6  7  1  0  0  0
  7  8  1  0  0  0
  8  9  2  0  0  0
  9 10  1  0  0  0
 10 11  2  0  0  0
 11 12  1  0  0  0
 12 13  2  0  0  0
  6 14  1  0  0  0
 14 21  1  0  0  0
 21 22  2  0  0  0
 22 23  1  0  0  0
 23 24  2  0  0  0
 24 25  1  0  0  0
 25 26  2  0  0  0
 26 27  1  0  0  0
 14 15  1  0  0  0
 15 16  1  0  0  0
 16 17  2  0  0  0
 16 18  1  0  0  0
 18 19  1  0  0  0
 19 28  1  0  0  0
 28 29  1  0  0  0
 29 30  2  0  0  0
 30 31  1  0  0  0
 31 32  2  0  0  0
 32 33  1  0  0  0
 33 34  2  0  0  0
 19  2  1  0  0  0
 34 29  1  0  0  0
 15  3  1  0  0  0
 13  5  1  0  0  0
 26 21  1  0  0  0
 13  8  1  0  0  0
  7 20  1  0  0  0
M  END
> <minimizedAffinity>
-9.89629

$$$$



 34 39  0  0  0  0  0  0  0  0999 V2000
    2.7878   68.4479   79.5693 O   0  0  0  0  0  0  0  0  0  0  0  0
    2.4185   69.2839   80.3945 C   0  0  0  0  0  0  0  0  0  0  0  0
    3.2903   70.5040   80.7618 C   0  0  0  0  0  0  0  0  0  0  0  0
    4.1831   70.8260   79.5395 C   0  0  0  0  0  0  0  0  0  0  0  0
    4.9841   72.0395   79.8177 C   0  0  0  0  0  0  0  0  0  0  0  0
    4.5421   72.9787   80.7213 C   0  0  0  0  0  0  0  0  0  0  0  0
    5.4840   73.9725   80.7853 N   0  0  0  0  0  0  0  0  0  0  0  0
    6.5235   73.6910   79.9251 C   0  0  0  0  0  0  0  0  0  0  0  0
    7.6897   74.4165   79.6548 C   0  0  0  0  0  0  0  0  0  0  0  0
    8.5828   73.8827   78.7209 C   0  0  0  0  0  0  0  0  0  0  0  0
    8.3182   72.6723   78.0839 C   0  0  0  0  0  0  0  0  0  0  0  0
    7.1472   71.9586   78.3644 C   0  0  0  0  0  0  0  0  0  0  0  0
    6.2317   72.4757   79.3010 C   0  0  0  0  0  0  0  0  0  0  0  0
    3.2739   72.9537   81.5222 C   0  0  0  0  0  0  0  0  0  0  0  0
    2.5441   71.6794   81.2806 N   0  0  0  0  0  0  0  0  0  0  0  0
    1.5339   71.3986   82.2083 C   0  0  0  0  0  0  0  0  0  0  0  0
    1.2267   72.1449   83.1356 O   0  0  0  0  0  0  0  0  0  0  0  0
    0.6554   70.2113   81.8312 C   0  0  0  0  0  0  0  0  0  0  0  0
    1.3303   69.0695   81.2316 N   0  0  0  0  0  0  0  0  0  0  0  0
    5.4256   74.8014   81.3622 H   0  0  0  0  0  0  0  0  0  0  0  0
    2.4073   74.1651   81.1771 C   0  0  0  0  0  0  0  0  0  0  0  0
    1.7259   74.1961   79.9403 C   0  0  0  0  0  0  0  0  0  0  0  0
    0.9327   75.2845   79.5739 C   0  0  0  0  0  0  0  0  0  0  0  0
    0.8098   76.3721   80.4304 C   0  0  0  0  0  0  0  0  0  0  0  0
    1.4886   76.3753   81.6477 C   0  0  0  0  0  0  0  0  0  0  0  0
    2.2876   75.2856   82.0184 C   0  0  0  0  0  0  0  0  0  0  0  0
    3.2106   75.4359   83.6739 Br  0  0  0  0  0  0  0  0  0  0  0  0
    0.5492   67.8445   81.0748 C   0  0  0  0  0  0  0  0  0  0  0  0
    0.8073   66.8212   82.1568 C   0  0  0  0  0  0  0  0  0  0  0  0
    1.6131   67.1378   83.2611 C   0  0  0  0  0  0  0  0  0  0  0  0
    1.8355   66.1979   84.2691 C   0  0  0  0  0  0  0  0  0  0  0  0
    1.2558   64.9336   84.1850 C   0  0  0  0  0  0  0  0  0  0  0  0
    0.4541   64.6071   83.0934 C   0  0  0  0  0  0  0  0  0  0  0  0
    0.2303   65.5453   82.0848 C   0  0  0  0  0  0  0  0  0  0  0  0
  1  2  2  0  0  0
  2  3  1  0  0  0
  3  4  1  0  0  0
  4  5  1  0  0  0
  5  6  2  0  0  0
  6  7  1  0  0  0
  7  8  1  0  0  0
  8  9  2  0  0  0
  9 10  1  0  0  0
 10 11  2  0  0  0
 11 12  1  0  0  0
 12 13  2  0  0  0
  6 14  1  0  0  0
 14 21  1  0  0  0
 21 22  2  0  0  0
 22 23  1  0  0  0
 23 24  2  0  0  0
 24 25  1  0  0  0
 25 26  2  0  0  0
 26 27  1  0  0  0
 14 15  1  0  0  0
 15 16  1  0  0  0
 16 17  2  0  0  0
 16 18  1  0  0  0
 18 19  1  0  0  0
 19 28  1  0  0  0
 28 29  1  0  0  0
 29 30  2  0  0  0
 30 31  1  0  0  0
 31 32  2  0  0  0
 32 33  1  0  0  0
 33 34  2  0  0  0
 19  2  1  0  0  0
 34 29  1  0  0  0
 15  3  1  0  0  0
 13  5  1  0  0  0
 26 21  1  0  0  0
 13  8  1  0  0  0
  7 20  1  0  0  0
M  END
> <minimizedAffinity>
-9.14027

$$$$



 34 39  0  0  0  0  0  0  0  0999 V2000
    1.5071   65.6760   85.2626 O   0  0  0  0  0  0  0  0  0  0  0  0
    1.7368   65.9186   84.0775 C   0  0  0  0  0  0  0  0  0  0  0  0
    1.1675   65.0403   82.9426 C   0  0  0  0  0  0  0  0  0  0  0  0
   -0.1427   64.3994   83.4595 C   0  0  0  0  0  0  0  0  0  0  0  0
   -0.7668   63.6066   82.3762 C   0  0  0  0  0  0  0  0  0  0  0  0
   -0.5227   63.9102   81.0562 C   0  0  0  0  0  0  0  0  0  0  0  0
   -1.2125   63.0101   80.2862 N   0  0  0  0  0  0  0  0  0  0  0  0
   -1.9080   62.1362   81.0939 C   0  0  0  0  0  0  0  0  0  0  0  0
   -2.7447   61.0672   80.7526 C   0  0  0  0  0  0  0  0  0  0  0  0
   -3.3264   60.3412   81.7963 C   0  0  0  0  0  0  0  0  0  0  0  0
   -3.0802   60.6729   83.1268 C   0  0  0  0  0  0  0  0  0  0  0  0
   -2.2415   61.7452   83.4522 C   0  0  0  0  0  0  0  0  0  0  0  0
   -1.6441   62.4921   82.4187 C   0  0  0  0  0  0  0  0  0  0  0  0
    0.3436   65.0081   80.5137 C   0  0  0  0  0  0  0  0  0  0  0  0
    1.0201   65.7219   81.6307 N   0  0  0  0  0  0  0  0  0  0  0  0
    2.0925   66.5338   81.2422 C   0  0  0  0  0  0  0  0  0  0  0  0
    2.4451   66.6933   80.0753 O   0  0  0  0  0  0  0  0  0  0  0  0
    2.6360   67.4217   82.3556 C   0  0  0  0  0  0  0  0  0  0  0  0
    2.7118   66.8262   83.6816 N   0  0  0  0  0  0  0  0  0  0  0  0
   -1.2286   62.9926   79.2748 H   0  0  0  0  0  0  0  0  0  0  0  0
   -0.4901   65.9678   79.6643 C   0  0  0  0  0  0  0  0  0  0  0  0
   -1.0125   67.1383   80.2575 C   0  0  0  0  0  0  0  0  0  0  0  0
   -1.7895   68.0392   79.5276 C   0  0  0  0  0  0  0  0  0  0  0  0
   -2.0714   67.7865   78.1903 C   0  0  0  0  0  0  0  0  0  0  0  0
   -1.5851   66.6281   77.5869 C   0  0  0  0  0  0  0  0  0  0  0  0
   -0.8064   65.7201   78.3166 C   0  0  0  0  0  0  0  0  0  0  0  0
   -0.2546   64.1486   77.3995 Br  0  0  0  0  0  0  0  0  0  0  0  0
    3.4356   67.5767   84.7055 C   0  0  0  0  0  0  0  0  0  0  0  0
    4.8056   67.0155   85.0099 C   0  0  0  0  0  0  0  0  0  0  0  0
    4.9839   66.0941   86.0531 C   0  0  0  0  0  0  0  0  0  0  0  0
    6.2466   65.5624   86.3213 C   0  0  0  0  0  0  0  0  0  0  0  0
    7.3430   65.9446   85.5510 C   0  0  0  0  0  0  0  0  0  0  0  0
    7.1790   66.8591   84.5128 C   0  0  0  0  0  0  0  0  0  0  0  0
    5.9175   67.3916   84.2429 C   0  0  0  0  0  0  0  0  0  0  0  0
  1  2  2  0  0  0
  2  3  1  0  0  0
  3  4  1  0  0  0
  4  5  1  0  0  0
  5  6  2  0  0  0
  6  7  1  0  0  0
  7  8  1  0  0  0
  8  9  2  0  0  0
  9 10  1  0  0  0
 10 11  2  0  0  0
 11 12  1  0  0  0
 12 13  2  0  0  0
  6 14  1  0  0  0
 14 21  1  0  0  0
 21 22  2  0  0  0
 22 23  1  0  0  0
 23 24  2  0  0  0
 24 25  1  0  0  0
 25 26  2  0  0  0
 26 27  1  0  0  0
 14 15  1  0  0  0
 15 16  1  0  0  0
 16 17  2  0  0  0
 16 18  1  0  0  0
 18 19  1  0  0  0
 19 28  1  0  0  0
 28 29  1  0  0  0
 29 30  2  0  0  0
 30 31  1  0  0  0
 31 32  2  0  0  0
 32 33  1  0  0  0
 33 34  2  0  0  0
 19  2  1  0  0  0
 34 29  1  0  0  0
 15  3  1  0  0  0
 13  5  1  0  0  0
 26 21  1  0  0  0
 13  8  1  0  0  0
  7 20  1  0  0  0
M  END
> <minimizedAffinity>
-9.08823

$$$$



 34 39  0  0  0  0  0  0  0  0999 V2000
    4.4539   68.7449   85.1682 O   0  0  0  0  0  0  0  0  0  0  0  0
    3.7066   67.8354   84.8067 C   0  0  0  0  0  0  0  0  0  0  0  0
    2.4237   68.1119   83.9936 C   0  0  0  0  0  0  0  0  0  0  0  0
    2.6471   69.4202   83.1977 C   0  0  0  0  0  0  0  0  0  0  0  0
    1.4691   69.6858   82.3414 C   0  0  0  0  0  0  0  0  0  0  0  0
    0.6611   68.6538   81.9218 C   0  0  0  0  0  0  0  0  0  0  0  0
   -0.3467   69.1934   81.1655 N   0  0  0  0  0  0  0  0  0  0  0  0
   -0.1920   70.5605   81.0828 C   0  0  0  0  0  0  0  0  0  0  0  0
   -0.9697   71.5156   80.4177 C   0  0  0  0  0  0  0  0  0  0  0  0
   -0.5702   72.8525   80.5072 C   0  0  0  0  0  0  0  0  0  0  0  0
    0.5619   73.2171   81.2326 C   0  0  0  0  0  0  0  0  0  0  0  0
    1.3298   72.2502   81.8919 C   0  0  0  0  0  0  0  0  0  0  0  0
    0.9482   70.8969   81.8165 C   0  0  0  0  0  0  0  0  0  0  0  0
    0.8109   67.1921   82.2238 C   0  0  0  0  0  0  0  0  0  0  0  0
    1.9506   66.9790   83.1568 N   0  0  0  0  0  0  0  0  0  0  0  0
    1.9816   65.7183   83.7646 C   0  0  0  0  0  0  0  0  0  0  0  0
    1.1676   64.8257   83.5359 O   0  0  0  0  0  0  0  0  0  0  0  0
    3.2606   65.4345   84.5439 C   0  0  0  0  0  0  0  0  0  0  0  0
    3.8152   66.5433   85.3064 N   0  0  0  0  0  0  0  0  0  0  0  0
   -1.0883   68.6720   80.7164 H   0  0  0  0  0  0  0  0  0  0  0  0
    0.9971   66.4015   80.9284 C   0  0  0  0  0  0  0  0  0  0  0  0
    1.9992   66.7987   80.0157 C   0  0  0  0  0  0  0  0  0  0  0  0
    2.2003   66.1173   78.8144 C   0  0  0  0  0  0  0  0  0  0  0  0
    1.3982   65.0290   78.4921 C   0  0  0  0  0  0  0  0  0  0  0  0
    0.3887   64.6297   79.3661 C   0  0  0  0  0  0  0  0  0  0  0  0
    0.1821   65.3123   80.5722 C   0  0  0  0  0  0  0  0  0  0  0  0
   -1.2646   64.7106   81.6494 Br  0  0  0  0  0  0  0  0  0  0  0  0
    4.9018   66.2334   86.2331 C   0  0  0  0  0  0  0  0  0  0  0  0
    6.2672   66.2361   85.5849 C   0  0  0  0  0  0  0  0  0  0  0  0
    6.7205   65.1166   84.8706 C   0  0  0  0  0  0  0  0  0  0  0  0
    7.9743   65.1274   84.2567 C   0  0  0  0  0  0  0  0  0  0  0  0
    8.7873   66.2552   84.3493 C   0  0  0  0  0  0  0  0  0  0  0  0
    8.3488   67.3728   85.0562 C   0  0  0  0  0  0  0  0  0  0  0  0
    7.0956   67.3642   85.6704 C   0  0  0  0  0  0  0  0  0  0  0  0
  1  2  2  0  0  0
  2  3  1  0  0  0
  3  4  1  0  0  0
  4  5  1  0  0  0
  5  6  2  0  0  0
  6  7  1  0  0  0
  7  8  1  0  0  0
  8  9  2  0  0  0
  9 10  1  0  0  0
 10 11  2  0  0  0
 11 12  1  0  0  0
 12 13  2  0  0  0
  6 14  1  0  0  0
 14 21  1  0  0  0
 21 22  2  0  0  0
 22 23  1  0  0  0
 23 24  2  0  0  0
 24 25  1  0  0  0
 25 26  2  0  0  0
 26 27  1  0  0  0
 14 15  1  0  0  0
 15 16  1  0  0  0
 16 17  2  0  0  0
 16 18  1  0  0  0
 18 19  1  0  0  0
 19 28  1  0  0  0
 28 29  1  0  0  0
 29 30  2  0  0  0
 30 31  1  0  0  0
 31 32  2  0  0  0
 32 33  1  0  0  0
 33 34  2  0  0  0
 19  2  1  0  0  0
 34 29  1  0  0  0
 15  3  1  0  0  0
 13  5  1  0  0  0
 26 21  1  0  0  0
 13  8  1  0  0  0
  7 20  1  0  0  0
M  END
> <minimizedAffinity>
-8.98604

$$$$



 34 39  0  0  0  0  0  0  0  0999 V2000
    1.7287   68.6579   79.7051 O   0  0  0  0  0  0  0  0  0  0  0  0
    1.9055   68.7221   80.9220 C   0  0  0  0  0  0  0  0  0  0  0  0
    1.4346   67.6002   81.8723 C   0  0  0  0  0  0  0  0  0  0  0  0
    1.4191   66.2797   81.0657 C   0  0  0  0  0  0  0  0  0  0  0  0
    1.0464   65.1589   81.9582 C   0  0  0  0  0  0  0  0  0  0  0  0
    1.2783   65.2351   83.3126 C   0  0  0  0  0  0  0  0  0  0  0  0
    0.8225   64.0738   83.8804 N   0  0  0  0  0  0  0  0  0  0  0  0
    0.3093   63.2442   82.9066 C   0  0  0  0  0  0  0  0  0  0  0  0
   -0.2546   61.9679   83.0172 C   0  0  0  0  0  0  0  0  0  0  0  0
   -0.6989   61.3521   81.8431 C   0  0  0  0  0  0  0  0  0  0  0  0
   -0.5826   61.9888   80.6094 C   0  0  0  0  0  0  0  0  0  0  0  0
   -0.0158   63.2651   80.5150 C   0  0  0  0  0  0  0  0  0  0  0  0
    0.4396   63.9060   81.6832 C   0  0  0  0  0  0  0  0  0  0  0  0
    1.9015   66.3681   84.0731 C   0  0  0  0  0  0  0  0  0  0  0  0
    2.1786   67.5061   83.1549 N   0  0  0  0  0  0  0  0  0  0  0  0
    2.4461   68.7224   83.7946 C   0  0  0  0  0  0  0  0  0  0  0  0
    2.4929   68.8602   85.0153 O   0  0  0  0  0  0  0  0  0  0  0  0
    2.9383   69.8217   82.8603 C   0  0  0  0  0  0  0  0  0  0  0  0
    2.3024   69.8948   81.5530 N   0  0  0  0  0  0  0  0  0  0  0  0
    0.8673   63.8435   84.8645 H   0  0  0  0  0  0  0  0  0  0  0  0
    3.1756   65.8960   84.7740 C   0  0  0  0  0  0  0  0  0  0  0  0
    4.4318   66.2379   84.2261 C   0  0  0  0  0  0  0  0  0  0  0  0
    5.6230   65.8207   84.8217 C   0  0  0  0  0  0  0  0  0  0  0  0
    5.5871   65.0434   85.9734 C   0  0  0  0  0  0  0  0  0  0  0  0
    4.3602   64.6750   86.5224 C   0  0  0  0  0  0  0  0  0  0  0  0
    3.1619   65.0900   85.9263 C   0  0  0  0  0  0  0  0  0  0  0  0
    1.5553   64.4715   86.7336 Br  0  0  0  0  0  0  0  0  0  0  0  0
    2.5960   71.0712   80.7374 C   0  0  0  0  0  0  0  0  0  0  0  0
    1.6054   72.1975   80.9235 C   0  0  0  0  0  0  0  0  0  0  0  0
    0.3349   71.9485   81.4646 C   0  0  0  0  0  0  0  0  0  0  0  0
   -0.5724   72.9926   81.6533 C   0  0  0  0  0  0  0  0  0  0  0  0
   -0.2204   74.2949   81.3044 C   0  0  0  0  0  0  0  0  0  0  0  0
    1.0379   74.5549   80.7658 C   0  0  0  0  0  0  0  0  0  0  0  0
    1.9464   73.5126   80.5766 C   0  0  0  0  0  0  0  0  0  0  0  0
  1  2  2  0  0  0
  2  3  1  0  0  0
  3  4  1  0  0  0
  4  5  1  0  0  0
  5  6  2  0  0  0
  6  7  1  0  0  0
  7  8  1  0  0  0
  8  9  2  0  0  0
  9 10  1  0  0  0
 10 11  2  0  0  0
 11 12  1  0  0  0
 12 13  2  0  0  0
  6 14  1  0  0  0
 14 21  1  0  0  0
 21 22  2  0  0  0
 22 23  1  0  0  0
 23 24  2  0  0  0
 24 25  1  0  0  0
 25 26  2  0  0  0
 26 27  1  0  0  0
 14 15  1  0  0  0
 15 16  1  0  0  0
 16 17  2  0  0  0
 16 18  1  0  0  0
 18 19  1  0  0  0
 19 28  1  0  0  0
 28 29  1  0  0  0
 29 30  2  0  0  0
 30 31  1  0  0  0
 31 32  2  0  0  0
 32 33  1  0  0  0
 33 34  2  0  0  0
 19  2  1  0  0  0
 34 29  1  0  0  0
 15  3  1  0  0  0
 13  5  1  0  0  0
 26 21  1  0  0  0
 13  8  1  0  0  0
  7 20  1  0  0  0
M  END
> <minimizedAffinity>
-8.90034

$$$$



 34 39  0  0  0  0  0  0  0  0999 V2000
    3.9493   70.0421   80.9375 O   0  0  0  0  0  0  0  0  0  0  0  0
    2.8514   70.5514   81.1643 C   0  0  0  0  0  0  0  0  0  0  0  0
    2.7202   71.9785   81.7384 C   0  0  0  0  0  0  0  0  0  0  0  0
    3.9735   72.7750   81.3031 C   0  0  0  0  0  0  0  0  0  0  0  0
    3.8555   74.1758   81.7671 C   0  0  0  0  0  0  0  0  0  0  0  0
    2.6192   74.7390   81.9873 C   0  0  0  0  0  0  0  0  0  0  0  0
    2.8169   76.0242   82.4211 N   0  0  0  0  0  0  0  0  0  0  0  0
    4.1663   76.3006   82.4725 C   0  0  0  0  0  0  0  0  0  0  0  0
    4.8309   77.4743   82.8466 C   0  0  0  0  0  0  0  0  0  0  0  0
    6.2284   77.4695   82.8023 C   0  0  0  0  0  0  0  0  0  0  0  0
    6.9307   76.3358   82.3993 C   0  0  0  0  0  0  0  0  0  0  0  0
    6.2517   75.1696   82.0276 C   0  0  0  0  0  0  0  0  0  0  0  0
    4.8442   75.1496   82.0635 C   0  0  0  0  0  0  0  0  0  0  0  0
    1.2752   74.0966   81.8105 C   0  0  0  0  0  0  0  0  0  0  0  0
    1.4401   72.6671   81.4307 N   0  0  0  0  0  0  0  0  0  0  0  0
    0.2833   71.8896   81.5617 C   0  0  0  0  0  0  0  0  0  0  0  0
   -0.8050   72.3334   81.9225 O   0  0  0  0  0  0  0  0  0  0  0  0
    0.4038   70.4902   80.9693 C   0  0  0  0  0  0  0  0  0  0  0  0
    1.6759   69.8104   81.1648 N   0  0  0  0  0  0  0  0  0  0  0  0
    2.0871   76.6846   82.6545 H   0  0  0  0  0  0  0  0  0  0  0  0
    0.4586   74.8589   80.7666 C   0  0  0  0  0  0  0  0  0  0  0  0
    0.6693   74.5914   79.3958 C   0  0  0  0  0  0  0  0  0  0  0  0
   -0.0420   75.2693   78.4047 C   0  0  0  0  0  0  0  0  0  0  0  0
   -0.9734   76.2379   78.7596 C   0  0  0  0  0  0  0  0  0  0  0  0
   -1.1851   76.5354   80.1047 C   0  0  0  0  0  0  0  0  0  0  0  0
   -0.4716   75.8586   81.1028 C   0  0  0  0  0  0  0  0  0  0  0  0
   -0.8045   76.3971   82.8956 Br  0  0  0  0  0  0  0  0  0  0  0  0
    1.7333   68.3946   80.8074 C   0  0  0  0  0  0  0  0  0  0  0  0
    1.5053   67.4666   81.9784 C   0  0  0  0  0  0  0  0  0  0  0  0
    0.7481   66.2953   81.8240 C   0  0  0  0  0  0  0  0  0  0  0  0
    0.5539   65.4295   82.9018 C   0  0  0  0  0  0  0  0  0  0  0  0
    1.1137   65.7238   84.1434 C   0  0  0  0  0  0  0  0  0  0  0  0
    1.8671   66.8838   84.3094 C   0  0  0  0  0  0  0  0  0  0  0  0
    2.0627   67.7506   83.2333 C   0  0  0  0  0  0  0  0  0  0  0  0
  1  2  2  0  0  0
  2  3  1  0  0  0
  3  4  1  0  0  0
  4  5  1  0  0  0
  5  6  2  0  0  0
  6  7  1  0  0  0
  7  8  1  0  0  0
  8  9  2  0  0  0
  9 10  1  0  0  0
 10 11  2  0  0  0
 11 12  1  0  0  0
 12 13  2  0  0  0
  6 14  1  0  0  0
 14 21  1  0  0  0
 21 22  2  0  0  0
 22 23  1  0  0  0
 23 24  2  0  0  0
 24 25  1  0  0  0
 25 26  2  0  0  0
 26 27  1  0  0  0
 14 15  1  0  0  0
 15 16  1  0  0  0
 16 17  2  0  0  0
 16 18  1  0  0  0
 18 19  1  0  0  0
 19 28  1  0  0  0
 28 29  1  0  0  0
 29 30  2  0  0  0
 30 31  1  0  0  0
 31 32  2  0  0  0
 32 33  1  0  0  0
 33 34  2  0  0  0
 19  2  1  0  0  0
 34 29  1  0  0  0
 15  3  1  0  0  0
 13  5  1  0  0  0
 26 21  1  0  0  0
 13  8  1  0  0  0
  7 20  1  0  0  0
M  END
> <minimizedAffinity>
-8.78123

$$$$



 34 39  0  0  0  0  0  0  0  0999 V2000
   -1.5638   64.1450   79.7906 O   0  0  0  0  0  0  0  0  0  0  0  0
   -1.1471   63.4376   80.7084 C   0  0  0  0  0  0  0  0  0  0  0  0
   -0.0685   63.9362   81.6939 C   0  0  0  0  0  0  0  0  0  0  0  0
   -0.1789   65.4780   81.7676 C   0  0  0  0  0  0  0  0  0  0  0  0
    0.7879   65.9965   82.7616 C   0  0  0  0  0  0  0  0  0  0  0  0
    1.2206   65.2018   83.7985 C   0  0  0  0  0  0  0  0  0  0  0  0
    2.1116   65.9323   84.5410 N   0  0  0  0  0  0  0  0  0  0  0  0
    2.2503   67.1932   84.0017 C   0  0  0  0  0  0  0  0  0  0  0  0
    3.0384   68.2705   84.4231 C   0  0  0  0  0  0  0  0  0  0  0  0
    2.9803   69.4483   83.6719 C   0  0  0  0  0  0  0  0  0  0  0  0
    2.1660   69.5428   82.5455 C   0  0  0  0  0  0  0  0  0  0  0  0
    1.3831   68.4568   82.1370 C   0  0  0  0  0  0  0  0  0  0  0  0
    1.4240   67.2597   82.8773 C   0  0  0  0  0  0  0  0  0  0  0  0
    0.8258   63.7849   84.0933 C   0  0  0  0  0  0  0  0  0  0  0  0
   -0.0747   63.2743   83.0241 N   0  0  0  0  0  0  0  0  0  0  0  0
   -0.2391   61.8840   83.0118 C   0  0  0  0  0  0  0  0  0  0  0  0
    0.2761   61.1246   83.8299 O   0  0  0  0  0  0  0  0  0  0  0  0
   -1.3238   61.3941   82.0595 C   0  0  0  0  0  0  0  0  0  0  0  0
   -1.4177   62.0763   80.7772 N   0  0  0  0  0  0  0  0  0  0  0  0
    2.5883   65.6087   85.3725 H   0  0  0  0  0  0  0  0  0  0  0  0
    0.1628   63.6965   85.4681 C   0  0  0  0  0  0  0  0  0  0  0  0
   -1.2234   63.4382   85.5504 C   0  0  0  0  0  0  0  0  0  0  0  0
   -1.8771   63.3604   86.7811 C   0  0  0  0  0  0  0  0  0  0  0  0
   -1.1629   63.5488   87.9584 C   0  0  0  0  0  0  0  0  0  0  0  0
    0.2020   63.8255   87.9038 C   0  0  0  0  0  0  0  0  0  0  0  0
    0.8616   63.9066   86.6702 C   0  0  0  0  0  0  0  0  0  0  0  0
    2.7097   64.3506   86.7250 Br  0  0  0  0  0  0  0  0  0  0  0  0
   -2.2911   61.4780   79.7699 C   0  0  0  0  0  0  0  0  0  0  0  0
   -1.5430   60.8797   78.6007 C   0  0  0  0  0  0  0  0  0  0  0  0
   -1.6335   59.5073   78.3224 C   0  0  0  0  0  0  0  0  0  0  0  0
   -0.9569   58.9592   77.2312 C   0  0  0  0  0  0  0  0  0  0  0  0
   -0.1842   59.7751   76.4072 C   0  0  0  0  0  0  0  0  0  0  0  0
   -0.0861   61.1391   76.6734 C   0  0  0  0  0  0  0  0  0  0  0  0
   -0.7619   61.6891   77.7636 C   0  0  0  0  0  0  0  0  0  0  0  0
  1  2  2  0  0  0
  2  3  1  0  0  0
  3  4  1  0  0  0
  4  5  1  0  0  0
  5  6  2  0  0  0
  6  7  1  0  0  0
  7  8  1  0  0  0
  8  9  2  0  0  0
  9 10  1  0  0  0
 10 11  2  0  0  0
 11 12  1  0  0  0
 12 13  2  0  0  0
  6 14  1  0  0  0
 14 21  1  0  0  0
 21 22  2  0  0  0
 22 23  1  0  0  0
 23 24  2  0  0  0
 24 25  1  0  0  0
 25 26  2  0  0  0
 26 27  1  0  0  0
 14 15  1  0  0  0
 15 16  1  0  0  0
 16 17  2  0  0  0
 16 18  1  0  0  0
 18 19  1  0  0  0
 19 28  1  0  0  0
 28 29  1  0  0  0
 29 30  2  0  0  0
 30 31  1  0  0  0
 31 32  2  0  0  0
 32 33  1  0  0  0
 33 34  2  0  0  0
 19  2  1  0  0  0
 34 29  1  0  0  0
 15  3  1  0  0  0
 13  5  1  0  0  0
 26 21  1  0  0  0
 13  8  1  0  0  0
  7 20  1  0  0  0
M  END
> <minimizedAffinity>
-8.74089

$$$$



 34 39  0  0  0  0  0  0  0  0999 V2000
    3.3172   71.3061   82.8010 O   0  0  0  0  0  0  0  0  0  0  0  0
    2.2688   71.2415   82.1584 C   0  0  0  0  0  0  0  0  0  0  0  0
    1.2246   72.3782   82.1899 C   0  0  0  0  0  0  0  0  0  0  0  0
    1.9766   73.6960   82.4942 C   0  0  0  0  0  0  0  0  0  0  0  0
    1.0243   74.8289   82.4585 C   0  0  0  0  0  0  0  0  0  0  0  0
   -0.1287   74.7514   81.7112 C   0  0  0  0  0  0  0  0  0  0  0  0
   -0.8152   75.9259   81.8793 N   0  0  0  0  0  0  0  0  0  0  0  0
   -0.1129   76.7649   82.7176 C   0  0  0  0  0  0  0  0  0  0  0  0
   -0.4207   78.0556   83.1633 C   0  0  0  0  0  0  0  0  0  0  0  0
    0.4898   78.6785   84.0223 C   0  0  0  0  0  0  0  0  0  0  0  0
    1.6604   78.0350   84.4178 C   0  0  0  0  0  0  0  0  0  0  0  0
    1.9545   76.7443   83.9630 C   0  0  0  0  0  0  0  0  0  0  0  0
    1.0534   76.0960   83.0967 C   0  0  0  0  0  0  0  0  0  0  0  0
   -0.5955   73.6055   80.8630 C   0  0  0  0  0  0  0  0  0  0  0  0
    0.3422   72.4577   80.9972 N   0  0  0  0  0  0  0  0  0  0  0  0
   -0.1554   71.2372   80.5253 C   0  0  0  0  0  0  0  0  0  0  0  0
   -1.2598   71.1023   80.0022 O   0  0  0  0  0  0  0  0  0  0  0  0
    0.8828   70.1225   80.4674 C   0  0  0  0  0  0  0  0  0  0  0  0
    1.8308   70.0612   81.5702 N   0  0  0  0  0  0  0  0  0  0  0  0
   -1.6981   76.1583   81.4436 H   0  0  0  0  0  0  0  0  0  0  0  0
   -0.7290   74.0473   79.4054 C   0  0  0  0  0  0  0  0  0  0  0  0
    0.3626   74.6842   78.7747 C   0  0  0  0  0  0  0  0  0  0  0  0
    0.2859   75.1170   77.4501 C   0  0  0  0  0  0  0  0  0  0  0  0
   -0.8869   74.9326   76.7274 C   0  0  0  0  0  0  0  0  0  0  0  0
   -1.9855   74.3255   77.3332 C   0  0  0  0  0  0  0  0  0  0  0  0
   -1.9134   73.8914   78.6635 C   0  0  0  0  0  0  0  0  0  0  0  0
   -3.4970   73.1350   79.3950 Br  0  0  0  0  0  0  0  0  0  0  0  0
    2.6805   68.8750   81.6494 C   0  0  0  0  0  0  0  0  0  0  0  0
    2.0373   67.7194   82.3812 C   0  0  0  0  0  0  0  0  0  0  0  0
    2.2219   67.5579   83.7628 C   0  0  0  0  0  0  0  0  0  0  0  0
    1.6121   66.5008   84.4407 C   0  0  0  0  0  0  0  0  0  0  0  0
    0.8121   65.5953   83.7468 C   0  0  0  0  0  0  0  0  0  0  0  0
    0.6214   65.7447   82.3748 C   0  0  0  0  0  0  0  0  0  0  0  0
    1.2299   66.8009   81.6952 C   0  0  0  0  0  0  0  0  0  0  0  0
  1  2  2  0  0  0
  2  3  1  0  0  0
  3  4  1  0  0  0
  4  5  1  0  0  0
  5  6  2  0  0  0
  6  7  1  0  0  0
  7  8  1  0  0  0
  8  9  2  0  0  0
  9 10  1  0  0  0
 10 11  2  0  0  0
 11 12  1  0  0  0
 12 13  2  0  0  0
  6 14  1  0  0  0
 14 21  1  0  0  0
 21 22  2  0  0  0
 22 23  1  0  0  0
 23 24  2  0  0  0
 24 25  1  0  0  0
 25 26  2  0  0  0
 26 27  1  0  0  0
 14 15  1  0  0  0
 15 16  1  0  0  0
 16 17  2  0  0  0
 16 18  1  0  0  0
 18 19  1  0  0  0
 19 28  1  0  0  0
 28 29  1  0  0  0
 29 30  2  0  0  0
 30 31  1  0  0  0
 31 32  2  0  0  0
 32 33  1  0  0  0
 33 34  2  0  0  0
 19  2  1  0  0  0
 34 29  1  0  0  0
 15  3  1  0  0  0
 13  5  1  0  0  0
 26 21  1  0  0  0
 13  8  1  0  0  0
  7 20  1  0  0  0
M  END
> <minimizedAffinity>
-8.42628

$$$$
