
     RDKit          3D

 65 68  0  0  0  0  0  0  0  0999 V2000
    3.4415    6.9333    0.6260 C   0  0  0  0  0  0  0  0  0  0  0  0
    3.8844    5.5283    0.2597 C   0  0  0  0  0  0  0  0  0  0  0  0
    2.6987    4.6189   -0.0376 C   0  0  0  0  0  0  0  0  0  0  0  0
    3.2036    3.3267   -0.3746 O   0  0  0  0  0  0  0  0  0  0  0  0
    2.1718    2.3849   -0.6752 C   0  0  0  0  0  0  0  0  0  0  0  0
    1.6248    1.7235    0.5937 C   0  0  0  0  0  0  0  0  0  0  0  0
    0.5448    0.7883    0.3142 N   0  0  0  0  0  0  0  0  0  0  0  0
   -0.7616    1.2346    0.2699 C   0  0  0  0  0  0  0  0  0  0  0  0
   -1.1268    2.3874    0.4804 O   0  0  0  0  0  0  0  0  0  0  0  0
   -1.8515    0.1833   -0.0610 C   0  0  0  0  0  0  0  0  0  0  0  0
   -3.1551    0.6438   -0.0830 N   0  0  0  0  0  0  0  0  0  0  0  0
   -4.2944   -0.2539    0.0160 C   0  0  0  0  0  0  0  0  0  0  0  0
   -5.6111    0.5217   -0.2100 C   0  0  0  0  0  0  0  0  0  0  0  0
   -6.8712   -0.2241   -0.1063 N   0  0  0  0  0  0  0  0  0  0  0  0
   -7.0821   -1.1764   -1.2105 C   0  0  0  0  0  0  0  0  0  0  0  0
   -8.2249   -2.1510   -0.8862 C   0  0  0  0  0  0  0  0  0  0  0  0
   -7.9467   -2.9806    0.2510 O   0  0  0  0  0  0  0  0  0  0  0  0
   -7.0362   -2.3818    1.1820 C   0  0  0  0  0  0  0  0  0  0  0  0
   -7.1143   -0.8462    1.2072 C   0  0  0  0  0  0  0  0  0  0  0  0
   -1.5533   -1.0593   -0.3009 N   0  0  0  0  0  0  0  0  0  0  0  0
   -0.2072   -1.4347   -0.2818 C   0  0  0  0  0  0  0  0  0  0  0  0
    0.0139   -2.7325   -0.5738 N   0  0  0  0  0  0  0  0  0  0  0  0
    1.3134   -3.1199   -0.5793 C   0  0  0  0  0  0  0  0  0  0  0  0
    2.3796   -2.2615   -0.3117 C   0  0  0  0  0  0  0  0  0  0  0  0
    3.7927   -2.6751   -0.3252 C   0  0  0  0  0  0  0  0  0  0  0  0
    4.2646   -3.7938   -1.0288 C   0  0  0  0  0  0  0  0  0  0  0  0
    5.6184   -4.1355   -0.9961 C   0  0  0  0  0  0  0  0  0  0  0  0
    6.4825   -3.3469   -0.2586 C   0  0  0  0  0  0  0  0  0  0  0  0
    7.8088   -3.7267   -0.2558 O   0  0  0  0  0  0  0  0  0  0  0  0
    8.6353   -2.8533    0.5072 C   0  0  0  0  0  0  0  0  0  0  0  0
    6.0865   -2.2607    0.4303 N   0  0  0  0  0  0  0  0  0  0  0  0
    4.7652   -1.9524    0.3736 C   0  0  0  0  0  0  0  0  0  0  0  0
    2.1401   -0.9579   -0.0071 N   0  0  0  0  0  0  0  0  0  0  0  0
    0.8451   -0.5537    0.0055 C   0  0  0  0  0  0  0  0  0  0  0  0
    2.8772    7.3925   -0.1920 H   0  0  0  0  0  0  0  0  0  0  0  0
    4.3119    7.5635    0.8338 H   0  0  0  0  0  0  0  0  0  0  0  0
    2.8077    6.9246    1.5185 H   0  0  0  0  0  0  0  0  0  0  0  0
    4.5490    5.5629   -0.6120 H   0  0  0  0  0  0  0  0  0  0  0  0
    4.4795    5.1010    1.0758 H   0  0  0  0  0  0  0  0  0  0  0  0
    2.1214    5.0159   -0.8805 H   0  0  0  0  0  0  0  0  0  0  0  0
    2.0480    4.5522    0.8404 H   0  0  0  0  0  0  0  0  0  0  0  0
    1.3744    2.8601   -1.2595 H   0  0  0  0  0  0  0  0  0  0  0  0
    2.6191    1.6193   -1.3187 H   0  0  0  0  0  0  0  0  0  0  0  0
    1.2446    2.4950    1.2734 H   0  0  0  0  0  0  0  0  0  0  0  0
    2.4305    1.2300    1.1508 H   0  0  0  0  0  0  0  0  0  0  0  0
   -3.2731    1.5749    0.3160 H   0  0  0  0  0  0  0  0  0  0  0  0
   -4.1983   -1.0488   -0.7305 H   0  0  0  0  0  0  0  0  0  0  0  0
   -4.2918   -0.7191    1.0074 H   0  0  0  0  0  0  0  0  0  0  0  0
   -5.6536    1.3524    0.5075 H   0  0  0  0  0  0  0  0  0  0  0  0
   -5.5711    1.0085   -1.1938 H   0  0  0  0  0  0  0  0  0  0  0  0
   -6.1781   -1.7660   -1.4000 H   0  0  0  0  0  0  0  0  0  0  0  0
   -7.3219   -0.6229   -2.1248 H   0  0  0  0  0  0  0  0  0  0  0  0
   -9.1574   -1.6080   -0.6919 H   0  0  0  0  0  0  0  0  0  0  0  0
   -8.4072   -2.8143   -1.7379 H   0  0  0  0  0  0  0  0  0  0  0  0
   -7.2701   -2.7849    2.1727 H   0  0  0  0  0  0  0  0  0  0  0  0
   -6.0232   -2.7148    0.9284 H   0  0  0  0  0  0  0  0  0  0  0  0
   -8.1321   -0.5639    1.5046 H   0  0  0  0  0  0  0  0  0  0  0  0
   -6.4491   -0.4458    1.9808 H   0  0  0  0  0  0  0  0  0  0  0  0
    1.4600   -4.1718   -0.8006 H   0  0  0  0  0  0  0  0  0  0  0  0
    3.6001   -4.4104   -1.6283 H   0  0  0  0  0  0  0  0  0  0  0  0
    5.9915   -4.9966   -1.5394 H   0  0  0  0  0  0  0  0  0  0  0  0
    8.3441   -2.8528    1.5634 H   0  0  0  0  0  0  0  0  0  0  0  0
    9.6615   -3.2287    0.4461 H   0  0  0  0  0  0  0  0  0  0  0  0
    8.6279   -1.8381    0.0953 H   0  0  0  0  0  0  0  0  0  0  0  0
    4.4993   -1.0625    0.9420 H   0  0  0  0  0  0  0  0  0  0  0  0
  1  2  1  0
  2  3  1  0
  3  4  1  0
  4  5  1  0
  5  6  1  0
  6  7  1  0
  7  8  1  0
  8  9  2  0
  8 10  1  0
 10 11  1  0
 11 12  1  0
 12 13  1  0
 13 14  1  0
 14 15  1  0
 15 16  1  0
 16 17  1  0
 17 18  1  0
 18 19  1  0
 10 20  2  0
 20 21  1  0
 21 22  1  0
 22 23  2  0
 23 24  1  0
 24 25  1  0
 25 26  2  0
 26 27  1  0
 27 28  2  0
 28 29  1  0
 29 30  1  0
 28 31  1  0
 31 32  2  0
 24 33  2  0
 33 34  1  0
 34  7  1  0
 19 14  1  0
 34 21  2  0
 32 25  1  0
  1 35  1  0
  1 36  1  0
  1 37  1  0
  2 38  1  0
  2 39  1  0
  3 40  1  0
  3 41  1  0
  5 42  1  0
  5 43  1  0
  6 44  1  0
  6 45  1  0
 11 46  1  0
 12 47  1  0
 12 48  1  0
 13 49  1  0
 13 50  1  0
 15 51  1  0
 15 52  1  0
 16 53  1  0
 16 54  1  0
 18 55  1  0
 18 56  1  0
 19 57  1  0
 19 58  1  0
 23 59  1  0
 26 60  1  0
 27 61  1  0
 30 62  1  0
 30 63  1  0
 30 64  1  0
 32 65  1  0
M  END
$$$$
