


 40 43  0  0  0  0  0  0  0  0999 V2000
    3.3213   66.9133   84.6644 C   0  0  0  0  0  0  0  0  0  0  0  0
    3.9561   67.9638   83.9837 C   0  0  0  0  0  0  0  0  0  0  0  0
    3.3891   68.5185   82.8332 C   0  0  0  0  0  0  0  0  0  0  0  0
    2.1785   68.0235   82.3518 C   0  0  0  0  0  0  0  0  0  0  0  0
    1.5154   67.0024   83.0329 C   0  0  0  0  0  0  0  0  0  0  0  0
    2.0851   66.4249   84.1826 C   0  0  0  0  0  0  0  0  0  0  0  0
    1.3216   65.2901   84.8116 C   0  0  0  0  0  0  0  0  0  0  0  0
    0.4914   64.5957   84.0807 N   0  0  0  0  0  0  0  0  0  0  0  0
   -0.1557   63.5707   84.7716 C   0  0  0  0  0  0  0  0  0  0  0  0
   -1.0993   62.6352   84.3172 C   0  0  0  0  0  0  0  0  0  0  0  0
   -1.4653   61.8098   85.3167 N   0  0  0  0  0  0  0  0  0  0  0  0
   -0.7442   62.2406   86.3815 N   0  0  0  0  0  0  0  0  0  0  0  0
   -0.8783   61.5792   87.6569 C   0  0  0  0  0  0  0  0  0  0  0  0
    0.0562   63.2997   86.0894 C   0  0  0  0  0  0  0  0  0  0  0  0
    0.9586   64.0431   86.8877 C   0  0  0  0  0  0  0  0  0  0  0  0
    1.2094   63.8399   88.0696 O   0  0  0  0  0  0  0  0  0  0  0  0
    1.5524   65.0501   86.1619 N   0  0  0  0  0  0  0  0  0  0  0  0
    2.2330   65.6083   86.6607 H   0  0  0  0  0  0  0  0  0  0  0  0
   -1.6823   62.4931   82.9534 C   0  0  0  0  0  0  0  0  0  0  0  0
   -1.0868   61.3354   82.1484 C   0  0  0  0  0  0  0  0  0  0  0  0
    0.4210   61.4457   81.9683 C   0  0  0  0  0  0  0  0  0  0  0  0
    1.4327   68.7570   80.9085 S   0  0  0  0  0  0  0  0  0  0  0  0
    0.2710   69.4983   81.3471 O   0  0  0  0  0  0  0  0  0  0  0  0
    2.4961   69.3968   80.1629 O   0  0  0  0  0  0  0  0  0  0  0  0
    0.9063   67.4087   80.0216 N   0  0  0  0  0  0  0  0  0  0  0  0
   -0.5299   67.0572   80.1064 C   0  0  0  0  0  0  0  0  0  0  0  0
   -0.7995   65.6535   79.5736 C   0  0  0  0  0  0  0  0  0  0  0  0
    0.0127   65.3598   78.3106 C   0  0  0  0  0  0  0  0  0  0  0  0
    1.5176   65.5611   78.5534 C   0  0  0  0  0  0  0  0  0  0  0  0
    1.8323   66.2792   79.8630 C   0  0  0  0  0  0  0  0  0  0  0  0
   -0.4141   63.7705   77.6063 P   0  0  0  0  0  0  0  0  0  0  0  0
   -1.2978   63.8009   76.4073 O   0  0  0  0  0  0  0  0  0  0  0  0
   -0.9870   62.8747   78.8040 O   0  0  0  0  0  0  0  0  0  0  0  0
    0.9751   63.0243   77.3349 O   0  0  0  0  0  0  0  0  0  0  0  0
   -0.6390   63.0519   79.6943 H   0  0  0  0  0  0  0  0  0  0  0  0
    0.8334   62.2122   76.8089 H   0  0  0  0  0  0  0  0  0  0  0  0
    3.8383   66.3259   85.7911 O   0  0  0  0  0  0  0  0  0  0  0  0
    5.2421   66.4431   86.0388 C   0  0  0  0  0  0  0  0  0  0  0  0
    7.1911   65.6230   84.6651 C   0  0  0  0  0  0  0  0  0  0  0  0
    5.9236   65.2343   85.4044 C   0  0  0  0  0  0  0  0  0  0  0  0
 39 40  1  0  0  0
 40 38  1  0  0  0
 38 37  1  0  0  0
 37  1  1  0  0  0
  1  2  1  0  0  0
  2  3  2  0  0  0
  3  4  1  0  0  0
  4 22  1  0  0  0
 22 23  2  0  0  0
 22 24  2  0  0  0
 22 25  1  0  0  0
 25 26  1  0  0  0
 26 27  1  0  0  0
 27 28  1  0  0  0
 28 31  1  0  0  0
 31 32  2  0  0  0
 31 33  1  0  0  0
 31 34  1  0  0  0
 28 29  1  0  0  0
 29 30  1  0  0  0
  4  5  2  0  0  0
  5  6  1  0  0  0
  6  7  1  0  0  0
  7  8  2  0  0  0
  8  9  1  0  0  0
  9 10  1  0  0  0
 10 19  1  0  0  0
 19 20  1  0  0  0
 20 21  1  0  0  0
 10 11  2  0  0  0
 11 12  1  0  0  0
 12 13  1  0  0  0
 12 14  1  0  0  0
 14 15  1  0  0  0
 15 16  2  0  0  0
 15 17  1  0  0  0
  6  1  2  0  0  0
 17  7  1  0  0  0
 30 25  1  0  0  0
 14  9  2  0  0  0
 33 35  1  0  0  0
 34 36  1  0  0  0
 17 18  1  0  0  0
M  END
> <minimizedAffinity>
-10.32251

$$$$



 40 43  0  0  0  0  0  0  0  0999 V2000
    3.1682   66.9822   84.3296 C   0  0  0  0  0  0  0  0  0  0  0  0
    3.7840   68.0565   83.6689 C   0  0  0  0  0  0  0  0  0  0  0  0
    3.1716   68.6695   82.5724 C   0  0  0  0  0  0  0  0  0  0  0  0
    1.9343   68.2096   82.1256 C   0  0  0  0  0  0  0  0  0  0  0  0
    1.2906   67.1649   82.7894 C   0  0  0  0  0  0  0  0  0  0  0  0
    1.9053   66.5292   83.8839 C   0  0  0  0  0  0  0  0  0  0  0  0
    1.1576   65.3743   84.4952 C   0  0  0  0  0  0  0  0  0  0  0  0
    0.4932   64.5607   83.7192 N   0  0  0  0  0  0  0  0  0  0  0  0
   -0.1569   63.5295   84.3982 C   0  0  0  0  0  0  0  0  0  0  0  0
   -0.9514   62.4845   83.8996 C   0  0  0  0  0  0  0  0  0  0  0  0
   -1.3819   61.6977   84.9046 N   0  0  0  0  0  0  0  0  0  0  0  0
   -0.8493   62.2618   86.0170 N   0  0  0  0  0  0  0  0  0  0  0  0
   -1.1014   61.6772   87.3118 C   0  0  0  0  0  0  0  0  0  0  0  0
   -0.1047   63.3670   85.7494 C   0  0  0  0  0  0  0  0  0  0  0  0
    0.6179   64.2404   86.5975 C   0  0  0  0  0  0  0  0  0  0  0  0
    0.7214   64.1398   87.8142 O   0  0  0  0  0  0  0  0  0  0  0  0
    1.2215   65.2465   85.8786 N   0  0  0  0  0  0  0  0  0  0  0  0
    1.7808   65.8958   86.4163 H   0  0  0  0  0  0  0  0  0  0  0  0
   -1.3304   62.1999   82.4870 C   0  0  0  0  0  0  0  0  0  0  0  0
   -0.5316   61.0574   81.8550 C   0  0  0  0  0  0  0  0  0  0  0  0
    0.9322   61.4071   81.6247 C   0  0  0  0  0  0  0  0  0  0  0  0
    1.1321   69.0165   80.7535 S   0  0  0  0  0  0  0  0  0  0  0  0
    1.9870   68.8633   79.5972 O   0  0  0  0  0  0  0  0  0  0  0  0
   -0.2415   68.5591   80.7395 O   0  0  0  0  0  0  0  0  0  0  0  0
    1.1374   70.6506   81.2130 N   0  0  0  0  0  0  0  0  0  0  0  0
   -0.1666   71.2667   81.5497 C   0  0  0  0  0  0  0  0  0  0  0  0
   -0.0773   72.7890   81.5910 C   0  0  0  0  0  0  0  0  0  0  0  0
    1.2163   73.2641   82.2557 C   0  0  0  0  0  0  0  0  0  0  0  0
    2.4532   72.6734   81.5592 C   0  0  0  0  0  0  0  0  0  0  0  0
    2.1233   71.5427   80.5882 C   0  0  0  0  0  0  0  0  0  0  0  0
    1.2512   75.0448   82.4341 P   0  0  0  0  0  0  0  0  0  0  0  0
    2.2389   75.5867   83.4090 O   0  0  0  0  0  0  0  0  0  0  0  0
   -0.2547   75.5088   82.7205 O   0  0  0  0  0  0  0  0  0  0  0  0
    1.4511   75.6293   80.9580 O   0  0  0  0  0  0  0  0  0  0  0  0
   -0.9649   74.9676   82.3359 H   0  0  0  0  0  0  0  0  0  0  0  0
    1.6341   76.5893   80.9890 H   0  0  0  0  0  0  0  0  0  0  0  0
    3.7292   66.3381   85.4031 O   0  0  0  0  0  0  0  0  0  0  0  0
    5.0875   66.6316   85.7414 C   0  0  0  0  0  0  0  0  0  0  0  0
    7.1909   65.7802   84.6416 C   0  0  0  0  0  0  0  0  0  0  0  0
    5.9244   65.4052   85.3897 C   0  0  0  0  0  0  0  0  0  0  0  0
 39 40  1  0  0  0
 40 38  1  0  0  0
 38 37  1  0  0  0
 37  1  1  0  0  0
  1  2  1  0  0  0
  2  3  2  0  0  0
  3  4  1  0  0  0
  4 22  1  0  0  0
 22 23  2  0  0  0
 22 24  2  0  0  0
 22 25  1  0  0  0
 25 26  1  0  0  0
 26 27  1  0  0  0
 27 28  1  0  0  0
 28 31  1  0  0  0
 31 32  2  0  0  0
 31 33  1  0  0  0
 31 34  1  0  0  0
 28 29  1  0  0  0
 29 30  1  0  0  0
  4  5  2  0  0  0
  5  6  1  0  0  0
  6  7  1  0  0  0
  7  8  2  0  0  0
  8  9  1  0  0  0
  9 10  1  0  0  0
 10 19  1  0  0  0
 19 20  1  0  0  0
 20 21  1  0  0  0
 10 11  2  0  0  0
 11 12  1  0  0  0
 12 13  1  0  0  0
 12 14  1  0  0  0
 14 15  1  0  0  0
 15 16  2  0  0  0
 15 17  1  0  0  0
  6  1  2  0  0  0
 17  7  1  0  0  0
 30 25  1  0  0  0
 14  9  2  0  0  0
 33 35  1  0  0  0
 34 36  1  0  0  0
 17 18  1  0  0  0
M  END
> <minimizedAffinity>
-10.10840

$$$$



 40 43  0  0  0  0  0  0  0  0999 V2000
    3.3750   66.8251   84.4135 C   0  0  0  0  0  0  0  0  0  0  0  0
    4.0829   67.8804   83.8177 C   0  0  0  0  0  0  0  0  0  0  0  0
    3.5075   68.6443   82.7988 C   0  0  0  0  0  0  0  0  0  0  0  0
    2.2148   68.3563   82.3651 C   0  0  0  0  0  0  0  0  0  0  0  0
    1.4824   67.3330   82.9675 C   0  0  0  0  0  0  0  0  0  0  0  0
    2.0576   66.5465   83.9825 C   0  0  0  0  0  0  0  0  0  0  0  0
    1.2084   65.4294   84.5278 C   0  0  0  0  0  0  0  0  0  0  0  0
    0.5851   64.6368   83.6978 N   0  0  0  0  0  0  0  0  0  0  0  0
   -0.1681   63.6399   84.3189 C   0  0  0  0  0  0  0  0  0  0  0  0
   -0.9563   62.6241   83.7542 C   0  0  0  0  0  0  0  0  0  0  0  0
   -1.5110   61.8653   84.7190 N   0  0  0  0  0  0  0  0  0  0  0  0
   -1.0605   62.4171   85.8731 N   0  0  0  0  0  0  0  0  0  0  0  0
   -1.4562   61.8556   87.1420 C   0  0  0  0  0  0  0  0  0  0  0  0
   -0.2484   63.4880   85.6699 C   0  0  0  0  0  0  0  0  0  0  0  0
    0.4286   64.3385   86.5769 C   0  0  0  0  0  0  0  0  0  0  0  0
    0.4144   64.2450   87.7985 O   0  0  0  0  0  0  0  0  0  0  0  0
    1.1382   65.3119   85.9119 N   0  0  0  0  0  0  0  0  0  0  0  0
    1.6720   65.9425   86.4957 H   0  0  0  0  0  0  0  0  0  0  0  0
   -1.2142   62.3423   82.3140 C   0  0  0  0  0  0  0  0  0  0  0  0
   -0.4787   61.1071   81.7885 C   0  0  0  0  0  0  0  0  0  0  0  0
    1.0345   61.2739   81.7729 C   0  0  0  0  0  0  0  0  0  0  0  0
    1.4632   69.3555   81.0946 S   0  0  0  0  0  0  0  0  0  0  0  0
    2.2098   69.1431   79.8744 O   0  0  0  0  0  0  0  0  0  0  0  0
    0.0371   69.1135   81.1559 O   0  0  0  0  0  0  0  0  0  0  0  0
    1.7513   70.9397   81.6319 N   0  0  0  0  0  0  0  0  0  0  0  0
    0.5770   71.7415   82.0462 C   0  0  0  0  0  0  0  0  0  0  0  0
    0.9174   73.2243   82.1576 C   0  0  0  0  0  0  0  0  0  0  0  0
    2.2902   73.4454   82.7960 C   0  0  0  0  0  0  0  0  0  0  0  0
    3.3922   72.6989   82.0262 C   0  0  0  0  0  0  0  0  0  0  0  0
    2.8525   71.6912   81.0148 C   0  0  0  0  0  0  0  0  0  0  0  0
    2.6235   75.1843   83.0587 P   0  0  0  0  0  0  0  0  0  0  0  0
    1.4367   76.0849   83.0699 O   0  0  0  0  0  0  0  0  0  0  0  0
    3.7397   75.6061   81.9904 O   0  0  0  0  0  0  0  0  0  0  0  0
    3.4786   75.2676   84.4086 O   0  0  0  0  0  0  0  0  0  0  0  0
    4.3698   74.9190   81.7147 H   0  0  0  0  0  0  0  0  0  0  0  0
    3.5695   76.1957   84.7027 H   0  0  0  0  0  0  0  0  0  0  0  0
    3.8952   66.0378   85.4091 O   0  0  0  0  0  0  0  0  0  0  0  0
    5.1125   66.4483   86.0380 C   0  0  0  0  0  0  0  0  0  0  0  0
    7.1309   65.8079   84.6689 C   0  0  0  0  0  0  0  0  0  0  0  0
    6.1610   65.3768   85.7542 C   0  0  0  0  0  0  0  0  0  0  0  0
 39 40  1  0  0  0
 40 38  1  0  0  0
 38 37  1  0  0  0
 37  1  1  0  0  0
  1  2  1  0  0  0
  2  3  2  0  0  0
  3  4  1  0  0  0
  4 22  1  0  0  0
 22 23  2  0  0  0
 22 24  2  0  0  0
 22 25  1  0  0  0
 25 26  1  0  0  0
 26 27  1  0  0  0
 27 28  1  0  0  0
 28 31  1  0  0  0
 31 32  2  0  0  0
 31 33  1  0  0  0
 31 34  1  0  0  0
 28 29  1  0  0  0
 29 30  1  0  0  0
  4  5  2  0  0  0
  5  6  1  0  0  0
  6  7  1  0  0  0
  7  8  2  0  0  0
  8  9  1  0  0  0
  9 10  1  0  0  0
 10 19  1  0  0  0
 19 20  1  0  0  0
 20 21  1  0  0  0
 10 11  2  0  0  0
 11 12  1  0  0  0
 12 13  1  0  0  0
 12 14  1  0  0  0
 14 15  1  0  0  0
 15 16  2  0  0  0
 15 17  1  0  0  0
  6  1  2  0  0  0
 17  7  1  0  0  0
 30 25  1  0  0  0
 14  9  2  0  0  0
 33 35  1  0  0  0
 34 36  1  0  0  0
 17 18  1  0  0  0
M  END
> <minimizedAffinity>
-10.01584

$$$$



 40 43  0  0  0  0  0  0  0  0999 V2000
    3.2337   66.9079   84.4928 C   0  0  0  0  0  0  0  0  0  0  0  0
    3.9016   67.9886   83.8963 C   0  0  0  0  0  0  0  0  0  0  0  0
    3.3066   68.7164   82.8623 C   0  0  0  0  0  0  0  0  0  0  0  0
    2.0343   68.3664   82.4142 C   0  0  0  0  0  0  0  0  0  0  0  0
    1.3404   67.3167   83.0166 C   0  0  0  0  0  0  0  0  0  0  0  0
    1.9363   66.5662   84.0469 C   0  0  0  0  0  0  0  0  0  0  0  0
    1.1307   65.4170   84.5916 C   0  0  0  0  0  0  0  0  0  0  0  0
    0.5095   64.6221   83.7622 N   0  0  0  0  0  0  0  0  0  0  0  0
   -0.2015   63.5942   84.3825 C   0  0  0  0  0  0  0  0  0  0  0  0
   -0.9751   62.5672   83.8182 C   0  0  0  0  0  0  0  0  0  0  0  0
   -1.4861   61.7768   84.7817 N   0  0  0  0  0  0  0  0  0  0  0  0
   -1.0234   62.3207   85.9348 N   0  0  0  0  0  0  0  0  0  0  0  0
   -1.3736   61.7266   87.2022 C   0  0  0  0  0  0  0  0  0  0  0  0
   -0.2456   63.4168   85.7321 C   0  0  0  0  0  0  0  0  0  0  0  0
    0.4295   64.2697   86.6383 C   0  0  0  0  0  0  0  0  0  0  0  0
    0.4469   64.1547   87.8580 O   0  0  0  0  0  0  0  0  0  0  0  0
    1.0966   65.2736   85.9745 N   0  0  0  0  0  0  0  0  0  0  0  0
    1.6269   65.9083   86.5571 H   0  0  0  0  0  0  0  0  0  0  0  0
   -1.2594   62.3034   82.3795 C   0  0  0  0  0  0  0  0  0  0  0  0
   -0.4285   61.1620   81.7884 C   0  0  0  0  0  0  0  0  0  0  0  0
    1.0563   61.2772   82.1049 C   0  0  0  0  0  0  0  0  0  0  0  0
    1.2562   69.3190   81.1240 S   0  0  0  0  0  0  0  0  0  0  0  0
    1.2080   68.4909   79.9393 O   0  0  0  0  0  0  0  0  0  0  0  0
    0.0538   69.8931   81.6901 O   0  0  0  0  0  0  0  0  0  0  0  0
    2.3635   70.5772   80.8552 N   0  0  0  0  0  0  0  0  0  0  0  0
    1.9045   71.9579   81.1316 C   0  0  0  0  0  0  0  0  0  0  0  0
    2.8404   72.9963   80.5212 C   0  0  0  0  0  0  0  0  0  0  0  0
    4.3098   72.6040   80.6878 C   0  0  0  0  0  0  0  0  0  0  0  0
    4.5892   71.2145   80.0915 C   0  0  0  0  0  0  0  0  0  0  0  0
    3.3234   70.4317   79.7526 C   0  0  0  0  0  0  0  0  0  0  0  0
    5.4071   73.8913   80.1021 P   0  0  0  0  0  0  0  0  0  0  0  0
    5.7998   74.9231   81.1025 O   0  0  0  0  0  0  0  0  0  0  0  0
    4.7388   74.5001   78.7801 O   0  0  0  0  0  0  0  0  0  0  0  0
    6.6646   73.1373   79.4615 O   0  0  0  0  0  0  0  0  0  0  0  0
    4.1931   73.9002   78.2440 H   0  0  0  0  0  0  0  0  0  0  0  0
    7.3799   73.7720   79.2570 H   0  0  0  0  0  0  0  0  0  0  0  0
    3.7750   66.1540   85.5029 O   0  0  0  0  0  0  0  0  0  0  0  0
    5.1686   65.8371   85.4464 C   0  0  0  0  0  0  0  0  0  0  0  0
    5.5852   65.5606   87.9179 C   0  0  0  0  0  0  0  0  0  0  0  0
    5.4639   64.8573   86.5781 C   0  0  0  0  0  0  0  0  0  0  0  0
 39 40  1  0  0  0
 40 38  1  0  0  0
 38 37  1  0  0  0
 37  1  1  0  0  0
  1  2  1  0  0  0
  2  3  2  0  0  0
  3  4  1  0  0  0
  4 22  1  0  0  0
 22 23  2  0  0  0
 22 24  2  0  0  0
 22 25  1  0  0  0
 25 26  1  0  0  0
 26 27  1  0  0  0
 27 28  1  0  0  0
 28 31  1  0  0  0
 31 32  2  0  0  0
 31 33  1  0  0  0
 31 34  1  0  0  0
 28 29  1  0  0  0
 29 30  1  0  0  0
  4  5  2  0  0  0
  5  6  1  0  0  0
  6  7  1  0  0  0
  7  8  2  0  0  0
  8  9  1  0  0  0
  9 10  1  0  0  0
 10 19  1  0  0  0
 19 20  1  0  0  0
 20 21  1  0  0  0
 10 11  2  0  0  0
 11 12  1  0  0  0
 12 13  1  0  0  0
 12 14  1  0  0  0
 14 15  1  0  0  0
 15 16  2  0  0  0
 15 17  1  0  0  0
  6  1  2  0  0  0
 17  7  1  0  0  0
 30 25  1  0  0  0
 14  9  2  0  0  0
 33 35  1  0  0  0
 34 36  1  0  0  0
 17 18  1  0  0  0
M  END
> <minimizedAffinity>
-9.90761

$$$$



 40 43  0  0  0  0  0  0  0  0999 V2000
    3.5289   66.7816   84.4012 C   0  0  0  0  0  0  0  0  0  0  0  0
    4.2377   67.8411   83.8141 C   0  0  0  0  0  0  0  0  0  0  0  0
    3.6275   68.6797   82.8774 C   0  0  0  0  0  0  0  0  0  0  0  0
    2.2986   68.4630   82.5181 C   0  0  0  0  0  0  0  0  0  0  0  0
    1.5671   67.4359   83.1151 C   0  0  0  0  0  0  0  0  0  0  0  0
    2.1759   66.5750   84.0467 C   0  0  0  0  0  0  0  0  0  0  0  0
    1.3204   65.4617   84.5899 C   0  0  0  0  0  0  0  0  0  0  0  0
    0.4730   64.8621   83.7974 N   0  0  0  0  0  0  0  0  0  0  0  0
   -0.2616   63.8473   84.4118 C   0  0  0  0  0  0  0  0  0  0  0  0
   -1.2470   63.0006   83.8788 C   0  0  0  0  0  0  0  0  0  0  0  0
   -1.6990   62.1504   84.8206 N   0  0  0  0  0  0  0  0  0  0  0  0
   -0.9887   62.4772   85.9288 N   0  0  0  0  0  0  0  0  0  0  0  0
   -1.2083   61.7608   87.1619 C   0  0  0  0  0  0  0  0  0  0  0  0
   -0.1127   63.4951   85.7189 C   0  0  0  0  0  0  0  0  0  0  0  0
    0.8076   64.1353   86.5835 C   0  0  0  0  0  0  0  0  0  0  0  0
    1.0043   63.8552   87.7600 O   0  0  0  0  0  0  0  0  0  0  0  0
    1.4890   65.1374   85.9318 N   0  0  0  0  0  0  0  0  0  0  0  0
    2.1864   65.6232   86.4806 H   0  0  0  0  0  0  0  0  0  0  0  0
   -1.7908   62.9679   82.4920 C   0  0  0  0  0  0  0  0  0  0  0  0
   -2.3693   61.6087   82.0909 C   0  0  0  0  0  0  0  0  0  0  0  0
   -3.3809   61.7005   80.9568 C   0  0  0  0  0  0  0  0  0  0  0  0
    1.5057   69.5564   81.3549 S   0  0  0  0  0  0  0  0  0  0  0  0
    1.9148   69.1521   80.0280 O   0  0  0  0  0  0  0  0  0  0  0  0
    0.1072   69.6224   81.7236 O   0  0  0  0  0  0  0  0  0  0  0  0
    2.2120   71.0609   81.6998 N   0  0  0  0  0  0  0  0  0  0  0  0
    1.6974   71.8005   82.8752 C   0  0  0  0  0  0  0  0  0  0  0  0
    2.1463   73.2583   82.8652 C   0  0  0  0  0  0  0  0  0  0  0  0
    3.6022   73.4011   82.4173 C   0  0  0  0  0  0  0  0  0  0  0  0
    3.8287   72.7612   81.0376 C   0  0  0  0  0  0  0  0  0  0  0  0
    2.6662   71.8876   80.5735 C   0  0  0  0  0  0  0  0  0  0  0  0
    4.1695   75.0939   82.5464 P   0  0  0  0  0  0  0  0  0  0  0  0
    4.8719   75.4554   83.8095 O   0  0  0  0  0  0  0  0  0  0  0  0
    2.9095   76.0280   82.2222 O   0  0  0  0  0  0  0  0  0  0  0  0
    5.0598   75.3584   81.2434 O   0  0  0  0  0  0  0  0  0  0  0  0
    2.2422   75.6738   81.6104 H   0  0  0  0  0  0  0  0  0  0  0  0
    5.5319   76.2116   81.3155 H   0  0  0  0  0  0  0  0  0  0  0  0
    4.0816   65.9229   85.3171 O   0  0  0  0  0  0  0  0  0  0  0  0
    5.1357   66.4050   86.1550 C   0  0  0  0  0  0  0  0  0  0  0  0
    7.1557   65.7922   84.7758 C   0  0  0  0  0  0  0  0  0  0  0  0
    6.3196   65.4556   85.9972 C   0  0  0  0  0  0  0  0  0  0  0  0
 39 40  1  0  0  0
 40 38  1  0  0  0
 38 37  1  0  0  0
 37  1  1  0  0  0
  1  2  1  0  0  0
  2  3  2  0  0  0
  3  4  1  0  0  0
  4 22  1  0  0  0
 22 23  2  0  0  0
 22 24  2  0  0  0
 22 25  1  0  0  0
 25 26  1  0  0  0
 26 27  1  0  0  0
 27 28  1  0  0  0
 28 31  1  0  0  0
 31 32  2  0  0  0
 31 33  1  0  0  0
 31 34  1  0  0  0
 28 29  1  0  0  0
 29 30  1  0  0  0
  4  5  2  0  0  0
  5  6  1  0  0  0
  6  7  1  0  0  0
  7  8  2  0  0  0
  8  9  1  0  0  0
  9 10  1  0  0  0
 10 19  1  0  0  0
 19 20  1  0  0  0
 20 21  1  0  0  0
 10 11  2  0  0  0
 11 12  1  0  0  0
 12 13  1  0  0  0
 12 14  1  0  0  0
 14 15  1  0  0  0
 15 16  2  0  0  0
 15 17  1  0  0  0
  6  1  2  0  0  0
 17  7  1  0  0  0
 30 25  1  0  0  0
 14  9  2  0  0  0
 33 35  1  0  0  0
 34 36  1  0  0  0
 17 18  1  0  0  0
M  END
> <minimizedAffinity>
-9.52430

$$$$



 40 43  0  0  0  0  0  0  0  0999 V2000
    3.5668   67.1557   84.0439 C   0  0  0  0  0  0  0  0  0  0  0  0
    4.3570   68.2759   83.7429 C   0  0  0  0  0  0  0  0  0  0  0  0
    3.9409   69.2120   82.7924 C   0  0  0  0  0  0  0  0  0  0  0  0
    2.7270   69.0332   82.1318 C   0  0  0  0  0  0  0  0  0  0  0  0
    1.9116   67.9442   82.4409 C   0  0  0  0  0  0  0  0  0  0  0  0
    2.3281   66.9864   83.3838 C   0  0  0  0  0  0  0  0  0  0  0  0
    1.4056   65.8173   83.6046 C   0  0  0  0  0  0  0  0  0  0  0  0
    1.0964   65.4687   84.8246 N   0  0  0  0  0  0  0  0  0  0  0  0
    0.2343   64.3745   84.9034 C   0  0  0  0  0  0  0  0  0  0  0  0
   -0.3042   63.7324   86.0302 C   0  0  0  0  0  0  0  0  0  0  0  0
   -1.1030   62.7142   85.6569 N   0  0  0  0  0  0  0  0  0  0  0  0
   -1.0532   62.7352   84.3017 N   0  0  0  0  0  0  0  0  0  0  0  0
   -1.8034   61.7672   83.5387 C   0  0  0  0  0  0  0  0  0  0  0  0
   -0.2574   63.7229   83.8132 C   0  0  0  0  0  0  0  0  0  0  0  0
    0.0674   64.0976   82.4872 C   0  0  0  0  0  0  0  0  0  0  0  0
   -0.3543   63.5681   81.4659 O   0  0  0  0  0  0  0  0  0  0  0  0
    0.9332   65.1670   82.4697 N   0  0  0  0  0  0  0  0  0  0  0  0
    1.1893   65.5097   81.5529 H   0  0  0  0  0  0  0  0  0  0  0  0
   -0.0842   64.0459   87.4702 C   0  0  0  0  0  0  0  0  0  0  0  0
   -0.7703   63.0651   88.4241 C   0  0  0  0  0  0  0  0  0  0  0  0
    0.2130   62.2096   89.2111 C   0  0  0  0  0  0  0  0  0  0  0  0
    2.1745   70.2473   80.9493 S   0  0  0  0  0  0  0  0  0  0  0  0
    2.9769   70.0906   79.7564 O   0  0  0  0  0  0  0  0  0  0  0  0
    0.7300   70.1625   80.9011 O   0  0  0  0  0  0  0  0  0  0  0  0
    2.5905   71.7184   81.6872 N   0  0  0  0  0  0  0  0  0  0  0  0
    1.6365   72.2794   82.6713 C   0  0  0  0  0  0  0  0  0  0  0  0
    1.9416   73.7413   82.9825 C   0  0  0  0  0  0  0  0  0  0  0  0
    3.4454   73.9934   83.1075 C   0  0  0  0  0  0  0  0  0  0  0  0
    4.1949   73.5473   81.8412 C   0  0  0  0  0  0  0  0  0  0  0  0
    3.3452   72.7006   80.8973 C   0  0  0  0  0  0  0  0  0  0  0  0
    3.7929   75.6742   83.6158 P   0  0  0  0  0  0  0  0  0  0  0  0
    2.6149   76.5775   83.7423 O   0  0  0  0  0  0  0  0  0  0  0  0
    4.9249   76.2295   82.6282 O   0  0  0  0  0  0  0  0  0  0  0  0
    4.6338   75.5569   84.9720 O   0  0  0  0  0  0  0  0  0  0  0  0
    5.5513   75.5810   82.2645 H   0  0  0  0  0  0  0  0  0  0  0  0
    4.7305   76.4333   85.3948 H   0  0  0  0  0  0  0  0  0  0  0  0
    3.9318   66.2018   84.9597 O   0  0  0  0  0  0  0  0  0  0  0  0
    5.1233   66.4094   85.7232 C   0  0  0  0  0  0  0  0  0  0  0  0
    7.3211   65.7888   84.6541 C   0  0  0  0  0  0  0  0  0  0  0  0
    6.0906   65.2796   85.3826 C   0  0  0  0  0  0  0  0  0  0  0  0
 39 40  1  0  0  0
 40 38  1  0  0  0
 38 37  1  0  0  0
 37  1  1  0  0  0
  1  2  1  0  0  0
  2  3  2  0  0  0
  3  4  1  0  0  0
  4 22  1  0  0  0
 22 23  2  0  0  0
 22 24  2  0  0  0
 22 25  1  0  0  0
 25 26  1  0  0  0
 26 27  1  0  0  0
 27 28  1  0  0  0
 28 31  1  0  0  0
 31 32  2  0  0  0
 31 33  1  0  0  0
 31 34  1  0  0  0
 28 29  1  0  0  0
 29 30  1  0  0  0
  4  5  2  0  0  0
  5  6  1  0  0  0
  6  7  1  0  0  0
  7  8  2  0  0  0
  8  9  1  0  0  0
  9 10  1  0  0  0
 10 19  1  0  0  0
 19 20  1  0  0  0
 20 21  1  0  0  0
 10 11  2  0  0  0
 11 12  1  0  0  0
 12 13  1  0  0  0
 12 14  1  0  0  0
 14 15  1  0  0  0
 15 16  2  0  0  0
 15 17  1  0  0  0
  6  1  2  0  0  0
 17  7  1  0  0  0
 30 25  1  0  0  0
 14  9  2  0  0  0
 33 35  1  0  0  0
 34 36  1  0  0  0
 17 18  1  0  0  0
M  END
> <minimizedAffinity>
-9.41252

$$$$



 40 43  0  0  0  0  0  0  0  0999 V2000
    0.9037   65.0048   79.1598 C   0  0  0  0  0  0  0  0  0  0  0  0
    1.6704   66.0541   78.6300 C   0  0  0  0  0  0  0  0  0  0  0  0
    2.0557   67.1344   79.4285 C   0  0  0  0  0  0  0  0  0  0  0  0
    1.6739   67.1742   80.7682 C   0  0  0  0  0  0  0  0  0  0  0  0
    0.9401   66.1248   81.3220 C   0  0  0  0  0  0  0  0  0  0  0  0
    0.5324   65.0404   80.5235 C   0  0  0  0  0  0  0  0  0  0  0  0
   -0.3057   63.9879   81.1991 C   0  0  0  0  0  0  0  0  0  0  0  0
   -0.2485   63.8618   82.4978 N   0  0  0  0  0  0  0  0  0  0  0  0
   -1.0692   62.8561   83.0092 C   0  0  0  0  0  0  0  0  0  0  0  0
   -1.2640   62.4418   84.3368 C   0  0  0  0  0  0  0  0  0  0  0  0
   -2.1559   61.4339   84.3910 N   0  0  0  0  0  0  0  0  0  0  0  0
   -2.5068   61.2334   83.0963 N   0  0  0  0  0  0  0  0  0  0  0  0
   -3.4660   60.2090   82.7608 C   0  0  0  0  0  0  0  0  0  0  0  0
   -1.8719   62.0730   82.2363 C   0  0  0  0  0  0  0  0  0  0  0  0
   -1.9448   62.2066   80.8288 C   0  0  0  0  0  0  0  0  0  0  0  0
   -2.6581   61.5501   80.0796 O   0  0  0  0  0  0  0  0  0  0  0  0
   -1.1031   63.1975   80.3783 N   0  0  0  0  0  0  0  0  0  0  0  0
   -1.1218   63.3702   79.3816 H   0  0  0  0  0  0  0  0  0  0  0  0
   -0.6243   62.9668   85.5758 C   0  0  0  0  0  0  0  0  0  0  0  0
   -1.1086   62.2804   86.8553 C   0  0  0  0  0  0  0  0  0  0  0  0
   -2.0264   63.1589   87.6944 C   0  0  0  0  0  0  0  0  0  0  0  0
    2.1989   68.5302   81.7991 S   0  0  0  0  0  0  0  0  0  0  0  0
    3.0543   69.3795   81.0001 O   0  0  0  0  0  0  0  0  0  0  0  0
    1.0136   69.0518   82.4463 O   0  0  0  0  0  0  0  0  0  0  0  0
    3.1506   67.7681   82.9802 N   0  0  0  0  0  0  0  0  0  0  0  0
    2.6221   66.5207   83.5787 C   0  0  0  0  0  0  0  0  0  0  0  0
    3.3753   66.1418   84.8500 C   0  0  0  0  0  0  0  0  0  0  0  0
    4.8809   66.3743   84.7086 C   0  0  0  0  0  0  0  0  0  0  0  0
    5.1883   67.8291   84.3170 C   0  0  0  0  0  0  0  0  0  0  0  0
    3.9565   68.6130   83.8718 C   0  0  0  0  0  0  0  0  0  0  0  0
    5.7762   65.7932   86.1456 P   0  0  0  0  0  0  0  0  0  0  0  0
    5.4469   64.4166   86.6105 O   0  0  0  0  0  0  0  0  0  0  0  0
    5.6049   66.9120   87.2787 O   0  0  0  0  0  0  0  0  0  0  0  0
    7.3275   65.9769   85.7993 O   0  0  0  0  0  0  0  0  0  0  0  0
    5.4999   67.8312   86.9802 H   0  0  0  0  0  0  0  0  0  0  0  0
    7.8854   65.5399   86.4729 H   0  0  0  0  0  0  0  0  0  0  0  0
    0.4901   63.9268   78.4190 O   0  0  0  0  0  0  0  0  0  0  0  0
   -0.1967   64.1681   77.1878 C   0  0  0  0  0  0  0  0  0  0  0  0
   -0.1221   61.6493   77.2798 C   0  0  0  0  0  0  0  0  0  0  0  0
   -0.8790   62.8660   76.7788 C   0  0  0  0  0  0  0  0  0  0  0  0
 39 40  1  0  0  0
 40 38  1  0  0  0
 38 37  1  0  0  0
 37  1  1  0  0  0
  1  2  1  0  0  0
  2  3  2  0  0  0
  3  4  1  0  0  0
  4 22  1  0  0  0
 22 23  2  0  0  0
 22 24  2  0  0  0
 22 25  1  0  0  0
 25 26  1  0  0  0
 26 27  1  0  0  0
 27 28  1  0  0  0
 28 31  1  0  0  0
 31 32  2  0  0  0
 31 33  1  0  0  0
 31 34  1  0  0  0
 28 29  1  0  0  0
 29 30  1  0  0  0
  4  5  2  0  0  0
  5  6  1  0  0  0
  6  7  1  0  0  0
  7  8  2  0  0  0
  8  9  1  0  0  0
  9 10  1  0  0  0
 10 19  1  0  0  0
 19 20  1  0  0  0
 20 21  1  0  0  0
 10 11  2  0  0  0
 11 12  1  0  0  0
 12 13  1  0  0  0
 12 14  1  0  0  0
 14 15  1  0  0  0
 15 16  2  0  0  0
 15 17  1  0  0  0
  6  1  2  0  0  0
 17  7  1  0  0  0
 30 25  1  0  0  0
 14  9  2  0  0  0
 33 35  1  0  0  0
 34 36  1  0  0  0
 17 18  1  0  0  0
M  END
> <minimizedAffinity>
-9.37253

$$$$



 40 43  0  0  0  0  0  0  0  0999 V2000
    3.4076   65.2598   86.1212 C   0  0  0  0  0  0  0  0  0  0  0  0
    3.3386   64.4474   87.2635 C   0  0  0  0  0  0  0  0  0  0  0  0
    2.1422   63.8244   87.6289 C   0  0  0  0  0  0  0  0  0  0  0  0
    1.0004   64.0116   86.8520 C   0  0  0  0  0  0  0  0  0  0  0  0
    1.0567   64.7883   85.6945 C   0  0  0  0  0  0  0  0  0  0  0  0
    2.2514   65.4339   85.3263 C   0  0  0  0  0  0  0  0  0  0  0  0
    2.1951   66.2969   84.0940 C   0  0  0  0  0  0  0  0  0  0  0  0
    1.6885   65.8080   82.9940 N   0  0  0  0  0  0  0  0  0  0  0  0
    1.6883   66.7000   81.9211 C   0  0  0  0  0  0  0  0  0  0  0  0
    1.2291   66.5253   80.6056 C   0  0  0  0  0  0  0  0  0  0  0  0
    1.4116   67.6506   79.8883 N   0  0  0  0  0  0  0  0  0  0  0  0
    1.9812   68.5132   80.7662 N   0  0  0  0  0  0  0  0  0  0  0  0
    2.3259   69.8487   80.3425 C   0  0  0  0  0  0  0  0  0  0  0  0
    2.1623   67.9743   82.0009 C   0  0  0  0  0  0  0  0  0  0  0  0
    2.7074   68.5146   83.1905 C   0  0  0  0  0  0  0  0  0  0  0  0
    3.1316   69.6550   83.3347 O   0  0  0  0  0  0  0  0  0  0  0  0
    2.7000   67.5878   84.2076 N   0  0  0  0  0  0  0  0  0  0  0  0
    3.0503   67.9119   85.0997 H   0  0  0  0  0  0  0  0  0  0  0  0
    0.6199   65.3134   79.9889 C   0  0  0  0  0  0  0  0  0  0  0  0
    1.0714   65.0646   78.5477 C   0  0  0  0  0  0  0  0  0  0  0  0
    0.3311   63.9142   77.8794 C   0  0  0  0  0  0  0  0  0  0  0  0
   -0.5161   63.1849   87.2926 S   0  0  0  0  0  0  0  0  0  0  0  0
   -0.1661   62.0181   88.0718 O   0  0  0  0  0  0  0  0  0  0  0  0
   -1.4121   64.1962   87.8129 O   0  0  0  0  0  0  0  0  0  0  0  0
   -1.1208   62.6680   85.7930 N   0  0  0  0  0  0  0  0  0  0  0  0
   -2.5752   62.4041   85.7005 C   0  0  0  0  0  0  0  0  0  0  0  0
   -2.9268   61.6179   84.4414 C   0  0  0  0  0  0  0  0  0  0  0  0
   -2.1334   62.1054   83.2275 C   0  0  0  0  0  0  0  0  0  0  0  0
   -0.6193   62.0492   83.4890 C   0  0  0  0  0  0  0  0  0  0  0  0
   -0.2628   61.8193   84.9553 C   0  0  0  0  0  0  0  0  0  0  0  0
   -2.6528   61.2817   81.7255 P   0  0  0  0  0  0  0  0  0  0  0  0
   -3.3440   62.1326   80.7167 O   0  0  0  0  0  0  0  0  0  0  0  0
   -3.5010   59.9990   82.1731 O   0  0  0  0  0  0  0  0  0  0  0  0
   -1.3452   60.5666   81.1432 O   0  0  0  0  0  0  0  0  0  0  0  0
   -3.2649   59.5868   83.0214 H   0  0  0  0  0  0  0  0  0  0  0  0
   -1.5117   60.2232   80.2429 H   0  0  0  0  0  0  0  0  0  0  0  0
    4.5523   65.9025   85.7231 O   0  0  0  0  0  0  0  0  0  0  0  0
    5.7401   65.1278   85.5367 C   0  0  0  0  0  0  0  0  0  0  0  0
    8.0829   65.8737   84.9770 C   0  0  0  0  0  0  0  0  0  0  0  0
    6.6272   65.8770   84.5468 C   0  0  0  0  0  0  0  0  0  0  0  0
 39 40  1  0  0  0
 40 38  1  0  0  0
 38 37  1  0  0  0
 37  1  1  0  0  0
  1  2  1  0  0  0
  2  3  2  0  0  0
  3  4  1  0  0  0
  4 22  1  0  0  0
 22 23  2  0  0  0
 22 24  2  0  0  0
 22 25  1  0  0  0
 25 26  1  0  0  0
 26 27  1  0  0  0
 27 28  1  0  0  0
 28 31  1  0  0  0
 31 32  2  0  0  0
 31 33  1  0  0  0
 31 34  1  0  0  0
 28 29  1  0  0  0
 29 30  1  0  0  0
  4  5  2  0  0  0
  5  6  1  0  0  0
  6  7  1  0  0  0
  7  8  2  0  0  0
  8  9  1  0  0  0
  9 10  1  0  0  0
 10 19  1  0  0  0
 19 20  1  0  0  0
 20 21  1  0  0  0
 10 11  2  0  0  0
 11 12  1  0  0  0
 12 13  1  0  0  0
 12 14  1  0  0  0
 14 15  1  0  0  0
 15 16  2  0  0  0
 15 17  1  0  0  0
  6  1  2  0  0  0
 17  7  1  0  0  0
 30 25  1  0  0  0
 14  9  2  0  0  0
 33 35  1  0  0  0
 34 36  1  0  0  0
 17 18  1  0  0  0
M  END
> <minimizedAffinity>
-9.14614

$$$$



 40 43  0  0  0  0  0  0  0  0999 V2000
   -0.0247   63.2181   84.8760 C   0  0  0  0  0  0  0  0  0  0  0  0
    0.4408   64.0360   85.9172 C   0  0  0  0  0  0  0  0  0  0  0  0
    1.0947   65.2406   85.6447 C   0  0  0  0  0  0  0  0  0  0  0  0
    1.2902   65.6372   84.3231 C   0  0  0  0  0  0  0  0  0  0  0  0
    0.8054   64.8546   83.2748 C   0  0  0  0  0  0  0  0  0  0  0  0
    0.1606   63.6318   83.5368 C   0  0  0  0  0  0  0  0  0  0  0  0
   -0.2733   62.8320   82.3374 C   0  0  0  0  0  0  0  0  0  0  0  0
    0.2201   63.1219   81.1635 N   0  0  0  0  0  0  0  0  0  0  0  0
   -0.2542   62.3126   80.1305 C   0  0  0  0  0  0  0  0  0  0  0  0
    0.0508   62.3318   78.7599 C   0  0  0  0  0  0  0  0  0  0  0  0
   -0.6278   61.3658   78.1114 N   0  0  0  0  0  0  0  0  0  0  0  0
   -1.3466   60.7558   79.0864 N   0  0  0  0  0  0  0  0  0  0  0  0
   -2.2109   59.6482   78.7576 C   0  0  0  0  0  0  0  0  0  0  0  0
   -1.1457   61.2999   80.3157 C   0  0  0  0  0  0  0  0  0  0  0  0
   -1.6810   60.9746   81.5854 C   0  0  0  0  0  0  0  0  0  0  0  0
   -2.4687   60.0668   81.8232 O   0  0  0  0  0  0  0  0  0  0  0  0
   -1.1947   61.8144   82.5609 N   0  0  0  0  0  0  0  0  0  0  0  0
   -1.5125   61.6244   83.5024 H   0  0  0  0  0  0  0  0  0  0  0  0
    0.9698   63.2473   78.0267 C   0  0  0  0  0  0  0  0  0  0  0  0
    0.5113   64.7076   78.0269 C   0  0  0  0  0  0  0  0  0  0  0  0
    1.4399   65.6257   78.8097 C   0  0  0  0  0  0  0  0  0  0  0  0
    2.0868   67.1930   83.9736 S   0  0  0  0  0  0  0  0  0  0  0  0
    1.8715   67.4884   82.5745 O   0  0  0  0  0  0  0  0  0  0  0  0
    1.6784   68.1183   85.0095 O   0  0  0  0  0  0  0  0  0  0  0  0
    3.7318   66.8414   84.2015 N   0  0  0  0  0  0  0  0  0  0  0  0
    4.0677   65.5680   84.8789 C   0  0  0  0  0  0  0  0  0  0  0  0
    5.5221   65.5398   85.3381 C   0  0  0  0  0  0  0  0  0  0  0  0
    6.4591   66.1505   84.2940 C   0  0  0  0  0  0  0  0  0  0  0  0
    6.0380   67.5852   83.9351 C   0  0  0  0  0  0  0  0  0  0  0  0
    4.6512   67.9597   84.4511 C   0  0  0  0  0  0  0  0  0  0  0  0
    8.1764   65.9840   84.7707 P   0  0  0  0  0  0  0  0  0  0  0  0
    8.4437   65.8792   86.2326 O   0  0  0  0  0  0  0  0  0  0  0  0
    8.9706   67.1775   84.0566 O   0  0  0  0  0  0  0  0  0  0  0  0
    8.7412   64.7351   83.9452 O   0  0  0  0  0  0  0  0  0  0  0  0
    8.6217   67.4941   83.2062 H   0  0  0  0  0  0  0  0  0  0  0  0
    9.6306   64.4842   84.2647 H   0  0  0  0  0  0  0  0  0  0  0  0
   -0.6630   62.0223   85.0867 O   0  0  0  0  0  0  0  0  0  0  0  0
   -1.2996   61.8015   86.3483 C   0  0  0  0  0  0  0  0  0  0  0  0
   -3.0176   63.3963   87.2776 C   0  0  0  0  0  0  0  0  0  0  0  0
   -2.7283   62.3261   86.2407 C   0  0  0  0  0  0  0  0  0  0  0  0
 39 40  1  0  0  0
 40 38  1  0  0  0
 38 37  1  0  0  0
 37  1  1  0  0  0
  1  2  1  0  0  0
  2  3  2  0  0  0
  3  4  1  0  0  0
  4 22  1  0  0  0
 22 23  2  0  0  0
 22 24  2  0  0  0
 22 25  1  0  0  0
 25 26  1  0  0  0
 26 27  1  0  0  0
 27 28  1  0  0  0
 28 31  1  0  0  0
 31 32  2  0  0  0
 31 33  1  0  0  0
 31 34  1  0  0  0
 28 29  1  0  0  0
 29 30  1  0  0  0
  4  5  2  0  0  0
  5  6  1  0  0  0
  6  7  1  0  0  0
  7  8  2  0  0  0
  8  9  1  0  0  0
  9 10  1  0  0  0
 10 19  1  0  0  0
 19 20  1  0  0  0
 20 21  1  0  0  0
 10 11  2  0  0  0
 11 12  1  0  0  0
 12 13  1  0  0  0
 12 14  1  0  0  0
 14 15  1  0  0  0
 15 16  2  0  0  0
 15 17  1  0  0  0
  6  1  2  0  0  0
 17  7  1  0  0  0
 30 25  1  0  0  0
 14  9  2  0  0  0
 33 35  1  0  0  0
 34 36  1  0  0  0
 17 18  1  0  0  0
M  END
> <minimizedAffinity>
-9.12670

$$$$
