
     RDKit          3D

 58 61  0  0  0  0  0  0  0  0999 V2000
   -0.5528   -5.8397    0.2362 C   0  0  0  0  0  0  0  0  0  0  0  0
    0.5936   -4.8498    0.1310 C   0  0  0  0  0  0  0  0  0  0  0  0
    0.1134   -3.5795    0.5760 O   0  0  0  0  0  0  0  0  0  0  0  0
    0.9667   -2.5057    0.5221 C   0  0  0  0  0  0  0  0  0  0  0  0
    2.3087   -2.6112    0.1311 C   0  0  0  0  0  0  0  0  0  0  0  0
    3.1359   -1.4850    0.0876 C   0  0  0  0  0  0  0  0  0  0  0  0
    2.6441   -0.2263    0.4353 C   0  0  0  0  0  0  0  0  0  0  0  0
    3.5339    0.9902    0.3879 C   0  0  0  0  0  0  0  0  0  0  0  0
    3.4769    1.7444   -0.9382 C   0  0  1  0  0  0  0  0  0  0  0  0
    3.6753    1.0152   -2.2939 C   0  0  0  0  0  0  0  0  0  0  0  0
    2.7002    2.0422   -2.9308 C   0  0  2  0  0  0  0  0  0  0  0  0
    3.3268    3.2680   -3.6620 C   0  0  0  0  0  0  0  0  0  0  0  0
    4.3631    3.8539   -3.3340 O   0  0  0  0  0  0  0  0  0  0  0  0
    2.6048    3.6996   -4.7546 N   0  0  0  0  0  0  0  0  0  0  0  0
    3.0417    4.9102   -5.3403 O   0  0  0  0  0  0  0  0  0  0  0  0
    2.1362    2.2820   -1.5053 C   0  0  0  0  0  0  0  0  0  0  0  0
    1.3073   -0.1192    0.8390 C   0  0  0  0  0  0  0  0  0  0  0  0
    0.4551   -1.2408    0.8837 C   0  0  0  0  0  0  0  0  0  0  0  0
   -0.9687   -0.9901    1.3130 C   0  0  0  0  0  0  0  0  0  0  0  0
   -1.3919    0.2373    1.4642 N   0  0  0  0  0  0  0  0  0  0  0  0
   -2.7252    0.3375    1.8631 C   0  0  0  0  0  0  0  0  0  0  0  0
   -3.5060    1.4769    2.1154 C   0  0  0  0  0  0  0  0  0  0  0  0
   -3.1095    2.9083    2.0277 C   0  0  0  0  0  0  0  0  0  0  0  0
   -3.2276    3.4553    0.6134 C   0  0  0  0  0  0  0  0  0  0  0  0
   -4.7562    1.1250    2.4727 N   0  0  0  0  0  0  0  0  0  0  0  0
   -4.7379   -0.2312    2.4409 N   0  0  0  0  0  0  0  0  0  0  0  0
   -5.9283   -0.9755    2.7741 C   0  0  0  0  0  0  0  0  0  0  0  0
   -3.5311   -0.7392    2.0764 C   0  0  0  0  0  0  0  0  0  0  0  0
   -3.0844   -2.0726    1.9138 C   0  0  0  0  0  0  0  0  0  0  0  0
   -3.7596   -3.0817    2.0785 O   0  0  0  0  0  0  0  0  0  0  0  0
   -1.7635   -2.1113    1.5316 N   0  0  0  0  0  0  0  0  0  0  0  0
   -0.9127   -5.9041    1.2685 H   0  0  0  0  0  0  0  0  0  0  0  0
   -1.4002   -5.5142   -0.3763 H   0  0  0  0  0  0  0  0  0  0  0  0
   -0.2404   -6.8349   -0.0923 H   0  0  0  0  0  0  0  0  0  0  0  0
    1.4174   -5.1878    0.7696 H   0  0  0  0  0  0  0  0  0  0  0  0
    0.9200   -4.7900   -0.9135 H   0  0  0  0  0  0  0  0  0  0  0  0
    2.7529   -3.5613   -0.1488 H   0  0  0  0  0  0  0  0  0  0  0  0
    4.1734   -1.6010   -0.2217 H   0  0  0  0  0  0  0  0  0  0  0  0
    4.5688    0.6849    0.5897 H   0  0  0  0  0  0  0  0  0  0  0  0
    3.2634    1.6667    1.2087 H   0  0  0  0  0  0  0  0  0  0  0  0
    4.2003    2.5723   -0.8479 H   0  0  0  0  0  0  0  0  0  0  0  0
    4.6997    1.0224   -2.6775 H   0  0  0  0  0  0  0  0  0  0  0  0
    3.2968   -0.0109   -2.3437 H   0  0  0  0  0  0  0  0  0  0  0  0
    1.9653    1.5390   -3.5754 H   0  0  0  0  0  0  0  0  0  0  0  0
    1.6451    3.4258   -4.9337 H   0  0  0  0  0  0  0  0  0  0  0  0
    3.8379    5.1245   -4.8045 H   0  0  0  0  0  0  0  0  0  0  0  0
    1.2494    1.6753   -1.2971 H   0  0  0  0  0  0  0  0  0  0  0  0
    1.9099    3.3210   -1.2483 H   0  0  0  0  0  0  0  0  0  0  0  0
    0.9246    0.8607    1.1236 H   0  0  0  0  0  0  0  0  0  0  0  0
   -2.0758    3.0241    2.3751 H   0  0  0  0  0  0  0  0  0  0  0  0
   -3.7328    3.5100    2.7003 H   0  0  0  0  0  0  0  0  0  0  0  0
   -2.5825    2.9047   -0.0799 H   0  0  0  0  0  0  0  0  0  0  0  0
   -2.9323    4.5089    0.5878 H   0  0  0  0  0  0  0  0  0  0  0  0
   -4.2565    3.3805    0.2453 H   0  0  0  0  0  0  0  0  0  0  0  0
   -5.7057   -1.6201    3.6279 H   0  0  0  0  0  0  0  0  0  0  0  0
   -6.2194   -1.5693    1.9043 H   0  0  0  0  0  0  0  0  0  0  0  0
   -6.7317   -0.2814    3.0343 H   0  0  0  0  0  0  0  0  0  0  0  0
   -1.3757   -3.0331    1.3787 H   0  0  0  0  0  0  0  0  0  0  0  0
  1  2  1  0
  2  3  1  0
  3  4  1  0
  4  5  1  0
  5  6  2  0
  6  7  1  0
  7  8  1  0
  8  9  1  0
  9 10  1  0
 10 11  1  0
 11 12  1  0
 12 13  2  0
 12 14  1  0
 14 15  1  0
 11 16  1  0
  7 17  2  0
 17 18  1  0
 18 19  1  0
 19 20  2  0
 20 21  1  0
 21 22  1  0
 22 23  1  0
 23 24  1  0
 22 25  2  0
 25 26  1  0
 26 27  1  0
 26 28  1  0
 28 29  1  0
 29 30  2  0
 29 31  1  0
 18  4  2  0
 31 19  1  0
 16  9  1  0
 28 21  2  0
  1 32  1  0
  1 33  1  0
  1 34  1  0
  2 35  1  0
  2 36  1  0
  5 37  1  0
  6 38  1  0
  8 39  1  0
  8 40  1  0
  9 41  1  1
 10 42  1  0
 10 43  1  0
 11 44  1  6
 14 45  1  0
 15 46  1  0
 16 47  1  0
 16 48  1  0
 17 49  1  0
 23 50  1  0
 23 51  1  0
 24 52  1  0
 24 53  1  0
 24 54  1  0
 27 55  1  0
 27 56  1  0
 27 57  1  0
 31 58  1  0
M  END
$$$$
