
     RDKit          3D

 59 64  0  0  0  0  0  0  0  0999 V2000
    6.8362   -3.0176    0.0737 C   0  0  0  0  0  0  0  0  0  0  0  0
    5.9532   -2.7345    1.2765 C   0  0  0  0  0  0  0  0  0  0  0  0
    4.6100   -3.1408    1.0216 O   0  0  0  0  0  0  0  0  0  0  0  0
    3.7339   -2.2302    0.5042 C   0  0  0  0  0  0  0  0  0  0  0  0
    2.4074   -2.6569    0.4627 C   0  0  0  0  0  0  0  0  0  0  0  0
    1.3990   -1.8309   -0.0482 C   0  0  0  0  0  0  0  0  0  0  0  0
    1.6834   -0.5382   -0.5065 C   0  0  0  0  0  0  0  0  0  0  0  0
    0.6375    0.3684   -1.1327 C   0  0  2  0  0  0  0  0  0  0  0  0
    0.5998    1.8151   -0.7345 C   0  0  0  0  0  0  0  0  0  0  0  0
    1.3334    2.4601    0.2194 N   0  0  0  0  0  0  0  0  0  0  0  0
    0.9539    3.7859    0.2767 C   0  0  0  0  0  0  0  0  0  0  0  0
    1.4503    4.8281    1.0688 C   0  0  0  0  0  0  0  0  0  0  0  0
    0.8495    6.0839    0.9400 C   0  0  0  0  0  0  0  0  0  0  0  0
   -0.2113    6.2863    0.0599 C   0  0  0  0  0  0  0  0  0  0  0  0
   -0.7027    5.2336   -0.7208 C   0  0  0  0  0  0  0  0  0  0  0  0
   -0.1072    3.9618   -0.6179 C   0  0  0  0  0  0  0  0  0  0  0  0
   -0.3463    2.7008   -1.2205 C   0  0  0  0  0  0  0  0  0  0  0  0
   -1.4080    2.2343   -2.1708 C   0  0  0  0  0  0  0  0  0  0  0  0
   -1.6782    0.7037   -2.0249 C   0  0  2  0  0  0  0  0  0  0  0  0
   -3.0195    0.4910   -1.3447 C   0  0  0  0  0  0  0  0  0  0  0  0
   -4.0993    0.8285   -1.8126 O   0  0  0  0  0  0  0  0  0  0  0  0
   -2.7993   -0.0602   -0.1207 N   0  0  0  0  0  0  0  0  0  0  0  0
   -3.8249   -0.2985    0.8665 C   0  0  0  0  0  0  0  0  0  0  0  0
   -4.3441   -1.7142    0.7810 C   0  0  0  0  0  0  0  0  0  0  0  0
   -3.7217   -2.7434    1.5023 C   0  0  0  0  0  0  0  0  0  0  0  0
   -4.1849   -4.0559    1.4031 C   0  0  0  0  0  0  0  0  0  0  0  0
   -5.2675   -4.3536    0.5773 C   0  0  0  0  0  0  0  0  0  0  0  0
   -5.8851   -3.3406   -0.1543 C   0  0  0  0  0  0  0  0  0  0  0  0
   -5.4238   -2.0271   -0.0572 C   0  0  0  0  0  0  0  0  0  0  0  0
   -1.4631   -0.2290    0.1065 C   0  0  0  0  0  0  0  0  0  0  0  0
   -0.9654   -0.4933    1.1904 O   0  0  0  0  0  0  0  0  0  0  0  0
   -0.7791   -0.0059   -1.0972 N   0  0  0  0  0  0  0  0  0  0  0  0
    3.0368   -0.1448   -0.5074 C   0  0  0  0  0  0  0  0  0  0  0  0
    4.0474   -0.9720    0.0019 C   0  0  0  0  0  0  0  0  0  0  0  0
    6.5172   -2.4435   -0.8012 H   0  0  0  0  0  0  0  0  0  0  0  0
    7.8786   -2.7693    0.2925 H   0  0  0  0  0  0  0  0  0  0  0  0
    6.7775   -4.0755   -0.2036 H   0  0  0  0  0  0  0  0  0  0  0  0
    6.3071   -3.3439    2.1159 H   0  0  0  0  0  0  0  0  0  0  0  0
    6.0241   -1.6936    1.6110 H   0  0  0  0  0  0  0  0  0  0  0  0
    2.1492   -3.6478    0.8293 H   0  0  0  0  0  0  0  0  0  0  0  0
    0.3870   -2.2267   -0.0776 H   0  0  0  0  0  0  0  0  0  0  0  0
    0.8927    0.3414   -2.2042 H   0  0  0  0  0  0  0  0  0  0  0  0
    2.0301    2.0361    0.8179 H   0  0  0  0  0  0  0  0  0  0  0  0
    2.2685    4.6722    1.7642 H   0  0  0  0  0  0  0  0  0  0  0  0
    1.2130    6.9138    1.5418 H   0  0  0  0  0  0  0  0  0  0  0  0
   -0.6668    7.2703   -0.0192 H   0  0  0  0  0  0  0  0  0  0  0  0
   -1.5344    5.4012   -1.3982 H   0  0  0  0  0  0  0  0  0  0  0  0
   -1.0532    2.4270   -3.1913 H   0  0  0  0  0  0  0  0  0  0  0  0
   -2.3236    2.8218   -2.0386 H   0  0  0  0  0  0  0  0  0  0  0  0
   -1.6697    0.1903   -2.9915 H   0  0  0  0  0  0  0  0  0  0  0  0
   -3.4217   -0.1121    1.8690 H   0  0  0  0  0  0  0  0  0  0  0  0
   -4.6495    0.4083    0.7153 H   0  0  0  0  0  0  0  0  0  0  0  0
   -2.8668   -2.5266    2.1414 H   0  0  0  0  0  0  0  0  0  0  0  0
   -3.6975   -4.8467    1.9675 H   0  0  0  0  0  0  0  0  0  0  0  0
   -5.6265   -5.3764    0.4997 H   0  0  0  0  0  0  0  0  0  0  0  0
   -6.7242   -3.5739   -0.8046 H   0  0  0  0  0  0  0  0  0  0  0  0
   -5.9073   -1.2478   -0.6442 H   0  0  0  0  0  0  0  0  0  0  0  0
    3.3280    0.8146   -0.9331 H   0  0  0  0  0  0  0  0  0  0  0  0
    5.0680   -0.6074   -0.0332 H   0  0  0  0  0  0  0  0  0  0  0  0
  1  2  1  0
  2  3  1  0
  3  4  1  0
  4  5  1  0
  5  6  2  0
  6  7  1  0
  7  8  1  0
  8  9  1  0
  9 10  1  0
 10 11  1  0
 11 12  2  0
 12 13  1  0
 13 14  2  0
 14 15  1  0
 15 16  2  0
 16 17  1  0
 17 18  1  0
 18 19  1  0
 19 20  1  0
 20 21  2  0
 20 22  1  0
 22 23  1  0
 23 24  1  0
 24 25  2  0
 25 26  1  0
 26 27  2  0
 27 28  1  0
 28 29  2  0
 22 30  1  0
 30 31  2  0
 30 32  1  0
  7 33  2  0
 33 34  1  0
 34  4  2  0
 32  8  1  0
 17  9  2  0
 32 19  1  0
 16 11  1  0
 29 24  1  0
  1 35  1  0
  1 36  1  0
  1 37  1  0
  2 38  1  0
  2 39  1  0
  5 40  1  0
  6 41  1  0
  8 42  1  6
 10 43  1  0
 12 44  1  0
 13 45  1  0
 14 46  1  0
 15 47  1  0
 18 48  1  0
 18 49  1  0
 19 50  1  6
 23 51  1  0
 23 52  1  0
 25 53  1  0
 26 54  1  0
 27 55  1  0
 28 56  1  0
 29 57  1  0
 33 58  1  0
 34 59  1  0
M  END
$$$$
