
     RDKit          3D

 81 84  0  0  0  0  0  0  0  0999 V2000
   -8.0225    1.1135    3.2578 C   0  0  0  0  0  0  0  0  0  0  0  0
   -7.8248    1.4777    1.7928 C   0  0  0  0  0  0  0  0  0  0  0  0
   -8.1452    0.3254    0.8381 C   0  0  0  0  0  0  0  0  0  0  0  0
   -7.1900   -0.8136    0.9353 C   0  0  0  0  0  0  0  0  0  0  0  0
   -7.5392   -1.9611    1.5481 N   0  0  0  0  0  0  0  0  0  0  0  0
   -6.4376   -2.7441    1.4350 N   0  0  0  0  0  0  0  0  0  0  0  0
   -6.4420   -4.0765    1.9890 C   0  0  0  0  0  0  0  0  0  0  0  0
   -5.4168   -2.1363    0.7740 C   0  0  0  0  0  0  0  0  0  0  0  0
   -4.1175   -2.5881    0.4352 C   0  0  0  0  0  0  0  0  0  0  0  0
   -3.6491   -3.6917    0.6881 O   0  0  0  0  0  0  0  0  0  0  0  0
   -3.4062   -1.6214   -0.2399 N   0  0  0  0  0  0  0  0  0  0  0  0
   -3.9292   -0.3739   -0.5643 C   0  0  0  0  0  0  0  0  0  0  0  0
   -3.0031    0.5069   -1.3076 C   0  0  0  0  0  0  0  0  0  0  0  0
   -1.7884    0.8669   -0.7140 C   0  0  0  0  0  0  0  0  0  0  0  0
   -0.9204    1.7141   -1.4091 C   0  0  0  0  0  0  0  0  0  0  0  0
    0.6293    2.1850   -0.6800 S   0  0  0  0  0  0  0  0  0  0  0  0
    0.6281    3.6275   -0.5828 O   0  0  0  0  0  0  0  0  0  0  0  0
    0.8578    1.3421    0.4744 O   0  0  0  0  0  0  0  0  0  0  0  0
    1.7580    1.7254   -1.8689 N   0  0  0  0  0  0  0  0  0  0  0  0
    1.8907    0.2532   -2.1168 C   0  0  0  0  0  0  0  0  0  0  0  0
    3.2008   -0.3077   -1.5331 C   0  0  0  0  0  0  0  0  0  0  0  0
    4.4124    0.2850   -2.1453 N   0  0  0  0  0  0  0  0  0  0  0  0
    5.5852    0.1507   -1.2628 C   0  0  0  0  0  0  0  0  0  0  0  0
    6.0082   -1.3059   -1.0062 C   0  0  0  0  0  0  0  0  0  0  0  0
    7.2445   -1.3542   -0.2698 O   0  0  0  0  0  0  0  0  0  0  0  0
    7.1279   -1.1989    1.0785 C   0  0  0  0  0  0  0  0  0  0  0  0
    6.0793   -1.0085    1.6764 O   0  0  0  0  0  0  0  0  0  0  0  0
    8.4932   -1.2943    1.7165 C   0  0  0  0  0  0  0  0  0  0  0  0
    8.4192   -1.1178    3.2343 C   0  0  0  0  0  0  0  0  0  0  0  0
    9.7858   -1.2594    3.9004 C   0  0  0  0  0  0  0  0  0  0  0  0
   10.6394   -0.2254    3.4199 O   0  0  0  0  0  0  0  0  0  0  0  0
   11.9343   -0.2789    3.9901 N   0  0  0  0  0  0  0  0  0  0  0  0
   12.1587   -1.1809    4.7983 O   0  0  0  0  0  0  0  0  0  0  0  0
   12.6731    0.6114    3.5745 O   0  0  0  0  0  0  0  0  0  0  0  0
    4.1791    1.6976   -2.5240 C   0  0  0  0  0  0  0  0  0  0  0  0
    3.0828    2.4094   -1.7109 C   0  0  0  0  0  0  0  0  0  0  0  0
   -1.2483    2.2007   -2.6796 C   0  0  0  0  0  0  0  0  0  0  0  0
   -2.4597    1.8328   -3.2661 C   0  0  0  0  0  0  0  0  0  0  0  0
   -3.3434    0.9998   -2.5741 C   0  0  0  0  0  0  0  0  0  0  0  0
   -4.4914    0.5858   -3.1948 O   0  0  0  0  0  0  0  0  0  0  0  0
   -5.4856    1.6188   -3.1669 C   0  0  0  0  0  0  0  0  0  0  0  0
   -6.8258    0.9880   -3.4966 C   0  0  0  0  0  0  0  0  0  0  0  0
   -5.1224    0.0461   -0.2542 N   0  0  0  0  0  0  0  0  0  0  0  0
   -5.8776   -0.8971    0.4439 C   0  0  0  0  0  0  0  0  0  0  0  0
   -7.3240    0.3330    3.5746 H   0  0  0  0  0  0  0  0  0  0  0  0
   -9.0423    0.7600    3.4403 H   0  0  0  0  0  0  0  0  0  0  0  0
   -7.8504    1.9909    3.8894 H   0  0  0  0  0  0  0  0  0  0  0  0
   -6.7958    1.8257    1.6430 H   0  0  0  0  0  0  0  0  0  0  0  0
   -8.4834    2.3213    1.5538 H   0  0  0  0  0  0  0  0  0  0  0  0
   -9.1701   -0.0250    1.0138 H   0  0  0  0  0  0  0  0  0  0  0  0
   -8.1260    0.7076   -0.1906 H   0  0  0  0  0  0  0  0  0  0  0  0
   -7.4022   -4.2660    2.4759 H   0  0  0  0  0  0  0  0  0  0  0  0
   -5.6353   -4.1493    2.7224 H   0  0  0  0  0  0  0  0  0  0  0  0
   -6.2924   -4.7896    1.1747 H   0  0  0  0  0  0  0  0  0  0  0  0
   -2.4823   -1.8946   -0.5377 H   0  0  0  0  0  0  0  0  0  0  0  0
   -1.5356    0.5147    0.2837 H   0  0  0  0  0  0  0  0  0  0  0  0
    1.0430   -0.2976   -1.6963 H   0  0  0  0  0  0  0  0  0  0  0  0
    1.8538    0.0909   -3.2010 H   0  0  0  0  0  0  0  0  0  0  0  0
    3.2183   -1.3910   -1.6969 H   0  0  0  0  0  0  0  0  0  0  0  0
    3.1936   -0.1393   -0.4479 H   0  0  0  0  0  0  0  0  0  0  0  0
    6.4462    0.6509   -1.7263 H   0  0  0  0  0  0  0  0  0  0  0  0
    5.4200    0.6722   -0.3114 H   0  0  0  0  0  0  0  0  0  0  0  0
    5.2352   -1.8807   -0.4830 H   0  0  0  0  0  0  0  0  0  0  0  0
    6.1932   -1.8124   -1.9601 H   0  0  0  0  0  0  0  0  0  0  0  0
    8.9133   -2.2778    1.4785 H   0  0  0  0  0  0  0  0  0  0  0  0
    9.1277   -0.5172    1.2768 H   0  0  0  0  0  0  0  0  0  0  0  0
    7.7323   -1.8575    3.6628 H   0  0  0  0  0  0  0  0  0  0  0  0
    8.0076   -0.1253    3.4569 H   0  0  0  0  0  0  0  0  0  0  0  0
   10.2054   -2.2451    3.6641 H   0  0  0  0  0  0  0  0  0  0  0  0
    9.6559   -1.1645    4.9855 H   0  0  0  0  0  0  0  0  0  0  0  0
    5.1061    2.2823   -2.4818 H   0  0  0  0  0  0  0  0  0  0  0  0
    3.8797    1.7001   -3.5804 H   0  0  0  0  0  0  0  0  0  0  0  0
    3.3732    2.4417   -0.6540 H   0  0  0  0  0  0  0  0  0  0  0  0
    2.9827    3.4385   -2.0737 H   0  0  0  0  0  0  0  0  0  0  0  0
   -0.5641    2.8591   -3.2119 H   0  0  0  0  0  0  0  0  0  0  0  0
   -2.7092    2.1868   -4.2632 H   0  0  0  0  0  0  0  0  0  0  0  0
   -5.2451    2.3794   -3.9186 H   0  0  0  0  0  0  0  0  0  0  0  0
   -5.5408    2.0952   -2.1802 H   0  0  0  0  0  0  0  0  0  0  0  0
   -7.0749    0.2086   -2.7689 H   0  0  0  0  0  0  0  0  0  0  0  0
   -6.7942    0.5074   -4.4800 H   0  0  0  0  0  0  0  0  0  0  0  0
   -7.6209    1.7388   -3.4956 H   0  0  0  0  0  0  0  0  0  0  0  0
  1  2  1  0
  2  3  1  0
  3  4  1  0
  4  5  2  0
  5  6  1  0
  6  7  1  0
  6  8  1  0
  8  9  1  0
  9 10  2  0
  9 11  1  0
 11 12  1  0
 12 13  1  0
 13 14  1  0
 14 15  2  0
 15 16  1  0
 16 17  2  0
 16 18  2  0
 16 19  1  0
 19 20  1  0
 20 21  1  0
 21 22  1  0
 22 23  1  0
 23 24  1  0
 24 25  1  0
 25 26  1  0
 26 27  2  0
 26 28  1  0
 28 29  1  0
 29 30  1  0
 30 31  1  0
 31 32  1  0
 32 33  2  0
 32 34  1  0
 22 35  1  0
 35 36  1  0
 15 37  1  0
 37 38  2  0
 38 39  1  0
 39 40  1  0
 40 41  1  0
 41 42  1  0
 12 43  2  0
 43 44  1  0
 44  4  1  0
 44  8  2  0
 39 13  2  0
 36 19  1  0
  1 45  1  0
  1 46  1  0
  1 47  1  0
  2 48  1  0
  2 49  1  0
  3 50  1  0
  3 51  1  0
  7 52  1  0
  7 53  1  0
  7 54  1  0
 11 55  1  0
 14 56  1  0
 20 57  1  0
 20 58  1  0
 21 59  1  0
 21 60  1  0
 23 61  1  0
 23 62  1  0
 24 63  1  0
 24 64  1  0
 28 65  1  0
 28 66  1  0
 29 67  1  0
 29 68  1  0
 30 69  1  0
 30 70  1  0
 35 71  1  0
 35 72  1  0
 36 73  1  0
 36 74  1  0
 37 75  1  0
 38 76  1  0
 41 77  1  0
 41 78  1  0
 42 79  1  0
 42 80  1  0
 42 81  1  0
M  CHG  2  32   1  34  -1
M  END
$$$$
