


 32 34  0  0  0  0  0  0  0  0999 V2000
    3.5267   67.0867   84.4276 C   0  0  0  0  0  0  0  0  0  0  0  0
    4.2695   68.1616   83.9154 C   0  0  0  0  0  0  0  0  0  0  0  0
    3.7651   68.9501   82.8787 C   0  0  0  0  0  0  0  0  0  0  0  0
    2.5087   68.6684   82.3469 C   0  0  0  0  0  0  0  0  0  0  0  0
    1.7592   67.5951   82.8291 C   0  0  0  0  0  0  0  0  0  0  0  0
    2.2547   66.7996   83.8786 C   0  0  0  0  0  0  0  0  0  0  0  0
    1.3666   65.6847   84.3520 C   0  0  0  0  0  0  0  0  0  0  0  0
    0.7039   64.9637   83.5035 N   0  0  0  0  0  0  0  0  0  0  0  0
   -0.0954   63.9394   83.9742 C   0  0  0  0  0  0  0  0  0  0  0  0
   -0.2546   63.6462   85.2814 C   0  0  0  0  0  0  0  0  0  0  0  0
   -1.3075   62.2697   85.9753 Br  0  0  0  0  0  0  0  0  0  0  0  0
    0.4952   64.4909   86.2515 C   0  0  0  0  0  0  0  0  0  0  0  0
    0.4253   64.3548   87.4695 O   0  0  0  0  0  0  0  0  0  0  0  0
    1.2835   65.4569   85.6982 N   0  0  0  0  0  0  0  0  0  0  0  0
    1.7888   66.0478   86.3465 H   0  0  0  0  0  0  0  0  0  0  0  0
   -0.7974   63.1842   82.8591 C   0  0  0  0  0  0  0  0  0  0  0  0
    0.1951   62.6764   81.8103 C   0  0  0  0  0  0  0  0  0  0  0  0
    0.9415   61.4462   82.3025 C   0  0  0  0  0  0  0  0  0  0  0  0
    1.8898   69.6607   81.0101 S   0  0  0  0  0  0  0  0  0  0  0  0
    0.9128   68.8890   80.2736 O   0  0  0  0  0  0  0  0  0  0  0  0
    3.0371   70.2397   80.3430 O   0  0  0  0  0  0  0  0  0  0  0  0
    1.0669   70.9129   81.8252 N   0  0  0  0  0  0  0  0  0  0  0  0
   -0.2754   71.2736   81.2541 C   0  0  0  0  0  0  0  0  0  0  0  0
   -0.7239   72.6676   81.7299 C   0  0  0  0  0  0  0  0  0  0  0  0
    0.1623   73.7474   81.2522 N   0  0  0  0  0  0  0  0  0  0  0  0
    0.0258   74.9363   82.0892 C   0  0  0  0  0  0  0  0  0  0  0  0
    1.5654   73.2948   81.1551 C   0  0  0  0  0  0  0  0  0  0  0  0
    1.9229   72.1213   82.0849 C   0  0  0  0  0  0  0  0  0  0  0  0
    3.9717   66.2839   85.4477 O   0  0  0  0  0  0  0  0  0  0  0  0
    5.2362   66.5803   86.0467 C   0  0  0  0  0  0  0  0  0  0  0  0
    7.1721   65.8118   84.6254 C   0  0  0  0  0  0  0  0  0  0  0  0
    6.1838   65.4319   85.7130 C   0  0  0  0  0  0  0  0  0  0  0  0
 31 32  1  0  0  0
 32 30  1  0  0  0
 30 29  1  0  0  0
 29  1  1  0  0  0
  1  2  1  0  0  0
  2  3  2  0  0  0
  3  4  1  0  0  0
  4 19  1  0  0  0
 19 20  2  0  0  0
 19 21  2  0  0  0
 19 22  1  0  0  0
 22 23  1  0  0  0
 23 24  1  0  0  0
 24 25  1  0  0  0
 25 26  1  0  0  0
 25 27  1  0  0  0
 27 28  1  0  0  0
  4  5  2  0  0  0
  5  6  1  0  0  0
  6  7  1  0  0  0
  7  8  2  0  0  0
  8  9  1  0  0  0
  9 16  1  0  0  0
 16 17  1  0  0  0
 17 18  1  0  0  0
  9 10  2  0  0  0
 10 11  1  0  0  0
 10 12  1  0  0  0
 12 13  2  0  0  0
 12 14  1  0  0  0
  6  1  2  0  0  0
 14  7  1  0  0  0
 28 22  1  0  0  0
 14 15  1  0  0  0
M  END
> <minimizedAffinity>
-9.15594

$$$$



 32 34  0  0  0  0  0  0  0  0999 V2000
    3.7362   66.7217   84.5855 C   0  0  0  0  0  0  0  0  0  0  0  0
    4.5462   67.7832   84.1533 C   0  0  0  0  0  0  0  0  0  0  0  0
    4.0428   68.7639   83.2956 C   0  0  0  0  0  0  0  0  0  0  0  0
    2.7201   68.6898   82.8645 C   0  0  0  0  0  0  0  0  0  0  0  0
    1.9010   67.6350   83.2680 C   0  0  0  0  0  0  0  0  0  0  0  0
    2.3960   66.6463   84.1383 C   0  0  0  0  0  0  0  0  0  0  0  0
    1.4343   65.5656   84.5418 C   0  0  0  0  0  0  0  0  0  0  0  0
    0.8196   64.8609   83.6448 N   0  0  0  0  0  0  0  0  0  0  0  0
   -0.0504   63.8677   84.0527 C   0  0  0  0  0  0  0  0  0  0  0  0
   -0.3268   63.5900   85.3436 C   0  0  0  0  0  0  0  0  0  0  0  0
   -1.4799   62.2550   85.9545 Br  0  0  0  0  0  0  0  0  0  0  0  0
    0.3687   64.4163   86.3684 C   0  0  0  0  0  0  0  0  0  0  0  0
    0.1938   64.2920   87.5771 O   0  0  0  0  0  0  0  0  0  0  0  0
    1.2325   65.3510   85.8776 N   0  0  0  0  0  0  0  0  0  0  0  0
    1.7024   65.9295   86.5627 H   0  0  0  0  0  0  0  0  0  0  0  0
   -0.6832   63.1281   82.8869 C   0  0  0  0  0  0  0  0  0  0  0  0
    0.3628   62.7062   81.8521 C   0  0  0  0  0  0  0  0  0  0  0  0
    1.0094   61.3813   82.2252 C   0  0  0  0  0  0  0  0  0  0  0  0
    2.0994   69.9273   81.7518 S   0  0  0  0  0  0  0  0  0  0  0  0
    0.7153   70.1920   82.0782 O   0  0  0  0  0  0  0  0  0  0  0  0
    2.4855   69.5292   80.4141 O   0  0  0  0  0  0  0  0  0  0  0  0
    3.0138   71.3030   82.1767 N   0  0  0  0  0  0  0  0  0  0  0  0
    2.3500   72.2368   83.1490 C   0  0  0  0  0  0  0  0  0  0  0  0
    3.0066   73.6291   83.1171 C   0  0  0  0  0  0  0  0  0  0  0  0
    2.8472   74.3068   81.8152 N   0  0  0  0  0  0  0  0  0  0  0  0
    3.8592   75.3459   81.6461 C   0  0  0  0  0  0  0  0  0  0  0  0
    2.8505   73.3414   80.6968 C   0  0  0  0  0  0  0  0  0  0  0  0
    3.5929   72.0257   80.9922 C   0  0  0  0  0  0  0  0  0  0  0  0
    4.1778   65.7352   85.4310 O   0  0  0  0  0  0  0  0  0  0  0  0
    5.5466   65.3289   85.3489 C   0  0  0  0  0  0  0  0  0  0  0  0
    5.1991   65.3522   87.8464 C   0  0  0  0  0  0  0  0  0  0  0  0
    6.1831   65.5784   86.7130 C   0  0  0  0  0  0  0  0  0  0  0  0
 31 32  1  0  0  0
 32 30  1  0  0  0
 30 29  1  0  0  0
 29  1  1  0  0  0
  1  2  1  0  0  0
  2  3  2  0  0  0
  3  4  1  0  0  0
  4 19  1  0  0  0
 19 20  2  0  0  0
 19 21  2  0  0  0
 19 22  1  0  0  0
 22 23  1  0  0  0
 23 24  1  0  0  0
 24 25  1  0  0  0
 25 26  1  0  0  0
 25 27  1  0  0  0
 27 28  1  0  0  0
  4  5  2  0  0  0
  5  6  1  0  0  0
  6  7  1  0  0  0
  7  8  2  0  0  0
  8  9  1  0  0  0
  9 16  1  0  0  0
 16 17  1  0  0  0
 17 18  1  0  0  0
  9 10  2  0  0  0
 10 11  1  0  0  0
 10 12  1  0  0  0
 12 13  2  0  0  0
 12 14  1  0  0  0
  6  1  2  0  0  0
 14  7  1  0  0  0
 28 22  1  0  0  0
 14 15  1  0  0  0
M  END
> <minimizedAffinity>
-9.02927

$$$$



 32 34  0  0  0  0  0  0  0  0999 V2000
    3.5728   66.9661   84.3919 C   0  0  0  0  0  0  0  0  0  0  0  0
    4.3089   68.0624   83.9165 C   0  0  0  0  0  0  0  0  0  0  0  0
    3.7306   68.9889   83.0458 C   0  0  0  0  0  0  0  0  0  0  0  0
    2.4065   68.8251   82.6450 C   0  0  0  0  0  0  0  0  0  0  0  0
    1.6603   67.7343   83.0918 C   0  0  0  0  0  0  0  0  0  0  0  0
    2.2309   66.7996   83.9754 C   0  0  0  0  0  0  0  0  0  0  0  0
    1.3439   65.6744   84.4259 C   0  0  0  0  0  0  0  0  0  0  0  0
    0.6598   64.9886   83.5653 N   0  0  0  0  0  0  0  0  0  0  0  0
   -0.1378   63.9535   84.0147 C   0  0  0  0  0  0  0  0  0  0  0  0
   -0.2740   63.6148   85.3134 C   0  0  0  0  0  0  0  0  0  0  0  0
   -1.3234   62.2213   85.9781 Br  0  0  0  0  0  0  0  0  0  0  0  0
    0.5004   64.4192   86.2983 C   0  0  0  0  0  0  0  0  0  0  0  0
    0.4529   64.2401   87.5118 O   0  0  0  0  0  0  0  0  0  0  0  0
    1.2850   65.3991   85.7645 N   0  0  0  0  0  0  0  0  0  0  0  0
    1.8069   65.9632   86.4235 H   0  0  0  0  0  0  0  0  0  0  0  0
   -0.8665   63.2434   82.8872 C   0  0  0  0  0  0  0  0  0  0  0  0
    0.1084   62.6994   81.8401 C   0  0  0  0  0  0  0  0  0  0  0  0
    0.8859   61.5060   82.3729 C   0  0  0  0  0  0  0  0  0  0  0  0
    1.6907   69.9943   81.5156 S   0  0  0  0  0  0  0  0  0  0  0  0
    2.7533   70.7764   80.9228 O   0  0  0  0  0  0  0  0  0  0  0  0
    0.5912   70.6352   82.2064 O   0  0  0  0  0  0  0  0  0  0  0  0
    1.0366   68.9887   80.3030 N   0  0  0  0  0  0  0  0  0  0  0  0
   -0.1817   68.2079   80.7082 C   0  0  0  0  0  0  0  0  0  0  0  0
   -0.4199   67.0197   79.7584 C   0  0  0  0  0  0  0  0  0  0  0  0
    0.6678   66.0225   79.8060 N   0  0  0  0  0  0  0  0  0  0  0  0
    0.6762   65.2086   78.5935 C   0  0  0  0  0  0  0  0  0  0  0  0
    1.9773   66.6594   80.0562 C   0  0  0  0  0  0  0  0  0  0  0  0
    2.0645   68.1322   79.6173 C   0  0  0  0  0  0  0  0  0  0  0  0
    4.0894   66.0298   85.2519 O   0  0  0  0  0  0  0  0  0  0  0  0
    5.1817   66.4071   86.0946 C   0  0  0  0  0  0  0  0  0  0  0  0
    5.5829   65.5046   88.4148 C   0  0  0  0  0  0  0  0  0  0  0  0
    5.5602   65.1880   86.9305 C   0  0  0  0  0  0  0  0  0  0  0  0
 31 32  1  0  0  0
 32 30  1  0  0  0
 30 29  1  0  0  0
 29  1  1  0  0  0
  1  2  1  0  0  0
  2  3  2  0  0  0
  3  4  1  0  0  0
  4 19  1  0  0  0
 19 20  2  0  0  0
 19 21  2  0  0  0
 19 22  1  0  0  0
 22 23  1  0  0  0
 23 24  1  0  0  0
 24 25  1  0  0  0
 25 26  1  0  0  0
 25 27  1  0  0  0
 27 28  1  0  0  0
  4  5  2  0  0  0
  5  6  1  0  0  0
  6  7  1  0  0  0
  7  8  2  0  0  0
  8  9  1  0  0  0
  9 16  1  0  0  0
 16 17  1  0  0  0
 17 18  1  0  0  0
  9 10  2  0  0  0
 10 11  1  0  0  0
 10 12  1  0  0  0
 12 13  2  0  0  0
 12 14  1  0  0  0
  6  1  2  0  0  0
 14  7  1  0  0  0
 28 22  1  0  0  0
 14 15  1  0  0  0
M  END
> <minimizedAffinity>
-8.93847

$$$$



 32 34  0  0  0  0  0  0  0  0999 V2000
    0.9195   64.9482   84.4738 C   0  0  0  0  0  0  0  0  0  0  0  0
    1.6339   66.1431   84.6513 C   0  0  0  0  0  0  0  0  0  0  0  0
    1.7158   67.0867   83.6248 C   0  0  0  0  0  0  0  0  0  0  0  0
    1.0797   66.8410   82.4100 C   0  0  0  0  0  0  0  0  0  0  0  0
    0.3775   65.6531   82.2050 C   0  0  0  0  0  0  0  0  0  0  0  0
    0.2821   64.6995   83.2354 C   0  0  0  0  0  0  0  0  0  0  0  0
   -0.5179   63.4646   82.9342 C   0  0  0  0  0  0  0  0  0  0  0  0
   -0.4564   62.9073   81.7660 N   0  0  0  0  0  0  0  0  0  0  0  0
   -1.1981   61.7660   81.5277 C   0  0  0  0  0  0  0  0  0  0  0  0
   -2.0144   61.1931   82.4362 C   0  0  0  0  0  0  0  0  0  0  0  0
   -3.0285   59.6472   82.1772 Br  0  0  0  0  0  0  0  0  0  0  0  0
   -2.0945   61.8495   83.7701 C   0  0  0  0  0  0  0  0  0  0  0  0
   -2.8145   61.4536   84.6821 O   0  0  0  0  0  0  0  0  0  0  0  0
   -1.3055   62.9511   83.9277 N   0  0  0  0  0  0  0  0  0  0  0  0
   -1.3600   63.4158   84.8254 H   0  0  0  0  0  0  0  0  0  0  0  0
   -1.0125   61.2302   80.1187 C   0  0  0  0  0  0  0  0  0  0  0  0
   -1.6491   62.1526   79.0762 C   0  0  0  0  0  0  0  0  0  0  0  0
   -3.1264   61.8433   78.8900 C   0  0  0  0  0  0  0  0  0  0  0  0
    1.2143   68.0357   81.1027 S   0  0  0  0  0  0  0  0  0  0  0  0
   -0.1161   68.3857   80.6556 O   0  0  0  0  0  0  0  0  0  0  0  0
    2.2054   67.5381   80.1716 O   0  0  0  0  0  0  0  0  0  0  0  0
    1.8754   69.3899   81.9018 N   0  0  0  0  0  0  0  0  0  0  0  0
    0.9447   70.5599   82.0539 C   0  0  0  0  0  0  0  0  0  0  0  0
    1.7250   71.8548   82.3454 C   0  0  0  0  0  0  0  0  0  0  0  0
    2.6094   72.2524   81.2322 N   0  0  0  0  0  0  0  0  0  0  0  0
    3.6646   73.1450   81.7040 C   0  0  0  0  0  0  0  0  0  0  0  0
    3.1534   71.0752   80.5243 C   0  0  0  0  0  0  0  0  0  0  0  0
    3.2244   69.7952   81.3762 C   0  0  0  0  0  0  0  0  0  0  0  0
    0.8026   63.9902   85.4494 O   0  0  0  0  0  0  0  0  0  0  0  0
    0.3311   64.3857   86.7404 C   0  0  0  0  0  0  0  0  0  0  0  0
   -1.7504   63.3484   87.7152 C   0  0  0  0  0  0  0  0  0  0  0  0
   -0.2773   63.1543   87.4050 C   0  0  0  0  0  0  0  0  0  0  0  0
 31 32  1  0  0  0
 32 30  1  0  0  0
 30 29  1  0  0  0
 29  1  1  0  0  0
  1  2  1  0  0  0
  2  3  2  0  0  0
  3  4  1  0  0  0
  4 19  1  0  0  0
 19 20  2  0  0  0
 19 21  2  0  0  0
 19 22  1  0  0  0
 22 23  1  0  0  0
 23 24  1  0  0  0
 24 25  1  0  0  0
 25 26  1  0  0  0
 25 27  1  0  0  0
 27 28  1  0  0  0
  4  5  2  0  0  0
  5  6  1  0  0  0
  6  7  1  0  0  0
  7  8  2  0  0  0
  8  9  1  0  0  0
  9 16  1  0  0  0
 16 17  1  0  0  0
 17 18  1  0  0  0
  9 10  2  0  0  0
 10 11  1  0  0  0
 10 12  1  0  0  0
 12 13  2  0  0  0
 12 14  1  0  0  0
  6  1  2  0  0  0
 14  7  1  0  0  0
 28 22  1  0  0  0
 14 15  1  0  0  0
M  END
> <minimizedAffinity>
-8.87117

$$$$



 32 34  0  0  0  0  0  0  0  0999 V2000
    1.0684   66.2315   81.9257 C   0  0  0  0  0  0  0  0  0  0  0  0
    1.4477   66.7783   80.6900 C   0  0  0  0  0  0  0  0  0  0  0  0
    1.2335   66.0767   79.5014 C   0  0  0  0  0  0  0  0  0  0  0  0
    0.6346   64.8195   79.5412 C   0  0  0  0  0  0  0  0  0  0  0  0
    0.2640   64.2491   80.7591 C   0  0  0  0  0  0  0  0  0  0  0  0
    0.4680   64.9509   81.9616 C   0  0  0  0  0  0  0  0  0  0  0  0
    0.0117   64.2710   83.2206 C   0  0  0  0  0  0  0  0  0  0  0  0
   -0.9724   63.4284   83.1959 N   0  0  0  0  0  0  0  0  0  0  0  0
   -1.3585   62.8137   84.3717 C   0  0  0  0  0  0  0  0  0  0  0  0
   -0.7864   63.0505   85.5703 C   0  0  0  0  0  0  0  0  0  0  0  0
   -1.2548   62.2426   87.1868 Br  0  0  0  0  0  0  0  0  0  0  0  0
    0.3312   64.0339   85.5943 C   0  0  0  0  0  0  0  0  0  0  0  0
    0.9253   64.3651   86.6162 O   0  0  0  0  0  0  0  0  0  0  0  0
    0.6663   64.5674   84.3845 N   0  0  0  0  0  0  0  0  0  0  0  0
    1.4158   65.2480   84.3877 H   0  0  0  0  0  0  0  0  0  0  0  0
   -2.5163   61.8504   84.1764 C   0  0  0  0  0  0  0  0  0  0  0  0
   -2.6898   61.4681   82.7045 C   0  0  0  0  0  0  0  0  0  0  0  0
   -2.9672   59.9812   82.5464 C   0  0  0  0  0  0  0  0  0  0  0  0
    0.3929   63.9251   78.0258 S   0  0  0  0  0  0  0  0  0  0  0  0
    1.5615   63.1096   77.7774 O   0  0  0  0  0  0  0  0  0  0  0  0
   -0.0738   64.8769   77.0394 O   0  0  0  0  0  0  0  0  0  0  0  0
   -0.9038   62.8853   78.4095 N   0  0  0  0  0  0  0  0  0  0  0  0
   -0.5120   61.4787   78.7644 C   0  0  0  0  0  0  0  0  0  0  0  0
   -1.7110   60.5208   78.6389 C   0  0  0  0  0  0  0  0  0  0  0  0
   -2.2096   60.4072   77.2540 N   0  0  0  0  0  0  0  0  0  0  0  0
   -3.5878   59.9243   77.2389 C   0  0  0  0  0  0  0  0  0  0  0  0
   -2.0588   61.6788   76.5170 C   0  0  0  0  0  0  0  0  0  0  0  0
   -2.0250   62.9329   77.4088 C   0  0  0  0  0  0  0  0  0  0  0  0
    1.2506   66.8789   83.1218 O   0  0  0  0  0  0  0  0  0  0  0  0
    2.0299   68.0781   83.1364 C   0  0  0  0  0  0  0  0  0  0  0  0
    3.6866   66.6635   84.4064 C   0  0  0  0  0  0  0  0  0  0  0  0
    2.9714   68.0004   84.3346 C   0  0  0  0  0  0  0  0  0  0  0  0
 31 32  1  0  0  0
 32 30  1  0  0  0
 30 29  1  0  0  0
 29  1  1  0  0  0
  1  2  1  0  0  0
  2  3  2  0  0  0
  3  4  1  0  0  0
  4 19  1  0  0  0
 19 20  2  0  0  0
 19 21  2  0  0  0
 19 22  1  0  0  0
 22 23  1  0  0  0
 23 24  1  0  0  0
 24 25  1  0  0  0
 25 26  1  0  0  0
 25 27  1  0  0  0
 27 28  1  0  0  0
  4  5  2  0  0  0
  5  6  1  0  0  0
  6  7  1  0  0  0
  7  8  2  0  0  0
  8  9  1  0  0  0
  9 16  1  0  0  0
 16 17  1  0  0  0
 17 18  1  0  0  0
  9 10  2  0  0  0
 10 11  1  0  0  0
 10 12  1  0  0  0
 12 13  2  0  0  0
 12 14  1  0  0  0
  6  1  2  0  0  0
 14  7  1  0  0  0
 28 22  1  0  0  0
 14 15  1  0  0  0
M  END
> <minimizedAffinity>
-8.68575

$$$$



 32 34  0  0  0  0  0  0  0  0999 V2000
    1.9314   66.7036   83.3889 C   0  0  0  0  0  0  0  0  0  0  0  0
    2.3290   67.4405   82.2626 C   0  0  0  0  0  0  0  0  0  0  0  0
    1.9087   67.0727   80.9823 C   0  0  0  0  0  0  0  0  0  0  0  0
    1.0832   65.9622   80.8202 C   0  0  0  0  0  0  0  0  0  0  0  0
    0.6885   65.2051   81.9235 C   0  0  0  0  0  0  0  0  0  0  0  0
    1.0998   65.5718   83.2183 C   0  0  0  0  0  0  0  0  0  0  0  0
    0.6027   64.7154   84.3475 C   0  0  0  0  0  0  0  0  0  0  0  0
   -0.4377   63.9587   84.1930 N   0  0  0  0  0  0  0  0  0  0  0  0
   -0.8606   63.1761   85.2505 C   0  0  0  0  0  0  0  0  0  0  0  0
   -0.2683   63.1612   86.4625 C   0  0  0  0  0  0  0  0  0  0  0  0
   -0.7847   62.1176   87.9217 Br  0  0  0  0  0  0  0  0  0  0  0  0
    0.9152   64.0473   86.6385 C   0  0  0  0  0  0  0  0  0  0  0  0
    1.5353   64.1544   87.6926 O   0  0  0  0  0  0  0  0  0  0  0  0
    1.2814   64.7596   85.5343 N   0  0  0  0  0  0  0  0  0  0  0  0
    2.0764   65.3768   85.6433 H   0  0  0  0  0  0  0  0  0  0  0  0
   -2.0834   62.3422   84.9100 C   0  0  0  0  0  0  0  0  0  0  0  0
   -2.2681   62.2037   83.3969 C   0  0  0  0  0  0  0  0  0  0  0  0
   -2.8687   60.8550   83.0324 C   0  0  0  0  0  0  0  0  0  0  0  0
    0.5780   65.4878   79.1848 S   0  0  0  0  0  0  0  0  0  0  0  0
    1.6934   65.6740   78.2828 O   0  0  0  0  0  0  0  0  0  0  0  0
   -0.6978   66.1241   78.9319 O   0  0  0  0  0  0  0  0  0  0  0  0
    0.3074   63.8118   79.3497 N   0  0  0  0  0  0  0  0  0  0  0  0
    0.8987   62.9586   78.2632 C   0  0  0  0  0  0  0  0  0  0  0  0
    0.2367   61.5689   78.2274 C   0  0  0  0  0  0  0  0  0  0  0  0
   -1.1983   61.6277   77.8854 N   0  0  0  0  0  0  0  0  0  0  0  0
   -1.8866   60.4208   78.3351 C   0  0  0  0  0  0  0  0  0  0  0  0
   -1.8311   62.8557   78.4094 C   0  0  0  0  0  0  0  0  0  0  0  0
   -1.1268   63.4627   79.6360 C   0  0  0  0  0  0  0  0  0  0  0  0
    2.3105   67.0234   84.6685 O   0  0  0  0  0  0  0  0  0  0  0  0
    3.6634   67.4261   84.8984 C   0  0  0  0  0  0  0  0  0  0  0  0
    4.7775   65.4839   86.0583 C   0  0  0  0  0  0  0  0  0  0  0  0
    4.5449   66.1913   84.7356 C   0  0  0  0  0  0  0  0  0  0  0  0
 31 32  1  0  0  0
 32 30  1  0  0  0
 30 29  1  0  0  0
 29  1  1  0  0  0
  1  2  1  0  0  0
  2  3  2  0  0  0
  3  4  1  0  0  0
  4 19  1  0  0  0
 19 20  2  0  0  0
 19 21  2  0  0  0
 19 22  1  0  0  0
 22 23  1  0  0  0
 23 24  1  0  0  0
 24 25  1  0  0  0
 25 26  1  0  0  0
 25 27  1  0  0  0
 27 28  1  0  0  0
  4  5  2  0  0  0
  5  6  1  0  0  0
  6  7  1  0  0  0
  7  8  2  0  0  0
  8  9  1  0  0  0
  9 16  1  0  0  0
 16 17  1  0  0  0
 17 18  1  0  0  0
  9 10  2  0  0  0
 10 11  1  0  0  0
 10 12  1  0  0  0
 12 13  2  0  0  0
 12 14  1  0  0  0
  6  1  2  0  0  0
 14  7  1  0  0  0
 28 22  1  0  0  0
 14 15  1  0  0  0
M  END
> <minimizedAffinity>
-8.56462

$$$$



 32 34  0  0  0  0  0  0  0  0999 V2000
    3.2045   66.7100   84.2560 C   0  0  0  0  0  0  0  0  0  0  0  0
    4.0295   67.8376   84.1229 C   0  0  0  0  0  0  0  0  0  0  0  0
    3.6288   68.9299   83.3503 C   0  0  0  0  0  0  0  0  0  0  0  0
    2.3945   68.9021   82.7048 C   0  0  0  0  0  0  0  0  0  0  0  0
    1.5648   67.7855   82.8095 C   0  0  0  0  0  0  0  0  0  0  0  0
    1.9555   66.6831   83.5918 C   0  0  0  0  0  0  0  0  0  0  0  0
    0.9861   65.5387   83.6696 C   0  0  0  0  0  0  0  0  0  0  0  0
    0.7429   64.9558   84.8010 N   0  0  0  0  0  0  0  0  0  0  0  0
   -0.1629   63.9129   84.8369 C   0  0  0  0  0  0  0  0  0  0  0  0
   -0.8072   63.4352   83.7522 C   0  0  0  0  0  0  0  0  0  0  0  0
   -2.0487   62.0411   83.7407 Br  0  0  0  0  0  0  0  0  0  0  0  0
   -0.5086   64.0973   82.4525 C   0  0  0  0  0  0  0  0  0  0  0  0
   -1.0008   63.7511   81.3826 O   0  0  0  0  0  0  0  0  0  0  0  0
    0.3721   65.1371   82.5151 N   0  0  0  0  0  0  0  0  0  0  0  0
    0.5951   65.5882   81.6366 H   0  0  0  0  0  0  0  0  0  0  0  0
   -0.3446   63.3425   86.2327 C   0  0  0  0  0  0  0  0  0  0  0  0
    0.6336   63.9688   87.2296 C   0  0  0  0  0  0  0  0  0  0  0  0
    0.6508   63.2048   88.5444 C   0  0  0  0  0  0  0  0  0  0  0  0
    1.9080   70.2854   81.7025 S   0  0  0  0  0  0  0  0  0  0  0  0
    0.5774   70.6961   82.0937 O   0  0  0  0  0  0  0  0  0  0  0  0
    2.2066   69.9412   80.3281 O   0  0  0  0  0  0  0  0  0  0  0  0
    3.0000   71.5016   82.1903 N   0  0  0  0  0  0  0  0  0  0  0  0
    2.4183   72.5640   83.0797 C   0  0  0  0  0  0  0  0  0  0  0  0
    3.3019   73.8250   83.0879 C   0  0  0  0  0  0  0  0  0  0  0  0
    3.3791   74.4777   81.7660 N   0  0  0  0  0  0  0  0  0  0  0  0
    4.5640   75.3268   81.6773 C   0  0  0  0  0  0  0  0  0  0  0  0
    3.3206   73.4899   80.6688 C   0  0  0  0  0  0  0  0  0  0  0  0
    3.7989   72.0787   81.0548 C   0  0  0  0  0  0  0  0  0  0  0  0
    3.5463   65.6128   85.0060 O   0  0  0  0  0  0  0  0  0  0  0  0
    4.8523   65.5640   85.5870 C   0  0  0  0  0  0  0  0  0  0  0  0
    5.5635   65.5941   88.0061 C   0  0  0  0  0  0  0  0  0  0  0  0
    4.7235   64.8954   86.9525 C   0  0  0  0  0  0  0  0  0  0  0  0
 31 32  1  0  0  0
 32 30  1  0  0  0
 30 29  1  0  0  0
 29  1  1  0  0  0
  1  2  1  0  0  0
  2  3  2  0  0  0
  3  4  1  0  0  0
  4 19  1  0  0  0
 19 20  2  0  0  0
 19 21  2  0  0  0
 19 22  1  0  0  0
 22 23  1  0  0  0
 23 24  1  0  0  0
 24 25  1  0  0  0
 25 26  1  0  0  0
 25 27  1  0  0  0
 27 28  1  0  0  0
  4  5  2  0  0  0
  5  6  1  0  0  0
  6  7  1  0  0  0
  7  8  2  0  0  0
  8  9  1  0  0  0
  9 16  1  0  0  0
 16 17  1  0  0  0
 17 18  1  0  0  0
  9 10  2  0  0  0
 10 11  1  0  0  0
 10 12  1  0  0  0
 12 13  2  0  0  0
 12 14  1  0  0  0
  6  1  2  0  0  0
 14  7  1  0  0  0
 28 22  1  0  0  0
 14 15  1  0  0  0
M  END
> <minimizedAffinity>
-8.55935

$$$$



 32 34  0  0  0  0  0  0  0  0999 V2000
   -0.0362   63.4531   85.1736 C   0  0  0  0  0  0  0  0  0  0  0  0
   -0.8946   62.3484   85.2854 C   0  0  0  0  0  0  0  0  0  0  0  0
   -1.6368   61.9054   84.1882 C   0  0  0  0  0  0  0  0  0  0  0  0
   -1.5232   62.5661   82.9669 C   0  0  0  0  0  0  0  0  0  0  0  0
   -0.6886   63.6763   82.8364 C   0  0  0  0  0  0  0  0  0  0  0  0
    0.0695   64.1258   83.9334 C   0  0  0  0  0  0  0  0  0  0  0  0
    0.9615   65.3096   83.6921 C   0  0  0  0  0  0  0  0  0  0  0  0
    0.6712   66.1785   82.7756 N   0  0  0  0  0  0  0  0  0  0  0  0
    1.5094   67.2611   82.5884 C   0  0  0  0  0  0  0  0  0  0  0  0
    2.6421   67.4689   83.2911 C   0  0  0  0  0  0  0  0  0  0  0  0
    3.8045   68.9162   83.0929 Br  0  0  0  0  0  0  0  0  0  0  0  0
    2.9792   66.4566   84.3295 C   0  0  0  0  0  0  0  0  0  0  0  0
    3.9900   66.5042   85.0245 O   0  0  0  0  0  0  0  0  0  0  0  0
    2.0808   65.4396   84.4677 N   0  0  0  0  0  0  0  0  0  0  0  0
    2.3040   64.7363   85.1608 H   0  0  0  0  0  0  0  0  0  0  0  0
    1.0294   68.1901   81.4870 C   0  0  0  0  0  0  0  0  0  0  0  0
    0.5768   67.4110   80.2496 C   0  0  0  0  0  0  0  0  0  0  0  0
    1.7553   66.7605   79.5418 C   0  0  0  0  0  0  0  0  0  0  0  0
   -2.4931   62.0108   81.5864 S   0  0  0  0  0  0  0  0  0  0  0  0
   -3.2831   63.1200   81.0988 O   0  0  0  0  0  0  0  0  0  0  0  0
   -3.1204   60.7664   81.9798 O   0  0  0  0  0  0  0  0  0  0  0  0
   -1.3050   61.6546   80.4154 N   0  0  0  0  0  0  0  0  0  0  0  0
   -0.8952   62.8112   79.5479 C   0  0  0  0  0  0  0  0  0  0  0  0
   -0.2019   62.3222   78.2630 C   0  0  0  0  0  0  0  0  0  0  0  0
   -1.0978   61.5327   77.3949 N   0  0  0  0  0  0  0  0  0  0  0  0
   -0.3258   60.6918   76.4841 C   0  0  0  0  0  0  0  0  0  0  0  0
   -2.0680   60.7485   78.1865 C   0  0  0  0  0  0  0  0  0  0  0  0
   -1.6047   60.4168   79.6164 C   0  0  0  0  0  0  0  0  0  0  0  0
    0.7190   63.9267   86.2169 O   0  0  0  0  0  0  0  0  0  0  0  0
    0.0972   64.0761   87.4962 C   0  0  0  0  0  0  0  0  0  0  0  0
    0.1707   62.1612   89.1353 C   0  0  0  0  0  0  0  0  0  0  0  0
    0.9414   63.3099   88.5103 C   0  0  0  0  0  0  0  0  0  0  0  0
 31 32  1  0  0  0
 32 30  1  0  0  0
 30 29  1  0  0  0
 29  1  1  0  0  0
  1  2  1  0  0  0
  2  3  2  0  0  0
  3  4  1  0  0  0
  4 19  1  0  0  0
 19 20  2  0  0  0
 19 21  2  0  0  0
 19 22  1  0  0  0
 22 23  1  0  0  0
 23 24  1  0  0  0
 24 25  1  0  0  0
 25 26  1  0  0  0
 25 27  1  0  0  0
 27 28  1  0  0  0
  4  5  2  0  0  0
  5  6  1  0  0  0
  6  7  1  0  0  0
  7  8  2  0  0  0
  8  9  1  0  0  0
  9 16  1  0  0  0
 16 17  1  0  0  0
 17 18  1  0  0  0
  9 10  2  0  0  0
 10 11  1  0  0  0
 10 12  1  0  0  0
 12 13  2  0  0  0
 12 14  1  0  0  0
  6  1  2  0  0  0
 14  7  1  0  0  0
 28 22  1  0  0  0
 14 15  1  0  0  0
M  END
> <minimizedAffinity>
-8.53263

$$$$



 32 34  0  0  0  0  0  0  0  0999 V2000
    1.0047   65.1351   83.1828 C   0  0  0  0  0  0  0  0  0  0  0  0
    0.1307   65.3637   82.1088 C   0  0  0  0  0  0  0  0  0  0  0  0
    0.2185   66.5342   81.3518 C   0  0  0  0  0  0  0  0  0  0  0  0
    1.1862   67.4864   81.6643 C   0  0  0  0  0  0  0  0  0  0  0  0
    2.0552   67.2882   82.7375 C   0  0  0  0  0  0  0  0  0  0  0  0
    1.9803   66.1089   83.5015 C   0  0  0  0  0  0  0  0  0  0  0  0
    2.9745   65.9692   84.6185 C   0  0  0  0  0  0  0  0  0  0  0  0
    4.1105   66.5908   84.5721 N   0  0  0  0  0  0  0  0  0  0  0  0
    4.9967   66.4474   85.6227 C   0  0  0  0  0  0  0  0  0  0  0  0
    4.7670   65.6733   86.7034 C   0  0  0  0  0  0  0  0  0  0  0  0
    5.9176   65.4513   88.1567 Br  0  0  0  0  0  0  0  0  0  0  0  0
    3.4678   64.9472   86.7410 C   0  0  0  0  0  0  0  0  0  0  0  0
    3.1370   64.1892   87.6482 O   0  0  0  0  0  0  0  0  0  0  0  0
    2.6419   65.1717   85.6788 N   0  0  0  0  0  0  0  0  0  0  0  0
    1.7604   64.6738   85.6843 H   0  0  0  0  0  0  0  0  0  0  0  0
    6.2750   67.2430   85.4236 C   0  0  0  0  0  0  0  0  0  0  0  0
    7.0991   66.7023   84.2526 C   0  0  0  0  0  0  0  0  0  0  0  0
    8.1045   65.6597   84.7163 C   0  0  0  0  0  0  0  0  0  0  0  0
    1.2700   68.9834   80.7121 S   0  0  0  0  0  0  0  0  0  0  0  0
   -0.0745   69.3861   80.3620 O   0  0  0  0  0  0  0  0  0  0  0  0
    2.2764   68.7824   79.6906 O   0  0  0  0  0  0  0  0  0  0  0  0
    1.8808   70.1085   81.8393 N   0  0  0  0  0  0  0  0  0  0  0  0
    0.9708   71.2642   82.1464 C   0  0  0  0  0  0  0  0  0  0  0  0
    1.7510   72.4314   82.7787 C   0  0  0  0  0  0  0  0  0  0  0  0
    2.7558   73.0093   81.8644 N   0  0  0  0  0  0  0  0  0  0  0  0
    3.7800   73.7328   82.6128 C   0  0  0  0  0  0  0  0  0  0  0  0
    3.3384   71.9807   80.9782 C   0  0  0  0  0  0  0  0  0  0  0  0
    3.2872   70.5495   81.5423 C   0  0  0  0  0  0  0  0  0  0  0  0
    0.9657   64.0016   83.9555 O   0  0  0  0  0  0  0  0  0  0  0  0
    0.0493   62.9636   83.5977 C   0  0  0  0  0  0  0  0  0  0  0  0
   -0.3566   63.2212   86.0731 C   0  0  0  0  0  0  0  0  0  0  0  0
   -0.3926   62.2759   84.8861 C   0  0  0  0  0  0  0  0  0  0  0  0
 31 32  1  0  0  0
 32 30  1  0  0  0
 30 29  1  0  0  0
 29  1  1  0  0  0
  1  2  1  0  0  0
  2  3  2  0  0  0
  3  4  1  0  0  0
  4 19  1  0  0  0
 19 20  2  0  0  0
 19 21  2  0  0  0
 19 22  1  0  0  0
 22 23  1  0  0  0
 23 24  1  0  0  0
 24 25  1  0  0  0
 25 26  1  0  0  0
 25 27  1  0  0  0
 27 28  1  0  0  0
  4  5  2  0  0  0
  5  6  1  0  0  0
  6  7  1  0  0  0
  7  8  2  0  0  0
  8  9  1  0  0  0
  9 16  1  0  0  0
 16 17  1  0  0  0
 17 18  1  0  0  0
  9 10  2  0  0  0
 10 11  1  0  0  0
 10 12  1  0  0  0
 12 13  2  0  0  0
 12 14  1  0  0  0
  6  1  2  0  0  0
 14  7  1  0  0  0
 28 22  1  0  0  0
 14 15  1  0  0  0
M  END
> <minimizedAffinity>
-8.52496

$$$$
