


 39 43  0  0  0  0  0  0  0  0999 V2000
    3.2701   66.0697   84.7647 C   0  0  0  0  0  0  0  0  0  0  0  0
    4.1471   67.0321   84.2450 C   0  0  0  0  0  0  0  0  0  0  0  0
    3.7102   67.9228   83.2669 C   0  0  0  0  0  0  0  0  0  0  0  0
    2.3865   67.8633   82.8289 C   0  0  0  0  0  0  0  0  0  0  0  0
    1.5141   66.8947   83.3367 C   0  0  0  0  0  0  0  0  0  0  0  0
    1.9323   65.9905   84.3344 C   0  0  0  0  0  0  0  0  0  0  0  0
    0.9666   65.0325   84.8920 C   0  0  0  0  0  0  0  0  0  0  0  0
    0.8199   64.9981   86.2375 N   0  0  0  0  0  0  0  0  0  0  0  0
   -0.0407   64.1083   86.7357 C   0  0  0  0  0  0  0  0  0  0  0  0
   -0.1735   64.1082   88.0909 O   0  0  0  0  0  0  0  0  0  0  0  0
   -0.7240   63.2648   85.9013 C   0  0  0  0  0  0  0  0  0  0  0  0
   -0.5049   63.3510   84.5421 C   0  0  0  0  0  0  0  0  0  0  0  0
    0.3579   64.2311   83.9933 N   0  0  0  0  0  0  0  0  0  0  0  0
   -1.3458   62.3658   83.9649 C   0  0  0  0  0  0  0  0  0  0  0  0
   -2.0414   61.7032   84.9059 N   0  0  0  0  0  0  0  0  0  0  0  0
   -1.6431   62.2734   86.0656 N   0  0  0  0  0  0  0  0  0  0  0  0
   -2.1944   61.8097   87.3164 C   0  0  0  0  0  0  0  0  0  0  0  0
    0.4474   64.8210   88.3275 H   0  0  0  0  0  0  0  0  0  0  0  0
   -1.5204   62.0250   82.5175 C   0  0  0  0  0  0  0  0  0  0  0  0
   -2.4215   63.0221   81.7681 C   0  0  0  0  0  0  0  0  0  0  0  0
   -3.2550   62.1697   80.8226 C   0  0  0  0  0  0  0  0  0  0  0  0
   -3.4945   60.8999   81.6189 C   0  0  0  0  0  0  0  0  0  0  0  0
   -2.1495   60.6379   82.2851 C   0  0  0  0  0  0  0  0  0  0  0  0
    1.8198   68.9879   81.5681 S   0  0  0  0  0  0  0  0  0  0  0  0
    0.6526   69.6651   82.0942 O   0  0  0  0  0  0  0  0  0  0  0  0
    2.9704   69.7331   81.1043 O   0  0  0  0  0  0  0  0  0  0  0  0
    1.3060   67.9689   80.3231 N   0  0  0  0  0  0  0  0  0  0  0  0
   -0.1428   67.6567   80.2157 C   0  0  0  0  0  0  0  0  0  0  0  0
   -0.4264   66.1543   80.4263 C   0  0  0  0  0  0  0  0  0  0  0  0
    0.3456   65.2318   79.5670 N   0  0  0  0  0  0  0  0  0  0  0  0
    1.5037   65.9048   78.9448 C   0  0  0  0  0  0  0  0  0  0  0  0
    2.2121   66.8609   79.9199 C   0  0  0  0  0  0  0  0  0  0  0  0
   -0.4694   64.5510   78.5539 C   0  0  0  0  0  0  0  0  0  0  0  0
   -0.0725   63.0814   78.3435 C   0  0  0  0  0  0  0  0  0  0  0  0
    0.7343   62.9491   77.1753 O   0  0  0  0  0  0  0  0  0  0  0  0
    0.1794   63.1731   76.4091 H   0  0  0  0  0  0  0  0  0  0  0  0
    3.7095   65.2657   85.7878 O   0  0  0  0  0  0  0  0  0  0  0  0
    5.4888   65.4127   87.3715 C   0  0  0  0  0  0  0  0  0  0  0  0
    5.1372   65.3038   85.8990 C   0  0  0  0  0  0  0  0  0  0  0  0
 38 39  1  0  0  0
 39 37  1  0  0  0
 37  1  1  0  0  0
  1  2  1  0  0  0
  2  3  2  0  0  0
  3  4  1  0  0  0
  4 24  1  0  0  0
 24 25  2  0  0  0
 24 26  2  0  0  0
 24 27  1  0  0  0
 27 28  1  0  0  0
 28 29  1  0  0  0
 29 30  1  0  0  0
 30 33  1  0  0  0
 33 34  1  0  0  0
 34 35  1  0  0  0
 30 31  1  0  0  0
 31 32  1  0  0  0
  4  5  2  0  0  0
  5  6  1  0  0  0
  6  7  1  0  0  0
  7  8  2  0  0  0
  8  9  1  0  0  0
  9 10  1  0  0  0
  9 11  2  0  0  0
 11 12  1  0  0  0
 12 13  2  0  0  0
 12 14  1  0  0  0
 14 19  1  0  0  0
 19 20  1  0  0  0
 20 21  1  0  0  0
 21 22  1  0  0  0
 22 23  1  0  0  0
 14 15  2  0  0  0
 15 16  1  0  0  0
 16 17  1  0  0  0
  6  1  2  0  0  0
 13  7  1  0  0  0
 23 19  1  0  0  0
 32 27  1  0  0  0
 16 11  1  0  0  0
 35 36  1  0  0  0
 10 18  1  0  0  0
M  END
> <minimizedAffinity>
-10.43981

$$$$



 39 43  0  0  0  0  0  0  0  0999 V2000
    3.2799   66.9619   83.9381 C   0  0  0  0  0  0  0  0  0  0  0  0
    4.0258   68.1482   83.8982 C   0  0  0  0  0  0  0  0  0  0  0  0
    3.5701   69.2378   83.1591 C   0  0  0  0  0  0  0  0  0  0  0  0
    2.3539   69.1447   82.4811 C   0  0  0  0  0  0  0  0  0  0  0  0
    1.6153   67.9568   82.5089 C   0  0  0  0  0  0  0  0  0  0  0  0
    2.0526   66.8459   83.2588 C   0  0  0  0  0  0  0  0  0  0  0  0
    1.2144   65.6396   83.3188 C   0  0  0  0  0  0  0  0  0  0  0  0
    0.8961   65.0360   82.1494 N   0  0  0  0  0  0  0  0  0  0  0  0
    0.1147   63.9562   82.2121 C   0  0  0  0  0  0  0  0  0  0  0  0
   -0.1763   63.3663   81.0198 O   0  0  0  0  0  0  0  0  0  0  0  0
   -0.3467   63.5055   83.4198 C   0  0  0  0  0  0  0  0  0  0  0  0
    0.0089   64.1874   84.5650 C   0  0  0  0  0  0  0  0  0  0  0  0
    0.7926   65.2855   84.5504 N   0  0  0  0  0  0  0  0  0  0  0  0
   -0.6144   63.4845   85.6272 C   0  0  0  0  0  0  0  0  0  0  0  0
   -1.3190   62.4334   85.1721 N   0  0  0  0  0  0  0  0  0  0  0  0
   -1.1338   62.4739   83.8331 N   0  0  0  0  0  0  0  0  0  0  0  0
   -1.7527   61.4745   82.9954 C   0  0  0  0  0  0  0  0  0  0  0  0
    0.3146   63.9488   80.4122 H   0  0  0  0  0  0  0  0  0  0  0  0
   -0.5610   63.7788   87.0943 C   0  0  0  0  0  0  0  0  0  0  0  0
    0.8621   63.6966   87.6739 C   0  0  0  0  0  0  0  0  0  0  0  0
    0.6964   63.0476   89.0402 C   0  0  0  0  0  0  0  0  0  0  0  0
   -0.4282   62.0527   88.8186 C   0  0  0  0  0  0  0  0  0  0  0  0
   -1.4140   62.8179   87.9445 C   0  0  0  0  0  0  0  0  0  0  0  0
    1.7675   70.5266   81.5209 S   0  0  0  0  0  0  0  0  0  0  0  0
    2.1184   70.2657   80.1400 O   0  0  0  0  0  0  0  0  0  0  0  0
    0.3954   70.7722   81.9096 O   0  0  0  0  0  0  0  0  0  0  0  0
    2.7141   71.8183   82.0572 N   0  0  0  0  0  0  0  0  0  0  0  0
    2.1732   72.6967   83.1266 C   0  0  0  0  0  0  0  0  0  0  0  0
    1.9690   74.1454   82.6350 C   0  0  0  0  0  0  0  0  0  0  0  0
    3.1514   74.7836   82.0187 N   0  0  0  0  0  0  0  0  0  0  0  0
    4.1806   73.7894   81.6530 C   0  0  0  0  0  0  0  0  0  0  0  0
    3.5667   72.5116   81.0554 C   0  0  0  0  0  0  0  0  0  0  0  0
    3.7300   75.8595   82.8322 C   0  0  0  0  0  0  0  0  0  0  0  0
    4.8341   75.3733   83.7841 C   0  0  0  0  0  0  0  0  0  0  0  0
    4.5235   75.7349   85.1280 O   0  0  0  0  0  0  0  0  0  0  0  0
    4.5507   76.7051   85.1841 H   0  0  0  0  0  0  0  0  0  0  0  0
    3.7156   65.9395   84.7452 O   0  0  0  0  0  0  0  0  0  0  0  0
    5.8748   65.2164   85.4596 C   0  0  0  0  0  0  0  0  0  0  0  0
    4.8549   66.3390   85.5163 C   0  0  0  0  0  0  0  0  0  0  0  0
 38 39  1  0  0  0
 39 37  1  0  0  0
 37  1  1  0  0  0
  1  2  1  0  0  0
  2  3  2  0  0  0
  3  4  1  0  0  0
  4 24  1  0  0  0
 24 25  2  0  0  0
 24 26  2  0  0  0
 24 27  1  0  0  0
 27 28  1  0  0  0
 28 29  1  0  0  0
 29 30  1  0  0  0
 30 33  1  0  0  0
 33 34  1  0  0  0
 34 35  1  0  0  0
 30 31  1  0  0  0
 31 32  1  0  0  0
  4  5  2  0  0  0
  5  6  1  0  0  0
  6  7  1  0  0  0
  7  8  2  0  0  0
  8  9  1  0  0  0
  9 10  1  0  0  0
  9 11  2  0  0  0
 11 12  1  0  0  0
 12 13  2  0  0  0
 12 14  1  0  0  0
 14 19  1  0  0  0
 19 20  1  0  0  0
 20 21  1  0  0  0
 21 22  1  0  0  0
 22 23  1  0  0  0
 14 15  2  0  0  0
 15 16  1  0  0  0
 16 17  1  0  0  0
  6  1  2  0  0  0
 13  7  1  0  0  0
 23 19  1  0  0  0
 32 27  1  0  0  0
 16 11  1  0  0  0
 35 36  1  0  0  0
 10 18  1  0  0  0
M  END
> <minimizedAffinity>
-9.90422

$$$$



 39 43  0  0  0  0  0  0  0  0999 V2000
    3.3227   66.2996   84.6519 C   0  0  0  0  0  0  0  0  0  0  0  0
    4.1723   67.2852   84.1302 C   0  0  0  0  0  0  0  0  0  0  0  0
    3.7116   68.1589   83.1476 C   0  0  0  0  0  0  0  0  0  0  0  0
    2.3911   68.0591   82.7073 C   0  0  0  0  0  0  0  0  0  0  0  0
    1.5463   67.0673   83.2172 C   0  0  0  0  0  0  0  0  0  0  0  0
    1.9887   66.1797   84.2193 C   0  0  0  0  0  0  0  0  0  0  0  0
    1.0502   65.1960   84.7787 C   0  0  0  0  0  0  0  0  0  0  0  0
    0.9444   65.1235   86.1266 N   0  0  0  0  0  0  0  0  0  0  0  0
    0.1084   64.2108   86.6254 C   0  0  0  0  0  0  0  0  0  0  0  0
    0.0163   64.1724   87.9834 O   0  0  0  0  0  0  0  0  0  0  0  0
   -0.5907   63.3826   85.7889 C   0  0  0  0  0  0  0  0  0  0  0  0
   -0.4135   63.5082   84.4266 C   0  0  0  0  0  0  0  0  0  0  0  0
    0.4233   64.4126   83.8769 N   0  0  0  0  0  0  0  0  0  0  0  0
   -1.2609   62.5296   83.8477 C   0  0  0  0  0  0  0  0  0  0  0  0
   -1.9210   61.8339   84.7904 N   0  0  0  0  0  0  0  0  0  0  0  0
   -1.4940   62.3768   85.9530 N   0  0  0  0  0  0  0  0  0  0  0  0
   -2.0027   61.8731   87.2065 C   0  0  0  0  0  0  0  0  0  0  0  0
    0.6365   64.8855   88.2210 H   0  0  0  0  0  0  0  0  0  0  0  0
   -1.4753   62.2263   82.3973 C   0  0  0  0  0  0  0  0  0  0  0  0
   -2.5757   63.0907   81.7572 C   0  0  0  0  0  0  0  0  0  0  0  0
   -3.3211   62.1525   80.8194 C   0  0  0  0  0  0  0  0  0  0  0  0
   -3.2957   60.8279   81.5600 C   0  0  0  0  0  0  0  0  0  0  0  0
   -1.8840   60.7651   82.1298 C   0  0  0  0  0  0  0  0  0  0  0  0
    1.7945   69.1616   81.4409 S   0  0  0  0  0  0  0  0  0  0  0  0
    2.8450   69.2823   80.4511 O   0  0  0  0  0  0  0  0  0  0  0  0
    0.4672   68.7184   81.0716 O   0  0  0  0  0  0  0  0  0  0  0  0
    1.6605   70.6473   82.2328 N   0  0  0  0  0  0  0  0  0  0  0  0
    0.4602   71.4835   81.9715 C   0  0  0  0  0  0  0  0  0  0  0  0
    0.8264   72.8252   81.3024 C   0  0  0  0  0  0  0  0  0  0  0  0
    1.8497   73.6300   82.0026 N   0  0  0  0  0  0  0  0  0  0  0  0
    2.5913   72.8269   82.9957 C   0  0  0  0  0  0  0  0  0  0  0  0
    2.9108   71.4140   82.4776 C   0  0  0  0  0  0  0  0  0  0  0  0
    1.3186   74.8548   82.6127 C   0  0  0  0  0  0  0  0  0  0  0  0
   -0.0836   75.2262   82.1052 C   0  0  0  0  0  0  0  0  0  0  0  0
   -0.7865   75.9731   83.0958 O   0  0  0  0  0  0  0  0  0  0  0  0
   -0.9400   75.3834   83.8533 H   0  0  0  0  0  0  0  0  0  0  0  0
    3.7833   65.5128   85.6791 O   0  0  0  0  0  0  0  0  0  0  0  0
    5.7710   65.3870   86.9939 C   0  0  0  0  0  0  0  0  0  0  0  0
    5.2001   65.3217   85.5891 C   0  0  0  0  0  0  0  0  0  0  0  0
 38 39  1  0  0  0
 39 37  1  0  0  0
 37  1  1  0  0  0
  1  2  1  0  0  0
  2  3  2  0  0  0
  3  4  1  0  0  0
  4 24  1  0  0  0
 24 25  2  0  0  0
 24 26  2  0  0  0
 24 27  1  0  0  0
 27 28  1  0  0  0
 28 29  1  0  0  0
 29 30  1  0  0  0
 30 33  1  0  0  0
 33 34  1  0  0  0
 34 35  1  0  0  0
 30 31  1  0  0  0
 31 32  1  0  0  0
  4  5  2  0  0  0
  5  6  1  0  0  0
  6  7  1  0  0  0
  7  8  2  0  0  0
  8  9  1  0  0  0
  9 10  1  0  0  0
  9 11  2  0  0  0
 11 12  1  0  0  0
 12 13  2  0  0  0
 12 14  1  0  0  0
 14 19  1  0  0  0
 19 20  1  0  0  0
 20 21  1  0  0  0
 21 22  1  0  0  0
 22 23  1  0  0  0
 14 15  2  0  0  0
 15 16  1  0  0  0
 16 17  1  0  0  0
  6  1  2  0  0  0
 13  7  1  0  0  0
 23 19  1  0  0  0
 32 27  1  0  0  0
 16 11  1  0  0  0
 35 36  1  0  0  0
 10 18  1  0  0  0
M  END
> <minimizedAffinity>
-9.86703

$$$$



 39 43  0  0  0  0  0  0  0  0999 V2000
    0.1767   63.9959   85.0948 C   0  0  0  0  0  0  0  0  0  0  0  0
   -0.4637   62.7585   85.2498 C   0  0  0  0  0  0  0  0  0  0  0  0
   -0.5986   61.8983   84.1622 C   0  0  0  0  0  0  0  0  0  0  0  0
   -0.0687   62.2697   82.9257 C   0  0  0  0  0  0  0  0  0  0  0  0
    0.5585   63.5100   82.7663 C   0  0  0  0  0  0  0  0  0  0  0  0
    0.7151   64.3911   83.8558 C   0  0  0  0  0  0  0  0  0  0  0  0
    1.4407   65.6553   83.6640 C   0  0  0  0  0  0  0  0  0  0  0  0
    0.8664   66.5974   82.8793 N   0  0  0  0  0  0  0  0  0  0  0  0
    1.5437   67.7316   82.6912 C   0  0  0  0  0  0  0  0  0  0  0  0
    0.9330   68.6624   81.9072 O   0  0  0  0  0  0  0  0  0  0  0  0
    2.7741   67.9059   83.2659 C   0  0  0  0  0  0  0  0  0  0  0  0
    3.2983   66.8900   84.0380 C   0  0  0  0  0  0  0  0  0  0  0  0
    2.6526   65.7250   84.2527 N   0  0  0  0  0  0  0  0  0  0  0  0
    4.5569   67.3694   84.4819 C   0  0  0  0  0  0  0  0  0  0  0  0
    4.8042   68.6046   84.0113 N   0  0  0  0  0  0  0  0  0  0  0  0
    3.7047   68.9000   83.2814 N   0  0  0  0  0  0  0  0  0  0  0  0
    3.6119   70.1762   82.6135 C   0  0  0  0  0  0  0  0  0  0  0  0
    0.1048   68.1953   81.6940 H   0  0  0  0  0  0  0  0  0  0  0  0
    5.5557   66.6829   85.3610 C   0  0  0  0  0  0  0  0  0  0  0  0
    6.8450   67.4989   85.5598 C   0  0  0  0  0  0  0  0  0  0  0  0
    7.9699   66.4746   85.5345 C   0  0  0  0  0  0  0  0  0  0  0  0
    7.4929   65.4591   84.5123 C   0  0  0  0  0  0  0  0  0  0  0  0
    6.0082   65.3123   84.8218 C   0  0  0  0  0  0  0  0  0  0  0  0
   -0.2475   61.1842   81.5238 S   0  0  0  0  0  0  0  0  0  0  0  0
    1.0183   60.5024   81.3484 O   0  0  0  0  0  0  0  0  0  0  0  0
   -1.4769   60.4426   81.7050 O   0  0  0  0  0  0  0  0  0  0  0  0
   -0.4479   62.2405   80.2214 N   0  0  0  0  0  0  0  0  0  0  0  0
   -1.8280   62.6266   79.8284 C   0  0  0  0  0  0  0  0  0  0  0  0
   -2.1788   62.1439   78.4050 C   0  0  0  0  0  0  0  0  0  0  0  0
   -1.2302   62.5421   77.3434 N   0  0  0  0  0  0  0  0  0  0  0  0
    0.0574   62.9988   77.9043 C   0  0  0  0  0  0  0  0  0  0  0  0
    0.5129   62.1331   79.0916 C   0  0  0  0  0  0  0  0  0  0  0  0
   -1.7751   63.5351   76.4099 C   0  0  0  0  0  0  0  0  0  0  0  0
   -0.9964   64.8599   76.4112 C   0  0  0  0  0  0  0  0  0  0  0  0
   -1.8939   65.9612   76.5337 O   0  0  0  0  0  0  0  0  0  0  0  0
   -2.4367   65.9879   75.7276 H   0  0  0  0  0  0  0  0  0  0  0  0
    0.3678   64.7798   86.2062 O   0  0  0  0  0  0  0  0  0  0  0  0
   -0.0824   63.7382   88.3057 C   0  0  0  0  0  0  0  0  0  0  0  0
    0.9816   64.0352   87.2650 C   0  0  0  0  0  0  0  0  0  0  0  0
 38 39  1  0  0  0
 39 37  1  0  0  0
 37  1  1  0  0  0
  1  2  1  0  0  0
  2  3  2  0  0  0
  3  4  1  0  0  0
  4 24  1  0  0  0
 24 25  2  0  0  0
 24 26  2  0  0  0
 24 27  1  0  0  0
 27 28  1  0  0  0
 28 29  1  0  0  0
 29 30  1  0  0  0
 30 33  1  0  0  0
 33 34  1  0  0  0
 34 35  1  0  0  0
 30 31  1  0  0  0
 31 32  1  0  0  0
  4  5  2  0  0  0
  5  6  1  0  0  0
  6  7  1  0  0  0
  7  8  2  0  0  0
  8  9  1  0  0  0
  9 10  1  0  0  0
  9 11  2  0  0  0
 11 12  1  0  0  0
 12 13  2  0  0  0
 12 14  1  0  0  0
 14 19  1  0  0  0
 19 20  1  0  0  0
 20 21  1  0  0  0
 21 22  1  0  0  0
 22 23  1  0  0  0
 14 15  2  0  0  0
 15 16  1  0  0  0
 16 17  1  0  0  0
  6  1  2  0  0  0
 13  7  1  0  0  0
 23 19  1  0  0  0
 32 27  1  0  0  0
 16 11  1  0  0  0
 35 36  1  0  0  0
 10 18  1  0  0  0
M  END
> <minimizedAffinity>
-9.84021

$$$$



 39 43  0  0  0  0  0  0  0  0999 V2000
    3.2888   66.6818   84.1413 C   0  0  0  0  0  0  0  0  0  0  0  0
    4.0641   67.8491   84.1806 C   0  0  0  0  0  0  0  0  0  0  0  0
    3.6459   68.9912   83.5013 C   0  0  0  0  0  0  0  0  0  0  0  0
    2.4375   68.9688   82.8035 C   0  0  0  0  0  0  0  0  0  0  0  0
    1.6696   67.8006   82.7521 C   0  0  0  0  0  0  0  0  0  0  0  0
    2.0688   66.6369   83.4409 C   0  0  0  0  0  0  0  0  0  0  0  0
    1.2003   65.4509   83.4192 C   0  0  0  0  0  0  0  0  0  0  0  0
    0.9319   64.8897   82.2166 N   0  0  0  0  0  0  0  0  0  0  0  0
    0.1229   63.8286   82.2045 C   0  0  0  0  0  0  0  0  0  0  0  0
   -0.1167   63.2811   80.9810 O   0  0  0  0  0  0  0  0  0  0  0  0
   -0.4138   63.3547   83.3715 C   0  0  0  0  0  0  0  0  0  0  0  0
   -0.1050   63.9939   84.5543 C   0  0  0  0  0  0  0  0  0  0  0  0
    0.7040   65.0719   84.6151 N   0  0  0  0  0  0  0  0  0  0  0  0
   -0.8014   63.2763   85.5598 C   0  0  0  0  0  0  0  0  0  0  0  0
   -1.5048   62.2569   85.0358 N   0  0  0  0  0  0  0  0  0  0  0  0
   -1.2463   62.3317   83.7105 N   0  0  0  0  0  0  0  0  0  0  0  0
   -1.8422   61.3729   82.8109 C   0  0  0  0  0  0  0  0  0  0  0  0
    0.4201   63.8685   80.4185 H   0  0  0  0  0  0  0  0  0  0  0  0
   -0.8208   63.5264   87.0358 C   0  0  0  0  0  0  0  0  0  0  0  0
    0.5813   63.7568   87.6264 C   0  0  0  0  0  0  0  0  0  0  0  0
    0.5676   63.0423   88.9698 C   0  0  0  0  0  0  0  0  0  0  0  0
   -0.2954   61.8219   88.7060 C   0  0  0  0  0  0  0  0  0  0  0  0
   -1.4298   62.3666   87.8468 C   0  0  0  0  0  0  0  0  0  0  0  0
    1.8990   70.4190   81.9189 S   0  0  0  0  0  0  0  0  0  0  0  0
    1.2482   69.9626   80.7081 O   0  0  0  0  0  0  0  0  0  0  0  0
    1.2078   71.2700   82.8635 O   0  0  0  0  0  0  0  0  0  0  0  0
    3.3414   71.1762   81.4738 N   0  0  0  0  0  0  0  0  0  0  0  0
    3.5364   72.6020   81.8438 C   0  0  0  0  0  0  0  0  0  0  0  0
    3.6571   73.5093   80.6011 C   0  0  0  0  0  0  0  0  0  0  0  0
    4.6816   73.1077   79.6140 N   0  0  0  0  0  0  0  0  0  0  0  0
    5.1266   71.7152   79.8239 C   0  0  0  0  0  0  0  0  0  0  0  0
    3.9581   70.7800   80.1800 C   0  0  0  0  0  0  0  0  0  0  0  0
    5.8301   74.0198   79.5541 C   0  0  0  0  0  0  0  0  0  0  0  0
    6.5091   74.0501   78.1758 C   0  0  0  0  0  0  0  0  0  0  0  0
    5.5330   73.9517   77.1410 O   0  0  0  0  0  0  0  0  0  0  0  0
    5.1275   73.0704   77.2036 H   0  0  0  0  0  0  0  0  0  0  0  0
    3.6878   65.6032   84.8923 O   0  0  0  0  0  0  0  0  0  0  0  0
    5.2434   65.2185   86.6607 C   0  0  0  0  0  0  0  0  0  0  0  0
    5.0774   65.6927   85.2285 C   0  0  0  0  0  0  0  0  0  0  0  0
 38 39  1  0  0  0
 39 37  1  0  0  0
 37  1  1  0  0  0
  1  2  1  0  0  0
  2  3  2  0  0  0
  3  4  1  0  0  0
  4 24  1  0  0  0
 24 25  2  0  0  0
 24 26  2  0  0  0
 24 27  1  0  0  0
 27 28  1  0  0  0
 28 29  1  0  0  0
 29 30  1  0  0  0
 30 33  1  0  0  0
 33 34  1  0  0  0
 34 35  1  0  0  0
 30 31  1  0  0  0
 31 32  1  0  0  0
  4  5  2  0  0  0
  5  6  1  0  0  0
  6  7  1  0  0  0
  7  8  2  0  0  0
  8  9  1  0  0  0
  9 10  1  0  0  0
  9 11  2  0  0  0
 11 12  1  0  0  0
 12 13  2  0  0  0
 12 14  1  0  0  0
 14 19  1  0  0  0
 19 20  1  0  0  0
 20 21  1  0  0  0
 21 22  1  0  0  0
 22 23  1  0  0  0
 14 15  2  0  0  0
 15 16  1  0  0  0
 16 17  1  0  0  0
  6  1  2  0  0  0
 13  7  1  0  0  0
 23 19  1  0  0  0
 32 27  1  0  0  0
 16 11  1  0  0  0
 35 36  1  0  0  0
 10 18  1  0  0  0
M  END
> <minimizedAffinity>
-9.74345

$$$$



 39 43  0  0  0  0  0  0  0  0999 V2000
    3.4341   66.2519   84.6565 C   0  0  0  0  0  0  0  0  0  0  0  0
    4.2891   67.2514   84.1715 C   0  0  0  0  0  0  0  0  0  0  0  0
    3.8223   68.1864   83.2502 C   0  0  0  0  0  0  0  0  0  0  0  0
    2.4909   68.1330   82.8353 C   0  0  0  0  0  0  0  0  0  0  0  0
    1.6404   67.1279   83.3080 C   0  0  0  0  0  0  0  0  0  0  0  0
    2.0891   66.1781   84.2485 C   0  0  0  0  0  0  0  0  0  0  0  0
    1.1461   65.1798   84.7732 C   0  0  0  0  0  0  0  0  0  0  0  0
    0.9084   65.1786   86.1062 N   0  0  0  0  0  0  0  0  0  0  0  0
    0.0701   64.2530   86.5764 C   0  0  0  0  0  0  0  0  0  0  0  0
   -0.1565   64.2871   87.9187 O   0  0  0  0  0  0  0  0  0  0  0  0
   -0.5017   63.3428   85.7283 C   0  0  0  0  0  0  0  0  0  0  0  0
   -0.1941   63.3998   84.3848 C   0  0  0  0  0  0  0  0  0  0  0  0
    0.6505   64.3143   83.8646 N   0  0  0  0  0  0  0  0  0  0  0  0
   -0.9322   62.3466   83.7875 C   0  0  0  0  0  0  0  0  0  0  0  0
   -1.6506   61.6718   84.7023 N   0  0  0  0  0  0  0  0  0  0  0  0
   -1.3689   62.3018   85.8653 N   0  0  0  0  0  0  0  0  0  0  0  0
   -1.9771   61.8441   87.0917 C   0  0  0  0  0  0  0  0  0  0  0  0
    0.4026   65.0442   88.1712 H   0  0  0  0  0  0  0  0  0  0  0  0
   -0.9849   61.9503   82.3446 C   0  0  0  0  0  0  0  0  0  0  0  0
    0.3635   61.4353   81.8114 C   0  0  0  0  0  0  0  0  0  0  0  0
    0.4733   61.9985   80.4021 C   0  0  0  0  0  0  0  0  0  0  0  0
   -0.1798   63.3634   80.5210 C   0  0  0  0  0  0  0  0  0  0  0  0
   -1.3922   63.1025   81.4063 C   0  0  0  0  0  0  0  0  0  0  0  0
    1.8860   69.3147   81.6466 S   0  0  0  0  0  0  0  0  0  0  0  0
    1.7036   68.6066   80.3964 O   0  0  0  0  0  0  0  0  0  0  0  0
    0.7916   70.0304   82.2666 O   0  0  0  0  0  0  0  0  0  0  0  0
    3.1790   70.3830   81.4490 N   0  0  0  0  0  0  0  0  0  0  0  0
    3.1292   71.6925   82.1495 C   0  0  0  0  0  0  0  0  0  0  0  0
    3.0942   72.8757   81.1590 C   0  0  0  0  0  0  0  0  0  0  0  0
    4.1720   72.8941   80.1474 N   0  0  0  0  0  0  0  0  0  0  0  0
    4.8468   71.5844   80.0439 C   0  0  0  0  0  0  0  0  0  0  0  0
    3.8539   70.4120   80.1244 C   0  0  0  0  0  0  0  0  0  0  0  0
    5.1490   73.9708   80.3484 C   0  0  0  0  0  0  0  0  0  0  0  0
    5.8561   74.3978   79.0525 C   0  0  0  0  0  0  0  0  0  0  0  0
    4.9128   74.5142   77.9895 O   0  0  0  0  0  0  0  0  0  0  0  0
    4.5661   73.6245   77.8068 H   0  0  0  0  0  0  0  0  0  0  0  0
    3.9033   65.4010   85.6272 O   0  0  0  0  0  0  0  0  0  0  0  0
    5.5677   65.4434   87.3369 C   0  0  0  0  0  0  0  0  0  0  0  0
    5.3054   65.5928   85.8495 C   0  0  0  0  0  0  0  0  0  0  0  0
 38 39  1  0  0  0
 39 37  1  0  0  0
 37  1  1  0  0  0
  1  2  1  0  0  0
  2  3  2  0  0  0
  3  4  1  0  0  0
  4 24  1  0  0  0
 24 25  2  0  0  0
 24 26  2  0  0  0
 24 27  1  0  0  0
 27 28  1  0  0  0
 28 29  1  0  0  0
 29 30  1  0  0  0
 30 33  1  0  0  0
 33 34  1  0  0  0
 34 35  1  0  0  0
 30 31  1  0  0  0
 31 32  1  0  0  0
  4  5  2  0  0  0
  5  6  1  0  0  0
  6  7  1  0  0  0
  7  8  2  0  0  0
  8  9  1  0  0  0
  9 10  1  0  0  0
  9 11  2  0  0  0
 11 12  1  0  0  0
 12 13  2  0  0  0
 12 14  1  0  0  0
 14 19  1  0  0  0
 19 20  1  0  0  0
 20 21  1  0  0  0
 21 22  1  0  0  0
 22 23  1  0  0  0
 14 15  2  0  0  0
 15 16  1  0  0  0
 16 17  1  0  0  0
  6  1  2  0  0  0
 13  7  1  0  0  0
 23 19  1  0  0  0
 32 27  1  0  0  0
 16 11  1  0  0  0
 35 36  1  0  0  0
 10 18  1  0  0  0
M  END
> <minimizedAffinity>
-9.64467

$$$$



 39 43  0  0  0  0  0  0  0  0999 V2000
    3.4373   66.4011   84.5826 C   0  0  0  0  0  0  0  0  0  0  0  0
    4.2698   67.4170   84.0924 C   0  0  0  0  0  0  0  0  0  0  0  0
    3.7868   68.3274   83.1549 C   0  0  0  0  0  0  0  0  0  0  0  0
    2.4612   68.2329   82.7287 C   0  0  0  0  0  0  0  0  0  0  0  0
    1.6334   67.2114   83.2067 C   0  0  0  0  0  0  0  0  0  0  0  0
    2.0986   66.2861   84.1634 C   0  0  0  0  0  0  0  0  0  0  0  0
    1.1777   65.2695   84.6925 C   0  0  0  0  0  0  0  0  0  0  0  0
    0.9470   65.2632   86.0266 N   0  0  0  0  0  0  0  0  0  0  0  0
    0.1291   64.3214   86.5007 C   0  0  0  0  0  0  0  0  0  0  0  0
   -0.0912   64.3507   87.8441 O   0  0  0  0  0  0  0  0  0  0  0  0
   -0.4293   63.4007   85.6551 C   0  0  0  0  0  0  0  0  0  0  0  0
   -0.1298   63.4641   84.3101 C   0  0  0  0  0  0  0  0  0  0  0  0
    0.6944   64.3949   83.7860 N   0  0  0  0  0  0  0  0  0  0  0  0
   -0.8504   62.3970   83.7161 C   0  0  0  0  0  0  0  0  0  0  0  0
   -1.5510   61.7081   84.6343 N   0  0  0  0  0  0  0  0  0  0  0  0
   -1.2755   62.3430   85.7961 N   0  0  0  0  0  0  0  0  0  0  0  0
   -1.8685   61.8732   87.0254 C   0  0  0  0  0  0  0  0  0  0  0  0
    0.4544   65.1184   88.0941 H   0  0  0  0  0  0  0  0  0  0  0  0
   -0.9028   62.0004   82.2733 C   0  0  0  0  0  0  0  0  0  0  0  0
    0.4421   61.4722   81.7443 C   0  0  0  0  0  0  0  0  0  0  0  0
    0.5613   62.0334   80.3349 C   0  0  0  0  0  0  0  0  0  0  0  0
   -0.0792   63.4045   80.4511 C   0  0  0  0  0  0  0  0  0  0  0  0
   -1.2965   63.1557   81.3331 C   0  0  0  0  0  0  0  0  0  0  0  0
    1.8361   69.3828   81.5194 S   0  0  0  0  0  0  0  0  0  0  0  0
    2.3712   68.9828   80.2343 O   0  0  0  0  0  0  0  0  0  0  0  0
    0.4093   69.5000   81.7310 O   0  0  0  0  0  0  0  0  0  0  0  0
    2.5614   70.8472   81.9456 N   0  0  0  0  0  0  0  0  0  0  0  0
    1.8454   71.7438   82.8898 C   0  0  0  0  0  0  0  0  0  0  0  0
    1.4663   73.0884   82.2336 C   0  0  0  0  0  0  0  0  0  0  0  0
    2.5788   73.8244   81.5964 N   0  0  0  0  0  0  0  0  0  0  0  0
    3.7557   72.9581   81.3827 C   0  0  0  0  0  0  0  0  0  0  0  0
    3.3607   71.5494   80.9069 C   0  0  0  0  0  0  0  0  0  0  0  0
    2.9557   75.0517   82.3077 C   0  0  0  0  0  0  0  0  0  0  0  0
    4.0776   74.8367   83.3356 C   0  0  0  0  0  0  0  0  0  0  0  0
    3.5774   75.0159   84.6588 O   0  0  0  0  0  0  0  0  0  0  0  0
    3.3245   75.9500   84.7525 H   0  0  0  0  0  0  0  0  0  0  0  0
    3.9199   65.5755   85.5684 O   0  0  0  0  0  0  0  0  0  0  0  0
    5.9859   65.4609   86.7575 C   0  0  0  0  0  0  0  0  0  0  0  0
    5.3214   65.3321   85.3991 C   0  0  0  0  0  0  0  0  0  0  0  0
 38 39  1  0  0  0
 39 37  1  0  0  0
 37  1  1  0  0  0
  1  2  1  0  0  0
  2  3  2  0  0  0
  3  4  1  0  0  0
  4 24  1  0  0  0
 24 25  2  0  0  0
 24 26  2  0  0  0
 24 27  1  0  0  0
 27 28  1  0  0  0
 28 29  1  0  0  0
 29 30  1  0  0  0
 30 33  1  0  0  0
 33 34  1  0  0  0
 34 35  1  0  0  0
 30 31  1  0  0  0
 31 32  1  0  0  0
  4  5  2  0  0  0
  5  6  1  0  0  0
  6  7  1  0  0  0
  7  8  2  0  0  0
  8  9  1  0  0  0
  9 10  1  0  0  0
  9 11  2  0  0  0
 11 12  1  0  0  0
 12 13  2  0  0  0
 12 14  1  0  0  0
 14 19  1  0  0  0
 19 20  1  0  0  0
 20 21  1  0  0  0
 21 22  1  0  0  0
 22 23  1  0  0  0
 14 15  2  0  0  0
 15 16  1  0  0  0
 16 17  1  0  0  0
  6  1  2  0  0  0
 13  7  1  0  0  0
 23 19  1  0  0  0
 32 27  1  0  0  0
 16 11  1  0  0  0
 35 36  1  0  0  0
 10 18  1  0  0  0
M  END
> <minimizedAffinity>
-9.62158

$$$$



 39 43  0  0  0  0  0  0  0  0999 V2000
    0.9647   65.6976   81.2837 C   0  0  0  0  0  0  0  0  0  0  0  0
    1.5354   66.5590   80.3363 C   0  0  0  0  0  0  0  0  0  0  0  0
    2.2337   67.6914   80.7497 C   0  0  0  0  0  0  0  0  0  0  0  0
    2.3803   67.9451   82.1142 C   0  0  0  0  0  0  0  0  0  0  0  0
    1.7997   67.0938   83.0604 C   0  0  0  0  0  0  0  0  0  0  0  0
    1.0979   65.9369   82.6643 C   0  0  0  0  0  0  0  0  0  0  0  0
    0.5615   65.0306   83.6901 C   0  0  0  0  0  0  0  0  0  0  0  0
    1.1044   65.0911   84.9290 N   0  0  0  0  0  0  0  0  0  0  0  0
    0.6279   64.2477   85.8467 C   0  0  0  0  0  0  0  0  0  0  0  0
    1.1868   64.3429   87.0847 O   0  0  0  0  0  0  0  0  0  0  0  0
   -0.3587   63.3561   85.5207 C   0  0  0  0  0  0  0  0  0  0  0  0
   -0.8469   63.3455   84.2305 C   0  0  0  0  0  0  0  0  0  0  0  0
   -0.3934   64.1758   83.2687 N   0  0  0  0  0  0  0  0  0  0  0  0
   -1.8387   62.3322   84.2146 C   0  0  0  0  0  0  0  0  0  0  0  0
   -1.9575   61.7442   85.4182 N   0  0  0  0  0  0  0  0  0  0  0  0
   -1.0494   62.3888   86.1854 N   0  0  0  0  0  0  0  0  0  0  0  0
   -0.8939   62.0190   87.5720 C   0  0  0  0  0  0  0  0  0  0  0  0
    1.8252   65.0634   86.9334 H   0  0  0  0  0  0  0  0  0  0  0  0
   -2.7017   61.8940   83.0723 C   0  0  0  0  0  0  0  0  0  0  0  0
   -3.0494   60.3958   83.1199 C   0  0  0  0  0  0  0  0  0  0  0  0
   -2.9880   59.9288   81.6730 C   0  0  0  0  0  0  0  0  0  0  0  0
   -1.8479   60.7451   81.0920 C   0  0  0  0  0  0  0  0  0  0  0  0
   -2.0589   62.1296   81.6920 C   0  0  0  0  0  0  0  0  0  0  0  0
    3.2591   69.3979   82.6552 S   0  0  0  0  0  0  0  0  0  0  0  0
    4.1390   69.7911   81.5739 O   0  0  0  0  0  0  0  0  0  0  0  0
    2.2819   70.3183   83.1957 O   0  0  0  0  0  0  0  0  0  0  0  0
    4.2219   68.8354   83.9235 N   0  0  0  0  0  0  0  0  0  0  0  0
    5.3305   67.8973   83.6090 C   0  0  0  0  0  0  0  0  0  0  0  0
    5.1237   66.5176   84.2692 C   0  0  0  0  0  0  0  0  0  0  0  0
    4.8879   66.5366   85.7284 N   0  0  0  0  0  0  0  0  0  0  0  0
    4.5221   67.8856   86.2054 C   0  0  0  0  0  0  0  0  0  0  0  0
    3.5658   68.6038   85.2377 C   0  0  0  0  0  0  0  0  0  0  0  0
    6.0025   65.9899   86.5114 C   0  0  0  0  0  0  0  0  0  0  0  0
    5.5562   65.3434   87.8322 C   0  0  0  0  0  0  0  0  0  0  0  0
    4.3020   64.6865   87.6625 O   0  0  0  0  0  0  0  0  0  0  0  0
    3.6358   65.3700   87.4779 H   0  0  0  0  0  0  0  0  0  0  0  0
    0.3584   64.5466   80.8432 O   0  0  0  0  0  0  0  0  0  0  0  0
    0.5109   63.2485   78.8464 C   0  0  0  0  0  0  0  0  0  0  0  0
    0.1224   64.5942   79.4310 C   0  0  0  0  0  0  0  0  0  0  0  0
 38 39  1  0  0  0
 39 37  1  0  0  0
 37  1  1  0  0  0
  1  2  1  0  0  0
  2  3  2  0  0  0
  3  4  1  0  0  0
  4 24  1  0  0  0
 24 25  2  0  0  0
 24 26  2  0  0  0
 24 27  1  0  0  0
 27 28  1  0  0  0
 28 29  1  0  0  0
 29 30  1  0  0  0
 30 33  1  0  0  0
 33 34  1  0  0  0
 34 35  1  0  0  0
 30 31  1  0  0  0
 31 32  1  0  0  0
  4  5  2  0  0  0
  5  6  1  0  0  0
  6  7  1  0  0  0
  7  8  2  0  0  0
  8  9  1  0  0  0
  9 10  1  0  0  0
  9 11  2  0  0  0
 11 12  1  0  0  0
 12 13  2  0  0  0
 12 14  1  0  0  0
 14 19  1  0  0  0
 19 20  1  0  0  0
 20 21  1  0  0  0
 21 22  1  0  0  0
 22 23  1  0  0  0
 14 15  2  0  0  0
 15 16  1  0  0  0
 16 17  1  0  0  0
  6  1  2  0  0  0
 13  7  1  0  0  0
 23 19  1  0  0  0
 32 27  1  0  0  0
 16 11  1  0  0  0
 35 36  1  0  0  0
 10 18  1  0  0  0
M  END
> <minimizedAffinity>
-9.47902

$$$$



 39 43  0  0  0  0  0  0  0  0999 V2000
   -0.4917   63.8203   86.2658 C   0  0  0  0  0  0  0  0  0  0  0  0
   -1.5631   62.9192   86.3381 C   0  0  0  0  0  0  0  0  0  0  0  0
   -2.0056   62.2632   85.1914 C   0  0  0  0  0  0  0  0  0  0  0  0
   -1.3564   62.4932   83.9776 C   0  0  0  0  0  0  0  0  0  0  0  0
   -0.2959   63.4025   83.9014 C   0  0  0  0  0  0  0  0  0  0  0  0
    0.1746   64.0691   85.0513 C   0  0  0  0  0  0  0  0  0  0  0  0
    1.3355   64.9646   84.9429 C   0  0  0  0  0  0  0  0  0  0  0  0
    2.3877   64.7325   85.7627 N   0  0  0  0  0  0  0  0  0  0  0  0
    3.4265   65.5655   85.6742 C   0  0  0  0  0  0  0  0  0  0  0  0
    4.4725   65.2970   86.5035 O   0  0  0  0  0  0  0  0  0  0  0  0
    3.3994   66.6138   84.7940 C   0  0  0  0  0  0  0  0  0  0  0  0
    2.2817   66.7924   84.0054 C   0  0  0  0  0  0  0  0  0  0  0  0
    1.2068   65.9792   84.0629 N   0  0  0  0  0  0  0  0  0  0  0  0
    2.5595   67.9384   83.2177 C   0  0  0  0  0  0  0  0  0  0  0  0
    3.7722   68.4456   83.5014 N   0  0  0  0  0  0  0  0  0  0  0  0
    4.2540   67.6192   84.4573 N   0  0  0  0  0  0  0  0  0  0  0  0
    5.5644   67.8573   85.0138 C   0  0  0  0  0  0  0  0  0  0  0  0
    4.1355   64.5041   86.9590 H   0  0  0  0  0  0  0  0  0  0  0  0
    1.6967   68.5826   82.1774 C   0  0  0  0  0  0  0  0  0  0  0  0
    1.6506   67.7915   80.8584 C   0  0  0  0  0  0  0  0  0  0  0  0
    1.6685   68.8470   79.7625 C   0  0  0  0  0  0  0  0  0  0  0  0
    2.5717   69.9253   80.3329 C   0  0  0  0  0  0  0  0  0  0  0  0
    2.1530   70.0039   81.7958 C   0  0  0  0  0  0  0  0  0  0  0  0
   -1.9221   61.6710   82.5013 S   0  0  0  0  0  0  0  0  0  0  0  0
   -1.5854   60.2689   82.6386 O   0  0  0  0  0  0  0  0  0  0  0  0
   -3.2867   62.0923   82.2675 O   0  0  0  0  0  0  0  0  0  0  0  0
   -0.9472   62.3175   81.2833 N   0  0  0  0  0  0  0  0  0  0  0  0
   -1.5428   63.3099   80.3513 C   0  0  0  0  0  0  0  0  0  0  0  0
   -1.5668   62.7936   78.8970 C   0  0  0  0  0  0  0  0  0  0  0  0
   -0.2696   62.3270   78.3632 N   0  0  0  0  0  0  0  0  0  0  0  0
    0.7128   62.0937   79.4411 C   0  0  0  0  0  0  0  0  0  0  0  0
    0.0757   61.4275   80.6728 C   0  0  0  0  0  0  0  0  0  0  0  0
    0.2897   63.2036   77.3273 C   0  0  0  0  0  0  0  0  0  0  0  0
   -0.0997   64.6794   77.5067 C   0  0  0  0  0  0  0  0  0  0  0  0
    0.9891   65.4146   78.0610 O   0  0  0  0  0  0  0  0  0  0  0  0
    1.1391   65.0815   78.9620 H   0  0  0  0  0  0  0  0  0  0  0  0
   -0.0274   64.3826   87.4297 O   0  0  0  0  0  0  0  0  0  0  0  0
    0.6383   62.8480   89.1317 C   0  0  0  0  0  0  0  0  0  0  0  0
   -0.5092   63.6713   88.5760 C   0  0  0  0  0  0  0  0  0  0  0  0
 38 39  1  0  0  0
 39 37  1  0  0  0
 37  1  1  0  0  0
  1  2  1  0  0  0
  2  3  2  0  0  0
  3  4  1  0  0  0
  4 24  1  0  0  0
 24 25  2  0  0  0
 24 26  2  0  0  0
 24 27  1  0  0  0
 27 28  1  0  0  0
 28 29  1  0  0  0
 29 30  1  0  0  0
 30 33  1  0  0  0
 33 34  1  0  0  0
 34 35  1  0  0  0
 30 31  1  0  0  0
 31 32  1  0  0  0
  4  5  2  0  0  0
  5  6  1  0  0  0
  6  7  1  0  0  0
  7  8  2  0  0  0
  8  9  1  0  0  0
  9 10  1  0  0  0
  9 11  2  0  0  0
 11 12  1  0  0  0
 12 13  2  0  0  0
 12 14  1  0  0  0
 14 19  1  0  0  0
 19 20  1  0  0  0
 20 21  1  0  0  0
 21 22  1  0  0  0
 22 23  1  0  0  0
 14 15  2  0  0  0
 15 16  1  0  0  0
 16 17  1  0  0  0
  6  1  2  0  0  0
 13  7  1  0  0  0
 23 19  1  0  0  0
 32 27  1  0  0  0
 16 11  1  0  0  0
 35 36  1  0  0  0
 10 18  1  0  0  0
M  END
> <minimizedAffinity>
-9.44365

$$$$
