


 41 45  0  0  0  0  0  0  0  0999 V2000
    1.5352   61.0514   82.2213 C   0  0  0  0  0  0  0  0  0  0  0  0
    0.8886   61.9259   81.1777 C   0  0  0  0  0  0  0  0  0  0  0  0
    0.2701   63.0991   81.4345 C   0  0  0  0  0  0  0  0  0  0  0  0
   -0.4042   63.9110   80.3371 C   0  0  0  0  0  0  0  0  0  0  0  0
   -0.3653   63.2206   78.9753 C   0  0  0  0  0  0  0  0  0  0  0  0
    0.2819   62.0447   78.8009 C   0  0  0  0  0  0  0  0  0  0  0  0
    0.3455   61.2884   77.4976 C   0  0  0  0  0  0  0  0  0  0  0  0
    0.9158   61.4436   79.8788 N   0  0  0  0  0  0  0  0  0  0  0  0
    1.3613   60.5429   79.7205 H   0  0  0  0  0  0  0  0  0  0  0  0
    0.1925   65.3235   80.2721 C   0  0  0  0  0  0  0  0  0  0  0  0
    1.5403   65.4942   79.9171 C   0  0  0  0  0  0  0  0  0  0  0  0
    2.1211   66.7636   79.8191 C   0  0  0  0  0  0  0  0  0  0  0  0
    1.3030   67.8683   80.0838 C   0  0  0  0  0  0  0  0  0  0  0  0
   -0.0376   67.7388   80.4319 C   0  0  0  0  0  0  0  0  0  0  0  0
   -0.4922   69.0645   80.6022 C   0  0  0  0  0  0  0  0  0  0  0  0
    0.4625   69.9711   80.3809 N   0  0  0  0  0  0  0  0  0  0  0  0
    1.5413   69.2218   80.0765 N   0  0  0  0  0  0  0  0  0  0  0  0
    2.7932   69.8710   79.7699 C   0  0  0  0  0  0  0  0  0  0  0  0
   -0.6067   66.4570   80.5283 C   0  0  0  0  0  0  0  0  0  0  0  0
    0.1751   63.6880   82.7848 C   0  0  0  0  0  0  0  0  0  0  0  0
    1.1064   64.2459   83.3437 O   0  0  0  0  0  0  0  0  0  0  0  0
   -1.0460   63.4275   83.3049 O   0  0  0  0  0  0  0  0  0  0  0  0
   -1.1397   62.2517   84.1257 C   0  0  0  0  0  0  0  0  0  0  0  0
   -2.3838   61.4515   83.7429 C   0  0  0  0  0  0  0  0  0  0  0  0
   -1.2078   62.7057   85.5720 C   0  0  0  0  0  0  0  0  0  0  0  0
   -0.1014   63.2996   86.2010 C   0  0  0  0  0  0  0  0  0  0  0  0
   -0.1791   63.7223   87.5288 C   0  0  0  0  0  0  0  0  0  0  0  0
   -1.3631   63.5590   88.2443 C   0  0  0  0  0  0  0  0  0  0  0  0
   -2.4700   62.9736   87.6332 C   0  0  0  0  0  0  0  0  0  0  0  0
   -2.3943   62.5501   86.3046 C   0  0  0  0  0  0  0  0  0  0  0  0
   -1.0261   63.9158   77.8455 C   0  0  0  0  0  0  0  0  0  0  0  0
   -0.4584   64.6645   77.0658 O   0  0  0  0  0  0  0  0  0  0  0  0
   -2.3402   63.5897   77.8241 O   0  0  0  0  0  0  0  0  0  0  0  0
   -2.6442   62.2496   77.3976 C   0  0  0  0  0  0  0  0  0  0  0  0
   -3.8087   62.2716   76.4086 C   0  0  0  0  0  0  0  0  0  0  0  0
   -3.0027   61.4305   78.6247 C   0  0  0  0  0  0  0  0  0  0  0  0
   -3.5822   62.0554   79.7400 C   0  0  0  0  0  0  0  0  0  0  0  0
   -3.9018   61.3186   80.8822 C   0  0  0  0  0  0  0  0  0  0  0  0
   -3.6433   59.9502   80.9260 C   0  0  0  0  0  0  0  0  0  0  0  0
   -3.0637   59.3168   79.8289 C   0  0  0  0  0  0  0  0  0  0  0  0
   -2.7429   60.0519   78.6864 C   0  0  0  0  0  0  0  0  0  0  0  0
  1  2  1  0  0  0
  2  3  2  0  0  0
  3 20  1  0  0  0
 20 21  2  0  0  0
 20 22  1  0  0  0
 22 23  1  0  0  0
 23 24  1  0  0  0
 23 25  1  0  0  0
 25 26  2  0  0  0
 26 27  1  0  0  0
 27 28  2  0  0  0
 28 29  1  0  0  0
 29 30  2  0  0  0
  3  4  1  0  0  0
  4 10  1  0  0  0
 10 11  2  0  0  0
 11 12  1  0  0  0
 12 13  2  0  0  0
 13 14  1  0  0  0
 14 15  1  0  0  0
 15 16  2  0  0  0
 16 17  1  0  0  0
 17 18  1  0  0  0
 14 19  2  0  0  0
  4  5  1  0  0  0
  5 31  1  0  0  0
 31 32  2  0  0  0
 31 33  1  0  0  0
 33 34  1  0  0  0
 34 35  1  0  0  0
 34 36  1  0  0  0
 36 37  2  0  0  0
 37 38  1  0  0  0
 38 39  2  0  0  0
 39 40  1  0  0  0
 40 41  2  0  0  0
  5  6  2  0  0  0
  6  7  1  0  0  0
  6  8  1  0  0  0
  8  2  1  0  0  0
 30 25  1  0  0  0
 19 10  1  0  0  0
 41 36  1  0  0  0
 17 13  1  0  0  0
  8  9  1  0  0  0
M  END
> <minimizedAffinity>
-10.23612

$$$$



 41 45  0  0  0  0  0  0  0  0999 V2000
    0.4177   68.7942   80.4985 C   0  0  0  0  0  0  0  0  0  0  0  0
    0.3823   67.2972   80.3271 C   0  0  0  0  0  0  0  0  0  0  0  0
    0.8357   66.4086   81.2381 C   0  0  0  0  0  0  0  0  0  0  0  0
    0.8122   64.9082   80.9804 C   0  0  0  0  0  0  0  0  0  0  0  0
    0.3060   64.5509   79.5845 C   0  0  0  0  0  0  0  0  0  0  0  0
   -0.1364   65.5039   78.7313 C   0  0  0  0  0  0  0  0  0  0  0  0
   -0.6276   65.2366   77.3305 C   0  0  0  0  0  0  0  0  0  0  0  0
   -0.1226   66.8351   79.1220 N   0  0  0  0  0  0  0  0  0  0  0  0
   -0.4278   67.5283   78.4430 H   0  0  0  0  0  0  0  0  0  0  0  0
    0.0105   64.1893   82.0739 C   0  0  0  0  0  0  0  0  0  0  0  0
   -1.3893   64.1244   81.9819 C   0  0  0  0  0  0  0  0  0  0  0  0
   -2.1602   63.4574   82.9406 C   0  0  0  0  0  0  0  0  0  0  0  0
   -1.4814   62.8460   84.0013 C   0  0  0  0  0  0  0  0  0  0  0  0
   -0.0960   62.8836   84.1223 C   0  0  0  0  0  0  0  0  0  0  0  0
    0.1796   62.1560   85.3003 C   0  0  0  0  0  0  0  0  0  0  0  0
   -0.9231   61.6854   85.8875 N   0  0  0  0  0  0  0  0  0  0  0  0
   -1.9154   62.1231   85.0865 N   0  0  0  0  0  0  0  0  0  0  0  0
   -3.2843   61.8012   85.4110 C   0  0  0  0  0  0  0  0  0  0  0  0
    0.6651   63.5592   83.1525 C   0  0  0  0  0  0  0  0  0  0  0  0
    1.4042   66.8021   82.5424 C   0  0  0  0  0  0  0  0  0  0  0  0
    0.7594   66.8262   83.5789 O   0  0  0  0  0  0  0  0  0  0  0  0
    2.6850   67.2026   82.3729 O   0  0  0  0  0  0  0  0  0  0  0  0
    3.2106   68.0690   83.3919 C   0  0  0  0  0  0  0  0  0  0  0  0
    3.7881   69.3302   82.7512 C   0  0  0  0  0  0  0  0  0  0  0  0
    4.2823   67.2991   84.1411 C   0  0  0  0  0  0  0  0  0  0  0  0
    4.0127   66.0439   84.7106 C   0  0  0  0  0  0  0  0  0  0  0  0
    5.0093   65.3406   85.3887 C   0  0  0  0  0  0  0  0  0  0  0  0
    6.2880   65.8811   85.5049 C   0  0  0  0  0  0  0  0  0  0  0  0
    6.5713   67.1243   84.9432 C   0  0  0  0  0  0  0  0  0  0  0  0
    5.5755   67.8295   84.2641 C   0  0  0  0  0  0  0  0  0  0  0  0
    0.2769   63.1140   79.2230 C   0  0  0  0  0  0  0  0  0  0  0  0
    1.1145   62.2957   79.5689 O   0  0  0  0  0  0  0  0  0  0  0  0
   -0.8121   62.8652   78.4575 O   0  0  0  0  0  0  0  0  0  0  0  0
   -1.2238   61.4885   78.3860 C   0  0  0  0  0  0  0  0  0  0  0  0
   -1.9468   61.2312   77.0647 C   0  0  0  0  0  0  0  0  0  0  0  0
   -2.1437   61.2063   79.5605 C   0  0  0  0  0  0  0  0  0  0  0  0
   -3.4358   61.7539   79.5865 C   0  0  0  0  0  0  0  0  0  0  0  0
   -4.2872   61.5174   80.6676 C   0  0  0  0  0  0  0  0  0  0  0  0
   -3.8576   60.7346   81.7371 C   0  0  0  0  0  0  0  0  0  0  0  0
   -2.5761   60.1884   81.7281 C   0  0  0  0  0  0  0  0  0  0  0  0
   -1.7233   60.4243   80.6485 C   0  0  0  0  0  0  0  0  0  0  0  0
  1  2  1  0  0  0
  2  3  2  0  0  0
  3 20  1  0  0  0
 20 21  2  0  0  0
 20 22  1  0  0  0
 22 23  1  0  0  0
 23 24  1  0  0  0
 23 25  1  0  0  0
 25 26  2  0  0  0
 26 27  1  0  0  0
 27 28  2  0  0  0
 28 29  1  0  0  0
 29 30  2  0  0  0
  3  4  1  0  0  0
  4 10  1  0  0  0
 10 11  2  0  0  0
 11 12  1  0  0  0
 12 13  2  0  0  0
 13 14  1  0  0  0
 14 15  1  0  0  0
 15 16  2  0  0  0
 16 17  1  0  0  0
 17 18  1  0  0  0
 14 19  2  0  0  0
  4  5  1  0  0  0
  5 31  1  0  0  0
 31 32  2  0  0  0
 31 33  1  0  0  0
 33 34  1  0  0  0
 34 35  1  0  0  0
 34 36  1  0  0  0
 36 37  2  0  0  0
 37 38  1  0  0  0
 38 39  2  0  0  0
 39 40  1  0  0  0
 40 41  2  0  0  0
  5  6  2  0  0  0
  6  7  1  0  0  0
  6  8  1  0  0  0
  8  2  1  0  0  0
 30 25  1  0  0  0
 19 10  1  0  0  0
 41 36  1  0  0  0
 17 13  1  0  0  0
  8  9  1  0  0  0
M  END
> <minimizedAffinity>
-10.12642

$$$$



 41 45  0  0  0  0  0  0  0  0999 V2000
    2.9527   65.7099   84.3780 C   0  0  0  0  0  0  0  0  0  0  0  0
    1.6709   65.0613   83.9219 C   0  0  0  0  0  0  0  0  0  0  0  0
    0.9802   65.4181   82.8170 C   0  0  0  0  0  0  0  0  0  0  0  0
   -0.3350   64.7505   82.4390 C   0  0  0  0  0  0  0  0  0  0  0  0
   -0.7991   63.7222   83.4686 C   0  0  0  0  0  0  0  0  0  0  0  0
   -0.0430   63.4180   84.5492 C   0  0  0  0  0  0  0  0  0  0  0  0
   -0.4405   62.4350   85.6218 C   0  0  0  0  0  0  0  0  0  0  0  0
    1.1739   64.0570   84.7374 N   0  0  0  0  0  0  0  0  0  0  0  0
    1.6993   63.8311   85.5788 H   0  0  0  0  0  0  0  0  0  0  0  0
   -0.2422   64.1413   81.0335 C   0  0  0  0  0  0  0  0  0  0  0  0
    0.2805   62.8485   80.8683 C   0  0  0  0  0  0  0  0  0  0  0  0
    0.3605   62.2417   79.6099 C   0  0  0  0  0  0  0  0  0  0  0  0
   -0.1085   62.9721   78.5116 C   0  0  0  0  0  0  0  0  0  0  0  0
   -0.6386   64.2522   78.6371 C   0  0  0  0  0  0  0  0  0  0  0  0
   -0.9931   64.6226   77.3218 C   0  0  0  0  0  0  0  0  0  0  0  0
   -0.7229   63.6706   76.4257 N   0  0  0  0  0  0  0  0  0  0  0  0
   -0.1810   62.6852   77.1696 N   0  0  0  0  0  0  0  0  0  0  0  0
    0.2454   61.4644   76.5289 C   0  0  0  0  0  0  0  0  0  0  0  0
   -0.7107   64.8496   79.9076 C   0  0  0  0  0  0  0  0  0  0  0  0
    1.4186   66.4841   81.8948 C   0  0  0  0  0  0  0  0  0  0  0  0
    2.1355   66.2849   80.9266 O   0  0  0  0  0  0  0  0  0  0  0  0
    0.9801   67.6805   82.3484 O   0  0  0  0  0  0  0  0  0  0  0  0
    1.8943   68.7795   82.2022 C   0  0  0  0  0  0  0  0  0  0  0  0
    2.6696   68.9840   83.5029 C   0  0  0  0  0  0  0  0  0  0  0  0
    1.0795   70.0115   81.8545 C   0  0  0  0  0  0  0  0  0  0  0  0
   -0.0138   69.9365   80.9762 C   0  0  0  0  0  0  0  0  0  0  0  0
   -0.7621   71.0746   80.6717 C   0  0  0  0  0  0  0  0  0  0  0  0
   -0.4290   72.3012   81.2420 C   0  0  0  0  0  0  0  0  0  0  0  0
    0.6516   72.3908   82.1170 C   0  0  0  0  0  0  0  0  0  0  0  0
    1.4014   71.2532   82.4231 C   0  0  0  0  0  0  0  0  0  0  0  0
   -2.0887   63.0398   83.2088 C   0  0  0  0  0  0  0  0  0  0  0  0
   -3.1844   63.4991   83.4907 O   0  0  0  0  0  0  0  0  0  0  0  0
   -1.8534   61.8434   82.6197 O   0  0  0  0  0  0  0  0  0  0  0  0
   -3.0208   61.1061   82.2153 C   0  0  0  0  0  0  0  0  0  0  0  0
   -2.9697   59.6941   82.7970 C   0  0  0  0  0  0  0  0  0  0  0  0
   -3.0493   61.0567   80.6981 C   0  0  0  0  0  0  0  0  0  0  0  0
   -3.6424   62.1024   79.9736 C   0  0  0  0  0  0  0  0  0  0  0  0
   -3.6915   62.0631   78.5787 C   0  0  0  0  0  0  0  0  0  0  0  0
   -3.1525   60.9779   77.8909 C   0  0  0  0  0  0  0  0  0  0  0  0
   -2.5652   59.9300   78.5963 C   0  0  0  0  0  0  0  0  0  0  0  0
   -2.5158   59.9672   79.9908 C   0  0  0  0  0  0  0  0  0  0  0  0
  1  2  1  0  0  0
  2  3  2  0  0  0
  3 20  1  0  0  0
 20 21  2  0  0  0
 20 22  1  0  0  0
 22 23  1  0  0  0
 23 24  1  0  0  0
 23 25  1  0  0  0
 25 26  2  0  0  0
 26 27  1  0  0  0
 27 28  2  0  0  0
 28 29  1  0  0  0
 29 30  2  0  0  0
  3  4  1  0  0  0
  4 10  1  0  0  0
 10 11  2  0  0  0
 11 12  1  0  0  0
 12 13  2  0  0  0
 13 14  1  0  0  0
 14 15  1  0  0  0
 15 16  2  0  0  0
 16 17  1  0  0  0
 17 18  1  0  0  0
 14 19  2  0  0  0
  4  5  1  0  0  0
  5 31  1  0  0  0
 31 32  2  0  0  0
 31 33  1  0  0  0
 33 34  1  0  0  0
 34 35  1  0  0  0
 34 36  1  0  0  0
 36 37  2  0  0  0
 37 38  1  0  0  0
 38 39  2  0  0  0
 39 40  1  0  0  0
 40 41  2  0  0  0
  5  6  2  0  0  0
  6  7  1  0  0  0
  6  8  1  0  0  0
  8  2  1  0  0  0
 30 25  1  0  0  0
 19 10  1  0  0  0
 41 36  1  0  0  0
 17 13  1  0  0  0
  8  9  1  0  0  0
M  END
> <minimizedAffinity>
-9.87011

$$$$



 41 45  0  0  0  0  0  0  0  0999 V2000
   -0.9783   63.9063   81.0380 C   0  0  0  0  0  0  0  0  0  0  0  0
    0.0193   64.8349   81.6816 C   0  0  0  0  0  0  0  0  0  0  0  0
    0.8269   65.6820   81.0068 C   0  0  0  0  0  0  0  0  0  0  0  0
    1.8467   66.5607   81.7182 C   0  0  0  0  0  0  0  0  0  0  0  0
    1.8968   66.3157   83.2249 C   0  0  0  0  0  0  0  0  0  0  0  0
    1.0466   65.4507   83.8257 C   0  0  0  0  0  0  0  0  0  0  0  0
    1.0481   65.1351   85.3005 C   0  0  0  0  0  0  0  0  0  0  0  0
    0.1156   64.7614   83.0622 N   0  0  0  0  0  0  0  0  0  0  0  0
   -0.4831   64.0924   83.5406 H   0  0  0  0  0  0  0  0  0  0  0  0
    1.5984   68.0400   81.3938 C   0  0  0  0  0  0  0  0  0  0  0  0
    0.2940   68.5564   81.4541 C   0  0  0  0  0  0  0  0  0  0  0  0
    0.0226   69.9041   81.1925 C   0  0  0  0  0  0  0  0  0  0  0  0
    1.1071   70.7290   80.8715 C   0  0  0  0  0  0  0  0  0  0  0  0
    2.4134   70.2548   80.8085 C   0  0  0  0  0  0  0  0  0  0  0  0
    3.1878   71.3850   80.4681 C   0  0  0  0  0  0  0  0  0  0  0  0
    2.4540   72.4915   80.3276 N   0  0  0  0  0  0  0  0  0  0  0  0
    1.1974   72.0665   80.5692 N   0  0  0  0  0  0  0  0  0  0  0  0
    0.1051   73.0077   80.5066 C   0  0  0  0  0  0  0  0  0  0  0  0
    2.6704   68.8980   81.0719 C   0  0  0  0  0  0  0  0  0  0  0  0
    0.8102   65.8217   79.5373 C   0  0  0  0  0  0  0  0  0  0  0  0
    1.7635   66.2212   78.8875 O   0  0  0  0  0  0  0  0  0  0  0  0
   -0.4256   65.5298   79.0713 O   0  0  0  0  0  0  0  0  0  0  0  0
   -0.4963   65.1227   77.6950 C   0  0  0  0  0  0  0  0  0  0  0  0
   -1.6331   65.8648   76.9938 C   0  0  0  0  0  0  0  0  0  0  0  0
   -0.7282   63.6233   77.6709 C   0  0  0  0  0  0  0  0  0  0  0  0
    0.3357   62.7200   77.8273 C   0  0  0  0  0  0  0  0  0  0  0  0
    0.1087   61.3430   77.8136 C   0  0  0  0  0  0  0  0  0  0  0  0
   -1.1838   60.8511   77.6455 C   0  0  0  0  0  0  0  0  0  0  0  0
   -2.2497   61.7350   77.4915 C   0  0  0  0  0  0  0  0  0  0  0  0
   -2.0247   63.1131   77.5051 C   0  0  0  0  0  0  0  0  0  0  0  0
    2.8836   67.0992   84.0050 C   0  0  0  0  0  0  0  0  0  0  0  0
    2.6160   68.0952   84.6587 O   0  0  0  0  0  0  0  0  0  0  0  0
    4.1088   66.5379   83.8726 O   0  0  0  0  0  0  0  0  0  0  0  0
    5.1680   67.1684   84.6147 C   0  0  0  0  0  0  0  0  0  0  0  0
    6.4893   67.0179   83.8623 C   0  0  0  0  0  0  0  0  0  0  0  0
    5.2526   66.5054   85.9780 C   0  0  0  0  0  0  0  0  0  0  0  0
    4.9631   65.1385   86.1121 C   0  0  0  0  0  0  0  0  0  0  0  0
    5.0199   64.5185   87.3619 C   0  0  0  0  0  0  0  0  0  0  0  0
    5.3628   65.2563   88.4929 C   0  0  0  0  0  0  0  0  0  0  0  0
    5.6477   66.6149   88.3766 C   0  0  0  0  0  0  0  0  0  0  0  0
    5.5907   67.2367   87.1282 C   0  0  0  0  0  0  0  0  0  0  0  0
  1  2  1  0  0  0
  2  3  2  0  0  0
  3 20  1  0  0  0
 20 21  2  0  0  0
 20 22  1  0  0  0
 22 23  1  0  0  0
 23 24  1  0  0  0
 23 25  1  0  0  0
 25 26  2  0  0  0
 26 27  1  0  0  0
 27 28  2  0  0  0
 28 29  1  0  0  0
 29 30  2  0  0  0
  3  4  1  0  0  0
  4 10  1  0  0  0
 10 11  2  0  0  0
 11 12  1  0  0  0
 12 13  2  0  0  0
 13 14  1  0  0  0
 14 15  1  0  0  0
 15 16  2  0  0  0
 16 17  1  0  0  0
 17 18  1  0  0  0
 14 19  2  0  0  0
  4  5  1  0  0  0
  5 31  1  0  0  0
 31 32  2  0  0  0
 31 33  1  0  0  0
 33 34  1  0  0  0
 34 35  1  0  0  0
 34 36  1  0  0  0
 36 37  2  0  0  0
 37 38  1  0  0  0
 38 39  2  0  0  0
 39 40  1  0  0  0
 40 41  2  0  0  0
  5  6  2  0  0  0
  6  7  1  0  0  0
  6  8  1  0  0  0
  8  2  1  0  0  0
 30 25  1  0  0  0
 19 10  1  0  0  0
 41 36  1  0  0  0
 17 13  1  0  0  0
  8  9  1  0  0  0
M  END
> <minimizedAffinity>
-9.83194

$$$$



 41 45  0  0  0  0  0  0  0  0999 V2000
    2.3080   66.7951   80.6704 C   0  0  0  0  0  0  0  0  0  0  0  0
    1.6235   68.1210   80.8830 C   0  0  0  0  0  0  0  0  0  0  0  0
    1.9472   69.0063   81.8508 C   0  0  0  0  0  0  0  0  0  0  0  0
    1.1822   70.3093   82.0388 C   0  0  0  0  0  0  0  0  0  0  0  0
   -0.0023   70.4481   81.0847 C   0  0  0  0  0  0  0  0  0  0  0  0
   -0.2555   69.5154   80.1371 C   0  0  0  0  0  0  0  0  0  0  0  0
   -1.4163   69.5664   79.1754 C   0  0  0  0  0  0  0  0  0  0  0  0
    0.5669   68.4031   80.0318 N   0  0  0  0  0  0  0  0  0  0  0  0
    0.3263   67.7041   79.3328 H   0  0  0  0  0  0  0  0  0  0  0  0
    2.1340   71.5088   81.9369 C   0  0  0  0  0  0  0  0  0  0  0  0
    2.7959   71.7715   80.7266 C   0  0  0  0  0  0  0  0  0  0  0  0
    3.6524   72.8682   80.5784 C   0  0  0  0  0  0  0  0  0  0  0  0
    3.8237   73.7060   81.6867 C   0  0  0  0  0  0  0  0  0  0  0  0
    3.1801   73.4815   82.8995 C   0  0  0  0  0  0  0  0  0  0  0  0
    3.6090   74.5375   83.7324 C   0  0  0  0  0  0  0  0  0  0  0  0
    4.4492   75.3729   83.1172 N   0  0  0  0  0  0  0  0  0  0  0  0
    4.5692   74.8436   81.8830 N   0  0  0  0  0  0  0  0  0  0  0  0
    5.4188   75.4908   80.9123 C   0  0  0  0  0  0  0  0  0  0  0  0
    2.3241   72.3745   83.0339 C   0  0  0  0  0  0  0  0  0  0  0  0
    3.0447   68.7904   82.8141 C   0  0  0  0  0  0  0  0  0  0  0  0
    4.2086   69.0799   82.5856 O   0  0  0  0  0  0  0  0  0  0  0  0
    2.5650   68.1570   83.9088 O   0  0  0  0  0  0  0  0  0  0  0  0
    2.8717   66.7566   84.0071 C   0  0  0  0  0  0  0  0  0  0  0  0
    1.6075   65.9736   84.3586 C   0  0  0  0  0  0  0  0  0  0  0  0
    3.9302   66.5928   85.0820 C   0  0  0  0  0  0  0  0  0  0  0  0
    4.5544   67.7080   85.6643 C   0  0  0  0  0  0  0  0  0  0  0  0
    5.5195   67.5451   86.6593 C   0  0  0  0  0  0  0  0  0  0  0  0
    5.8717   66.2668   87.0864 C   0  0  0  0  0  0  0  0  0  0  0  0
    5.2595   65.1509   86.5197 C   0  0  0  0  0  0  0  0  0  0  0  0
    4.2935   65.3117   85.5242 C   0  0  0  0  0  0  0  0  0  0  0  0
   -0.8329   71.6690   81.2110 C   0  0  0  0  0  0  0  0  0  0  0  0
   -1.6351   71.8710   82.1091 O   0  0  0  0  0  0  0  0  0  0  0  0
   -0.5601   72.5065   80.1824 O   0  0  0  0  0  0  0  0  0  0  0  0
   -1.2218   73.7833   80.2245 C   0  0  0  0  0  0  0  0  0  0  0  0
   -1.7610   74.1341   78.8385 C   0  0  0  0  0  0  0  0  0  0  0  0
   -0.2166   74.8242   80.6843 C   0  0  0  0  0  0  0  0  0  0  0  0
   -0.2504   75.2958   82.0059 C   0  0  0  0  0  0  0  0  0  0  0  0
    0.6564   76.2652   82.4388 C   0  0  0  0  0  0  0  0  0  0  0  0
    1.6052   76.7780   81.5567 C   0  0  0  0  0  0  0  0  0  0  0  0
    1.6479   76.3236   80.2405 C   0  0  0  0  0  0  0  0  0  0  0  0
    0.7417   75.3550   79.8057 C   0  0  0  0  0  0  0  0  0  0  0  0
  1  2  1  0  0  0
  2  3  2  0  0  0
  3 20  1  0  0  0
 20 21  2  0  0  0
 20 22  1  0  0  0
 22 23  1  0  0  0
 23 24  1  0  0  0
 23 25  1  0  0  0
 25 26  2  0  0  0
 26 27  1  0  0  0
 27 28  2  0  0  0
 28 29  1  0  0  0
 29 30  2  0  0  0
  3  4  1  0  0  0
  4 10  1  0  0  0
 10 11  2  0  0  0
 11 12  1  0  0  0
 12 13  2  0  0  0
 13 14  1  0  0  0
 14 15  1  0  0  0
 15 16  2  0  0  0
 16 17  1  0  0  0
 17 18  1  0  0  0
 14 19  2  0  0  0
  4  5  1  0  0  0
  5 31  1  0  0  0
 31 32  2  0  0  0
 31 33  1  0  0  0
 33 34  1  0  0  0
 34 35  1  0  0  0
 34 36  1  0  0  0
 36 37  2  0  0  0
 37 38  1  0  0  0
 38 39  2  0  0  0
 39 40  1  0  0  0
 40 41  2  0  0  0
  5  6  2  0  0  0
  6  7  1  0  0  0
  6  8  1  0  0  0
  8  2  1  0  0  0
 30 25  1  0  0  0
 19 10  1  0  0  0
 41 36  1  0  0  0
 17 13  1  0  0  0
  8  9  1  0  0  0
M  END
> <minimizedAffinity>
-9.66491

$$$$



 41 45  0  0  0  0  0  0  0  0999 V2000
    0.8049   65.3011   78.8121 C   0  0  0  0  0  0  0  0  0  0  0  0
    1.1386   66.3254   79.8662 C   0  0  0  0  0  0  0  0  0  0  0  0
    0.7905   66.2295   81.1681 C   0  0  0  0  0  0  0  0  0  0  0  0
    1.1201   67.3252   82.1725 C   0  0  0  0  0  0  0  0  0  0  0  0
    1.7964   68.5363   81.5333 C   0  0  0  0  0  0  0  0  0  0  0  0
    2.1168   68.5504   80.2183 C   0  0  0  0  0  0  0  0  0  0  0  0
    2.7615   69.7140   79.5075 C   0  0  0  0  0  0  0  0  0  0  0  0
    1.8181   67.4506   79.4271 N   0  0  0  0  0  0  0  0  0  0  0  0
    2.0396   67.5095   78.4360 H   0  0  0  0  0  0  0  0  0  0  0  0
    1.9529   66.7581   83.3301 C   0  0  0  0  0  0  0  0  0  0  0  0
    1.3063   66.2063   84.4479 C   0  0  0  0  0  0  0  0  0  0  0  0
    2.0232   65.6538   85.5151 C   0  0  0  0  0  0  0  0  0  0  0  0
    3.4203   65.6646   85.4268 C   0  0  0  0  0  0  0  0  0  0  0  0
    4.0956   66.1963   84.3329 C   0  0  0  0  0  0  0  0  0  0  0  0
    5.4625   66.0059   84.6299 C   0  0  0  0  0  0  0  0  0  0  0  0
    5.6575   65.4026   85.8048 N   0  0  0  0  0  0  0  0  0  0  0  0
    4.4065   65.2136   86.2709 N   0  0  0  0  0  0  0  0  0  0  0  0
    4.2145   64.5725   87.5496 C   0  0  0  0  0  0  0  0  0  0  0  0
    3.3619   66.7497   83.2691 C   0  0  0  0  0  0  0  0  0  0  0  0
    0.0539   65.0796   81.7286 C   0  0  0  0  0  0  0  0  0  0  0  0
   -1.1578   65.0639   81.8786 O   0  0  0  0  0  0  0  0  0  0  0  0
    0.9327   64.1268   82.1150 O   0  0  0  0  0  0  0  0  0  0  0  0
    0.4330   62.7795   82.1232 C   0  0  0  0  0  0  0  0  0  0  0  0
   -0.3738   62.5194   80.8519 C   0  0  0  0  0  0  0  0  0  0  0  0
   -0.4318   62.6181   83.3596 C   0  0  0  0  0  0  0  0  0  0  0  0
    0.0746   62.8865   84.6417 C   0  0  0  0  0  0  0  0  0  0  0  0
   -0.7333   62.7442   85.7708 C   0  0  0  0  0  0  0  0  0  0  0  0
   -2.0575   62.3339   85.6333 C   0  0  0  0  0  0  0  0  0  0  0  0
   -2.5748   62.0662   84.3676 C   0  0  0  0  0  0  0  0  0  0  0  0
   -1.7681   62.2082   83.2367 C   0  0  0  0  0  0  0  0  0  0  0  0
    2.1278   69.6739   82.4233 C   0  0  0  0  0  0  0  0  0  0  0  0
    3.1318   69.7427   83.1148 O   0  0  0  0  0  0  0  0  0  0  0  0
    1.1485   70.6060   82.3447 O   0  0  0  0  0  0  0  0  0  0  0  0
    1.5438   71.8838   81.8146 C   0  0  0  0  0  0  0  0  0  0  0  0
    1.8712   72.8414   82.9593 C   0  0  0  0  0  0  0  0  0  0  0  0
    0.3987   72.4255   80.9776 C   0  0  0  0  0  0  0  0  0  0  0  0
    0.4702   73.7233   80.4479 C   0  0  0  0  0  0  0  0  0  0  0  0
   -0.5821   74.2417   79.6906 C   0  0  0  0  0  0  0  0  0  0  0  0
   -1.7196   73.4721   79.4562 C   0  0  0  0  0  0  0  0  0  0  0  0
   -1.8075   72.1841   79.9797 C   0  0  0  0  0  0  0  0  0  0  0  0
   -0.7568   71.6645   80.7376 C   0  0  0  0  0  0  0  0  0  0  0  0
  1  2  1  0  0  0
  2  3  2  0  0  0
  3 20  1  0  0  0
 20 21  2  0  0  0
 20 22  1  0  0  0
 22 23  1  0  0  0
 23 24  1  0  0  0
 23 25  1  0  0  0
 25 26  2  0  0  0
 26 27  1  0  0  0
 27 28  2  0  0  0
 28 29  1  0  0  0
 29 30  2  0  0  0
  3  4  1  0  0  0
  4 10  1  0  0  0
 10 11  2  0  0  0
 11 12  1  0  0  0
 12 13  2  0  0  0
 13 14  1  0  0  0
 14 15  1  0  0  0
 15 16  2  0  0  0
 16 17  1  0  0  0
 17 18  1  0  0  0
 14 19  2  0  0  0
  4  5  1  0  0  0
  5 31  1  0  0  0
 31 32  2  0  0  0
 31 33  1  0  0  0
 33 34  1  0  0  0
 34 35  1  0  0  0
 34 36  1  0  0  0
 36 37  2  0  0  0
 37 38  1  0  0  0
 38 39  2  0  0  0
 39 40  1  0  0  0
 40 41  2  0  0  0
  5  6  2  0  0  0
  6  7  1  0  0  0
  6  8  1  0  0  0
  8  2  1  0  0  0
 30 25  1  0  0  0
 19 10  1  0  0  0
 41 36  1  0  0  0
 17 13  1  0  0  0
  8  9  1  0  0  0
M  END
> <minimizedAffinity>
-9.61245

$$$$



 41 45  0  0  0  0  0  0  0  0999 V2000
    0.8044   65.3541   78.6701 C   0  0  0  0  0  0  0  0  0  0  0  0
    1.1124   66.3616   79.7480 C   0  0  0  0  0  0  0  0  0  0  0  0
    0.7352   66.2441   81.0399 C   0  0  0  0  0  0  0  0  0  0  0  0
    1.0401   67.3238   82.0692 C   0  0  0  0  0  0  0  0  0  0  0  0
    1.7286   68.5459   81.4651 C   0  0  0  0  0  0  0  0  0  0  0  0
    2.0787   68.5818   80.1581 C   0  0  0  0  0  0  0  0  0  0  0  0
    2.7374   69.7576   79.4811 C   0  0  0  0  0  0  0  0  0  0  0  0
    1.7998   67.4947   79.3426 N   0  0  0  0  0  0  0  0  0  0  0  0
    2.0436   67.5699   78.3579 H   0  0  0  0  0  0  0  0  0  0  0  0
    1.8475   66.7390   83.2360 C   0  0  0  0  0  0  0  0  0  0  0  0
    1.1805   66.0931   84.2895 C   0  0  0  0  0  0  0  0  0  0  0  0
    1.8757   65.5217   85.3611 C   0  0  0  0  0  0  0  0  0  0  0  0
    3.2726   65.6115   85.3438 C   0  0  0  0  0  0  0  0  0  0  0  0
    3.9682   66.2376   84.3145 C   0  0  0  0  0  0  0  0  0  0  0  0
    5.3281   66.1041   84.6695 C   0  0  0  0  0  0  0  0  0  0  0  0
    5.5004   65.4485   85.8196 N   0  0  0  0  0  0  0  0  0  0  0  0
    4.2413   65.1679   86.2118 N   0  0  0  0  0  0  0  0  0  0  0  0
    4.0250   64.4483   87.4439 C   0  0  0  0  0  0  0  0  0  0  0  0
    3.2560   66.8088   83.2455 C   0  0  0  0  0  0  0  0  0  0  0  0
   -0.0121   65.0843   81.5649 C   0  0  0  0  0  0  0  0  0  0  0  0
   -1.1407   65.1616   82.0242 O   0  0  0  0  0  0  0  0  0  0  0  0
    0.7785   63.9872   81.5328 O   0  0  0  0  0  0  0  0  0  0  0  0
    0.1040   62.7248   81.6606 C   0  0  0  0  0  0  0  0  0  0  0  0
    1.0775   61.6687   82.1818 C   0  0  0  0  0  0  0  0  0  0  0  0
   -0.4268   62.3471   80.2901 C   0  0  0  0  0  0  0  0  0  0  0  0
   -1.8055   62.3312   80.0230 C   0  0  0  0  0  0  0  0  0  0  0  0
   -2.2816   61.9920   78.7557 C   0  0  0  0  0  0  0  0  0  0  0  0
   -1.3867   61.6663   77.7389 C   0  0  0  0  0  0  0  0  0  0  0  0
   -0.0159   61.6799   77.9881 C   0  0  0  0  0  0  0  0  0  0  0  0
    0.4624   62.0193   79.2554 C   0  0  0  0  0  0  0  0  0  0  0  0
    2.0379   69.6694   82.3807 C   0  0  0  0  0  0  0  0  0  0  0  0
    3.0197   69.7226   83.1048 O   0  0  0  0  0  0  0  0  0  0  0  0
    1.0671   70.6084   82.2837 O   0  0  0  0  0  0  0  0  0  0  0  0
    1.4875   71.8925   81.7894 C   0  0  0  0  0  0  0  0  0  0  0  0
    1.8536   72.8043   82.9595 C   0  0  0  0  0  0  0  0  0  0  0  0
    0.3457   72.4892   80.9858 C   0  0  0  0  0  0  0  0  0  0  0  0
   -0.7511   71.6905   80.6266 C   0  0  0  0  0  0  0  0  0  0  0  0
   -1.8006   72.2203   79.8733 C   0  0  0  0  0  0  0  0  0  0  0  0
   -1.7659   73.5524   79.4667 C   0  0  0  0  0  0  0  0  0  0  0  0
   -0.6815   74.3563   79.8111 C   0  0  0  0  0  0  0  0  0  0  0  0
    0.3689   73.8282   80.5635 C   0  0  0  0  0  0  0  0  0  0  0  0
  1  2  1  0  0  0
  2  3  2  0  0  0
  3 20  1  0  0  0
 20 21  2  0  0  0
 20 22  1  0  0  0
 22 23  1  0  0  0
 23 24  1  0  0  0
 23 25  1  0  0  0
 25 26  2  0  0  0
 26 27  1  0  0  0
 27 28  2  0  0  0
 28 29  1  0  0  0
 29 30  2  0  0  0
  3  4  1  0  0  0
  4 10  1  0  0  0
 10 11  2  0  0  0
 11 12  1  0  0  0
 12 13  2  0  0  0
 13 14  1  0  0  0
 14 15  1  0  0  0
 15 16  2  0  0  0
 16 17  1  0  0  0
 17 18  1  0  0  0
 14 19  2  0  0  0
  4  5  1  0  0  0
  5 31  1  0  0  0
 31 32  2  0  0  0
 31 33  1  0  0  0
 33 34  1  0  0  0
 34 35  1  0  0  0
 34 36  1  0  0  0
 36 37  2  0  0  0
 37 38  1  0  0  0
 38 39  2  0  0  0
 39 40  1  0  0  0
 40 41  2  0  0  0
  5  6  2  0  0  0
  6  7  1  0  0  0
  6  8  1  0  0  0
  8  2  1  0  0  0
 30 25  1  0  0  0
 19 10  1  0  0  0
 41 36  1  0  0  0
 17 13  1  0  0  0
  8  9  1  0  0  0
M  END
> <minimizedAffinity>
-9.56192

$$$$



 41 45  0  0  0  0  0  0  0  0999 V2000
    1.8556   68.3712   84.4328 C   0  0  0  0  0  0  0  0  0  0  0  0
    1.6677   67.5972   83.1531 C   0  0  0  0  0  0  0  0  0  0  0  0
    1.7642   66.2539   83.0465 C   0  0  0  0  0  0  0  0  0  0  0  0
    1.6085   65.5389   81.7113 C   0  0  0  0  0  0  0  0  0  0  0  0
    1.4170   66.4994   80.5394 C   0  0  0  0  0  0  0  0  0  0  0  0
    1.3254   67.8359   80.7330 C   0  0  0  0  0  0  0  0  0  0  0  0
    1.1613   68.8507   79.6293 C   0  0  0  0  0  0  0  0  0  0  0  0
    1.4171   68.3513   82.0177 N   0  0  0  0  0  0  0  0  0  0  0  0
    1.3807   69.3625   82.1232 H   0  0  0  0  0  0  0  0  0  0  0  0
    0.4767   64.5052   81.7859 C   0  0  0  0  0  0  0  0  0  0  0  0
   -0.8596   64.9288   81.7030 C   0  0  0  0  0  0  0  0  0  0  0  0
   -1.9237   64.0208   81.7398 C   0  0  0  0  0  0  0  0  0  0  0  0
   -1.6073   62.6621   81.8573 C   0  0  0  0  0  0  0  0  0  0  0  0
   -0.2959   62.2045   81.9355 C   0  0  0  0  0  0  0  0  0  0  0  0
   -0.4125   60.8011   82.0346 C   0  0  0  0  0  0  0  0  0  0  0  0
   -1.6810   60.3850   82.0177 N   0  0  0  0  0  0  0  0  0  0  0  0
   -2.3849   61.5306   81.9176 N   0  0  0  0  0  0  0  0  0  0  0  0
   -3.8263   61.4766   81.8710 C   0  0  0  0  0  0  0  0  0  0  0  0
    0.7627   63.1288   81.8991 C   0  0  0  0  0  0  0  0  0  0  0  0
    2.0427   65.3667   84.1930 C   0  0  0  0  0  0  0  0  0  0  0  0
    3.1664   65.1447   84.6159 O   0  0  0  0  0  0  0  0  0  0  0  0
    0.8898   64.7968   84.6119 O   0  0  0  0  0  0  0  0  0  0  0  0
    0.6799   64.7789   86.0333 C   0  0  0  0  0  0  0  0  0  0  0  0
    1.9406   64.2774   86.7360 C   0  0  0  0  0  0  0  0  0  0  0  0
   -0.4990   63.8650   86.3119 C   0  0  0  0  0  0  0  0  0  0  0  0
   -1.0109   63.7133   87.6109 C   0  0  0  0  0  0  0  0  0  0  0  0
   -2.1021   62.8777   87.8533 C   0  0  0  0  0  0  0  0  0  0  0  0
   -2.6968   62.1846   86.8013 C   0  0  0  0  0  0  0  0  0  0  0  0
   -2.2015   62.3267   85.5068 C   0  0  0  0  0  0  0  0  0  0  0  0
   -1.1099   63.1625   85.2621 C   0  0  0  0  0  0  0  0  0  0  0  0
    1.2897   65.9020   79.1892 C   0  0  0  0  0  0  0  0  0  0  0  0
    2.2274   65.6766   78.4403 O   0  0  0  0  0  0  0  0  0  0  0  0
   -0.0160   65.6544   78.9288 O   0  0  0  0  0  0  0  0  0  0  0  0
   -0.2884   64.9833   77.6856 C   0  0  0  0  0  0  0  0  0  0  0  0
   -1.4531   65.6672   76.9713 C   0  0  0  0  0  0  0  0  0  0  0  0
   -0.6273   63.5353   77.9919 C   0  0  0  0  0  0  0  0  0  0  0  0
    0.4013   62.5992   78.1805 C   0  0  0  0  0  0  0  0  0  0  0  0
    0.1054   61.2607   78.4460 C   0  0  0  0  0  0  0  0  0  0  0  0
   -1.2207   60.8402   78.5227 C   0  0  0  0  0  0  0  0  0  0  0  0
   -2.2526   61.7566   78.3327 C   0  0  0  0  0  0  0  0  0  0  0  0
   -1.9587   63.0949   78.0665 C   0  0  0  0  0  0  0  0  0  0  0  0
  1  2  1  0  0  0
  2  3  2  0  0  0
  3 20  1  0  0  0
 20 21  2  0  0  0
 20 22  1  0  0  0
 22 23  1  0  0  0
 23 24  1  0  0  0
 23 25  1  0  0  0
 25 26  2  0  0  0
 26 27  1  0  0  0
 27 28  2  0  0  0
 28 29  1  0  0  0
 29 30  2  0  0  0
  3  4  1  0  0  0
  4 10  1  0  0  0
 10 11  2  0  0  0
 11 12  1  0  0  0
 12 13  2  0  0  0
 13 14  1  0  0  0
 14 15  1  0  0  0
 15 16  2  0  0  0
 16 17  1  0  0  0
 17 18  1  0  0  0
 14 19  2  0  0  0
  4  5  1  0  0  0
  5 31  1  0  0  0
 31 32  2  0  0  0
 31 33  1  0  0  0
 33 34  1  0  0  0
 34 35  1  0  0  0
 34 36  1  0  0  0
 36 37  2  0  0  0
 37 38  1  0  0  0
 38 39  2  0  0  0
 39 40  1  0  0  0
 40 41  2  0  0  0
  5  6  2  0  0  0
  6  7  1  0  0  0
  6  8  1  0  0  0
  8  2  1  0  0  0
 30 25  1  0  0  0
 19 10  1  0  0  0
 41 36  1  0  0  0
 17 13  1  0  0  0
  8  9  1  0  0  0
M  END
> <minimizedAffinity>
-9.47579

$$$$



 41 45  0  0  0  0  0  0  0  0999 V2000
    0.8697   64.5489   79.2686 C   0  0  0  0  0  0  0  0  0  0  0  0
    1.1395   65.6737   80.2350 C   0  0  0  0  0  0  0  0  0  0  0  0
    0.9900   65.5879   81.5749 C   0  0  0  0  0  0  0  0  0  0  0  0
    1.2358   66.7793   82.4905 C   0  0  0  0  0  0  0  0  0  0  0  0
    1.5812   68.0563   81.7274 C   0  0  0  0  0  0  0  0  0  0  0  0
    1.7176   68.0561   80.3808 C   0  0  0  0  0  0  0  0  0  0  0  0
    2.0319   69.2769   79.5527 C   0  0  0  0  0  0  0  0  0  0  0  0
    1.5306   66.8782   79.6721 N   0  0  0  0  0  0  0  0  0  0  0  0
    1.6048   66.9216   78.6584 H   0  0  0  0  0  0  0  0  0  0  0  0
    2.3055   66.4390   83.5370 C   0  0  0  0  0  0  0  0  0  0  0  0
    1.9367   65.7782   84.7200 C   0  0  0  0  0  0  0  0  0  0  0  0
    2.8804   65.4241   85.6907 C   0  0  0  0  0  0  0  0  0  0  0  0
    4.2183   65.7489   85.4370 C   0  0  0  0  0  0  0  0  0  0  0  0
    4.6221   66.3972   84.2743 C   0  0  0  0  0  0  0  0  0  0  0  0
    6.0217   66.5272   84.4054 C   0  0  0  0  0  0  0  0  0  0  0  0
    6.4850   66.0077   85.5447 N   0  0  0  0  0  0  0  0  0  0  0  0
    5.3731   65.5501   86.1549 N   0  0  0  0  0  0  0  0  0  0  0  0
    5.4830   64.9085   87.4430 C   0  0  0  0  0  0  0  0  0  0  0  0
    3.6624   66.7484   83.3090 C   0  0  0  0  0  0  0  0  0  0  0  0
    0.5638   64.3554   82.2667 C   0  0  0  0  0  0  0  0  0  0  0  0
    1.2410   63.3405   82.3137 O   0  0  0  0  0  0  0  0  0  0  0  0
   -0.6942   64.5151   82.7372 O   0  0  0  0  0  0  0  0  0  0  0  0
   -1.4283   63.3051   82.9865 C   0  0  0  0  0  0  0  0  0  0  0  0
   -2.8094   63.3953   82.3394 C   0  0  0  0  0  0  0  0  0  0  0  0
   -1.5413   63.1384   84.4905 C   0  0  0  0  0  0  0  0  0  0  0  0
   -2.6873   62.5758   85.0760 C   0  0  0  0  0  0  0  0  0  0  0  0
   -2.7757   62.4182   86.4600 C   0  0  0  0  0  0  0  0  0  0  0  0
   -1.7201   62.8187   87.2761 C   0  0  0  0  0  0  0  0  0  0  0  0
   -0.5758   63.3763   86.7096 C   0  0  0  0  0  0  0  0  0  0  0  0
   -0.4853   63.5346   85.3251 C   0  0  0  0  0  0  0  0  0  0  0  0
    1.8059   69.2829   82.5282 C   0  0  0  0  0  0  0  0  0  0  0  0
    2.6845   69.4116   83.3663 O   0  0  0  0  0  0  0  0  0  0  0  0
    0.8899   70.2187   82.1833 O   0  0  0  0  0  0  0  0  0  0  0  0
    1.4214   71.4900   81.7694 C   0  0  0  0  0  0  0  0  0  0  0  0
    1.8116   72.3133   82.9960 C   0  0  0  0  0  0  0  0  0  0  0  0
    0.3563   72.2097   80.9613 C   0  0  0  0  0  0  0  0  0  0  0  0
    0.5909   73.5126   80.4951 C   0  0  0  0  0  0  0  0  0  0  0  0
   -0.3854   74.1938   79.7654 C   0  0  0  0  0  0  0  0  0  0  0  0
   -1.6086   73.5838   79.4956 C   0  0  0  0  0  0  0  0  0  0  0  0
   -1.8582   72.2929   79.9560 C   0  0  0  0  0  0  0  0  0  0  0  0
   -0.8837   71.6107   80.6863 C   0  0  0  0  0  0  0  0  0  0  0  0
  1  2  1  0  0  0
  2  3  2  0  0  0
  3 20  1  0  0  0
 20 21  2  0  0  0
 20 22  1  0  0  0
 22 23  1  0  0  0
 23 24  1  0  0  0
 23 25  1  0  0  0
 25 26  2  0  0  0
 26 27  1  0  0  0
 27 28  2  0  0  0
 28 29  1  0  0  0
 29 30  2  0  0  0
  3  4  1  0  0  0
  4 10  1  0  0  0
 10 11  2  0  0  0
 11 12  1  0  0  0
 12 13  2  0  0  0
 13 14  1  0  0  0
 14 15  1  0  0  0
 15 16  2  0  0  0
 16 17  1  0  0  0
 17 18  1  0  0  0
 14 19  2  0  0  0
  4  5  1  0  0  0
  5 31  1  0  0  0
 31 32  2  0  0  0
 31 33  1  0  0  0
 33 34  1  0  0  0
 34 35  1  0  0  0
 34 36  1  0  0  0
 36 37  2  0  0  0
 37 38  1  0  0  0
 38 39  2  0  0  0
 39 40  1  0  0  0
 40 41  2  0  0  0
  5  6  2  0  0  0
  6  7  1  0  0  0
  6  8  1  0  0  0
  8  2  1  0  0  0
 30 25  1  0  0  0
 19 10  1  0  0  0
 41 36  1  0  0  0
 17 13  1  0  0  0
  8  9  1  0  0  0
M  END
> <minimizedAffinity>
-9.46886

$$$$
