


 33 36  0  0  0  0  0  0  0  0999 V2000
   -0.1996   63.1709   83.9576 C   0  0  0  0  0  0  0  0  0  0  0  0
    0.4126   64.3564   83.4955 C   0  0  0  0  0  0  0  0  0  0  0  0
    1.0089   65.2633   84.3831 C   0  0  0  0  0  0  0  0  0  0  0  0
    0.9865   64.9851   85.7558 C   0  0  0  0  0  0  0  0  0  0  0  0
    0.3778   63.8242   86.2329 C   0  0  0  0  0  0  0  0  0  0  0  0
   -0.1944   62.9165   85.3379 C   0  0  0  0  0  0  0  0  0  0  0  0
   -0.8743   61.2584   79.4878 C   0  0  0  0  0  0  0  0  0  0  0  0
   -1.7683   60.3575   79.0452 N   0  0  0  0  0  0  0  0  0  0  0  0
   -2.4622   60.0201   80.1548 N   0  0  0  0  0  0  0  0  0  0  0  0
   -3.5243   59.0464   80.0652 C   0  0  0  0  0  0  0  0  0  0  0  0
   -2.0625   60.6868   81.2736 C   0  0  0  0  0  0  0  0  0  0  0  0
   -2.4615   60.7126   82.5834 C   0  0  0  0  0  0  0  0  0  0  0  0
   -3.4836   59.9627   83.0801 O   0  0  0  0  0  0  0  0  0  0  0  0
   -1.8536   61.5177   83.4560 N   0  0  0  0  0  0  0  0  0  0  0  0
   -0.8126   62.2526   82.9948 C   0  0  0  0  0  0  0  0  0  0  0  0
   -0.3524   62.3088   81.7283 N   0  0  0  0  0  0  0  0  0  0  0  0
   -1.0149   61.4949   80.8775 C   0  0  0  0  0  0  0  0  0  0  0  0
   -3.4515   60.2134   84.0214 H   0  0  0  0  0  0  0  0  0  0  0  0
    0.0898   61.8949   78.5446 C   0  0  0  0  0  0  0  0  0  0  0  0
    0.6618   64.3699   78.6960 C   0  0  0  0  0  0  0  0  0  0  0  0
   -0.2911   63.3211   78.1420 C   0  0  0  0  0  0  0  0  0  0  0  0
    1.6658   66.5304   83.9248 C   0  0  0  0  0  0  0  0  0  0  0  0
    1.3338   66.9907   82.8331 O   0  0  0  0  0  0  0  0  0  0  0  0
    2.7153   67.1702   84.8466 C   0  0  0  0  0  0  0  0  0  0  0  0
    4.1002   66.8333   84.4577 N   0  0  0  0  0  0  0  0  0  0  0  0
    4.5698   65.5521   85.0341 C   0  0  0  0  0  0  0  0  0  0  0  0
    4.9009   65.6200   86.5359 C   0  0  0  0  0  0  0  0  0  0  0  0
    5.8372   66.6647   86.8266 O   0  0  0  0  0  0  0  0  0  0  0  0
    5.3548   67.9292   86.3600 C   0  0  0  0  0  0  0  0  0  0  0  0
    5.0527   67.8925   84.8530 C   0  0  0  0  0  0  0  0  0  0  0  0
   -0.8619   61.8265   85.8362 O   0  0  0  0  0  0  0  0  0  0  0  0
   -1.4916   62.1282   87.0871 C   0  0  0  0  0  0  0  0  0  0  0  0
   -2.8464   62.7418   86.7857 C   0  0  0  0  0  0  0  0  0  0  0  0
 20 21  1  0  0  0
 21 19  1  0  0  0
 19  7  1  0  0  0
  7  8  2  0  0  0
  8  9  1  0  0  0
  9 10  1  0  0  0
  9 11  1  0  0  0
 11 12  2  0  0  0
 12 13  1  0  0  0
 12 14  1  0  0  0
 14 15  2  0  0  0
 15  1  1  0  0  0
  1  2  1  0  0  0
  2  3  2  0  0  0
  3 22  1  0  0  0
 22 23  2  0  0  0
 22 24  1  0  0  0
 24 25  1  0  0  0
 25 26  1  0  0  0
 26 27  1  0  0  0
 27 28  1  0  0  0
 28 29  1  0  0  0
 29 30  1  0  0  0
  3  4  1  0  0  0
  4  5  2  0  0  0
  5  6  1  0  0  0
  6 31  1  0  0  0
 31 32  1  0  0  0
 32 33  1  0  0  0
 15 16  1  0  0  0
 16 17  2  0  0  0
 17  7  1  0  0  0
 17 11  1  0  0  0
  6  1  2  0  0  0
 30 25  1  0  0  0
 13 18  1  0  0  0
M  END
> <minimizedAffinity>
-10.27762

$$$$



 33 36  0  0  0  0  0  0  0  0999 V2000
    0.5055   64.1637   83.9033 C   0  0  0  0  0  0  0  0  0  0  0  0
    0.1693   63.3352   82.8104 C   0  0  0  0  0  0  0  0  0  0  0  0
   -0.6284   62.1944   82.9782 C   0  0  0  0  0  0  0  0  0  0  0  0
   -1.0915   61.8716   84.2601 C   0  0  0  0  0  0  0  0  0  0  0  0
   -0.7619   62.6718   85.3541 C   0  0  0  0  0  0  0  0  0  0  0  0
    0.0156   63.8184   85.1724 C   0  0  0  0  0  0  0  0  0  0  0  0
    4.3342   67.0975   84.8119 C   0  0  0  0  0  0  0  0  0  0  0  0
    4.6484   68.3076   84.3182 N   0  0  0  0  0  0  0  0  0  0  0  0
    3.6646   68.5569   83.4257 N   0  0  0  0  0  0  0  0  0  0  0  0
    3.6751   69.7908   82.6763 C   0  0  0  0  0  0  0  0  0  0  0  0
    2.7294   67.5689   83.3524 C   0  0  0  0  0  0  0  0  0  0  0  0
    1.5709   67.3786   82.6474 C   0  0  0  0  0  0  0  0  0  0  0  0
    1.0683   68.2774   81.7567 O   0  0  0  0  0  0  0  0  0  0  0  0
    0.8502   66.2702   82.8243 N   0  0  0  0  0  0  0  0  0  0  0  0
    1.3436   65.3448   83.6826 C   0  0  0  0  0  0  0  0  0  0  0  0
    2.4614   65.4413   84.4311 N   0  0  0  0  0  0  0  0  0  0  0  0
    3.1436   66.5908   84.2351 C   0  0  0  0  0  0  0  0  0  0  0  0
    0.2810   67.7980   81.4401 H   0  0  0  0  0  0  0  0  0  0  0  0
    5.1865   66.4618   85.8577 C   0  0  0  0  0  0  0  0  0  0  0  0
    7.3175   65.8347   84.6163 C   0  0  0  0  0  0  0  0  0  0  0  0
    6.0713   65.3309   85.3290 C   0  0  0  0  0  0  0  0  0  0  0  0
   -1.0021   61.2943   81.8392 C   0  0  0  0  0  0  0  0  0  0  0  0
   -1.8809   60.4547   82.0311 O   0  0  0  0  0  0  0  0  0  0  0  0
   -0.2599   61.4757   80.5062 C   0  0  0  0  0  0  0  0  0  0  0  0
   -1.0215   62.2850   79.5326 N   0  0  0  0  0  0  0  0  0  0  0  0
   -1.4105   61.5236   78.3230 C   0  0  0  0  0  0  0  0  0  0  0  0
   -0.2512   61.2560   77.3462 C   0  0  0  0  0  0  0  0  0  0  0  0
    0.4192   62.4660   76.9735 O   0  0  0  0  0  0  0  0  0  0  0  0
    0.8871   63.1693   78.1293 C   0  0  0  0  0  0  0  0  0  0  0  0
   -0.2634   63.4785   79.1012 C   0  0  0  0  0  0  0  0  0  0  0  0
    0.3980   64.5407   86.2743 O   0  0  0  0  0  0  0  0  0  0  0  0
   -0.2085   64.0308   87.4678 C   0  0  0  0  0  0  0  0  0  0  0  0
    0.8955   63.4618   88.3397 C   0  0  0  0  0  0  0  0  0  0  0  0
 20 21  1  0  0  0
 21 19  1  0  0  0
 19  7  1  0  0  0
  7  8  2  0  0  0
  8  9  1  0  0  0
  9 10  1  0  0  0
  9 11  1  0  0  0
 11 12  2  0  0  0
 12 13  1  0  0  0
 12 14  1  0  0  0
 14 15  2  0  0  0
 15  1  1  0  0  0
  1  2  1  0  0  0
  2  3  2  0  0  0
  3 22  1  0  0  0
 22 23  2  0  0  0
 22 24  1  0  0  0
 24 25  1  0  0  0
 25 26  1  0  0  0
 26 27  1  0  0  0
 27 28  1  0  0  0
 28 29  1  0  0  0
 29 30  1  0  0  0
  3  4  1  0  0  0
  4  5  2  0  0  0
  5  6  1  0  0  0
  6 31  1  0  0  0
 31 32  1  0  0  0
 32 33  1  0  0  0
 15 16  1  0  0  0
 16 17  2  0  0  0
 17  7  1  0  0  0
 17 11  1  0  0  0
  6  1  2  0  0  0
 30 25  1  0  0  0
 13 18  1  0  0  0
M  END
> <minimizedAffinity>
-9.92043

$$$$



 33 36  0  0  0  0  0  0  0  0999 V2000
   -0.1530   63.1243   83.9437 C   0  0  0  0  0  0  0  0  0  0  0  0
    0.5127   64.2804   83.4812 C   0  0  0  0  0  0  0  0  0  0  0  0
    1.1244   65.1750   84.3708 C   0  0  0  0  0  0  0  0  0  0  0  0
    1.0633   64.9144   85.7457 C   0  0  0  0  0  0  0  0  0  0  0  0
    0.4017   63.7829   86.2230 C   0  0  0  0  0  0  0  0  0  0  0  0
   -0.1858   62.8865   85.3266 C   0  0  0  0  0  0  0  0  0  0  0  0
   -0.8812   61.2558   79.4637 C   0  0  0  0  0  0  0  0  0  0  0  0
   -1.7844   60.3636   79.0217 N   0  0  0  0  0  0  0  0  0  0  0  0
   -2.4693   60.0199   80.1350 N   0  0  0  0  0  0  0  0  0  0  0  0
   -3.5375   59.0528   80.0469 C   0  0  0  0  0  0  0  0  0  0  0  0
   -2.0552   60.6744   81.2558 C   0  0  0  0  0  0  0  0  0  0  0  0
   -2.4414   60.6906   82.5695 C   0  0  0  0  0  0  0  0  0  0  0  0
   -3.4627   59.9417   83.0694 O   0  0  0  0  0  0  0  0  0  0  0  0
   -1.8207   61.4845   83.4434 N   0  0  0  0  0  0  0  0  0  0  0  0
   -0.7803   62.2179   82.9787 C   0  0  0  0  0  0  0  0  0  0  0  0
   -0.3320   62.2831   81.7083 N   0  0  0  0  0  0  0  0  0  0  0  0
   -1.0071   61.4805   80.8567 C   0  0  0  0  0  0  0  0  0  0  0  0
   -3.4202   60.1838   84.0126 H   0  0  0  0  0  0  0  0  0  0  0  0
    0.0772   61.8955   78.5169 C   0  0  0  0  0  0  0  0  0  0  0  0
    0.6706   64.3561   78.7797 C   0  0  0  0  0  0  0  0  0  0  0  0
   -0.2787   63.3406   78.1612 C   0  0  0  0  0  0  0  0  0  0  0  0
    1.8377   66.4110   83.9120 C   0  0  0  0  0  0  0  0  0  0  0  0
    2.8554   66.7481   84.5158 O   0  0  0  0  0  0  0  0  0  0  0  0
    1.2489   67.1799   82.7192 C   0  0  0  0  0  0  0  0  0  0  0  0
    2.2070   68.1341   82.1241 N   0  0  0  0  0  0  0  0  0  0  0  0
    2.0045   69.5261   82.5885 C   0  0  0  0  0  0  0  0  0  0  0  0
    0.7757   70.2227   81.9765 C   0  0  0  0  0  0  0  0  0  0  0  0
    0.7985   70.1783   80.5447 O   0  0  0  0  0  0  0  0  0  0  0  0
    0.8980   68.8295   80.0755 C   0  0  0  0  0  0  0  0  0  0  0  0
    2.1404   68.1273   80.6473 C   0  0  0  0  0  0  0  0  0  0  0  0
   -0.9039   61.8284   85.8231 O   0  0  0  0  0  0  0  0  0  0  0  0
   -1.3200   62.0685   87.1727 C   0  0  0  0  0  0  0  0  0  0  0  0
   -2.7610   62.5426   87.1339 C   0  0  0  0  0  0  0  0  0  0  0  0
 20 21  1  0  0  0
 21 19  1  0  0  0
 19  7  1  0  0  0
  7  8  2  0  0  0
  8  9  1  0  0  0
  9 10  1  0  0  0
  9 11  1  0  0  0
 11 12  2  0  0  0
 12 13  1  0  0  0
 12 14  1  0  0  0
 14 15  2  0  0  0
 15  1  1  0  0  0
  1  2  1  0  0  0
  2  3  2  0  0  0
  3 22  1  0  0  0
 22 23  2  0  0  0
 22 24  1  0  0  0
 24 25  1  0  0  0
 25 26  1  0  0  0
 26 27  1  0  0  0
 27 28  1  0  0  0
 28 29  1  0  0  0
 29 30  1  0  0  0
  3  4  1  0  0  0
  4  5  2  0  0  0
  5  6  1  0  0  0
  6 31  1  0  0  0
 31 32  1  0  0  0
 32 33  1  0  0  0
 15 16  1  0  0  0
 16 17  2  0  0  0
 17  7  1  0  0  0
 17 11  1  0  0  0
  6  1  2  0  0  0
 30 25  1  0  0  0
 13 18  1  0  0  0
M  END
> <minimizedAffinity>
-9.82148

$$$$



 33 36  0  0  0  0  0  0  0  0999 V2000
   -0.0190   64.4518   81.8617 C   0  0  0  0  0  0  0  0  0  0  0  0
   -0.5508   63.9909   83.0859 C   0  0  0  0  0  0  0  0  0  0  0  0
   -0.9635   62.6608   83.2473 C   0  0  0  0  0  0  0  0  0  0  0  0
   -0.8503   61.7782   82.1655 C   0  0  0  0  0  0  0  0  0  0  0  0
   -0.3369   62.2167   80.9449 C   0  0  0  0  0  0  0  0  0  0  0  0
    0.0917   63.5388   80.8013 C   0  0  0  0  0  0  0  0  0  0  0  0
    2.3322   68.5086   83.3128 C   0  0  0  0  0  0  0  0  0  0  0  0
    2.3116   69.7584   82.8185 N   0  0  0  0  0  0  0  0  0  0  0  0
    1.5007   69.6656   81.7413 N   0  0  0  0  0  0  0  0  0  0  0  0
    1.2437   70.8366   80.9371 C   0  0  0  0  0  0  0  0  0  0  0  0
    0.9882   68.4181   81.5484 C   0  0  0  0  0  0  0  0  0  0  0  0
    0.1274   67.8505   80.6473 C   0  0  0  0  0  0  0  0  0  0  0  0
   -0.4603   68.5327   79.6259 O   0  0  0  0  0  0  0  0  0  0  0  0
   -0.1971   66.5606   80.7475 N   0  0  0  0  0  0  0  0  0  0  0  0
    0.3976   65.8507   81.7368 C   0  0  0  0  0  0  0  0  0  0  0  0
    1.2440   66.3157   82.6782 N   0  0  0  0  0  0  0  0  0  0  0  0
    1.5230   67.6313   82.5496 C   0  0  0  0  0  0  0  0  0  0  0  0
   -0.9597   67.8163   79.1932 H   0  0  0  0  0  0  0  0  0  0  0  0
    3.1220   68.1916   84.5376 C   0  0  0  0  0  0  0  0  0  0  0  0
    4.0658   65.8728   84.9936 C   0  0  0  0  0  0  0  0  0  0  0  0
    4.2694   67.2088   84.2947 C   0  0  0  0  0  0  0  0  0  0  0  0
   -1.5327   62.1409   84.5329 C   0  0  0  0  0  0  0  0  0  0  0  0
   -2.6660   61.6623   84.5109 O   0  0  0  0  0  0  0  0  0  0  0  0
   -0.6651   62.2438   85.7968 C   0  0  0  0  0  0  0  0  0  0  0  0
   -0.8595   63.5159   86.5226 N   0  0  0  0  0  0  0  0  0  0  0  0
    0.3943   64.2868   86.6890 C   0  0  0  0  0  0  0  0  0  0  0  0
    1.3522   63.7123   87.7483 C   0  0  0  0  0  0  0  0  0  0  0  0
    0.7040   63.5443   89.0148 O   0  0  0  0  0  0  0  0  0  0  0  0
   -0.4601   62.7206   88.8893 C   0  0  0  0  0  0  0  0  0  0  0  0
   -1.4470   63.2978   87.8614 C   0  0  0  0  0  0  0  0  0  0  0  0
    0.5119   63.9686   79.5682 O   0  0  0  0  0  0  0  0  0  0  0  0
   -0.4277   63.6166   78.5457 C   0  0  0  0  0  0  0  0  0  0  0  0
   -0.4800   64.7627   77.5525 C   0  0  0  0  0  0  0  0  0  0  0  0
 20 21  1  0  0  0
 21 19  1  0  0  0
 19  7  1  0  0  0
  7  8  2  0  0  0
  8  9  1  0  0  0
  9 10  1  0  0  0
  9 11  1  0  0  0
 11 12  2  0  0  0
 12 13  1  0  0  0
 12 14  1  0  0  0
 14 15  2  0  0  0
 15  1  1  0  0  0
  1  2  1  0  0  0
  2  3  2  0  0  0
  3 22  1  0  0  0
 22 23  2  0  0  0
 22 24  1  0  0  0
 24 25  1  0  0  0
 25 26  1  0  0  0
 26 27  1  0  0  0
 27 28  1  0  0  0
 28 29  1  0  0  0
 29 30  1  0  0  0
  3  4  1  0  0  0
  4  5  2  0  0  0
  5  6  1  0  0  0
  6 31  1  0  0  0
 31 32  1  0  0  0
 32 33  1  0  0  0
 15 16  1  0  0  0
 16 17  2  0  0  0
 17  7  1  0  0  0
 17 11  1  0  0  0
  6  1  2  0  0  0
 30 25  1  0  0  0
 13 18  1  0  0  0
M  END
> <minimizedAffinity>
-9.67190

$$$$



 33 36  0  0  0  0  0  0  0  0999 V2000
    0.4524   65.2654   81.7799 C   0  0  0  0  0  0  0  0  0  0  0  0
    1.2303   65.7488   82.8546 C   0  0  0  0  0  0  0  0  0  0  0  0
    2.0333   66.8901   82.7184 C   0  0  0  0  0  0  0  0  0  0  0  0
    2.0657   67.5550   81.4860 C   0  0  0  0  0  0  0  0  0  0  0  0
    1.3122   67.0873   80.4093 C   0  0  0  0  0  0  0  0  0  0  0  0
    0.4986   65.9617   80.5621 C   0  0  0  0  0  0  0  0  0  0  0  0
   -2.3615   62.1978   84.3806 C   0  0  0  0  0  0  0  0  0  0  0  0
   -2.8704   60.9942   84.0655 N   0  0  0  0  0  0  0  0  0  0  0  0
   -2.4710   60.7996   82.7891 N   0  0  0  0  0  0  0  0  0  0  0  0
   -2.8471   59.5885   82.0993 C   0  0  0  0  0  0  0  0  0  0  0  0
   -1.7111   61.8157   82.2928 C   0  0  0  0  0  0  0  0  0  0  0  0
   -1.0705   62.0597   81.1074 C   0  0  0  0  0  0  0  0  0  0  0  0
   -1.0789   61.2023   80.0498 O   0  0  0  0  0  0  0  0  0  0  0  0
   -0.3702   63.1825   80.9400 N   0  0  0  0  0  0  0  0  0  0  0  0
   -0.3706   64.0678   81.9660 C   0  0  0  0  0  0  0  0  0  0  0  0
   -0.9550   63.9174   83.1721 N   0  0  0  0  0  0  0  0  0  0  0  0
   -1.6314   62.7551   83.3021 C   0  0  0  0  0  0  0  0  0  0  0  0
   -0.5647   61.7131   79.3982 H   0  0  0  0  0  0  0  0  0  0  0  0
   -2.5737   62.7778   85.7381 C   0  0  0  0  0  0  0  0  0  0  0  0
   -1.5913   63.2377   88.0401 C   0  0  0  0  0  0  0  0  0  0  0  0
   -1.3275   62.7443   86.6252 C   0  0  0  0  0  0  0  0  0  0  0  0
    2.8711   67.4279   83.8392 C   0  0  0  0  0  0  0  0  0  0  0  0
    2.5689   68.5229   84.3119 O   0  0  0  0  0  0  0  0  0  0  0  0
    4.0566   66.5782   84.3223 C   0  0  0  0  0  0  0  0  0  0  0  0
    5.1825   67.3961   84.8182 N   0  0  0  0  0  0  0  0  0  0  0  0
    6.5033   66.9000   84.3670 C   0  0  0  0  0  0  0  0  0  0  0  0
    6.9789   65.6263   85.0888 C   0  0  0  0  0  0  0  0  0  0  0  0
    6.9725   65.7888   86.5122 O   0  0  0  0  0  0  0  0  0  0  0  0
    5.6754   66.1766   86.9777 C   0  0  0  0  0  0  0  0  0  0  0  0
    5.1978   67.4684   86.2946 C   0  0  0  0  0  0  0  0  0  0  0  0
   -0.1653   65.4708   79.4666 O   0  0  0  0  0  0  0  0  0  0  0  0
    0.7403   65.1817   78.3948 C   0  0  0  0  0  0  0  0  0  0  0  0
    0.1348   64.0623   77.5683 C   0  0  0  0  0  0  0  0  0  0  0  0
 20 21  1  0  0  0
 21 19  1  0  0  0
 19  7  1  0  0  0
  7  8  2  0  0  0
  8  9  1  0  0  0
  9 10  1  0  0  0
  9 11  1  0  0  0
 11 12  2  0  0  0
 12 13  1  0  0  0
 12 14  1  0  0  0
 14 15  2  0  0  0
 15  1  1  0  0  0
  1  2  1  0  0  0
  2  3  2  0  0  0
  3 22  1  0  0  0
 22 23  2  0  0  0
 22 24  1  0  0  0
 24 25  1  0  0  0
 25 26  1  0  0  0
 26 27  1  0  0  0
 27 28  1  0  0  0
 28 29  1  0  0  0
 29 30  1  0  0  0
  3  4  1  0  0  0
  4  5  2  0  0  0
  5  6  1  0  0  0
  6 31  1  0  0  0
 31 32  1  0  0  0
 32 33  1  0  0  0
 15 16  1  0  0  0
 16 17  2  0  0  0
 17  7  1  0  0  0
 17 11  1  0  0  0
  6  1  2  0  0  0
 30 25  1  0  0  0
 13 18  1  0  0  0
M  END
> <minimizedAffinity>
-9.65591

$$$$



 33 36  0  0  0  0  0  0  0  0999 V2000
    1.1024   65.5572   83.0914 C   0  0  0  0  0  0  0  0  0  0  0  0
    0.8200   65.1169   81.7799 C   0  0  0  0  0  0  0  0  0  0  0  0
    1.1563   65.8928   80.6616 C   0  0  0  0  0  0  0  0  0  0  0  0
    1.7782   67.1326   80.8569 C   0  0  0  0  0  0  0  0  0  0  0  0
    2.0565   67.5898   82.1451 C   0  0  0  0  0  0  0  0  0  0  0  0
    1.7368   66.7990   83.2517 C   0  0  0  0  0  0  0  0  0  0  0  0
   -1.7375   62.3321   85.4631 C   0  0  0  0  0  0  0  0  0  0  0  0
   -1.6893   61.8870   86.7305 N   0  0  0  0  0  0  0  0  0  0  0  0
   -0.6041   62.5045   87.2479 N   0  0  0  0  0  0  0  0  0  0  0  0
   -0.2262   62.2560   88.6188 C   0  0  0  0  0  0  0  0  0  0  0  0
    0.0203   63.3391   86.3707 C   0  0  0  0  0  0  0  0  0  0  0  0
    1.1012   64.1778   86.4298 C   0  0  0  0  0  0  0  0  0  0  0  0
    1.8635   64.3558   87.5439 O   0  0  0  0  0  0  0  0  0  0  0  0
    1.4545   64.8960   85.3628 N   0  0  0  0  0  0  0  0  0  0  0  0
    0.7313   64.7150   84.2312 C   0  0  0  0  0  0  0  0  0  0  0  0
   -0.3525   63.9279   84.0736 N   0  0  0  0  0  0  0  0  0  0  0  0
   -0.6854   63.2399   85.1876 C   0  0  0  0  0  0  0  0  0  0  0  0
    2.5353   64.9761   87.2066 H   0  0  0  0  0  0  0  0  0  0  0  0
   -2.8235   61.8844   84.5440 C   0  0  0  0  0  0  0  0  0  0  0  0
   -3.1739   60.2916   82.5906 C   0  0  0  0  0  0  0  0  0  0  0  0
   -2.3196   61.4032   83.1818 C   0  0  0  0  0  0  0  0  0  0  0  0
    0.8694   65.4543   79.2571 C   0  0  0  0  0  0  0  0  0  0  0  0
    1.6676   65.7752   78.3775 O   0  0  0  0  0  0  0  0  0  0  0  0
   -0.4064   64.6357   79.0061 C   0  0  0  0  0  0  0  0  0  0  0  0
   -0.1505   63.3963   78.2438 N   0  0  0  0  0  0  0  0  0  0  0  0
   -1.3914   62.6861   77.8568 C   0  0  0  0  0  0  0  0  0  0  0  0
   -2.0844   61.9491   79.0171 C   0  0  0  0  0  0  0  0  0  0  0  0
   -1.1900   61.0517   79.6858 O   0  0  0  0  0  0  0  0  0  0  0  0
   -0.0255   61.7417   80.1518 C   0  0  0  0  0  0  0  0  0  0  0  0
    0.7019   62.4548   79.0003 C   0  0  0  0  0  0  0  0  0  0  0  0
    1.9412   67.3066   84.5097 O   0  0  0  0  0  0  0  0  0  0  0  0
    3.0518   68.2112   84.5324 C   0  0  0  0  0  0  0  0  0  0  0  0
    4.2806   67.4231   84.9468 C   0  0  0  0  0  0  0  0  0  0  0  0
 20 21  1  0  0  0
 21 19  1  0  0  0
 19  7  1  0  0  0
  7  8  2  0  0  0
  8  9  1  0  0  0
  9 10  1  0  0  0
  9 11  1  0  0  0
 11 12  2  0  0  0
 12 13  1  0  0  0
 12 14  1  0  0  0
 14 15  2  0  0  0
 15  1  1  0  0  0
  1  2  1  0  0  0
  2  3  2  0  0  0
  3 22  1  0  0  0
 22 23  2  0  0  0
 22 24  1  0  0  0
 24 25  1  0  0  0
 25 26  1  0  0  0
 26 27  1  0  0  0
 27 28  1  0  0  0
 28 29  1  0  0  0
 29 30  1  0  0  0
  3  4  1  0  0  0
  4  5  2  0  0  0
  5  6  1  0  0  0
  6 31  1  0  0  0
 31 32  1  0  0  0
 32 33  1  0  0  0
 15 16  1  0  0  0
 16 17  2  0  0  0
 17  7  1  0  0  0
 17 11  1  0  0  0
  6  1  2  0  0  0
 30 25  1  0  0  0
 13 18  1  0  0  0
M  END
> <minimizedAffinity>
-9.58142

$$$$



 33 36  0  0  0  0  0  0  0  0999 V2000
    2.3347   66.0602   84.6277 C   0  0  0  0  0  0  0  0  0  0  0  0
    1.9108   67.1514   83.8382 C   0  0  0  0  0  0  0  0  0  0  0  0
    2.8081   68.1480   83.4290 C   0  0  0  0  0  0  0  0  0  0  0  0
    4.1497   68.0571   83.8215 C   0  0  0  0  0  0  0  0  0  0  0  0
    4.5860   66.9922   84.6098 C   0  0  0  0  0  0  0  0  0  0  0  0
    3.6880   65.9930   84.9940 C   0  0  0  0  0  0  0  0  0  0  0  0
   -0.9329   62.4914   83.8044 C   0  0  0  0  0  0  0  0  0  0  0  0
   -1.7563   61.8446   84.6474 N   0  0  0  0  0  0  0  0  0  0  0  0
   -1.4559   62.3684   85.8566 N   0  0  0  0  0  0  0  0  0  0  0  0
   -2.1504   61.8985   87.0316 C   0  0  0  0  0  0  0  0  0  0  0  0
   -0.4971   63.3352   85.8109 C   0  0  0  0  0  0  0  0  0  0  0  0
    0.1027   64.1524   86.7316 C   0  0  0  0  0  0  0  0  0  0  0  0
   -0.1944   64.1450   88.0603 O   0  0  0  0  0  0  0  0  0  0  0  0
    1.0254   65.0356   86.3470 N   0  0  0  0  0  0  0  0  0  0  0  0
    1.3623   65.0428   85.0345 C   0  0  0  0  0  0  0  0  0  0  0  0
    0.8249   64.2927   84.0509 N   0  0  0  0  0  0  0  0  0  0  0  0
   -0.1210   63.4316   84.4854 C   0  0  0  0  0  0  0  0  0  0  0  0
    0.4350   64.8119   88.3905 H   0  0  0  0  0  0  0  0  0  0  0  0
   -0.9658   62.2009   82.3420 C   0  0  0  0  0  0  0  0  0  0  0  0
    0.5589   61.6445   80.3821 C   0  0  0  0  0  0  0  0  0  0  0  0
    0.2339   61.3907   81.8466 C   0  0  0  0  0  0  0  0  0  0  0  0
    2.3896   69.3189   82.5917 C   0  0  0  0  0  0  0  0  0  0  0  0
    3.1845   70.2490   82.4614 O   0  0  0  0  0  0  0  0  0  0  0  0
    0.9923   69.2836   81.9538 C   0  0  0  0  0  0  0  0  0  0  0  0
    1.0382   69.2203   80.4784 N   0  0  0  0  0  0  0  0  0  0  0  0
   -0.2866   68.9649   79.8669 C   0  0  0  0  0  0  0  0  0  0  0  0
   -0.7803   67.5143   80.0144 C   0  0  0  0  0  0  0  0  0  0  0  0
    0.1809   66.5735   79.5210 O   0  0  0  0  0  0  0  0  0  0  0  0
    1.4447   66.7435   80.1715 C   0  0  0  0  0  0  0  0  0  0  0  0
    1.9728   68.1777   80.0043 C   0  0  0  0  0  0  0  0  0  0  0  0
    4.1206   65.0032   85.8395 O   0  0  0  0  0  0  0  0  0  0  0  0
    5.4687   65.2343   86.2656 C   0  0  0  0  0  0  0  0  0  0  0  0
    5.4525   65.4118   87.7726 C   0  0  0  0  0  0  0  0  0  0  0  0
 20 21  1  0  0  0
 21 19  1  0  0  0
 19  7  1  0  0  0
  7  8  2  0  0  0
  8  9  1  0  0  0
  9 10  1  0  0  0
  9 11  1  0  0  0
 11 12  2  0  0  0
 12 13  1  0  0  0
 12 14  1  0  0  0
 14 15  2  0  0  0
 15  1  1  0  0  0
  1  2  1  0  0  0
  2  3  2  0  0  0
  3 22  1  0  0  0
 22 23  2  0  0  0
 22 24  1  0  0  0
 24 25  1  0  0  0
 25 26  1  0  0  0
 26 27  1  0  0  0
 27 28  1  0  0  0
 28 29  1  0  0  0
 29 30  1  0  0  0
  3  4  1  0  0  0
  4  5  2  0  0  0
  5  6  1  0  0  0
  6 31  1  0  0  0
 31 32  1  0  0  0
 32 33  1  0  0  0
 15 16  1  0  0  0
 16 17  2  0  0  0
 17  7  1  0  0  0
 17 11  1  0  0  0
  6  1  2  0  0  0
 30 25  1  0  0  0
 13 18  1  0  0  0
M  END
> <minimizedAffinity>
-9.44265

$$$$



 33 36  0  0  0  0  0  0  0  0999 V2000
   -0.0444   64.0055   85.1331 C   0  0  0  0  0  0  0  0  0  0  0  0
   -0.5278   63.2897   84.0161 C   0  0  0  0  0  0  0  0  0  0  0  0
   -1.5718   62.3622   84.1402 C   0  0  0  0  0  0  0  0  0  0  0  0
   -2.1372   62.1403   85.4023 C   0  0  0  0  0  0  0  0  0  0  0  0
   -1.6669   62.8300   86.5198 C   0  0  0  0  0  0  0  0  0  0  0  0
   -0.6406   63.7681   86.3814 C   0  0  0  0  0  0  0  0  0  0  0  0
    2.2090   67.7936   82.9734 C   0  0  0  0  0  0  0  0  0  0  0  0
    3.4419   68.2984   83.1520 N   0  0  0  0  0  0  0  0  0  0  0  0
    3.9600   67.5401   84.1436 N   0  0  0  0  0  0  0  0  0  0  0  0
    5.2974   67.8025   84.6196 C   0  0  0  0  0  0  0  0  0  0  0  0
    3.1181   66.5627   84.5815 C   0  0  0  0  0  0  0  0  0  0  0  0
    3.1940   65.5603   85.5115 C   0  0  0  0  0  0  0  0  0  0  0  0
    4.2897   65.3238   86.2844 O   0  0  0  0  0  0  0  0  0  0  0  0
    2.1647   64.7316   85.6927 N   0  0  0  0  0  0  0  0  0  0  0  0
    1.0499   64.9636   84.9580 C   0  0  0  0  0  0  0  0  0  0  0  0
    0.8794   65.9098   84.0122 N   0  0  0  0  0  0  0  0  0  0  0  0
    1.9568   66.7083   83.8482 C   0  0  0  0  0  0  0  0  0  0  0  0
    3.9704   64.5812   86.8290 H   0  0  0  0  0  0  0  0  0  0  0  0
    1.3015   68.3611   81.9347 C   0  0  0  0  0  0  0  0  0  0  0  0
    2.2499   69.2919   79.7645 C   0  0  0  0  0  0  0  0  0  0  0  0
    1.7415   68.0610   80.5003 C   0  0  0  0  0  0  0  0  0  0  0  0
   -2.1068   61.5860   82.9746 C   0  0  0  0  0  0  0  0  0  0  0  0
   -2.8066   60.6015   83.2088 O   0  0  0  0  0  0  0  0  0  0  0  0
   -1.7425   62.0680   81.5619 C   0  0  0  0  0  0  0  0  0  0  0  0
   -0.9506   61.0763   80.8054 N   0  0  0  0  0  0  0  0  0  0  0  0
    0.4053   61.5603   80.4566 C   0  0  0  0  0  0  0  0  0  0  0  0
    0.4316   62.5981   79.3200 C   0  0  0  0  0  0  0  0  0  0  0  0
   -0.2383   62.1188   78.1478 O   0  0  0  0  0  0  0  0  0  0  0  0
   -1.5844   61.7351   78.4478 C   0  0  0  0  0  0  0  0  0  0  0  0
   -1.6300   60.6711   79.5567 C   0  0  0  0  0  0  0  0  0  0  0  0
   -0.1371   64.3698   87.5068 O   0  0  0  0  0  0  0  0  0  0  0  0
   -0.5253   63.6653   88.6923 C   0  0  0  0  0  0  0  0  0  0  0  0
    0.6292   62.7661   89.0937 C   0  0  0  0  0  0  0  0  0  0  0  0
 20 21  1  0  0  0
 21 19  1  0  0  0
 19  7  1  0  0  0
  7  8  2  0  0  0
  8  9  1  0  0  0
  9 10  1  0  0  0
  9 11  1  0  0  0
 11 12  2  0  0  0
 12 13  1  0  0  0
 12 14  1  0  0  0
 14 15  2  0  0  0
 15  1  1  0  0  0
  1  2  1  0  0  0
  2  3  2  0  0  0
  3 22  1  0  0  0
 22 23  2  0  0  0
 22 24  1  0  0  0
 24 25  1  0  0  0
 25 26  1  0  0  0
 26 27  1  0  0  0
 27 28  1  0  0  0
 28 29  1  0  0  0
 29 30  1  0  0  0
  3  4  1  0  0  0
  4  5  2  0  0  0
  5  6  1  0  0  0
  6 31  1  0  0  0
 31 32  1  0  0  0
 32 33  1  0  0  0
 15 16  1  0  0  0
 16 17  2  0  0  0
 17  7  1  0  0  0
 17 11  1  0  0  0
  6  1  2  0  0  0
 30 25  1  0  0  0
 13 18  1  0  0  0
M  END
> <minimizedAffinity>
-9.38550

$$$$



 33 36  0  0  0  0  0  0  0  0999 V2000
    0.4269   65.0185   81.7693 C   0  0  0  0  0  0  0  0  0  0  0  0
    0.5317   64.4505   83.0578 C   0  0  0  0  0  0  0  0  0  0  0  0
    0.9902   65.2002   84.1503 C   0  0  0  0  0  0  0  0  0  0  0  0
    1.3574   66.5371   83.9509 C   0  0  0  0  0  0  0  0  0  0  0  0
    1.2706   67.1135   82.6836 C   0  0  0  0  0  0  0  0  0  0  0  0
    0.7919   66.3639   81.6060 C   0  0  0  0  0  0  0  0  0  0  0  0
   -2.6978   61.9240   79.5894 C   0  0  0  0  0  0  0  0  0  0  0  0
   -2.6239   61.2926   78.4051 N   0  0  0  0  0  0  0  0  0  0  0  0
   -1.4665   61.7426   77.8717 N   0  0  0  0  0  0  0  0  0  0  0  0
   -1.0514   61.2780   76.5694 C   0  0  0  0  0  0  0  0  0  0  0  0
   -0.7939   62.6108   78.6778 C   0  0  0  0  0  0  0  0  0  0  0  0
    0.3930   63.2891   78.5982 C   0  0  0  0  0  0  0  0  0  0  0  0
    1.2441   63.2074   77.5385 O   0  0  0  0  0  0  0  0  0  0  0  0
    0.7878   64.0741   79.6017 N   0  0  0  0  0  0  0  0  0  0  0  0
   -0.0550   64.1976   80.6556 C   0  0  0  0  0  0  0  0  0  0  0  0
   -1.2329   63.5660   80.8357 N   0  0  0  0  0  0  0  0  0  0  0  0
   -1.5779   62.7645   79.8044 C   0  0  0  0  0  0  0  0  0  0  0  0
    1.9391   63.8320   77.8156 H   0  0  0  0  0  0  0  0  0  0  0  0
   -3.8483   61.6807   80.5067 C   0  0  0  0  0  0  0  0  0  0  0  0
   -2.9828   59.4947   81.4804 C   0  0  0  0  0  0  0  0  0  0  0  0
   -3.4756   60.9045   81.7716 C   0  0  0  0  0  0  0  0  0  0  0  0
    1.1137   64.6266   85.5298 C   0  0  0  0  0  0  0  0  0  0  0  0
    2.2266   64.6187   86.0543 O   0  0  0  0  0  0  0  0  0  0  0  0
   -0.1578   64.0814   86.1981 C   0  0  0  0  0  0  0  0  0  0  0  0
   -0.2367   62.6065   86.1606 N   0  0  0  0  0  0  0  0  0  0  0  0
   -0.9320   62.0927   84.9578 C   0  0  0  0  0  0  0  0  0  0  0  0
   -2.4603   62.2743   84.9870 C   0  0  0  0  0  0  0  0  0  0  0  0
   -3.0394   61.7113   86.1704 O   0  0  0  0  0  0  0  0  0  0  0  0
   -2.4439   62.2683   87.3470 C   0  0  0  0  0  0  0  0  0  0  0  0
   -0.9200   62.0645   87.3541 C   0  0  0  0  0  0  0  0  0  0  0  0
    0.7971   66.9254   80.3544 O   0  0  0  0  0  0  0  0  0  0  0  0
   -0.4151   67.6458   80.1015 C   0  0  0  0  0  0  0  0  0  0  0  0
   -0.0796   69.1258   80.0945 C   0  0  0  0  0  0  0  0  0  0  0  0
 20 21  1  0  0  0
 21 19  1  0  0  0
 19  7  1  0  0  0
  7  8  2  0  0  0
  8  9  1  0  0  0
  9 10  1  0  0  0
  9 11  1  0  0  0
 11 12  2  0  0  0
 12 13  1  0  0  0
 12 14  1  0  0  0
 14 15  2  0  0  0
 15  1  1  0  0  0
  1  2  1  0  0  0
  2  3  2  0  0  0
  3 22  1  0  0  0
 22 23  2  0  0  0
 22 24  1  0  0  0
 24 25  1  0  0  0
 25 26  1  0  0  0
 26 27  1  0  0  0
 27 28  1  0  0  0
 28 29  1  0  0  0
 29 30  1  0  0  0
  3  4  1  0  0  0
  4  5  2  0  0  0
  5  6  1  0  0  0
  6 31  1  0  0  0
 31 32  1  0  0  0
 32 33  1  0  0  0
 15 16  1  0  0  0
 16 17  2  0  0  0
 17  7  1  0  0  0
 17 11  1  0  0  0
  6  1  2  0  0  0
 30 25  1  0  0  0
 13 18  1  0  0  0
M  END
> <minimizedAffinity>
-9.37838

$$$$
