


 39 42  0  0  0  0  0  0  0  0999 V2000
    1.2297   65.7136   83.6247 C   0  0  0  0  0  0  0  0  0  0  0  0
    0.5205   65.6450   82.4092 C   0  0  0  0  0  0  0  0  0  0  0  0
    0.8150   66.4926   81.3335 C   0  0  0  0  0  0  0  0  0  0  0  0
    1.8431   67.4236   81.4825 C   0  0  0  0  0  0  0  0  0  0  0  0
    2.5718   67.4937   82.6745 C   0  0  0  0  0  0  0  0  0  0  0  0
    2.2864   66.6402   83.7498 C   0  0  0  0  0  0  0  0  0  0  0  0
   -1.6952   62.3420   85.7792 C   0  0  0  0  0  0  0  0  0  0  0  0
   -1.6601   61.7766   87.0011 N   0  0  0  0  0  0  0  0  0  0  0  0
   -0.5679   62.3277   87.5883 N   0  0  0  0  0  0  0  0  0  0  0  0
   -0.2082   61.9540   88.9348 C   0  0  0  0  0  0  0  0  0  0  0  0
    0.0779   63.2143   86.7855 C   0  0  0  0  0  0  0  0  0  0  0  0
    1.2315   64.0072   86.9983 C   0  0  0  0  0  0  0  0  0  0  0  0
    1.9091   64.0292   88.0187 O   0  0  0  0  0  0  0  0  0  0  0  0
    1.5153   64.7791   85.8950 N   0  0  0  0  0  0  0  0  0  0  0  0
    0.7728   64.7811   84.7185 C   0  0  0  0  0  0  0  0  0  0  0  0
   -0.2861   64.0381   84.5299 N   0  0  0  0  0  0  0  0  0  0  0  0
   -0.6249   63.2367   85.6197 C   0  0  0  0  0  0  0  0  0  0  0  0
    2.3244   65.3816   85.9739 H   0  0  0  0  0  0  0  0  0  0  0  0
   -2.7647   61.9899   84.8032 C   0  0  0  0  0  0  0  0  0  0  0  0
   -3.1693   60.4411   82.8202 C   0  0  0  0  0  0  0  0  0  0  0  0
   -2.2338   61.4489   83.4731 C   0  0  0  0  0  0  0  0  0  0  0  0
   -0.0037   66.4305   80.0648 C   0  0  0  0  0  0  0  0  0  0  0  0
   -0.0574   65.0438   79.4621 C   0  0  0  0  0  0  0  0  0  0  0  0
    0.8139   64.6843   78.4317 C   0  0  0  0  0  0  0  0  0  0  0  0
    0.7461   63.4090   77.8703 C   0  0  0  0  0  0  0  0  0  0  0  0
   -0.2002   62.4701   78.3179 C   0  0  0  0  0  0  0  0  0  0  0  0
   -1.1034   62.8304   79.3369 C   0  0  0  0  0  0  0  0  0  0  0  0
   -1.0091   64.1092   79.9077 C   0  0  0  0  0  0  0  0  0  0  0  0
   -0.1742   61.1352   77.6431 C   0  0  0  0  0  0  0  0  0  0  0  0
    0.0485   61.0344   76.4366 O   0  0  0  0  0  0  0  0  0  0  0  0
   -0.4155   60.0235   78.4130 N   0  0  0  0  0  0  0  0  0  0  0  0
   -0.5822   58.8086   77.7091 O   0  0  0  0  0  0  0  0  0  0  0  0
   -0.8442   60.0953   79.3327 H   0  0  0  0  0  0  0  0  0  0  0  0
   -0.4148   59.0887   76.7824 H   0  0  0  0  0  0  0  0  0  0  0  0
   -2.0362   61.9018   79.7281 O   0  0  0  0  0  0  0  0  0  0  0  0
   -3.3218   61.9605   79.1140 C   0  0  0  0  0  0  0  0  0  0  0  0
    2.9633   66.6800   84.9422 O   0  0  0  0  0  0  0  0  0  0  0  0
    4.3842   66.8410   84.9402 C   0  0  0  0  0  0  0  0  0  0  0  0
    5.0673   65.5013   85.1480 C   0  0  0  0  0  0  0  0  0  0  0  0
 20 21  1  0  0  0
 21 19  1  0  0  0
 19  7  1  0  0  0
  7  8  2  0  0  0
  8  9  1  0  0  0
  9 10  1  0  0  0
  9 11  1  0  0  0
 11 12  1  0  0  0
 12 13  2  0  0  0
 12 14  1  0  0  0
 14 15  1  0  0  0
 15  1  1  0  0  0
  1  2  1  0  0  0
  2  3  2  0  0  0
  3 22  1  0  0  0
 22 23  1  0  0  0
 23 24  1  0  0  0
 24 25  2  0  0  0
 25 26  1  0  0  0
 26 29  1  0  0  0
 29 30  2  0  0  0
 29 31  1  0  0  0
 31 32  1  0  0  0
 26 27  2  0  0  0
 27 35  1  0  0  0
 35 36  1  0  0  0
 27 28  1  0  0  0
  3  4  1  0  0  0
  4  5  2  0  0  0
  5  6  1  0  0  0
  6 37  1  0  0  0
 37 38  1  0  0  0
 38 39  1  0  0  0
 15 16  2  0  0  0
 16 17  1  0  0  0
 17  7  1  0  0  0
 17 11  2  0  0  0
  6  1  2  0  0  0
 28 23  2  0  0  0
 14 18  1  0  0  0
 31 33  1  0  0  0
 32 34  1  0  0  0
M  END
> <minimizedAffinity>
-11.02893

$$$$



 39 42  0  0  0  0  0  0  0  0999 V2000
   -0.3463   63.2109   83.8604 C   0  0  0  0  0  0  0  0  0  0  0  0
    0.2375   64.4003   83.3813 C   0  0  0  0  0  0  0  0  0  0  0  0
    0.7628   65.3667   84.2487 C   0  0  0  0  0  0  0  0  0  0  0  0
    0.7023   65.1308   85.6223 C   0  0  0  0  0  0  0  0  0  0  0  0
    0.1445   63.9469   86.1166 C   0  0  0  0  0  0  0  0  0  0  0  0
   -0.3733   62.9730   85.2510 C   0  0  0  0  0  0  0  0  0  0  0  0
   -0.9668   61.3127   79.3242 C   0  0  0  0  0  0  0  0  0  0  0  0
   -1.7781   60.3413   78.8639 N   0  0  0  0  0  0  0  0  0  0  0  0
   -2.4446   59.9176   79.9672 N   0  0  0  0  0  0  0  0  0  0  0  0
   -3.4229   58.8626   79.8572 C   0  0  0  0  0  0  0  0  0  0  0  0
   -2.0853   60.5851   81.0955 C   0  0  0  0  0  0  0  0  0  0  0  0
   -2.5280   60.4718   82.4356 C   0  0  0  0  0  0  0  0  0  0  0  0
   -3.3715   59.6852   82.8488 O   0  0  0  0  0  0  0  0  0  0  0  0
   -1.8859   61.3763   83.2500 N   0  0  0  0  0  0  0  0  0  0  0  0
   -0.9224   62.2831   82.8203 C   0  0  0  0  0  0  0  0  0  0  0  0
   -0.5149   62.3730   81.5814 N   0  0  0  0  0  0  0  0  0  0  0  0
   -1.1368   61.4815   80.7078 C   0  0  0  0  0  0  0  0  0  0  0  0
   -2.1560   61.3617   84.2251 H   0  0  0  0  0  0  0  0  0  0  0  0
   -0.0477   62.0419   78.4057 C   0  0  0  0  0  0  0  0  0  0  0  0
   -1.6093   63.5116   77.0286 C   0  0  0  0  0  0  0  0  0  0  0  0
   -0.6505   62.3293   77.0281 C   0  0  0  0  0  0  0  0  0  0  0  0
    1.3297   66.6567   83.7028 C   0  0  0  0  0  0  0  0  0  0  0  0
    2.7937   66.8470   84.0338 C   0  0  0  0  0  0  0  0  0  0  0  0
    3.4540   68.0249   83.6777 C   0  0  0  0  0  0  0  0  0  0  0  0
    4.8082   68.1849   83.9719 C   0  0  0  0  0  0  0  0  0  0  0  0
    5.5342   67.1682   84.6173 C   0  0  0  0  0  0  0  0  0  0  0  0
    4.8864   65.9641   84.9559 C   0  0  0  0  0  0  0  0  0  0  0  0
    3.5185   65.8257   84.6738 C   0  0  0  0  0  0  0  0  0  0  0  0
    6.9778   67.4564   84.8835 C   0  0  0  0  0  0  0  0  0  0  0  0
    7.3182   68.2667   85.7455 O   0  0  0  0  0  0  0  0  0  0  0  0
    7.9134   66.7926   84.1280 N   0  0  0  0  0  0  0  0  0  0  0  0
    9.2484   67.2371   84.2671 O   0  0  0  0  0  0  0  0  0  0  0  0
    7.6628   66.3250   83.2602 H   0  0  0  0  0  0  0  0  0  0  0  0
    9.1600   67.9238   84.9642 H   0  0  0  0  0  0  0  0  0  0  0  0
    5.6316   64.9789   85.5554 O   0  0  0  0  0  0  0  0  0  0  0  0
    5.5070   64.8259   86.9676 C   0  0  0  0  0  0  0  0  0  0  0  0
   -0.9419   61.8036   85.6879 O   0  0  0  0  0  0  0  0  0  0  0  0
   -1.5521   61.7574   86.9804 C   0  0  0  0  0  0  0  0  0  0  0  0
   -2.7766   62.6541   87.0181 C   0  0  0  0  0  0  0  0  0  0  0  0
 20 21  1  0  0  0
 21 19  1  0  0  0
 19  7  1  0  0  0
  7  8  2  0  0  0
  8  9  1  0  0  0
  9 10  1  0  0  0
  9 11  1  0  0  0
 11 12  1  0  0  0
 12 13  2  0  0  0
 12 14  1  0  0  0
 14 15  1  0  0  0
 15  1  1  0  0  0
  1  2  1  0  0  0
  2  3  2  0  0  0
  3 22  1  0  0  0
 22 23  1  0  0  0
 23 24  1  0  0  0
 24 25  2  0  0  0
 25 26  1  0  0  0
 26 29  1  0  0  0
 29 30  2  0  0  0
 29 31  1  0  0  0
 31 32  1  0  0  0
 26 27  2  0  0  0
 27 35  1  0  0  0
 35 36  1  0  0  0
 27 28  1  0  0  0
  3  4  1  0  0  0
  4  5  2  0  0  0
  5  6  1  0  0  0
  6 37  1  0  0  0
 37 38  1  0  0  0
 38 39  1  0  0  0
 15 16  2  0  0  0
 16 17  1  0  0  0
 17  7  1  0  0  0
 17 11  2  0  0  0
  6  1  2  0  0  0
 28 23  2  0  0  0
 14 18  1  0  0  0
 31 33  1  0  0  0
 32 34  1  0  0  0
M  END
> <minimizedAffinity>
-10.72242

$$$$



 39 42  0  0  0  0  0  0  0  0999 V2000
    0.3085   64.8680   80.6396 C   0  0  0  0  0  0  0  0  0  0  0  0
    0.6205   65.7880   81.6602 C   0  0  0  0  0  0  0  0  0  0  0  0
    1.4023   66.9244   81.4161 C   0  0  0  0  0  0  0  0  0  0  0  0
    1.8761   67.1405   80.1220 C   0  0  0  0  0  0  0  0  0  0  0  0
    1.5606   66.2490   79.0912 C   0  0  0  0  0  0  0  0  0  0  0  0
    0.7701   65.1157   79.3295 C   0  0  0  0  0  0  0  0  0  0  0  0
   -2.2302   61.9559   83.7445 C   0  0  0  0  0  0  0  0  0  0  0  0
   -2.8088   60.7522   83.5710 N   0  0  0  0  0  0  0  0  0  0  0  0
   -2.5713   60.4566   82.2682 N   0  0  0  0  0  0  0  0  0  0  0  0
   -3.0516   59.2147   81.7120 C   0  0  0  0  0  0  0  0  0  0  0  0
   -1.8672   61.4236   81.6225 C   0  0  0  0  0  0  0  0  0  0  0  0
   -1.4049   61.5164   80.2874 C   0  0  0  0  0  0  0  0  0  0  0  0
   -1.5792   60.6817   79.4079 O   0  0  0  0  0  0  0  0  0  0  0  0
   -0.7118   62.6872   80.0811 N   0  0  0  0  0  0  0  0  0  0  0  0
   -0.4946   63.6597   81.0518 C   0  0  0  0  0  0  0  0  0  0  0  0
   -0.9338   63.5673   82.2797 N   0  0  0  0  0  0  0  0  0  0  0  0
   -1.6408   62.3958   82.5483 C   0  0  0  0  0  0  0  0  0  0  0  0
   -0.3415   62.8226   79.1492 H   0  0  0  0  0  0  0  0  0  0  0  0
   -2.2738   62.6431   85.0659 C   0  0  0  0  0  0  0  0  0  0  0  0
   -0.1142   63.6709   85.9460 C   0  0  0  0  0  0  0  0  0  0  0  0
   -1.0119   62.4421   85.9090 C   0  0  0  0  0  0  0  0  0  0  0  0
    1.7653   67.8597   82.5463 C   0  0  0  0  0  0  0  0  0  0  0  0
    2.6672   67.2190   83.5784 C   0  0  0  0  0  0  0  0  0  0  0  0
    2.2129   66.1473   84.3498 C   0  0  0  0  0  0  0  0  0  0  0  0
    3.0455   65.5736   85.3108 C   0  0  0  0  0  0  0  0  0  0  0  0
    4.3447   66.0650   85.5298 C   0  0  0  0  0  0  0  0  0  0  0  0
    4.8043   67.1640   84.7781 C   0  0  0  0  0  0  0  0  0  0  0  0
    3.9638   67.7169   83.7994 C   0  0  0  0  0  0  0  0  0  0  0  0
    5.1447   65.3664   86.5834 C   0  0  0  0  0  0  0  0  0  0  0  0
    5.6228   64.2494   86.3856 O   0  0  0  0  0  0  0  0  0  0  0  0
    5.3223   66.0092   87.7842 N   0  0  0  0  0  0  0  0  0  0  0  0
    5.9059   65.2394   88.8168 O   0  0  0  0  0  0  0  0  0  0  0  0
    4.7395   66.7965   88.0582 H   0  0  0  0  0  0  0  0  0  0  0  0
    6.0975   64.3944   88.3537 H   0  0  0  0  0  0  0  0  0  0  0  0
    6.0653   67.6403   85.0394 O   0  0  0  0  0  0  0  0  0  0  0  0
    7.1597   66.9990   84.3879 C   0  0  0  0  0  0  0  0  0  0  0  0
    0.4454   64.2064   78.3553 O   0  0  0  0  0  0  0  0  0  0  0  0
   -0.2890   64.6374   77.2064 C   0  0  0  0  0  0  0  0  0  0  0  0
   -1.1649   63.5114   76.6872 C   0  0  0  0  0  0  0  0  0  0  0  0
 20 21  1  0  0  0
 21 19  1  0  0  0
 19  7  1  0  0  0
  7  8  2  0  0  0
  8  9  1  0  0  0
  9 10  1  0  0  0
  9 11  1  0  0  0
 11 12  1  0  0  0
 12 13  2  0  0  0
 12 14  1  0  0  0
 14 15  1  0  0  0
 15  1  1  0  0  0
  1  2  1  0  0  0
  2  3  2  0  0  0
  3 22  1  0  0  0
 22 23  1  0  0  0
 23 24  1  0  0  0
 24 25  2  0  0  0
 25 26  1  0  0  0
 26 29  1  0  0  0
 29 30  2  0  0  0
 29 31  1  0  0  0
 31 32  1  0  0  0
 26 27  2  0  0  0
 27 35  1  0  0  0
 35 36  1  0  0  0
 27 28  1  0  0  0
  3  4  1  0  0  0
  4  5  2  0  0  0
  5  6  1  0  0  0
  6 37  1  0  0  0
 37 38  1  0  0  0
 38 39  1  0  0  0
 15 16  2  0  0  0
 16 17  1  0  0  0
 17  7  1  0  0  0
 17 11  2  0  0  0
  6  1  2  0  0  0
 28 23  2  0  0  0
 14 18  1  0  0  0
 31 33  1  0  0  0
 32 34  1  0  0  0
M  END
> <minimizedAffinity>
-10.48572

$$$$



 39 42  0  0  0  0  0  0  0  0999 V2000
    0.1405   63.9320   83.1526 C   0  0  0  0  0  0  0  0  0  0  0  0
    0.9420   64.8576   82.4555 C   0  0  0  0  0  0  0  0  0  0  0  0
    1.5875   65.9150   83.1093 C   0  0  0  0  0  0  0  0  0  0  0  0
    1.4263   66.0415   84.4891 C   0  0  0  0  0  0  0  0  0  0  0  0
    0.6506   65.1209   85.2017 C   0  0  0  0  0  0  0  0  0  0  0  0
    0.0110   64.0555   84.5522 C   0  0  0  0  0  0  0  0  0  0  0  0
   -0.9124   61.3964   79.0261 C   0  0  0  0  0  0  0  0  0  0  0  0
   -1.7767   60.3910   78.7895 N   0  0  0  0  0  0  0  0  0  0  0  0
   -2.3486   60.1564   79.9974 N   0  0  0  0  0  0  0  0  0  0  0  0
   -3.3493   59.1256   80.1327 C   0  0  0  0  0  0  0  0  0  0  0  0
   -1.8795   60.9742   80.9765 C   0  0  0  0  0  0  0  0  0  0  0  0
   -2.2025   61.0752   82.3514 C   0  0  0  0  0  0  0  0  0  0  0  0
   -3.0179   60.3839   82.9498 O   0  0  0  0  0  0  0  0  0  0  0  0
   -1.4761   62.0721   82.9613 N   0  0  0  0  0  0  0  0  0  0  0  0
   -0.5407   62.8763   82.3182 C   0  0  0  0  0  0  0  0  0  0  0  0
   -0.2441   62.7684   81.0495 N   0  0  0  0  0  0  0  0  0  0  0  0
   -0.9554   61.7748   80.3776 C   0  0  0  0  0  0  0  0  0  0  0  0
   -1.6582   62.2112   83.9469 H   0  0  0  0  0  0  0  0  0  0  0  0
   -0.0676   61.9533   77.9323 C   0  0  0  0  0  0  0  0  0  0  0  0
    0.2001   64.4874   77.8914 C   0  0  0  0  0  0  0  0  0  0  0  0
   -0.5773   63.2849   77.3747 C   0  0  0  0  0  0  0  0  0  0  0  0
    2.3928   66.9228   82.3221 C   0  0  0  0  0  0  0  0  0  0  0  0
    1.6562   68.2256   82.0999 C   0  0  0  0  0  0  0  0  0  0  0  0
    0.5868   68.2917   81.2044 C   0  0  0  0  0  0  0  0  0  0  0  0
   -0.0759   69.5009   80.9931 C   0  0  0  0  0  0  0  0  0  0  0  0
    0.3224   70.6716   81.6625 C   0  0  0  0  0  0  0  0  0  0  0  0
    1.4180   70.6241   82.5466 C   0  0  0  0  0  0  0  0  0  0  0  0
    2.0611   69.3960   82.7662 C   0  0  0  0  0  0  0  0  0  0  0  0
   -0.4662   71.9058   81.3578 C   0  0  0  0  0  0  0  0  0  0  0  0
   -1.6233   72.0382   81.7566 O   0  0  0  0  0  0  0  0  0  0  0  0
    0.1405   72.8854   80.6101 N   0  0  0  0  0  0  0  0  0  0  0  0
   -0.6968   73.9382   80.1746 O   0  0  0  0  0  0  0  0  0  0  0  0
    0.9792   72.6975   80.0661 H   0  0  0  0  0  0  0  0  0  0  0  0
   -1.5512   73.7045   80.5998 H   0  0  0  0  0  0  0  0  0  0  0  0
    1.8020   71.7915   83.1589 O   0  0  0  0  0  0  0  0  0  0  0  0
    3.0178   72.3954   82.7222 C   0  0  0  0  0  0  0  0  0  0  0  0
   -0.7701   63.1362   85.2050 O   0  0  0  0  0  0  0  0  0  0  0  0
   -0.9313   63.2294   86.6229 C   0  0  0  0  0  0  0  0  0  0  0  0
   -2.3663   62.9230   87.0121 C   0  0  0  0  0  0  0  0  0  0  0  0
 20 21  1  0  0  0
 21 19  1  0  0  0
 19  7  1  0  0  0
  7  8  2  0  0  0
  8  9  1  0  0  0
  9 10  1  0  0  0
  9 11  1  0  0  0
 11 12  1  0  0  0
 12 13  2  0  0  0
 12 14  1  0  0  0
 14 15  1  0  0  0
 15  1  1  0  0  0
  1  2  1  0  0  0
  2  3  2  0  0  0
  3 22  1  0  0  0
 22 23  1  0  0  0
 23 24  1  0  0  0
 24 25  2  0  0  0
 25 26  1  0  0  0
 26 29  1  0  0  0
 29 30  2  0  0  0
 29 31  1  0  0  0
 31 32  1  0  0  0
 26 27  2  0  0  0
 27 35  1  0  0  0
 35 36  1  0  0  0
 27 28  1  0  0  0
  3  4  1  0  0  0
  4  5  2  0  0  0
  5  6  1  0  0  0
  6 37  1  0  0  0
 37 38  1  0  0  0
 38 39  1  0  0  0
 15 16  2  0  0  0
 16 17  1  0  0  0
 17  7  1  0  0  0
 17 11  2  0  0  0
  6  1  2  0  0  0
 28 23  2  0  0  0
 14 18  1  0  0  0
 31 33  1  0  0  0
 32 34  1  0  0  0
M  END
> <minimizedAffinity>
-10.46531

$$$$



 39 42  0  0  0  0  0  0  0  0999 V2000
   -0.0989   63.5489   83.6047 C   0  0  0  0  0  0  0  0  0  0  0  0
    0.9587   64.3569   83.1421 C   0  0  0  0  0  0  0  0  0  0  0  0
    1.6457   65.2324   83.9928 C   0  0  0  0  0  0  0  0  0  0  0  0
    1.2640   65.2939   85.3330 C   0  0  0  0  0  0  0  0  0  0  0  0
    0.2296   64.4852   85.8156 C   0  0  0  0  0  0  0  0  0  0  0  0
   -0.4538   63.6004   84.9693 C   0  0  0  0  0  0  0  0  0  0  0  0
   -1.5989   62.2537   79.0618 C   0  0  0  0  0  0  0  0  0  0  0  0
   -2.3562   61.2281   78.6278 N   0  0  0  0  0  0  0  0  0  0  0  0
   -2.6476   60.5327   79.7560 N   0  0  0  0  0  0  0  0  0  0  0  0
   -3.4621   59.3441   79.6795 C   0  0  0  0  0  0  0  0  0  0  0  0
   -2.1062   61.0824   80.8751 C   0  0  0  0  0  0  0  0  0  0  0  0
   -2.1662   60.6950   82.2357 C   0  0  0  0  0  0  0  0  0  0  0  0
   -2.7542   59.7154   82.6778 O   0  0  0  0  0  0  0  0  0  0  0  0
   -1.4693   61.5727   83.0342 N   0  0  0  0  0  0  0  0  0  0  0  0
   -0.7879   62.6936   82.5710 C   0  0  0  0  0  0  0  0  0  0  0  0
   -0.7320   63.0370   81.3108 N   0  0  0  0  0  0  0  0  0  0  0  0
   -1.4267   62.1843   80.4536 C   0  0  0  0  0  0  0  0  0  0  0  0
   -1.4728   61.3664   84.0248 H   0  0  0  0  0  0  0  0  0  0  0  0
   -1.0613   63.2654   78.1089 C   0  0  0  0  0  0  0  0  0  0  0  0
    1.0306   64.6731   78.4794 C   0  0  0  0  0  0  0  0  0  0  0  0
    0.4680   63.3210   78.0642 C   0  0  0  0  0  0  0  0  0  0  0  0
    2.7368   66.1263   83.4504 C   0  0  0  0  0  0  0  0  0  0  0  0
    2.2144   67.4439   82.9212 C   0  0  0  0  0  0  0  0  0  0  0  0
    2.6020   68.6488   83.5112 C   0  0  0  0  0  0  0  0  0  0  0  0
    2.1022   69.8581   83.0275 C   0  0  0  0  0  0  0  0  0  0  0  0
    1.1963   69.8891   81.9525 C   0  0  0  0  0  0  0  0  0  0  0  0
    0.7754   68.6788   81.3676 C   0  0  0  0  0  0  0  0  0  0  0  0
    1.3036   67.4712   81.8500 C   0  0  0  0  0  0  0  0  0  0  0  0
    0.7332   71.2442   81.5197 C   0  0  0  0  0  0  0  0  0  0  0  0
    1.5284   72.0881   81.1061 O   0  0  0  0  0  0  0  0  0  0  0  0
   -0.6095   71.5202   81.6065 N   0  0  0  0  0  0  0  0  0  0  0  0
   -0.9795   72.8664   81.3826 O   0  0  0  0  0  0  0  0  0  0  0  0
   -1.2353   70.9493   82.1696 H   0  0  0  0  0  0  0  0  0  0  0  0
   -0.1169   73.2760   81.1512 H   0  0  0  0  0  0  0  0  0  0  0  0
   -0.1349   68.7421   80.3417 O   0  0  0  0  0  0  0  0  0  0  0  0
   -0.8357   67.5459   80.0080 C   0  0  0  0  0  0  0  0  0  0  0  0
   -1.4826   62.7979   85.3924 O   0  0  0  0  0  0  0  0  0  0  0  0
   -1.4585   62.2627   86.7184 C   0  0  0  0  0  0  0  0  0  0  0  0
   -2.5426   62.9040   87.5659 C   0  0  0  0  0  0  0  0  0  0  0  0
 20 21  1  0  0  0
 21 19  1  0  0  0
 19  7  1  0  0  0
  7  8  2  0  0  0
  8  9  1  0  0  0
  9 10  1  0  0  0
  9 11  1  0  0  0
 11 12  1  0  0  0
 12 13  2  0  0  0
 12 14  1  0  0  0
 14 15  1  0  0  0
 15  1  1  0  0  0
  1  2  1  0  0  0
  2  3  2  0  0  0
  3 22  1  0  0  0
 22 23  1  0  0  0
 23 24  1  0  0  0
 24 25  2  0  0  0
 25 26  1  0  0  0
 26 29  1  0  0  0
 29 30  2  0  0  0
 29 31  1  0  0  0
 31 32  1  0  0  0
 26 27  2  0  0  0
 27 35  1  0  0  0
 35 36  1  0  0  0
 27 28  1  0  0  0
  3  4  1  0  0  0
  4  5  2  0  0  0
  5  6  1  0  0  0
  6 37  1  0  0  0
 37 38  1  0  0  0
 38 39  1  0  0  0
 15 16  2  0  0  0
 16 17  1  0  0  0
 17  7  1  0  0  0
 17 11  2  0  0  0
  6  1  2  0  0  0
 28 23  2  0  0  0
 14 18  1  0  0  0
 31 33  1  0  0  0
 32 34  1  0  0  0
M  END
> <minimizedAffinity>
-10.24561

$$$$



 39 42  0  0  0  0  0  0  0  0999 V2000
    1.0453   65.5258   82.9442 C   0  0  0  0  0  0  0  0  0  0  0  0
    0.8702   64.9130   81.6876 C   0  0  0  0  0  0  0  0  0  0  0  0
    1.1517   65.5865   80.4920 C   0  0  0  0  0  0  0  0  0  0  0  0
    1.6204   66.8985   80.5620 C   0  0  0  0  0  0  0  0  0  0  0  0
    1.8196   67.5172   81.8008 C   0  0  0  0  0  0  0  0  0  0  0  0
    1.5483   66.8429   82.9998 C   0  0  0  0  0  0  0  0  0  0  0  0
   -1.7520   62.3959   85.5794 C   0  0  0  0  0  0  0  0  0  0  0  0
   -1.6472   61.9519   86.8465 N   0  0  0  0  0  0  0  0  0  0  0  0
   -0.5233   62.5513   87.3143 N   0  0  0  0  0  0  0  0  0  0  0  0
   -0.0873   62.3082   88.6681 C   0  0  0  0  0  0  0  0  0  0  0  0
    0.0757   63.3520   86.3936 C   0  0  0  0  0  0  0  0  0  0  0  0
    1.2396   64.1555   86.4623 C   0  0  0  0  0  0  0  0  0  0  0  0
    1.9744   64.2728   87.4355 O   0  0  0  0  0  0  0  0  0  0  0  0
    1.4599   64.8148   85.2747 N   0  0  0  0  0  0  0  0  0  0  0  0
    0.6516   64.7066   84.1477 C   0  0  0  0  0  0  0  0  0  0  0  0
   -0.4165   63.9546   84.0928 N   0  0  0  0  0  0  0  0  0  0  0  0
   -0.6925   63.2649   85.2730 C   0  0  0  0  0  0  0  0  0  0  0  0
    2.2723   65.4176   85.2485 H   0  0  0  0  0  0  0  0  0  0  0  0
   -2.8754   61.9566   84.7046 C   0  0  0  0  0  0  0  0  0  0  0  0
   -3.2616   60.0794   83.0248 C   0  0  0  0  0  0  0  0  0  0  0  0
   -2.4212   61.2910   83.4029 C   0  0  0  0  0  0  0  0  0  0  0  0
    0.8978   64.9186   79.1603 C   0  0  0  0  0  0  0  0  0  0  0  0
   -0.0841   63.7712   79.2511 C   0  0  0  0  0  0  0  0  0  0  0  0
   -1.1064   63.7863   80.2023 C   0  0  0  0  0  0  0  0  0  0  0  0
   -1.9971   62.7162   80.2900 C   0  0  0  0  0  0  0  0  0  0  0  0
   -1.8789   61.6039   79.4380 C   0  0  0  0  0  0  0  0  0  0  0  0
   -0.8345   61.5638   78.4937 C   0  0  0  0  0  0  0  0  0  0  0  0
    0.0407   62.6573   78.4017 C   0  0  0  0  0  0  0  0  0  0  0  0
   -2.8941   60.5208   79.6234 C   0  0  0  0  0  0  0  0  0  0  0  0
   -4.0904   60.7825   79.7490 O   0  0  0  0  0  0  0  0  0  0  0  0
   -2.4468   59.2226   79.6574 N   0  0  0  0  0  0  0  0  0  0  0  0
   -3.4012   58.2496   80.0340 O   0  0  0  0  0  0  0  0  0  0  0  0
   -1.4658   59.0010   79.8103 H   0  0  0  0  0  0  0  0  0  0  0  0
   -4.2148   58.7923   80.1282 H   0  0  0  0  0  0  0  0  0  0  0  0
   -0.7273   60.4489   77.6995 O   0  0  0  0  0  0  0  0  0  0  0  0
   -0.1442   60.6133   76.4086 C   0  0  0  0  0  0  0  0  0  0  0  0
    1.7147   67.4113   84.2370 O   0  0  0  0  0  0  0  0  0  0  0  0
    2.8540   68.2397   84.4838 C   0  0  0  0  0  0  0  0  0  0  0  0
    4.0752   67.3850   84.7716 C   0  0  0  0  0  0  0  0  0  0  0  0
 20 21  1  0  0  0
 21 19  1  0  0  0
 19  7  1  0  0  0
  7  8  2  0  0  0
  8  9  1  0  0  0
  9 10  1  0  0  0
  9 11  1  0  0  0
 11 12  1  0  0  0
 12 13  2  0  0  0
 12 14  1  0  0  0
 14 15  1  0  0  0
 15  1  1  0  0  0
  1  2  1  0  0  0
  2  3  2  0  0  0
  3 22  1  0  0  0
 22 23  1  0  0  0
 23 24  1  0  0  0
 24 25  2  0  0  0
 25 26  1  0  0  0
 26 29  1  0  0  0
 29 30  2  0  0  0
 29 31  1  0  0  0
 31 32  1  0  0  0
 26 27  2  0  0  0
 27 35  1  0  0  0
 35 36  1  0  0  0
 27 28  1  0  0  0
  3  4  1  0  0  0
  4  5  2  0  0  0
  5  6  1  0  0  0
  6 37  1  0  0  0
 37 38  1  0  0  0
 38 39  1  0  0  0
 15 16  2  0  0  0
 16 17  1  0  0  0
 17  7  1  0  0  0
 17 11  2  0  0  0
  6  1  2  0  0  0
 28 23  2  0  0  0
 14 18  1  0  0  0
 31 33  1  0  0  0
 32 34  1  0  0  0
M  END
> <minimizedAffinity>
-10.21559

$$$$



 39 42  0  0  0  0  0  0  0  0999 V2000
    0.1504   64.2735   84.5600 C   0  0  0  0  0  0  0  0  0  0  0  0
   -0.7254   64.3297   83.4577 C   0  0  0  0  0  0  0  0  0  0  0  0
   -1.8136   63.4564   83.3340 C   0  0  0  0  0  0  0  0  0  0  0  0
   -2.0262   62.5120   84.3383 C   0  0  0  0  0  0  0  0  0  0  0  0
   -1.1793   62.4536   85.4503 C   0  0  0  0  0  0  0  0  0  0  0  0
   -0.0949   63.3326   85.5825 C   0  0  0  0  0  0  0  0  0  0  0  0
    2.6375   68.3521   83.2392 C   0  0  0  0  0  0  0  0  0  0  0  0
    3.8795   68.7791   83.5377 N   0  0  0  0  0  0  0  0  0  0  0  0
    4.3708   67.8166   84.3584 N   0  0  0  0  0  0  0  0  0  0  0  0
    5.7077   67.9352   84.8882 C   0  0  0  0  0  0  0  0  0  0  0  0
    3.4890   66.8067   84.5824 C   0  0  0  0  0  0  0  0  0  0  0  0
    3.5921   65.6227   85.3521 C   0  0  0  0  0  0  0  0  0  0  0  0
    4.5657   65.2771   86.0104 O   0  0  0  0  0  0  0  0  0  0  0  0
    2.4388   64.8762   85.2736 N   0  0  0  0  0  0  0  0  0  0  0  0
    1.3125   65.2347   84.5398 C   0  0  0  0  0  0  0  0  0  0  0  0
    1.2253   66.3351   83.8394 N   0  0  0  0  0  0  0  0  0  0  0  0
    2.3700   67.1306   83.8779 C   0  0  0  0  0  0  0  0  0  0  0  0
    2.4388   64.0077   85.7928 H   0  0  0  0  0  0  0  0  0  0  0  0
    1.7480   69.1482   82.3474 C   0  0  0  0  0  0  0  0  0  0  0  0
    0.2081   67.9117   80.7365 C   0  0  0  0  0  0  0  0  0  0  0  0
    1.5750   68.5466   80.9502 C   0  0  0  0  0  0  0  0  0  0  0  0
   -2.6989   63.5068   82.1102 C   0  0  0  0  0  0  0  0  0  0  0  0
   -2.2809   62.5263   81.0364 C   0  0  0  0  0  0  0  0  0  0  0  0
   -2.9407   61.3035   80.8970 C   0  0  0  0  0  0  0  0  0  0  0  0
   -2.5377   60.3984   79.9150 C   0  0  0  0  0  0  0  0  0  0  0  0
   -1.4607   60.6900   79.0593 C   0  0  0  0  0  0  0  0  0  0  0  0
   -0.7688   61.9079   79.2088 C   0  0  0  0  0  0  0  0  0  0  0  0
   -1.1993   62.8184   80.1863 C   0  0  0  0  0  0  0  0  0  0  0  0
   -1.1238   59.6445   78.0437 C   0  0  0  0  0  0  0  0  0  0  0  0
   -1.7747   58.6029   77.9604 O   0  0  0  0  0  0  0  0  0  0  0  0
   -0.0575   59.8806   77.2108 N   0  0  0  0  0  0  0  0  0  0  0  0
    0.3524   58.7915   76.4076 O   0  0  0  0  0  0  0  0  0  0  0  0
    0.6356   60.5945   77.4221 H   0  0  0  0  0  0  0  0  0  0  0  0
   -0.3200   58.1115   76.6328 H   0  0  0  0  0  0  0  0  0  0  0  0
    0.2988   62.1476   78.3793 O   0  0  0  0  0  0  0  0  0  0  0  0
    0.4930   63.4854   77.9255 C   0  0  0  0  0  0  0  0  0  0  0  0
    0.7704   63.3054   86.6464 O   0  0  0  0  0  0  0  0  0  0  0  0
    0.3168   63.7317   87.9339 C   0  0  0  0  0  0  0  0  0  0  0  0
   -0.0215   62.5305   88.7985 C   0  0  0  0  0  0  0  0  0  0  0  0
 20 21  1  0  0  0
 21 19  1  0  0  0
 19  7  1  0  0  0
  7  8  2  0  0  0
  8  9  1  0  0  0
  9 10  1  0  0  0
  9 11  1  0  0  0
 11 12  1  0  0  0
 12 13  2  0  0  0
 12 14  1  0  0  0
 14 15  1  0  0  0
 15  1  1  0  0  0
  1  2  1  0  0  0
  2  3  2  0  0  0
  3 22  1  0  0  0
 22 23  1  0  0  0
 23 24  1  0  0  0
 24 25  2  0  0  0
 25 26  1  0  0  0
 26 29  1  0  0  0
 29 30  2  0  0  0
 29 31  1  0  0  0
 31 32  1  0  0  0
 26 27  2  0  0  0
 27 35  1  0  0  0
 35 36  1  0  0  0
 27 28  1  0  0  0
  3  4  1  0  0  0
  4  5  2  0  0  0
  5  6  1  0  0  0
  6 37  1  0  0  0
 37 38  1  0  0  0
 38 39  1  0  0  0
 15 16  2  0  0  0
 16 17  1  0  0  0
 17  7  1  0  0  0
 17 11  2  0  0  0
  6  1  2  0  0  0
 28 23  2  0  0  0
 14 18  1  0  0  0
 31 33  1  0  0  0
 32 34  1  0  0  0
M  END
> <minimizedAffinity>
-10.14959

$$$$



 39 42  0  0  0  0  0  0  0  0999 V2000
    1.8356   66.5162   83.7633 C   0  0  0  0  0  0  0  0  0  0  0  0
    1.2352   67.1317   82.6471 C   0  0  0  0  0  0  0  0  0  0  0  0
    1.8221   68.2295   82.0046 C   0  0  0  0  0  0  0  0  0  0  0  0
    3.0358   68.7146   82.4920 C   0  0  0  0  0  0  0  0  0  0  0  0
    3.6573   68.1046   83.5868 C   0  0  0  0  0  0  0  0  0  0  0  0
    3.0777   66.9995   84.2263 C   0  0  0  0  0  0  0  0  0  0  0  0
   -1.0989   62.5228   83.8417 C   0  0  0  0  0  0  0  0  0  0  0  0
   -1.5826   61.7874   84.8610 N   0  0  0  0  0  0  0  0  0  0  0  0
   -1.0599   62.3734   85.9676 N   0  0  0  0  0  0  0  0  0  0  0  0
   -1.3681   61.8471   87.2754 C   0  0  0  0  0  0  0  0  0  0  0  0
   -0.2728   63.4441   85.6818 C   0  0  0  0  0  0  0  0  0  0  0  0
    0.4465   64.3316   86.5184 C   0  0  0  0  0  0  0  0  0  0  0  0
    0.4982   64.2820   87.7414 O   0  0  0  0  0  0  0  0  0  0  0  0
    1.1012   65.2908   85.7802 N   0  0  0  0  0  0  0  0  0  0  0  0
    1.0692   65.3796   84.3923 C   0  0  0  0  0  0  0  0  0  0  0  0
    0.4084   64.5491   83.6290 N   0  0  0  0  0  0  0  0  0  0  0  0
   -0.2805   63.5562   84.3250 C   0  0  0  0  0  0  0  0  0  0  0  0
    1.6327   65.9693   86.3103 H   0  0  0  0  0  0  0  0  0  0  0  0
   -1.4427   62.1937   82.4296 C   0  0  0  0  0  0  0  0  0  0  0  0
    0.8666   61.3365   81.7760 C   0  0  0  0  0  0  0  0  0  0  0  0
   -0.6244   61.0382   81.8475 C   0  0  0  0  0  0  0  0  0  0  0  0
    1.1221   68.9009   80.8458 C   0  0  0  0  0  0  0  0  0  0  0  0
    0.9032   70.3820   81.0641 C   0  0  0  0  0  0  0  0  0  0  0  0
   -0.3165   70.8539   81.5537 C   0  0  0  0  0  0  0  0  0  0  0  0
   -0.5155   72.2226   81.7360 C   0  0  0  0  0  0  0  0  0  0  0  0
    0.4946   73.1493   81.4227 C   0  0  0  0  0  0  0  0  0  0  0  0
    1.7190   72.6879   80.9011 C   0  0  0  0  0  0  0  0  0  0  0  0
    1.9132   71.3067   80.7438 C   0  0  0  0  0  0  0  0  0  0  0  0
    0.1664   74.5887   81.6642 C   0  0  0  0  0  0  0  0  0  0  0  0
   -0.7625   75.1392   81.0729 O   0  0  0  0  0  0  0  0  0  0  0  0
    0.9416   75.2805   82.5626 N   0  0  0  0  0  0  0  0  0  0  0  0
    0.7317   76.6779   82.6127 O   0  0  0  0  0  0  0  0  0  0  0  0
    1.8485   74.9314   82.8632 H   0  0  0  0  0  0  0  0  0  0  0  0
   -0.0114   76.7923   81.9802 H   0  0  0  0  0  0  0  0  0  0  0  0
    2.6720   73.6209   80.5747 O   0  0  0  0  0  0  0  0  0  0  0  0
    3.9984   73.4018   81.0500 C   0  0  0  0  0  0  0  0  0  0  0  0
    3.6415   66.3766   85.3105 O   0  0  0  0  0  0  0  0  0  0  0  0
    4.8773   65.6738   85.1549 C   0  0  0  0  0  0  0  0  0  0  0  0
    5.2778   65.0149   86.4626 C   0  0  0  0  0  0  0  0  0  0  0  0
 20 21  1  0  0  0
 21 19  1  0  0  0
 19  7  1  0  0  0
  7  8  2  0  0  0
  8  9  1  0  0  0
  9 10  1  0  0  0
  9 11  1  0  0  0
 11 12  1  0  0  0
 12 13  2  0  0  0
 12 14  1  0  0  0
 14 15  1  0  0  0
 15  1  1  0  0  0
  1  2  1  0  0  0
  2  3  2  0  0  0
  3 22  1  0  0  0
 22 23  1  0  0  0
 23 24  1  0  0  0
 24 25  2  0  0  0
 25 26  1  0  0  0
 26 29  1  0  0  0
 29 30  2  0  0  0
 29 31  1  0  0  0
 31 32  1  0  0  0
 26 27  2  0  0  0
 27 35  1  0  0  0
 35 36  1  0  0  0
 27 28  1  0  0  0
  3  4  1  0  0  0
  4  5  2  0  0  0
  5  6  1  0  0  0
  6 37  1  0  0  0
 37 38  1  0  0  0
 38 39  1  0  0  0
 15 16  2  0  0  0
 16 17  1  0  0  0
 17  7  1  0  0  0
 17 11  2  0  0  0
  6  1  2  0  0  0
 28 23  2  0  0  0
 14 18  1  0  0  0
 31 33  1  0  0  0
 32 34  1  0  0  0
M  END
> <minimizedAffinity>
-10.11156

$$$$



 39 42  0  0  0  0  0  0  0  0999 V2000
    2.1407   66.2661   84.2475 C   0  0  0  0  0  0  0  0  0  0  0  0
    1.6203   67.1466   83.2783 C   0  0  0  0  0  0  0  0  0  0  0  0
    2.3809   68.1987   82.7522 C   0  0  0  0  0  0  0  0  0  0  0  0
    3.6889   68.3661   83.2069 C   0  0  0  0  0  0  0  0  0  0  0  0
    4.2301   67.4903   84.1541 C   0  0  0  0  0  0  0  0  0  0  0  0
    3.4751   66.4301   84.6756 C   0  0  0  0  0  0  0  0  0  0  0  0
   -1.1702   62.5912   83.9340 C   0  0  0  0  0  0  0  0  0  0  0  0
   -1.8403   61.9072   84.8809 N   0  0  0  0  0  0  0  0  0  0  0  0
   -1.3930   62.4352   86.0481 N   0  0  0  0  0  0  0  0  0  0  0  0
   -1.9022   61.9408   87.3045 C   0  0  0  0  0  0  0  0  0  0  0  0
   -0.4744   63.4209   85.8692 C   0  0  0  0  0  0  0  0  0  0  0  0
    0.2288   64.2294   86.7948 C   0  0  0  0  0  0  0  0  0  0  0  0
    0.1331   64.1728   88.0148 O   0  0  0  0  0  0  0  0  0  0  0  0
    1.0579   65.1183   86.1498 N   0  0  0  0  0  0  0  0  0  0  0  0
    1.1961   65.2122   84.7687 C   0  0  0  0  0  0  0  0  0  0  0  0
    0.5479   64.4543   83.9234 N   0  0  0  0  0  0  0  0  0  0  0  0
   -0.3134   63.5354   84.5221 C   0  0  0  0  0  0  0  0  0  0  0  0
    1.5900   65.7385   86.7466 H   0  0  0  0  0  0  0  0  0  0  0  0
   -1.3794   62.3011   82.4875 C   0  0  0  0  0  0  0  0  0  0  0  0
    0.9105   61.3390   81.9166 C   0  0  0  0  0  0  0  0  0  0  0  0
   -0.5902   61.0916   81.9793 C   0  0  0  0  0  0  0  0  0  0  0  0
    1.7720   69.1588   81.7565 C   0  0  0  0  0  0  0  0  0  0  0  0
    2.3807   70.5424   81.8198 C   0  0  0  0  0  0  0  0  0  0  0  0
    2.0803   71.4016   82.8789 C   0  0  0  0  0  0  0  0  0  0  0  0
    2.6329   72.6818   82.9205 C   0  0  0  0  0  0  0  0  0  0  0  0
    3.4876   73.1351   81.9001 C   0  0  0  0  0  0  0  0  0  0  0  0
    3.7755   72.2883   80.8119 C   0  0  0  0  0  0  0  0  0  0  0  0
    3.2303   70.9950   80.7945 C   0  0  0  0  0  0  0  0  0  0  0  0
    4.0216   74.5238   82.0560 C   0  0  0  0  0  0  0  0  0  0  0  0
    3.2674   75.4955   82.1055 O   0  0  0  0  0  0  0  0  0  0  0  0
    5.3839   74.6813   82.1341 N   0  0  0  0  0  0  0  0  0  0  0  0
    5.8564   76.0128   82.0772 O   0  0  0  0  0  0  0  0  0  0  0  0
    6.0227   73.9442   81.8455 H   0  0  0  0  0  0  0  0  0  0  0  0
    5.0171   76.5228   82.0490 H   0  0  0  0  0  0  0  0  0  0  0  0
    4.5870   72.7732   79.8161 O   0  0  0  0  0  0  0  0  0  0  0  0
    5.8194   72.0951   79.5819 C   0  0  0  0  0  0  0  0  0  0  0  0
    3.9567   65.5541   85.6150 O   0  0  0  0  0  0  0  0  0  0  0  0
    5.3693   65.3952   85.7707 C   0  0  0  0  0  0  0  0  0  0  0  0
    5.7518   65.4841   87.2372 C   0  0  0  0  0  0  0  0  0  0  0  0
 20 21  1  0  0  0
 21 19  1  0  0  0
 19  7  1  0  0  0
  7  8  2  0  0  0
  8  9  1  0  0  0
  9 10  1  0  0  0
  9 11  1  0  0  0
 11 12  1  0  0  0
 12 13  2  0  0  0
 12 14  1  0  0  0
 14 15  1  0  0  0
 15  1  1  0  0  0
  1  2  1  0  0  0
  2  3  2  0  0  0
  3 22  1  0  0  0
 22 23  1  0  0  0
 23 24  1  0  0  0
 24 25  2  0  0  0
 25 26  1  0  0  0
 26 29  1  0  0  0
 29 30  2  0  0  0
 29 31  1  0  0  0
 31 32  1  0  0  0
 26 27  2  0  0  0
 27 35  1  0  0  0
 35 36  1  0  0  0
 27 28  1  0  0  0
  3  4  1  0  0  0
  4  5  2  0  0  0
  5  6  1  0  0  0
  6 37  1  0  0  0
 37 38  1  0  0  0
 38 39  1  0  0  0
 15 16  2  0  0  0
 16 17  1  0  0  0
 17  7  1  0  0  0
 17 11  2  0  0  0
  6  1  2  0  0  0
 28 23  2  0  0  0
 14 18  1  0  0  0
 31 33  1  0  0  0
 32 34  1  0  0  0
M  END
> <minimizedAffinity>
-10.03286

$$$$
