
     RDKit          3D

 60 64  0  0  0  0  0  0  0  0999 V2000
    5.6989    2.0486   -3.2290 C   0  0  0  0  0  0  0  0  0  0  0  0
    6.0590    1.7769   -1.8397 N   0  0  0  0  0  0  0  0  0  0  0  0
    5.5971    0.4448   -1.4007 C   0  0  0  0  0  0  0  0  0  0  0  0
    4.0796    0.3237   -1.1443 C   0  0  0  0  0  0  0  0  0  0  0  0
    3.5558    1.3995   -0.2468 N   0  0  0  0  0  0  0  0  0  0  0  0
    3.6669    1.1254    1.4310 S   0  0  0  0  0  0  0  0  0  0  0  0
    5.0184    0.7059    1.7311 O   0  0  0  0  0  0  0  0  0  0  0  0
    3.0617    2.2480    2.1154 O   0  0  0  0  0  0  0  0  0  0  0  0
    2.5864   -0.2619    1.6663 C   0  0  0  0  0  0  0  0  0  0  0  0
    3.0843   -1.4649    2.1622 C   0  0  0  0  0  0  0  0  0  0  0  0
    2.2120   -2.5361    2.3230 C   0  0  0  0  0  0  0  0  0  0  0  0
    0.8573   -2.3985    1.9917 C   0  0  0  0  0  0  0  0  0  0  0  0
    0.3412   -1.1929    1.5007 C   0  0  0  0  0  0  0  0  0  0  0  0
   -0.9973   -1.0019    1.1510 N   0  0  0  0  0  0  0  0  0  0  0  0
   -2.1190   -1.8258    1.0805 C   0  0  0  0  0  0  0  0  0  0  0  0
   -3.2389   -1.1680    0.7053 N   0  0  0  0  0  0  0  0  0  0  0  0
   -4.4180   -1.8240    0.5460 C   0  0  0  0  0  0  0  0  0  0  0  0
   -5.5721   -1.1529    0.1235 N   0  0  0  0  0  0  0  0  0  0  0  0
   -5.7026    0.2248    0.5723 C   0  0  0  0  0  0  0  0  0  0  0  0
   -4.9743    1.2036   -0.3228 C   0  0  0  0  0  0  0  0  0  0  0  0
   -5.1348    1.1668   -1.7161 C   0  0  0  0  0  0  0  0  0  0  0  0
   -4.4822    2.0925   -2.5322 C   0  0  0  0  0  0  0  0  0  0  0  0
   -3.6671    3.0702   -1.9651 C   0  0  0  0  0  0  0  0  0  0  0  0
   -3.5028    3.1228   -0.5823 C   0  0  0  0  0  0  0  0  0  0  0  0
   -4.1546    2.1969    0.2349 C   0  0  0  0  0  0  0  0  0  0  0  0
   -4.4253   -3.2014    0.8136 C   0  0  0  0  0  0  0  0  0  0  0  0
   -5.4212   -4.1583    0.7850 N   0  0  0  0  0  0  0  0  0  0  0  0
   -4.8203   -5.2756    1.1385 C   0  0  0  0  0  0  0  0  0  0  0  0
   -3.4908   -5.0801    1.4005 N   0  0  0  0  0  0  0  0  0  0  0  0
   -3.2236   -3.7570    1.2031 C   0  0  0  0  0  0  0  0  0  0  0  0
   -2.0467   -3.1410    1.3550 N   0  0  0  0  0  0  0  0  0  0  0  0
    1.2308   -0.1206    1.3442 C   0  0  0  0  0  0  0  0  0  0  0  0
    4.0101    2.7511   -0.6939 C   0  0  0  0  0  0  0  0  0  0  0  0
    5.5331    2.8058   -0.9188 C   0  0  0  0  0  0  0  0  0  0  0  0
    6.1579    1.3065   -3.8919 H   0  0  0  0  0  0  0  0  0  0  0  0
    4.6194    2.0402   -3.4085 H   0  0  0  0  0  0  0  0  0  0  0  0
    6.0882    3.0245   -3.5398 H   0  0  0  0  0  0  0  0  0  0  0  0
    5.9009   -0.3147   -2.1320 H   0  0  0  0  0  0  0  0  0  0  0  0
    6.1409    0.1891   -0.4841 H   0  0  0  0  0  0  0  0  0  0  0  0
    3.5308    0.3885   -2.0918 H   0  0  0  0  0  0  0  0  0  0  0  0
    3.8524   -0.6663   -0.7373 H   0  0  0  0  0  0  0  0  0  0  0  0
    4.1339   -1.5743    2.4238 H   0  0  0  0  0  0  0  0  0  0  0  0
    2.5781   -3.4840    2.7101 H   0  0  0  0  0  0  0  0  0  0  0  0
    0.2119   -3.2594    2.1381 H   0  0  0  0  0  0  0  0  0  0  0  0
   -1.2733   -0.0765    0.8487 H   0  0  0  0  0  0  0  0  0  0  0  0
   -6.3836   -1.7369    0.3145 H   0  0  0  0  0  0  0  0  0  0  0  0
   -6.7657    0.4960    0.5484 H   0  0  0  0  0  0  0  0  0  0  0  0
   -5.3892    0.3278    1.6195 H   0  0  0  0  0  0  0  0  0  0  0  0
   -5.7626    0.4023   -2.1689 H   0  0  0  0  0  0  0  0  0  0  0  0
   -4.6092    2.0468   -3.6104 H   0  0  0  0  0  0  0  0  0  0  0  0
   -3.1594    3.7900   -2.6013 H   0  0  0  0  0  0  0  0  0  0  0  0
   -2.8676    3.8851   -0.1392 H   0  0  0  0  0  0  0  0  0  0  0  0
   -4.0139    2.2496    1.3120 H   0  0  0  0  0  0  0  0  0  0  0  0
   -5.2890   -6.2476    1.2227 H   0  0  0  0  0  0  0  0  0  0  0  0
   -2.8184   -5.7747    1.6882 H   0  0  0  0  0  0  0  0  0  0  0  0
    0.8743    0.8355    0.9651 H   0  0  0  0  0  0  0  0  0  0  0  0
    3.7117    3.5184    0.0280 H   0  0  0  0  0  0  0  0  0  0  0  0
    3.4754    2.9952   -1.6197 H   0  0  0  0  0  0  0  0  0  0  0  0
    5.8131    3.8038   -1.2778 H   0  0  0  0  0  0  0  0  0  0  0  0
    6.0425    2.6888    0.0459 H   0  0  0  0  0  0  0  0  0  0  0  0
  1  2  1  0
  2  3  1  0
  3  4  1  0
  4  5  1  0
  5  6  1  0
  6  7  2  0
  6  8  2  0
  6  9  1  0
  9 10  2  0
 10 11  1  0
 11 12  2  0
 12 13  1  0
 13 14  1  0
 14 15  1  0
 15 16  2  0
 16 17  1  0
 17 18  1  0
 18 19  1  0
 19 20  1  0
 20 21  2  0
 21 22  1  0
 22 23  2  0
 23 24  1  0
 24 25  2  0
 17 26  2  0
 26 27  1  0
 27 28  2  0
 28 29  1  0
 29 30  1  0
 30 31  2  0
 13 32  2  0
  5 33  1  0
 33 34  1  0
 34  2  1  0
 32  9  1  0
 31 15  1  0
 25 20  1  0
 30 26  1  0
  1 35  1  0
  1 36  1  0
  1 37  1  0
  3 38  1  0
  3 39  1  0
  4 40  1  0
  4 41  1  0
 10 42  1  0
 11 43  1  0
 12 44  1  0
 14 45  1  0
 18 46  1  0
 19 47  1  0
 19 48  1  0
 21 49  1  0
 22 50  1  0
 23 51  1  0
 24 52  1  0
 25 53  1  0
 28 54  1  0
 29 55  1  0
 32 56  1  0
 33 57  1  0
 33 58  1  0
 34 59  1  0
 34 60  1  0
M  END
$$$$
