
     RDKit          3D

 52 56  0  0  0  0  0  0  0  0999 V2000
    5.3479    2.5412   -1.4926 C   0  0  0  0  0  0  0  0  0  0  0  0
    4.6959    1.5117   -0.5828 C   0  0  0  0  0  0  0  0  0  0  0  0
    4.2164    2.1462    0.7242 C   0  0  0  0  0  0  0  0  0  0  0  0
    3.6277    1.1249    1.7016 C   0  0  0  0  0  0  0  0  0  0  0  0
    2.4007    0.5279    1.2150 N   0  0  0  0  0  0  0  0  0  0  0  0
    2.3002   -0.7286    0.6775 C   0  0  0  0  0  0  0  0  0  0  0  0
    3.2088   -1.5356    0.5341 O   0  0  0  0  0  0  0  0  0  0  0  0
    0.8576   -0.9675    0.2600 C   0  0  1  0  0  0  0  0  0  0  0  0
    0.2493   -2.2130    0.9131 C   0  0  0  0  0  0  0  0  0  0  0  0
   -1.2378   -2.0649    0.9658 C   0  0  0  0  0  0  0  0  0  0  0  0
   -1.8506   -0.8268    0.8596 C   0  0  0  0  0  0  0  0  0  0  0  0
   -3.2022   -1.0148    0.9740 N   0  0  0  0  0  0  0  0  0  0  0  0
   -3.4769   -2.3570    1.1283 C   0  0  0  0  0  0  0  0  0  0  0  0
   -4.7065   -3.0116    1.2681 C   0  0  0  0  0  0  0  0  0  0  0  0
   -4.6882   -4.4015    1.4176 C   0  0  0  0  0  0  0  0  0  0  0  0
   -3.4872   -5.1071    1.4282 C   0  0  0  0  0  0  0  0  0  0  0  0
   -2.2653   -4.4392    1.2873 C   0  0  0  0  0  0  0  0  0  0  0  0
   -2.2572   -3.0395    1.1318 C   0  0  0  0  0  0  0  0  0  0  0  0
   -1.1841    0.5067    0.6611 C   0  0  2  0  0  0  0  0  0  0  0  0
   -1.5468    1.2082   -0.6418 C   0  0  0  0  0  0  0  0  0  0  0  0
   -1.5624    2.6136   -0.6790 C   0  0  0  0  0  0  0  0  0  0  0  0
   -1.8620    3.2978   -1.8605 C   0  0  0  0  0  0  0  0  0  0  0  0
   -2.1426    2.5872   -3.0298 C   0  0  0  0  0  0  0  0  0  0  0  0
   -2.4499    3.2870   -4.2426 C   0  0  0  0  0  0  0  0  0  0  0  0
   -2.7017    3.8518   -5.2247 N   0  0  0  0  0  0  0  0  0  0  0  0
   -2.1155    1.1903   -3.0125 C   0  0  0  0  0  0  0  0  0  0  0  0
   -1.8137    0.5070   -1.8303 C   0  0  0  0  0  0  0  0  0  0  0  0
    0.2513    0.2702    0.7317 N   0  0  0  0  0  0  0  0  0  0  0  0
    1.1761    1.1359    1.2683 C   0  0  0  0  0  0  0  0  0  0  0  0
    0.9298    2.2411    1.7251 O   0  0  0  0  0  0  0  0  0  0  0  0
    5.6817    2.0685   -2.4216 H   0  0  0  0  0  0  0  0  0  0  0  0
    4.6434    3.3383   -1.7508 H   0  0  0  0  0  0  0  0  0  0  0  0
    6.2196    2.9952   -1.0105 H   0  0  0  0  0  0  0  0  0  0  0  0
    5.4164    0.7142   -0.3678 H   0  0  0  0  0  0  0  0  0  0  0  0
    3.8534    1.0560   -1.1146 H   0  0  0  0  0  0  0  0  0  0  0  0
    5.0630    2.6430    1.2138 H   0  0  0  0  0  0  0  0  0  0  0  0
    3.4747    2.9232    0.5028 H   0  0  0  0  0  0  0  0  0  0  0  0
    3.4009    1.6324    2.6464 H   0  0  0  0  0  0  0  0  0  0  0  0
    4.3588    0.3359    1.9094 H   0  0  0  0  0  0  0  0  0  0  0  0
    0.7887   -0.9911   -0.8332 H   0  0  0  0  0  0  0  0  0  0  0  0
    0.6254   -2.3387    1.9363 H   0  0  0  0  0  0  0  0  0  0  0  0
    0.5365   -3.1083    0.3506 H   0  0  0  0  0  0  0  0  0  0  0  0
   -3.9043   -0.2880    0.9327 H   0  0  0  0  0  0  0  0  0  0  0  0
   -5.6448   -2.4665    1.2640 H   0  0  0  0  0  0  0  0  0  0  0  0
   -5.6270   -4.9393    1.5296 H   0  0  0  0  0  0  0  0  0  0  0  0
   -3.4967   -6.1877    1.5480 H   0  0  0  0  0  0  0  0  0  0  0  0
   -1.3351   -4.9993    1.2981 H   0  0  0  0  0  0  0  0  0  0  0  0
   -1.4645    1.1563    1.5009 H   0  0  0  0  0  0  0  0  0  0  0  0
   -1.3242    3.1869    0.2174 H   0  0  0  0  0  0  0  0  0  0  0  0
   -1.8655    4.3865   -1.8596 H   0  0  0  0  0  0  0  0  0  0  0  0
   -2.3237    0.6227   -3.9180 H   0  0  0  0  0  0  0  0  0  0  0  0
   -1.7879   -0.5816   -1.8498 H   0  0  0  0  0  0  0  0  0  0  0  0
  1  2  1  0
  2  3  1  0
  3  4  1  0
  4  5  1  0
  5  6  1  0
  6  7  2  0
  6  8  1  0
  8  9  1  0
  9 10  1  0
 10 11  2  0
 11 12  1  0
 12 13  1  0
 13 14  2  0
 14 15  1  0
 15 16  2  0
 16 17  1  0
 17 18  2  0
 11 19  1  0
 19 20  1  0
 20 21  1  0
 21 22  2  0
 22 23  1  0
 23 24  1  0
 24 25  3  0
 23 26  2  0
 26 27  1  0
 19 28  1  0
 28 29  1  0
 29 30  2  0
 29  5  1  0
 28  8  1  0
 18 10  1  0
 27 20  2  0
 18 13  1  0
  1 31  1  0
  1 32  1  0
  1 33  1  0
  2 34  1  0
  2 35  1  0
  3 36  1  0
  3 37  1  0
  4 38  1  0
  4 39  1  0
  8 40  1  6
  9 41  1  0
  9 42  1  0
 12 43  1  0
 14 44  1  0
 15 45  1  0
 16 46  1  0
 17 47  1  0
 19 48  1  1
 21 49  1  0
 22 50  1  0
 26 51  1  0
 27 52  1  0
M  END
$$$$
