


 35 39  0  0  0  0  0  0  0  0999 V2000
    1.6426   66.7386   83.4060 C   0  0  0  0  0  0  0  0  0  0  0  0
    1.8570   67.3516   82.1664 C   0  0  0  0  0  0  0  0  0  0  0  0
    1.4213   66.7460   80.9827 C   0  0  0  0  0  0  0  0  0  0  0  0
    0.7625   65.5128   80.9991 C   0  0  0  0  0  0  0  0  0  0  0  0
    0.5465   64.9004   82.2401 C   0  0  0  0  0  0  0  0  0  0  0  0
    0.9799   65.4931   83.4465 C   0  0  0  0  0  0  0  0  0  0  0  0
    0.6890   64.7296   84.7126 C   0  0  0  0  0  0  0  0  0  0  0  0
   -0.4411   64.0837   84.8488 N   0  0  0  0  0  0  0  0  0  0  0  0
   -0.5695   63.4427   86.0372 C   0  0  0  0  0  0  0  0  0  0  0  0
    0.3294   63.4035   87.0732 C   0  0  0  0  0  0  0  0  0  0  0  0
   -0.2661   62.6178   88.0762 C   0  0  0  0  0  0  0  0  0  0  0  0
    0.2868   62.2631   89.4045 C   0  0  0  0  0  0  0  0  0  0  0  0
   -1.4805   62.1848   87.6970 N   0  0  0  0  0  0  0  0  0  0  0  0
   -1.6390   62.7001   86.4526 N   0  0  0  0  0  0  0  0  0  0  0  0
    1.5677   64.1077   86.9297 C   0  0  0  0  0  0  0  0  0  0  0  0
    2.4482   64.1519   87.7806 O   0  0  0  0  0  0  0  0  0  0  0  0
    1.6654   64.7461   85.7081 N   0  0  0  0  0  0  0  0  0  0  0  0
    2.5217   65.2620   85.5543 H   0  0  0  0  0  0  0  0  0  0  0  0
   -2.8567   62.4385   85.7135 C   0  0  0  0  0  0  0  0  0  0  0  0
   -2.5826   61.7768   84.3751 C   0  0  0  0  0  0  0  0  0  0  0  0
    0.3242   64.9169   79.7364 C   0  0  0  0  0  0  0  0  0  0  0  0
    0.1264   65.6055   78.5569 C   0  0  0  0  0  0  0  0  0  0  0  0
   -0.3870   64.5342   77.3242 S   0  0  0  0  0  0  0  0  0  0  0  0
   -0.3254   63.2157   78.4339 C   0  0  0  0  0  0  0  0  0  0  0  0
    0.0581   63.5569   79.6511 N   0  0  0  0  0  0  0  0  0  0  0  0
   -0.6725   61.8331   78.0397 C   0  0  0  0  0  0  0  0  0  0  0  0
   -0.1679   61.2005   76.8910 C   0  0  0  0  0  0  0  0  0  0  0  0
   -0.5347   59.8884   76.5694 C   0  0  0  0  0  0  0  0  0  0  0  0
   -1.4118   59.1845   77.3898 C   0  0  0  0  0  0  0  0  0  0  0  0
   -1.9255   59.7907   78.5317 C   0  0  0  0  0  0  0  0  0  0  0  0
   -1.5585   61.1012   78.8514 C   0  0  0  0  0  0  0  0  0  0  0  0
    2.0501   67.2868   84.5958 O   0  0  0  0  0  0  0  0  0  0  0  0
    3.2541   68.0596   84.6112 C   0  0  0  0  0  0  0  0  0  0  0  0
    5.2696   67.7614   86.0977 C   0  0  0  0  0  0  0  0  0  0  0  0
    4.3902   67.1322   85.0325 C   0  0  0  0  0  0  0  0  0  0  0  0
 34 35  1  0  0  0
 35 33  1  0  0  0
 33 32  1  0  0  0
 32  1  1  0  0  0
  1  2  1  0  0  0
  2  3  2  0  0  0
  3  4  1  0  0  0
  4 21  1  0  0  0
 21 22  2  0  0  0
 22 23  1  0  0  0
 23 24  1  0  0  0
 24 26  1  0  0  0
 26 27  2  0  0  0
 27 28  1  0  0  0
 28 29  2  0  0  0
 29 30  1  0  0  0
 30 31  2  0  0  0
 24 25  2  0  0  0
  4  5  2  0  0  0
  5  6  1  0  0  0
  6  7  1  0  0  0
  7  8  2  0  0  0
  8  9  1  0  0  0
  9 10  2  0  0  0
 10 11  1  0  0  0
 11 12  1  0  0  0
 11 13  2  0  0  0
 13 14  1  0  0  0
 14 19  1  0  0  0
 19 20  1  0  0  0
 10 15  1  0  0  0
 15 16  2  0  0  0
 15 17  1  0  0  0
  6  1  2  0  0  0
 17  7  1  0  0  0
 25 21  1  0  0  0
 14  9  1  0  0  0
 31 26  1  0  0  0
 17 18  1  0  0  0
M  END
> <minimizedAffinity>
-10.82609

$$$$



 35 39  0  0  0  0  0  0  0  0999 V2000
    3.7006   66.5499   84.3914 C   0  0  0  0  0  0  0  0  0  0  0  0
    4.3669   67.6656   83.8720 C   0  0  0  0  0  0  0  0  0  0  0  0
    3.6590   68.6896   83.2331 C   0  0  0  0  0  0  0  0  0  0  0  0
    2.2692   68.6310   83.0912 C   0  0  0  0  0  0  0  0  0  0  0  0
    1.6026   67.5151   83.6127 C   0  0  0  0  0  0  0  0  0  0  0  0
    2.2978   66.4694   84.2592 C   0  0  0  0  0  0  0  0  0  0  0  0
    1.4634   65.3242   84.7719 C   0  0  0  0  0  0  0  0  0  0  0  0
    0.7135   64.6345   83.9504 N   0  0  0  0  0  0  0  0  0  0  0  0
    0.0168   63.6355   84.5474 C   0  0  0  0  0  0  0  0  0  0  0  0
    0.0165   63.2868   85.8745 C   0  0  0  0  0  0  0  0  0  0  0  0
   -0.8655   62.1975   85.9908 C   0  0  0  0  0  0  0  0  0  0  0  0
   -1.2269   61.4441   87.2147 C   0  0  0  0  0  0  0  0  0  0  0  0
   -1.3990   61.8752   84.8002 N   0  0  0  0  0  0  0  0  0  0  0  0
   -0.8441   62.7649   83.9402 N   0  0  0  0  0  0  0  0  0  0  0  0
    0.8354   64.0373   86.7778 C   0  0  0  0  0  0  0  0  0  0  0  0
    0.9197   63.8273   87.9821 O   0  0  0  0  0  0  0  0  0  0  0  0
    1.5316   65.0437   86.1362 N   0  0  0  0  0  0  0  0  0  0  0  0
    2.1258   65.6079   86.7293 H   0  0  0  0  0  0  0  0  0  0  0  0
   -1.1916   62.7224   82.5349 C   0  0  0  0  0  0  0  0  0  0  0  0
   -2.4506   63.5149   82.2327 C   0  0  0  0  0  0  0  0  0  0  0  0
    1.5704   69.7253   82.4160 C   0  0  0  0  0  0  0  0  0  0  0  0
    0.6773   69.5775   81.3744 C   0  0  0  0  0  0  0  0  0  0  0  0
    0.0911   71.1065   80.8751 S   0  0  0  0  0  0  0  0  0  0  0  0
    1.0671   71.8789   82.0684 C   0  0  0  0  0  0  0  0  0  0  0  0
    1.7853   71.0430   82.7968 N   0  0  0  0  0  0  0  0  0  0  0  0
    1.0841   73.3470   82.2473 C   0  0  0  0  0  0  0  0  0  0  0  0
    0.0229   74.1895   81.8753 C   0  0  0  0  0  0  0  0  0  0  0  0
    0.0983   75.5739   82.0690 C   0  0  0  0  0  0  0  0  0  0  0  0
    1.2348   76.1414   82.6383 C   0  0  0  0  0  0  0  0  0  0  0  0
    2.2988   75.3273   83.0133 C   0  0  0  0  0  0  0  0  0  0  0  0
    2.2222   73.9450   82.8189 C   0  0  0  0  0  0  0  0  0  0  0  0
    4.3450   65.5176   85.0249 O   0  0  0  0  0  0  0  0  0  0  0  0
    5.3033   65.8347   86.0389 C   0  0  0  0  0  0  0  0  0  0  0  0
    5.6036   65.5232   88.5237 C   0  0  0  0  0  0  0  0  0  0  0  0
    4.9952   64.9613   87.2517 C   0  0  0  0  0  0  0  0  0  0  0  0
 34 35  1  0  0  0
 35 33  1  0  0  0
 33 32  1  0  0  0
 32  1  1  0  0  0
  1  2  1  0  0  0
  2  3  2  0  0  0
  3  4  1  0  0  0
  4 21  1  0  0  0
 21 22  2  0  0  0
 22 23  1  0  0  0
 23 24  1  0  0  0
 24 26  1  0  0  0
 26 27  2  0  0  0
 27 28  1  0  0  0
 28 29  2  0  0  0
 29 30  1  0  0  0
 30 31  2  0  0  0
 24 25  2  0  0  0
  4  5  2  0  0  0
  5  6  1  0  0  0
  6  7  1  0  0  0
  7  8  2  0  0  0
  8  9  1  0  0  0
  9 10  2  0  0  0
 10 11  1  0  0  0
 11 12  1  0  0  0
 11 13  2  0  0  0
 13 14  1  0  0  0
 14 19  1  0  0  0
 19 20  1  0  0  0
 10 15  1  0  0  0
 15 16  2  0  0  0
 15 17  1  0  0  0
  6  1  2  0  0  0
 17  7  1  0  0  0
 25 21  1  0  0  0
 14  9  1  0  0  0
 31 26  1  0  0  0
 17 18  1  0  0  0
M  END
> <minimizedAffinity>
-10.63070

$$$$



 35 39  0  0  0  0  0  0  0  0999 V2000
    0.2233   63.9186   84.1503 C   0  0  0  0  0  0  0  0  0  0  0  0
    0.9127   64.7455   85.0445 C   0  0  0  0  0  0  0  0  0  0  0  0
    1.4137   65.9854   84.6329 C   0  0  0  0  0  0  0  0  0  0  0  0
    1.2452   66.4360   83.3200 C   0  0  0  0  0  0  0  0  0  0  0  0
    0.5537   65.6089   82.4259 C   0  0  0  0  0  0  0  0  0  0  0  0
    0.0417   64.3529   82.8198 C   0  0  0  0  0  0  0  0  0  0  0  0
   -0.6790   63.5591   81.7609 C   0  0  0  0  0  0  0  0  0  0  0  0
   -0.3834   63.7246   80.4967 N   0  0  0  0  0  0  0  0  0  0  0  0
   -1.1096   62.9475   79.6550 C   0  0  0  0  0  0  0  0  0  0  0  0
   -2.0863   62.0402   79.9799 C   0  0  0  0  0  0  0  0  0  0  0  0
   -2.5363   61.4994   78.7621 C   0  0  0  0  0  0  0  0  0  0  0  0
   -3.5866   60.4751   78.5525 C   0  0  0  0  0  0  0  0  0  0  0  0
   -1.8816   62.0386   77.7197 N   0  0  0  0  0  0  0  0  0  0  0  0
   -1.0190   62.9150   78.2917 N   0  0  0  0  0  0  0  0  0  0  0  0
   -2.4135   61.8545   81.3613 C   0  0  0  0  0  0  0  0  0  0  0  0
   -3.2657   61.0793   81.7787 O   0  0  0  0  0  0  0  0  0  0  0  0
   -1.6540   62.6589   82.1892 N   0  0  0  0  0  0  0  0  0  0  0  0
   -1.8461   62.5694   83.1783 H   0  0  0  0  0  0  0  0  0  0  0  0
   -0.1295   63.6984   77.4596 C   0  0  0  0  0  0  0  0  0  0  0  0
   -0.8555   64.8272   76.7504 C   0  0  0  0  0  0  0  0  0  0  0  0
    1.7860   67.7399   82.9342 C   0  0  0  0  0  0  0  0  0  0  0  0
    3.1053   68.1242   83.0611 C   0  0  0  0  0  0  0  0  0  0  0  0
    3.3129   69.7263   82.4947 S   0  0  0  0  0  0  0  0  0  0  0  0
    1.6321   69.8203   82.1213 C   0  0  0  0  0  0  0  0  0  0  0  0
    0.9583   68.7191   82.4015 N   0  0  0  0  0  0  0  0  0  0  0  0
    1.0178   71.0328   81.5382 C   0  0  0  0  0  0  0  0  0  0  0  0
    1.7563   72.1375   81.0813 C   0  0  0  0  0  0  0  0  0  0  0  0
    1.1171   73.2588   80.5392 C   0  0  0  0  0  0  0  0  0  0  0  0
   -0.2712   73.2963   80.4433 C   0  0  0  0  0  0  0  0  0  0  0  0
   -1.0234   72.2149   80.8905 C   0  0  0  0  0  0  0  0  0  0  0  0
   -0.3837   71.0960   81.4319 C   0  0  0  0  0  0  0  0  0  0  0  0
   -0.2867   62.6940   84.5001 O   0  0  0  0  0  0  0  0  0  0  0  0
   -0.7210   62.4988   85.8493 C   0  0  0  0  0  0  0  0  0  0  0  0
   -2.7616   63.0252   87.2349 C   0  0  0  0  0  0  0  0  0  0  0  0
   -2.2415   62.6264   85.8658 C   0  0  0  0  0  0  0  0  0  0  0  0
 34 35  1  0  0  0
 35 33  1  0  0  0
 33 32  1  0  0  0
 32  1  1  0  0  0
  1  2  1  0  0  0
  2  3  2  0  0  0
  3  4  1  0  0  0
  4 21  1  0  0  0
 21 22  2  0  0  0
 22 23  1  0  0  0
 23 24  1  0  0  0
 24 26  1  0  0  0
 26 27  2  0  0  0
 27 28  1  0  0  0
 28 29  2  0  0  0
 29 30  1  0  0  0
 30 31  2  0  0  0
 24 25  2  0  0  0
  4  5  2  0  0  0
  5  6  1  0  0  0
  6  7  1  0  0  0
  7  8  2  0  0  0
  8  9  1  0  0  0
  9 10  2  0  0  0
 10 11  1  0  0  0
 11 12  1  0  0  0
 11 13  2  0  0  0
 13 14  1  0  0  0
 14 19  1  0  0  0
 19 20  1  0  0  0
 10 15  1  0  0  0
 15 16  2  0  0  0
 15 17  1  0  0  0
  6  1  2  0  0  0
 17  7  1  0  0  0
 25 21  1  0  0  0
 14  9  1  0  0  0
 31 26  1  0  0  0
 17 18  1  0  0  0
M  END
> <minimizedAffinity>
-10.40493

$$$$



 35 39  0  0  0  0  0  0  0  0999 V2000
    0.4010   64.0980   84.0987 C   0  0  0  0  0  0  0  0  0  0  0  0
    1.0502   65.1771   84.7089 C   0  0  0  0  0  0  0  0  0  0  0  0
    1.3897   66.3180   83.9734 C   0  0  0  0  0  0  0  0  0  0  0  0
    1.0949   66.4160   82.6100 C   0  0  0  0  0  0  0  0  0  0  0  0
    0.4436   65.3364   82.0001 C   0  0  0  0  0  0  0  0  0  0  0  0
    0.0940   64.1748   82.7233 C   0  0  0  0  0  0  0  0  0  0  0  0
   -0.5998   63.0844   81.9485 C   0  0  0  0  0  0  0  0  0  0  0  0
   -0.2682   62.8449   80.7053 N   0  0  0  0  0  0  0  0  0  0  0  0
   -0.9735   61.8387   80.1310 C   0  0  0  0  0  0  0  0  0  0  0  0
   -1.9627   61.0749   80.6976 C   0  0  0  0  0  0  0  0  0  0  0  0
   -2.3804   60.1760   79.6999 C   0  0  0  0  0  0  0  0  0  0  0  0
   -3.4286   59.1326   79.7941 C   0  0  0  0  0  0  0  0  0  0  0  0
   -1.6944   60.3629   78.5595 N   0  0  0  0  0  0  0  0  0  0  0  0
   -0.8447   61.3791   78.8504 N   0  0  0  0  0  0  0  0  0  0  0  0
   -2.3293   61.3319   82.0575 C   0  0  0  0  0  0  0  0  0  0  0  0
   -3.1960   60.7233   82.6737 O   0  0  0  0  0  0  0  0  0  0  0  0
   -1.5902   62.3599   82.6109 N   0  0  0  0  0  0  0  0  0  0  0  0
   -1.8103   62.5854   83.5721 H   0  0  0  0  0  0  0  0  0  0  0  0
    0.0710   61.8651   77.8392 C   0  0  0  0  0  0  0  0  0  0  0  0
   -0.5039   63.0351   77.0615 C   0  0  0  0  0  0  0  0  0  0  0  0
    1.4685   67.6285   81.8808 C   0  0  0  0  0  0  0  0  0  0  0  0
    1.9269   67.6661   80.5797 C   0  0  0  0  0  0  0  0  0  0  0  0
    2.2508   69.2807   80.1120 S   0  0  0  0  0  0  0  0  0  0  0  0
    1.7708   69.8370   81.6720 C   0  0  0  0  0  0  0  0  0  0  0  0
    1.3896   68.8731   82.4910 N   0  0  0  0  0  0  0  0  0  0  0  0
    1.7890   71.2690   82.0414 C   0  0  0  0  0  0  0  0  0  0  0  0
    2.8412   71.8787   82.7454 C   0  0  0  0  0  0  0  0  0  0  0  0
    2.8006   73.2404   83.0676 C   0  0  0  0  0  0  0  0  0  0  0  0
    1.7085   74.0175   82.6919 C   0  0  0  0  0  0  0  0  0  0  0  0
    0.6542   73.4356   81.9955 C   0  0  0  0  0  0  0  0  0  0  0  0
    0.6960   72.0755   81.6747 C   0  0  0  0  0  0  0  0  0  0  0  0
    0.0474   62.9560   84.7716 O   0  0  0  0  0  0  0  0  0  0  0  0
   -0.4824   63.0830   86.0945 C   0  0  0  0  0  0  0  0  0  0  0  0
   -2.6700   62.9809   87.3458 C   0  0  0  0  0  0  0  0  0  0  0  0
   -1.9544   62.6842   86.0405 C   0  0  0  0  0  0  0  0  0  0  0  0
 34 35  1  0  0  0
 35 33  1  0  0  0
 33 32  1  0  0  0
 32  1  1  0  0  0
  1  2  1  0  0  0
  2  3  2  0  0  0
  3  4  1  0  0  0
  4 21  1  0  0  0
 21 22  2  0  0  0
 22 23  1  0  0  0
 23 24  1  0  0  0
 24 26  1  0  0  0
 26 27  2  0  0  0
 27 28  1  0  0  0
 28 29  2  0  0  0
 29 30  1  0  0  0
 30 31  2  0  0  0
 24 25  2  0  0  0
  4  5  2  0  0  0
  5  6  1  0  0  0
  6  7  1  0  0  0
  7  8  2  0  0  0
  8  9  1  0  0  0
  9 10  2  0  0  0
 10 11  1  0  0  0
 11 12  1  0  0  0
 11 13  2  0  0  0
 13 14  1  0  0  0
 14 19  1  0  0  0
 19 20  1  0  0  0
 10 15  1  0  0  0
 15 16  2  0  0  0
 15 17  1  0  0  0
  6  1  2  0  0  0
 17  7  1  0  0  0
 25 21  1  0  0  0
 14  9  1  0  0  0
 31 26  1  0  0  0
 17 18  1  0  0  0
M  END
> <minimizedAffinity>
-10.30271

$$$$



 35 39  0  0  0  0  0  0  0  0999 V2000
    0.3092   63.7888   83.7703 C   0  0  0  0  0  0  0  0  0  0  0  0
    0.7471   64.6574   84.7764 C   0  0  0  0  0  0  0  0  0  0  0  0
    1.2119   65.9396   84.4639 C   0  0  0  0  0  0  0  0  0  0  0  0
    1.2564   66.3924   83.1417 C   0  0  0  0  0  0  0  0  0  0  0  0
    0.8164   65.5234   82.1352 C   0  0  0  0  0  0  0  0  0  0  0  0
    0.3455   64.2246   82.4284 C   0  0  0  0  0  0  0  0  0  0  0  0
   -0.0947   63.3887   81.2545 C   0  0  0  0  0  0  0  0  0  0  0  0
   -1.1403   62.6080   81.3556 N   0  0  0  0  0  0  0  0  0  0  0  0
   -1.4210   61.9139   80.2245 C   0  0  0  0  0  0  0  0  0  0  0  0
   -0.7465   61.9442   79.0300 C   0  0  0  0  0  0  0  0  0  0  0  0
   -1.4215   61.0510   78.1788 C   0  0  0  0  0  0  0  0  0  0  0  0
   -1.0989   60.7120   76.7727 C   0  0  0  0  0  0  0  0  0  0  0  0
   -2.4669   60.4817   78.8026 N   0  0  0  0  0  0  0  0  0  0  0  0
   -2.4438   61.0255   80.0448 N   0  0  0  0  0  0  0  0  0  0  0  0
    0.3976   62.7969   78.9133 C   0  0  0  0  0  0  0  0  0  0  0  0
    1.0836   62.9103   77.9043 O   0  0  0  0  0  0  0  0  0  0  0  0
    0.6526   63.4894   80.0815 N   0  0  0  0  0  0  0  0  0  0  0  0
    1.4535   64.1067   80.0553 H   0  0  0  0  0  0  0  0  0  0  0  0
   -3.4433   60.6402   81.0193 C   0  0  0  0  0  0  0  0  0  0  0  0
   -2.8872   59.6898   82.0642 C   0  0  0  0  0  0  0  0  0  0  0  0
    1.7500   67.7413   82.8617 C   0  0  0  0  0  0  0  0  0  0  0  0
    3.0299   68.1900   83.1166 C   0  0  0  0  0  0  0  0  0  0  0  0
    3.1893   69.8271   82.6421 S   0  0  0  0  0  0  0  0  0  0  0  0
    1.5420   69.8479   82.1328 C   0  0  0  0  0  0  0  0  0  0  0  0
    0.9129   68.6992   82.3055 N   0  0  0  0  0  0  0  0  0  0  0  0
    0.9077   71.0526   81.5549 C   0  0  0  0  0  0  0  0  0  0  0  0
   -0.4797   71.1979   81.3866 C   0  0  0  0  0  0  0  0  0  0  0  0
   -1.0214   72.3634   80.8317 C   0  0  0  0  0  0  0  0  0  0  0  0
   -0.1869   73.4048   80.4356 C   0  0  0  0  0  0  0  0  0  0  0  0
    1.1901   73.2831   80.5911 C   0  0  0  0  0  0  0  0  0  0  0  0
    1.7297   72.1185   81.1451 C   0  0  0  0  0  0  0  0  0  0  0  0
   -0.1540   62.5220   84.0205 O   0  0  0  0  0  0  0  0  0  0  0  0
   -0.7289   62.2492   85.3020 C   0  0  0  0  0  0  0  0  0  0  0  0
   -2.8360   62.8771   86.5378 C   0  0  0  0  0  0  0  0  0  0  0  0
   -2.2294   62.5062   85.1967 C   0  0  0  0  0  0  0  0  0  0  0  0
 34 35  1  0  0  0
 35 33  1  0  0  0
 33 32  1  0  0  0
 32  1  1  0  0  0
  1  2  1  0  0  0
  2  3  2  0  0  0
  3  4  1  0  0  0
  4 21  1  0  0  0
 21 22  2  0  0  0
 22 23  1  0  0  0
 23 24  1  0  0  0
 24 26  1  0  0  0
 26 27  2  0  0  0
 27 28  1  0  0  0
 28 29  2  0  0  0
 29 30  1  0  0  0
 30 31  2  0  0  0
 24 25  2  0  0  0
  4  5  2  0  0  0
  5  6  1  0  0  0
  6  7  1  0  0  0
  7  8  2  0  0  0
  8  9  1  0  0  0
  9 10  2  0  0  0
 10 11  1  0  0  0
 11 12  1  0  0  0
 11 13  2  0  0  0
 13 14  1  0  0  0
 14 19  1  0  0  0
 19 20  1  0  0  0
 10 15  1  0  0  0
 15 16  2  0  0  0
 15 17  1  0  0  0
  6  1  2  0  0  0
 17  7  1  0  0  0
 25 21  1  0  0  0
 14  9  1  0  0  0
 31 26  1  0  0  0
 17 18  1  0  0  0
M  END
> <minimizedAffinity>
-10.13101

$$$$



 35 39  0  0  0  0  0  0  0  0999 V2000
   -0.6272   62.8631   84.7471 C   0  0  0  0  0  0  0  0  0  0  0  0
   -0.1804   63.5666   85.8713 C   0  0  0  0  0  0  0  0  0  0  0  0
    0.7815   64.5755   85.7495 C   0  0  0  0  0  0  0  0  0  0  0  0
    1.3274   64.9107   84.5066 C   0  0  0  0  0  0  0  0  0  0  0  0
    0.8787   64.2074   83.3816 C   0  0  0  0  0  0  0  0  0  0  0  0
   -0.0897   63.1843   83.4822 C   0  0  0  0  0  0  0  0  0  0  0  0
   -0.4834   62.5031   82.1971 C   0  0  0  0  0  0  0  0  0  0  0  0
    0.0056   62.9151   81.0552 N   0  0  0  0  0  0  0  0  0  0  0  0
   -0.4348   62.2126   79.9817 C   0  0  0  0  0  0  0  0  0  0  0  0
   -1.3083   61.1544   79.9699 C   0  0  0  0  0  0  0  0  0  0  0  0
   -1.4479   60.7797   78.6215 C   0  0  0  0  0  0  0  0  0  0  0  0
   -2.2799   59.6894   78.0600 C   0  0  0  0  0  0  0  0  0  0  0  0
   -0.7047   61.5620   77.8205 N   0  0  0  0  0  0  0  0  0  0  0  0
   -0.0981   62.4237   78.6742 N   0  0  0  0  0  0  0  0  0  0  0  0
   -1.8459   60.6988   81.2161 C   0  0  0  0  0  0  0  0  0  0  0  0
   -2.6344   59.7688   81.3379 O   0  0  0  0  0  0  0  0  0  0  0  0
   -1.3747   61.4344   82.2868 N   0  0  0  0  0  0  0  0  0  0  0  0
   -1.7251   61.1557   83.1938 H   0  0  0  0  0  0  0  0  0  0  0  0
    0.7996   63.4367   78.1592 C   0  0  0  0  0  0  0  0  0  0  0  0
    0.0567   64.6745   77.6901 C   0  0  0  0  0  0  0  0  0  0  0  0
    2.3308   65.9729   84.4269 C   0  0  0  0  0  0  0  0  0  0  0  0
    2.0720   67.2910   84.1107 C   0  0  0  0  0  0  0  0  0  0  0  0
    3.5227   68.1999   84.1257 S   0  0  0  0  0  0  0  0  0  0  0  0
    4.4142   66.7842   84.5434 C   0  0  0  0  0  0  0  0  0  0  0  0
    3.6708   65.6991   84.6661 N   0  0  0  0  0  0  0  0  0  0  0  0
    5.8794   66.8026   84.7441 C   0  0  0  0  0  0  0  0  0  0  0  0
    6.5741   67.8823   85.3153 C   0  0  0  0  0  0  0  0  0  0  0  0
    7.9638   67.8413   85.4785 C   0  0  0  0  0  0  0  0  0  0  0  0
    8.6845   66.7209   85.0746 C   0  0  0  0  0  0  0  0  0  0  0  0
    8.0186   65.6403   84.5052 C   0  0  0  0  0  0  0  0  0  0  0  0
    6.6307   65.6828   84.3425 C   0  0  0  0  0  0  0  0  0  0  0  0
   -1.5660   61.8647   84.8097 O   0  0  0  0  0  0  0  0  0  0  0  0
   -2.8470   62.1703   85.3690 C   0  0  0  0  0  0  0  0  0  0  0  0
   -2.7276   63.0902   87.7143 C   0  0  0  0  0  0  0  0  0  0  0  0
   -2.7896   61.8389   86.8574 C   0  0  0  0  0  0  0  0  0  0  0  0
 34 35  1  0  0  0
 35 33  1  0  0  0
 33 32  1  0  0  0
 32  1  1  0  0  0
  1  2  1  0  0  0
  2  3  2  0  0  0
  3  4  1  0  0  0
  4 21  1  0  0  0
 21 22  2  0  0  0
 22 23  1  0  0  0
 23 24  1  0  0  0
 24 26  1  0  0  0
 26 27  2  0  0  0
 27 28  1  0  0  0
 28 29  2  0  0  0
 29 30  1  0  0  0
 30 31  2  0  0  0
 24 25  2  0  0  0
  4  5  2  0  0  0
  5  6  1  0  0  0
  6  7  1  0  0  0
  7  8  2  0  0  0
  8  9  1  0  0  0
  9 10  2  0  0  0
 10 11  1  0  0  0
 11 12  1  0  0  0
 11 13  2  0  0  0
 13 14  1  0  0  0
 14 19  1  0  0  0
 19 20  1  0  0  0
 10 15  1  0  0  0
 15 16  2  0  0  0
 15 17  1  0  0  0
  6  1  2  0  0  0
 17  7  1  0  0  0
 25 21  1  0  0  0
 14  9  1  0  0  0
 31 26  1  0  0  0
 17 18  1  0  0  0
M  END
> <minimizedAffinity>
-10.06008

$$$$



 35 39  0  0  0  0  0  0  0  0999 V2000
    4.1109   66.1915   84.9960 C   0  0  0  0  0  0  0  0  0  0  0  0
    5.1058   67.1256   84.6858 C   0  0  0  0  0  0  0  0  0  0  0  0
    4.8463   68.1840   83.8081 C   0  0  0  0  0  0  0  0  0  0  0  0
    3.5908   68.3411   83.2129 C   0  0  0  0  0  0  0  0  0  0  0  0
    2.5949   67.4071   83.5250 C   0  0  0  0  0  0  0  0  0  0  0  0
    2.8361   66.3302   84.4065 C   0  0  0  0  0  0  0  0  0  0  0  0
    1.6818   65.3942   84.6554 C   0  0  0  0  0  0  0  0  0  0  0  0
    1.0879   64.7978   83.6531 N   0  0  0  0  0  0  0  0  0  0  0  0
    0.0661   63.9859   84.0223 C   0  0  0  0  0  0  0  0  0  0  0  0
   -0.3927   63.7352   85.2910 C   0  0  0  0  0  0  0  0  0  0  0  0
   -1.4640   62.8354   85.1471 C   0  0  0  0  0  0  0  0  0  0  0  0
   -2.3090   62.2464   86.2126 C   0  0  0  0  0  0  0  0  0  0  0  0
   -1.6753   62.5345   83.8544 N   0  0  0  0  0  0  0  0  0  0  0  0
   -0.7299   63.2469   83.1928 N   0  0  0  0  0  0  0  0  0  0  0  0
    0.2534   64.3843   86.3914 C   0  0  0  0  0  0  0  0  0  0  0  0
   -0.0631   64.2458   87.5670 O   0  0  0  0  0  0  0  0  0  0  0  0
    1.2894   65.2005   85.9794 N   0  0  0  0  0  0  0  0  0  0  0  0
    1.7804   65.6865   86.7182 H   0  0  0  0  0  0  0  0  0  0  0  0
   -0.6496   63.1719   81.7487 C   0  0  0  0  0  0  0  0  0  0  0  0
    0.3437   62.1220   81.2847 C   0  0  0  0  0  0  0  0  0  0  0  0
    3.3646   69.4634   82.3014 C   0  0  0  0  0  0  0  0  0  0  0  0
    4.3321   70.0637   81.5216 C   0  0  0  0  0  0  0  0  0  0  0  0
    3.6481   71.3374   80.6048 S   0  0  0  0  0  0  0  0  0  0  0  0
    2.1042   71.0229   81.3055 C   0  0  0  0  0  0  0  0  0  0  0  0
    2.1013   70.0244   82.1705 N   0  0  0  0  0  0  0  0  0  0  0  0
    0.9016   71.8097   80.9558 C   0  0  0  0  0  0  0  0  0  0  0  0
   -0.3979   71.2759   80.9285 C   0  0  0  0  0  0  0  0  0  0  0  0
   -1.4982   72.0716   80.5881 C   0  0  0  0  0  0  0  0  0  0  0  0
   -1.3201   73.4150   80.2697 C   0  0  0  0  0  0  0  0  0  0  0  0
   -0.0426   73.9654   80.2886 C   0  0  0  0  0  0  0  0  0  0  0  0
    1.0553   73.1694   80.6283 C   0  0  0  0  0  0  0  0  0  0  0  0
    4.3117   65.1349   85.8477 O   0  0  0  0  0  0  0  0  0  0  0  0
    5.4785   65.1414   86.6756 C   0  0  0  0  0  0  0  0  0  0  0  0
    6.1801   65.2545   89.0956 C   0  0  0  0  0  0  0  0  0  0  0  0
    5.0128   65.2387   88.1255 C   0  0  0  0  0  0  0  0  0  0  0  0
 34 35  1  0  0  0
 35 33  1  0  0  0
 33 32  1  0  0  0
 32  1  1  0  0  0
  1  2  1  0  0  0
  2  3  2  0  0  0
  3  4  1  0  0  0
  4 21  1  0  0  0
 21 22  2  0  0  0
 22 23  1  0  0  0
 23 24  1  0  0  0
 24 26  1  0  0  0
 26 27  2  0  0  0
 27 28  1  0  0  0
 28 29  2  0  0  0
 29 30  1  0  0  0
 30 31  2  0  0  0
 24 25  2  0  0  0
  4  5  2  0  0  0
  5  6  1  0  0  0
  6  7  1  0  0  0
  7  8  2  0  0  0
  8  9  1  0  0  0
  9 10  2  0  0  0
 10 11  1  0  0  0
 11 12  1  0  0  0
 11 13  2  0  0  0
 13 14  1  0  0  0
 14 19  1  0  0  0
 19 20  1  0  0  0
 10 15  1  0  0  0
 15 16  2  0  0  0
 15 17  1  0  0  0
  6  1  2  0  0  0
 17  7  1  0  0  0
 25 21  1  0  0  0
 14  9  1  0  0  0
 31 26  1  0  0  0
 17 18  1  0  0  0
M  END
> <minimizedAffinity>
-10.05597

$$$$



 35 39  0  0  0  0  0  0  0  0999 V2000
    3.6926   67.2743   83.9101 C   0  0  0  0  0  0  0  0  0  0  0  0
    4.2989   68.4696   83.5079 C   0  0  0  0  0  0  0  0  0  0  0  0
    3.5364   69.5181   82.9814 C   0  0  0  0  0  0  0  0  0  0  0  0
    2.1501   69.4056   82.8382 C   0  0  0  0  0  0  0  0  0  0  0  0
    1.5434   68.2097   83.2425 C   0  0  0  0  0  0  0  0  0  0  0  0
    2.2944   67.1382   83.7743 C   0  0  0  0  0  0  0  0  0  0  0  0
    1.5214   65.9059   84.1672 C   0  0  0  0  0  0  0  0  0  0  0  0
    1.1448   65.0449   83.2563 N   0  0  0  0  0  0  0  0  0  0  0  0
    0.4573   63.9853   83.7506 C   0  0  0  0  0  0  0  0  0  0  0  0
    0.1276   63.7327   85.0584 C   0  0  0  0  0  0  0  0  0  0  0  0
   -0.5851   62.5202   85.0532 C   0  0  0  0  0  0  0  0  0  0  0  0
   -1.1694   61.8015   86.2100 C   0  0  0  0  0  0  0  0  0  0  0  0
   -0.7040   62.0319   83.8068 N   0  0  0  0  0  0  0  0  0  0  0  0
   -0.0599   62.9422   83.0349 N   0  0  0  0  0  0  0  0  0  0  0  0
    0.5375   64.6707   86.0593 C   0  0  0  0  0  0  0  0  0  0  0  0
    0.3031   64.5604   87.2570 O   0  0  0  0  0  0  0  0  0  0  0  0
    1.2362   65.7345   85.5214 N   0  0  0  0  0  0  0  0  0  0  0  0
    1.5487   66.4302   86.1858 H   0  0  0  0  0  0  0  0  0  0  0  0
    0.0187   62.7459   81.6022 C   0  0  0  0  0  0  0  0  0  0  0  0
    0.5873   61.3855   81.2414 C   0  0  0  0  0  0  0  0  0  0  0  0
    1.3929   70.5280   82.2829 C   0  0  0  0  0  0  0  0  0  0  0  0
    0.3877   70.4235   81.3431 C   0  0  0  0  0  0  0  0  0  0  0  0
   -0.2331   71.9734   80.9647 S   0  0  0  0  0  0  0  0  0  0  0  0
    0.8785   72.6962   82.0671 C   0  0  0  0  0  0  0  0  0  0  0  0
    1.6639   71.8300   82.6818 N   0  0  0  0  0  0  0  0  0  0  0  0
    0.9320   74.1569   82.2927 C   0  0  0  0  0  0  0  0  0  0  0  0
    2.0804   74.8354   82.7348 C   0  0  0  0  0  0  0  0  0  0  0  0
    2.0691   76.2214   82.9314 C   0  0  0  0  0  0  0  0  0  0  0  0
    0.9108   76.9545   82.6894 C   0  0  0  0  0  0  0  0  0  0  0  0
   -0.2389   76.3043   82.2525 C   0  0  0  0  0  0  0  0  0  0  0  0
   -0.2262   74.9201   82.0570 C   0  0  0  0  0  0  0  0  0  0  0  0
    4.3921   66.2150   84.4305 O   0  0  0  0  0  0  0  0  0  0  0  0
    5.3818   66.4790   85.4294 C   0  0  0  0  0  0  0  0  0  0  0  0
    7.7136   65.8181   84.7313 C   0  0  0  0  0  0  0  0  0  0  0  0
    6.4130   65.3561   85.3628 C   0  0  0  0  0  0  0  0  0  0  0  0
 34 35  1  0  0  0
 35 33  1  0  0  0
 33 32  1  0  0  0
 32  1  1  0  0  0
  1  2  1  0  0  0
  2  3  2  0  0  0
  3  4  1  0  0  0
  4 21  1  0  0  0
 21 22  2  0  0  0
 22 23  1  0  0  0
 23 24  1  0  0  0
 24 26  1  0  0  0
 26 27  2  0  0  0
 27 28  1  0  0  0
 28 29  2  0  0  0
 29 30  1  0  0  0
 30 31  2  0  0  0
 24 25  2  0  0  0
  4  5  2  0  0  0
  5  6  1  0  0  0
  6  7  1  0  0  0
  7  8  2  0  0  0
  8  9  1  0  0  0
  9 10  2  0  0  0
 10 11  1  0  0  0
 11 12  1  0  0  0
 11 13  2  0  0  0
 13 14  1  0  0  0
 14 19  1  0  0  0
 19 20  1  0  0  0
 10 15  1  0  0  0
 15 16  2  0  0  0
 15 17  1  0  0  0
  6  1  2  0  0  0
 17  7  1  0  0  0
 25 21  1  0  0  0
 14  9  1  0  0  0
 31 26  1  0  0  0
 17 18  1  0  0  0
M  END
> <minimizedAffinity>
-9.84049

$$$$



 35 39  0  0  0  0  0  0  0  0999 V2000
    3.6959   67.1818   83.8954 C   0  0  0  0  0  0  0  0  0  0  0  0
    4.4958   68.3240   83.7775 C   0  0  0  0  0  0  0  0  0  0  0  0
    3.9476   69.5430   83.3637 C   0  0  0  0  0  0  0  0  0  0  0  0
    2.5892   69.6591   83.0535 C   0  0  0  0  0  0  0  0  0  0  0  0
    1.7886   68.5162   83.1734 C   0  0  0  0  0  0  0  0  0  0  0  0
    2.3218   67.2755   83.5871 C   0  0  0  0  0  0  0  0  0  0  0  0
    1.3546   66.1231   83.6715 C   0  0  0  0  0  0  0  0  0  0  0  0
    1.0780   65.5771   84.8283 N   0  0  0  0  0  0  0  0  0  0  0  0
    0.1942   64.5508   84.7558 C   0  0  0  0  0  0  0  0  0  0  0  0
   -0.4166   64.0443   83.6363 C   0  0  0  0  0  0  0  0  0  0  0  0
   -1.2342   62.9903   84.0818 C   0  0  0  0  0  0  0  0  0  0  0  0
   -2.1087   62.1100   83.2715 C   0  0  0  0  0  0  0  0  0  0  0  0
   -1.1435   62.8346   85.4136 N   0  0  0  0  0  0  0  0  0  0  0  0
   -0.2691   63.7976   85.7978 N   0  0  0  0  0  0  0  0  0  0  0  0
   -0.1184   64.6380   82.3681 C   0  0  0  0  0  0  0  0  0  0  0  0
   -0.5946   64.2761   81.2987 O   0  0  0  0  0  0  0  0  0  0  0  0
    0.7821   65.6801   82.4796 N   0  0  0  0  0  0  0  0  0  0  0  0
    1.0303   66.1353   81.6110 H   0  0  0  0  0  0  0  0  0  0  0  0
    0.0817   63.9367   87.1959 C   0  0  0  0  0  0  0  0  0  0  0  0
   -1.0158   63.4303   88.1143 C   0  0  0  0  0  0  0  0  0  0  0  0
    2.0594   70.9543   82.6251 C   0  0  0  0  0  0  0  0  0  0  0  0
    2.5331   72.1838   83.0353 C   0  0  0  0  0  0  0  0  0  0  0  0
    1.6334   73.4409   82.2999 S   0  0  0  0  0  0  0  0  0  0  0  0
    0.6581   72.2760   81.4842 C   0  0  0  0  0  0  0  0  0  0  0  0
    0.9878   71.0237   81.7450 N   0  0  0  0  0  0  0  0  0  0  0  0
   -0.4433   72.6630   80.5761 C   0  0  0  0  0  0  0  0  0  0  0  0
   -1.4891   71.7999   80.2078 C   0  0  0  0  0  0  0  0  0  0  0  0
   -2.5044   72.2240   79.3423 C   0  0  0  0  0  0  0  0  0  0  0  0
   -2.4934   73.5182   78.8297 C   0  0  0  0  0  0  0  0  0  0  0  0
   -1.4674   74.3903   79.1791 C   0  0  0  0  0  0  0  0  0  0  0  0
   -0.4540   73.9652   80.0432 C   0  0  0  0  0  0  0  0  0  0  0  0
    4.1815   65.9624   84.2946 O   0  0  0  0  0  0  0  0  0  0  0  0
    4.7641   65.8560   85.5970 C   0  0  0  0  0  0  0  0  0  0  0  0
    7.1636   66.0668   84.8493 C   0  0  0  0  0  0  0  0  0  0  0  0
    6.1087   65.1510   85.4429 C   0  0  0  0  0  0  0  0  0  0  0  0
 34 35  1  0  0  0
 35 33  1  0  0  0
 33 32  1  0  0  0
 32  1  1  0  0  0
  1  2  1  0  0  0
  2  3  2  0  0  0
  3  4  1  0  0  0
  4 21  1  0  0  0
 21 22  2  0  0  0
 22 23  1  0  0  0
 23 24  1  0  0  0
 24 26  1  0  0  0
 26 27  2  0  0  0
 27 28  1  0  0  0
 28 29  2  0  0  0
 29 30  1  0  0  0
 30 31  2  0  0  0
 24 25  2  0  0  0
  4  5  2  0  0  0
  5  6  1  0  0  0
  6  7  1  0  0  0
  7  8  2  0  0  0
  8  9  1  0  0  0
  9 10  2  0  0  0
 10 11  1  0  0  0
 11 12  1  0  0  0
 11 13  2  0  0  0
 13 14  1  0  0  0
 14 19  1  0  0  0
 19 20  1  0  0  0
 10 15  1  0  0  0
 15 16  2  0  0  0
 15 17  1  0  0  0
  6  1  2  0  0  0
 17  7  1  0  0  0
 25 21  1  0  0  0
 14  9  1  0  0  0
 31 26  1  0  0  0
 17 18  1  0  0  0
M  END
> <minimizedAffinity>
-9.82421

$$$$
