
     RDKit          3D

 66 69  0  0  0  0  0  0  0  0999 V2000
   -4.6868    5.1082   -0.9401 C   0  0  0  0  0  0  0  0  0  0  0  0
   -5.1806    3.8809   -1.6931 C   0  0  0  0  0  0  0  0  0  0  0  0
   -4.1183    2.7907   -1.7802 C   0  0  0  0  0  0  0  0  0  0  0  0
   -3.0147    3.2695   -2.5454 O   0  0  0  0  0  0  0  0  0  0  0  0
   -1.9399    2.3321   -2.6358 C   0  0  0  0  0  0  0  0  0  0  0  0
   -0.9702    2.4893   -1.4591 C   0  0  0  0  0  0  0  0  0  0  0  0
    0.0498    1.4427   -1.4253 N   0  0  0  0  0  0  0  0  0  0  0  0
    1.2152    1.6522   -2.1710 C   0  0  0  0  0  0  0  0  0  0  0  0
    1.3584    2.6774   -2.8342 O   0  0  0  0  0  0  0  0  0  0  0  0
    2.2061    0.7076   -2.1478 N   0  0  0  0  0  0  0  0  0  0  0  0
    2.0823   -0.4151   -1.5118 C   0  0  0  0  0  0  0  0  0  0  0  0
    3.1308   -1.3213   -1.4933 N   0  0  0  0  0  0  0  0  0  0  0  0
    4.4574   -0.9521   -1.9978 C   0  0  0  0  0  0  0  0  0  0  0  0
    5.2589   -0.2429   -0.8850 C   0  0  0  0  0  0  0  0  0  0  0  0
    5.2550   -1.0082    0.3859 N   0  0  0  0  0  0  0  0  0  0  0  0
    5.6017   -0.1141    1.5153 C   0  0  0  0  0  0  0  0  0  0  0  0
    6.0865   -0.9063    2.7379 C   0  0  0  0  0  0  0  0  0  0  0  0
    7.3011   -1.6266    2.4880 O   0  0  0  0  0  0  0  0  0  0  0  0
    7.4881   -1.9553    1.1061 C   0  0  0  0  0  0  0  0  0  0  0  0
    6.1642   -2.1775    0.3560 C   0  0  0  0  0  0  0  0  0  0  0  0
    0.8310   -0.7491   -0.8023 C   0  0  0  0  0  0  0  0  0  0  0  0
    0.6072   -1.9722   -0.1944 C   0  0  0  0  0  0  0  0  0  0  0  0
   -0.5340   -2.2865    0.4628 N   0  0  0  0  0  0  0  0  0  0  0  0
   -1.5188   -1.3574    0.5053 C   0  0  0  0  0  0  0  0  0  0  0  0
   -2.7403   -1.7594    1.2237 C   0  0  0  0  0  0  0  0  0  0  0  0
   -2.6953   -2.6332    2.3197 C   0  0  0  0  0  0  0  0  0  0  0  0
   -3.8637   -2.9937    2.9911 C   0  0  0  0  0  0  0  0  0  0  0  0
   -5.0653   -2.4720    2.5470 C   0  0  0  0  0  0  0  0  0  0  0  0
   -6.1933   -2.8517    3.2452 O   0  0  0  0  0  0  0  0  0  0  0  0
   -7.3915   -2.2944    2.7158 C   0  0  0  0  0  0  0  0  0  0  0  0
   -5.1691   -1.6356    1.4945 N   0  0  0  0  0  0  0  0  0  0  0  0
   -4.0133   -1.3132    0.8616 C   0  0  0  0  0  0  0  0  0  0  0  0
   -1.3639   -0.1048   -0.0951 C   0  0  0  0  0  0  0  0  0  0  0  0
   -0.1737    0.2062   -0.7658 C   0  0  0  0  0  0  0  0  0  0  0  0
   -5.4832    5.8563   -0.8748 H   0  0  0  0  0  0  0  0  0  0  0  0
   -3.8327    5.5692   -1.4459 H   0  0  0  0  0  0  0  0  0  0  0  0
   -4.3828    4.8461    0.0783 H   0  0  0  0  0  0  0  0  0  0  0  0
   -5.4761    4.1882   -2.7030 H   0  0  0  0  0  0  0  0  0  0  0  0
   -6.0693    3.4829   -1.1911 H   0  0  0  0  0  0  0  0  0  0  0  0
   -3.7902    2.5033   -0.7756 H   0  0  0  0  0  0  0  0  0  0  0  0
   -4.5423    1.9100   -2.2757 H   0  0  0  0  0  0  0  0  0  0  0  0
   -1.4096    2.5363   -3.5724 H   0  0  0  0  0  0  0  0  0  0  0  0
   -2.3302    1.3101   -2.7105 H   0  0  0  0  0  0  0  0  0  0  0  0
   -0.4837    3.4701   -1.5440 H   0  0  0  0  0  0  0  0  0  0  0  0
   -1.4913    2.5437   -0.4983 H   0  0  0  0  0  0  0  0  0  0  0  0
    3.2609   -1.7938   -0.5981 H   0  0  0  0  0  0  0  0  0  0  0  0
    4.3927   -0.3200   -2.8903 H   0  0  0  0  0  0  0  0  0  0  0  0
    4.9685   -1.8703   -2.3056 H   0  0  0  0  0  0  0  0  0  0  0  0
    4.7822    0.7313   -0.7131 H   0  0  0  0  0  0  0  0  0  0  0  0
    6.2826   -0.0424   -1.2244 H   0  0  0  0  0  0  0  0  0  0  0  0
    4.7188    0.4753    1.7864 H   0  0  0  0  0  0  0  0  0  0  0  0
    6.3967    0.5836    1.2197 H   0  0  0  0  0  0  0  0  0  0  0  0
    5.3248   -1.6240    3.0646 H   0  0  0  0  0  0  0  0  0  0  0  0
    6.2748   -0.2280    3.5763 H   0  0  0  0  0  0  0  0  0  0  0  0
    8.0702   -1.1534    0.6372 H   0  0  0  0  0  0  0  0  0  0  0  0
    8.0979   -2.8636    1.0665 H   0  0  0  0  0  0  0  0  0  0  0  0
    5.6291   -3.0009    0.8457 H   0  0  0  0  0  0  0  0  0  0  0  0
    6.3739   -2.5112   -0.6656 H   0  0  0  0  0  0  0  0  0  0  0  0
    1.3402   -2.7721   -0.2176 H   0  0  0  0  0  0  0  0  0  0  0  0
   -1.7434   -3.0386    2.6580 H   0  0  0  0  0  0  0  0  0  0  0  0
   -3.8344   -3.6672    3.8400 H   0  0  0  0  0  0  0  0  0  0  0  0
   -7.5645   -2.6284    1.6868 H   0  0  0  0  0  0  0  0  0  0  0  0
   -7.3826   -1.2007    2.7791 H   0  0  0  0  0  0  0  0  0  0  0  0
   -8.2248   -2.6554    3.3265 H   0  0  0  0  0  0  0  0  0  0  0  0
   -4.1623   -0.6631    0.0034 H   0  0  0  0  0  0  0  0  0  0  0  0
   -2.1707    0.6127   -0.0219 H   0  0  0  0  0  0  0  0  0  0  0  0
  1  2  1  0
  2  3  1  0
  3  4  1  0
  4  5  1  0
  5  6  1  0
  6  7  1  0
  7  8  1  0
  8  9  2  0
  8 10  1  0
 10 11  2  0
 11 12  1  0
 12 13  1  0
 13 14  1  0
 14 15  1  0
 15 16  1  0
 16 17  1  0
 17 18  1  0
 18 19  1  0
 19 20  1  0
 11 21  1  0
 21 22  1  0
 22 23  2  0
 23 24  1  0
 24 25  1  0
 25 26  2  0
 26 27  1  0
 27 28  2  0
 28 29  1  0
 29 30  1  0
 28 31  1  0
 31 32  2  0
 24 33  2  0
 33 34  1  0
 34  7  1  0
 20 15  1  0
 34 21  2  0
 32 25  1  0
  1 35  1  0
  1 36  1  0
  1 37  1  0
  2 38  1  0
  2 39  1  0
  3 40  1  0
  3 41  1  0
  5 42  1  0
  5 43  1  0
  6 44  1  0
  6 45  1  0
 12 46  1  0
 13 47  1  0
 13 48  1  0
 14 49  1  0
 14 50  1  0
 16 51  1  0
 16 52  1  0
 17 53  1  0
 17 54  1  0
 19 55  1  0
 19 56  1  0
 20 57  1  0
 20 58  1  0
 22 59  1  0
 26 60  1  0
 27 61  1  0
 30 62  1  0
 30 63  1  0
 30 64  1  0
 32 65  1  0
 33 66  1  0
M  END
$$$$
