


 33 36  0  0  0  0  0  0  0  0999 V2000
    1.5810   66.2384   84.9250 N   0  0  0  0  0  0  0  0  0  0  0  0
    1.9336   66.5321   85.8238 H   0  0  0  0  0  0  0  0  0  0  0  0
   -0.5727   63.3910   84.2290 C   0  0  0  0  0  0  0  0  0  0  0  0
    0.1781   64.5112   84.0565 N   0  0  0  0  0  0  0  0  0  0  0  0
    0.8032   65.0934   85.1023 C   0  0  0  0  0  0  0  0  0  0  0  0
    0.7725   64.6484   86.3752 N   0  0  0  0  0  0  0  0  0  0  0  0
    0.0288   63.5427   86.5145 C   0  0  0  0  0  0  0  0  0  0  0  0
   -0.6595   62.8650   85.5271 C   0  0  0  0  0  0  0  0  0  0  0  0
   -1.3012   61.7562   86.0449 N   0  0  0  0  0  0  0  0  0  0  0  0
   -1.0150   61.7744   87.3304 C   0  0  0  0  0  0  0  0  0  0  0  0
   -0.2153   62.8347   87.6573 N   0  0  0  0  0  0  0  0  0  0  0  0
    0.2871   63.1561   88.9663 C   0  0  0  0  0  0  0  0  0  0  0  0
   -1.2393   62.7903   83.1513 N   0  0  0  0  0  0  0  0  0  0  0  0
   -1.5425   61.8594   83.4331 H   0  0  0  0  0  0  0  0  0  0  0  0
   -0.5317   62.8669   81.8828 C   0  0  0  0  0  0  0  0  0  0  0  0
    1.3180   61.1246   82.0550 C   0  0  0  0  0  0  0  0  0  0  0  0
   -0.0379   61.4815   81.4615 C   0  0  0  0  0  0  0  0  0  0  0  0
    1.8443   67.0766   83.8367 C   0  0  0  0  0  0  0  0  0  0  0  0
    1.3986   66.8280   82.5334 C   0  0  0  0  0  0  0  0  0  0  0  0
    1.7195   67.6876   81.4763 C   0  0  0  0  0  0  0  0  0  0  0  0
    2.4891   68.8247   81.7185 C   0  0  0  0  0  0  0  0  0  0  0  0
    2.9798   69.0770   82.9991 C   0  0  0  0  0  0  0  0  0  0  0  0
    2.6524   68.2086   84.0455 C   0  0  0  0  0  0  0  0  0  0  0  0
    2.9260   69.9038   80.3710 S   0  0  0  0  0  0  0  0  0  0  0  0
    2.4838   69.2722   79.1454 O   0  0  0  0  0  0  0  0  0  0  0  0
    4.3108   70.2864   80.5557 O   0  0  0  0  0  0  0  0  0  0  0  0
    1.9689   71.2729   80.6306 N   0  0  0  0  0  0  0  0  0  0  0  0
    0.6674   71.0734   81.3259 C   0  0  0  0  0  0  0  0  0  0  0  0
   -0.0176   72.4286   81.5809 C   0  0  0  0  0  0  0  0  0  0  0  0
    0.7589   73.3052   82.4839 N   0  0  0  0  0  0  0  0  0  0  0  0
    0.3677   74.7010   82.3034 C   0  0  0  0  0  0  0  0  0  0  0  0
    2.2137   73.1123   82.3186 C   0  0  0  0  0  0  0  0  0  0  0  0
    2.6477   72.5594   80.9478 C   0  0  0  0  0  0  0  0  0  0  0  0
 16 17  1  0  0  0
 17 15  1  0  0  0
 15 13  1  0  0  0
 13  3  1  0  0  0
  3  4  1  0  0  0
  4  5  2  0  0  0
  5  1  1  0  0  0
  1 18  1  0  0  0
 18 19  1  0  0  0
 19 20  2  0  0  0
 20 21  1  0  0  0
 21 24  1  0  0  0
 24 25  2  0  0  0
 24 26  2  0  0  0
 24 27  1  0  0  0
 27 28  1  0  0  0
 28 29  1  0  0  0
 29 30  1  0  0  0
 30 31  1  0  0  0
 30 32  1  0  0  0
 32 33  1  0  0  0
 21 22  2  0  0  0
 22 23  1  0  0  0
  5  6  1  0  0  0
  6  7  2  0  0  0
  7  8  1  0  0  0
  8  9  1  0  0  0
  9 10  2  0  0  0
 10 11  1  0  0  0
 11 12  1  0  0  0
  8  3  2  0  0  0
 23 18  2  0  0  0
 11  7  1  0  0  0
 33 27  1  0  0  0
 13 14  1  0  0  0
  1  2  1  0  0  0
M  END
> <minimizedAffinity>
-9.20111

$$$$



 33 36  0  0  0  0  0  0  0  0999 V2000
    0.8252   65.0777   83.8044 N   0  0  0  0  0  0  0  0  0  0  0  0
    0.3547   64.3637   83.2686 H   0  0  0  0  0  0  0  0  0  0  0  0
    2.2583   64.2923   87.0540 C   0  0  0  0  0  0  0  0  0  0  0  0
    2.1367   64.7149   85.7677 N   0  0  0  0  0  0  0  0  0  0  0  0
    0.9532   64.6364   85.1221 C   0  0  0  0  0  0  0  0  0  0  0  0
   -0.1949   64.1680   85.6529 N   0  0  0  0  0  0  0  0  0  0  0  0
   -0.0461   63.7622   86.9210 C   0  0  0  0  0  0  0  0  0  0  0  0
    1.1083   63.7862   87.6792 C   0  0  0  0  0  0  0  0  0  0  0  0
    0.8731   63.3022   88.9519 N   0  0  0  0  0  0  0  0  0  0  0  0
   -0.4033   62.9771   88.9552 C   0  0  0  0  0  0  0  0  0  0  0  0
   -0.9965   63.2379   87.7508 N   0  0  0  0  0  0  0  0  0  0  0  0
   -2.3744   63.0075   87.4077 C   0  0  0  0  0  0  0  0  0  0  0  0
    3.4877   64.3541   87.7258 N   0  0  0  0  0  0  0  0  0  0  0  0
    3.3568   64.8606   88.6000 H   0  0  0  0  0  0  0  0  0  0  0  0
    4.6055   64.7911   86.9041 C   0  0  0  0  0  0  0  0  0  0  0  0
    5.7530   65.4119   89.0915 C   0  0  0  0  0  0  0  0  0  0  0  0
    5.4517   65.8203   87.6561 C   0  0  0  0  0  0  0  0  0  0  0  0
    1.3038   66.1867   83.0991 C   0  0  0  0  0  0  0  0  0  0  0  0
    1.3496   66.2638   81.7023 C   0  0  0  0  0  0  0  0  0  0  0  0
    1.8687   67.3886   81.0505 C   0  0  0  0  0  0  0  0  0  0  0  0
    2.3418   68.4653   81.7994 C   0  0  0  0  0  0  0  0  0  0  0  0
    2.3448   68.4003   83.1923 C   0  0  0  0  0  0  0  0  0  0  0  0
    1.8245   67.2695   83.8301 C   0  0  0  0  0  0  0  0  0  0  0  0
    3.0318   69.8846   80.9746 S   0  0  0  0  0  0  0  0  0  0  0  0
    2.6319   69.8185   79.5845 O   0  0  0  0  0  0  0  0  0  0  0  0
    4.4297   69.9626   81.3460 O   0  0  0  0  0  0  0  0  0  0  0  0
    2.2299   71.1899   81.6897 N   0  0  0  0  0  0  0  0  0  0  0  0
    3.0580   72.1639   82.4529 C   0  0  0  0  0  0  0  0  0  0  0  0
    2.1918   73.3417   82.9358 C   0  0  0  0  0  0  0  0  0  0  0  0
    1.6185   74.1288   81.8229 N   0  0  0  0  0  0  0  0  0  0  0  0
    0.4484   74.8773   82.2750 C   0  0  0  0  0  0  0  0  0  0  0  0
    1.3153   73.2823   80.6514 C   0  0  0  0  0  0  0  0  0  0  0  0
    1.0773   71.7931   80.9657 C   0  0  0  0  0  0  0  0  0  0  0  0
 16 17  1  0  0  0
 17 15  1  0  0  0
 15 13  1  0  0  0
 13  3  1  0  0  0
  3  4  1  0  0  0
  4  5  2  0  0  0
  5  1  1  0  0  0
  1 18  1  0  0  0
 18 19  1  0  0  0
 19 20  2  0  0  0
 20 21  1  0  0  0
 21 24  1  0  0  0
 24 25  2  0  0  0
 24 26  2  0  0  0
 24 27  1  0  0  0
 27 28  1  0  0  0
 28 29  1  0  0  0
 29 30  1  0  0  0
 30 31  1  0  0  0
 30 32  1  0  0  0
 32 33  1  0  0  0
 21 22  2  0  0  0
 22 23  1  0  0  0
  5  6  1  0  0  0
  6  7  2  0  0  0
  7  8  1  0  0  0
  8  9  1  0  0  0
  9 10  2  0  0  0
 10 11  1  0  0  0
 11 12  1  0  0  0
  8  3  2  0  0  0
 23 18  2  0  0  0
 11  7  1  0  0  0
 33 27  1  0  0  0
 13 14  1  0  0  0
  1  2  1  0  0  0
M  END
> <minimizedAffinity>
-9.10296

$$$$



 33 36  0  0  0  0  0  0  0  0999 V2000
    1.7428   66.0549   85.0717 N   0  0  0  0  0  0  0  0  0  0  0  0
    2.2196   66.2096   85.9474 H   0  0  0  0  0  0  0  0  0  0  0  0
   -0.6880   63.4550   84.3217 C   0  0  0  0  0  0  0  0  0  0  0  0
    0.1582   64.5087   84.1747 N   0  0  0  0  0  0  0  0  0  0  0  0
    0.8675   64.9786   85.2233 C   0  0  0  0  0  0  0  0  0  0  0  0
    0.8355   64.4756   86.4744 N   0  0  0  0  0  0  0  0  0  0  0  0
   -0.0033   63.4372   86.5888 C   0  0  0  0  0  0  0  0  0  0  0  0
   -0.7826   62.8753   85.5962 C   0  0  0  0  0  0  0  0  0  0  0  0
   -1.5083   61.8057   86.0846 N   0  0  0  0  0  0  0  0  0  0  0  0
   -1.1814   61.7337   87.3585 C   0  0  0  0  0  0  0  0  0  0  0  0
   -0.2763   62.6986   87.7054 N   0  0  0  0  0  0  0  0  0  0  0  0
    0.2948   62.9073   89.0091 C   0  0  0  0  0  0  0  0  0  0  0  0
   -1.4413   62.9721   83.2419 N   0  0  0  0  0  0  0  0  0  0  0  0
   -1.9694   62.1576   83.5508 H   0  0  0  0  0  0  0  0  0  0  0  0
   -0.6919   62.8075   82.0062 C   0  0  0  0  0  0  0  0  0  0  0  0
    1.2527   61.1653   82.0996 C   0  0  0  0  0  0  0  0  0  0  0  0
   -0.2365   61.3556   81.8465 C   0  0  0  0  0  0  0  0  0  0  0  0
    1.9784   66.9806   84.0500 C   0  0  0  0  0  0  0  0  0  0  0  0
    1.5342   66.8198   82.7324 C   0  0  0  0  0  0  0  0  0  0  0  0
    1.8269   67.7661   81.7434 C   0  0  0  0  0  0  0  0  0  0  0  0
    2.5659   68.9024   82.0701 C   0  0  0  0  0  0  0  0  0  0  0  0
    3.0548   69.0698   83.3652 C   0  0  0  0  0  0  0  0  0  0  0  0
    2.7558   68.1154   84.3429 C   0  0  0  0  0  0  0  0  0  0  0  0
    2.9673   70.0928   80.8080 S   0  0  0  0  0  0  0  0  0  0  0  0
    2.2451   69.7188   79.6100 O   0  0  0  0  0  0  0  0  0  0  0  0
    4.4083   70.2394   80.7953 O   0  0  0  0  0  0  0  0  0  0  0  0
    2.3029   71.5331   81.3930 N   0  0  0  0  0  0  0  0  0  0  0  0
    2.8291   72.8060   80.8277 C   0  0  0  0  0  0  0  0  0  0  0  0
    2.0397   74.0059   81.3824 C   0  0  0  0  0  0  0  0  0  0  0  0
    0.6130   73.9854   80.9943 N   0  0  0  0  0  0  0  0  0  0  0  0
   -0.1786   74.8023   81.9108 C   0  0  0  0  0  0  0  0  0  0  0  0
    0.0924   72.6073   80.8908 C   0  0  0  0  0  0  0  0  0  0  0  0
    0.8516   71.5579   81.7246 C   0  0  0  0  0  0  0  0  0  0  0  0
 16 17  1  0  0  0
 17 15  1  0  0  0
 15 13  1  0  0  0
 13  3  1  0  0  0
  3  4  1  0  0  0
  4  5  2  0  0  0
  5  1  1  0  0  0
  1 18  1  0  0  0
 18 19  1  0  0  0
 19 20  2  0  0  0
 20 21  1  0  0  0
 21 24  1  0  0  0
 24 25  2  0  0  0
 24 26  2  0  0  0
 24 27  1  0  0  0
 27 28  1  0  0  0
 28 29  1  0  0  0
 29 30  1  0  0  0
 30 31  1  0  0  0
 30 32  1  0  0  0
 32 33  1  0  0  0
 21 22  2  0  0  0
 22 23  1  0  0  0
  5  6  1  0  0  0
  6  7  2  0  0  0
  7  8  1  0  0  0
  8  9  1  0  0  0
  9 10  2  0  0  0
 10 11  1  0  0  0
 11 12  1  0  0  0
  8  3  2  0  0  0
 23 18  2  0  0  0
 11  7  1  0  0  0
 33 27  1  0  0  0
 13 14  1  0  0  0
  1  2  1  0  0  0
M  END
> <minimizedAffinity>
-9.07179

$$$$



 33 36  0  0  0  0  0  0  0  0999 V2000
    0.6766   65.5759   83.9433 N   0  0  0  0  0  0  0  0  0  0  0  0
    0.4900   66.5556   84.0969 H   0  0  0  0  0  0  0  0  0  0  0  0
    2.2756   64.3659   86.9781 C   0  0  0  0  0  0  0  0  0  0  0  0
    2.0874   64.9601   85.7700 N   0  0  0  0  0  0  0  0  0  0  0  0
    0.8729   64.9589   85.1796 C   0  0  0  0  0  0  0  0  0  0  0  0
   -0.2451   64.4101   85.6972 N   0  0  0  0  0  0  0  0  0  0  0  0
   -0.0307   63.8353   86.8883 C   0  0  0  0  0  0  0  0  0  0  0  0
    1.1606   63.7668   87.5841 C   0  0  0  0  0  0  0  0  0  0  0  0
    0.9920   63.1099   88.7880 N   0  0  0  0  0  0  0  0  0  0  0  0
   -0.2815   62.7742   88.8101 C   0  0  0  0  0  0  0  0  0  0  0  0
   -0.9360   63.1920   87.6842 N   0  0  0  0  0  0  0  0  0  0  0  0
   -2.3287   62.9967   87.3817 C   0  0  0  0  0  0  0  0  0  0  0  0
    3.5373   64.3476   87.5899 N   0  0  0  0  0  0  0  0  0  0  0  0
    3.4546   64.7531   88.5208 H   0  0  0  0  0  0  0  0  0  0  0  0
    4.6169   64.8702   86.7671 C   0  0  0  0  0  0  0  0  0  0  0  0
    5.7173   65.4376   88.9929 C   0  0  0  0  0  0  0  0  0  0  0  0
    5.4536   65.8768   87.5592 C   0  0  0  0  0  0  0  0  0  0  0  0
    0.5676   65.1088   82.6294 C   0  0  0  0  0  0  0  0  0  0  0  0
    0.3565   63.7667   82.2925 C   0  0  0  0  0  0  0  0  0  0  0  0
    0.2865   63.3522   80.9573 C   0  0  0  0  0  0  0  0  0  0  0  0
    0.4168   64.2901   79.9339 C   0  0  0  0  0  0  0  0  0  0  0  0
    0.6669   65.6276   80.2392 C   0  0  0  0  0  0  0  0  0  0  0  0
    0.7359   66.0272   81.5778 C   0  0  0  0  0  0  0  0  0  0  0  0
    0.3600   63.7623   78.2342 S   0  0  0  0  0  0  0  0  0  0  0  0
    1.5424   62.9643   77.9855 O   0  0  0  0  0  0  0  0  0  0  0  0
    0.0647   64.9296   77.4291 O   0  0  0  0  0  0  0  0  0  0  0  0
   -0.9845   62.7389   78.1796 N   0  0  0  0  0  0  0  0  0  0  0  0
   -2.1520   63.1890   77.3726 C   0  0  0  0  0  0  0  0  0  0  0  0
   -3.2342   62.0944   77.3382 C   0  0  0  0  0  0  0  0  0  0  0  0
   -2.7772   60.8537   76.6758 N   0  0  0  0  0  0  0  0  0  0  0  0
   -3.5951   59.7184   77.0953 C   0  0  0  0  0  0  0  0  0  0  0  0
   -1.3376   60.6112   76.8986 C   0  0  0  0  0  0  0  0  0  0  0  0
   -0.7525   61.2683   78.1631 C   0  0  0  0  0  0  0  0  0  0  0  0
 16 17  1  0  0  0
 17 15  1  0  0  0
 15 13  1  0  0  0
 13  3  1  0  0  0
  3  4  1  0  0  0
  4  5  2  0  0  0
  5  1  1  0  0  0
  1 18  1  0  0  0
 18 19  1  0  0  0
 19 20  2  0  0  0
 20 21  1  0  0  0
 21 24  1  0  0  0
 24 25  2  0  0  0
 24 26  2  0  0  0
 24 27  1  0  0  0
 27 28  1  0  0  0
 28 29  1  0  0  0
 29 30  1  0  0  0
 30 31  1  0  0  0
 30 32  1  0  0  0
 32 33  1  0  0  0
 21 22  2  0  0  0
 22 23  1  0  0  0
  5  6  1  0  0  0
  6  7  2  0  0  0
  7  8  1  0  0  0
  8  9  1  0  0  0
  9 10  2  0  0  0
 10 11  1  0  0  0
 11 12  1  0  0  0
  8  3  2  0  0  0
 23 18  2  0  0  0
 11  7  1  0  0  0
 33 27  1  0  0  0
 13 14  1  0  0  0
  1  2  1  0  0  0
M  END
> <minimizedAffinity>
-9.03133

$$$$



 33 36  0  0  0  0  0  0  0  0999 V2000
    0.7547   64.7199   84.6931 N   0  0  0  0  0  0  0  0  0  0  0  0
    0.7257   64.5226   85.6823 H   0  0  0  0  0  0  0  0  0  0  0  0
    4.0149   66.3325   84.6688 C   0  0  0  0  0  0  0  0  0  0  0  0
    3.0233   65.4349   84.9120 N   0  0  0  0  0  0  0  0  0  0  0  0
    1.7714   65.6446   84.4512 C   0  0  0  0  0  0  0  0  0  0  0  0
    1.3778   66.7069   83.7192 N   0  0  0  0  0  0  0  0  0  0  0  0
    2.3753   67.5720   83.4925 C   0  0  0  0  0  0  0  0  0  0  0  0
    3.6863   67.4701   83.9156 C   0  0  0  0  0  0  0  0  0  0  0  0
    4.4323   68.5464   83.4750 N   0  0  0  0  0  0  0  0  0  0  0  0
    3.5779   69.2944   82.8076 C   0  0  0  0  0  0  0  0  0  0  0  0
    2.3258   68.7446   82.7928 N   0  0  0  0  0  0  0  0  0  0  0  0
    1.1580   69.2924   82.1560 C   0  0  0  0  0  0  0  0  0  0  0  0
    5.3134   66.1308   85.1585 N   0  0  0  0  0  0  0  0  0  0  0  0
    5.5855   65.1664   84.9744 H   0  0  0  0  0  0  0  0  0  0  0  0
    5.5269   66.5984   86.5192 C   0  0  0  0  0  0  0  0  0  0  0  0
    5.5340   65.4743   88.8046 C   0  0  0  0  0  0  0  0  0  0  0  0
    6.0930   65.4738   87.3884 C   0  0  0  0  0  0  0  0  0  0  0  0
   -0.0903   63.9662   83.8719 C   0  0  0  0  0  0  0  0  0  0  0  0
   -0.6329   64.4347   82.6696 C   0  0  0  0  0  0  0  0  0  0  0  0
   -1.4988   63.6454   81.9037 C   0  0  0  0  0  0  0  0  0  0  0  0
   -1.8245   62.3593   82.3327 C   0  0  0  0  0  0  0  0  0  0  0  0
   -1.3302   61.8808   83.5456 C   0  0  0  0  0  0  0  0  0  0  0  0
   -0.4673   62.6811   84.3013 C   0  0  0  0  0  0  0  0  0  0  0  0
   -2.9504   61.3641   81.3773 S   0  0  0  0  0  0  0  0  0  0  0  0
   -3.9582   62.2484   80.8306 O   0  0  0  0  0  0  0  0  0  0  0  0
   -3.3199   60.2260   82.1936 O   0  0  0  0  0  0  0  0  0  0  0  0
   -1.9979   60.8005   80.0994 N   0  0  0  0  0  0  0  0  0  0  0  0
   -2.5966   59.7720   79.2045 C   0  0  0  0  0  0  0  0  0  0  0  0
   -1.6443   59.4580   78.0361 C   0  0  0  0  0  0  0  0  0  0  0  0
   -1.4054   60.6242   77.1588 N   0  0  0  0  0  0  0  0  0  0  0  0
   -0.1645   60.4536   76.4072 C   0  0  0  0  0  0  0  0  0  0  0  0
   -1.4245   61.8926   77.9150 C   0  0  0  0  0  0  0  0  0  0  0  0
   -1.0935   61.7643   79.4141 C   0  0  0  0  0  0  0  0  0  0  0  0
 16 17  1  0  0  0
 17 15  1  0  0  0
 15 13  1  0  0  0
 13  3  1  0  0  0
  3  4  1  0  0  0
  4  5  2  0  0  0
  5  1  1  0  0  0
  1 18  1  0  0  0
 18 19  1  0  0  0
 19 20  2  0  0  0
 20 21  1  0  0  0
 21 24  1  0  0  0
 24 25  2  0  0  0
 24 26  2  0  0  0
 24 27  1  0  0  0
 27 28  1  0  0  0
 28 29  1  0  0  0
 29 30  1  0  0  0
 30 31  1  0  0  0
 30 32  1  0  0  0
 32 33  1  0  0  0
 21 22  2  0  0  0
 22 23  1  0  0  0
  5  6  1  0  0  0
  6  7  2  0  0  0
  7  8  1  0  0  0
  8  9  1  0  0  0
  9 10  2  0  0  0
 10 11  1  0  0  0
 11 12  1  0  0  0
  8  3  2  0  0  0
 23 18  2  0  0  0
 11  7  1  0  0  0
 33 27  1  0  0  0
 13 14  1  0  0  0
  1  2  1  0  0  0
M  END
> <minimizedAffinity>
-8.93375

$$$$



 33 36  0  0  0  0  0  0  0  0999 V2000
    1.3366   65.2560   84.5510 N   0  0  0  0  0  0  0  0  0  0  0  0
    1.7824   65.2576   85.4563 H   0  0  0  0  0  0  0  0  0  0  0  0
   -0.8473   62.5416   85.5963 C   0  0  0  0  0  0  0  0  0  0  0  0
    0.0623   63.5511   85.6352 N   0  0  0  0  0  0  0  0  0  0  0  0
    0.4093   64.2140   84.5110 C   0  0  0  0  0  0  0  0  0  0  0  0
   -0.0899   63.9770   83.2806 N   0  0  0  0  0  0  0  0  0  0  0  0
   -0.9853   62.9804   83.2732 C   0  0  0  0  0  0  0  0  0  0  0  0
   -1.4127   62.2289   84.3506 C   0  0  0  0  0  0  0  0  0  0  0  0
   -2.3588   61.3004   83.9605 N   0  0  0  0  0  0  0  0  0  0  0  0
   -2.4885   61.4807   82.6622 C   0  0  0  0  0  0  0  0  0  0  0  0
   -1.6788   62.4839   82.2057 N   0  0  0  0  0  0  0  0  0  0  0  0
   -1.5697   62.9445   80.8473 C   0  0  0  0  0  0  0  0  0  0  0  0
   -1.2001   61.8367   86.7562 N   0  0  0  0  0  0  0  0  0  0  0  0
   -1.6344   60.9564   86.4837 H   0  0  0  0  0  0  0  0  0  0  0  0
   -1.9261   62.6200   87.7435 C   0  0  0  0  0  0  0  0  0  0  0  0
    0.1644   62.1905   89.1334 C   0  0  0  0  0  0  0  0  0  0  0  0
   -0.9692   63.1543   88.8110 C   0  0  0  0  0  0  0  0  0  0  0  0
    1.6557   66.3080   83.6861 C   0  0  0  0  0  0  0  0  0  0  0  0
    1.5491   66.2332   82.2925 C   0  0  0  0  0  0  0  0  0  0  0  0
    1.9128   67.3092   81.4744 C   0  0  0  0  0  0  0  0  0  0  0  0
    2.3811   68.4892   82.0507 C   0  0  0  0  0  0  0  0  0  0  0  0
    2.5348   68.5786   83.4338 C   0  0  0  0  0  0  0  0  0  0  0  0
    2.1689   67.4950   84.2388 C   0  0  0  0  0  0  0  0  0  0  0  0
    2.8745   69.8489   81.0122 S   0  0  0  0  0  0  0  0  0  0  0  0
    2.2726   69.6449   79.7112 O   0  0  0  0  0  0  0  0  0  0  0  0
    4.3075   70.0038   81.1553 O   0  0  0  0  0  0  0  0  0  0  0  0
    2.1324   71.1879   81.7294 N   0  0  0  0  0  0  0  0  0  0  0  0
    3.0102   72.1467   82.4555 C   0  0  0  0  0  0  0  0  0  0  0  0
    2.1935   73.3570   82.9443 C   0  0  0  0  0  0  0  0  0  0  0  0
    1.6137   74.1457   81.8359 N   0  0  0  0  0  0  0  0  0  0  0  0
    0.4796   74.9358   82.3086 C   0  0  0  0  0  0  0  0  0  0  0  0
    1.2529   73.2926   80.6857 C   0  0  0  0  0  0  0  0  0  0  0  0
    0.9789   71.8159   81.0282 C   0  0  0  0  0  0  0  0  0  0  0  0
 16 17  1  0  0  0
 17 15  1  0  0  0
 15 13  1  0  0  0
 13  3  1  0  0  0
  3  4  1  0  0  0
  4  5  2  0  0  0
  5  1  1  0  0  0
  1 18  1  0  0  0
 18 19  1  0  0  0
 19 20  2  0  0  0
 20 21  1  0  0  0
 21 24  1  0  0  0
 24 25  2  0  0  0
 24 26  2  0  0  0
 24 27  1  0  0  0
 27 28  1  0  0  0
 28 29  1  0  0  0
 29 30  1  0  0  0
 30 31  1  0  0  0
 30 32  1  0  0  0
 32 33  1  0  0  0
 21 22  2  0  0  0
 22 23  1  0  0  0
  5  6  1  0  0  0
  6  7  2  0  0  0
  7  8  1  0  0  0
  8  9  1  0  0  0
  9 10  2  0  0  0
 10 11  1  0  0  0
 11 12  1  0  0  0
  8  3  2  0  0  0
 23 18  2  0  0  0
 11  7  1  0  0  0
 33 27  1  0  0  0
 13 14  1  0  0  0
  1  2  1  0  0  0
M  END
> <minimizedAffinity>
-8.91581

$$$$



 33 36  0  0  0  0  0  0  0  0999 V2000
    1.8610   66.6566   82.5994 N   0  0  0  0  0  0  0  0  0  0  0  0
    1.6300   67.6332   82.7046 H   0  0  0  0  0  0  0  0  0  0  0  0
    2.4947   65.1035   85.8270 C   0  0  0  0  0  0  0  0  0  0  0  0
    1.8548   65.5307   84.7062 N   0  0  0  0  0  0  0  0  0  0  0  0
    2.5147   66.2248   83.7542 C   0  0  0  0  0  0  0  0  0  0  0  0
    3.8237   66.5480   83.7913 N   0  0  0  0  0  0  0  0  0  0  0  0
    4.4287   66.1118   84.9043 C   0  0  0  0  0  0  0  0  0  0  0  0
    3.8606   65.4029   85.9449 C   0  0  0  0  0  0  0  0  0  0  0  0
    4.8006   65.1116   86.9149 N   0  0  0  0  0  0  0  0  0  0  0  0
    5.9172   65.6510   86.4709 C   0  0  0  0  0  0  0  0  0  0  0  0
    5.7387   66.2645   85.2616 N   0  0  0  0  0  0  0  0  0  0  0  0
    6.7432   66.9494   84.4928 C   0  0  0  0  0  0  0  0  0  0  0  0
    1.8126   64.3973   86.8283 N   0  0  0  0  0  0  0  0  0  0  0  0
    2.3813   63.6007   87.1109 H   0  0  0  0  0  0  0  0  0  0  0  0
    0.4217   64.1029   86.5213 C   0  0  0  0  0  0  0  0  0  0  0  0
    0.4987   63.0151   88.8229 C   0  0  0  0  0  0  0  0  0  0  0  0
   -0.3469   63.7597   87.7989 C   0  0  0  0  0  0  0  0  0  0  0  0
    1.3808   66.0119   81.4548 C   0  0  0  0  0  0  0  0  0  0  0  0
    1.8375   66.2781   80.1587 C   0  0  0  0  0  0  0  0  0  0  0  0
    1.2972   65.6229   79.0460 C   0  0  0  0  0  0  0  0  0  0  0  0
    0.2904   64.6747   79.2229 C   0  0  0  0  0  0  0  0  0  0  0  0
   -0.2115   64.4175   80.4982 C   0  0  0  0  0  0  0  0  0  0  0  0
    0.3369   65.0809   81.6007 C   0  0  0  0  0  0  0  0  0  0  0  0
   -0.4216   63.8621   77.8073 S   0  0  0  0  0  0  0  0  0  0  0  0
    0.6312   63.1038   77.1644 O   0  0  0  0  0  0  0  0  0  0  0  0
   -1.1795   64.8557   77.0749 O   0  0  0  0  0  0  0  0  0  0  0  0
   -1.5173   62.7677   78.4855 N   0  0  0  0  0  0  0  0  0  0  0  0
   -2.7798   62.5148   77.7378 C   0  0  0  0  0  0  0  0  0  0  0  0
   -3.6035   61.4151   78.4327 C   0  0  0  0  0  0  0  0  0  0  0  0
   -2.9137   60.1073   78.4560 N   0  0  0  0  0  0  0  0  0  0  0  0
   -3.4558   59.2616   79.5166 C   0  0  0  0  0  0  0  0  0  0  0  0
   -1.4490   60.2614   78.5652 C   0  0  0  0  0  0  0  0  0  0  0  0
   -0.9769   61.5811   79.2043 C   0  0  0  0  0  0  0  0  0  0  0  0
 16 17  1  0  0  0
 17 15  1  0  0  0
 15 13  1  0  0  0
 13  3  1  0  0  0
  3  4  1  0  0  0
  4  5  2  0  0  0
  5  1  1  0  0  0
  1 18  1  0  0  0
 18 19  1  0  0  0
 19 20  2  0  0  0
 20 21  1  0  0  0
 21 24  1  0  0  0
 24 25  2  0  0  0
 24 26  2  0  0  0
 24 27  1  0  0  0
 27 28  1  0  0  0
 28 29  1  0  0  0
 29 30  1  0  0  0
 30 31  1  0  0  0
 30 32  1  0  0  0
 32 33  1  0  0  0
 21 22  2  0  0  0
 22 23  1  0  0  0
  5  6  1  0  0  0
  6  7  2  0  0  0
  7  8  1  0  0  0
  8  9  1  0  0  0
  9 10  2  0  0  0
 10 11  1  0  0  0
 11 12  1  0  0  0
  8  3  2  0  0  0
 23 18  2  0  0  0
 11  7  1  0  0  0
 33 27  1  0  0  0
 13 14  1  0  0  0
  1  2  1  0  0  0
M  END
> <minimizedAffinity>
-8.88018

$$$$



 33 36  0  0  0  0  0  0  0  0999 V2000
    0.7339   64.7667   84.6441 N   0  0  0  0  0  0  0  0  0  0  0  0
    0.7357   64.5422   85.6279 H   0  0  0  0  0  0  0  0  0  0  0  0
    2.3816   67.8130   83.5324 C   0  0  0  0  0  0  0  0  0  0  0  0
    1.4232   66.8761   83.7600 N   0  0  0  0  0  0  0  0  0  0  0  0
    1.7186   65.7255   84.4024 C   0  0  0  0  0  0  0  0  0  0  0  0
    2.9332   65.3912   84.8841 N   0  0  0  0  0  0  0  0  0  0  0  0
    3.8560   66.3335   84.6485 C   0  0  0  0  0  0  0  0  0  0  0  0
    3.6763   67.5396   83.9996 C   0  0  0  0  0  0  0  0  0  0  0  0
    4.8550   68.2597   83.9609 N   0  0  0  0  0  0  0  0  0  0  0  0
    5.7366   67.4905   84.5658 C   0  0  0  0  0  0  0  0  0  0  0  0
    5.1772   66.3191   84.9965 N   0  0  0  0  0  0  0  0  0  0  0  0
    5.8491   65.2555   85.6940 C   0  0  0  0  0  0  0  0  0  0  0  0
    2.0870   69.0026   82.8507 N   0  0  0  0  0  0  0  0  0  0  0  0
    1.3768   69.5116   83.3745 H   0  0  0  0  0  0  0  0  0  0  0  0
    1.8262   68.8375   81.4293 C   0  0  0  0  0  0  0  0  0  0  0  0
   -0.3124   67.9914   80.3351 C   0  0  0  0  0  0  0  0  0  0  0  0
    0.3533   69.1131   81.1204 C   0  0  0  0  0  0  0  0  0  0  0  0
   -0.1112   64.0121   83.8239 C   0  0  0  0  0  0  0  0  0  0  0  0
   -0.6529   64.4788   82.6205 C   0  0  0  0  0  0  0  0  0  0  0  0
   -1.5190   63.6887   81.8556 C   0  0  0  0  0  0  0  0  0  0  0  0
   -1.8460   62.4037   82.2868 C   0  0  0  0  0  0  0  0  0  0  0  0
   -1.3526   61.9271   83.5008 C   0  0  0  0  0  0  0  0  0  0  0  0
   -0.4894   62.7282   84.2555 C   0  0  0  0  0  0  0  0  0  0  0  0
   -2.9721   61.4075   81.3328 S   0  0  0  0  0  0  0  0  0  0  0  0
   -3.9581   62.2963   80.7544 O   0  0  0  0  0  0  0  0  0  0  0  0
   -3.3709   60.2904   82.1641 O   0  0  0  0  0  0  0  0  0  0  0  0
   -2.0090   60.8062   80.0802 N   0  0  0  0  0  0  0  0  0  0  0  0
   -2.5945   59.7401   79.2213 C   0  0  0  0  0  0  0  0  0  0  0  0
   -1.6343   59.3922   78.0691 C   0  0  0  0  0  0  0  0  0  0  0  0
   -1.4022   60.5276   77.1505 N   0  0  0  0  0  0  0  0  0  0  0  0
   -0.1565   60.3410   76.4107 C   0  0  0  0  0  0  0  0  0  0  0  0
   -1.4361   61.8226   77.8596 C   0  0  0  0  0  0  0  0  0  0  0  0
   -1.1104   61.7526   79.3636 C   0  0  0  0  0  0  0  0  0  0  0  0
 16 17  1  0  0  0
 17 15  1  0  0  0
 15 13  1  0  0  0
 13  3  1  0  0  0
  3  4  1  0  0  0
  4  5  2  0  0  0
  5  1  1  0  0  0
  1 18  1  0  0  0
 18 19  1  0  0  0
 19 20  2  0  0  0
 20 21  1  0  0  0
 21 24  1  0  0  0
 24 25  2  0  0  0
 24 26  2  0  0  0
 24 27  1  0  0  0
 27 28  1  0  0  0
 28 29  1  0  0  0
 29 30  1  0  0  0
 30 31  1  0  0  0
 30 32  1  0  0  0
 32 33  1  0  0  0
 21 22  2  0  0  0
 22 23  1  0  0  0
  5  6  1  0  0  0
  6  7  2  0  0  0
  7  8  1  0  0  0
  8  9  1  0  0  0
  9 10  2  0  0  0
 10 11  1  0  0  0
 11 12  1  0  0  0
  8  3  2  0  0  0
 23 18  2  0  0  0
 11  7  1  0  0  0
 33 27  1  0  0  0
 13 14  1  0  0  0
  1  2  1  0  0  0
M  END
> <minimizedAffinity>
-8.85221

$$$$



 33 36  0  0  0  0  0  0  0  0999 V2000
   -0.1615   64.3720   81.2587 N   0  0  0  0  0  0  0  0  0  0  0  0
   -0.2698   64.3483   80.2557 H   0  0  0  0  0  0  0  0  0  0  0  0
   -1.5794   62.0519   83.6747 C   0  0  0  0  0  0  0  0  0  0  0  0
   -0.9315   63.1223   83.1432 N   0  0  0  0  0  0  0  0  0  0  0  0
   -0.8191   63.2693   81.8056 C   0  0  0  0  0  0  0  0  0  0  0  0
   -1.3230   62.4240   80.8833 N   0  0  0  0  0  0  0  0  0  0  0  0
   -1.9583   61.3815   81.4352 C   0  0  0  0  0  0  0  0  0  0  0  0
   -2.1307   61.1212   82.7808 C   0  0  0  0  0  0  0  0  0  0  0  0
   -2.8545   59.9595   82.9700 N   0  0  0  0  0  0  0  0  0  0  0  0
   -3.1020   59.5181   81.7539 C   0  0  0  0  0  0  0  0  0  0  0  0
   -2.5798   60.3450   80.7979 N   0  0  0  0  0  0  0  0  0  0  0  0
   -2.6650   60.1669   79.3730 C   0  0  0  0  0  0  0  0  0  0  0  0
   -1.6854   61.8828   85.0628 N   0  0  0  0  0  0  0  0  0  0  0  0
   -2.6445   62.0811   85.3434 H   0  0  0  0  0  0  0  0  0  0  0  0
   -0.6503   62.5519   85.8352 C   0  0  0  0  0  0  0  0  0  0  0  0
   -2.7567   63.0199   87.1883 C   0  0  0  0  0  0  0  0  0  0  0  0
   -1.2439   63.1686   87.1033 C   0  0  0  0  0  0  0  0  0  0  0  0
    0.6713   65.3663   81.7825 C   0  0  0  0  0  0  0  0  0  0  0  0
    0.7335   65.6974   83.1411 C   0  0  0  0  0  0  0  0  0  0  0  0
    1.5643   66.7243   83.6042 C   0  0  0  0  0  0  0  0  0  0  0  0
    2.3597   67.4305   82.7027 C   0  0  0  0  0  0  0  0  0  0  0  0
    2.2892   67.1489   81.3388 C   0  0  0  0  0  0  0  0  0  0  0  0
    1.4534   66.1211   80.8901 C   0  0  0  0  0  0  0  0  0  0  0  0
    3.3942   68.7584   83.2835 S   0  0  0  0  0  0  0  0  0  0  0  0
    2.5636   69.6467   84.0694 O   0  0  0  0  0  0  0  0  0  0  0  0
    4.1449   69.2501   82.1465 O   0  0  0  0  0  0  0  0  0  0  0  0
    4.4778   67.9909   84.3298 N   0  0  0  0  0  0  0  0  0  0  0  0
    4.4546   68.4052   85.7598 C   0  0  0  0  0  0  0  0  0  0  0  0
    5.4157   67.5317   86.5868 C   0  0  0  0  0  0  0  0  0  0  0  0
    5.0266   66.1051   86.6039 N   0  0  0  0  0  0  0  0  0  0  0  0
    6.1741   65.2657   86.9393 C   0  0  0  0  0  0  0  0  0  0  0  0
    4.3922   65.6942   85.3353 C   0  0  0  0  0  0  0  0  0  0  0  0
    4.7699   66.5476   84.1097 C   0  0  0  0  0  0  0  0  0  0  0  0
 16 17  1  0  0  0
 17 15  1  0  0  0
 15 13  1  0  0  0
 13  3  1  0  0  0
  3  4  1  0  0  0
  4  5  2  0  0  0
  5  1  1  0  0  0
  1 18  1  0  0  0
 18 19  1  0  0  0
 19 20  2  0  0  0
 20 21  1  0  0  0
 21 24  1  0  0  0
 24 25  2  0  0  0
 24 26  2  0  0  0
 24 27  1  0  0  0
 27 28  1  0  0  0
 28 29  1  0  0  0
 29 30  1  0  0  0
 30 31  1  0  0  0
 30 32  1  0  0  0
 32 33  1  0  0  0
 21 22  2  0  0  0
 22 23  1  0  0  0
  5  6  1  0  0  0
  6  7  2  0  0  0
  7  8  1  0  0  0
  8  9  1  0  0  0
  9 10  2  0  0  0
 10 11  1  0  0  0
 11 12  1  0  0  0
  8  3  2  0  0  0
 23 18  2  0  0  0
 11  7  1  0  0  0
 33 27  1  0  0  0
 13 14  1  0  0  0
  1  2  1  0  0  0
M  END
> <minimizedAffinity>
-8.83512

$$$$
