


 36 39  0  0  0  0  0  0  0  0999 V2000
    1.0682   65.8771   82.2606 C   0  0  0  0  0  0  0  0  0  0  0  0
    1.6749   67.1133   82.5441 C   0  0  0  0  0  0  0  0  0  0  0  0
    2.0639   67.9676   81.5124 C   0  0  0  0  0  0  0  0  0  0  0  0
    1.9065   67.5788   80.1827 C   0  0  0  0  0  0  0  0  0  0  0  0
    1.3249   66.3435   79.8849 C   0  0  0  0  0  0  0  0  0  0  0  0
    0.8953   65.4887   80.9106 C   0  0  0  0  0  0  0  0  0  0  0  0
   -1.5105   62.7138   85.0251 N   0  0  0  0  0  0  0  0  0  0  0  0
   -1.4129   62.2814   86.3610 C   0  0  0  0  0  0  0  0  0  0  0  0
   -2.2187   61.4785   86.8394 O   0  0  0  0  0  0  0  0  0  0  0  0
   -0.3563   62.8060   87.1375 N   0  0  0  0  0  0  0  0  0  0  0  0
   -0.2841   62.3397   88.5081 C   0  0  0  0  0  0  0  0  0  0  0  0
    0.5927   63.7596   86.7282 C   0  0  0  0  0  0  0  0  0  0  0  0
    1.4611   64.2285   87.4595 O   0  0  0  0  0  0  0  0  0  0  0  0
    0.4373   64.1522   85.3463 C   0  0  0  0  0  0  0  0  0  0  0  0
    1.1817   65.0400   84.6060 N   0  0  0  0  0  0  0  0  0  0  0  0
    0.6273   65.0611   83.4018 C   0  0  0  0  0  0  0  0  0  0  0  0
   -0.4478   64.1954   83.3643 N   0  0  0  0  0  0  0  0  0  0  0  0
   -0.5724   63.6265   84.5935 C   0  0  0  0  0  0  0  0  0  0  0  0
   -1.0303   64.0575   82.5504 H   0  0  0  0  0  0  0  0  0  0  0  0
   -2.5924   62.2009   84.1792 C   0  0  0  0  0  0  0  0  0  0  0  0
   -2.1354   61.1276   83.1787 C   0  0  0  0  0  0  0  0  0  0  0  0
   -2.9057   62.6443   81.3301 C   0  0  0  0  0  0  0  0  0  0  0  0
   -2.2517   61.5506   81.7413 C   0  0  0  0  0  0  0  0  0  0  0  0
    2.8341   69.5284   81.8969 S   0  0  0  0  0  0  0  0  0  0  0  0
    3.4326   70.0170   80.6715 O   0  0  0  0  0  0  0  0  0  0  0  0
    3.6285   69.3364   83.0905 O   0  0  0  0  0  0  0  0  0  0  0  0
    1.5298   70.5329   82.2718 N   0  0  0  0  0  0  0  0  0  0  0  0
    0.3263   70.4598   81.3968 C   0  0  0  0  0  0  0  0  0  0  0  0
   -0.6893   71.5592   81.7617 C   0  0  0  0  0  0  0  0  0  0  0  0
   -0.1651   72.9381   81.6571 N   0  0  0  0  0  0  0  0  0  0  0  0
   -0.5137   73.5539   80.3781 C   0  0  0  0  0  0  0  0  0  0  0  0
    1.2951   72.9876   81.8775 C   0  0  0  0  0  0  0  0  0  0  0  0
    1.8137   71.8869   82.8217 C   0  0  0  0  0  0  0  0  0  0  0  0
    0.3102   64.2647   80.6862 O   0  0  0  0  0  0  0  0  0  0  0  0
    0.1252   63.8496   79.3320 C   0  0  0  0  0  0  0  0  0  0  0  0
    0.5619   62.3988   79.2316 C   0  0  0  0  0  0  0  0  0  0  0  0
 22 23  2  0  0  0
 23 21  1  0  0  0
 21 20  1  0  0  0
 20  7  1  0  0  0
  7  8  1  0  0  0
  8  9  2  0  0  0
  8 10  1  0  0  0
 10 11  1  0  0  0
 10 12  1  0  0  0
 12 13  2  0  0  0
 12 14  1  0  0  0
 14 15  1  0  0  0
 15 16  2  0  0  0
 16  1  1  0  0  0
  1  2  1  0  0  0
  2  3  2  0  0  0
  3 24  1  0  0  0
 24 25  2  0  0  0
 24 26  2  0  0  0
 24 27  1  0  0  0
 27 28  1  0  0  0
 28 29  1  0  0  0
 29 30  1  0  0  0
 30 31  1  0  0  0
 30 32  1  0  0  0
 32 33  1  0  0  0
  3  4  1  0  0  0
  4  5  2  0  0  0
  5  6  1  0  0  0
  6 34  1  0  0  0
 34 35  1  0  0  0
 35 36  1  0  0  0
 16 17  1  0  0  0
 17 18  1  0  0  0
 18  7  1  0  0  0
 18 14  2  0  0  0
  6  1  2  0  0  0
 33 27  1  0  0  0
 17 19  1  0  0  0
M  END
> <minimizedAffinity>
-9.47755

$$$$



 36 39  0  0  0  0  0  0  0  0999 V2000
    2.1822   66.7776   83.4142 C   0  0  0  0  0  0  0  0  0  0  0  0
    1.9246   67.7588   82.4408 C   0  0  0  0  0  0  0  0  0  0  0  0
    2.8103   68.8190   82.2482 C   0  0  0  0  0  0  0  0  0  0  0  0
    3.9360   68.9491   83.0606 C   0  0  0  0  0  0  0  0  0  0  0  0
    4.1942   67.9936   84.0473 C   0  0  0  0  0  0  0  0  0  0  0  0
    3.3326   66.9019   84.2292 C   0  0  0  0  0  0  0  0  0  0  0  0
   -0.8432   63.3668   85.2881 N   0  0  0  0  0  0  0  0  0  0  0  0
   -1.6154   62.3329   84.7260 C   0  0  0  0  0  0  0  0  0  0  0  0
   -2.2882   61.5748   85.4298 O   0  0  0  0  0  0  0  0  0  0  0  0
   -1.5880   62.1927   83.3209 N   0  0  0  0  0  0  0  0  0  0  0  0
   -2.3945   61.1192   82.7747 C   0  0  0  0  0  0  0  0  0  0  0  0
   -0.8278   62.9550   82.4161 C   0  0  0  0  0  0  0  0  0  0  0  0
   -0.7941   62.7578   81.2042 O   0  0  0  0  0  0  0  0  0  0  0  0
   -0.0667   64.0004   83.0606 C   0  0  0  0  0  0  0  0  0  0  0  0
    0.7682   64.9387   82.5011 N   0  0  0  0  0  0  0  0  0  0  0  0
    1.2358   65.6564   83.5132 C   0  0  0  0  0  0  0  0  0  0  0  0
    0.7041   65.1954   84.7012 N   0  0  0  0  0  0  0  0  0  0  0  0
   -0.1128   64.1457   84.4168 C   0  0  0  0  0  0  0  0  0  0  0  0
    0.9297   65.5839   85.6061 H   0  0  0  0  0  0  0  0  0  0  0  0
   -0.8356   63.5510   86.7424 C   0  0  0  0  0  0  0  0  0  0  0  0
    0.5758   63.6276   87.3458 C   0  0  0  0  0  0  0  0  0  0  0  0
    0.2277   62.0024   89.2295 C   0  0  0  0  0  0  0  0  0  0  0  0
    0.6445   63.1940   88.7831 C   0  0  0  0  0  0  0  0  0  0  0  0
    2.4605   70.0525   81.0100 S   0  0  0  0  0  0  0  0  0  0  0  0
    1.8571   69.3642   79.8872 O   0  0  0  0  0  0  0  0  0  0  0  0
    3.6567   70.8484   80.8421 O   0  0  0  0  0  0  0  0  0  0  0  0
    1.2706   71.0106   81.7293 N   0  0  0  0  0  0  0  0  0  0  0  0
    0.0576   71.3275   80.9248 C   0  0  0  0  0  0  0  0  0  0  0  0
   -0.8353   72.3509   81.6519 C   0  0  0  0  0  0  0  0  0  0  0  0
   -0.1724   73.6377   81.9551 N   0  0  0  0  0  0  0  0  0  0  0  0
   -0.4680   74.6502   80.9432 C   0  0  0  0  0  0  0  0  0  0  0  0
    1.2871   73.4770   82.1196 C   0  0  0  0  0  0  0  0  0  0  0  0
    1.6984   72.0935   82.6570 C   0  0  0  0  0  0  0  0  0  0  0  0
    3.5322   65.9245   85.1757 O   0  0  0  0  0  0  0  0  0  0  0  0
    4.8763   65.5369   85.4643 C   0  0  0  0  0  0  0  0  0  0  0  0
    4.9124   65.0315   86.8958 C   0  0  0  0  0  0  0  0  0  0  0  0
 22 23  2  0  0  0
 23 21  1  0  0  0
 21 20  1  0  0  0
 20  7  1  0  0  0
  7  8  1  0  0  0
  8  9  2  0  0  0
  8 10  1  0  0  0
 10 11  1  0  0  0
 10 12  1  0  0  0
 12 13  2  0  0  0
 12 14  1  0  0  0
 14 15  1  0  0  0
 15 16  2  0  0  0
 16  1  1  0  0  0
  1  2  1  0  0  0
  2  3  2  0  0  0
  3 24  1  0  0  0
 24 25  2  0  0  0
 24 26  2  0  0  0
 24 27  1  0  0  0
 27 28  1  0  0  0
 28 29  1  0  0  0
 29 30  1  0  0  0
 30 31  1  0  0  0
 30 32  1  0  0  0
 32 33  1  0  0  0
  3  4  1  0  0  0
  4  5  2  0  0  0
  5  6  1  0  0  0
  6 34  1  0  0  0
 34 35  1  0  0  0
 35 36  1  0  0  0
 16 17  1  0  0  0
 17 18  1  0  0  0
 18  7  1  0  0  0
 18 14  2  0  0  0
  6  1  2  0  0  0
 33 27  1  0  0  0
 17 19  1  0  0  0
M  END
> <minimizedAffinity>
-9.44258

$$$$



 36 39  0  0  0  0  0  0  0  0999 V2000
   -0.1808   63.8873   84.1190 C   0  0  0  0  0  0  0  0  0  0  0  0
   -0.8875   63.4504   82.9847 C   0  0  0  0  0  0  0  0  0  0  0  0
   -1.8603   62.4566   83.0923 C   0  0  0  0  0  0  0  0  0  0  0  0
   -2.1036   61.8432   84.3205 C   0  0  0  0  0  0  0  0  0  0  0  0
   -1.3938   62.2513   85.4531 C   0  0  0  0  0  0  0  0  0  0  0  0
   -0.4381   63.2745   85.3685 C   0  0  0  0  0  0  0  0  0  0  0  0
    3.7645   66.7860   84.6931 N   0  0  0  0  0  0  0  0  0  0  0  0
    4.1988   67.9757   84.0790 C   0  0  0  0  0  0  0  0  0  0  0  0
    5.2398   68.5390   84.4282 O   0  0  0  0  0  0  0  0  0  0  0  0
    3.3932   68.5048   83.0467 N   0  0  0  0  0  0  0  0  0  0  0  0
    3.8692   69.7298   82.4352 C   0  0  0  0  0  0  0  0  0  0  0  0
    2.1663   67.9896   82.5920 C   0  0  0  0  0  0  0  0  0  0  0  0
    1.4725   68.5184   81.7273 O   0  0  0  0  0  0  0  0  0  0  0  0
    1.7864   66.7661   83.2604 C   0  0  0  0  0  0  0  0  0  0  0  0
    0.6739   65.9810   83.0700 N   0  0  0  0  0  0  0  0  0  0  0  0
    0.7825   64.9834   83.9366 C   0  0  0  0  0  0  0  0  0  0  0  0
    1.9481   65.1181   84.6644 N   0  0  0  0  0  0  0  0  0  0  0  0
    2.5789   66.2469   84.2428 C   0  0  0  0  0  0  0  0  0  0  0  0
    2.2326   64.4788   85.3932 H   0  0  0  0  0  0  0  0  0  0  0  0
    4.5644   66.1990   85.7724 C   0  0  0  0  0  0  0  0  0  0  0  0
    5.6898   65.2786   85.2740 C   0  0  0  0  0  0  0  0  0  0  0  0
    8.0531   65.9064   84.6982 C   0  0  0  0  0  0  0  0  0  0  0  0
    7.0695   65.7789   85.5977 C   0  0  0  0  0  0  0  0  0  0  0  0
   -2.7408   61.9172   81.6394 S   0  0  0  0  0  0  0  0  0  0  0  0
   -3.5070   63.0512   81.1648 O   0  0  0  0  0  0  0  0  0  0  0  0
   -3.3860   60.6641   81.9650 O   0  0  0  0  0  0  0  0  0  0  0  0
   -1.5129   61.6176   80.5197 N   0  0  0  0  0  0  0  0  0  0  0  0
   -0.8731   62.7922   79.8637 C   0  0  0  0  0  0  0  0  0  0  0  0
    0.0891   62.3447   78.7470 C   0  0  0  0  0  0  0  0  0  0  0  0
   -0.5437   61.5457   77.6753 N   0  0  0  0  0  0  0  0  0  0  0  0
   -0.9063   62.3729   76.5261 C   0  0  0  0  0  0  0  0  0  0  0  0
   -1.7185   60.7983   78.1698 C   0  0  0  0  0  0  0  0  0  0  0  0
   -1.6206   60.4093   79.6567 C   0  0  0  0  0  0  0  0  0  0  0  0
    0.2891   63.7272   86.4442 O   0  0  0  0  0  0  0  0  0  0  0  0
   -0.3965   63.9191   87.6825 C   0  0  0  0  0  0  0  0  0  0  0  0
    0.2755   63.0393   88.7218 C   0  0  0  0  0  0  0  0  0  0  0  0
 22 23  2  0  0  0
 23 21  1  0  0  0
 21 20  1  0  0  0
 20  7  1  0  0  0
  7  8  1  0  0  0
  8  9  2  0  0  0
  8 10  1  0  0  0
 10 11  1  0  0  0
 10 12  1  0  0  0
 12 13  2  0  0  0
 12 14  1  0  0  0
 14 15  1  0  0  0
 15 16  2  0  0  0
 16  1  1  0  0  0
  1  2  1  0  0  0
  2  3  2  0  0  0
  3 24  1  0  0  0
 24 25  2  0  0  0
 24 26  2  0  0  0
 24 27  1  0  0  0
 27 28  1  0  0  0
 28 29  1  0  0  0
 29 30  1  0  0  0
 30 31  1  0  0  0
 30 32  1  0  0  0
 32 33  1  0  0  0
  3  4  1  0  0  0
  4  5  2  0  0  0
  5  6  1  0  0  0
  6 34  1  0  0  0
 34 35  1  0  0  0
 35 36  1  0  0  0
 16 17  1  0  0  0
 17 18  1  0  0  0
 18  7  1  0  0  0
 18 14  2  0  0  0
  6  1  2  0  0  0
 33 27  1  0  0  0
 17 19  1  0  0  0
M  END
> <minimizedAffinity>
-9.33073

$$$$



 36 39  0  0  0  0  0  0  0  0999 V2000
    2.5989   66.5753   84.3248 C   0  0  0  0  0  0  0  0  0  0  0  0
    2.1894   67.7083   83.6000 C   0  0  0  0  0  0  0  0  0  0  0  0
    3.1117   68.6870   83.2294 C   0  0  0  0  0  0  0  0  0  0  0  0
    4.4447   68.5800   83.6242 C   0  0  0  0  0  0  0  0  0  0  0  0
    4.8628   67.4703   84.3637 C   0  0  0  0  0  0  0  0  0  0  0  0
    3.9550   66.4597   84.7131 C   0  0  0  0  0  0  0  0  0  0  0  0
   -0.7296   62.9860   83.7455 N   0  0  0  0  0  0  0  0  0  0  0  0
   -1.5765   62.2890   84.6277 C   0  0  0  0  0  0  0  0  0  0  0  0
   -2.3613   61.4273   84.2224 O   0  0  0  0  0  0  0  0  0  0  0  0
   -1.4967   62.6171   85.9990 N   0  0  0  0  0  0  0  0  0  0  0  0
   -2.3814   61.8806   86.8800 C   0  0  0  0  0  0  0  0  0  0  0  0
   -0.6853   63.6086   86.5789 C   0  0  0  0  0  0  0  0  0  0  0  0
   -0.6924   63.8962   87.7730 O   0  0  0  0  0  0  0  0  0  0  0  0
    0.1611   64.2774   85.6177 C   0  0  0  0  0  0  0  0  0  0  0  0
    1.0834   65.2770   85.8188 N   0  0  0  0  0  0  0  0  0  0  0  0
    1.5808   65.5566   84.6220 C   0  0  0  0  0  0  0  0  0  0  0  0
    0.9972   64.7452   83.6694 N   0  0  0  0  0  0  0  0  0  0  0  0
    0.0959   63.9422   84.2963 C   0  0  0  0  0  0  0  0  0  0  0  0
    1.2133   64.7908   82.6835 H   0  0  0  0  0  0  0  0  0  0  0  0
   -0.7776   62.6841   82.3117 C   0  0  0  0  0  0  0  0  0  0  0  0
    0.3161   61.7075   81.8513 C   0  0  0  0  0  0  0  0  0  0  0  0
    0.4919   62.4028   79.4437 C   0  0  0  0  0  0  0  0  0  0  0  0
    0.3159   61.4523   80.3703 C   0  0  0  0  0  0  0  0  0  0  0  0
    2.5679   70.1161   82.3135 S   0  0  0  0  0  0  0  0  0  0  0  0
    3.7514   70.7296   81.7466 O   0  0  0  0  0  0  0  0  0  0  0  0
    1.6765   70.8661   83.1711 O   0  0  0  0  0  0  0  0  0  0  0  0
    1.6693   69.4563   81.0453 N   0  0  0  0  0  0  0  0  0  0  0  0
    0.2351   69.1458   81.3018 C   0  0  0  0  0  0  0  0  0  0  0  0
   -0.3869   68.3880   80.1135 C   0  0  0  0  0  0  0  0  0  0  0  0
    0.2780   67.1082   79.7862 N   0  0  0  0  0  0  0  0  0  0  0  0
   -0.4081   65.9706   80.3958 C   0  0  0  0  0  0  0  0  0  0  0  0
    1.7058   67.1193   80.1662 C   0  0  0  0  0  0  0  0  0  0  0  0
    2.3480   68.5180   80.1096 C   0  0  0  0  0  0  0  0  0  0  0  0
    4.3022   65.3405   85.4325 O   0  0  0  0  0  0  0  0  0  0  0  0
    5.5904   65.3141   86.0490 C   0  0  0  0  0  0  0  0  0  0  0  0
    5.3934   65.5431   87.5371 C   0  0  0  0  0  0  0  0  0  0  0  0
 22 23  2  0  0  0
 23 21  1  0  0  0
 21 20  1  0  0  0
 20  7  1  0  0  0
  7  8  1  0  0  0
  8  9  2  0  0  0
  8 10  1  0  0  0
 10 11  1  0  0  0
 10 12  1  0  0  0
 12 13  2  0  0  0
 12 14  1  0  0  0
 14 15  1  0  0  0
 15 16  2  0  0  0
 16  1  1  0  0  0
  1  2  1  0  0  0
  2  3  2  0  0  0
  3 24  1  0  0  0
 24 25  2  0  0  0
 24 26  2  0  0  0
 24 27  1  0  0  0
 27 28  1  0  0  0
 28 29  1  0  0  0
 29 30  1  0  0  0
 30 31  1  0  0  0
 30 32  1  0  0  0
 32 33  1  0  0  0
  3  4  1  0  0  0
  4  5  2  0  0  0
  5  6  1  0  0  0
  6 34  1  0  0  0
 34 35  1  0  0  0
 35 36  1  0  0  0
 16 17  1  0  0  0
 17 18  1  0  0  0
 18  7  1  0  0  0
 18 14  2  0  0  0
  6  1  2  0  0  0
 33 27  1  0  0  0
 17 19  1  0  0  0
M  END
> <minimizedAffinity>
-9.16581

$$$$



 36 39  0  0  0  0  0  0  0  0999 V2000
    0.4338   64.5730   83.0009 C   0  0  0  0  0  0  0  0  0  0  0  0
    1.3022   65.6717   82.8761 C   0  0  0  0  0  0  0  0  0  0  0  0
    1.8189   66.3017   84.0083 C   0  0  0  0  0  0  0  0  0  0  0  0
    1.4335   65.8832   85.2813 C   0  0  0  0  0  0  0  0  0  0  0  0
    0.5539   64.8063   85.4214 C   0  0  0  0  0  0  0  0  0  0  0  0
    0.0540   64.1391   84.2934 C   0  0  0  0  0  0  0  0  0  0  0  0
   -2.2964   62.0125   79.7934 N   0  0  0  0  0  0  0  0  0  0  0  0
   -2.1257   61.6385   78.4472 C   0  0  0  0  0  0  0  0  0  0  0  0
   -2.9657   60.9542   77.8566 O   0  0  0  0  0  0  0  0  0  0  0  0
   -0.9504   62.0743   77.7965 N   0  0  0  0  0  0  0  0  0  0  0  0
   -0.8062   61.6727   76.4113 C   0  0  0  0  0  0  0  0  0  0  0  0
    0.1013   62.8119   78.3687 C   0  0  0  0  0  0  0  0  0  0  0  0
    1.1320   63.1198   77.7758 O   0  0  0  0  0  0  0  0  0  0  0  0
   -0.1441   63.1664   79.7478 C   0  0  0  0  0  0  0  0  0  0  0  0
    0.6441   63.8876   80.6133 N   0  0  0  0  0  0  0  0  0  0  0  0
   -0.0173   63.9218   81.7619 C   0  0  0  0  0  0  0  0  0  0  0  0
   -1.2137   63.2441   81.6355 N   0  0  0  0  0  0  0  0  0  0  0  0
   -1.2912   62.7612   80.3663 C   0  0  0  0  0  0  0  0  0  0  0  0
   -1.8768   63.1290   82.3891 H   0  0  0  0  0  0  0  0  0  0  0  0
   -3.4983   61.5816   80.5138 C   0  0  0  0  0  0  0  0  0  0  0  0
   -3.4788   60.0971   80.9111 C   0  0  0  0  0  0  0  0  0  0  0  0
   -3.1427   60.6987   83.3270 C   0  0  0  0  0  0  0  0  0  0  0  0
   -2.9747   59.8498   82.3052 C   0  0  0  0  0  0  0  0  0  0  0  0
    2.9155   67.6948   83.8247 S   0  0  0  0  0  0  0  0  0  0  0  0
    2.4566   68.7171   84.7426 O   0  0  0  0  0  0  0  0  0  0  0  0
    3.0393   67.9642   82.4088 O   0  0  0  0  0  0  0  0  0  0  0  0
    4.3945   67.1135   84.3954 N   0  0  0  0  0  0  0  0  0  0  0  0
    4.4636   65.6833   84.8064 C   0  0  0  0  0  0  0  0  0  0  0  0
    5.8176   65.3638   85.4682 C   0  0  0  0  0  0  0  0  0  0  0  0
    6.1190   66.1714   86.6699 N   0  0  0  0  0  0  0  0  0  0  0  0
    5.7678   65.4635   87.8995 C   0  0  0  0  0  0  0  0  0  0  0  0
    5.4580   67.4919   86.6228 C   0  0  0  0  0  0  0  0  0  0  0  0
    5.2549   68.0292   85.1938 C   0  0  0  0  0  0  0  0  0  0  0  0
   -0.8082   63.0700   84.3617 O   0  0  0  0  0  0  0  0  0  0  0  0
   -0.8079   62.2852   85.5551 C   0  0  0  0  0  0  0  0  0  0  0  0
   -2.1165   62.5479   86.2791 C   0  0  0  0  0  0  0  0  0  0  0  0
 22 23  2  0  0  0
 23 21  1  0  0  0
 21 20  1  0  0  0
 20  7  1  0  0  0
  7  8  1  0  0  0
  8  9  2  0  0  0
  8 10  1  0  0  0
 10 11  1  0  0  0
 10 12  1  0  0  0
 12 13  2  0  0  0
 12 14  1  0  0  0
 14 15  1  0  0  0
 15 16  2  0  0  0
 16  1  1  0  0  0
  1  2  1  0  0  0
  2  3  2  0  0  0
  3 24  1  0  0  0
 24 25  2  0  0  0
 24 26  2  0  0  0
 24 27  1  0  0  0
 27 28  1  0  0  0
 28 29  1  0  0  0
 29 30  1  0  0  0
 30 31  1  0  0  0
 30 32  1  0  0  0
 32 33  1  0  0  0
  3  4  1  0  0  0
  4  5  2  0  0  0
  5  6  1  0  0  0
  6 34  1  0  0  0
 34 35  1  0  0  0
 35 36  1  0  0  0
 16 17  1  0  0  0
 17 18  1  0  0  0
 18  7  1  0  0  0
 18 14  2  0  0  0
  6  1  2  0  0  0
 33 27  1  0  0  0
 17 19  1  0  0  0
M  END
> <minimizedAffinity>
-9.16567

$$$$



 36 39  0  0  0  0  0  0  0  0999 V2000
    2.1034   66.9091   83.4365 C   0  0  0  0  0  0  0  0  0  0  0  0
    1.7345   67.9576   82.5755 C   0  0  0  0  0  0  0  0  0  0  0  0
    2.5752   69.0552   82.3907 C   0  0  0  0  0  0  0  0  0  0  0  0
    3.7693   69.1520   83.1041 C   0  0  0  0  0  0  0  0  0  0  0  0
    4.1396   68.1281   83.9802 C   0  0  0  0  0  0  0  0  0  0  0  0
    3.3225   67.0007   84.1497 C   0  0  0  0  0  0  0  0  0  0  0  0
   -0.8259   63.4039   85.2887 N   0  0  0  0  0  0  0  0  0  0  0  0
   -1.5557   62.3422   84.7218 C   0  0  0  0  0  0  0  0  0  0  0  0
   -2.2106   61.5642   85.4208 O   0  0  0  0  0  0  0  0  0  0  0  0
   -1.5070   62.1979   83.3177 N   0  0  0  0  0  0  0  0  0  0  0  0
   -2.2698   61.0955   82.7665 C   0  0  0  0  0  0  0  0  0  0  0  0
   -0.7626   62.9824   82.4188 C   0  0  0  0  0  0  0  0  0  0  0  0
   -0.7078   62.7821   81.2082 O   0  0  0  0  0  0  0  0  0  0  0  0
   -0.0452   64.0556   83.0679 C   0  0  0  0  0  0  0  0  0  0  0  0
    0.7638   65.0198   82.5144 N   0  0  0  0  0  0  0  0  0  0  0  0
    1.1946   65.7566   83.5290 C   0  0  0  0  0  0  0  0  0  0  0  0
    0.6650   65.2821   84.7125 N   0  0  0  0  0  0  0  0  0  0  0  0
   -0.1123   64.2042   84.4229 C   0  0  0  0  0  0  0  0  0  0  0  0
    0.8665   65.6814   85.6185 H   0  0  0  0  0  0  0  0  0  0  0  0
   -0.8418   63.5935   86.7423 C   0  0  0  0  0  0  0  0  0  0  0  0
    0.5562   63.5771   87.3804 C   0  0  0  0  0  0  0  0  0  0  0  0
    0.2589   62.0086   89.3202 C   0  0  0  0  0  0  0  0  0  0  0  0
    0.5511   63.2245   88.8414 C   0  0  0  0  0  0  0  0  0  0  0  0
    2.0842   70.3736   81.2964 S   0  0  0  0  0  0  0  0  0  0  0  0
    0.6680   70.5929   81.5086 O   0  0  0  0  0  0  0  0  0  0  0  0
    2.6023   70.0609   79.9825 O   0  0  0  0  0  0  0  0  0  0  0  0
    2.9113   71.7172   81.8977 N   0  0  0  0  0  0  0  0  0  0  0  0
    2.2348   72.5356   82.9425 C   0  0  0  0  0  0  0  0  0  0  0  0
    3.0375   73.8147   83.2476 C   0  0  0  0  0  0  0  0  0  0  0  0
    3.2509   74.6982   82.0810 N   0  0  0  0  0  0  0  0  0  0  0  0
    2.2616   75.7729   82.0281 C   0  0  0  0  0  0  0  0  0  0  0  0
    3.2628   73.9391   80.8134 C   0  0  0  0  0  0  0  0  0  0  0  0
    3.7734   72.4940   80.9650 C   0  0  0  0  0  0  0  0  0  0  0  0
    3.6311   65.9566   84.9896 O   0  0  0  0  0  0  0  0  0  0  0  0
    5.0098   65.6351   85.1791 C   0  0  0  0  0  0  0  0  0  0  0  0
    5.1710   65.1173   86.5974 C   0  0  0  0  0  0  0  0  0  0  0  0
 22 23  2  0  0  0
 23 21  1  0  0  0
 21 20  1  0  0  0
 20  7  1  0  0  0
  7  8  1  0  0  0
  8  9  2  0  0  0
  8 10  1  0  0  0
 10 11  1  0  0  0
 10 12  1  0  0  0
 12 13  2  0  0  0
 12 14  1  0  0  0
 14 15  1  0  0  0
 15 16  2  0  0  0
 16  1  1  0  0  0
  1  2  1  0  0  0
  2  3  2  0  0  0
  3 24  1  0  0  0
 24 25  2  0  0  0
 24 26  2  0  0  0
 24 27  1  0  0  0
 27 28  1  0  0  0
 28 29  1  0  0  0
 29 30  1  0  0  0
 30 31  1  0  0  0
 30 32  1  0  0  0
 32 33  1  0  0  0
  3  4  1  0  0  0
  4  5  2  0  0  0
  5  6  1  0  0  0
  6 34  1  0  0  0
 34 35  1  0  0  0
 35 36  1  0  0  0
 16 17  1  0  0  0
 17 18  1  0  0  0
 18  7  1  0  0  0
 18 14  2  0  0  0
  6  1  2  0  0  0
 33 27  1  0  0  0
 17 19  1  0  0  0
M  END
> <minimizedAffinity>
-9.16111

$$$$



 36 39  0  0  0  0  0  0  0  0999 V2000
    0.1767   63.8744   83.8144 C   0  0  0  0  0  0  0  0  0  0  0  0
    1.0016   64.9502   83.4419 C   0  0  0  0  0  0  0  0  0  0  0  0
    1.6290   65.7337   84.4106 C   0  0  0  0  0  0  0  0  0  0  0  0
    1.3987   65.4930   85.7645 C   0  0  0  0  0  0  0  0  0  0  0  0
    0.5637   64.4409   86.1504 C   0  0  0  0  0  0  0  0  0  0  0  0
   -0.0456   63.6212   85.1890 C   0  0  0  0  0  0  0  0  0  0  0  0
   -0.5372   61.7850   79.4073 N   0  0  0  0  0  0  0  0  0  0  0  0
   -1.5031   60.9003   78.8919 C   0  0  0  0  0  0  0  0  0  0  0  0
   -1.4788   60.5340   77.7138 O   0  0  0  0  0  0  0  0  0  0  0  0
   -2.5074   60.4489   79.7763 N   0  0  0  0  0  0  0  0  0  0  0  0
   -3.4855   59.5387   79.2140 C   0  0  0  0  0  0  0  0  0  0  0  0
   -2.6746   60.8281   81.1201 C   0  0  0  0  0  0  0  0  0  0  0  0
   -3.5996   60.4507   81.8347 O   0  0  0  0  0  0  0  0  0  0  0  0
   -1.6455   61.7303   81.5833 C   0  0  0  0  0  0  0  0  0  0  0  0
   -1.4776   62.2925   82.8267 N   0  0  0  0  0  0  0  0  0  0  0  0
   -0.3971   63.0555   82.7360 C   0  0  0  0  0  0  0  0  0  0  0  0
    0.1269   62.9782   81.4609 N   0  0  0  0  0  0  0  0  0  0  0  0
   -0.6646   62.1472   80.7308 C   0  0  0  0  0  0  0  0  0  0  0  0
    0.9449   63.4879   81.1576 H   0  0  0  0  0  0  0  0  0  0  0  0
    0.5238   62.2848   78.5278 C   0  0  0  0  0  0  0  0  0  0  0  0
    0.3015   63.7301   78.0548 C   0  0  0  0  0  0  0  0  0  0  0  0
   -1.2725   64.9417   76.5169 C   0  0  0  0  0  0  0  0  0  0  0  0
   -0.5822   63.8421   76.8444 C   0  0  0  0  0  0  0  0  0  0  0  0
    2.6678   67.0943   83.9137 S   0  0  0  0  0  0  0  0  0  0  0  0
    2.2276   68.2556   84.6594 O   0  0  0  0  0  0  0  0  0  0  0  0
    2.7038   67.1055   82.4677 O   0  0  0  0  0  0  0  0  0  0  0  0
    4.1944   66.6586   84.4888 N   0  0  0  0  0  0  0  0  0  0  0  0
    4.3457   65.3055   85.0934 C   0  0  0  0  0  0  0  0  0  0  0  0
    5.7395   65.1369   85.7277 C   0  0  0  0  0  0  0  0  0  0  0  0
    6.0542   66.1190   86.7877 N   0  0  0  0  0  0  0  0  0  0  0  0
    5.7876   65.5808   88.1203 C   0  0  0  0  0  0  0  0  0  0  0  0
    5.3324   67.3925   86.5869 C   0  0  0  0  0  0  0  0  0  0  0  0
    5.0452   67.7118   85.1079 C   0  0  0  0  0  0  0  0  0  0  0  0
   -0.8714   62.5670   85.5012 O   0  0  0  0  0  0  0  0  0  0  0  0
   -1.3278   62.4507   86.8496 C   0  0  0  0  0  0  0  0  0  0  0  0
   -2.7678   62.9307   86.8913 C   0  0  0  0  0  0  0  0  0  0  0  0
 22 23  2  0  0  0
 23 21  1  0  0  0
 21 20  1  0  0  0
 20  7  1  0  0  0
  7  8  1  0  0  0
  8  9  2  0  0  0
  8 10  1  0  0  0
 10 11  1  0  0  0
 10 12  1  0  0  0
 12 13  2  0  0  0
 12 14  1  0  0  0
 14 15  1  0  0  0
 15 16  2  0  0  0
 16  1  1  0  0  0
  1  2  1  0  0  0
  2  3  2  0  0  0
  3 24  1  0  0  0
 24 25  2  0  0  0
 24 26  2  0  0  0
 24 27  1  0  0  0
 27 28  1  0  0  0
 28 29  1  0  0  0
 29 30  1  0  0  0
 30 31  1  0  0  0
 30 32  1  0  0  0
 32 33  1  0  0  0
  3  4  1  0  0  0
  4  5  2  0  0  0
  5  6  1  0  0  0
  6 34  1  0  0  0
 34 35  1  0  0  0
 35 36  1  0  0  0
 16 17  1  0  0  0
 17 18  1  0  0  0
 18  7  1  0  0  0
 18 14  2  0  0  0
  6  1  2  0  0  0
 33 27  1  0  0  0
 17 19  1  0  0  0
M  END
> <minimizedAffinity>
-9.16079

$$$$



 36 39  0  0  0  0  0  0  0  0999 V2000
    2.3962   66.3336   84.1179 C   0  0  0  0  0  0  0  0  0  0  0  0
    2.1131   67.2242   83.0675 C   0  0  0  0  0  0  0  0  0  0  0  0
    3.0649   68.1532   82.6471 C   0  0  0  0  0  0  0  0  0  0  0  0
    4.2911   68.2474   83.3040 C   0  0  0  0  0  0  0  0  0  0  0  0
    4.5789   67.3837   84.3642 C   0  0  0  0  0  0  0  0  0  0  0  0
    3.6466   66.4197   84.7753 C   0  0  0  0  0  0  0  0  0  0  0  0
   -0.9891   62.7755   83.6965 N   0  0  0  0  0  0  0  0  0  0  0  0
   -1.8364   62.1217   84.6108 C   0  0  0  0  0  0  0  0  0  0  0  0
   -2.6377   61.2581   84.2435 O   0  0  0  0  0  0  0  0  0  0  0  0
   -1.7375   62.4956   85.9691 N   0  0  0  0  0  0  0  0  0  0  0  0
   -2.6232   61.8028   86.8838 C   0  0  0  0  0  0  0  0  0  0  0  0
   -0.9060   63.4945   86.5062 C   0  0  0  0  0  0  0  0  0  0  0  0
   -0.8964   63.8231   87.6896 O   0  0  0  0  0  0  0  0  0  0  0  0
   -0.0603   64.1173   85.5139 C   0  0  0  0  0  0  0  0  0  0  0  0
    0.8782   65.1097   85.6711 N   0  0  0  0  0  0  0  0  0  0  0  0
    1.3669   65.3407   84.4604 C   0  0  0  0  0  0  0  0  0  0  0  0
    0.7617   64.5056   83.5423 N   0  0  0  0  0  0  0  0  0  0  0  0
   -0.1442   63.7379   84.2056 C   0  0  0  0  0  0  0  0  0  0  0  0
    0.9681   64.5141   82.5533 H   0  0  0  0  0  0  0  0  0  0  0  0
   -1.0565   62.4251   82.2746 C   0  0  0  0  0  0  0  0  0  0  0  0
   -0.0157   61.3776   81.8487 C   0  0  0  0  0  0  0  0  0  0  0  0
    0.2879   62.6835   79.7242 C   0  0  0  0  0  0  0  0  0  0  0  0
    0.5353   61.5979   80.4679 C   0  0  0  0  0  0  0  0  0  0  0  0
    2.6815   69.2741   81.3152 S   0  0  0  0  0  0  0  0  0  0  0  0
    2.1351   68.4765   80.2364 O   0  0  0  0  0  0  0  0  0  0  0  0
    3.8412   70.1138   81.1091 O   0  0  0  0  0  0  0  0  0  0  0  0
    1.4325   70.2221   81.9415 N   0  0  0  0  0  0  0  0  0  0  0  0
    0.2247   70.4237   81.0930 C   0  0  0  0  0  0  0  0  0  0  0  0
   -0.7310   71.4515   81.7282 C   0  0  0  0  0  0  0  0  0  0  0  0
   -0.1355   72.7865   81.9523 N   0  0  0  0  0  0  0  0  0  0  0  0
   -0.4545   73.7106   80.8656 C   0  0  0  0  0  0  0  0  0  0  0  0
    1.3258   72.7077   82.1562 C   0  0  0  0  0  0  0  0  0  0  0  0
    1.7883   71.3865   82.7983 C   0  0  0  0  0  0  0  0  0  0  0  0
    3.8694   65.5363   85.8053 O   0  0  0  0  0  0  0  0  0  0  0  0
    5.2180   65.1528   86.0782 C   0  0  0  0  0  0  0  0  0  0  0  0
    5.5000   65.4679   87.5365 C   0  0  0  0  0  0  0  0  0  0  0  0
 22 23  2  0  0  0
 23 21  1  0  0  0
 21 20  1  0  0  0
 20  7  1  0  0  0
  7  8  1  0  0  0
  8  9  2  0  0  0
  8 10  1  0  0  0
 10 11  1  0  0  0
 10 12  1  0  0  0
 12 13  2  0  0  0
 12 14  1  0  0  0
 14 15  1  0  0  0
 15 16  2  0  0  0
 16  1  1  0  0  0
  1  2  1  0  0  0
  2  3  2  0  0  0
  3 24  1  0  0  0
 24 25  2  0  0  0
 24 26  2  0  0  0
 24 27  1  0  0  0
 27 28  1  0  0  0
 28 29  1  0  0  0
 29 30  1  0  0  0
 30 31  1  0  0  0
 30 32  1  0  0  0
 32 33  1  0  0  0
  3  4  1  0  0  0
  4  5  2  0  0  0
  5  6  1  0  0  0
  6 34  1  0  0  0
 34 35  1  0  0  0
 35 36  1  0  0  0
 16 17  1  0  0  0
 17 18  1  0  0  0
 18  7  1  0  0  0
 18 14  2  0  0  0
  6  1  2  0  0  0
 33 27  1  0  0  0
 17 19  1  0  0  0
M  END
> <minimizedAffinity>
-9.14125

$$$$



 36 39  0  0  0  0  0  0  0  0999 V2000
    0.9938   65.9310   81.9003 C   0  0  0  0  0  0  0  0  0  0  0  0
    1.2824   67.1522   81.2662 C   0  0  0  0  0  0  0  0  0  0  0  0
    1.9279   68.1773   81.9577 C   0  0  0  0  0  0  0  0  0  0  0  0
    2.2442   68.0224   83.3068 C   0  0  0  0  0  0  0  0  0  0  0  0
    1.9441   66.8224   83.9570 C   0  0  0  0  0  0  0  0  0  0  0  0
    1.3280   65.7687   83.2660 C   0  0  0  0  0  0  0  0  0  0  0  0
   -1.9941   62.2773   80.4785 N   0  0  0  0  0  0  0  0  0  0  0  0
   -2.0849   61.4871   79.3173 C   0  0  0  0  0  0  0  0  0  0  0  0
   -2.9281   60.5926   79.2102 O   0  0  0  0  0  0  0  0  0  0  0  0
   -1.1682   61.7549   78.2767 N   0  0  0  0  0  0  0  0  0  0  0  0
   -1.2893   60.9238   77.0952 C   0  0  0  0  0  0  0  0  0  0  0  0
   -0.1333   62.7068   78.2943 C   0  0  0  0  0  0  0  0  0  0  0  0
    0.6763   62.8644   77.3841 O   0  0  0  0  0  0  0  0  0  0  0  0
   -0.1041   63.4850   79.5113 C   0  0  0  0  0  0  0  0  0  0  0  0
    0.7472   64.5026   79.8721 N   0  0  0  0  0  0  0  0  0  0  0  0
    0.3704   64.8760   81.0872 C   0  0  0  0  0  0  0  0  0  0  0  0
   -0.7097   64.1199   81.4972 N   0  0  0  0  0  0  0  0  0  0  0  0
   -1.0054   63.2370   80.5057 C   0  0  0  0  0  0  0  0  0  0  0  0
   -1.1572   64.2209   82.3975 H   0  0  0  0  0  0  0  0  0  0  0  0
   -2.9210   62.0358   81.5883 C   0  0  0  0  0  0  0  0  0  0  0  0
   -2.3576   61.0980   82.6678 C   0  0  0  0  0  0  0  0  0  0  0  0
   -2.6180   62.1579   84.9305 C   0  0  0  0  0  0  0  0  0  0  0  0
   -1.8511   61.8143   83.8881 C   0  0  0  0  0  0  0  0  0  0  0  0
    2.2802   69.7177   81.1332 S   0  0  0  0  0  0  0  0  0  0  0  0
    1.9318   69.5393   79.7384 O   0  0  0  0  0  0  0  0  0  0  0  0
    3.6130   70.1224   81.5235 O   0  0  0  0  0  0  0  0  0  0  0  0
    1.1688   70.7935   81.8103 N   0  0  0  0  0  0  0  0  0  0  0  0
   -0.0481   71.1221   81.0163 C   0  0  0  0  0  0  0  0  0  0  0  0
   -0.8592   72.2460   81.6886 C   0  0  0  0  0  0  0  0  0  0  0  0
   -0.1156   73.5102   81.8785 N   0  0  0  0  0  0  0  0  0  0  0  0
   -0.3838   74.4625   80.8025 C   0  0  0  0  0  0  0  0  0  0  0  0
    1.3368   73.2765   82.0165 C   0  0  0  0  0  0  0  0  0  0  0  0
    1.6850   71.9138   82.6439 C   0  0  0  0  0  0  0  0  0  0  0  0
    1.0121   64.5615   83.8439 O   0  0  0  0  0  0  0  0  0  0  0  0
    0.1527   64.5702   84.9847 C   0  0  0  0  0  0  0  0  0  0  0  0
    0.9925   64.2066   86.1964 C   0  0  0  0  0  0  0  0  0  0  0  0
 22 23  2  0  0  0
 23 21  1  0  0  0
 21 20  1  0  0  0
 20  7  1  0  0  0
  7  8  1  0  0  0
  8  9  2  0  0  0
  8 10  1  0  0  0
 10 11  1  0  0  0
 10 12  1  0  0  0
 12 13  2  0  0  0
 12 14  1  0  0  0
 14 15  1  0  0  0
 15 16  2  0  0  0
 16  1  1  0  0  0
  1  2  1  0  0  0
  2  3  2  0  0  0
  3 24  1  0  0  0
 24 25  2  0  0  0
 24 26  2  0  0  0
 24 27  1  0  0  0
 27 28  1  0  0  0
 28 29  1  0  0  0
 29 30  1  0  0  0
 30 31  1  0  0  0
 30 32  1  0  0  0
 32 33  1  0  0  0
  3  4  1  0  0  0
  4  5  2  0  0  0
  5  6  1  0  0  0
  6 34  1  0  0  0
 34 35  1  0  0  0
 35 36  1  0  0  0
 16 17  1  0  0  0
 17 18  1  0  0  0
 18  7  1  0  0  0
 18 14  2  0  0  0
  6  1  2  0  0  0
 33 27  1  0  0  0
 17 19  1  0  0  0
M  END
> <minimizedAffinity>
-9.02691

$$$$
