


 33 37  0  0  0  0  0  0  0  0999 V2000
   -0.8962   62.8230   84.0924 C   0  0  0  0  0  0  0  0  0  0  0  0
    0.3043   63.4435   84.0947 N   0  0  0  0  0  0  0  0  0  0  0  0
    0.4979   63.8065   85.3836 N   0  0  0  0  0  0  0  0  0  0  0  0
   -0.5441   63.4858   86.2054 C   0  0  0  0  0  0  0  0  0  0  0  0
   -0.6420   63.7492   87.5242 N   0  0  0  0  0  0  0  0  0  0  0  0
   -1.7885   63.2937   88.0740 C   0  0  0  0  0  0  0  0  0  0  0  0
   -2.7964   62.6222   87.3966 C   0  0  0  0  0  0  0  0  0  0  0  0
   -2.6487   62.3795   86.0300 C   0  0  0  0  0  0  0  0  0  0  0  0
   -1.4716   62.8325   85.4054 C   0  0  0  0  0  0  0  0  0  0  0  0
   -3.1067   60.5266   79.4953 C   0  0  0  0  0  0  0  0  0  0  0  0
   -3.4063   59.2050   80.2023 C   0  0  0  0  0  0  0  0  0  0  0  0
   -3.9177   58.2117   79.7131 O   0  0  0  0  0  0  0  0  0  0  0  0
   -2.9956   59.3210   81.5236 N   0  0  0  0  0  0  0  0  0  0  0  0
   -2.4363   60.5617   81.7580 C   0  0  0  0  0  0  0  0  0  0  0  0
   -1.9453   60.9771   82.9212 N   0  0  0  0  0  0  0  0  0  0  0  0
   -1.4729   62.2460   82.8662 C   0  0  0  0  0  0  0  0  0  0  0  0
   -1.4936   63.0330   81.7452 N   0  0  0  0  0  0  0  0  0  0  0  0
   -2.0109   62.5580   80.5756 N   0  0  0  0  0  0  0  0  0  0  0  0
   -2.4720   61.3090   80.6035 C   0  0  0  0  0  0  0  0  0  0  0  0
   -3.0736   58.5910   82.2149 H   0  0  0  0  0  0  0  0  0  0  0  0
   -2.2093   60.3569   78.3120 C   0  0  0  0  0  0  0  0  0  0  0  0
   -1.0405   59.9993   78.3946 O   0  0  0  0  0  0  0  0  0  0  0  0
   -2.8577   60.6349   77.1450 O   0  0  0  0  0  0  0  0  0  0  0  0
   -2.2851   62.9671   76.8386 C   0  0  0  0  0  0  0  0  0  0  0  0
   -3.4025   61.9588   77.0281 C   0  0  0  0  0  0  0  0  0  0  0  0
    1.7138   64.5073   85.7686 C   0  0  0  0  0  0  0  0  0  0  0  0
    2.0724   65.5844   84.7803 C   0  0  0  0  0  0  0  0  0  0  0  0
    1.1074   66.1338   83.9212 C   0  0  0  0  0  0  0  0  0  0  0  0
    1.4570   67.1301   83.0062 C   0  0  0  0  0  0  0  0  0  0  0  0
    2.7715   67.5910   82.9399 C   0  0  0  0  0  0  0  0  0  0  0  0
    3.7367   67.0557   83.7905 C   0  0  0  0  0  0  0  0  0  0  0  0
    3.3821   66.0626   84.6997 C   0  0  0  0  0  0  0  0  0  0  0  0
    4.3255   65.5748   85.5173 F   0  0  0  0  0  0  0  0  0  0  0  0
 24 25  1  0  0  0
 25 23  1  0  0  0
 23 21  1  0  0  0
 21 22  2  0  0  0
 21 10  1  0  0  0
 10 11  1  0  0  0
 11 12  2  0  0  0
 11 13  1  0  0  0
 13 14  1  0  0  0
 14 15  1  0  0  0
 15 16  2  0  0  0
 16  1  1  0  0  0
  1  2  2  0  0  0
  2  3  1  0  0  0
  3 26  1  0  0  0
 26 27  1  0  0  0
 27 28  2  0  0  0
 28 29  1  0  0  0
 29 30  2  0  0  0
 30 31  1  0  0  0
 31 32  2  0  0  0
 32 33  1  0  0  0
  3  4  1  0  0  0
  4  5  1  0  0  0
  5  6  2  0  0  0
  6  7  1  0  0  0
  7  8  2  0  0  0
  8  9  1  0  0  0
 16 17  1  0  0  0
 17 18  2  0  0  0
 18 19  1  0  0  0
 19 10  1  0  0  0
 19 14  2  0  0  0
  9  1  1  0  0  0
 32 27  1  0  0  0
  9  4  2  0  0  0
 13 20  1  0  0  0
M  END
> <minimizedAffinity>
-10.92901

$$$$



 33 37  0  0  0  0  0  0  0  0999 V2000
   -1.0526   62.8466   84.1987 C   0  0  0  0  0  0  0  0  0  0  0  0
    0.1572   63.4447   84.1303 N   0  0  0  0  0  0  0  0  0  0  0  0
    0.4428   63.7834   85.4087 N   0  0  0  0  0  0  0  0  0  0  0  0
   -0.5486   63.4688   86.2932 C   0  0  0  0  0  0  0  0  0  0  0  0
   -0.5537   63.7127   87.6193 N   0  0  0  0  0  0  0  0  0  0  0  0
   -1.6699   63.2696   88.2373 C   0  0  0  0  0  0  0  0  0  0  0  0
   -2.7334   62.6278   87.6186 C   0  0  0  0  0  0  0  0  0  0  0  0
   -2.6812   62.4044   86.2417 C   0  0  0  0  0  0  0  0  0  0  0  0
   -1.5395   62.8456   85.5470 C   0  0  0  0  0  0  0  0  0  0  0  0
   -3.5779   60.6582   79.7124 C   0  0  0  0  0  0  0  0  0  0  0  0
   -3.4929   59.2337   80.2597 C   0  0  0  0  0  0  0  0  0  0  0  0
   -3.8878   58.2153   79.7171 O   0  0  0  0  0  0  0  0  0  0  0  0
   -2.8819   59.2870   81.5055 N   0  0  0  0  0  0  0  0  0  0  0  0
   -2.5327   60.5839   81.8273 C   0  0  0  0  0  0  0  0  0  0  0  0
   -1.9287   60.9623   82.9491 N   0  0  0  0  0  0  0  0  0  0  0  0
   -1.7204   62.3001   83.0051 C   0  0  0  0  0  0  0  0  0  0  0  0
   -2.0884   63.1838   82.0252 N   0  0  0  0  0  0  0  0  0  0  0  0
   -2.7078   62.7426   80.8925 N   0  0  0  0  0  0  0  0  0  0  0  0
   -2.9137   61.4294   80.8111 C   0  0  0  0  0  0  0  0  0  0  0  0
   -2.6968   58.4854   82.0885 H   0  0  0  0  0  0  0  0  0  0  0  0
   -2.8907   60.8110   78.3937 C   0  0  0  0  0  0  0  0  0  0  0  0
   -3.4236   61.3014   77.4056 O   0  0  0  0  0  0  0  0  0  0  0  0
   -1.6073   60.3524   78.4390 O   0  0  0  0  0  0  0  0  0  0  0  0
   -0.3140   60.1007   76.4080 C   0  0  0  0  0  0  0  0  0  0  0  0
   -1.2339   59.4253   77.4074 C   0  0  0  0  0  0  0  0  0  0  0  0
    1.6949   64.4554   85.7223 C   0  0  0  0  0  0  0  0  0  0  0  0
    2.0206   65.5248   84.7144 C   0  0  0  0  0  0  0  0  0  0  0  0
    1.0642   65.9638   83.7850 C   0  0  0  0  0  0  0  0  0  0  0  0
    1.3833   66.9545   82.8528 C   0  0  0  0  0  0  0  0  0  0  0  0
    2.6581   67.5198   82.8393 C   0  0  0  0  0  0  0  0  0  0  0  0
    3.6139   67.0946   83.7597 C   0  0  0  0  0  0  0  0  0  0  0  0
    3.2899   66.1065   84.6857 C   0  0  0  0  0  0  0  0  0  0  0  0
    4.2221   65.7258   85.5703 F   0  0  0  0  0  0  0  0  0  0  0  0
 24 25  1  0  0  0
 25 23  1  0  0  0
 23 21  1  0  0  0
 21 22  2  0  0  0
 21 10  1  0  0  0
 10 11  1  0  0  0
 11 12  2  0  0  0
 11 13  1  0  0  0
 13 14  1  0  0  0
 14 15  1  0  0  0
 15 16  2  0  0  0
 16  1  1  0  0  0
  1  2  2  0  0  0
  2  3  1  0  0  0
  3 26  1  0  0  0
 26 27  1  0  0  0
 27 28  2  0  0  0
 28 29  1  0  0  0
 29 30  2  0  0  0
 30 31  1  0  0  0
 31 32  2  0  0  0
 32 33  1  0  0  0
  3  4  1  0  0  0
  4  5  1  0  0  0
  5  6  2  0  0  0
  6  7  1  0  0  0
  7  8  2  0  0  0
  8  9  1  0  0  0
 16 17  1  0  0  0
 17 18  2  0  0  0
 18 19  1  0  0  0
 19 10  1  0  0  0
 19 14  2  0  0  0
  9  1  1  0  0  0
 32 27  1  0  0  0
  9  4  2  0  0  0
 13 20  1  0  0  0
M  END
> <minimizedAffinity>
-10.72625

$$$$



 33 37  0  0  0  0  0  0  0  0999 V2000
    0.4244   63.9917   82.8561 C   0  0  0  0  0  0  0  0  0  0  0  0
    1.0260   65.1988   82.7722 N   0  0  0  0  0  0  0  0  0  0  0  0
    1.1557   65.6050   84.0562 N   0  0  0  0  0  0  0  0  0  0  0  0
    0.6256   64.7326   84.9629 C   0  0  0  0  0  0  0  0  0  0  0  0
    0.5840   64.8869   86.3017 N   0  0  0  0  0  0  0  0  0  0  0  0
    0.0093   63.8444   86.9398 C   0  0  0  0  0  0  0  0  0  0  0  0
   -0.5056   62.7098   86.3289 C   0  0  0  0  0  0  0  0  0  0  0  0
   -0.4430   62.6016   84.9387 C   0  0  0  0  0  0  0  0  0  0  0  0
    0.1470   63.6600   84.2229 C   0  0  0  0  0  0  0  0  0  0  0  0
   -0.7754   61.0361   78.2606 C   0  0  0  0  0  0  0  0  0  0  0  0
   -1.3597   62.2484   77.5361 C   0  0  0  0  0  0  0  0  0  0  0  0
   -1.8377   62.2716   76.4143 O   0  0  0  0  0  0  0  0  0  0  0  0
   -1.2534   63.3463   78.3796 N   0  0  0  0  0  0  0  0  0  0  0  0
   -0.6880   62.9864   79.5871 C   0  0  0  0  0  0  0  0  0  0  0  0
   -0.4571   63.8098   80.6045 N   0  0  0  0  0  0  0  0  0  0  0  0
    0.1211   63.1873   81.6602 C   0  0  0  0  0  0  0  0  0  0  0  0
    0.4443   61.8565   81.6936 N   0  0  0  0  0  0  0  0  0  0  0  0
    0.1869   61.0547   80.6203 N   0  0  0  0  0  0  0  0  0  0  0  0
   -0.3908   61.6432   79.5746 C   0  0  0  0  0  0  0  0  0  0  0  0
   -1.5668   64.2773   78.1518 H   0  0  0  0  0  0  0  0  0  0  0  0
   -1.7583   59.9184   78.3992 C   0  0  0  0  0  0  0  0  0  0  0  0
   -1.6080   58.8173   77.8837 O   0  0  0  0  0  0  0  0  0  0  0  0
   -2.8212   60.2763   79.1749 O   0  0  0  0  0  0  0  0  0  0  0  0
   -3.1267   59.9280   81.5511 C   0  0  0  0  0  0  0  0  0  0  0  0
   -3.2276   59.3188   80.1655 C   0  0  0  0  0  0  0  0  0  0  0  0
    1.7781   66.8858   84.3561 C   0  0  0  0  0  0  0  0  0  0  0  0
    3.2644   66.7504   84.5516 C   0  0  0  0  0  0  0  0  0  0  0  0
    3.8292   65.5584   85.0323 C   0  0  0  0  0  0  0  0  0  0  0  0
    5.2105   65.4499   85.2124 C   0  0  0  0  0  0  0  0  0  0  0  0
    6.0433   66.5275   84.9126 C   0  0  0  0  0  0  0  0  0  0  0  0
    5.4940   67.7141   84.4310 C   0  0  0  0  0  0  0  0  0  0  0  0
    4.1167   67.8161   84.2543 C   0  0  0  0  0  0  0  0  0  0  0  0
    3.6145   68.9628   83.7754 F   0  0  0  0  0  0  0  0  0  0  0  0
 24 25  1  0  0  0
 25 23  1  0  0  0
 23 21  1  0  0  0
 21 22  2  0  0  0
 21 10  1  0  0  0
 10 11  1  0  0  0
 11 12  2  0  0  0
 11 13  1  0  0  0
 13 14  1  0  0  0
 14 15  1  0  0  0
 15 16  2  0  0  0
 16  1  1  0  0  0
  1  2  2  0  0  0
  2  3  1  0  0  0
  3 26  1  0  0  0
 26 27  1  0  0  0
 27 28  2  0  0  0
 28 29  1  0  0  0
 29 30  2  0  0  0
 30 31  1  0  0  0
 31 32  2  0  0  0
 32 33  1  0  0  0
  3  4  1  0  0  0
  4  5  1  0  0  0
  5  6  2  0  0  0
  6  7  1  0  0  0
  7  8  2  0  0  0
  8  9  1  0  0  0
 16 17  1  0  0  0
 17 18  2  0  0  0
 18 19  1  0  0  0
 19 10  1  0  0  0
 19 14  2  0  0  0
  9  1  1  0  0  0
 32 27  1  0  0  0
  9  4  2  0  0  0
 13 20  1  0  0  0
M  END
> <minimizedAffinity>
-10.53335

$$$$



 33 37  0  0  0  0  0  0  0  0999 V2000
   -0.1862   63.9822   81.7591 C   0  0  0  0  0  0  0  0  0  0  0  0
    0.5653   64.9418   81.1756 N   0  0  0  0  0  0  0  0  0  0  0  0
    1.1781   65.5687   82.2060 N   0  0  0  0  0  0  0  0  0  0  0  0
    0.8221   65.0839   83.4318 C   0  0  0  0  0  0  0  0  0  0  0  0
    1.2479   65.5306   84.6306 N   0  0  0  0  0  0  0  0  0  0  0  0
    0.7319   64.8391   85.6698 C   0  0  0  0  0  0  0  0  0  0  0  0
   -0.1521   63.7741   85.5702 C   0  0  0  0  0  0  0  0  0  0  0  0
   -0.5666   63.3541   84.3052 C   0  0  0  0  0  0  0  0  0  0  0  0
   -0.0590   64.0397   83.1859 C   0  0  0  0  0  0  0  0  0  0  0  0
   -3.2857   60.3428   78.8538 C   0  0  0  0  0  0  0  0  0  0  0  0
   -3.2535   59.3005   79.9712 C   0  0  0  0  0  0  0  0  0  0  0  0
   -3.7727   58.1969   79.9592 O   0  0  0  0  0  0  0  0  0  0  0  0
   -2.5232   59.8258   81.0289 N   0  0  0  0  0  0  0  0  0  0  0  0
   -2.0501   61.0866   80.7222 C   0  0  0  0  0  0  0  0  0  0  0  0
   -1.3147   61.8488   81.5251 N   0  0  0  0  0  0  0  0  0  0  0  0
   -1.0041   63.0454   80.9701 C   0  0  0  0  0  0  0  0  0  0  0  0
   -1.3987   63.4466   79.7211 N   0  0  0  0  0  0  0  0  0  0  0  0
   -2.1550   62.6252   78.9372 N   0  0  0  0  0  0  0  0  0  0  0  0
   -2.4639   61.4392   79.4584 C   0  0  0  0  0  0  0  0  0  0  0  0
   -2.3423   59.3445   81.8963 H   0  0  0  0  0  0  0  0  0  0  0  0
   -2.7193   59.8289   77.5695 C   0  0  0  0  0  0  0  0  0  0  0  0
   -3.3046   59.8990   76.4955 O   0  0  0  0  0  0  0  0  0  0  0  0
   -1.4781   59.2925   77.7460 O   0  0  0  0  0  0  0  0  0  0  0  0
   -0.1594   60.9296   76.5453 C   0  0  0  0  0  0  0  0  0  0  0  0
   -0.5559   59.4698   76.6591 C   0  0  0  0  0  0  0  0  0  0  0  0
    2.0874   66.6755   81.9490 C   0  0  0  0  0  0  0  0  0  0  0  0
    1.3450   67.9319   81.5806 C   0  0  0  0  0  0  0  0  0  0  0  0
    0.5144   67.9808   80.4497 C   0  0  0  0  0  0  0  0  0  0  0  0
   -0.1648   69.1561   80.1186 C   0  0  0  0  0  0  0  0  0  0  0  0
   -0.0252   70.2939   80.9128 C   0  0  0  0  0  0  0  0  0  0  0  0
    0.7934   70.2555   82.0398 C   0  0  0  0  0  0  0  0  0  0  0  0
    1.4680   69.0815   82.3640 C   0  0  0  0  0  0  0  0  0  0  0  0
    2.2373   69.0658   83.4615 F   0  0  0  0  0  0  0  0  0  0  0  0
 24 25  1  0  0  0
 25 23  1  0  0  0
 23 21  1  0  0  0
 21 22  2  0  0  0
 21 10  1  0  0  0
 10 11  1  0  0  0
 11 12  2  0  0  0
 11 13  1  0  0  0
 13 14  1  0  0  0
 14 15  1  0  0  0
 15 16  2  0  0  0
 16  1  1  0  0  0
  1  2  2  0  0  0
  2  3  1  0  0  0
  3 26  1  0  0  0
 26 27  1  0  0  0
 27 28  2  0  0  0
 28 29  1  0  0  0
 29 30  2  0  0  0
 30 31  1  0  0  0
 31 32  2  0  0  0
 32 33  1  0  0  0
  3  4  1  0  0  0
  4  5  1  0  0  0
  5  6  2  0  0  0
  6  7  1  0  0  0
  7  8  2  0  0  0
  8  9  1  0  0  0
 16 17  1  0  0  0
 17 18  2  0  0  0
 18 19  1  0  0  0
 19 10  1  0  0  0
 19 14  2  0  0  0
  9  1  1  0  0  0
 32 27  1  0  0  0
  9  4  2  0  0  0
 13 20  1  0  0  0
M  END
> <minimizedAffinity>
-10.44065

$$$$



 33 37  0  0  0  0  0  0  0  0999 V2000
    1.7709   66.4500   83.4892 C   0  0  0  0  0  0  0  0  0  0  0  0
    2.9361   66.8459   84.0473 N   0  0  0  0  0  0  0  0  0  0  0  0
    3.3328   67.8997   83.2972 N   0  0  0  0  0  0  0  0  0  0  0  0
    2.4967   68.1745   82.2533 C   0  0  0  0  0  0  0  0  0  0  0  0
    2.6532   69.1425   81.3278 N   0  0  0  0  0  0  0  0  0  0  0  0
    1.6504   69.1813   80.4239 C   0  0  0  0  0  0  0  0  0  0  0  0
    0.5519   68.3336   80.4013 C   0  0  0  0  0  0  0  0  0  0  0  0
    0.4401   67.3439   81.3792 C   0  0  0  0  0  0  0  0  0  0  0  0
    1.4579   67.2585   82.3475 C   0  0  0  0  0  0  0  0  0  0  0  0
   -1.2610   62.1759   85.4470 C   0  0  0  0  0  0  0  0  0  0  0  0
   -2.0145   62.0019   84.1287 C   0  0  0  0  0  0  0  0  0  0  0  0
   -2.8860   61.1842   83.8850 O   0  0  0  0  0  0  0  0  0  0  0  0
   -1.5337   62.9453   83.2304 N   0  0  0  0  0  0  0  0  0  0  0  0
   -0.5666   63.7366   83.8183 C   0  0  0  0  0  0  0  0  0  0  0  0
    0.0816   64.7313   83.2207 N   0  0  0  0  0  0  0  0  0  0  0  0
    0.9883   65.3270   84.0328 C   0  0  0  0  0  0  0  0  0  0  0  0
    1.2288   64.9568   85.3296 N   0  0  0  0  0  0  0  0  0  0  0  0
    0.5358   63.9267   85.8951 N   0  0  0  0  0  0  0  0  0  0  0  0
   -0.3683   63.3327   85.1184 C   0  0  0  0  0  0  0  0  0  0  0  0
   -1.8611   63.0545   82.2829 H   0  0  0  0  0  0  0  0  0  0  0  0
   -2.1719   62.4503   86.5999 C   0  0  0  0  0  0  0  0  0  0  0  0
   -3.2169   63.0821   86.5013 O   0  0  0  0  0  0  0  0  0  0  0  0
   -1.7004   61.9010   87.7555 O   0  0  0  0  0  0  0  0  0  0  0  0
    0.2374   62.3211   89.1444 C   0  0  0  0  0  0  0  0  0  0  0  0
   -1.1246   62.8185   88.6989 C   0  0  0  0  0  0  0  0  0  0  0  0
    4.5701   68.5964   83.6156 C   0  0  0  0  0  0  0  0  0  0  0  0
    5.4970   67.7390   84.4348 C   0  0  0  0  0  0  0  0  0  0  0  0
    6.5062   66.9741   83.8286 C   0  0  0  0  0  0  0  0  0  0  0  0
    7.3560   66.1797   84.6026 C   0  0  0  0  0  0  0  0  0  0  0  0
    7.2103   66.1417   85.9890 C   0  0  0  0  0  0  0  0  0  0  0  0
    6.2146   66.8999   86.6017 C   0  0  0  0  0  0  0  0  0  0  0  0
    5.3706   67.6890   85.8247 C   0  0  0  0  0  0  0  0  0  0  0  0
    4.4307   68.4207   86.4393 F   0  0  0  0  0  0  0  0  0  0  0  0
 24 25  1  0  0  0
 25 23  1  0  0  0
 23 21  1  0  0  0
 21 22  2  0  0  0
 21 10  1  0  0  0
 10 11  1  0  0  0
 11 12  2  0  0  0
 11 13  1  0  0  0
 13 14  1  0  0  0
 14 15  1  0  0  0
 15 16  2  0  0  0
 16  1  1  0  0  0
  1  2  2  0  0  0
  2  3  1  0  0  0
  3 26  1  0  0  0
 26 27  1  0  0  0
 27 28  2  0  0  0
 28 29  1  0  0  0
 29 30  2  0  0  0
 30 31  1  0  0  0
 31 32  2  0  0  0
 32 33  1  0  0  0
  3  4  1  0  0  0
  4  5  1  0  0  0
  5  6  2  0  0  0
  6  7  1  0  0  0
  7  8  2  0  0  0
  8  9  1  0  0  0
 16 17  1  0  0  0
 17 18  2  0  0  0
 18 19  1  0  0  0
 19 10  1  0  0  0
 19 14  2  0  0  0
  9  1  1  0  0  0
 32 27  1  0  0  0
  9  4  2  0  0  0
 13 20  1  0  0  0
M  END
> <minimizedAffinity>
-10.29519

$$$$



 33 37  0  0  0  0  0  0  0  0999 V2000
    1.2945   66.3202   82.7771 C   0  0  0  0  0  0  0  0  0  0  0  0
    1.9596   66.4020   83.9505 N   0  0  0  0  0  0  0  0  0  0  0  0
    2.7350   67.5038   83.8268 N   0  0  0  0  0  0  0  0  0  0  0  0
    2.6316   68.1124   82.6090 C   0  0  0  0  0  0  0  0  0  0  0  0
    3.3035   69.2052   82.1937 N   0  0  0  0  0  0  0  0  0  0  0  0
    2.9775   69.5853   80.9393 C   0  0  0  0  0  0  0  0  0  0  0  0
    2.0569   68.9501   80.1179 C   0  0  0  0  0  0  0  0  0  0  0  0
    1.3922   67.8187   80.5937 C   0  0  0  0  0  0  0  0  0  0  0  0
    1.6935   67.3784   81.8960 C   0  0  0  0  0  0  0  0  0  0  0  0
   -2.4239   62.2382   81.8804 C   0  0  0  0  0  0  0  0  0  0  0  0
   -2.3440   61.7390   83.3227 C   0  0  0  0  0  0  0  0  0  0  0  0
   -2.9507   60.7985   83.8074 O   0  0  0  0  0  0  0  0  0  0  0  0
   -1.4505   62.5499   84.0099 N   0  0  0  0  0  0  0  0  0  0  0  0
   -0.9148   63.5103   83.1746 C   0  0  0  0  0  0  0  0  0  0  0  0
   -0.0273   64.4328   83.5322 N   0  0  0  0  0  0  0  0  0  0  0  0
    0.3125   65.2554   82.5104 C   0  0  0  0  0  0  0  0  0  0  0  0
   -0.1950   65.1656   81.2412 N   0  0  0  0  0  0  0  0  0  0  0  0
   -1.1058   64.1998   80.9268 N   0  0  0  0  0  0  0  0  0  0  0  0
   -1.4471   63.3730   81.9134 C   0  0  0  0  0  0  0  0  0  0  0  0
   -1.2070   62.4401   84.9823 H   0  0  0  0  0  0  0  0  0  0  0  0
   -2.0610   61.1842   80.8845 C   0  0  0  0  0  0  0  0  0  0  0  0
   -0.9068   60.8607   80.6316 O   0  0  0  0  0  0  0  0  0  0  0  0
   -3.1679   60.6288   80.3138 O   0  0  0  0  0  0  0  0  0  0  0  0
   -3.5922   61.9290   78.3161 C   0  0  0  0  0  0  0  0  0  0  0  0
   -4.0859   61.5466   79.6986 C   0  0  0  0  0  0  0  0  0  0  0  0
    3.6016   67.9119   84.9223 C   0  0  0  0  0  0  0  0  0  0  0  0
    4.8862   67.1278   84.9378 C   0  0  0  0  0  0  0  0  0  0  0  0
    6.0576   67.6391   84.3568 C   0  0  0  0  0  0  0  0  0  0  0  0
    7.2413   66.8970   84.3756 C   0  0  0  0  0  0  0  0  0  0  0  0
    7.2703   65.6387   84.9761 C   0  0  0  0  0  0  0  0  0  0  0  0
    6.1147   65.1230   85.5594 C   0  0  0  0  0  0  0  0  0  0  0  0
    4.9381   65.8672   85.5367 C   0  0  0  0  0  0  0  0  0  0  0  0
    3.8441   65.3555   86.1180 F   0  0  0  0  0  0  0  0  0  0  0  0
 24 25  1  0  0  0
 25 23  1  0  0  0
 23 21  1  0  0  0
 21 22  2  0  0  0
 21 10  1  0  0  0
 10 11  1  0  0  0
 11 12  2  0  0  0
 11 13  1  0  0  0
 13 14  1  0  0  0
 14 15  1  0  0  0
 15 16  2  0  0  0
 16  1  1  0  0  0
  1  2  2  0  0  0
  2  3  1  0  0  0
  3 26  1  0  0  0
 26 27  1  0  0  0
 27 28  2  0  0  0
 28 29  1  0  0  0
 29 30  2  0  0  0
 30 31  1  0  0  0
 31 32  2  0  0  0
 32 33  1  0  0  0
  3  4  1  0  0  0
  4  5  1  0  0  0
  5  6  2  0  0  0
  6  7  1  0  0  0
  7  8  2  0  0  0
  8  9  1  0  0  0
 16 17  1  0  0  0
 17 18  2  0  0  0
 18 19  1  0  0  0
 19 10  1  0  0  0
 19 14  2  0  0  0
  9  1  1  0  0  0
 32 27  1  0  0  0
  9  4  2  0  0  0
 13 20  1  0  0  0
M  END
> <minimizedAffinity>
-10.26542

$$$$



 33 37  0  0  0  0  0  0  0  0999 V2000
    1.6403   66.6443   83.1979 C   0  0  0  0  0  0  0  0  0  0  0  0
    2.3260   66.6763   84.3618 N   0  0  0  0  0  0  0  0  0  0  0  0
    3.1438   67.7479   84.2465 N   0  0  0  0  0  0  0  0  0  0  0  0
    3.0469   68.3836   83.0421 C   0  0  0  0  0  0  0  0  0  0  0  0
    3.7565   69.4561   82.6367 N   0  0  0  0  0  0  0  0  0  0  0  0
    3.4273   69.8734   81.3951 C   0  0  0  0  0  0  0  0  0  0  0  0
    2.4692   69.2922   80.5767 C   0  0  0  0  0  0  0  0  0  0  0  0
    1.7661   68.1796   81.0417 C   0  0  0  0  0  0  0  0  0  0  0  0
    2.0688   67.7023   82.3306 C   0  0  0  0  0  0  0  0  0  0  0  0
   -2.2501   62.7303   82.2819 C   0  0  0  0  0  0  0  0  0  0  0  0
   -2.1055   62.1438   83.6859 C   0  0  0  0  0  0  0  0  0  0  0  0
   -2.7137   61.1936   84.1494 O   0  0  0  0  0  0  0  0  0  0  0  0
   -1.1497   62.8865   84.3662 N   0  0  0  0  0  0  0  0  0  0  0  0
   -0.6313   63.8795   83.5585 C   0  0  0  0  0  0  0  0  0  0  0  0
    0.3036   64.7534   83.9173 N   0  0  0  0  0  0  0  0  0  0  0  0
    0.6117   65.6256   82.9270 C   0  0  0  0  0  0  0  0  0  0  0  0
    0.0314   65.6262   81.6861 N   0  0  0  0  0  0  0  0  0  0  0  0
   -0.9258   64.7072   81.3692 N   0  0  0  0  0  0  0  0  0  0  0  0
   -1.2374   63.8329   82.3243 C   0  0  0  0  0  0  0  0  0  0  0  0
   -0.8559   62.7119   85.3149 H   0  0  0  0  0  0  0  0  0  0  0  0
   -1.9770   61.7277   81.2073 C   0  0  0  0  0  0  0  0  0  0  0  0
   -2.6040   61.6745   80.1562 O   0  0  0  0  0  0  0  0  0  0  0  0
   -0.9444   60.9017   81.5405 O   0  0  0  0  0  0  0  0  0  0  0  0
    1.4175   61.1250   82.0227 C   0  0  0  0  0  0  0  0  0  0  0  0
    0.3319   61.2282   80.9682 C   0  0  0  0  0  0  0  0  0  0  0  0
    4.0429   68.0991   85.3355 C   0  0  0  0  0  0  0  0  0  0  0  0
    5.3258   67.3144   85.2734 C   0  0  0  0  0  0  0  0  0  0  0  0
    6.2845   67.5654   84.2788 C   0  0  0  0  0  0  0  0  0  0  0  0
    7.4687   66.8253   84.2320 C   0  0  0  0  0  0  0  0  0  0  0  0
    7.7107   65.8294   85.1777 C   0  0  0  0  0  0  0  0  0  0  0  0
    6.7681   65.5745   86.1717 C   0  0  0  0  0  0  0  0  0  0  0  0
    5.5897   66.3150   86.2125 C   0  0  0  0  0  0  0  0  0  0  0  0
    4.7058   66.0609   87.1875 F   0  0  0  0  0  0  0  0  0  0  0  0
 24 25  1  0  0  0
 25 23  1  0  0  0
 23 21  1  0  0  0
 21 22  2  0  0  0
 21 10  1  0  0  0
 10 11  1  0  0  0
 11 12  2  0  0  0
 11 13  1  0  0  0
 13 14  1  0  0  0
 14 15  1  0  0  0
 15 16  2  0  0  0
 16  1  1  0  0  0
  1  2  2  0  0  0
  2  3  1  0  0  0
  3 26  1  0  0  0
 26 27  1  0  0  0
 27 28  2  0  0  0
 28 29  1  0  0  0
 29 30  2  0  0  0
 30 31  1  0  0  0
 31 32  2  0  0  0
 32 33  1  0  0  0
  3  4  1  0  0  0
  4  5  1  0  0  0
  5  6  2  0  0  0
  6  7  1  0  0  0
  7  8  2  0  0  0
  8  9  1  0  0  0
 16 17  1  0  0  0
 17 18  2  0  0  0
 18 19  1  0  0  0
 19 10  1  0  0  0
 19 14  2  0  0  0
  9  1  1  0  0  0
 32 27  1  0  0  0
  9  4  2  0  0  0
 13 20  1  0  0  0
M  END
> <minimizedAffinity>
-10.22090

$$$$



 33 37  0  0  0  0  0  0  0  0999 V2000
    1.8324   66.9821   82.9498 C   0  0  0  0  0  0  0  0  0  0  0  0
    3.0369   66.8431   83.5464 N   0  0  0  0  0  0  0  0  0  0  0  0
    3.5789   68.0823   83.5133 N   0  0  0  0  0  0  0  0  0  0  0  0
    2.7955   69.0060   82.8831 C   0  0  0  0  0  0  0  0  0  0  0  0
    3.0891   70.3055   82.6753 N   0  0  0  0  0  0  0  0  0  0  0  0
    2.1073   70.9770   82.0355 C   0  0  0  0  0  0  0  0  0  0  0  0
    0.9036   70.4333   81.6099 C   0  0  0  0  0  0  0  0  0  0  0  0
    0.6509   69.0807   81.8444 C   0  0  0  0  0  0  0  0  0  0  0  0
    1.6407   68.3326   82.5088 C   0  0  0  0  0  0  0  0  0  0  0  0
   -1.7027   62.6686   82.5146 C   0  0  0  0  0  0  0  0  0  0  0  0
   -1.6863   62.3996   84.0191 C   0  0  0  0  0  0  0  0  0  0  0  0
   -2.2889   61.5214   84.6132 O   0  0  0  0  0  0  0  0  0  0  0  0
   -0.8573   63.3405   84.6154 N   0  0  0  0  0  0  0  0  0  0  0  0
   -0.3068   64.1819   83.6687 C   0  0  0  0  0  0  0  0  0  0  0  0
    0.5307   65.1823   83.9224 N   0  0  0  0  0  0  0  0  0  0  0  0
    0.9001   65.8515   82.8034 C   0  0  0  0  0  0  0  0  0  0  0  0
    0.4657   65.5486   81.5400 N   0  0  0  0  0  0  0  0  0  0  0  0
   -0.3961   64.5111   81.3346 N   0  0  0  0  0  0  0  0  0  0  0  0
   -0.7649   63.8324   82.4194 C   0  0  0  0  0  0  0  0  0  0  0  0
   -0.6640   63.3905   85.6038 H   0  0  0  0  0  0  0  0  0  0  0  0
   -1.2533   61.4895   81.7132 C   0  0  0  0  0  0  0  0  0  0  0  0
   -0.0967   61.0863   81.6927 O   0  0  0  0  0  0  0  0  0  0  0  0
   -2.2878   60.9221   81.0295 O   0  0  0  0  0  0  0  0  0  0  0  0
   -3.8201   61.7346   79.3404 C   0  0  0  0  0  0  0  0  0  0  0  0
   -3.4306   61.7633   80.8062 C   0  0  0  0  0  0  0  0  0  0  0  0
    4.8975   68.3166   84.0826 C   0  0  0  0  0  0  0  0  0  0  0  0
    5.2903   67.2273   85.0443 C   0  0  0  0  0  0  0  0  0  0  0  0
    5.7338   65.9769   84.5851 C   0  0  0  0  0  0  0  0  0  0  0  0
    6.0908   64.9745   85.4906 C   0  0  0  0  0  0  0  0  0  0  0  0
    6.0120   65.2090   86.8630 C   0  0  0  0  0  0  0  0  0  0  0  0
    5.5770   66.4477   87.3300 C   0  0  0  0  0  0  0  0  0  0  0  0
    5.2220   67.4423   86.4225 C   0  0  0  0  0  0  0  0  0  0  0  0
    4.8213   68.6301   86.8968 F   0  0  0  0  0  0  0  0  0  0  0  0
 24 25  1  0  0  0
 25 23  1  0  0  0
 23 21  1  0  0  0
 21 22  2  0  0  0
 21 10  1  0  0  0
 10 11  1  0  0  0
 11 12  2  0  0  0
 11 13  1  0  0  0
 13 14  1  0  0  0
 14 15  1  0  0  0
 15 16  2  0  0  0
 16  1  1  0  0  0
  1  2  2  0  0  0
  2  3  1  0  0  0
  3 26  1  0  0  0
 26 27  1  0  0  0
 27 28  2  0  0  0
 28 29  1  0  0  0
 29 30  2  0  0  0
 30 31  1  0  0  0
 31 32  2  0  0  0
 32 33  1  0  0  0
  3  4  1  0  0  0
  4  5  1  0  0  0
  5  6  2  0  0  0
  6  7  1  0  0  0
  7  8  2  0  0  0
  8  9  1  0  0  0
 16 17  1  0  0  0
 17 18  2  0  0  0
 18 19  1  0  0  0
 19 10  1  0  0  0
 19 14  2  0  0  0
  9  1  1  0  0  0
 32 27  1  0  0  0
  9  4  2  0  0  0
 13 20  1  0  0  0
M  END
> <minimizedAffinity>
-10.19489

$$$$



 33 37  0  0  0  0  0  0  0  0999 V2000
   -0.2931   63.7337   82.3168 C   0  0  0  0  0  0  0  0  0  0  0  0
    0.1482   63.2974   83.5172 N   0  0  0  0  0  0  0  0  0  0  0  0
    0.8047   64.3564   84.0445 N   0  0  0  0  0  0  0  0  0  0  0  0
    0.8435   65.4431   83.2189 C   0  0  0  0  0  0  0  0  0  0  0  0
    1.4496   66.6221   83.4653 N   0  0  0  0  0  0  0  0  0  0  0  0
    1.3023   67.5157   82.4633 C   0  0  0  0  0  0  0  0  0  0  0  0
    0.6128   67.2935   81.2797 C   0  0  0  0  0  0  0  0  0  0  0  0
    0.0078   66.0531   81.0710 C   0  0  0  0  0  0  0  0  0  0  0  0
    0.1294   65.0837   82.0841 C   0  0  0  0  0  0  0  0  0  0  0  0
   -3.3147   60.3934   78.9992 C   0  0  0  0  0  0  0  0  0  0  0  0
   -3.3365   59.2605   80.0249 C   0  0  0  0  0  0  0  0  0  0  0  0
   -3.8660   58.1689   79.9001 O   0  0  0  0  0  0  0  0  0  0  0  0
   -2.6424   59.6852   81.1501 N   0  0  0  0  0  0  0  0  0  0  0  0
   -2.1449   60.9608   80.9691 C   0  0  0  0  0  0  0  0  0  0  0  0
   -1.4335   61.6429   81.8608 N   0  0  0  0  0  0  0  0  0  0  0  0
   -1.0894   62.8776   81.4211 C   0  0  0  0  0  0  0  0  0  0  0  0
   -1.4312   63.3876   80.1965 N   0  0  0  0  0  0  0  0  0  0  0  0
   -2.1648   62.6453   79.3179 N   0  0  0  0  0  0  0  0  0  0  0  0
   -2.5058   61.4240   79.7250 C   0  0  0  0  0  0  0  0  0  0  0  0
   -2.5001   59.1302   81.9799 H   0  0  0  0  0  0  0  0  0  0  0  0
   -2.7042   59.9817   77.6984 C   0  0  0  0  0  0  0  0  0  0  0  0
   -3.2628   60.1150   76.6163 O   0  0  0  0  0  0  0  0  0  0  0  0
   -1.4565   59.4591   77.8712 O   0  0  0  0  0  0  0  0  0  0  0  0
   -0.0887   61.1761   76.8504 C   0  0  0  0  0  0  0  0  0  0  0  0
   -0.5140   59.7203   76.8192 C   0  0  0  0  0  0  0  0  0  0  0  0
    1.4200   64.2515   85.3591 C   0  0  0  0  0  0  0  0  0  0  0  0
    0.4308   63.8079   86.4031 C   0  0  0  0  0  0  0  0  0  0  0  0
   -0.9148   63.5745   86.0775 C   0  0  0  0  0  0  0  0  0  0  0  0
   -1.8219   63.1671   87.0590 C   0  0  0  0  0  0  0  0  0  0  0  0
   -1.3966   62.9855   88.3746 C   0  0  0  0  0  0  0  0  0  0  0  0
   -0.0625   63.2104   88.7084 C   0  0  0  0  0  0  0  0  0  0  0  0
    0.8364   63.6169   87.7258 C   0  0  0  0  0  0  0  0  0  0  0  0
    2.1172   63.8119   88.0691 F   0  0  0  0  0  0  0  0  0  0  0  0
 24 25  1  0  0  0
 25 23  1  0  0  0
 23 21  1  0  0  0
 21 22  2  0  0  0
 21 10  1  0  0  0
 10 11  1  0  0  0
 11 12  2  0  0  0
 11 13  1  0  0  0
 13 14  1  0  0  0
 14 15  1  0  0  0
 15 16  2  0  0  0
 16  1  1  0  0  0
  1  2  2  0  0  0
  2  3  1  0  0  0
  3 26  1  0  0  0
 26 27  1  0  0  0
 27 28  2  0  0  0
 28 29  1  0  0  0
 29 30  2  0  0  0
 30 31  1  0  0  0
 31 32  2  0  0  0
 32 33  1  0  0  0
  3  4  1  0  0  0
  4  5  1  0  0  0
  5  6  2  0  0  0
  6  7  1  0  0  0
  7  8  2  0  0  0
  8  9  1  0  0  0
 16 17  1  0  0  0
 17 18  2  0  0  0
 18 19  1  0  0  0
 19 10  1  0  0  0
 19 14  2  0  0  0
  9  1  1  0  0  0
 32 27  1  0  0  0
  9  4  2  0  0  0
 13 20  1  0  0  0
M  END
> <minimizedAffinity>
-10.15061

$$$$
