


 33 34  0  0  0  0  0  0  0  0999 V2000
    1.8971   67.2427   82.6683 C   0  0  0  0  0  0  0  0  0  0  0  0
    1.9553   68.3253   81.7892 C   0  0  0  0  0  0  0  0  0  0  0  0
    2.8983   69.3281   82.0026 C   0  0  0  0  0  0  0  0  0  0  0  0
    3.7698   69.2254   83.0795 C   0  0  0  0  0  0  0  0  0  0  0  0
    3.6627   68.1115   83.8992 C   0  0  0  0  0  0  0  0  0  0  0  0
    2.7494   67.1144   83.7168 N   0  0  0  0  0  0  0  0  0  0  0  0
    4.5901   67.9523   85.0667 C   0  0  0  0  0  0  0  0  0  0  0  0
    4.3432   68.4509   86.1583 O   0  0  0  0  0  0  0  0  0  0  0  0
    5.7151   67.2003   84.8004 N   0  0  0  0  0  0  0  0  0  0  0  0
    5.6725   66.6727   83.9298 H   0  0  0  0  0  0  0  0  0  0  0  0
    6.5876   66.7096   85.8660 C   0  0  0  0  0  0  0  0  0  0  0  0
    5.7961   65.6270   86.6031 C   0  0  0  0  0  0  0  0  0  0  0  0
    5.5110   64.5188   86.1731 O   0  0  0  0  0  0  0  0  0  0  0  0
    5.4340   65.9840   87.8520 O   0  0  0  0  0  0  0  0  0  0  0  0
    4.9170   65.2164   88.1745 H   0  0  0  0  0  0  0  0  0  0  0  0
    7.8992   66.1371   85.2879 C   0  0  0  0  0  0  0  0  0  0  0  0
    7.6238   65.2332   84.0796 C   0  0  0  0  0  0  0  0  0  0  0  0
    8.8687   67.2470   84.8668 C   0  0  0  0  0  0  0  0  0  0  0  0
    0.8955   66.1264   82.4576 C   0  0  0  0  0  0  0  0  0  0  0  0
    1.3640   64.8488   82.9009 O   0  0  0  0  0  0  0  0  0  0  0  0
    0.0861   63.0572   83.7254 C   0  0  0  0  0  0  0  0  0  0  0  0
   -0.5526   62.3748   84.7797 C   0  0  0  0  0  0  0  0  0  0  0  0
   -0.5338   62.8866   86.0823 C   0  0  0  0  0  0  0  0  0  0  0  0
    0.1366   64.0938   86.3175 C   0  0  0  0  0  0  0  0  0  0  0  0
    0.2087   64.6810   87.5542 O   0  0  0  0  0  0  0  0  0  0  0  0
    0.7805   64.7764   85.2830 C   0  0  0  0  0  0  0  0  0  0  0  0
    0.7683   64.2621   83.9853 C   0  0  0  0  0  0  0  0  0  0  0  0
   -0.2770   64.1115   88.1932 H   0  0  0  0  0  0  0  0  0  0  0  0
   -1.2092   62.1758   87.2083 C   0  0  0  0  0  0  0  0  0  0  0  0
   -2.7041   61.9966   87.1848 C   0  0  0  0  0  0  0  0  0  0  0  0
   -0.5282   61.7468   88.1408 O   0  0  0  0  0  0  0  0  0  0  0  0
    1.0439   61.3150   82.1850 C   0  0  0  0  0  0  0  0  0  0  0  0
    0.0486   62.4556   82.3367 C   0  0  0  0  0  0  0  0  0  0  0  0
 32 33  1  0  0  0
 33 21  1  0  0  0
 21 22  1  0  0  0
 22 23  2  0  0  0
 23 29  1  0  0  0
 29 30  1  0  0  0
 29 31  2  0  0  0
 23 24  1  0  0  0
 24 25  1  0  0  0
 24 26  2  0  0  0
 26 27  1  0  0  0
 27 20  1  0  0  0
 20 19  1  0  0  0
 19  1  1  0  0  0
  1  2  2  0  0  0
  2  3  1  0  0  0
  3  4  2  0  0  0
  4  5  1  0  0  0
  5  7  1  0  0  0
  7  8  2  0  0  0
  7  9  1  0  0  0
  9 11  1  0  0  0
 11 12  1  0  0  0
 12 13  2  0  0  0
 12 14  1  0  0  0
 11 16  1  0  0  0
 16 17  1  0  0  0
 16 18  1  0  0  0
  5  6  2  0  0  0
 27 21  2  0  0  0
  6  1  1  0  0  0
 25 28  1  0  0  0
  9 10  1  0  0  0
 14 15  1  0  0  0
M  END
> <minimizedAffinity>
-9.77782

$$$$



 33 34  0  0  0  0  0  0  0  0999 V2000
   -1.0086   63.0071   85.2754 C   0  0  0  0  0  0  0  0  0  0  0  0
   -1.0769   63.1558   86.6616 C   0  0  0  0  0  0  0  0  0  0  0  0
   -0.1782   64.0058   87.3021 C   0  0  0  0  0  0  0  0  0  0  0  0
    0.7609   64.6976   86.5476 C   0  0  0  0  0  0  0  0  0  0  0  0
    0.7558   64.5116   85.1730 C   0  0  0  0  0  0  0  0  0  0  0  0
   -0.1100   63.6856   84.5175 N   0  0  0  0  0  0  0  0  0  0  0  0
    1.7437   65.2465   84.3170 C   0  0  0  0  0  0  0  0  0  0  0  0
    1.5491   65.4300   83.1214 O   0  0  0  0  0  0  0  0  0  0  0  0
    2.8599   65.6927   84.9929 N   0  0  0  0  0  0  0  0  0  0  0  0
    2.7770   65.6638   86.0080 H   0  0  0  0  0  0  0  0  0  0  0  0
    3.7906   66.6522   84.4008 C   0  0  0  0  0  0  0  0  0  0  0  0
    3.1245   68.0247   84.5203 C   0  0  0  0  0  0  0  0  0  0  0  0
    2.4779   68.5940   83.6531 O   0  0  0  0  0  0  0  0  0  0  0  0
    3.2798   68.5924   85.7336 O   0  0  0  0  0  0  0  0  0  0  0  0
    2.8364   69.4618   85.6439 H   0  0  0  0  0  0  0  0  0  0  0  0
    5.1482   66.6319   85.1348 C   0  0  0  0  0  0  0  0  0  0  0  0
    5.4800   65.2243   85.6465 C   0  0  0  0  0  0  0  0  0  0  0  0
    6.2904   67.1147   84.2341 C   0  0  0  0  0  0  0  0  0  0  0  0
   -1.9800   62.1041   84.5442 C   0  0  0  0  0  0  0  0  0  0  0  0
   -2.5091   62.6854   83.3481 O   0  0  0  0  0  0  0  0  0  0  0  0
   -1.8944   62.5742   81.0827 C   0  0  0  0  0  0  0  0  0  0  0  0
   -1.8294   61.8950   79.8500 C   0  0  0  0  0  0  0  0  0  0  0  0
   -2.3741   60.6137   79.7064 C   0  0  0  0  0  0  0  0  0  0  0  0
   -2.9853   60.0179   80.8170 C   0  0  0  0  0  0  0  0  0  0  0  0
   -3.5527   58.7704   80.7791 O   0  0  0  0  0  0  0  0  0  0  0  0
   -3.0496   60.6769   82.0467 C   0  0  0  0  0  0  0  0  0  0  0  0
   -2.4997   61.9516   82.1921 C   0  0  0  0  0  0  0  0  0  0  0  0
   -3.4446   58.4115   79.8692 H   0  0  0  0  0  0  0  0  0  0  0  0
   -2.3153   59.8836   78.4052 C   0  0  0  0  0  0  0  0  0  0  0  0
   -0.9825   59.6427   77.7472 C   0  0  0  0  0  0  0  0  0  0  0  0
   -3.3630   59.4896   77.8911 O   0  0  0  0  0  0  0  0  0  0  0  0
   -0.1256   64.1378   80.2154 C   0  0  0  0  0  0  0  0  0  0  0  0
   -1.2787   63.9531   81.1906 C   0  0  0  0  0  0  0  0  0  0  0  0
 32 33  1  0  0  0
 33 21  1  0  0  0
 21 22  1  0  0  0
 22 23  2  0  0  0
 23 29  1  0  0  0
 29 30  1  0  0  0
 29 31  2  0  0  0
 23 24  1  0  0  0
 24 25  1  0  0  0
 24 26  2  0  0  0
 26 27  1  0  0  0
 27 20  1  0  0  0
 20 19  1  0  0  0
 19  1  1  0  0  0
  1  2  2  0  0  0
  2  3  1  0  0  0
  3  4  2  0  0  0
  4  5  1  0  0  0
  5  7  1  0  0  0
  7  8  2  0  0  0
  7  9  1  0  0  0
  9 11  1  0  0  0
 11 12  1  0  0  0
 12 13  2  0  0  0
 12 14  1  0  0  0
 11 16  1  0  0  0
 16 17  1  0  0  0
 16 18  1  0  0  0
  5  6  2  0  0  0
 27 21  2  0  0  0
  6  1  1  0  0  0
 25 28  1  0  0  0
  9 10  1  0  0  0
 14 15  1  0  0  0
M  END
> <minimizedAffinity>
-9.75235

$$$$



 33 34  0  0  0  0  0  0  0  0999 V2000
   -1.3118   63.1395   85.1491 C   0  0  0  0  0  0  0  0  0  0  0  0
   -1.3482   63.1780   86.5439 C   0  0  0  0  0  0  0  0  0  0  0  0
   -0.3628   63.8809   87.2334 C   0  0  0  0  0  0  0  0  0  0  0  0
    0.6303   64.5392   86.5190 C   0  0  0  0  0  0  0  0  0  0  0  0
    0.5901   64.4698   85.1341 C   0  0  0  0  0  0  0  0  0  0  0  0
   -0.3604   63.7888   84.4311 N   0  0  0  0  0  0  0  0  0  0  0  0
    1.6346   65.1746   84.3212 C   0  0  0  0  0  0  0  0  0  0  0  0
    1.5071   65.3424   83.1143 O   0  0  0  0  0  0  0  0  0  0  0  0
    2.7210   65.6130   85.0490 N   0  0  0  0  0  0  0  0  0  0  0  0
    2.5839   65.6016   86.0585 H   0  0  0  0  0  0  0  0  0  0  0  0
    3.6983   66.5475   84.4931 C   0  0  0  0  0  0  0  0  0  0  0  0
    3.0604   67.9358   84.5793 C   0  0  0  0  0  0  0  0  0  0  0  0
    2.3561   68.4633   83.7307 O   0  0  0  0  0  0  0  0  0  0  0  0
    3.3158   68.5723   85.7403 O   0  0  0  0  0  0  0  0  0  0  0  0
    2.8777   69.4423   85.6319 H   0  0  0  0  0  0  0  0  0  0  0  0
    5.0229   66.4987   85.2839 C   0  0  0  0  0  0  0  0  0  0  0  0
    5.0689   65.2785   86.2124 C   0  0  0  0  0  0  0  0  0  0  0  0
    6.2407   66.4611   84.3541 C   0  0  0  0  0  0  0  0  0  0  0  0
   -2.3758   62.3987   84.3664 C   0  0  0  0  0  0  0  0  0  0  0  0
   -1.9006   61.1939   83.7573 O   0  0  0  0  0  0  0  0  0  0  0  0
   -0.8363   61.2126   81.6621 C   0  0  0  0  0  0  0  0  0  0  0  0
   -0.8599   61.0680   80.2608 C   0  0  0  0  0  0  0  0  0  0  0  0
   -2.0519   60.7726   79.5892 C   0  0  0  0  0  0  0  0  0  0  0  0
   -3.2240   60.6213   80.3411 C   0  0  0  0  0  0  0  0  0  0  0  0
   -4.4419   60.3372   79.7792 O   0  0  0  0  0  0  0  0  0  0  0  0
   -3.2131   60.7543   81.7314 C   0  0  0  0  0  0  0  0  0  0  0  0
   -2.0230   61.0414   82.4020 C   0  0  0  0  0  0  0  0  0  0  0  0
   -4.3217   60.2676   78.8050 H   0  0  0  0  0  0  0  0  0  0  0  0
   -2.0921   60.6199   78.1045 C   0  0  0  0  0  0  0  0  0  0  0  0
   -1.4605   61.6714   77.2312 C   0  0  0  0  0  0  0  0  0  0  0  0
   -2.6439   59.6317   77.6183 O   0  0  0  0  0  0  0  0  0  0  0  0
    1.6418   60.7846   81.6900 C   0  0  0  0  0  0  0  0  0  0  0  0
    0.4806   61.5193   82.3430 C   0  0  0  0  0  0  0  0  0  0  0  0
 32 33  1  0  0  0
 33 21  1  0  0  0
 21 22  1  0  0  0
 22 23  2  0  0  0
 23 29  1  0  0  0
 29 30  1  0  0  0
 29 31  2  0  0  0
 23 24  1  0  0  0
 24 25  1  0  0  0
 24 26  2  0  0  0
 26 27  1  0  0  0
 27 20  1  0  0  0
 20 19  1  0  0  0
 19  1  1  0  0  0
  1  2  2  0  0  0
  2  3  1  0  0  0
  3  4  2  0  0  0
  4  5  1  0  0  0
  5  7  1  0  0  0
  7  8  2  0  0  0
  7  9  1  0  0  0
  9 11  1  0  0  0
 11 12  1  0  0  0
 12 13  2  0  0  0
 12 14  1  0  0  0
 11 16  1  0  0  0
 16 17  1  0  0  0
 16 18  1  0  0  0
  5  6  2  0  0  0
 27 21  2  0  0  0
  6  1  1  0  0  0
 25 28  1  0  0  0
  9 10  1  0  0  0
 14 15  1  0  0  0
M  END
> <minimizedAffinity>
-9.60873

$$$$



 33 34  0  0  0  0  0  0  0  0999 V2000
    0.9044   64.7221   84.6062 C   0  0  0  0  0  0  0  0  0  0  0  0
    0.4168   64.4356   85.8822 C   0  0  0  0  0  0  0  0  0  0  0  0
   -0.2947   63.2567   86.0925 C   0  0  0  0  0  0  0  0  0  0  0  0
   -0.4954   62.3838   85.0306 C   0  0  0  0  0  0  0  0  0  0  0  0
    0.0343   62.7287   83.7958 C   0  0  0  0  0  0  0  0  0  0  0  0
    0.7339   63.8759   83.5587 N   0  0  0  0  0  0  0  0  0  0  0  0
   -0.1473   61.8115   82.6235 C   0  0  0  0  0  0  0  0  0  0  0  0
    0.7922   61.1934   82.1374 O   0  0  0  0  0  0  0  0  0  0  0  0
   -1.4449   61.7267   82.1640 N   0  0  0  0  0  0  0  0  0  0  0  0
   -2.1421   62.1146   82.7977 H   0  0  0  0  0  0  0  0  0  0  0  0
   -1.8654   60.6920   81.2207 C   0  0  0  0  0  0  0  0  0  0  0  0
   -2.7745   59.7423   82.0039 C   0  0  0  0  0  0  0  0  0  0  0  0
   -3.1482   59.8855   83.1590 O   0  0  0  0  0  0  0  0  0  0  0  0
   -3.1905   58.6815   81.2828 O   0  0  0  0  0  0  0  0  0  0  0  0
   -3.7245   58.1609   81.9187 H   0  0  0  0  0  0  0  0  0  0  0  0
   -2.6146   61.3085   80.0204 C   0  0  0  0  0  0  0  0  0  0  0  0
   -3.9388   61.9449   80.4617 C   0  0  0  0  0  0  0  0  0  0  0  0
   -1.7694   62.3675   79.3039 C   0  0  0  0  0  0  0  0  0  0  0  0
    1.6960   65.9865   84.3449 C   0  0  0  0  0  0  0  0  0  0  0  0
    1.8061   66.3136   82.9559 O   0  0  0  0  0  0  0  0  0  0  0  0
    0.6817   67.7345   81.4594 C   0  0  0  0  0  0  0  0  0  0  0  0
    0.3592   69.0186   80.9777 C   0  0  0  0  0  0  0  0  0  0  0  0
    0.9117   70.1644   81.5616 C   0  0  0  0  0  0  0  0  0  0  0  0
    1.7929   70.0081   82.6391 C   0  0  0  0  0  0  0  0  0  0  0  0
    2.3908   71.0646   83.2761 O   0  0  0  0  0  0  0  0  0  0  0  0
    2.1149   68.7413   83.1314 C   0  0  0  0  0  0  0  0  0  0  0  0
    1.5581   67.5990   82.5541 C   0  0  0  0  0  0  0  0  0  0  0  0
    2.0881   71.8951   82.8435 H   0  0  0  0  0  0  0  0  0  0  0  0
    0.5815   71.5312   81.0592 C   0  0  0  0  0  0  0  0  0  0  0  0
   -0.8591   71.9566   80.9532 C   0  0  0  0  0  0  0  0  0  0  0  0
    1.4977   72.2898   80.7391 O   0  0  0  0  0  0  0  0  0  0  0  0
    0.8756   66.0171   79.6323 C   0  0  0  0  0  0  0  0  0  0  0  0
    0.0475   66.5270   80.8023 C   0  0  0  0  0  0  0  0  0  0  0  0
 32 33  1  0  0  0
 33 21  1  0  0  0
 21 22  1  0  0  0
 22 23  2  0  0  0
 23 29  1  0  0  0
 29 30  1  0  0  0
 29 31  2  0  0  0
 23 24  1  0  0  0
 24 25  1  0  0  0
 24 26  2  0  0  0
 26 27  1  0  0  0
 27 20  1  0  0  0
 20 19  1  0  0  0
 19  1  1  0  0  0
  1  2  2  0  0  0
  2  3  1  0  0  0
  3  4  2  0  0  0
  4  5  1  0  0  0
  5  7  1  0  0  0
  7  8  2  0  0  0
  7  9  1  0  0  0
  9 11  1  0  0  0
 11 12  1  0  0  0
 12 13  2  0  0  0
 12 14  1  0  0  0
 11 16  1  0  0  0
 16 17  1  0  0  0
 16 18  1  0  0  0
  5  6  2  0  0  0
 27 21  2  0  0  0
  6  1  1  0  0  0
 25 28  1  0  0  0
  9 10  1  0  0  0
 14 15  1  0  0  0
M  END
> <minimizedAffinity>
-9.47044

$$$$



 33 34  0  0  0  0  0  0  0  0999 V2000
    0.6237   64.8013   84.2073 C   0  0  0  0  0  0  0  0  0  0  0  0
    0.2707   65.1726   82.9090 C   0  0  0  0  0  0  0  0  0  0  0  0
    0.9955   66.1719   82.2637 C   0  0  0  0  0  0  0  0  0  0  0  0
    2.0626   66.7715   82.9207 C   0  0  0  0  0  0  0  0  0  0  0  0
    2.3641   66.3370   84.2031 C   0  0  0  0  0  0  0  0  0  0  0  0
    1.6725   65.3623   84.8613 N   0  0  0  0  0  0  0  0  0  0  0  0
    3.5147   66.9471   84.9464 C   0  0  0  0  0  0  0  0  0  0  0  0
    3.6613   68.1611   85.0229 O   0  0  0  0  0  0  0  0  0  0  0  0
    4.3648   66.0306   85.5291 N   0  0  0  0  0  0  0  0  0  0  0  0
    3.9962   65.0817   85.5708 H   0  0  0  0  0  0  0  0  0  0  0  0
    5.3730   66.4261   86.5112 C   0  0  0  0  0  0  0  0  0  0  0  0
    5.3266   65.3730   87.6204 C   0  0  0  0  0  0  0  0  0  0  0  0
    5.4641   65.5758   88.8181 O   0  0  0  0  0  0  0  0  0  0  0  0
    5.0779   64.1274   87.1674 O   0  0  0  0  0  0  0  0  0  0  0  0
    5.1122   63.5732   87.9750 H   0  0  0  0  0  0  0  0  0  0  0  0
    6.7753   66.4906   85.8697 C   0  0  0  0  0  0  0  0  0  0  0  0
    6.8742   65.5532   84.6595 C   0  0  0  0  0  0  0  0  0  0  0  0
    7.1345   67.9131   85.4265 C   0  0  0  0  0  0  0  0  0  0  0  0
   -0.1318   63.7076   84.9330 C   0  0  0  0  0  0  0  0  0  0  0  0
    0.1622   62.3934   84.4484 O   0  0  0  0  0  0  0  0  0  0  0  0
   -0.1664   61.5421   82.2828 C   0  0  0  0  0  0  0  0  0  0  0  0
   -0.9730   60.9308   81.3027 C   0  0  0  0  0  0  0  0  0  0  0  0
   -2.3041   60.5947   81.5753 C   0  0  0  0  0  0  0  0  0  0  0  0
   -2.8189   60.8776   82.8469 C   0  0  0  0  0  0  0  0  0  0  0  0
   -4.1095   60.5933   83.2119 O   0  0  0  0  0  0  0  0  0  0  0  0
   -2.0279   61.4762   83.8301 C   0  0  0  0  0  0  0  0  0  0  0  0
   -0.6982   61.8044   83.5608 C   0  0  0  0  0  0  0  0  0  0  0  0
   -4.5615   60.1778   82.4428 H   0  0  0  0  0  0  0  0  0  0  0  0
   -3.1713   59.9496   80.5452 C   0  0  0  0  0  0  0  0  0  0  0  0
   -3.7645   60.7861   79.4426 C   0  0  0  0  0  0  0  0  0  0  0  0
   -3.3870   58.7388   80.6161 O   0  0  0  0  0  0  0  0  0  0  0  0
    2.1521   60.6339   81.9293 C   0  0  0  0  0  0  0  0  0  0  0  0
    1.2711   61.8741   81.9431 C   0  0  0  0  0  0  0  0  0  0  0  0
 32 33  1  0  0  0
 33 21  1  0  0  0
 21 22  1  0  0  0
 22 23  2  0  0  0
 23 29  1  0  0  0
 29 30  1  0  0  0
 29 31  2  0  0  0
 23 24  1  0  0  0
 24 25  1  0  0  0
 24 26  2  0  0  0
 26 27  1  0  0  0
 27 20  1  0  0  0
 20 19  1  0  0  0
 19  1  1  0  0  0
  1  2  2  0  0  0
  2  3  1  0  0  0
  3  4  2  0  0  0
  4  5  1  0  0  0
  5  7  1  0  0  0
  7  8  2  0  0  0
  7  9  1  0  0  0
  9 11  1  0  0  0
 11 12  1  0  0  0
 12 13  2  0  0  0
 12 14  1  0  0  0
 11 16  1  0  0  0
 16 17  1  0  0  0
 16 18  1  0  0  0
  5  6  2  0  0  0
 27 21  2  0  0  0
  6  1  1  0  0  0
 25 28  1  0  0  0
  9 10  1  0  0  0
 14 15  1  0  0  0
M  END
> <minimizedAffinity>
-9.38350

$$$$



 33 34  0  0  0  0  0  0  0  0999 V2000
   -0.5054   63.3008   85.4582 C   0  0  0  0  0  0  0  0  0  0  0  0
   -1.6729   63.0681   86.1869 C   0  0  0  0  0  0  0  0  0  0  0  0
   -2.7030   62.3300   85.6085 C   0  0  0  0  0  0  0  0  0  0  0  0
   -2.5436   61.8302   84.3221 C   0  0  0  0  0  0  0  0  0  0  0  0
   -1.3480   62.0880   83.6675 C   0  0  0  0  0  0  0  0  0  0  0  0
   -0.3223   62.8083   84.2067 N   0  0  0  0  0  0  0  0  0  0  0  0
   -1.1267   61.5586   82.2822 C   0  0  0  0  0  0  0  0  0  0  0  0
   -0.0020   61.4280   81.8143 O   0  0  0  0  0  0  0  0  0  0  0  0
   -2.2842   61.2321   81.6070 N   0  0  0  0  0  0  0  0  0  0  0  0
   -3.1149   61.1824   82.1950 H   0  0  0  0  0  0  0  0  0  0  0  0
   -2.2645   60.4554   80.3685 C   0  0  0  0  0  0  0  0  0  0  0  0
   -3.0478   59.1725   80.6551 C   0  0  0  0  0  0  0  0  0  0  0  0
   -3.6039   58.4635   79.8290 O   0  0  0  0  0  0  0  0  0  0  0  0
   -3.0621   58.8330   81.9601 O   0  0  0  0  0  0  0  0  0  0  0  0
   -3.6189   58.0268   81.9864 H   0  0  0  0  0  0  0  0  0  0  0  0
   -2.9060   61.2463   79.2088 C   0  0  0  0  0  0  0  0  0  0  0  0
   -4.2547   61.8458   79.6268 C   0  0  0  0  0  0  0  0  0  0  0  0
   -1.9934   62.3741   78.7145 C   0  0  0  0  0  0  0  0  0  0  0  0
    0.6411   64.0853   86.0614 C   0  0  0  0  0  0  0  0  0  0  0  0
    1.1611   65.0954   85.1910 O   0  0  0  0  0  0  0  0  0  0  0  0
    2.9434   66.3442   84.3040 C   0  0  0  0  0  0  0  0  0  0  0  0
    4.2989   66.7281   84.2895 C   0  0  0  0  0  0  0  0  0  0  0  0
    5.2128   66.1709   85.1914 C   0  0  0  0  0  0  0  0  0  0  0  0
    4.7505   65.2226   86.1128 C   0  0  0  0  0  0  0  0  0  0  0  0
    5.5648   64.6147   87.0332 O   0  0  0  0  0  0  0  0  0  0  0  0
    3.4079   64.8390   86.1431 C   0  0  0  0  0  0  0  0  0  0  0  0
    2.4949   65.4002   85.2487 C   0  0  0  0  0  0  0  0  0  0  0  0
    6.4770   64.9642   86.9143 H   0  0  0  0  0  0  0  0  0  0  0  0
    6.6527   66.5659   85.1852 C   0  0  0  0  0  0  0  0  0  0  0  0
    7.6683   65.6650   84.5338 C   0  0  0  0  0  0  0  0  0  0  0  0
    6.9856   67.6267   85.7157 O   0  0  0  0  0  0  0  0  0  0  0  0
    2.5069   68.3292   82.8225 C   0  0  0  0  0  0  0  0  0  0  0  0
    1.9917   66.9857   83.3167 C   0  0  0  0  0  0  0  0  0  0  0  0
 32 33  1  0  0  0
 33 21  1  0  0  0
 21 22  1  0  0  0
 22 23  2  0  0  0
 23 29  1  0  0  0
 29 30  1  0  0  0
 29 31  2  0  0  0
 23 24  1  0  0  0
 24 25  1  0  0  0
 24 26  2  0  0  0
 26 27  1  0  0  0
 27 20  1  0  0  0
 20 19  1  0  0  0
 19  1  1  0  0  0
  1  2  2  0  0  0
  2  3  1  0  0  0
  3  4  2  0  0  0
  4  5  1  0  0  0
  5  7  1  0  0  0
  7  8  2  0  0  0
  7  9  1  0  0  0
  9 11  1  0  0  0
 11 12  1  0  0  0
 12 13  2  0  0  0
 12 14  1  0  0  0
 11 16  1  0  0  0
 16 17  1  0  0  0
 16 18  1  0  0  0
  5  6  2  0  0  0
 27 21  2  0  0  0
  6  1  1  0  0  0
 25 28  1  0  0  0
  9 10  1  0  0  0
 14 15  1  0  0  0
M  END
> <minimizedAffinity>
-9.37094

$$$$



 33 34  0  0  0  0  0  0  0  0999 V2000
    0.2632   64.8319   80.5338 C   0  0  0  0  0  0  0  0  0  0  0  0
    1.1457   65.6215   79.7950 C   0  0  0  0  0  0  0  0  0  0  0  0
    1.1400   65.5340   78.4048 C   0  0  0  0  0  0  0  0  0  0  0  0
    0.2483   64.6709   77.7804 C   0  0  0  0  0  0  0  0  0  0  0  0
   -0.6101   63.9315   78.5808 C   0  0  0  0  0  0  0  0  0  0  0  0
   -0.6272   63.9944   79.9437 N   0  0  0  0  0  0  0  0  0  0  0  0
   -1.5977   62.9957   77.9503 C   0  0  0  0  0  0  0  0  0  0  0  0
   -2.0620   63.2042   76.8359 O   0  0  0  0  0  0  0  0  0  0  0  0
   -1.9164   61.8999   78.7247 N   0  0  0  0  0  0  0  0  0  0  0  0
   -1.2922   61.7471   79.5154 H   0  0  0  0  0  0  0  0  0  0  0  0
   -2.6381   60.7511   78.1798 C   0  0  0  0  0  0  0  0  0  0  0  0
   -1.6004   59.6417   77.9953 C   0  0  0  0  0  0  0  0  0  0  0  0
   -1.7550   58.6016   77.3719 O   0  0  0  0  0  0  0  0  0  0  0  0
   -0.4148   59.9142   78.5770 O   0  0  0  0  0  0  0  0  0  0  0  0
    0.1211   59.1120   78.4037 H   0  0  0  0  0  0  0  0  0  0  0  0
   -3.7638   60.3007   79.1348 C   0  0  0  0  0  0  0  0  0  0  0  0
   -3.2503   59.2709   80.1492 C   0  0  0  0  0  0  0  0  0  0  0  0
   -4.3744   61.4838   79.8942 C   0  0  0  0  0  0  0  0  0  0  0  0
    0.2307   64.9131   82.0457 C   0  0  0  0  0  0  0  0  0  0  0  0
    0.5582   63.6779   82.6903 O   0  0  0  0  0  0  0  0  0  0  0  0
   -0.5735   62.3845   84.2931 C   0  0  0  0  0  0  0  0  0  0  0  0
   -0.9596   62.1209   85.6222 C   0  0  0  0  0  0  0  0  0  0  0  0
   -0.5722   62.9708   86.6647 C   0  0  0  0  0  0  0  0  0  0  0  0
    0.2112   64.0910   86.3589 C   0  0  0  0  0  0  0  0  0  0  0  0
    0.6378   64.9866   87.3053 O   0  0  0  0  0  0  0  0  0  0  0  0
    0.6074   64.3596   85.0468 C   0  0  0  0  0  0  0  0  0  0  0  0
    0.2275   63.5079   84.0082 C   0  0  0  0  0  0  0  0  0  0  0  0
    0.2989   64.6924   88.1811 H   0  0  0  0  0  0  0  0  0  0  0  0
   -0.9768   62.7055   88.0772 C   0  0  0  0  0  0  0  0  0  0  0  0
    0.0422   62.1894   89.0584 C   0  0  0  0  0  0  0  0  0  0  0  0
   -2.1425   62.9147   88.4162 O   0  0  0  0  0  0  0  0  0  0  0  0
   -2.5212   61.2983   83.1303 C   0  0  0  0  0  0  0  0  0  0  0  0
   -1.0070   61.4277   83.2028 C   0  0  0  0  0  0  0  0  0  0  0  0
 32 33  1  0  0  0
 33 21  1  0  0  0
 21 22  1  0  0  0
 22 23  2  0  0  0
 23 29  1  0  0  0
 29 30  1  0  0  0
 29 31  2  0  0  0
 23 24  1  0  0  0
 24 25  1  0  0  0
 24 26  2  0  0  0
 26 27  1  0  0  0
 27 20  1  0  0  0
 20 19  1  0  0  0
 19  1  1  0  0  0
  1  2  2  0  0  0
  2  3  1  0  0  0
  3  4  2  0  0  0
  4  5  1  0  0  0
  5  7  1  0  0  0
  7  8  2  0  0  0
  7  9  1  0  0  0
  9 11  1  0  0  0
 11 12  1  0  0  0
 12 13  2  0  0  0
 12 14  1  0  0  0
 11 16  1  0  0  0
 16 17  1  0  0  0
 16 18  1  0  0  0
  5  6  2  0  0  0
 27 21  2  0  0  0
  6  1  1  0  0  0
 25 28  1  0  0  0
  9 10  1  0  0  0
 14 15  1  0  0  0
M  END
> <minimizedAffinity>
-9.30810

$$$$



 33 34  0  0  0  0  0  0  0  0999 V2000
    0.0728   64.9477   80.4140 C   0  0  0  0  0  0  0  0  0  0  0  0
    1.0697   65.6014   79.6880 C   0  0  0  0  0  0  0  0  0  0  0  0
    1.1985   65.3480   78.3243 C   0  0  0  0  0  0  0  0  0  0  0  0
    0.3252   64.4584   77.7114 C   0  0  0  0  0  0  0  0  0  0  0  0
   -0.6510   63.8608   78.4951 C   0  0  0  0  0  0  0  0  0  0  0  0
   -0.8012   64.0875   79.8321 N   0  0  0  0  0  0  0  0  0  0  0  0
   -1.6232   62.9027   77.8743 C   0  0  0  0  0  0  0  0  0  0  0  0
   -2.0588   63.0704   76.7415 O   0  0  0  0  0  0  0  0  0  0  0  0
   -1.9626   61.8359   78.6798 N   0  0  0  0  0  0  0  0  0  0  0  0
   -1.3589   61.7120   79.4911 H   0  0  0  0  0  0  0  0  0  0  0  0
   -2.6714   60.6681   78.1589 C   0  0  0  0  0  0  0  0  0  0  0  0
   -1.6191   59.5708   77.9851 C   0  0  0  0  0  0  0  0  0  0  0  0
   -1.7808   58.4933   77.4308 O   0  0  0  0  0  0  0  0  0  0  0  0
   -0.4123   59.9003   78.4887 O   0  0  0  0  0  0  0  0  0  0  0  0
    0.1324   59.1004   78.3342 H   0  0  0  0  0  0  0  0  0  0  0  0
   -3.7838   60.2174   79.1292 C   0  0  0  0  0  0  0  0  0  0  0  0
   -3.2366   59.2528   80.1891 C   0  0  0  0  0  0  0  0  0  0  0  0
   -4.4419   61.4083   79.8345 C   0  0  0  0  0  0  0  0  0  0  0  0
   -0.1067   65.2112   81.8946 C   0  0  0  0  0  0  0  0  0  0  0  0
    0.7927   64.4639   82.7199 O   0  0  0  0  0  0  0  0  0  0  0  0
    0.9061   64.8985   85.0266 C   0  0  0  0  0  0  0  0  0  0  0  0
    0.5481   64.6121   86.3588 C   0  0  0  0  0  0  0  0  0  0  0  0
   -0.2960   63.5371   86.6605 C   0  0  0  0  0  0  0  0  0  0  0  0
   -0.7808   62.7508   85.6076 C   0  0  0  0  0  0  0  0  0  0  0  0
   -1.6081   61.6741   85.7972 O   0  0  0  0  0  0  0  0  0  0  0  0
   -0.4402   63.0286   84.2818 C   0  0  0  0  0  0  0  0  0  0  0  0
    0.3956   64.1051   83.9803 C   0  0  0  0  0  0  0  0  0  0  0  0
   -1.7747   61.5813   86.7626 H   0  0  0  0  0  0  0  0  0  0  0  0
   -0.6809   63.2201   88.0679 C   0  0  0  0  0  0  0  0  0  0  0  0
    0.3924   62.9912   89.0989 C   0  0  0  0  0  0  0  0  0  0  0  0
   -1.8752   63.1511   88.3617 O   0  0  0  0  0  0  0  0  0  0  0  0
    3.2816   65.7117   84.8824 C   0  0  0  0  0  0  0  0  0  0  0  0
    1.8114   66.0802   84.7511 C   0  0  0  0  0  0  0  0  0  0  0  0
 32 33  1  0  0  0
 33 21  1  0  0  0
 21 22  1  0  0  0
 22 23  2  0  0  0
 23 29  1  0  0  0
 29 30  1  0  0  0
 29 31  2  0  0  0
 23 24  1  0  0  0
 24 25  1  0  0  0
 24 26  2  0  0  0
 26 27  1  0  0  0
 27 20  1  0  0  0
 20 19  1  0  0  0
 19  1  1  0  0  0
  1  2  2  0  0  0
  2  3  1  0  0  0
  3  4  2  0  0  0
  4  5  1  0  0  0
  5  7  1  0  0  0
  7  8  2  0  0  0
  7  9  1  0  0  0
  9 11  1  0  0  0
 11 12  1  0  0  0
 12 13  2  0  0  0
 12 14  1  0  0  0
 11 16  1  0  0  0
 16 17  1  0  0  0
 16 18  1  0  0  0
  5  6  2  0  0  0
 27 21  2  0  0  0
  6  1  1  0  0  0
 25 28  1  0  0  0
  9 10  1  0  0  0
 14 15  1  0  0  0
M  END
> <minimizedAffinity>
-9.29805

$$$$



 33 34  0  0  0  0  0  0  0  0999 V2000
    0.5613   64.7290   84.5595 C   0  0  0  0  0  0  0  0  0  0  0  0
    0.2926   64.2935   85.8581 C   0  0  0  0  0  0  0  0  0  0  0  0
   -0.1885   63.0018   86.0592 C   0  0  0  0  0  0  0  0  0  0  0  0
   -0.3807   62.1685   84.9644 C   0  0  0  0  0  0  0  0  0  0  0  0
   -0.0748   62.6663   83.7063 C   0  0  0  0  0  0  0  0  0  0  0  0
    0.3962   63.9262   83.4775 N   0  0  0  0  0  0  0  0  0  0  0  0
   -0.2553   61.7989   82.4965 C   0  0  0  0  0  0  0  0  0  0  0  0
    0.6940   61.2515   81.9487 O   0  0  0  0  0  0  0  0  0  0  0  0
   -1.5634   61.6730   82.0776 N   0  0  0  0  0  0  0  0  0  0  0  0
   -2.2547   61.9954   82.7531 H   0  0  0  0  0  0  0  0  0  0  0  0
   -1.9686   60.6656   81.0987 C   0  0  0  0  0  0  0  0  0  0  0  0
   -2.8395   59.6598   81.8547 C   0  0  0  0  0  0  0  0  0  0  0  0
   -3.0933   59.6762   83.0504 O   0  0  0  0  0  0  0  0  0  0  0  0
   -3.3702   58.7071   81.0615 O   0  0  0  0  0  0  0  0  0  0  0  0
   -3.8632   58.1322   81.6836 H   0  0  0  0  0  0  0  0  0  0  0  0
   -2.7518   61.3085   79.9345 C   0  0  0  0  0  0  0  0  0  0  0  0
   -4.0176   62.0120   80.4405 C   0  0  0  0  0  0  0  0  0  0  0  0
   -1.8971   62.3195   79.1622 C   0  0  0  0  0  0  0  0  0  0  0  0
    1.1006   66.1211   84.3051 C   0  0  0  0  0  0  0  0  0  0  0  0
    2.2440   66.1413   83.4445 O   0  0  0  0  0  0  0  0  0  0  0  0
    3.2748   68.2443   83.2517 C   0  0  0  0  0  0  0  0  0  0  0  0
    3.5713   69.4153   82.5265 C   0  0  0  0  0  0  0  0  0  0  0  0
    3.0639   69.6091   81.2365 C   0  0  0  0  0  0  0  0  0  0  0  0
    2.2545   68.6112   80.6788 C   0  0  0  0  0  0  0  0  0  0  0  0
    1.7048   68.7067   79.4265 O   0  0  0  0  0  0  0  0  0  0  0  0
    1.9592   67.4422   81.3838 C   0  0  0  0  0  0  0  0  0  0  0  0
    2.4714   67.2455   82.6673 C   0  0  0  0  0  0  0  0  0  0  0  0
    1.9826   69.5653   79.0340 H   0  0  0  0  0  0  0  0  0  0  0  0
    3.3672   70.8464   80.4578 C   0  0  0  0  0  0  0  0  0  0  0  0
    4.7769   71.1091   79.9982 C   0  0  0  0  0  0  0  0  0  0  0  0
    2.4545   71.6339   80.2042 O   0  0  0  0  0  0  0  0  0  0  0  0
    5.2995   67.5896   84.5925 C   0  0  0  0  0  0  0  0  0  0  0  0
    3.8587   68.0761   84.6384 C   0  0  0  0  0  0  0  0  0  0  0  0
 32 33  1  0  0  0
 33 21  1  0  0  0
 21 22  1  0  0  0
 22 23  2  0  0  0
 23 29  1  0  0  0
 29 30  1  0  0  0
 29 31  2  0  0  0
 23 24  1  0  0  0
 24 25  1  0  0  0
 24 26  2  0  0  0
 26 27  1  0  0  0
 27 20  1  0  0  0
 20 19  1  0  0  0
 19  1  1  0  0  0
  1  2  2  0  0  0
  2  3  1  0  0  0
  3  4  2  0  0  0
  4  5  1  0  0  0
  5  7  1  0  0  0
  7  8  2  0  0  0
  7  9  1  0  0  0
  9 11  1  0  0  0
 11 12  1  0  0  0
 12 13  2  0  0  0
 12 14  1  0  0  0
 11 16  1  0  0  0
 16 17  1  0  0  0
 16 18  1  0  0  0
  5  6  2  0  0  0
 27 21  2  0  0  0
  6  1  1  0  0  0
 25 28  1  0  0  0
  9 10  1  0  0  0
 14 15  1  0  0  0
M  END
> <minimizedAffinity>
-9.25514

$$$$
