


 38 41  0  0  0  0  0  0  0  0999 V2000
    2.2229   66.1403   84.4949 C   0  0  0  0  0  0  0  0  0  0  0  0
    1.7595   67.1335   83.6141 C   0  0  0  0  0  0  0  0  0  0  0  0
    2.6448   68.0679   83.0766 C   0  0  0  0  0  0  0  0  0  0  0  0
    3.9855   68.0658   83.4560 C   0  0  0  0  0  0  0  0  0  0  0  0
    4.4515   67.0959   84.3475 C   0  0  0  0  0  0  0  0  0  0  0  0
    3.5865   66.1198   84.8646 C   0  0  0  0  0  0  0  0  0  0  0  0
   -1.1292   62.5337   83.9935 C   0  0  0  0  0  0  0  0  0  0  0  0
   -1.8671   61.8660   84.9007 N   0  0  0  0  0  0  0  0  0  0  0  0
   -1.5008   62.4107   86.0884 N   0  0  0  0  0  0  0  0  0  0  0  0
   -2.1038   61.9418   87.3125 C   0  0  0  0  0  0  0  0  0  0  0  0
   -0.5598   63.3835   85.9604 C   0  0  0  0  0  0  0  0  0  0  0  0
    0.0914   64.1926   86.9232 C   0  0  0  0  0  0  0  0  0  0  0  0
   -0.0729   64.1385   88.1359 O   0  0  0  0  0  0  0  0  0  0  0  0
    0.9673   65.0696   86.3258 N   0  0  0  0  0  0  0  0  0  0  0  0
    1.2107   65.1297   84.9577 C   0  0  0  0  0  0  0  0  0  0  0  0
    0.6139   64.3721   84.0763 N   0  0  0  0  0  0  0  0  0  0  0  0
   -0.3052   63.4780   84.6259 C   0  0  0  0  0  0  0  0  0  0  0  0
    1.4961   65.6617   86.9535 H   0  0  0  0  0  0  0  0  0  0  0  0
   -1.2457   62.2344   82.5394 C   0  0  0  0  0  0  0  0  0  0  0  0
    1.0599   61.3213   82.0879 C   0  0  0  0  0  0  0  0  0  0  0  0
   -0.4270   61.0077   82.1352 C   0  0  0  0  0  0  0  0  0  0  0  0
    2.0419   69.2997   81.9391 S   0  0  0  0  0  0  0  0  0  0  0  0
    3.1574   70.1627   81.6116 O   0  0  0  0  0  0  0  0  0  0  0  0
    0.8191   69.8369   82.4955 O   0  0  0  0  0  0  0  0  0  0  0  0
    1.6585   68.3883   80.5598 N   0  0  0  0  0  0  0  0  0  0  0  0
    0.3498   68.6005   79.9057 C   0  0  0  0  0  0  0  0  0  0  0  0
   -0.5173   67.3519   79.9796 C   0  0  0  0  0  0  0  0  0  0  0  0
    0.1614   66.1248   79.3515 C   0  0  0  0  0  0  0  0  0  0  0  0
    1.6842   66.2923   79.2547 C   0  0  0  0  0  0  0  0  0  0  0  0
    2.2334   67.0261   80.4725 C   0  0  0  0  0  0  0  0  0  0  0  0
   -0.2029   64.8818   80.1535 C   0  0  0  0  0  0  0  0  0  0  0  0
   -0.6772   65.1260   81.4087 N   0  0  0  0  0  0  0  0  0  0  0  0
   -0.0676   63.7335   79.7483 O   0  0  0  0  0  0  0  0  0  0  0  0
   -0.9813   64.3283   81.9529 H   0  0  0  0  0  0  0  0  0  0  0  0
   -0.9484   66.0472   81.7237 H   0  0  0  0  0  0  0  0  0  0  0  0
    3.9935   65.1373   85.7315 O   0  0  0  0  0  0  0  0  0  0  0  0
    5.3751   65.0932   86.0958 C   0  0  0  0  0  0  0  0  0  0  0  0
    5.4712   65.4008   87.5794 C   0  0  0  0  0  0  0  0  0  0  0  0
 20 21  1  0  0  0
 21 19  1  0  0  0
 19  7  1  0  0  0
  7  8  2  0  0  0
  8  9  1  0  0  0
  9 10  1  0  0  0
  9 11  1  0  0  0
 11 12  1  0  0  0
 12 13  2  0  0  0
 12 14  1  0  0  0
 14 15  1  0  0  0
 15  1  1  0  0  0
  1  2  1  0  0  0
  2  3  2  0  0  0
  3 22  1  0  0  0
 22 23  2  0  0  0
 22 24  2  0  0  0
 22 25  1  0  0  0
 25 26  1  0  0  0
 26 27  1  0  0  0
 27 28  1  0  0  0
 28 31  1  0  0  0
 31 32  1  0  0  0
 31 33  2  0  0  0
 28 29  1  0  0  0
 29 30  1  0  0  0
  3  4  1  0  0  0
  4  5  2  0  0  0
  5  6  1  0  0  0
  6 36  1  0  0  0
 36 37  1  0  0  0
 37 38  1  0  0  0
 15 16  2  0  0  0
 16 17  1  0  0  0
 17  7  1  0  0  0
 17 11  2  0  0  0
  6  1  2  0  0  0
 30 25  1  0  0  0
 14 18  1  0  0  0
 32 34  1  0  0  0
 32 35  1  0  0  0
M  END
> <minimizedAffinity>
-10.09158

$$$$



 38 41  0  0  0  0  0  0  0  0999 V2000
    0.0727   63.4396   84.1624 C   0  0  0  0  0  0  0  0  0  0  0  0
    0.9120   64.4903   83.7520 C   0  0  0  0  0  0  0  0  0  0  0  0
    1.5763   65.2722   84.6971 C   0  0  0  0  0  0  0  0  0  0  0  0
    1.3657   65.0608   86.0581 C   0  0  0  0  0  0  0  0  0  0  0  0
    0.5166   64.0327   86.4760 C   0  0  0  0  0  0  0  0  0  0  0  0
   -0.1258   63.2063   85.5418 C   0  0  0  0  0  0  0  0  0  0  0  0
   -0.4498   61.6758   79.5677 C   0  0  0  0  0  0  0  0  0  0  0  0
   -1.3088   60.7794   79.0460 N   0  0  0  0  0  0  0  0  0  0  0  0
   -2.0833   60.4143   80.0987 N   0  0  0  0  0  0  0  0  0  0  0  0
   -3.1441   59.4538   79.9137 C   0  0  0  0  0  0  0  0  0  0  0  0
   -1.7380   61.0387   81.2559 C   0  0  0  0  0  0  0  0  0  0  0  0
   -2.2695   60.9501   82.5655 C   0  0  0  0  0  0  0  0  0  0  0  0
   -3.1888   60.2220   82.9196 O   0  0  0  0  0  0  0  0  0  0  0  0
   -1.6092   61.7940   83.4288 N   0  0  0  0  0  0  0  0  0  0  0  0
   -0.5348   62.6020   83.0719 C   0  0  0  0  0  0  0  0  0  0  0  0
   -0.0428   62.6702   81.8635 N   0  0  0  0  0  0  0  0  0  0  0  0
   -0.6917   61.8509   80.9393 C   0  0  0  0  0  0  0  0  0  0  0  0
   -1.9121   61.7635   84.3939 H   0  0  0  0  0  0  0  0  0  0  0  0
    0.5808   62.3352   78.7188 C   0  0  0  0  0  0  0  0  0  0  0  0
    0.4093   64.8467   78.8453 C   0  0  0  0  0  0  0  0  0  0  0  0
    0.0509   63.6030   78.0478 C   0  0  0  0  0  0  0  0  0  0  0  0
    2.6585   66.5796   84.1547 S   0  0  0  0  0  0  0  0  0  0  0  0
    1.9622   67.8302   84.3730 O   0  0  0  0  0  0  0  0  0  0  0  0
    3.1486   66.2158   82.8428 O   0  0  0  0  0  0  0  0  0  0  0  0
    3.9435   66.4926   85.2598 N   0  0  0  0  0  0  0  0  0  0  0  0
    4.6187   67.7427   85.6687 C   0  0  0  0  0  0  0  0  0  0  0  0
    6.0723   67.7620   85.2181 C   0  0  0  0  0  0  0  0  0  0  0  0
    6.8718   66.5645   85.7546 C   0  0  0  0  0  0  0  0  0  0  0  0
    5.9609   65.4033   86.1767 C   0  0  0  0  0  0  0  0  0  0  0  0
    4.7736   65.2662   85.2308 C   0  0  0  0  0  0  0  0  0  0  0  0
    7.8770   66.1169   84.7010 C   0  0  0  0  0  0  0  0  0  0  0  0
    8.6928   67.1029   84.2293 N   0  0  0  0  0  0  0  0  0  0  0  0
    7.9583   64.9752   84.2640 O   0  0  0  0  0  0  0  0  0  0  0  0
    9.4105   66.8341   83.5677 H   0  0  0  0  0  0  0  0  0  0  0  0
    8.7656   68.0114   84.6661 H   0  0  0  0  0  0  0  0  0  0  0  0
   -0.9581   62.1749   85.8969 O   0  0  0  0  0  0  0  0  0  0  0  0
   -1.4793   62.1604   87.2280 C   0  0  0  0  0  0  0  0  0  0  0  0
   -2.8011   62.9070   87.2143 C   0  0  0  0  0  0  0  0  0  0  0  0
 20 21  1  0  0  0
 21 19  1  0  0  0
 19  7  1  0  0  0
  7  8  2  0  0  0
  8  9  1  0  0  0
  9 10  1  0  0  0
  9 11  1  0  0  0
 11 12  1  0  0  0
 12 13  2  0  0  0
 12 14  1  0  0  0
 14 15  1  0  0  0
 15  1  1  0  0  0
  1  2  1  0  0  0
  2  3  2  0  0  0
  3 22  1  0  0  0
 22 23  2  0  0  0
 22 24  2  0  0  0
 22 25  1  0  0  0
 25 26  1  0  0  0
 26 27  1  0  0  0
 27 28  1  0  0  0
 28 31  1  0  0  0
 31 32  1  0  0  0
 31 33  2  0  0  0
 28 29  1  0  0  0
 29 30  1  0  0  0
  3  4  1  0  0  0
  4  5  2  0  0  0
  5  6  1  0  0  0
  6 36  1  0  0  0
 36 37  1  0  0  0
 37 38  1  0  0  0
 15 16  2  0  0  0
 16 17  1  0  0  0
 17  7  1  0  0  0
 17 11  2  0  0  0
  6  1  2  0  0  0
 30 25  1  0  0  0
 14 18  1  0  0  0
 32 34  1  0  0  0
 32 35  1  0  0  0
M  END
> <minimizedAffinity>
-9.80354

$$$$



 38 41  0  0  0  0  0  0  0  0999 V2000
    2.1921   66.2954   84.2964 C   0  0  0  0  0  0  0  0  0  0  0  0
    1.7370   67.1581   83.2837 C   0  0  0  0  0  0  0  0  0  0  0  0
    2.5948   68.1076   82.7283 C   0  0  0  0  0  0  0  0  0  0  0  0
    3.8922   68.2536   83.2151 C   0  0  0  0  0  0  0  0  0  0  0  0
    4.3471   67.4152   84.2363 C   0  0  0  0  0  0  0  0  0  0  0  0
    3.5145   66.4241   84.7773 C   0  0  0  0  0  0  0  0  0  0  0  0
   -1.1009   62.6285   83.8434 C   0  0  0  0  0  0  0  0  0  0  0  0
   -1.7875   61.9243   84.7631 N   0  0  0  0  0  0  0  0  0  0  0  0
   -1.3853   62.4497   85.9478 N   0  0  0  0  0  0  0  0  0  0  0  0
   -1.9285   61.9399   87.1836 C   0  0  0  0  0  0  0  0  0  0  0  0
   -0.4708   63.4455   85.8056 C   0  0  0  0  0  0  0  0  0  0  0  0
    0.2014   64.2466   86.7606 C   0  0  0  0  0  0  0  0  0  0  0  0
    0.0872   64.1612   87.9773 O   0  0  0  0  0  0  0  0  0  0  0  0
    1.0340   65.1560   86.1499 N   0  0  0  0  0  0  0  0  0  0  0  0
    1.2209   65.2526   84.7750 C   0  0  0  0  0  0  0  0  0  0  0  0
    0.6051   64.5024   83.9003 N   0  0  0  0  0  0  0  0  0  0  0  0
   -0.2722   63.5760   84.4647 C   0  0  0  0  0  0  0  0  0  0  0  0
    1.5750   65.7450   86.7699 H   0  0  0  0  0  0  0  0  0  0  0  0
   -1.2695   62.3600   82.3883 C   0  0  0  0  0  0  0  0  0  0  0  0
    0.9907   61.3249   81.9718 C   0  0  0  0  0  0  0  0  0  0  0  0
   -0.5138   61.1080   81.9411 C   0  0  0  0  0  0  0  0  0  0  0  0
    2.0065   69.1709   81.4252 S   0  0  0  0  0  0  0  0  0  0  0  0
    0.7678   68.6030   80.9355 O   0  0  0  0  0  0  0  0  0  0  0  0
    3.1201   69.4162   80.5346 O   0  0  0  0  0  0  0  0  0  0  0  0
    1.6380   70.6099   82.2459 N   0  0  0  0  0  0  0  0  0  0  0  0
    0.3059   71.2210   82.0512 C   0  0  0  0  0  0  0  0  0  0  0  0
    0.4120   72.5824   81.3791 C   0  0  0  0  0  0  0  0  0  0  0  0
    1.2997   73.5601   82.1646 C   0  0  0  0  0  0  0  0  0  0  0  0
    2.2473   72.8337   83.1293 C   0  0  0  0  0  0  0  0  0  0  0  0
    2.7617   71.5354   82.5185 C   0  0  0  0  0  0  0  0  0  0  0  0
    2.0766   74.4324   81.1867 C   0  0  0  0  0  0  0  0  0  0  0  0
    2.0705   73.9940   79.8952 N   0  0  0  0  0  0  0  0  0  0  0  0
    2.6963   75.4412   81.5020 O   0  0  0  0  0  0  0  0  0  0  0  0
    2.5302   74.5757   79.2058 H   0  0  0  0  0  0  0  0  0  0  0  0
    1.4536   73.2644   79.5659 H   0  0  0  0  0  0  0  0  0  0  0  0
    3.9140   65.5660   85.7706 O   0  0  0  0  0  0  0  0  0  0  0  0
    5.3040   65.2446   85.8615 C   0  0  0  0  0  0  0  0  0  0  0  0
    5.7444   65.5012   87.2916 C   0  0  0  0  0  0  0  0  0  0  0  0
 20 21  1  0  0  0
 21 19  1  0  0  0
 19  7  1  0  0  0
  7  8  2  0  0  0
  8  9  1  0  0  0
  9 10  1  0  0  0
  9 11  1  0  0  0
 11 12  1  0  0  0
 12 13  2  0  0  0
 12 14  1  0  0  0
 14 15  1  0  0  0
 15  1  1  0  0  0
  1  2  1  0  0  0
  2  3  2  0  0  0
  3 22  1  0  0  0
 22 23  2  0  0  0
 22 24  2  0  0  0
 22 25  1  0  0  0
 25 26  1  0  0  0
 26 27  1  0  0  0
 27 28  1  0  0  0
 28 31  1  0  0  0
 31 32  1  0  0  0
 31 33  2  0  0  0
 28 29  1  0  0  0
 29 30  1  0  0  0
  3  4  1  0  0  0
  4  5  2  0  0  0
  5  6  1  0  0  0
  6 36  1  0  0  0
 36 37  1  0  0  0
 37 38  1  0  0  0
 15 16  2  0  0  0
 16 17  1  0  0  0
 17  7  1  0  0  0
 17 11  2  0  0  0
  6  1  2  0  0  0
 30 25  1  0  0  0
 14 18  1  0  0  0
 32 34  1  0  0  0
 32 35  1  0  0  0
M  END
> <minimizedAffinity>
-9.64608

$$$$



 38 41  0  0  0  0  0  0  0  0999 V2000
    1.0280   65.6632   83.2087 C   0  0  0  0  0  0  0  0  0  0  0  0
    0.6223   65.2435   81.9296 C   0  0  0  0  0  0  0  0  0  0  0  0
    1.0203   65.9522   80.7960 C   0  0  0  0  0  0  0  0  0  0  0  0
    1.7711   67.1190   80.9235 C   0  0  0  0  0  0  0  0  0  0  0  0
    2.1612   67.5563   82.1921 C   0  0  0  0  0  0  0  0  0  0  0  0
    1.8091   66.8331   83.3416 C   0  0  0  0  0  0  0  0  0  0  0  0
   -1.7517   62.3476   85.6120 C   0  0  0  0  0  0  0  0  0  0  0  0
   -1.6527   61.8267   86.8499 N   0  0  0  0  0  0  0  0  0  0  0  0
   -0.5574   62.4316   87.3750 N   0  0  0  0  0  0  0  0  0  0  0  0
   -0.1390   62.1218   88.7208 C   0  0  0  0  0  0  0  0  0  0  0  0
    0.0351   63.3009   86.5140 C   0  0  0  0  0  0  0  0  0  0  0  0
    1.1797   64.1238   86.6497 C   0  0  0  0  0  0  0  0  0  0  0  0
    1.9076   64.1847   87.6332 O   0  0  0  0  0  0  0  0  0  0  0  0
    1.3974   64.8654   85.5114 N   0  0  0  0  0  0  0  0  0  0  0  0
    0.6178   64.7904   84.3620 C   0  0  0  0  0  0  0  0  0  0  0  0
   -0.4306   64.0204   84.2402 N   0  0  0  0  0  0  0  0  0  0  0  0
   -0.7127   63.2618   85.3766 C   0  0  0  0  0  0  0  0  0  0  0  0
    2.2188   65.4564   85.5199 H   0  0  0  0  0  0  0  0  0  0  0  0
   -2.8520   61.9417   84.6943 C   0  0  0  0  0  0  0  0  0  0  0  0
   -3.1791   60.3404   82.7754 C   0  0  0  0  0  0  0  0  0  0  0  0
   -2.3273   61.4666   83.3388 C   0  0  0  0  0  0  0  0  0  0  0  0
    0.5198   65.3859   79.1825 S   0  0  0  0  0  0  0  0  0  0  0  0
    1.6815   65.4636   78.3218 O   0  0  0  0  0  0  0  0  0  0  0  0
   -0.7072   66.0751   78.8463 O   0  0  0  0  0  0  0  0  0  0  0  0
    0.1689   63.7466   79.4468 N   0  0  0  0  0  0  0  0  0  0  0  0
    0.9269   62.7245   78.6941 C   0  0  0  0  0  0  0  0  0  0  0  0
    0.0195   61.9338   77.7626 C   0  0  0  0  0  0  0  0  0  0  0  0
   -1.1373   61.2494   78.5073 C   0  0  0  0  0  0  0  0  0  0  0  0
   -1.4087   61.8955   79.8730 C   0  0  0  0  0  0  0  0  0  0  0  0
   -1.2264   63.4075   79.8100 C   0  0  0  0  0  0  0  0  0  0  0  0
   -2.3842   61.2737   77.6324 C   0  0  0  0  0  0  0  0  0  0  0  0
   -3.5290   60.8660   78.2517 N   0  0  0  0  0  0  0  0  0  0  0  0
   -2.3939   61.5999   76.4515 O   0  0  0  0  0  0  0  0  0  0  0  0
   -4.3885   60.9197   77.7194 H   0  0  0  0  0  0  0  0  0  0  0  0
   -3.5968   60.7386   79.2519 H   0  0  0  0  0  0  0  0  0  0  0  0
    2.1766   67.2094   84.6089 O   0  0  0  0  0  0  0  0  0  0  0  0
    3.4042   67.9245   84.7676 C   0  0  0  0  0  0  0  0  0  0  0  0
    4.5126   66.9034   84.9518 C   0  0  0  0  0  0  0  0  0  0  0  0
 20 21  1  0  0  0
 21 19  1  0  0  0
 19  7  1  0  0  0
  7  8  2  0  0  0
  8  9  1  0  0  0
  9 10  1  0  0  0
  9 11  1  0  0  0
 11 12  1  0  0  0
 12 13  2  0  0  0
 12 14  1  0  0  0
 14 15  1  0  0  0
 15  1  1  0  0  0
  1  2  1  0  0  0
  2  3  2  0  0  0
  3 22  1  0  0  0
 22 23  2  0  0  0
 22 24  2  0  0  0
 22 25  1  0  0  0
 25 26  1  0  0  0
 26 27  1  0  0  0
 27 28  1  0  0  0
 28 31  1  0  0  0
 31 32  1  0  0  0
 31 33  2  0  0  0
 28 29  1  0  0  0
 29 30  1  0  0  0
  3  4  1  0  0  0
  4  5  2  0  0  0
  5  6  1  0  0  0
  6 36  1  0  0  0
 36 37  1  0  0  0
 37 38  1  0  0  0
 15 16  2  0  0  0
 16 17  1  0  0  0
 17  7  1  0  0  0
 17 11  2  0  0  0
  6  1  2  0  0  0
 30 25  1  0  0  0
 14 18  1  0  0  0
 32 34  1  0  0  0
 32 35  1  0  0  0
M  END
> <minimizedAffinity>
-9.54328

$$$$



 38 41  0  0  0  0  0  0  0  0999 V2000
    0.3682   64.2377   85.0743 C   0  0  0  0  0  0  0  0  0  0  0  0
   -0.2123   63.8690   83.8479 C   0  0  0  0  0  0  0  0  0  0  0  0
   -1.3631   63.0813   83.8213 C   0  0  0  0  0  0  0  0  0  0  0  0
   -1.9130   62.5990   85.0071 C   0  0  0  0  0  0  0  0  0  0  0  0
   -1.3309   62.9421   86.2303 C   0  0  0  0  0  0  0  0  0  0  0  0
   -0.1995   63.7702   86.2809 C   0  0  0  0  0  0  0  0  0  0  0  0
    2.9864   68.1472   83.5395 C   0  0  0  0  0  0  0  0  0  0  0  0
    4.2242   68.5742   83.8543 N   0  0  0  0  0  0  0  0  0  0  0  0
    4.6729   67.6548   84.7457 N   0  0  0  0  0  0  0  0  0  0  0  0
    5.9958   67.7820   85.3077 C   0  0  0  0  0  0  0  0  0  0  0  0
    3.7641   66.6778   85.0061 C   0  0  0  0  0  0  0  0  0  0  0  0
    3.8178   65.5485   85.8590 C   0  0  0  0  0  0  0  0  0  0  0  0
    4.7545   65.2420   86.5865 O   0  0  0  0  0  0  0  0  0  0  0  0
    2.6568   64.8136   85.7855 N   0  0  0  0  0  0  0  0  0  0  0  0
    1.5576   65.1543   85.0042 C   0  0  0  0  0  0  0  0  0  0  0  0
    1.5114   66.2042   84.2279 N   0  0  0  0  0  0  0  0  0  0  0  0
    2.6745   66.9744   84.2449 C   0  0  0  0  0  0  0  0  0  0  0  0
    2.6065   64.0056   86.3928 H   0  0  0  0  0  0  0  0  0  0  0  0
    2.1431   68.8912   82.5633 C   0  0  0  0  0  0  0  0  0  0  0  0
    1.8344   67.2508   80.6747 C   0  0  0  0  0  0  0  0  0  0  0  0
    2.4957   68.5468   81.1157 C   0  0  0  0  0  0  0  0  0  0  0  0
   -2.0995   62.6505   82.2570 S   0  0  0  0  0  0  0  0  0  0  0  0
   -3.0431   63.6973   81.9250 O   0  0  0  0  0  0  0  0  0  0  0  0
   -2.5170   61.2678   82.3445 O   0  0  0  0  0  0  0  0  0  0  0  0
   -0.7930   62.7579   81.1792 N   0  0  0  0  0  0  0  0  0  0  0  0
   -0.6152   63.9986   80.3951 C   0  0  0  0  0  0  0  0  0  0  0  0
   -0.7769   63.7413   78.9038 C   0  0  0  0  0  0  0  0  0  0  0  0
    0.1987   62.6759   78.3802 C   0  0  0  0  0  0  0  0  0  0  0  0
    0.7393   61.7834   79.5061 C   0  0  0  0  0  0  0  0  0  0  0  0
   -0.3387   61.4987   80.5453 C   0  0  0  0  0  0  0  0  0  0  0  0
   -0.4916   61.8448   77.3061 C   0  0  0  0  0  0  0  0  0  0  0  0
   -1.8535   61.9189   77.3087 N   0  0  0  0  0  0  0  0  0  0  0  0
    0.0945   61.1297   76.5023 O   0  0  0  0  0  0  0  0  0  0  0  0
   -2.3462   61.4237   76.5759 H   0  0  0  0  0  0  0  0  0  0  0  0
   -2.3650   62.6063   77.8445 H   0  0  0  0  0  0  0  0  0  0  0  0
    0.4036   64.1490   87.4537 O   0  0  0  0  0  0  0  0  0  0  0  0
   -0.2017   63.7402   88.6826 C   0  0  0  0  0  0  0  0  0  0  0  0
    0.5217   62.4942   89.1611 C   0  0  0  0  0  0  0  0  0  0  0  0
 20 21  1  0  0  0
 21 19  1  0  0  0
 19  7  1  0  0  0
  7  8  2  0  0  0
  8  9  1  0  0  0
  9 10  1  0  0  0
  9 11  1  0  0  0
 11 12  1  0  0  0
 12 13  2  0  0  0
 12 14  1  0  0  0
 14 15  1  0  0  0
 15  1  1  0  0  0
  1  2  1  0  0  0
  2  3  2  0  0  0
  3 22  1  0  0  0
 22 23  2  0  0  0
 22 24  2  0  0  0
 22 25  1  0  0  0
 25 26  1  0  0  0
 26 27  1  0  0  0
 27 28  1  0  0  0
 28 31  1  0  0  0
 31 32  1  0  0  0
 31 33  2  0  0  0
 28 29  1  0  0  0
 29 30  1  0  0  0
  3  4  1  0  0  0
  4  5  2  0  0  0
  5  6  1  0  0  0
  6 36  1  0  0  0
 36 37  1  0  0  0
 37 38  1  0  0  0
 15 16  2  0  0  0
 16 17  1  0  0  0
 17  7  1  0  0  0
 17 11  2  0  0  0
  6  1  2  0  0  0
 30 25  1  0  0  0
 14 18  1  0  0  0
 32 34  1  0  0  0
 32 35  1  0  0  0
M  END
> <minimizedAffinity>
-9.53264

$$$$



 38 41  0  0  0  0  0  0  0  0999 V2000
    0.2517   64.5111   82.9436 C   0  0  0  0  0  0  0  0  0  0  0  0
    1.1888   65.5593   82.9380 C   0  0  0  0  0  0  0  0  0  0  0  0
    1.7346   66.0233   84.1349 C   0  0  0  0  0  0  0  0  0  0  0  0
    1.3100   65.4961   85.3526 C   0  0  0  0  0  0  0  0  0  0  0  0
    0.3630   64.4686   85.3700 C   0  0  0  0  0  0  0  0  0  0  0  0
   -0.1648   63.9572   84.1749 C   0  0  0  0  0  0  0  0  0  0  0  0
   -2.6569   62.0518   79.7833 C   0  0  0  0  0  0  0  0  0  0  0  0
   -2.6240   61.9364   78.4421 N   0  0  0  0  0  0  0  0  0  0  0  0
   -1.5484   62.6774   78.0741 N   0  0  0  0  0  0  0  0  0  0  0  0
   -1.1882   62.7819   76.6807 C   0  0  0  0  0  0  0  0  0  0  0  0
   -0.9149   63.2565   79.1283 C   0  0  0  0  0  0  0  0  0  0  0  0
    0.2236   64.0963   79.1938 C   0  0  0  0  0  0  0  0  0  0  0  0
    0.8742   64.4996   78.2375 O   0  0  0  0  0  0  0  0  0  0  0  0
    0.5223   64.4292   80.4950 N   0  0  0  0  0  0  0  0  0  0  0  0
   -0.2184   64.0252   81.6009 C   0  0  0  0  0  0  0  0  0  0  0  0
   -1.2744   63.2591   81.5316 N   0  0  0  0  0  0  0  0  0  0  0  0
   -1.6096   62.8705   80.2342 C   0  0  0  0  0  0  0  0  0  0  0  0
    1.3071   65.0555   80.6215 H   0  0  0  0  0  0  0  0  0  0  0  0
   -3.7050   61.3641   80.5873 C   0  0  0  0  0  0  0  0  0  0  0  0
   -3.1569   60.2613   82.7865 C   0  0  0  0  0  0  0  0  0  0  0  0
   -3.1725   60.1059   81.2742 C   0  0  0  0  0  0  0  0  0  0  0  0
    2.9430   67.3324   84.1028 S   0  0  0  0  0  0  0  0  0  0  0  0
    2.3157   68.5082   84.6688 O   0  0  0  0  0  0  0  0  0  0  0  0
    3.5154   67.3567   82.7742 O   0  0  0  0  0  0  0  0  0  0  0  0
    4.1227   66.7877   85.1945 N   0  0  0  0  0  0  0  0  0  0  0  0
    4.8016   67.7740   86.0618 C   0  0  0  0  0  0  0  0  0  0  0  0
    6.2889   67.8575   85.7497 C   0  0  0  0  0  0  0  0  0  0  0  0
    6.9972   66.5009   85.8871 C   0  0  0  0  0  0  0  0  0  0  0  0
    6.0139   65.3246   85.8105 C   0  0  0  0  0  0  0  0  0  0  0  0
    4.9100   65.5982   84.7958 C   0  0  0  0  0  0  0  0  0  0  0  0
    8.0750   66.3844   84.8167 C   0  0  0  0  0  0  0  0  0  0  0  0
    8.1174   65.1833   84.1720 N   0  0  0  0  0  0  0  0  0  0  0  0
    8.8792   67.2683   84.5464 O   0  0  0  0  0  0  0  0  0  0  0  0
    8.7844   65.0857   83.4166 H   0  0  0  0  0  0  0  0  0  0  0  0
    7.3855   64.4909   84.2519 H   0  0  0  0  0  0  0  0  0  0  0  0
   -1.0858   62.9410   84.1335 O   0  0  0  0  0  0  0  0  0  0  0  0
   -1.3169   62.1950   85.3309 C   0  0  0  0  0  0  0  0  0  0  0  0
   -2.7168   62.5246   85.8171 C   0  0  0  0  0  0  0  0  0  0  0  0
 20 21  1  0  0  0
 21 19  1  0  0  0
 19  7  1  0  0  0
  7  8  2  0  0  0
  8  9  1  0  0  0
  9 10  1  0  0  0
  9 11  1  0  0  0
 11 12  1  0  0  0
 12 13  2  0  0  0
 12 14  1  0  0  0
 14 15  1  0  0  0
 15  1  1  0  0  0
  1  2  1  0  0  0
  2  3  2  0  0  0
  3 22  1  0  0  0
 22 23  2  0  0  0
 22 24  2  0  0  0
 22 25  1  0  0  0
 25 26  1  0  0  0
 26 27  1  0  0  0
 27 28  1  0  0  0
 28 31  1  0  0  0
 31 32  1  0  0  0
 31 33  2  0  0  0
 28 29  1  0  0  0
 29 30  1  0  0  0
  3  4  1  0  0  0
  4  5  2  0  0  0
  5  6  1  0  0  0
  6 36  1  0  0  0
 36 37  1  0  0  0
 37 38  1  0  0  0
 15 16  2  0  0  0
 16 17  1  0  0  0
 17  7  1  0  0  0
 17 11  2  0  0  0
  6  1  2  0  0  0
 30 25  1  0  0  0
 14 18  1  0  0  0
 32 34  1  0  0  0
 32 35  1  0  0  0
M  END
> <minimizedAffinity>
-9.32288

$$$$



 38 41  0  0  0  0  0  0  0  0999 V2000
    1.6889   65.7393   84.0544 C   0  0  0  0  0  0  0  0  0  0  0  0
    1.0261   65.9647   82.8350 C   0  0  0  0  0  0  0  0  0  0  0  0
    1.6137   66.7580   81.8495 C   0  0  0  0  0  0  0  0  0  0  0  0
    2.8342   67.3865   82.0875 C   0  0  0  0  0  0  0  0  0  0  0  0
    3.4908   67.1859   83.3046 C   0  0  0  0  0  0  0  0  0  0  0  0
    2.9380   66.3558   84.2914 C   0  0  0  0  0  0  0  0  0  0  0  0
   -1.6850   62.4478   85.5638 C   0  0  0  0  0  0  0  0  0  0  0  0
   -1.8570   61.8198   86.7426 N   0  0  0  0  0  0  0  0  0  0  0  0
   -0.8522   62.2970   87.5197 N   0  0  0  0  0  0  0  0  0  0  0  0
   -0.7206   61.8465   88.8842 C   0  0  0  0  0  0  0  0  0  0  0  0
   -0.0563   63.1892   86.8726 C   0  0  0  0  0  0  0  0  0  0  0  0
    1.0845   63.9119   87.2991 C   0  0  0  0  0  0  0  0  0  0  0  0
    1.6103   63.8372   88.4031 O   0  0  0  0  0  0  0  0  0  0  0  0
    1.5598   64.7277   86.2983 N   0  0  0  0  0  0  0  0  0  0  0  0
    1.0148   64.8059   85.0210 C   0  0  0  0  0  0  0  0  0  0  0  0
   -0.0316   64.1276   84.6312 N   0  0  0  0  0  0  0  0  0  0  0  0
   -0.5706   63.2998   85.6164 C   0  0  0  0  0  0  0  0  0  0  0  0
    2.3958   65.2542   86.5175 H   0  0  0  0  0  0  0  0  0  0  0  0
   -2.6075   62.2013   84.4211 C   0  0  0  0  0  0  0  0  0  0  0  0
   -1.9329   62.3909   82.0000 C   0  0  0  0  0  0  0  0  0  0  0  0
   -1.9027   61.5213   83.2467 C   0  0  0  0  0  0  0  0  0  0  0  0
    0.7700   67.0065   80.2999 S   0  0  0  0  0  0  0  0  0  0  0  0
   -0.5913   66.5453   80.4747 O   0  0  0  0  0  0  0  0  0  0  0  0
    1.6153   66.4641   79.2583 O   0  0  0  0  0  0  0  0  0  0  0  0
    0.7385   68.6967   80.1509 N   0  0  0  0  0  0  0  0  0  0  0  0
    1.9086   69.3829   79.5629 C   0  0  0  0  0  0  0  0  0  0  0  0
    2.5853   70.2945   80.5766 C   0  0  0  0  0  0  0  0  0  0  0  0
    1.6272   71.3478   81.1541 C   0  0  0  0  0  0  0  0  0  0  0  0
    0.1554   70.9483   80.9799 C   0  0  0  0  0  0  0  0  0  0  0  0
   -0.0313   69.4475   81.1695 C   0  0  0  0  0  0  0  0  0  0  0  0
    1.9612   71.5819   82.6220 C   0  0  0  0  0  0  0  0  0  0  0  0
    2.5789   70.5375   83.2446 N   0  0  0  0  0  0  0  0  0  0  0  0
    1.6865   72.6042   83.2389 O   0  0  0  0  0  0  0  0  0  0  0  0
    2.8658   70.6746   84.2058 H   0  0  0  0  0  0  0  0  0  0  0  0
    2.9594   69.7466   82.7435 H   0  0  0  0  0  0  0  0  0  0  0  0
    3.5457   66.1134   85.4974 O   0  0  0  0  0  0  0  0  0  0  0  0
    4.9601   65.9060   85.5070 C   0  0  0  0  0  0  0  0  0  0  0  0
    5.2651   64.8532   86.5574 C   0  0  0  0  0  0  0  0  0  0  0  0
 20 21  1  0  0  0
 21 19  1  0  0  0
 19  7  1  0  0  0
  7  8  2  0  0  0
  8  9  1  0  0  0
  9 10  1  0  0  0
  9 11  1  0  0  0
 11 12  1  0  0  0
 12 13  2  0  0  0
 12 14  1  0  0  0
 14 15  1  0  0  0
 15  1  1  0  0  0
  1  2  1  0  0  0
  2  3  2  0  0  0
  3 22  1  0  0  0
 22 23  2  0  0  0
 22 24  2  0  0  0
 22 25  1  0  0  0
 25 26  1  0  0  0
 26 27  1  0  0  0
 27 28  1  0  0  0
 28 31  1  0  0  0
 31 32  1  0  0  0
 31 33  2  0  0  0
 28 29  1  0  0  0
 29 30  1  0  0  0
  3  4  1  0  0  0
  4  5  2  0  0  0
  5  6  1  0  0  0
  6 36  1  0  0  0
 36 37  1  0  0  0
 37 38  1  0  0  0
 15 16  2  0  0  0
 16 17  1  0  0  0
 17  7  1  0  0  0
 17 11  2  0  0  0
  6  1  2  0  0  0
 30 25  1  0  0  0
 14 18  1  0  0  0
 32 34  1  0  0  0
 32 35  1  0  0  0
M  END
> <minimizedAffinity>
-9.31332

$$$$



 38 41  0  0  0  0  0  0  0  0999 V2000
    0.8991   65.8461   82.0231 C   0  0  0  0  0  0  0  0  0  0  0  0
    1.5377   66.5605   83.0521 C   0  0  0  0  0  0  0  0  0  0  0  0
    2.3085   67.6848   82.7564 C   0  0  0  0  0  0  0  0  0  0  0  0
    2.5055   68.0744   81.4333 C   0  0  0  0  0  0  0  0  0  0  0  0
    1.8925   67.3581   80.4018 C   0  0  0  0  0  0  0  0  0  0  0  0
    1.0769   66.2513   80.6812 C   0  0  0  0  0  0  0  0  0  0  0  0
   -1.2337   62.7146   85.2075 C   0  0  0  0  0  0  0  0  0  0  0  0
   -2.0875   61.6905   85.0186 N   0  0  0  0  0  0  0  0  0  0  0  0
   -2.2737   61.6605   83.6749 N   0  0  0  0  0  0  0  0  0  0  0  0
   -3.1394   60.6654   83.0895 C   0  0  0  0  0  0  0  0  0  0  0  0
   -1.5789   62.6277   83.0192 C   0  0  0  0  0  0  0  0  0  0  0  0
   -1.4904   62.9514   81.6434 C   0  0  0  0  0  0  0  0  0  0  0  0
   -2.0884   62.3896   80.7337 O   0  0  0  0  0  0  0  0  0  0  0  0
   -0.6367   64.0102   81.4351 N   0  0  0  0  0  0  0  0  0  0  0  0
    0.0251   64.6986   82.4464 C   0  0  0  0  0  0  0  0  0  0  0  0
   -0.0702   64.4010   83.7150 N   0  0  0  0  0  0  0  0  0  0  0  0
   -0.9063   63.3167   83.9823 C   0  0  0  0  0  0  0  0  0  0  0  0
   -0.5457   64.3220   80.4766 H   0  0  0  0  0  0  0  0  0  0  0  0
   -0.7617   63.0786   86.5721 C   0  0  0  0  0  0  0  0  0  0  0  0
   -0.0591   62.1800   88.8198 C   0  0  0  0  0  0  0  0  0  0  0  0
   -0.8311   61.8974   87.5409 C   0  0  0  0  0  0  0  0  0  0  0  0
    3.0847   68.5930   84.0783 S   0  0  0  0  0  0  0  0  0  0  0  0
    2.1778   68.5660   85.2067 O   0  0  0  0  0  0  0  0  0  0  0  0
    3.5510   69.8454   83.5237 O   0  0  0  0  0  0  0  0  0  0  0  0
    4.4303   67.6321   84.4610 N   0  0  0  0  0  0  0  0  0  0  0  0
    4.4421   66.2177   84.0310 C   0  0  0  0  0  0  0  0  0  0  0  0
    4.4457   65.2740   85.2251 C   0  0  0  0  0  0  0  0  0  0  0  0
    5.6347   65.5194   86.1669 C   0  0  0  0  0  0  0  0  0  0  0  0
    6.2380   66.9190   85.9842 C   0  0  0  0  0  0  0  0  0  0  0  0
    5.1515   67.9532   85.7142 C   0  0  0  0  0  0  0  0  0  0  0  0
    5.1907   65.2980   87.6073 C   0  0  0  0  0  0  0  0  0  0  0  0
    4.0559   64.5554   87.7514 N   0  0  0  0  0  0  0  0  0  0  0  0
    5.7651   65.7591   88.5863 O   0  0  0  0  0  0  0  0  0  0  0  0
    3.7589   64.3406   88.6951 H   0  0  0  0  0  0  0  0  0  0  0  0
    3.6421   64.0318   86.9924 H   0  0  0  0  0  0  0  0  0  0  0  0
    0.4408   65.5213   79.7091 O   0  0  0  0  0  0  0  0  0  0  0  0
    1.1796   65.1805   78.5337 C   0  0  0  0  0  0  0  0  0  0  0  0
    0.9980   63.6932   78.2894 C   0  0  0  0  0  0  0  0  0  0  0  0
 20 21  1  0  0  0
 21 19  1  0  0  0
 19  7  1  0  0  0
  7  8  2  0  0  0
  8  9  1  0  0  0
  9 10  1  0  0  0
  9 11  1  0  0  0
 11 12  1  0  0  0
 12 13  2  0  0  0
 12 14  1  0  0  0
 14 15  1  0  0  0
 15  1  1  0  0  0
  1  2  1  0  0  0
  2  3  2  0  0  0
  3 22  1  0  0  0
 22 23  2  0  0  0
 22 24  2  0  0  0
 22 25  1  0  0  0
 25 26  1  0  0  0
 26 27  1  0  0  0
 27 28  1  0  0  0
 28 31  1  0  0  0
 31 32  1  0  0  0
 31 33  2  0  0  0
 28 29  1  0  0  0
 29 30  1  0  0  0
  3  4  1  0  0  0
  4  5  2  0  0  0
  5  6  1  0  0  0
  6 36  1  0  0  0
 36 37  1  0  0  0
 37 38  1  0  0  0
 15 16  2  0  0  0
 16 17  1  0  0  0
 17  7  1  0  0  0
 17 11  2  0  0  0
  6  1  2  0  0  0
 30 25  1  0  0  0
 14 18  1  0  0  0
 32 34  1  0  0  0
 32 35  1  0  0  0
M  END
> <minimizedAffinity>
-9.25423

$$$$



 38 41  0  0  0  0  0  0  0  0999 V2000
    0.1166   64.0289   84.6472 C   0  0  0  0  0  0  0  0  0  0  0  0
   -0.4073   63.5060   83.4518 C   0  0  0  0  0  0  0  0  0  0  0  0
   -1.4919   62.6293   83.4815 C   0  0  0  0  0  0  0  0  0  0  0  0
   -2.0269   62.2133   84.6989 C   0  0  0  0  0  0  0  0  0  0  0  0
   -1.4993   62.7107   85.8934 C   0  0  0  0  0  0  0  0  0  0  0  0
   -0.4378   63.6280   85.8835 C   0  0  0  0  0  0  0  0  0  0  0  0
    4.6437   65.8897   85.3806 C   0  0  0  0  0  0  0  0  0  0  0  0
    5.2260   67.0234   84.9459 N   0  0  0  0  0  0  0  0  0  0  0  0
    4.2611   67.6266   84.2066 N   0  0  0  0  0  0  0  0  0  0  0  0
    4.5254   68.8974   83.5762 C   0  0  0  0  0  0  0  0  0  0  0  0
    3.1053   66.9128   84.1553 C   0  0  0  0  0  0  0  0  0  0  0  0
    1.8725   67.1671   83.5063 C   0  0  0  0  0  0  0  0  0  0  0  0
    1.6181   68.1375   82.8033 O   0  0  0  0  0  0  0  0  0  0  0  0
    0.9639   66.1637   83.7528 N   0  0  0  0  0  0  0  0  0  0  0  0
    1.2315   65.0279   84.5098 C   0  0  0  0  0  0  0  0  0  0  0  0
    2.3753   64.7948   85.0966 N   0  0  0  0  0  0  0  0  0  0  0  0
    3.3284   65.7943   84.8996 C   0  0  0  0  0  0  0  0  0  0  0  0
    0.0663   66.2586   83.2951 H   0  0  0  0  0  0  0  0  0  0  0  0
    5.3822   64.9321   86.2498 C   0  0  0  0  0  0  0  0  0  0  0  0
    5.8636   65.4154   88.6763 C   0  0  0  0  0  0  0  0  0  0  0  0
    4.8353   64.9088   87.6776 C   0  0  0  0  0  0  0  0  0  0  0  0
   -2.1592   62.0017   81.9533 S   0  0  0  0  0  0  0  0  0  0  0  0
   -3.3596   62.7591   81.6670 O   0  0  0  0  0  0  0  0  0  0  0  0
   -2.1929   60.5590   82.0591 O   0  0  0  0  0  0  0  0  0  0  0  0
   -0.9779   62.4370   80.8153 N   0  0  0  0  0  0  0  0  0  0  0  0
   -1.1922   63.6457   79.9914 C   0  0  0  0  0  0  0  0  0  0  0  0
   -1.3260   63.2960   78.5162 C   0  0  0  0  0  0  0  0  0  0  0  0
   -0.1046   62.5350   77.9776 C   0  0  0  0  0  0  0  0  0  0  0  0
    0.7093   61.8783   79.1012 C   0  0  0  0  0  0  0  0  0  0  0  0
   -0.2037   61.3371   80.1951 C   0  0  0  0  0  0  0  0  0  0  0  0
   -0.5646   61.5006   76.9581 C   0  0  0  0  0  0  0  0  0  0  0  0
   -1.9047   61.5001   76.7043 N   0  0  0  0  0  0  0  0  0  0  0  0
    0.1765   60.6947   76.4084 O   0  0  0  0  0  0  0  0  0  0  0  0
   -2.2416   60.8639   75.9924 H   0  0  0  0  0  0  0  0  0  0  0  0
   -2.5223   62.2383   77.0125 H   0  0  0  0  0  0  0  0  0  0  0  0
    0.1090   64.1581   87.0249 O   0  0  0  0  0  0  0  0  0  0  0  0
   -0.4438   63.7601   88.2818 C   0  0  0  0  0  0  0  0  0  0  0  0
    0.5378   62.8041   88.9356 C   0  0  0  0  0  0  0  0  0  0  0  0
 20 21  1  0  0  0
 21 19  1  0  0  0
 19  7  1  0  0  0
  7  8  2  0  0  0
  8  9  1  0  0  0
  9 10  1  0  0  0
  9 11  1  0  0  0
 11 12  1  0  0  0
 12 13  2  0  0  0
 12 14  1  0  0  0
 14 15  1  0  0  0
 15  1  1  0  0  0
  1  2  1  0  0  0
  2  3  2  0  0  0
  3 22  1  0  0  0
 22 23  2  0  0  0
 22 24  2  0  0  0
 22 25  1  0  0  0
 25 26  1  0  0  0
 26 27  1  0  0  0
 27 28  1  0  0  0
 28 31  1  0  0  0
 31 32  1  0  0  0
 31 33  2  0  0  0
 28 29  1  0  0  0
 29 30  1  0  0  0
  3  4  1  0  0  0
  4  5  2  0  0  0
  5  6  1  0  0  0
  6 36  1  0  0  0
 36 37  1  0  0  0
 37 38  1  0  0  0
 15 16  2  0  0  0
 16 17  1  0  0  0
 17  7  1  0  0  0
 17 11  2  0  0  0
  6  1  2  0  0  0
 30 25  1  0  0  0
 14 18  1  0  0  0
 32 34  1  0  0  0
 32 35  1  0  0  0
M  END
> <minimizedAffinity>
-9.13730

$$$$
