


 34 37  0  0  0  0  0  0  0  0999 V2000
    1.6852   66.7263   82.6378 N   0  0  0  0  0  0  0  0  0  0  0  0
    1.4549   67.7010   82.7645 H   0  0  0  0  0  0  0  0  0  0  0  0
    2.5898   65.1858   85.6959 C   0  0  0  0  0  0  0  0  0  0  0  0
    1.8733   65.6193   84.6443 N   0  0  0  0  0  0  0  0  0  0  0  0
    2.5001   66.3249   83.6940 C   0  0  0  0  0  0  0  0  0  0  0  0
    3.8042   66.6142   83.7283 N   0  0  0  0  0  0  0  0  0  0  0  0
    4.5155   66.2048   84.7811 C   0  0  0  0  0  0  0  0  0  0  0  0
    5.8685   66.5199   84.8354 C   0  0  0  0  0  0  0  0  0  0  0  0
    6.6758   66.1371   85.9102 C   0  0  0  0  0  0  0  0  0  0  0  0
    6.1239   65.4241   86.9651 C   0  0  0  0  0  0  0  0  0  0  0  0
    4.7711   65.0945   86.9307 C   0  0  0  0  0  0  0  0  0  0  0  0
    3.9565   65.4749   85.8323 C   0  0  0  0  0  0  0  0  0  0  0  0
    1.9413   64.4327   86.7041 N   0  0  0  0  0  0  0  0  0  0  0  0
    2.4965   63.5982   86.8729 H   0  0  0  0  0  0  0  0  0  0  0  0
    0.5412   64.1099   86.4331 C   0  0  0  0  0  0  0  0  0  0  0  0
    0.5436   63.0402   88.7434 C   0  0  0  0  0  0  0  0  0  0  0  0
   -0.2451   63.8807   87.7378 C   0  0  0  0  0  0  0  0  0  0  0  0
   -1.6246   63.2686   87.4885 C   0  0  0  0  0  0  0  0  0  0  0  0
    1.2676   66.1243   81.4465 C   0  0  0  0  0  0  0  0  0  0  0  0
    1.8667   66.3576   80.2021 C   0  0  0  0  0  0  0  0  0  0  0  0
    1.4245   65.7038   79.0459 C   0  0  0  0  0  0  0  0  0  0  0  0
    0.3768   64.7894   79.1324 C   0  0  0  0  0  0  0  0  0  0  0  0
   -0.2392   64.5339   80.3566 C   0  0  0  0  0  0  0  0  0  0  0  0
    0.2117   65.1962   81.5021 C   0  0  0  0  0  0  0  0  0  0  0  0
   -0.1954   63.9381   77.6844 S   0  0  0  0  0  0  0  0  0  0  0  0
    0.7984   62.9583   77.2985 O   0  0  0  0  0  0  0  0  0  0  0  0
   -0.6650   64.9436   76.7553 O   0  0  0  0  0  0  0  0  0  0  0  0
   -1.5493   63.0846   78.2722 N   0  0  0  0  0  0  0  0  0  0  0  0
   -1.2478   61.9191   79.1672 C   0  0  0  0  0  0  0  0  0  0  0  0
   -1.5130   60.5706   78.4728 C   0  0  0  0  0  0  0  0  0  0  0  0
   -2.8954   60.3906   77.9845 N   0  0  0  0  0  0  0  0  0  0  0  0
   -3.7107   59.6154   78.9151 C   0  0  0  0  0  0  0  0  0  0  0  0
   -3.5378   61.6868   77.6817 C   0  0  0  0  0  0  0  0  0  0  0  0
   -2.5398   62.7523   77.1962 C   0  0  0  0  0  0  0  0  0  0  0  0
 16 17  1  0  0  0
 17 18  1  0  0  0
 17 15  1  0  0  0
 15 13  1  0  0  0
 13  3  1  0  0  0
  3  4  1  0  0  0
  4  5  2  0  0  0
  5  1  1  0  0  0
  1 19  1  0  0  0
 19 20  1  0  0  0
 20 21  2  0  0  0
 21 22  1  0  0  0
 22 25  1  0  0  0
 25 26  2  0  0  0
 25 27  2  0  0  0
 25 28  1  0  0  0
 28 29  1  0  0  0
 29 30  1  0  0  0
 30 31  1  0  0  0
 31 32  1  0  0  0
 31 33  1  0  0  0
 33 34  1  0  0  0
 22 23  2  0  0  0
 23 24  1  0  0  0
  5  6  1  0  0  0
  6  7  2  0  0  0
  7  8  1  0  0  0
  8  9  2  0  0  0
  9 10  1  0  0  0
 10 11  2  0  0  0
 11 12  1  0  0  0
 12  3  2  0  0  0
 24 19  2  0  0  0
 12  7  1  0  0  0
 34 28  1  0  0  0
 13 14  1  0  0  0
  1  2  1  0  0  0
M  END
> <minimizedAffinity>
-10.13493

$$$$



 34 37  0  0  0  0  0  0  0  0999 V2000
   -2.5393   61.5567   83.7427 N   0  0  0  0  0  0  0  0  0  0  0  0
   -3.3810   61.2233   84.1893 H   0  0  0  0  0  0  0  0  0  0  0  0
   -0.2004   63.7950   85.1790 C   0  0  0  0  0  0  0  0  0  0  0  0
   -1.0118   63.1827   84.2993 N   0  0  0  0  0  0  0  0  0  0  0  0
   -1.7192   62.1241   84.7154 C   0  0  0  0  0  0  0  0  0  0  0  0
   -1.6705   61.6477   85.9628 N   0  0  0  0  0  0  0  0  0  0  0  0
   -0.8500   62.2388   86.8341 C   0  0  0  0  0  0  0  0  0  0  0  0
   -0.7770   61.7362   88.1284 C   0  0  0  0  0  0  0  0  0  0  0  0
    0.0673   62.2933   89.0930 C   0  0  0  0  0  0  0  0  0  0  0  0
    0.8666   63.3786   88.7631 C   0  0  0  0  0  0  0  0  0  0  0  0
    0.8078   63.9009   87.4732 C   0  0  0  0  0  0  0  0  0  0  0  0
   -0.0592   63.3400   86.4992 C   0  0  0  0  0  0  0  0  0  0  0  0
    0.5476   64.9195   84.7544 N   0  0  0  0  0  0  0  0  0  0  0  0
    0.1627   65.7396   85.2153 H   0  0  0  0  0  0  0  0  0  0  0  0
    0.6308   65.0977   83.3056 C   0  0  0  0  0  0  0  0  0  0  0  0
    1.9474   67.1152   84.1292 C   0  0  0  0  0  0  0  0  0  0  0  0
    1.6190   66.2195   82.9335 C   0  0  0  0  0  0  0  0  0  0  0  0
    1.1324   67.0577   81.7500 C   0  0  0  0  0  0  0  0  0  0  0  0
   -2.4910   61.4888   82.3466 C   0  0  0  0  0  0  0  0  0  0  0  0
   -1.8991   60.4368   81.6362 C   0  0  0  0  0  0  0  0  0  0  0  0
   -1.9058   60.4073   80.2365 C   0  0  0  0  0  0  0  0  0  0  0  0
   -2.5268   61.4360   79.5312 C   0  0  0  0  0  0  0  0  0  0  0  0
   -3.1265   62.4962   80.2090 C   0  0  0  0  0  0  0  0  0  0  0  0
   -3.1097   62.5132   81.6068 C   0  0  0  0  0  0  0  0  0  0  0  0
   -2.5601   61.4171   77.7571 S   0  0  0  0  0  0  0  0  0  0  0  0
   -3.7845   62.0467   77.3088 O   0  0  0  0  0  0  0  0  0  0  0  0
   -2.2013   60.0793   77.3372 O   0  0  0  0  0  0  0  0  0  0  0  0
   -1.2744   62.4625   77.3554 N   0  0  0  0  0  0  0  0  0  0  0  0
   -0.0559   62.3624   78.2246 C   0  0  0  0  0  0  0  0  0  0  0  0
    0.0979   63.5829   79.1507 C   0  0  0  0  0  0  0  0  0  0  0  0
    0.1753   64.8814   78.4507 N   0  0  0  0  0  0  0  0  0  0  0  0
    1.5530   65.3363   78.2868 C   0  0  0  0  0  0  0  0  0  0  0  0
   -0.5191   64.8380   77.1468 C   0  0  0  0  0  0  0  0  0  0  0  0
   -1.7213   63.8778   77.1388 C   0  0  0  0  0  0  0  0  0  0  0  0
 16 17  1  0  0  0
 17 18  1  0  0  0
 17 15  1  0  0  0
 15 13  1  0  0  0
 13  3  1  0  0  0
  3  4  1  0  0  0
  4  5  2  0  0  0
  5  1  1  0  0  0
  1 19  1  0  0  0
 19 20  1  0  0  0
 20 21  2  0  0  0
 21 22  1  0  0  0
 22 25  1  0  0  0
 25 26  2  0  0  0
 25 27  2  0  0  0
 25 28  1  0  0  0
 28 29  1  0  0  0
 29 30  1  0  0  0
 30 31  1  0  0  0
 31 32  1  0  0  0
 31 33  1  0  0  0
 33 34  1  0  0  0
 22 23  2  0  0  0
 23 24  1  0  0  0
  5  6  1  0  0  0
  6  7  2  0  0  0
  7  8  1  0  0  0
  8  9  2  0  0  0
  9 10  1  0  0  0
 10 11  2  0  0  0
 11 12  1  0  0  0
 12  3  2  0  0  0
 24 19  2  0  0  0
 12  7  1  0  0  0
 34 28  1  0  0  0
 13 14  1  0  0  0
  1  2  1  0  0  0
M  END
> <minimizedAffinity>
-10.10763

$$$$



 34 37  0  0  0  0  0  0  0  0999 V2000
    1.3825   65.5052   78.5203 N   0  0  0  0  0  0  0  0  0  0  0  0
    2.1550   65.6464   77.8860 H   0  0  0  0  0  0  0  0  0  0  0  0
    1.3699   66.4772   81.9259 C   0  0  0  0  0  0  0  0  0  0  0  0
    1.2108   65.7622   80.7988 N   0  0  0  0  0  0  0  0  0  0  0  0
    1.5733   66.3182   79.6353 C   0  0  0  0  0  0  0  0  0  0  0  0
    2.0952   67.5441   79.5337 N   0  0  0  0  0  0  0  0  0  0  0  0
    2.2350   68.2663   80.6475 C   0  0  0  0  0  0  0  0  0  0  0  0
    2.7572   69.5511   80.5485 C   0  0  0  0  0  0  0  0  0  0  0  0
    2.9221   70.3721   81.6674 C   0  0  0  0  0  0  0  0  0  0  0  0
    2.5540   69.9071   82.9220 C   0  0  0  0  0  0  0  0  0  0  0  0
    2.0314   68.6219   83.0457 C   0  0  0  0  0  0  0  0  0  0  0  0
    1.8759   67.7864   81.9088 C   0  0  0  0  0  0  0  0  0  0  0  0
    0.9976   65.8990   83.1633 N   0  0  0  0  0  0  0  0  0  0  0  0
    1.7382   66.0937   83.8316 H   0  0  0  0  0  0  0  0  0  0  0  0
    0.6734   64.4742   83.1093 C   0  0  0  0  0  0  0  0  0  0  0  0
    0.6799   64.5500   85.6541 C   0  0  0  0  0  0  0  0  0  0  0  0
   -0.0153   64.0054   84.4051 C   0  0  0  0  0  0  0  0  0  0  0  0
   -0.1435   62.4830   84.4805 C   0  0  0  0  0  0  0  0  0  0  0  0
    0.4678   64.4989   78.1937 C   0  0  0  0  0  0  0  0  0  0  0  0
    0.6471   63.1471   78.5136 C   0  0  0  0  0  0  0  0  0  0  0  0
   -0.3171   62.1862   78.1865 C   0  0  0  0  0  0  0  0  0  0  0  0
   -1.4884   62.5803   77.5430 C   0  0  0  0  0  0  0  0  0  0  0  0
   -1.6975   63.9184   77.2127 C   0  0  0  0  0  0  0  0  0  0  0  0
   -0.7246   64.8661   77.5435 C   0  0  0  0  0  0  0  0  0  0  0  0
   -2.7320   61.3846   77.1276 S   0  0  0  0  0  0  0  0  0  0  0  0
   -2.0847   60.2167   76.5675 O   0  0  0  0  0  0  0  0  0  0  0  0
   -3.7763   62.0855   76.4114 O   0  0  0  0  0  0  0  0  0  0  0  0
   -3.3414   60.9433   78.6576 N   0  0  0  0  0  0  0  0  0  0  0  0
   -3.3923   62.0391   79.6808 C   0  0  0  0  0  0  0  0  0  0  0  0
   -2.3238   61.8611   80.7751 C   0  0  0  0  0  0  0  0  0  0  0  0
   -2.4028   60.5827   81.5109 N   0  0  0  0  0  0  0  0  0  0  0  0
   -3.1061   60.7229   82.7827 C   0  0  0  0  0  0  0  0  0  0  0  0
   -3.0173   59.5195   80.6885 C   0  0  0  0  0  0  0  0  0  0  0  0
   -2.7284   59.6805   79.1859 C   0  0  0  0  0  0  0  0  0  0  0  0
 16 17  1  0  0  0
 17 18  1  0  0  0
 17 15  1  0  0  0
 15 13  1  0  0  0
 13  3  1  0  0  0
  3  4  1  0  0  0
  4  5  2  0  0  0
  5  1  1  0  0  0
  1 19  1  0  0  0
 19 20  1  0  0  0
 20 21  2  0  0  0
 21 22  1  0  0  0
 22 25  1  0  0  0
 25 26  2  0  0  0
 25 27  2  0  0  0
 25 28  1  0  0  0
 28 29  1  0  0  0
 29 30  1  0  0  0
 30 31  1  0  0  0
 31 32  1  0  0  0
 31 33  1  0  0  0
 33 34  1  0  0  0
 22 23  2  0  0  0
 23 24  1  0  0  0
  5  6  1  0  0  0
  6  7  2  0  0  0
  7  8  1  0  0  0
  8  9  2  0  0  0
  9 10  1  0  0  0
 10 11  2  0  0  0
 11 12  1  0  0  0
 12  3  2  0  0  0
 24 19  2  0  0  0
 12  7  1  0  0  0
 34 28  1  0  0  0
 13 14  1  0  0  0
  1  2  1  0  0  0
M  END
> <minimizedAffinity>
-10.01446

$$$$



 34 37  0  0  0  0  0  0  0  0999 V2000
    2.0892   65.7645   84.9102 N   0  0  0  0  0  0  0  0  0  0  0  0
    2.8874   65.4344   85.4326 H   0  0  0  0  0  0  0  0  0  0  0  0
   -0.5369   63.4990   84.1931 C   0  0  0  0  0  0  0  0  0  0  0  0
    0.4949   64.3486   84.0498 N   0  0  0  0  0  0  0  0  0  0  0  0
    1.0195   64.9048   85.1496 C   0  0  0  0  0  0  0  0  0  0  0  0
    0.5792   64.6534   86.3858 N   0  0  0  0  0  0  0  0  0  0  0  0
   -0.4591   63.8273   86.5318 C   0  0  0  0  0  0  0  0  0  0  0  0
   -0.9375   63.5769   87.8130 C   0  0  0  0  0  0  0  0  0  0  0  0
   -2.0278   62.7338   88.0451 C   0  0  0  0  0  0  0  0  0  0  0  0
   -2.6659   62.1241   86.9743 C   0  0  0  0  0  0  0  0  0  0  0  0
   -2.2020   62.3580   85.6820 C   0  0  0  0  0  0  0  0  0  0  0  0
   -1.0873   63.2057   85.4506 C   0  0  0  0  0  0  0  0  0  0  0  0
   -1.0962   62.8985   83.0395 N   0  0  0  0  0  0  0  0  0  0  0  0
   -1.2406   61.9130   83.2423 H   0  0  0  0  0  0  0  0  0  0  0  0
   -0.3347   63.0952   81.8070 C   0  0  0  0  0  0  0  0  0  0  0  0
    1.2887   61.1453   82.0173 C   0  0  0  0  0  0  0  0  0  0  0  0
    0.1352   61.7520   81.2167 C   0  0  0  0  0  0  0  0  0  0  0  0
    0.5060   61.8623   79.7367 C   0  0  0  0  0  0  0  0  0  0  0  0
    2.2994   66.8390   84.0400 C   0  0  0  0  0  0  0  0  0  0  0  0
    2.8864   68.0514   84.4240 C   0  0  0  0  0  0  0  0  0  0  0  0
    3.0987   69.0832   83.5019 C   0  0  0  0  0  0  0  0  0  0  0  0
    2.7341   68.8991   82.1698 C   0  0  0  0  0  0  0  0  0  0  0  0
    2.1494   67.7034   81.7557 C   0  0  0  0  0  0  0  0  0  0  0  0
    1.9415   66.6831   82.6884 C   0  0  0  0  0  0  0  0  0  0  0  0
    3.0029   70.1862   80.9781 S   0  0  0  0  0  0  0  0  0  0  0  0
    2.1517   69.9433   79.8322 O   0  0  0  0  0  0  0  0  0  0  0  0
    4.4344   70.3443   80.8354 O   0  0  0  0  0  0  0  0  0  0  0  0
    2.3941   71.5617   81.7809 N   0  0  0  0  0  0  0  0  0  0  0  0
    0.9006   71.6429   81.8954 C   0  0  0  0  0  0  0  0  0  0  0  0
    0.3057   72.7205   80.9703 C   0  0  0  0  0  0  0  0  0  0  0  0
    0.8283   74.0834   81.1966 N   0  0  0  0  0  0  0  0  0  0  0  0
   -0.0622   74.8818   82.0341 C   0  0  0  0  0  0  0  0  0  0  0  0
    2.1928   74.0549   81.7638 C   0  0  0  0  0  0  0  0  0  0  0  0
    3.0119   72.8394   81.2960 C   0  0  0  0  0  0  0  0  0  0  0  0
 16 17  1  0  0  0
 17 18  1  0  0  0
 17 15  1  0  0  0
 15 13  1  0  0  0
 13  3  1  0  0  0
  3  4  1  0  0  0
  4  5  2  0  0  0
  5  1  1  0  0  0
  1 19  1  0  0  0
 19 20  1  0  0  0
 20 21  2  0  0  0
 21 22  1  0  0  0
 22 25  1  0  0  0
 25 26  2  0  0  0
 25 27  2  0  0  0
 25 28  1  0  0  0
 28 29  1  0  0  0
 29 30  1  0  0  0
 30 31  1  0  0  0
 31 32  1  0  0  0
 31 33  1  0  0  0
 33 34  1  0  0  0
 22 23  2  0  0  0
 23 24  1  0  0  0
  5  6  1  0  0  0
  6  7  2  0  0  0
  7  8  1  0  0  0
  8  9  2  0  0  0
  9 10  1  0  0  0
 10 11  2  0  0  0
 11 12  1  0  0  0
 12  3  2  0  0  0
 24 19  2  0  0  0
 12  7  1  0  0  0
 34 28  1  0  0  0
 13 14  1  0  0  0
  1  2  1  0  0  0
M  END
> <minimizedAffinity>
-9.80517

$$$$



 34 37  0  0  0  0  0  0  0  0999 V2000
    1.7844   65.6198   83.5322 N   0  0  0  0  0  0  0  0  0  0  0  0
    2.5445   65.0369   83.2137 H   0  0  0  0  0  0  0  0  0  0  0  0
   -0.8144   63.2704   84.0516 C   0  0  0  0  0  0  0  0  0  0  0  0
    0.0825   64.0754   83.4564 N   0  0  0  0  0  0  0  0  0  0  0  0
    0.8803   64.8226   84.2306 C   0  0  0  0  0  0  0  0  0  0  0  0
    0.8406   64.8045   85.5661 N   0  0  0  0  0  0  0  0  0  0  0  0
   -0.0630   64.0231   86.1616 C   0  0  0  0  0  0  0  0  0  0  0  0
   -0.1256   64.0144   87.5505 C   0  0  0  0  0  0  0  0  0  0  0  0
   -1.0524   63.2323   88.2455 C   0  0  0  0  0  0  0  0  0  0  0  0
   -1.9470   62.4383   87.5420 C   0  0  0  0  0  0  0  0  0  0  0  0
   -1.9006   62.4287   86.1500 C   0  0  0  0  0  0  0  0  0  0  0  0
   -0.9506   63.2154   85.4475 C   0  0  0  0  0  0  0  0  0  0  0  0
   -1.6590   62.4699   83.2453 N   0  0  0  0  0  0  0  0  0  0  0  0
   -2.2949   61.9715   83.8622 H   0  0  0  0  0  0  0  0  0  0  0  0
   -0.9662   61.5642   82.3301 C   0  0  0  0  0  0  0  0  0  0  0  0
   -2.6696   61.5010   80.4390 C   0  0  0  0  0  0  0  0  0  0  0  0
   -1.9624   60.7001   81.5337 C   0  0  0  0  0  0  0  0  0  0  0  0
   -2.9824   60.0033   82.4358 C   0  0  0  0  0  0  0  0  0  0  0  0
    1.7765   66.9486   83.0960 C   0  0  0  0  0  0  0  0  0  0  0  0
    1.0515   67.4018   81.9866 C   0  0  0  0  0  0  0  0  0  0  0  0
    1.0580   68.7509   81.6128 C   0  0  0  0  0  0  0  0  0  0  0  0
    1.7872   69.6685   82.3662 C   0  0  0  0  0  0  0  0  0  0  0  0
    2.5178   69.2493   83.4770 C   0  0  0  0  0  0  0  0  0  0  0  0
    2.5036   67.8985   83.8366 C   0  0  0  0  0  0  0  0  0  0  0  0
    1.8032   71.3863   81.9214 S   0  0  0  0  0  0  0  0  0  0  0  0
    1.4823   72.1727   83.0940 O   0  0  0  0  0  0  0  0  0  0  0  0
    1.0467   71.5169   80.6944 O   0  0  0  0  0  0  0  0  0  0  0  0
    3.4479   71.6565   81.5625 N   0  0  0  0  0  0  0  0  0  0  0  0
    3.9164   73.0769   81.6783 C   0  0  0  0  0  0  0  0  0  0  0  0
    4.1812   73.7144   80.3020 C   0  0  0  0  0  0  0  0  0  0  0  0
    5.1744   73.0010   79.4735 N   0  0  0  0  0  0  0  0  0  0  0  0
    6.5004   73.6060   79.5618 C   0  0  0  0  0  0  0  0  0  0  0  0
    5.2325   71.5635   79.8123 C   0  0  0  0  0  0  0  0  0  0  0  0
    3.8794   71.0029   80.2835 C   0  0  0  0  0  0  0  0  0  0  0  0
 16 17  1  0  0  0
 17 18  1  0  0  0
 17 15  1  0  0  0
 15 13  1  0  0  0
 13  3  1  0  0  0
  3  4  1  0  0  0
  4  5  2  0  0  0
  5  1  1  0  0  0
  1 19  1  0  0  0
 19 20  1  0  0  0
 20 21  2  0  0  0
 21 22  1  0  0  0
 22 25  1  0  0  0
 25 26  2  0  0  0
 25 27  2  0  0  0
 25 28  1  0  0  0
 28 29  1  0  0  0
 29 30  1  0  0  0
 30 31  1  0  0  0
 31 32  1  0  0  0
 31 33  1  0  0  0
 33 34  1  0  0  0
 22 23  2  0  0  0
 23 24  1  0  0  0
  5  6  1  0  0  0
  6  7  2  0  0  0
  7  8  1  0  0  0
  8  9  2  0  0  0
  9 10  1  0  0  0
 10 11  2  0  0  0
 11 12  1  0  0  0
 12  3  2  0  0  0
 24 19  2  0  0  0
 12  7  1  0  0  0
 34 28  1  0  0  0
 13 14  1  0  0  0
  1  2  1  0  0  0
M  END
> <minimizedAffinity>
-9.79437

$$$$



 34 37  0  0  0  0  0  0  0  0999 V2000
    0.7784   65.6025   84.7707 N   0  0  0  0  0  0  0  0  0  0  0  0
    0.2095   66.2301   85.3198 H   0  0  0  0  0  0  0  0  0  0  0  0
    3.3380   67.9736   84.1630 C   0  0  0  0  0  0  0  0  0  0  0  0
    2.1310   67.3893   84.2563 N   0  0  0  0  0  0  0  0  0  0  0  0
    2.0672   66.1261   84.6971 C   0  0  0  0  0  0  0  0  0  0  0  0
    3.1393   65.4157   85.0599 N   0  0  0  0  0  0  0  0  0  0  0  0
    4.3419   65.9840   84.9484 C   0  0  0  0  0  0  0  0  0  0  0  0
    5.4646   65.2446   85.3033 C   0  0  0  0  0  0  0  0  0  0  0  0
    6.7575   65.7661   85.2026 C   0  0  0  0  0  0  0  0  0  0  0  0
    6.9431   67.0581   84.7317 C   0  0  0  0  0  0  0  0  0  0  0  0
    5.8326   67.8186   84.3732 C   0  0  0  0  0  0  0  0  0  0  0  0
    4.5203   67.2900   84.4874 C   0  0  0  0  0  0  0  0  0  0  0  0
    3.4192   69.3108   83.7053 N   0  0  0  0  0  0  0  0  0  0  0  0
    3.3628   69.9200   84.5170 H   0  0  0  0  0  0  0  0  0  0  0  0
    2.4418   69.6760   82.6811 C   0  0  0  0  0  0  0  0  0  0  0  0
    4.0702   70.3394   80.8399 C   0  0  0  0  0  0  0  0  0  0  0  0
    2.9685   69.3678   81.2666 C   0  0  0  0  0  0  0  0  0  0  0  0
    1.8509   69.3284   80.2229 C   0  0  0  0  0  0  0  0  0  0  0  0
    0.1282   64.5256   84.1595 C   0  0  0  0  0  0  0  0  0  0  0  0
   -0.2890   63.3760   84.8423 C   0  0  0  0  0  0  0  0  0  0  0  0
   -0.9622   62.3404   84.1833 C   0  0  0  0  0  0  0  0  0  0  0  0
   -1.2390   62.4580   82.8229 C   0  0  0  0  0  0  0  0  0  0  0  0
   -0.8386   63.5904   82.1153 C   0  0  0  0  0  0  0  0  0  0  0  0
   -0.1651   64.6152   82.7864 C   0  0  0  0  0  0  0  0  0  0  0  0
   -2.1013   61.1654   81.9658 S   0  0  0  0  0  0  0  0  0  0  0  0
   -3.4562   61.0960   82.4721 O   0  0  0  0  0  0  0  0  0  0  0  0
   -1.2365   60.0049   81.9613 O   0  0  0  0  0  0  0  0  0  0  0  0
   -2.1838   61.7725   80.3747 N   0  0  0  0  0  0  0  0  0  0  0  0
   -3.5552   61.8343   79.7699 C   0  0  0  0  0  0  0  0  0  0  0  0
   -3.7573   60.7654   78.6802 C   0  0  0  0  0  0  0  0  0  0  0  0
   -2.7924   60.8337   77.5639 N   0  0  0  0  0  0  0  0  0  0  0  0
   -3.3379   61.5396   76.4080 C   0  0  0  0  0  0  0  0  0  0  0  0
   -1.5121   61.4378   77.9886 C   0  0  0  0  0  0  0  0  0  0  0  0
   -1.1713   61.1487   79.4608 C   0  0  0  0  0  0  0  0  0  0  0  0
 16 17  1  0  0  0
 17 18  1  0  0  0
 17 15  1  0  0  0
 15 13  1  0  0  0
 13  3  1  0  0  0
  3  4  1  0  0  0
  4  5  2  0  0  0
  5  1  1  0  0  0
  1 19  1  0  0  0
 19 20  1  0  0  0
 20 21  2  0  0  0
 21 22  1  0  0  0
 22 25  1  0  0  0
 25 26  2  0  0  0
 25 27  2  0  0  0
 25 28  1  0  0  0
 28 29  1  0  0  0
 29 30  1  0  0  0
 30 31  1  0  0  0
 31 32  1  0  0  0
 31 33  1  0  0  0
 33 34  1  0  0  0
 22 23  2  0  0  0
 23 24  1  0  0  0
  5  6  1  0  0  0
  6  7  2  0  0  0
  7  8  1  0  0  0
  8  9  2  0  0  0
  9 10  1  0  0  0
 10 11  2  0  0  0
 11 12  1  0  0  0
 12  3  2  0  0  0
 24 19  2  0  0  0
 12  7  1  0  0  0
 34 28  1  0  0  0
 13 14  1  0  0  0
  1  2  1  0  0  0
M  END
> <minimizedAffinity>
-9.79259

$$$$



 34 37  0  0  0  0  0  0  0  0999 V2000
    0.7792   64.7487   84.1708 N   0  0  0  0  0  0  0  0  0  0  0  0
    0.9054   64.5818   85.1583 H   0  0  0  0  0  0  0  0  0  0  0  0
    3.2885   67.2406   84.3648 C   0  0  0  0  0  0  0  0  0  0  0  0
    2.5289   66.1657   84.6378 N   0  0  0  0  0  0  0  0  0  0  0  0
    1.5073   65.8831   83.8189 C   0  0  0  0  0  0  0  0  0  0  0  0
    1.2066   66.6069   82.7367 N   0  0  0  0  0  0  0  0  0  0  0  0
    1.9445   67.6876   82.4734 C   0  0  0  0  0  0  0  0  0  0  0  0
    1.6253   68.4587   81.3614 C   0  0  0  0  0  0  0  0  0  0  0  0
    2.3431   69.6107   81.0278 C   0  0  0  0  0  0  0  0  0  0  0  0
    3.4066   70.0127   81.8233 C   0  0  0  0  0  0  0  0  0  0  0  0
    3.7465   69.2539   82.9407 C   0  0  0  0  0  0  0  0  0  0  0  0
    3.0227   68.0782   83.2703 C   0  0  0  0  0  0  0  0  0  0  0  0
    4.3758   67.5467   85.2181 N   0  0  0  0  0  0  0  0  0  0  0  0
    4.2814   68.5175   85.5041 H   0  0  0  0  0  0  0  0  0  0  0  0
    5.6987   67.2693   84.6606 C   0  0  0  0  0  0  0  0  0  0  0  0
    5.8362   65.5073   86.4932 C   0  0  0  0  0  0  0  0  0  0  0  0
    6.1868   65.8600   85.0466 C   0  0  0  0  0  0  0  0  0  0  0  0
    7.6833   65.6704   84.7934 C   0  0  0  0  0  0  0  0  0  0  0  0
   -0.1397   63.9346   83.5010 C   0  0  0  0  0  0  0  0  0  0  0  0
   -0.9227   64.3647   82.4223 C   0  0  0  0  0  0  0  0  0  0  0  0
   -1.8063   63.4963   81.7705 C   0  0  0  0  0  0  0  0  0  0  0  0
   -1.9011   62.1711   82.1902 C   0  0  0  0  0  0  0  0  0  0  0  0
   -1.1339   61.7117   83.2596 C   0  0  0  0  0  0  0  0  0  0  0  0
   -0.2577   62.5912   83.9021 C   0  0  0  0  0  0  0  0  0  0  0  0
   -3.0045   61.0463   81.3740 S   0  0  0  0  0  0  0  0  0  0  0  0
   -4.0563   61.8091   80.7349 O   0  0  0  0  0  0  0  0  0  0  0  0
   -3.3042   59.9856   82.3120 O   0  0  0  0  0  0  0  0  0  0  0  0
   -2.0222   60.4010   80.1388 N   0  0  0  0  0  0  0  0  0  0  0  0
   -0.9111   61.2871   79.6586 C   0  0  0  0  0  0  0  0  0  0  0  0
   -1.1860   61.8521   78.2529 C   0  0  0  0  0  0  0  0  0  0  0  0
   -1.4009   60.8293   77.2091 N   0  0  0  0  0  0  0  0  0  0  0  0
   -0.1914   60.5739   76.4322 C   0  0  0  0  0  0  0  0  0  0  0  0
   -1.9300   59.5730   77.7803 C   0  0  0  0  0  0  0  0  0  0  0  0
   -2.8168   59.8024   79.0164 C   0  0  0  0  0  0  0  0  0  0  0  0
 16 17  1  0  0  0
 17 18  1  0  0  0
 17 15  1  0  0  0
 15 13  1  0  0  0
 13  3  1  0  0  0
  3  4  1  0  0  0
  4  5  2  0  0  0
  5  1  1  0  0  0
  1 19  1  0  0  0
 19 20  1  0  0  0
 20 21  2  0  0  0
 21 22  1  0  0  0
 22 25  1  0  0  0
 25 26  2  0  0  0
 25 27  2  0  0  0
 25 28  1  0  0  0
 28 29  1  0  0  0
 29 30  1  0  0  0
 30 31  1  0  0  0
 31 32  1  0  0  0
 31 33  1  0  0  0
 33 34  1  0  0  0
 22 23  2  0  0  0
 23 24  1  0  0  0
  5  6  1  0  0  0
  6  7  2  0  0  0
  7  8  1  0  0  0
  8  9  2  0  0  0
  9 10  1  0  0  0
 10 11  2  0  0  0
 11 12  1  0  0  0
 12  3  2  0  0  0
 24 19  2  0  0  0
 12  7  1  0  0  0
 34 28  1  0  0  0
 13 14  1  0  0  0
  1  2  1  0  0  0
M  END
> <minimizedAffinity>
-9.72806

$$$$



 34 37  0  0  0  0  0  0  0  0999 V2000
    0.7789   64.6638   82.4366 N   0  0  0  0  0  0  0  0  0  0  0  0
    0.7512   64.0323   81.6497 H   0  0  0  0  0  0  0  0  0  0  0  0
   -1.5237   62.5507   84.1027 C   0  0  0  0  0  0  0  0  0  0  0  0
   -0.8249   63.1726   83.1374 N   0  0  0  0  0  0  0  0  0  0  0  0
    0.0966   64.0749   83.4989 C   0  0  0  0  0  0  0  0  0  0  0  0
    0.3675   64.3848   84.7701 N   0  0  0  0  0  0  0  0  0  0  0  0
   -0.3388   63.7860   85.7315 C   0  0  0  0  0  0  0  0  0  0  0  0
   -0.0783   64.1184   87.0562 C   0  0  0  0  0  0  0  0  0  0  0  0
   -0.7841   63.5436   88.1168 C   0  0  0  0  0  0  0  0  0  0  0  0
   -1.7813   62.6146   87.8560 C   0  0  0  0  0  0  0  0  0  0  0  0
   -2.0575   62.2639   86.5366 C   0  0  0  0  0  0  0  0  0  0  0  0
   -1.3311   62.8410   85.4624 C   0  0  0  0  0  0  0  0  0  0  0  0
   -2.4958   61.5895   83.7348 N   0  0  0  0  0  0  0  0  0  0  0  0
   -2.6696   60.9993   84.5439 H   0  0  0  0  0  0  0  0  0  0  0  0
   -2.1707   60.8025   82.5462 C   0  0  0  0  0  0  0  0  0  0  0  0
   -3.2674   59.5899   80.5946 C   0  0  0  0  0  0  0  0  0  0  0  0
   -3.3426   60.7850   81.5463 C   0  0  0  0  0  0  0  0  0  0  0  0
   -3.4600   62.0925   80.7611 C   0  0  0  0  0  0  0  0  0  0  0  0
    1.3349   65.9283   82.2174 C   0  0  0  0  0  0  0  0  0  0  0  0
    1.4929   66.5025   80.9497 C   0  0  0  0  0  0  0  0  0  0  0  0
    2.0299   67.7857   80.7921 C   0  0  0  0  0  0  0  0  0  0  0  0
    2.4022   68.5171   81.9181 C   0  0  0  0  0  0  0  0  0  0  0  0
    2.2558   67.9744   83.1937 C   0  0  0  0  0  0  0  0  0  0  0  0
    1.7203   66.6909   83.3351 C   0  0  0  0  0  0  0  0  0  0  0  0
    3.0746   70.1504   81.7474 S   0  0  0  0  0  0  0  0  0  0  0  0
    4.1580   70.1087   80.7877 O   0  0  0  0  0  0  0  0  0  0  0  0
    3.2682   70.6745   83.0825 O   0  0  0  0  0  0  0  0  0  0  0  0
    1.7873   71.0027   81.0239 N   0  0  0  0  0  0  0  0  0  0  0  0
    2.0847   72.4174   80.6232 C   0  0  0  0  0  0  0  0  0  0  0  0
    1.3890   73.4389   81.5416 C   0  0  0  0  0  0  0  0  0  0  0  0
   -0.0812   73.3103   81.6037 N   0  0  0  0  0  0  0  0  0  0  0  0
   -0.7537   74.2537   80.7150 C   0  0  0  0  0  0  0  0  0  0  0  0
   -0.5179   71.9264   81.3233 C   0  0  0  0  0  0  0  0  0  0  0  0
    0.5015   70.8704   81.7846 C   0  0  0  0  0  0  0  0  0  0  0  0
 16 17  1  0  0  0
 17 18  1  0  0  0
 17 15  1  0  0  0
 15 13  1  0  0  0
 13  3  1  0  0  0
  3  4  1  0  0  0
  4  5  2  0  0  0
  5  1  1  0  0  0
  1 19  1  0  0  0
 19 20  1  0  0  0
 20 21  2  0  0  0
 21 22  1  0  0  0
 22 25  1  0  0  0
 25 26  2  0  0  0
 25 27  2  0  0  0
 25 28  1  0  0  0
 28 29  1  0  0  0
 29 30  1  0  0  0
 30 31  1  0  0  0
 31 32  1  0  0  0
 31 33  1  0  0  0
 33 34  1  0  0  0
 22 23  2  0  0  0
 23 24  1  0  0  0
  5  6  1  0  0  0
  6  7  2  0  0  0
  7  8  1  0  0  0
  8  9  2  0  0  0
  9 10  1  0  0  0
 10 11  2  0  0  0
 11 12  1  0  0  0
 12  3  2  0  0  0
 24 19  2  0  0  0
 12  7  1  0  0  0
 34 28  1  0  0  0
 13 14  1  0  0  0
  1  2  1  0  0  0
M  END
> <minimizedAffinity>
-9.71350

$$$$



 34 37  0  0  0  0  0  0  0  0999 V2000
    2.1188   67.4205   81.4119 N   0  0  0  0  0  0  0  0  0  0  0  0
    2.7945   66.9763   80.8076 H   0  0  0  0  0  0  0  0  0  0  0  0
    0.0978   64.5905   82.0824 C   0  0  0  0  0  0  0  0  0  0  0  0
    0.7419   65.5792   81.4386 N   0  0  0  0  0  0  0  0  0  0  0  0
    1.4798   66.4337   82.1593 C   0  0  0  0  0  0  0  0  0  0  0  0
    1.6196   66.3516   83.4856 N   0  0  0  0  0  0  0  0  0  0  0  0
    0.9646   65.3847   84.1321 C   0  0  0  0  0  0  0  0  0  0  0  0
    1.0872   65.3050   85.5147 C   0  0  0  0  0  0  0  0  0  0  0  0
    0.4229   64.3287   86.2624 C   0  0  0  0  0  0  0  0  0  0  0  0
   -0.3913   63.4065   85.6203 C   0  0  0  0  0  0  0  0  0  0  0  0
   -0.5267   63.4652   84.2353 C   0  0  0  0  0  0  0  0  0  0  0  0
    0.1584   64.4508   83.4777 C   0  0  0  0  0  0  0  0  0  0  0  0
   -0.6799   63.6760   81.3320 N   0  0  0  0  0  0  0  0  0  0  0  0
   -1.2661   63.1607   81.9831 H   0  0  0  0  0  0  0  0  0  0  0  0
    0.0824   62.7827   80.4609 C   0  0  0  0  0  0  0  0  0  0  0  0
   -1.1981   60.9413   81.6659 C   0  0  0  0  0  0  0  0  0  0  0  0
    0.1306   61.3512   81.0283 C   0  0  0  0  0  0  0  0  0  0  0  0
    1.2846   61.1514   82.0122 C   0  0  0  0  0  0  0  0  0  0  0  0
    1.9238   68.7953   81.2448 C   0  0  0  0  0  0  0  0  0  0  0  0
    0.7811   69.4800   81.6776 C   0  0  0  0  0  0  0  0  0  0  0  0
    0.6526   70.8638   81.5092 C   0  0  0  0  0  0  0  0  0  0  0  0
    1.6873   71.5818   80.9130 C   0  0  0  0  0  0  0  0  0  0  0  0
    2.8383   70.9299   80.4733 C   0  0  0  0  0  0  0  0  0  0  0  0
    2.9511   69.5473   80.6461 C   0  0  0  0  0  0  0  0  0  0  0  0
    1.5552   73.3383   80.6981 S   0  0  0  0  0  0  0  0  0  0  0  0
    0.1974   73.6580   80.3099 O   0  0  0  0  0  0  0  0  0  0  0  0
    2.6873   73.7574   79.8997 O   0  0  0  0  0  0  0  0  0  0  0  0
    1.7803   73.9195   82.2851 N   0  0  0  0  0  0  0  0  0  0  0  0
    1.1640   75.2538   82.5851 C   0  0  0  0  0  0  0  0  0  0  0  0
    2.2221   76.3639   82.7226 C   0  0  0  0  0  0  0  0  0  0  0  0
    3.2411   76.1180   83.7634 N   0  0  0  0  0  0  0  0  0  0  0  0
    2.9322   76.8122   85.0102 C   0  0  0  0  0  0  0  0  0  0  0  0
    3.4340   74.6726   84.0042 C   0  0  0  0  0  0  0  0  0  0  0  0
    3.2043   73.8186   82.7452 C   0  0  0  0  0  0  0  0  0  0  0  0
 16 17  1  0  0  0
 17 18  1  0  0  0
 17 15  1  0  0  0
 15 13  1  0  0  0
 13  3  1  0  0  0
  3  4  1  0  0  0
  4  5  2  0  0  0
  5  1  1  0  0  0
  1 19  1  0  0  0
 19 20  1  0  0  0
 20 21  2  0  0  0
 21 22  1  0  0  0
 22 25  1  0  0  0
 25 26  2  0  0  0
 25 27  2  0  0  0
 25 28  1  0  0  0
 28 29  1  0  0  0
 29 30  1  0  0  0
 30 31  1  0  0  0
 31 32  1  0  0  0
 31 33  1  0  0  0
 33 34  1  0  0  0
 22 23  2  0  0  0
 23 24  1  0  0  0
  5  6  1  0  0  0
  6  7  2  0  0  0
  7  8  1  0  0  0
  8  9  2  0  0  0
  9 10  1  0  0  0
 10 11  2  0  0  0
 11 12  1  0  0  0
 12  3  2  0  0  0
 24 19  2  0  0  0
 12  7  1  0  0  0
 34 28  1  0  0  0
 13 14  1  0  0  0
  1  2  1  0  0  0
M  END
> <minimizedAffinity>
-9.61799

$$$$
