
     RDKit          3D

 58 61  0  0  0  0  0  0  0  0999 V2000
   -0.4011   -5.7319    0.6193 C   0  0  0  0  0  0  0  0  0  0  0  0
    0.5793   -4.6208    0.2880 C   0  0  0  0  0  0  0  0  0  0  0  0
   -0.0717   -3.3752    0.5469 O   0  0  0  0  0  0  0  0  0  0  0  0
    0.6183   -2.2154    0.2932 C   0  0  0  0  0  0  0  0  0  0  0  0
    1.9432   -2.1976   -0.1651 C   0  0  0  0  0  0  0  0  0  0  0  0
    2.6031   -0.9906   -0.4101 C   0  0  0  0  0  0  0  0  0  0  0  0
    1.9561    0.2274   -0.2007 C   0  0  0  0  0  0  0  0  0  0  0  0
    2.6658    1.5293   -0.4764 C   0  0  0  0  0  0  0  0  0  0  0  0
    2.2028    2.1221   -1.8081 C   0  0  1  0  0  0  0  0  0  0  0  0
    3.0446    3.3254   -2.2955 C   0  0  0  0  0  0  0  0  0  0  0  0
    3.7529    2.3976   -3.3126 C   0  0  1  0  0  0  0  0  0  0  0  0
    5.1878    1.9089   -2.9597 C   0  0  0  0  0  0  0  0  0  0  0  0
    5.4794    0.8358   -2.4230 O   0  0  0  0  0  0  0  0  0  0  0  0
    6.1798    2.7912   -3.3283 N   0  0  0  0  0  0  0  0  0  0  0  0
    7.5078    2.3340   -3.1740 O   0  0  0  0  0  0  0  0  0  0  0  0
    2.5861    1.3995   -3.1245 C   0  0  0  0  0  0  0  0  0  0  0  0
    0.6325    0.2161    0.2570 C   0  0  0  0  0  0  0  0  0  0  0  0
   -0.0511   -0.9904    0.5095 C   0  0  0  0  0  0  0  0  0  0  0  0
   -1.4745   -0.8710    0.9968 C   0  0  0  0  0  0  0  0  0  0  0  0
   -2.0324    0.3079    1.0858 N   0  0  0  0  0  0  0  0  0  0  0  0
   -3.3478    0.2855    1.5506 C   0  0  0  0  0  0  0  0  0  0  0  0
   -4.2421    1.3449    1.7734 C   0  0  0  0  0  0  0  0  0  0  0  0
   -4.0203    2.8016    1.5682 C   0  0  0  0  0  0  0  0  0  0  0  0
   -3.3704    3.4629    2.7738 C   0  0  0  0  0  0  0  0  0  0  0  0
   -5.4213    0.8817    2.2315 N   0  0  0  0  0  0  0  0  0  0  0  0
   -5.2463   -0.4624    2.2886 N   0  0  0  0  0  0  0  0  0  0  0  0
   -6.3213   -1.3099    2.7447 C   0  0  0  0  0  0  0  0  0  0  0  0
   -4.0091   -0.8563    1.8866 C   0  0  0  0  0  0  0  0  0  0  0  0
   -3.4168   -2.1385    1.7927 C   0  0  0  0  0  0  0  0  0  0  0  0
   -3.9577   -3.2016    2.0730 O   0  0  0  0  0  0  0  0  0  0  0  0
   -2.1226   -2.0556    1.3345 N   0  0  0  0  0  0  0  0  0  0  0  0
   -0.7119   -5.6715    1.6677 H   0  0  0  0  0  0  0  0  0  0  0  0
   -1.3082   -5.6389    0.0129 H   0  0  0  0  0  0  0  0  0  0  0  0
    0.0460   -6.7134    0.4390 H   0  0  0  0  0  0  0  0  0  0  0  0
    0.8571   -4.6928   -0.7697 H   0  0  0  0  0  0  0  0  0  0  0  0
    1.4657   -4.7251    0.9237 H   0  0  0  0  0  0  0  0  0  0  0  0
    2.5030   -3.1097   -0.3463 H   0  0  0  0  0  0  0  0  0  0  0  0
    3.6314   -1.0091   -0.7710 H   0  0  0  0  0  0  0  0  0  0  0  0
    3.7501    1.3732   -0.4609 H   0  0  0  0  0  0  0  0  0  0  0  0
    2.4531    2.2314    0.3397 H   0  0  0  0  0  0  0  0  0  0  0  0
    1.1324    2.3676   -1.7646 H   0  0  0  0  0  0  0  0  0  0  0  0
    2.4478    4.1128   -2.7716 H   0  0  0  0  0  0  0  0  0  0  0  0
    3.6909    3.7932   -1.5465 H   0  0  0  0  0  0  0  0  0  0  0  0
    3.7428    2.8245   -4.3262 H   0  0  0  0  0  0  0  0  0  0  0  0
    6.0344    3.5879   -3.9381 H   0  0  0  0  0  0  0  0  0  0  0  0
    7.3768    1.4435   -2.7789 H   0  0  0  0  0  0  0  0  0  0  0  0
    2.8668    0.3463   -3.0435 H   0  0  0  0  0  0  0  0  0  0  0  0
    1.8183    1.4835   -3.9035 H   0  0  0  0  0  0  0  0  0  0  0  0
    0.1287    1.1682    0.4201 H   0  0  0  0  0  0  0  0  0  0  0  0
   -4.9751    3.2977    1.3556 H   0  0  0  0  0  0  0  0  0  0  0  0
   -3.3871    2.9556    0.6862 H   0  0  0  0  0  0  0  0  0  0  0  0
   -3.2263    4.5320    2.5887 H   0  0  0  0  0  0  0  0  0  0  0  0
   -2.3919    3.0202    2.9892 H   0  0  0  0  0  0  0  0  0  0  0  0
   -3.9927    3.3526    3.6685 H   0  0  0  0  0  0  0  0  0  0  0  0
   -6.5763   -2.0071    1.9429 H   0  0  0  0  0  0  0  0  0  0  0  0
   -7.1912   -0.6952    2.9906 H   0  0  0  0  0  0  0  0  0  0  0  0
   -5.9844   -1.8473    3.6345 H   0  0  0  0  0  0  0  0  0  0  0  0
   -1.6333   -2.9352    1.2334 H   0  0  0  0  0  0  0  0  0  0  0  0
  1  2  1  0
  2  3  1  0
  3  4  1  0
  4  5  1  0
  5  6  2  0
  6  7  1  0
  7  8  1  0
  8  9  1  0
  9 10  1  0
 10 11  1  0
 11 12  1  0
 12 13  2  0
 12 14  1  0
 14 15  1  0
 11 16  1  0
  7 17  2  0
 17 18  1  0
 18 19  1  0
 19 20  2  0
 20 21  1  0
 21 22  1  0
 22 23  1  0
 23 24  1  0
 22 25  2  0
 25 26  1  0
 26 27  1  0
 26 28  1  0
 28 29  1  0
 29 30  2  0
 29 31  1  0
 18  4  2  0
 31 19  1  0
 16  9  1  0
 28 21  2  0
  1 32  1  0
  1 33  1  0
  1 34  1  0
  2 35  1  0
  2 36  1  0
  5 37  1  0
  6 38  1  0
  8 39  1  0
  8 40  1  0
  9 41  1  1
 10 42  1  0
 10 43  1  0
 11 44  1  6
 14 45  1  0
 15 46  1  0
 16 47  1  0
 16 48  1  0
 17 49  1  0
 23 50  1  0
 23 51  1  0
 24 52  1  0
 24 53  1  0
 24 54  1  0
 27 55  1  0
 27 56  1  0
 27 57  1  0
 31 58  1  0
M  END
$$$$
