


 28 31  0  0  0  0  0  0  0  0999 V2000
   -0.3129   63.5068   83.7911 C   0  0  0  0  0  0  0  0  0  0  0  0
   -0.4352   63.1944   85.1579 C   0  0  0  0  0  0  0  0  0  0  0  0
    0.1511   64.0631   86.0759 C   0  0  0  0  0  0  0  0  0  0  0  0
    0.8559   65.1634   85.7174 N   0  0  0  0  0  0  0  0  0  0  0  0
    0.9878   65.4503   84.4175 C   0  0  0  0  0  0  0  0  0  0  0  0
    1.7168   66.5827   84.0778 C   0  0  0  0  0  0  0  0  0  0  0  0
    1.9155   66.9650   82.7501 C   0  0  0  0  0  0  0  0  0  0  0  0
    1.3699   66.1939   81.7366 C   0  0  0  0  0  0  0  0  0  0  0  0
    1.6279   66.6876   79.9314 Br  0  0  0  0  0  0  0  0  0  0  0  0
    0.6322   65.0531   82.0461 C   0  0  0  0  0  0  0  0  0  0  0  0
    0.4270   64.6575   83.3931 C   0  0  0  0  0  0  0  0  0  0  0  0
    0.0649   63.7861   87.5532 C   0  0  0  0  0  0  0  0  0  0  0  0
   -1.0980   62.8580   87.8920 C   0  0  0  0  0  0  0  0  0  0  0  0
   -1.0590   61.6670   87.0434 N   0  0  0  0  0  0  0  0  0  0  0  0
   -1.2784   62.0376   85.6366 C   0  0  0  0  0  0  0  0  0  0  0  0
   -1.7946   61.0211   87.3261 H   0  0  0  0  0  0  0  0  0  0  0  0
   -0.8690   62.6089   82.8333 N   0  0  0  0  0  0  0  0  0  0  0  0
   -0.8714   61.6614   83.2062 H   0  0  0  0  0  0  0  0  0  0  0  0
   -2.2381   62.9948   82.4667 C   0  0  0  0  0  0  0  0  0  0  0  0
   -2.9986   61.8153   78.3606 C   0  0  0  0  0  0  0  0  0  0  0  0
   -3.9774   61.6470   79.3447 C   0  0  0  0  0  0  0  0  0  0  0  0
   -3.7264   62.0254   80.6689 C   0  0  0  0  0  0  0  0  0  0  0  0
   -2.4921   62.5751   81.0385 C   0  0  0  0  0  0  0  0  0  0  0  0
   -1.5127   62.7511   80.0537 C   0  0  0  0  0  0  0  0  0  0  0  0
   -1.7641   62.3730   78.7298 C   0  0  0  0  0  0  0  0  0  0  0  0
   -0.5031   62.6202   77.5706 Cl  0  0  0  0  0  0  0  0  0  0  0  0
   -3.2112   60.0931   76.7184 C   0  0  0  0  0  0  0  0  0  0  0  0
   -3.1551   61.4756   77.0423 O   0  0  0  0  0  0  0  0  0  0  0  0
 27 28  1  0  0  0
 28 20  1  0  0  0
 20 21  1  0  0  0
 21 22  2  0  0  0
 22 23  1  0  0  0
 23 19  1  0  0  0
 19 17  1  0  0  0
 17  1  1  0  0  0
  1  2  2  0  0  0
  2  3  1  0  0  0
  3  4  2  0  0  0
  4  5  1  0  0  0
  5  6  2  0  0  0
  6  7  1  0  0  0
  7  8  2  0  0  0
  8  9  1  0  0  0
  8 10  1  0  0  0
 10 11  2  0  0  0
  3 12  1  0  0  0
 12 13  1  0  0  0
 13 14  1  0  0  0
 14 15  1  0  0  0
 23 24  2  0  0  0
 24 25  1  0  0  0
 25 26  1  0  0  0
 25 20  2  0  0  0
 11  1  1  0  0  0
 15  2  1  0  0  0
 11  5  1  0  0  0
 17 18  1  0  0  0
 14 16  1  0  0  0
M  END
> <minimizedAffinity>
-10.05400

$$$$



 28 31  0  0  0  0  0  0  0  0999 V2000
   -1.2468   62.3636   81.6440 C   0  0  0  0  0  0  0  0  0  0  0  0
   -1.9797   61.6550   80.6737 C   0  0  0  0  0  0  0  0  0  0  0  0
   -1.9327   62.1180   79.3605 C   0  0  0  0  0  0  0  0  0  0  0  0
   -1.2508   63.2265   78.9839 N   0  0  0  0  0  0  0  0  0  0  0  0
   -0.5690   63.9107   79.9095 C   0  0  0  0  0  0  0  0  0  0  0  0
    0.1195   65.0441   79.4966 C   0  0  0  0  0  0  0  0  0  0  0  0
    0.8563   65.8281   80.3860 C   0  0  0  0  0  0  0  0  0  0  0  0
    0.9054   65.4677   81.7228 C   0  0  0  0  0  0  0  0  0  0  0  0
    1.8923   66.5144   82.9473 Br  0  0  0  0  0  0  0  0  0  0  0  0
    0.2263   64.3349   82.1668 C   0  0  0  0  0  0  0  0  0  0  0  0
   -0.5258   63.5339   81.2690 C   0  0  0  0  0  0  0  0  0  0  0  0
   -2.6985   61.4122   78.2733 C   0  0  0  0  0  0  0  0  0  0  0  0
   -3.0225   59.9692   78.6492 C   0  0  0  0  0  0  0  0  0  0  0  0
   -3.6439   59.9183   79.9727 N   0  0  0  0  0  0  0  0  0  0  0  0
   -2.6894   60.3634   81.0000 C   0  0  0  0  0  0  0  0  0  0  0  0
   -3.9224   58.9610   80.1833 H   0  0  0  0  0  0  0  0  0  0  0  0
   -1.3152   61.9317   83.0011 N   0  0  0  0  0  0  0  0  0  0  0  0
   -0.4203   62.0889   83.4608 H   0  0  0  0  0  0  0  0  0  0  0  0
   -2.3742   62.6358   83.7363 C   0  0  0  0  0  0  0  0  0  0  0  0
   -1.0915   63.1379   87.8512 C   0  0  0  0  0  0  0  0  0  0  0  0
   -2.3683   62.6508   87.5558 C   0  0  0  0  0  0  0  0  0  0  0  0
   -2.7794   62.4940   86.2267 C   0  0  0  0  0  0  0  0  0  0  0  0
   -1.9262   62.8243   85.1660 C   0  0  0  0  0  0  0  0  0  0  0  0
   -0.6447   63.3058   85.4590 C   0  0  0  0  0  0  0  0  0  0  0  0
   -0.2340   63.4623   86.7878 C   0  0  0  0  0  0  0  0  0  0  0  0
    1.3638   64.0647   87.0691 Cl  0  0  0  0  0  0  0  0  0  0  0  0
    0.1921   62.2873   89.6778 C   0  0  0  0  0  0  0  0  0  0  0  0
   -0.6040   63.3230   89.1184 O   0  0  0  0  0  0  0  0  0  0  0  0
 27 28  1  0  0  0
 28 20  1  0  0  0
 20 21  1  0  0  0
 21 22  2  0  0  0
 22 23  1  0  0  0
 23 19  1  0  0  0
 19 17  1  0  0  0
 17  1  1  0  0  0
  1  2  2  0  0  0
  2  3  1  0  0  0
  3  4  2  0  0  0
  4  5  1  0  0  0
  5  6  2  0  0  0
  6  7  1  0  0  0
  7  8  2  0  0  0
  8  9  1  0  0  0
  8 10  1  0  0  0
 10 11  2  0  0  0
  3 12  1  0  0  0
 12 13  1  0  0  0
 13 14  1  0  0  0
 14 15  1  0  0  0
 23 24  2  0  0  0
 24 25  1  0  0  0
 25 26  1  0  0  0
 25 20  2  0  0  0
 11  1  1  0  0  0
 15  2  1  0  0  0
 11  5  1  0  0  0
 17 18  1  0  0  0
 14 16  1  0  0  0
M  END
> <minimizedAffinity>
-9.76412

$$$$



 28 31  0  0  0  0  0  0  0  0999 V2000
    0.3057   64.2700   85.3074 C   0  0  0  0  0  0  0  0  0  0  0  0
    0.0750   63.6304   86.5396 C   0  0  0  0  0  0  0  0  0  0  0  0
   -0.5861   62.4042   86.5192 C   0  0  0  0  0  0  0  0  0  0  0  0
   -1.0437   61.8218   85.3846 N   0  0  0  0  0  0  0  0  0  0  0  0
   -0.8407   62.4386   84.2150 C   0  0  0  0  0  0  0  0  0  0  0  0
   -1.3218   61.8207   83.0680 C   0  0  0  0  0  0  0  0  0  0  0  0
   -1.1647   62.3853   81.8011 C   0  0  0  0  0  0  0  0  0  0  0  0
   -0.5086   63.5994   81.6796 C   0  0  0  0  0  0  0  0  0  0  0  0
   -0.2866   64.3865   79.9766 Br  0  0  0  0  0  0  0  0  0  0  0  0
   -0.0134   64.2428   82.8120 C   0  0  0  0  0  0  0  0  0  0  0  0
   -0.1704   63.6757   84.1032 C   0  0  0  0  0  0  0  0  0  0  0  0
   -0.8720   61.6685   87.8011 C   0  0  0  0  0  0  0  0  0  0  0  0
    0.0547   62.1099   88.9303 C   0  0  0  0  0  0  0  0  0  0  0  0
    0.0547   63.5684   89.0441 N   0  0  0  0  0  0  0  0  0  0  0  0
    0.6319   64.1729   87.8334 C   0  0  0  0  0  0  0  0  0  0  0  0
    0.6179   63.8490   89.8456 H   0  0  0  0  0  0  0  0  0  0  0  0
    0.9430   65.5455   85.3092 N   0  0  0  0  0  0  0  0  0  0  0  0
    0.9627   65.9224   86.2549 H   0  0  0  0  0  0  0  0  0  0  0  0
    2.3131   65.4623   84.7862 C   0  0  0  0  0  0  0  0  0  0  0  0
    3.3166   69.1993   82.8221 C   0  0  0  0  0  0  0  0  0  0  0  0
    4.2592   68.5309   83.6092 C   0  0  0  0  0  0  0  0  0  0  0  0
    3.9300   67.3274   84.2442 C   0  0  0  0  0  0  0  0  0  0  0  0
    2.6522   66.7692   84.1100 C   0  0  0  0  0  0  0  0  0  0  0  0
    1.7086   67.4330   83.3168 C   0  0  0  0  0  0  0  0  0  0  0  0
    2.0381   68.6359   82.6819 C   0  0  0  0  0  0  0  0  0  0  0  0
    0.8174   69.3973   81.7201 Cl  0  0  0  0  0  0  0  0  0  0  0  0
    4.0851   70.3072   80.8498 C   0  0  0  0  0  0  0  0  0  0  0  0
    3.5492   70.3785   82.1640 O   0  0  0  0  0  0  0  0  0  0  0  0
 27 28  1  0  0  0
 28 20  1  0  0  0
 20 21  1  0  0  0
 21 22  2  0  0  0
 22 23  1  0  0  0
 23 19  1  0  0  0
 19 17  1  0  0  0
 17  1  1  0  0  0
  1  2  2  0  0  0
  2  3  1  0  0  0
  3  4  2  0  0  0
  4  5  1  0  0  0
  5  6  2  0  0  0
  6  7  1  0  0  0
  7  8  2  0  0  0
  8  9  1  0  0  0
  8 10  1  0  0  0
 10 11  2  0  0  0
  3 12  1  0  0  0
 12 13  1  0  0  0
 13 14  1  0  0  0
 14 15  1  0  0  0
 23 24  2  0  0  0
 24 25  1  0  0  0
 25 26  1  0  0  0
 25 20  2  0  0  0
 11  1  1  0  0  0
 15  2  1  0  0  0
 11  5  1  0  0  0
 17 18  1  0  0  0
 14 16  1  0  0  0
M  END
> <minimizedAffinity>
-9.60258

$$$$



 28 31  0  0  0  0  0  0  0  0999 V2000
    2.8289   67.2713   84.2845 C   0  0  0  0  0  0  0  0  0  0  0  0
    4.0807   66.7755   84.6942 C   0  0  0  0  0  0  0  0  0  0  0  0
    5.2201   67.4257   84.2251 C   0  0  0  0  0  0  0  0  0  0  0  0
    5.1811   68.4793   83.3741 N   0  0  0  0  0  0  0  0  0  0  0  0
    3.9916   68.9392   82.9700 C   0  0  0  0  0  0  0  0  0  0  0  0
    3.9805   70.0188   82.0964 C   0  0  0  0  0  0  0  0  0  0  0  0
    2.7918   70.5688   81.6136 C   0  0  0  0  0  0  0  0  0  0  0  0
    1.5834   70.0241   82.0164 C   0  0  0  0  0  0  0  0  0  0  0  0
   -0.0393   70.7476   81.3741 Br  0  0  0  0  0  0  0  0  0  0  0  0
    1.5622   68.9416   82.8935 C   0  0  0  0  0  0  0  0  0  0  0  0
    2.7663   68.3764   83.3873 C   0  0  0  0  0  0  0  0  0  0  0  0
    6.5913   66.9441   84.6178 C   0  0  0  0  0  0  0  0  0  0  0  0
    6.5589   66.1147   85.8983 C   0  0  0  0  0  0  0  0  0  0  0  0
    5.5437   65.0663   85.7967 N   0  0  0  0  0  0  0  0  0  0  0  0
    4.2024   65.6641   85.7084 C   0  0  0  0  0  0  0  0  0  0  0  0
    5.5797   64.4737   86.6248 H   0  0  0  0  0  0  0  0  0  0  0  0
    1.6514   66.5948   84.7190 N   0  0  0  0  0  0  0  0  0  0  0  0
    0.8717   67.2483   84.7623 H   0  0  0  0  0  0  0  0  0  0  0  0
    1.3092   65.4825   83.8227 C   0  0  0  0  0  0  0  0  0  0  0  0
   -0.8101   62.4442   86.0826 C   0  0  0  0  0  0  0  0  0  0  0  0
   -0.8692   62.4661   84.6859 C   0  0  0  0  0  0  0  0  0  0  0  0
   -0.1870   63.4504   83.9609 C   0  0  0  0  0  0  0  0  0  0  0  0
    0.5641   64.4352   84.6154 C   0  0  0  0  0  0  0  0  0  0  0  0
    0.6305   64.4114   86.0137 C   0  0  0  0  0  0  0  0  0  0  0  0
   -0.0514   63.4271   86.7381 C   0  0  0  0  0  0  0  0  0  0  0  0
    0.0776   63.4653   88.4635 Cl  0  0  0  0  0  0  0  0  0  0  0  0
   -2.7942   61.7746   87.2328 C   0  0  0  0  0  0  0  0  0  0  0  0
   -1.4430   61.5209   86.8731 O   0  0  0  0  0  0  0  0  0  0  0  0
 27 28  1  0  0  0
 28 20  1  0  0  0
 20 21  1  0  0  0
 21 22  2  0  0  0
 22 23  1  0  0  0
 23 19  1  0  0  0
 19 17  1  0  0  0
 17  1  1  0  0  0
  1  2  2  0  0  0
  2  3  1  0  0  0
  3  4  2  0  0  0
  4  5  1  0  0  0
  5  6  2  0  0  0
  6  7  1  0  0  0
  7  8  2  0  0  0
  8  9  1  0  0  0
  8 10  1  0  0  0
 10 11  2  0  0  0
  3 12  1  0  0  0
 12 13  1  0  0  0
 13 14  1  0  0  0
 14 15  1  0  0  0
 23 24  2  0  0  0
 24 25  1  0  0  0
 25 26  1  0  0  0
 25 20  2  0  0  0
 11  1  1  0  0  0
 15  2  1  0  0  0
 11  5  1  0  0  0
 17 18  1  0  0  0
 14 16  1  0  0  0
M  END
> <minimizedAffinity>
-9.59987

$$$$



 28 31  0  0  0  0  0  0  0  0999 V2000
   -0.2834   63.0902   84.2957 C   0  0  0  0  0  0  0  0  0  0  0  0
   -0.6602   63.2459   85.6427 C   0  0  0  0  0  0  0  0  0  0  0  0
   -1.8210   62.6043   86.0690 C   0  0  0  0  0  0  0  0  0  0  0  0
   -2.6147   61.8745   85.2484 N   0  0  0  0  0  0  0  0  0  0  0  0
   -2.2664   61.7416   83.9636 C   0  0  0  0  0  0  0  0  0  0  0  0
   -3.0988   60.9900   83.1443 C   0  0  0  0  0  0  0  0  0  0  0  0
   -2.8255   60.7959   81.7892 C   0  0  0  0  0  0  0  0  0  0  0  0
   -1.6894   61.3685   81.2408 C   0  0  0  0  0  0  0  0  0  0  0  0
   -1.2993   61.1241   79.4086 Br  0  0  0  0  0  0  0  0  0  0  0  0
   -0.8342   62.1266   82.0379 C   0  0  0  0  0  0  0  0  0  0  0  0
   -1.1061   62.3294   83.4157 C   0  0  0  0  0  0  0  0  0  0  0  0
   -2.2865   62.7339   87.4948 C   0  0  0  0  0  0  0  0  0  0  0  0
   -1.1498   63.1337   88.4312 C   0  0  0  0  0  0  0  0  0  0  0  0
   -0.4475   64.3037   87.9039 N   0  0  0  0  0  0  0  0  0  0  0  0
    0.2180   63.9684   86.6354 C   0  0  0  0  0  0  0  0  0  0  0  0
    0.2611   64.6066   88.5705 H   0  0  0  0  0  0  0  0  0  0  0  0
    0.8781   63.7727   83.8285 N   0  0  0  0  0  0  0  0  0  0  0  0
    1.2039   63.3498   82.9614 H   0  0  0  0  0  0  0  0  0  0  0  0
    0.6099   65.1998   83.6072 C   0  0  0  0  0  0  0  0  0  0  0  0
    4.2503   67.4104   84.4383 C   0  0  0  0  0  0  0  0  0  0  0  0
    4.0459   66.1400   84.9852 C   0  0  0  0  0  0  0  0  0  0  0  0
    2.8683   65.4319   84.7175 C   0  0  0  0  0  0  0  0  0  0  0  0
    1.8691   65.9793   83.9024 C   0  0  0  0  0  0  0  0  0  0  0  0
    2.0743   67.2484   83.3480 C   0  0  0  0  0  0  0  0  0  0  0  0
    3.2518   67.9558   83.6155 C   0  0  0  0  0  0  0  0  0  0  0  0
    3.4310   69.5192   82.8953 Cl  0  0  0  0  0  0  0  0  0  0  0  0
    6.2348   67.8052   85.7088 C   0  0  0  0  0  0  0  0  0  0  0  0
    5.3690   68.1746   84.6441 O   0  0  0  0  0  0  0  0  0  0  0  0
 27 28  1  0  0  0
 28 20  1  0  0  0
 20 21  1  0  0  0
 21 22  2  0  0  0
 22 23  1  0  0  0
 23 19  1  0  0  0
 19 17  1  0  0  0
 17  1  1  0  0  0
  1  2  2  0  0  0
  2  3  1  0  0  0
  3  4  2  0  0  0
  4  5  1  0  0  0
  5  6  2  0  0  0
  6  7  1  0  0  0
  7  8  2  0  0  0
  8  9  1  0  0  0
  8 10  1  0  0  0
 10 11  2  0  0  0
  3 12  1  0  0  0
 12 13  1  0  0  0
 13 14  1  0  0  0
 14 15  1  0  0  0
 23 24  2  0  0  0
 24 25  1  0  0  0
 25 26  1  0  0  0
 25 20  2  0  0  0
 11  1  1  0  0  0
 15  2  1  0  0  0
 11  5  1  0  0  0
 17 18  1  0  0  0
 14 16  1  0  0  0
M  END
> <minimizedAffinity>
-9.58337

$$$$



 28 31  0  0  0  0  0  0  0  0999 V2000
   -1.7486   62.9732   80.6402 C   0  0  0  0  0  0  0  0  0  0  0  0
   -2.4427   62.1477   79.7361 C   0  0  0  0  0  0  0  0  0  0  0  0
   -2.1040   62.2355   78.3875 C   0  0  0  0  0  0  0  0  0  0  0  0
   -1.1729   63.0941   77.9063 N   0  0  0  0  0  0  0  0  0  0  0  0
   -0.5260   63.8919   78.7634 C   0  0  0  0  0  0  0  0  0  0  0  0
    0.4218   64.7636   78.2431 C   0  0  0  0  0  0  0  0  0  0  0  0
    1.1467   65.6391   79.0534 C   0  0  0  0  0  0  0  0  0  0  0  0
    0.9170   65.6413   80.4196 C   0  0  0  0  0  0  0  0  0  0  0  0
    1.8821   66.8195   81.5374 Br  0  0  0  0  0  0  0  0  0  0  0  0
   -0.0265   64.7771   80.9712 C   0  0  0  0  0  0  0  0  0  0  0  0
   -0.7681   63.8854   80.1539 C   0  0  0  0  0  0  0  0  0  0  0  0
   -2.8112   61.3866   77.3649 C   0  0  0  0  0  0  0  0  0  0  0  0
   -3.4591   60.1570   77.9949 C   0  0  0  0  0  0  0  0  0  0  0  0
   -4.2775   60.5481   79.1427 N   0  0  0  0  0  0  0  0  0  0  0  0
   -3.4279   61.1053   80.2067 C   0  0  0  0  0  0  0  0  0  0  0  0
   -4.7629   59.7315   79.5110 H   0  0  0  0  0  0  0  0  0  0  0  0
   -2.1090   62.9297   82.0191 N   0  0  0  0  0  0  0  0  0  0  0  0
   -3.0889   62.6696   82.1137 H   0  0  0  0  0  0  0  0  0  0  0  0
   -1.2748   61.9762   82.7625 C   0  0  0  0  0  0  0  0  0  0  0  0
   -0.3504   63.7132   86.6301 C   0  0  0  0  0  0  0  0  0  0  0  0
    0.5065   63.8987   85.5410 C   0  0  0  0  0  0  0  0  0  0  0  0
    0.2063   63.3333   84.2959 C   0  0  0  0  0  0  0  0  0  0  0  0
   -0.9527   62.5678   84.1140 C   0  0  0  0  0  0  0  0  0  0  0  0
   -1.8159   62.3863   85.2012 C   0  0  0  0  0  0  0  0  0  0  0  0
   -1.5156   62.9519   86.4456 C   0  0  0  0  0  0  0  0  0  0  0  0
   -2.6307   62.6812   87.7412 Cl  0  0  0  0  0  0  0  0  0  0  0  0
    0.5937   63.4359   88.8072 C   0  0  0  0  0  0  0  0  0  0  0  0
   -0.1388   64.2281   87.8823 O   0  0  0  0  0  0  0  0  0  0  0  0
 27 28  1  0  0  0
 28 20  1  0  0  0
 20 21  1  0  0  0
 21 22  2  0  0  0
 22 23  1  0  0  0
 23 19  1  0  0  0
 19 17  1  0  0  0
 17  1  1  0  0  0
  1  2  2  0  0  0
  2  3  1  0  0  0
  3  4  2  0  0  0
  4  5  1  0  0  0
  5  6  2  0  0  0
  6  7  1  0  0  0
  7  8  2  0  0  0
  8  9  1  0  0  0
  8 10  1  0  0  0
 10 11  2  0  0  0
  3 12  1  0  0  0
 12 13  1  0  0  0
 13 14  1  0  0  0
 14 15  1  0  0  0
 23 24  2  0  0  0
 24 25  1  0  0  0
 25 26  1  0  0  0
 25 20  2  0  0  0
 11  1  1  0  0  0
 15  2  1  0  0  0
 11  5  1  0  0  0
 17 18  1  0  0  0
 14 16  1  0  0  0
M  END
> <minimizedAffinity>
-9.57496

$$$$



 28 31  0  0  0  0  0  0  0  0999 V2000
    2.8249   66.3196   84.0612 C   0  0  0  0  0  0  0  0  0  0  0  0
    3.9565   66.2852   84.8972 C   0  0  0  0  0  0  0  0  0  0  0  0
    4.7867   67.4040   84.9100 C   0  0  0  0  0  0  0  0  0  0  0  0
    4.5777   68.4973   84.1376 N   0  0  0  0  0  0  0  0  0  0  0  0
    3.5121   68.5226   83.3291 C   0  0  0  0  0  0  0  0  0  0  0  0
    3.3229   69.6546   82.5469 C   0  0  0  0  0  0  0  0  0  0  0  0
    2.2448   69.7761   81.6685 C   0  0  0  0  0  0  0  0  0  0  0  0
    1.3328   68.7378   81.5713 C   0  0  0  0  0  0  0  0  0  0  0  0
   -0.1325   68.8760   80.3869 Br  0  0  0  0  0  0  0  0  0  0  0  0
    1.4951   67.5901   82.3445 C   0  0  0  0  0  0  0  0  0  0  0  0
    2.5890   67.4588   83.2385 C   0  0  0  0  0  0  0  0  0  0  0  0
    6.0181   67.4322   85.7756 C   0  0  0  0  0  0  0  0  0  0  0  0
    5.9293   66.4329   86.9255 C   0  0  0  0  0  0  0  0  0  0  0  0
    5.5626   65.1102   86.4194 N   0  0  0  0  0  0  0  0  0  0  0  0
    4.2063   65.1416   85.8502 C   0  0  0  0  0  0  0  0  0  0  0  0
    5.5773   64.4356   87.1828 H   0  0  0  0  0  0  0  0  0  0  0  0
    1.9853   65.1687   84.0011 N   0  0  0  0  0  0  0  0  0  0  0  0
    2.5497   64.3237   84.0648 H   0  0  0  0  0  0  0  0  0  0  0  0
    0.9880   65.1744   85.0796 C   0  0  0  0  0  0  0  0  0  0  0  0
   -1.9321   62.0752   84.2447 C   0  0  0  0  0  0  0  0  0  0  0  0
   -1.1723   62.6366   83.2139 C   0  0  0  0  0  0  0  0  0  0  0  0
   -0.2340   63.6389   83.4872 C   0  0  0  0  0  0  0  0  0  0  0  0
   -0.0383   64.1043   84.7940 C   0  0  0  0  0  0  0  0  0  0  0  0
   -0.7929   63.5390   85.8289 C   0  0  0  0  0  0  0  0  0  0  0  0
   -1.7307   62.5367   85.5553 C   0  0  0  0  0  0  0  0  0  0  0  0
   -2.6259   61.8890   86.8873 Cl  0  0  0  0  0  0  0  0  0  0  0  0
   -3.0275   60.5502   82.7674 C   0  0  0  0  0  0  0  0  0  0  0  0
   -2.8704   61.0916   84.0719 O   0  0  0  0  0  0  0  0  0  0  0  0
 27 28  1  0  0  0
 28 20  1  0  0  0
 20 21  1  0  0  0
 21 22  2  0  0  0
 22 23  1  0  0  0
 23 19  1  0  0  0
 19 17  1  0  0  0
 17  1  1  0  0  0
  1  2  2  0  0  0
  2  3  1  0  0  0
  3  4  2  0  0  0
  4  5  1  0  0  0
  5  6  2  0  0  0
  6  7  1  0  0  0
  7  8  2  0  0  0
  8  9  1  0  0  0
  8 10  1  0  0  0
 10 11  2  0  0  0
  3 12  1  0  0  0
 12 13  1  0  0  0
 13 14  1  0  0  0
 14 15  1  0  0  0
 23 24  2  0  0  0
 24 25  1  0  0  0
 25 26  1  0  0  0
 25 20  2  0  0  0
 11  1  1  0  0  0
 15  2  1  0  0  0
 11  5  1  0  0  0
 17 18  1  0  0  0
 14 16  1  0  0  0
M  END
> <minimizedAffinity>
-9.54595

$$$$



 28 31  0  0  0  0  0  0  0  0999 V2000
   -0.0230   63.3983   83.8210 C   0  0  0  0  0  0  0  0  0  0  0  0
   -0.2263   63.5640   85.2037 C   0  0  0  0  0  0  0  0  0  0  0  0
   -1.2187   62.7963   85.8092 C   0  0  0  0  0  0  0  0  0  0  0  0
   -2.0125   61.9329   85.1307 N   0  0  0  0  0  0  0  0  0  0  0  0
   -1.8316   61.7889   83.8131 C   0  0  0  0  0  0  0  0  0  0  0  0
   -2.6602   60.8989   83.1419 C   0  0  0  0  0  0  0  0  0  0  0  0
   -2.5543   60.6813   81.7671 C   0  0  0  0  0  0  0  0  0  0  0  0
   -1.5939   61.3720   81.0462 C   0  0  0  0  0  0  0  0  0  0  0  0
   -1.4330   61.0982   79.1839 Br  0  0  0  0  0  0  0  0  0  0  0  0
   -0.7468   62.2703   81.6919 C   0  0  0  0  0  0  0  0  0  0  0  0
   -0.8493   62.4978   83.0887 C   0  0  0  0  0  0  0  0  0  0  0  0
   -1.4945   62.9281   87.2833 C   0  0  0  0  0  0  0  0  0  0  0  0
   -0.3034   63.5146   88.0356 C   0  0  0  0  0  0  0  0  0  0  0  0
    0.1535   64.7413   87.3825 N   0  0  0  0  0  0  0  0  0  0  0  0
    0.6753   64.4389   86.0405 C   0  0  0  0  0  0  0  0  0  0  0  0
    0.9003   65.1638   87.9320 H   0  0  0  0  0  0  0  0  0  0  0  0
    0.9588   64.2048   83.1739 N   0  0  0  0  0  0  0  0  0  0  0  0
    1.5546   63.6230   82.5880 H   0  0  0  0  0  0  0  0  0  0  0  0
    0.3373   65.2526   82.3533 C   0  0  0  0  0  0  0  0  0  0  0  0
    2.8094   68.8164   82.4878 C   0  0  0  0  0  0  0  0  0  0  0  0
    2.0620   68.5087   81.3470 C   0  0  0  0  0  0  0  0  0  0  0  0
    1.2687   67.3559   81.3065 C   0  0  0  0  0  0  0  0  0  0  0  0
    1.2090   66.4847   82.4019 C   0  0  0  0  0  0  0  0  0  0  0  0
    1.9512   66.7941   83.5480 C   0  0  0  0  0  0  0  0  0  0  0  0
    2.7439   67.9468   83.5883 C   0  0  0  0  0  0  0  0  0  0  0  0
    3.6334   68.2597   85.0394 Cl  0  0  0  0  0  0  0  0  0  0  0  0
    2.9811   71.1934   82.6557 C   0  0  0  0  0  0  0  0  0  0  0  0
    3.6110   69.9202   82.6177 O   0  0  0  0  0  0  0  0  0  0  0  0
 27 28  1  0  0  0
 28 20  1  0  0  0
 20 21  1  0  0  0
 21 22  2  0  0  0
 22 23  1  0  0  0
 23 19  1  0  0  0
 19 17  1  0  0  0
 17  1  1  0  0  0
  1  2  2  0  0  0
  2  3  1  0  0  0
  3  4  2  0  0  0
  4  5  1  0  0  0
  5  6  2  0  0  0
  6  7  1  0  0  0
  7  8  2  0  0  0
  8  9  1  0  0  0
  8 10  1  0  0  0
 10 11  2  0  0  0
  3 12  1  0  0  0
 12 13  1  0  0  0
 13 14  1  0  0  0
 14 15  1  0  0  0
 23 24  2  0  0  0
 24 25  1  0  0  0
 25 26  1  0  0  0
 25 20  2  0  0  0
 11  1  1  0  0  0
 15  2  1  0  0  0
 11  5  1  0  0  0
 17 18  1  0  0  0
 14 16  1  0  0  0
M  END
> <minimizedAffinity>
-9.49886

$$$$



 28 31  0  0  0  0  0  0  0  0999 V2000
    0.3464   64.2212   85.4637 C   0  0  0  0  0  0  0  0  0  0  0  0
    0.1255   63.5768   86.6953 C   0  0  0  0  0  0  0  0  0  0  0  0
   -0.6131   62.3955   86.6850 C   0  0  0  0  0  0  0  0  0  0  0  0
   -1.1529   61.8625   85.5624 N   0  0  0  0  0  0  0  0  0  0  0  0
   -0.9586   62.4849   84.3942 C   0  0  0  0  0  0  0  0  0  0  0  0
   -1.5246   61.9180   83.2596 C   0  0  0  0  0  0  0  0  0  0  0  0
   -1.3833   62.4928   81.9954 C   0  0  0  0  0  0  0  0  0  0  0  0
   -0.6562   63.6647   81.8639 C   0  0  0  0  0  0  0  0  0  0  0  0
   -0.4537   64.4646   80.1645 Br  0  0  0  0  0  0  0  0  0  0  0  0
   -0.0751   64.2562   82.9837 C   0  0  0  0  0  0  0  0  0  0  0  0
   -0.2155   63.6786   84.2721 C   0  0  0  0  0  0  0  0  0  0  0  0
   -0.8932   61.6580   87.9672 C   0  0  0  0  0  0  0  0  0  0  0  0
    0.1050   62.0207   89.0629 C   0  0  0  0  0  0  0  0  0  0  0  0
    0.2032   63.4741   89.1974 N   0  0  0  0  0  0  0  0  0  0  0  0
    0.7682   64.0611   87.9723 C   0  0  0  0  0  0  0  0  0  0  0  0
    0.8154   63.7049   89.9785 H   0  0  0  0  0  0  0  0  0  0  0  0
    1.0636   65.4535   85.4571 N   0  0  0  0  0  0  0  0  0  0  0  0
    1.6876   65.4962   86.2606 H   0  0  0  0  0  0  0  0  0  0  0  0
    1.8428   65.6149   84.2223 C   0  0  0  0  0  0  0  0  0  0  0  0
    5.8055   67.0374   85.2724 C   0  0  0  0  0  0  0  0  0  0  0  0
    5.0772   67.6463   84.2460 C   0  0  0  0  0  0  0  0  0  0  0  0
    3.8006   67.1817   83.9079 C   0  0  0  0  0  0  0  0  0  0  0  0
    3.2271   66.0973   84.5844 C   0  0  0  0  0  0  0  0  0  0  0  0
    3.9515   65.4902   85.6172 C   0  0  0  0  0  0  0  0  0  0  0  0
    5.2276   65.9551   85.9551 C   0  0  0  0  0  0  0  0  0  0  0  0
    6.0608   65.1515   87.2415 Cl  0  0  0  0  0  0  0  0  0  0  0  0
    8.1676   66.9392   84.9275 C   0  0  0  0  0  0  0  0  0  0  0  0
    7.0581   67.4238   85.6717 O   0  0  0  0  0  0  0  0  0  0  0  0
 27 28  1  0  0  0
 28 20  1  0  0  0
 20 21  1  0  0  0
 21 22  2  0  0  0
 22 23  1  0  0  0
 23 19  1  0  0  0
 19 17  1  0  0  0
 17  1  1  0  0  0
  1  2  2  0  0  0
  2  3  1  0  0  0
  3  4  2  0  0  0
  4  5  1  0  0  0
  5  6  2  0  0  0
  6  7  1  0  0  0
  7  8  2  0  0  0
  8  9  1  0  0  0
  8 10  1  0  0  0
 10 11  2  0  0  0
  3 12  1  0  0  0
 12 13  1  0  0  0
 13 14  1  0  0  0
 14 15  1  0  0  0
 23 24  2  0  0  0
 24 25  1  0  0  0
 25 26  1  0  0  0
 25 20  2  0  0  0
 11  1  1  0  0  0
 15  2  1  0  0  0
 11  5  1  0  0  0
 17 18  1  0  0  0
 14 16  1  0  0  0
M  END
> <minimizedAffinity>
-9.38769

$$$$
