


 41 44  0  0  0  0  0  0  0  0999 V2000
    1.4462   65.8273   83.6053 C   0  0  0  0  0  0  0  0  0  0  0  0
    0.9555   65.5735   82.3093 C   0  0  0  0  0  0  0  0  0  0  0  0
    1.3685   66.3579   81.2315 C   0  0  0  0  0  0  0  0  0  0  0  0
    2.2498   67.4188   81.4264 C   0  0  0  0  0  0  0  0  0  0  0  0
    2.7278   67.6932   82.7094 C   0  0  0  0  0  0  0  0  0  0  0  0
    2.3308   66.9135   83.8074 C   0  0  0  0  0  0  0  0  0  0  0  0
   -1.5643   62.5342   85.7628 C   0  0  0  0  0  0  0  0  0  0  0  0
   -1.5275   61.9467   86.9743 N   0  0  0  0  0  0  0  0  0  0  0  0
   -0.4049   62.4469   87.5497 N   0  0  0  0  0  0  0  0  0  0  0  0
   -0.0459   62.0522   88.8903 C   0  0  0  0  0  0  0  0  0  0  0  0
    0.2573   63.3246   86.7506 C   0  0  0  0  0  0  0  0  0  0  0  0
    1.4408   64.0741   86.9563 C   0  0  0  0  0  0  0  0  0  0  0  0
    2.1390   64.0549   87.9629 O   0  0  0  0  0  0  0  0  0  0  0  0
    1.7302   64.8569   85.8622 N   0  0  0  0  0  0  0  0  0  0  0  0
    0.9682   64.9048   84.6991 C   0  0  0  0  0  0  0  0  0  0  0  0
   -0.1148   64.1983   84.5143 N   0  0  0  0  0  0  0  0  0  0  0  0
   -0.4646   63.3924   85.5981 C   0  0  0  0  0  0  0  0  0  0  0  0
    2.5658   65.4222   85.9372 H   0  0  0  0  0  0  0  0  0  0  0  0
   -2.6690   62.2463   84.8056 C   0  0  0  0  0  0  0  0  0  0  0  0
   -3.1039   60.5001   82.9963 C   0  0  0  0  0  0  0  0  0  0  0  0
   -2.1927   61.6139   83.4942 C   0  0  0  0  0  0  0  0  0  0  0  0
    0.7207   66.0602   79.6045 S   0  0  0  0  0  0  0  0  0  0  0  0
   -0.5324   66.7694   79.4648 O   0  0  0  0  0  0  0  0  0  0  0  0
    1.8065   66.2697   78.6701 O   0  0  0  0  0  0  0  0  0  0  0  0
    0.3694   64.3872   79.6407 N   0  0  0  0  0  0  0  0  0  0  0  0
   -0.9917   64.0453   80.1637 C   0  0  0  0  0  0  0  0  0  0  0  0
   -1.1832   62.5151   80.2192 C   0  0  0  0  0  0  0  0  0  0  0  0
   -0.9562   61.7994   78.9385 N   0  0  0  0  0  0  0  0  0  0  0  0
    0.3748   62.2040   78.4196 C   0  0  0  0  0  0  0  0  0  0  0  0
    0.6167   63.7255   78.3207 C   0  0  0  0  0  0  0  0  0  0  0  0
   -2.0507   62.0600   77.9778 C   0  0  0  0  0  0  0  0  0  0  0  0
   -3.4019   61.5019   78.4378 C   0  0  0  0  0  0  0  0  0  0  0  0
   -3.3915   59.9938   78.5445 C   0  0  0  0  0  0  0  0  0  0  0  0
   -2.8900   59.2628   77.6921 O   0  0  0  0  0  0  0  0  0  0  0  0
   -3.9571   59.5012   79.6973 N   0  0  0  0  0  0  0  0  0  0  0  0
   -4.0967   58.0922   79.7395 O   0  0  0  0  0  0  0  0  0  0  0  0
   -4.7036   60.0451   80.1377 H   0  0  0  0  0  0  0  0  0  0  0  0
   -3.6543   57.8112   78.9084 H   0  0  0  0  0  0  0  0  0  0  0  0
    2.7806   67.1454   85.0843 O   0  0  0  0  0  0  0  0  0  0  0  0
    3.7965   68.1368   85.2678 C   0  0  0  0  0  0  0  0  0  0  0  0
    4.9885   67.4610   85.9204 C   0  0  0  0  0  0  0  0  0  0  0  0
 20 21  1  0  0  0
 21 19  1  0  0  0
 19  7  1  0  0  0
  7  8  2  0  0  0
  8  9  1  0  0  0
  9 10  1  0  0  0
  9 11  1  0  0  0
 11 12  1  0  0  0
 12 13  2  0  0  0
 12 14  1  0  0  0
 14 15  1  0  0  0
 15  1  1  0  0  0
  1  2  1  0  0  0
  2  3  2  0  0  0
  3 22  1  0  0  0
 22 23  2  0  0  0
 22 24  2  0  0  0
 22 25  1  0  0  0
 25 26  1  0  0  0
 26 27  1  0  0  0
 27 28  1  0  0  0
 28 31  1  0  0  0
 31 32  1  0  0  0
 32 33  1  0  0  0
 33 34  2  0  0  0
 33 35  1  0  0  0
 35 36  1  0  0  0
 28 29  1  0  0  0
 29 30  1  0  0  0
  3  4  1  0  0  0
  4  5  2  0  0  0
  5  6  1  0  0  0
  6 39  1  0  0  0
 39 40  1  0  0  0
 40 41  1  0  0  0
 15 16  2  0  0  0
 16 17  1  0  0  0
 17  7  1  0  0  0
 17 11  2  0  0  0
  6  1  2  0  0  0
 30 25  1  0  0  0
 14 18  1  0  0  0
 35 37  1  0  0  0
 36 38  1  0  0  0
M  END
> <minimizedAffinity>
-10.66210

$$$$



 41 44  0  0  0  0  0  0  0  0999 V2000
    0.2857   64.2555   85.1631 C   0  0  0  0  0  0  0  0  0  0  0  0
   -0.3239   63.8570   83.9571 C   0  0  0  0  0  0  0  0  0  0  0  0
   -1.4575   63.0434   83.9738 C   0  0  0  0  0  0  0  0  0  0  0  0
   -1.9855   62.5920   85.1811 C   0  0  0  0  0  0  0  0  0  0  0  0
   -1.3785   62.9634   86.3826 C   0  0  0  0  0  0  0  0  0  0  0  0
   -0.2411   63.7864   86.3900 C   0  0  0  0  0  0  0  0  0  0  0  0
    2.8925   68.1266   83.4952 C   0  0  0  0  0  0  0  0  0  0  0  0
    4.1524   68.5322   83.7448 N   0  0  0  0  0  0  0  0  0  0  0  0
    4.6232   67.6196   84.6320 N   0  0  0  0  0  0  0  0  0  0  0  0
    5.9775   67.7210   85.1189 C   0  0  0  0  0  0  0  0  0  0  0  0
    3.7122   66.6599   84.9426 C   0  0  0  0  0  0  0  0  0  0  0  0
    3.7883   65.5335   85.7972 C   0  0  0  0  0  0  0  0  0  0  0  0
    4.7582   65.2044   86.4695 O   0  0  0  0  0  0  0  0  0  0  0  0
    2.6107   64.8215   85.7875 N   0  0  0  0  0  0  0  0  0  0  0  0
    1.4855   65.1624   85.0438 C   0  0  0  0  0  0  0  0  0  0  0  0
    1.4212   66.2121   84.2690 N   0  0  0  0  0  0  0  0  0  0  0  0
    2.5936   66.9673   84.2298 C   0  0  0  0  0  0  0  0  0  0  0  0
    2.5911   64.0001   86.3777 H   0  0  0  0  0  0  0  0  0  0  0  0
    2.0206   68.8761   82.5477 C   0  0  0  0  0  0  0  0  0  0  0  0
    1.9855   67.2402   80.5895 C   0  0  0  0  0  0  0  0  0  0  0  0
    2.3659   68.6324   81.0754 C   0  0  0  0  0  0  0  0  0  0  0  0
   -2.2032   62.5116   82.4518 S   0  0  0  0  0  0  0  0  0  0  0  0
   -2.5884   61.1232   82.5816 O   0  0  0  0  0  0  0  0  0  0  0  0
   -3.1682   63.5231   82.0755 O   0  0  0  0  0  0  0  0  0  0  0  0
   -0.8993   62.5878   81.3483 N   0  0  0  0  0  0  0  0  0  0  0  0
   -0.6309   61.3135   80.6087 C   0  0  0  0  0  0  0  0  0  0  0  0
    0.6017   61.4667   79.6930 C   0  0  0  0  0  0  0  0  0  0  0  0
    0.5389   62.5910   78.7256 N   0  0  0  0  0  0  0  0  0  0  0  0
    0.2151   63.8266   79.4825 C   0  0  0  0  0  0  0  0  0  0  0  0
   -1.0231   63.7401   80.4005 C   0  0  0  0  0  0  0  0  0  0  0  0
   -0.4284   62.3115   77.6415 C   0  0  0  0  0  0  0  0  0  0  0  0
   -0.1304   61.0103   76.8886 C   0  0  0  0  0  0  0  0  0  0  0  0
   -1.1625   59.9406   77.1642 C   0  0  0  0  0  0  0  0  0  0  0  0
   -2.3656   60.0995   76.9644 O   0  0  0  0  0  0  0  0  0  0  0  0
   -0.6425   58.7531   77.6233 N   0  0  0  0  0  0  0  0  0  0  0  0
   -1.6049   57.7986   78.0345 O   0  0  0  0  0  0  0  0  0  0  0  0
    0.2256   58.7849   78.1642 H   0  0  0  0  0  0  0  0  0  0  0  0
   -2.4517   58.2371   77.7978 H   0  0  0  0  0  0  0  0  0  0  0  0
    0.3836   64.1796   87.5484 O   0  0  0  0  0  0  0  0  0  0  0  0
   -0.1510   63.7112   88.7909 C   0  0  0  0  0  0  0  0  0  0  0  0
    0.5374   62.4003   89.1246 C   0  0  0  0  0  0  0  0  0  0  0  0
 20 21  1  0  0  0
 21 19  1  0  0  0
 19  7  1  0  0  0
  7  8  2  0  0  0
  8  9  1  0  0  0
  9 10  1  0  0  0
  9 11  1  0  0  0
 11 12  1  0  0  0
 12 13  2  0  0  0
 12 14  1  0  0  0
 14 15  1  0  0  0
 15  1  1  0  0  0
  1  2  1  0  0  0
  2  3  2  0  0  0
  3 22  1  0  0  0
 22 23  2  0  0  0
 22 24  2  0  0  0
 22 25  1  0  0  0
 25 26  1  0  0  0
 26 27  1  0  0  0
 27 28  1  0  0  0
 28 31  1  0  0  0
 31 32  1  0  0  0
 32 33  1  0  0  0
 33 34  2  0  0  0
 33 35  1  0  0  0
 35 36  1  0  0  0
 28 29  1  0  0  0
 29 30  1  0  0  0
  3  4  1  0  0  0
  4  5  2  0  0  0
  5  6  1  0  0  0
  6 39  1  0  0  0
 39 40  1  0  0  0
 40 41  1  0  0  0
 15 16  2  0  0  0
 16 17  1  0  0  0
 17  7  1  0  0  0
 17 11  2  0  0  0
  6  1  2  0  0  0
 30 25  1  0  0  0
 14 18  1  0  0  0
 35 37  1  0  0  0
 36 38  1  0  0  0
M  END
> <minimizedAffinity>
-10.57462

$$$$



 41 44  0  0  0  0  0  0  0  0999 V2000
    2.0903   66.1120   84.3629 C   0  0  0  0  0  0  0  0  0  0  0  0
    1.6001   66.9796   83.3669 C   0  0  0  0  0  0  0  0  0  0  0  0
    2.4347   67.9398   82.7935 C   0  0  0  0  0  0  0  0  0  0  0  0
    3.7552   68.0717   83.2167 C   0  0  0  0  0  0  0  0  0  0  0  0
    4.2473   67.2312   84.2174 C   0  0  0  0  0  0  0  0  0  0  0  0
    3.4276   66.2539   84.8039 C   0  0  0  0  0  0  0  0  0  0  0  0
   -1.2493   62.4598   84.0952 C   0  0  0  0  0  0  0  0  0  0  0  0
   -1.9324   61.7993   85.0499 N   0  0  0  0  0  0  0  0  0  0  0  0
   -1.4911   62.3473   86.2103 N   0  0  0  0  0  0  0  0  0  0  0  0
   -2.0296   61.8955   87.4703 C   0  0  0  0  0  0  0  0  0  0  0  0
   -0.5656   63.3243   86.0197 C   0  0  0  0  0  0  0  0  0  0  0  0
    0.1321   64.1491   86.9350 C   0  0  0  0  0  0  0  0  0  0  0  0
    0.0272   64.1191   88.1552 O   0  0  0  0  0  0  0  0  0  0  0  0
    0.9699   65.0218   86.2791 N   0  0  0  0  0  0  0  0  0  0  0  0
    1.1226   65.0856   84.8977 C   0  0  0  0  0  0  0  0  0  0  0  0
    0.4841   64.3100   84.0628 N   0  0  0  0  0  0  0  0  0  0  0  0
   -0.3910   63.4104   84.6721 C   0  0  0  0  0  0  0  0  0  0  0  0
    1.5035   65.6447   86.8714 H   0  0  0  0  0  0  0  0  0  0  0  0
   -1.4554   62.1493   82.6527 C   0  0  0  0  0  0  0  0  0  0  0  0
   -3.2675   62.1910   80.8566 C   0  0  0  0  0  0  0  0  0  0  0  0
   -2.6141   62.9256   82.0194 C   0  0  0  0  0  0  0  0  0  0  0  0
    1.8054   69.0572   81.5644 S   0  0  0  0  0  0  0  0  0  0  0  0
    0.6386   69.7266   82.0967 O   0  0  0  0  0  0  0  0  0  0  0  0
    2.9333   69.8103   81.0577 O   0  0  0  0  0  0  0  0  0  0  0  0
    1.2785   67.9986   80.3293 N   0  0  0  0  0  0  0  0  0  0  0  0
    2.1793   66.8279   80.0828 C   0  0  0  0  0  0  0  0  0  0  0  0
    1.6528   65.9755   78.9091 C   0  0  0  0  0  0  0  0  0  0  0  0
    0.2543   65.4971   79.0484 N   0  0  0  0  0  0  0  0  0  0  0  0
   -0.6021   66.6723   79.3484 C   0  0  0  0  0  0  0  0  0  0  0  0
   -0.1364   67.5518   80.5286 C   0  0  0  0  0  0  0  0  0  0  0  0
    0.1511   64.4347   80.0728 C   0  0  0  0  0  0  0  0  0  0  0  0
    0.2901   63.0228   79.4930 C   0  0  0  0  0  0  0  0  0  0  0  0
   -0.1760   62.9458   78.0569 C   0  0  0  0  0  0  0  0  0  0  0  0
    0.5586   62.6128   77.1284 O   0  0  0  0  0  0  0  0  0  0  0  0
   -1.5063   63.2424   77.8738 N   0  0  0  0  0  0  0  0  0  0  0  0
   -1.9188   63.3285   76.5214 O   0  0  0  0  0  0  0  0  0  0  0  0
   -1.9479   63.8958   78.5259 H   0  0  0  0  0  0  0  0  0  0  0  0
   -1.1072   63.0620   76.0359 H   0  0  0  0  0  0  0  0  0  0  0  0
    3.8725   65.4037   85.7867 O   0  0  0  0  0  0  0  0  0  0  0  0
    5.2811   65.1682   85.8826 C   0  0  0  0  0  0  0  0  0  0  0  0
    5.7120   65.5161   87.2957 C   0  0  0  0  0  0  0  0  0  0  0  0
 20 21  1  0  0  0
 21 19  1  0  0  0
 19  7  1  0  0  0
  7  8  2  0  0  0
  8  9  1  0  0  0
  9 10  1  0  0  0
  9 11  1  0  0  0
 11 12  1  0  0  0
 12 13  2  0  0  0
 12 14  1  0  0  0
 14 15  1  0  0  0
 15  1  1  0  0  0
  1  2  1  0  0  0
  2  3  2  0  0  0
  3 22  1  0  0  0
 22 23  2  0  0  0
 22 24  2  0  0  0
 22 25  1  0  0  0
 25 26  1  0  0  0
 26 27  1  0  0  0
 27 28  1  0  0  0
 28 31  1  0  0  0
 31 32  1  0  0  0
 32 33  1  0  0  0
 33 34  2  0  0  0
 33 35  1  0  0  0
 35 36  1  0  0  0
 28 29  1  0  0  0
 29 30  1  0  0  0
  3  4  1  0  0  0
  4  5  2  0  0  0
  5  6  1  0  0  0
  6 39  1  0  0  0
 39 40  1  0  0  0
 40 41  1  0  0  0
 15 16  2  0  0  0
 16 17  1  0  0  0
 17  7  1  0  0  0
 17 11  2  0  0  0
  6  1  2  0  0  0
 30 25  1  0  0  0
 14 18  1  0  0  0
 35 37  1  0  0  0
 36 38  1  0  0  0
M  END
> <minimizedAffinity>
-10.57058

$$$$



 41 44  0  0  0  0  0  0  0  0999 V2000
    0.1383   64.1310   84.1076 C   0  0  0  0  0  0  0  0  0  0  0  0
   -0.4695   63.5570   82.9736 C   0  0  0  0  0  0  0  0  0  0  0  0
   -1.3717   62.5018   83.1140 C   0  0  0  0  0  0  0  0  0  0  0  0
   -1.6631   61.9839   84.3738 C   0  0  0  0  0  0  0  0  0  0  0  0
   -1.0518   62.5309   85.5039 C   0  0  0  0  0  0  0  0  0  0  0  0
   -0.1458   63.5970   85.3871 C   0  0  0  0  0  0  0  0  0  0  0  0
    4.1972   66.9004   84.7551 C   0  0  0  0  0  0  0  0  0  0  0  0
    4.5980   68.0501   84.1791 N   0  0  0  0  0  0  0  0  0  0  0  0
    3.6118   68.3361   83.2919 N   0  0  0  0  0  0  0  0  0  0  0  0
    3.6886   69.5341   82.4915 C   0  0  0  0  0  0  0  0  0  0  0  0
    2.6110   67.4164   83.2935 C   0  0  0  0  0  0  0  0  0  0  0  0
    1.4084   67.3351   82.5506 C   0  0  0  0  0  0  0  0  0  0  0  0
    1.0322   68.1332   81.7006 O   0  0  0  0  0  0  0  0  0  0  0  0
    0.6807   66.2215   82.9027 N   0  0  0  0  0  0  0  0  0  0  0  0
    1.0729   65.2886   83.8575 C   0  0  0  0  0  0  0  0  0  0  0  0
    2.1917   65.3659   84.5274 N   0  0  0  0  0  0  0  0  0  0  0  0
    2.9670   66.4842   84.2198 C   0  0  0  0  0  0  0  0  0  0  0  0
   -0.1944   66.0969   82.4106 H   0  0  0  0  0  0  0  0  0  0  0  0
    5.0201   66.2452   85.8101 C   0  0  0  0  0  0  0  0  0  0  0  0
    7.4478   65.9125   85.0980 C   0  0  0  0  0  0  0  0  0  0  0  0
    6.0715   65.2799   85.2542 C   0  0  0  0  0  0  0  0  0  0  0  0
   -2.1091   61.7548   81.6809 S   0  0  0  0  0  0  0  0  0  0  0  0
   -1.8437   60.3329   81.7078 O   0  0  0  0  0  0  0  0  0  0  0  0
   -3.4622   62.2611   81.5866 O   0  0  0  0  0  0  0  0  0  0  0  0
   -1.2017   62.4282   80.3977 N   0  0  0  0  0  0  0  0  0  0  0  0
    0.1117   61.7561   80.1406 C   0  0  0  0  0  0  0  0  0  0  0  0
    0.8797   62.4784   79.0138 C   0  0  0  0  0  0  0  0  0  0  0  0
    0.1431   62.6210   77.7328 N   0  0  0  0  0  0  0  0  0  0  0  0
   -1.1748   63.2367   78.0305 C   0  0  0  0  0  0  0  0  0  0  0  0
   -1.9994   62.5431   79.1360 C   0  0  0  0  0  0  0  0  0  0  0  0
    0.0255   61.3217   77.0350 C   0  0  0  0  0  0  0  0  0  0  0  0
   -1.3755   61.0664   76.4686 C   0  0  0  0  0  0  0  0  0  0  0  0
   -1.9629   59.7634   76.9612 C   0  0  0  0  0  0  0  0  0  0  0  0
   -3.1700   59.5279   76.9629 O   0  0  0  0  0  0  0  0  0  0  0  0
   -1.0316   58.8398   77.3747 N   0  0  0  0  0  0  0  0  0  0  0  0
   -1.5699   57.6799   77.9840 O   0  0  0  0  0  0  0  0  0  0  0  0
   -0.1479   59.1857   77.7578 H   0  0  0  0  0  0  0  0  0  0  0  0
   -2.5372   57.8148   77.8768 H   0  0  0  0  0  0  0  0  0  0  0  0
    0.4734   64.1677   86.4723 O   0  0  0  0  0  0  0  0  0  0  0  0
   -0.1891   64.0921   87.7389 C   0  0  0  0  0  0  0  0  0  0  0  0
    0.5980   63.1348   88.6150 C   0  0  0  0  0  0  0  0  0  0  0  0
 20 21  1  0  0  0
 21 19  1  0  0  0
 19  7  1  0  0  0
  7  8  2  0  0  0
  8  9  1  0  0  0
  9 10  1  0  0  0
  9 11  1  0  0  0
 11 12  1  0  0  0
 12 13  2  0  0  0
 12 14  1  0  0  0
 14 15  1  0  0  0
 15  1  1  0  0  0
  1  2  1  0  0  0
  2  3  2  0  0  0
  3 22  1  0  0  0
 22 23  2  0  0  0
 22 24  2  0  0  0
 22 25  1  0  0  0
 25 26  1  0  0  0
 26 27  1  0  0  0
 27 28  1  0  0  0
 28 31  1  0  0  0
 31 32  1  0  0  0
 32 33  1  0  0  0
 33 34  2  0  0  0
 33 35  1  0  0  0
 35 36  1  0  0  0
 28 29  1  0  0  0
 29 30  1  0  0  0
  3  4  1  0  0  0
  4  5  2  0  0  0
  5  6  1  0  0  0
  6 39  1  0  0  0
 39 40  1  0  0  0
 40 41  1  0  0  0
 15 16  2  0  0  0
 16 17  1  0  0  0
 17  7  1  0  0  0
 17 11  2  0  0  0
  6  1  2  0  0  0
 30 25  1  0  0  0
 14 18  1  0  0  0
 35 37  1  0  0  0
 36 38  1  0  0  0
M  END
> <minimizedAffinity>
-10.25689

$$$$



 41 44  0  0  0  0  0  0  0  0999 V2000
    2.2721   66.3563   84.2433 C   0  0  0  0  0  0  0  0  0  0  0  0
    1.7330   67.2364   83.2844 C   0  0  0  0  0  0  0  0  0  0  0  0
    2.5112   68.2665   82.7547 C   0  0  0  0  0  0  0  0  0  0  0  0
    3.8220   68.4555   83.1862 C   0  0  0  0  0  0  0  0  0  0  0  0
    4.3615   67.6023   84.1511 C   0  0  0  0  0  0  0  0  0  0  0  0
    3.5991   66.5553   84.6932 C   0  0  0  0  0  0  0  0  0  0  0  0
   -0.9091   62.5805   83.8119 C   0  0  0  0  0  0  0  0  0  0  0  0
   -1.5374   61.8288   84.7363 N   0  0  0  0  0  0  0  0  0  0  0  0
   -1.0906   62.3197   85.9200 N   0  0  0  0  0  0  0  0  0  0  0  0
   -1.5757   61.7628   87.1594 C   0  0  0  0  0  0  0  0  0  0  0  0
   -0.2144   63.3483   85.7731 C   0  0  0  0  0  0  0  0  0  0  0  0
    0.4699   64.1429   86.7245 C   0  0  0  0  0  0  0  0  0  0  0  0
    0.3983   64.0289   87.9422 O   0  0  0  0  0  0  0  0  0  0  0  0
    1.2511   65.0937   86.1086 N   0  0  0  0  0  0  0  0  0  0  0  0
    1.3648   65.2541   84.7313 C   0  0  0  0  0  0  0  0  0  0  0  0
    0.7396   64.5061   83.8619 N   0  0  0  0  0  0  0  0  0  0  0  0
   -0.0789   63.5297   84.4304 C   0  0  0  0  0  0  0  0  0  0  0  0
    1.7720   65.7005   86.7283 H   0  0  0  0  0  0  0  0  0  0  0  0
   -1.1388   62.3553   82.3572 C   0  0  0  0  0  0  0  0  0  0  0  0
    1.1169   61.2447   81.9213 C   0  0  0  0  0  0  0  0  0  0  0  0
   -0.3973   61.1351   81.8026 C   0  0  0  0  0  0  0  0  0  0  0  0
    1.8188   69.3979   81.5732 S   0  0  0  0  0  0  0  0  0  0  0  0
    2.1439   68.9374   80.2409 O   0  0  0  0  0  0  0  0  0  0  0  0
    0.4464   69.6368   81.9675 O   0  0  0  0  0  0  0  0  0  0  0  0
    2.7081   70.8301   81.8590 N   0  0  0  0  0  0  0  0  0  0  0  0
    3.1981   71.5190   80.6228 C   0  0  0  0  0  0  0  0  0  0  0  0
    4.0429   72.7570   80.9901 C   0  0  0  0  0  0  0  0  0  0  0  0
    3.3711   73.7468   81.8692 N   0  0  0  0  0  0  0  0  0  0  0  0
    2.8481   73.0226   83.0552 C   0  0  0  0  0  0  0  0  0  0  0  0
    1.9764   71.7858   82.7493 C   0  0  0  0  0  0  0  0  0  0  0  0
    2.3189   74.4860   81.1375 C   0  0  0  0  0  0  0  0  0  0  0  0
    1.8067   75.7148   81.8969 C   0  0  0  0  0  0  0  0  0  0  0  0
    0.3859   75.5362   82.3818 C   0  0  0  0  0  0  0  0  0  0  0  0
   -0.3149   74.5746   82.0709 O   0  0  0  0  0  0  0  0  0  0  0  0
   -0.0519   76.5214   83.2356 N   0  0  0  0  0  0  0  0  0  0  0  0
   -1.4262   76.4535   83.5719 O   0  0  0  0  0  0  0  0  0  0  0  0
    0.3447   77.4591   83.1323 H   0  0  0  0  0  0  0  0  0  0  0  0
   -1.7091   75.6195   83.1362 H   0  0  0  0  0  0  0  0  0  0  0  0
    4.0921   65.6905   85.6396 O   0  0  0  0  0  0  0  0  0  0  0  0
    5.3593   65.9951   86.2313 C   0  0  0  0  0  0  0  0  0  0  0  0
    5.3330   65.4922   87.6630 C   0  0  0  0  0  0  0  0  0  0  0  0
 20 21  1  0  0  0
 21 19  1  0  0  0
 19  7  1  0  0  0
  7  8  2  0  0  0
  8  9  1  0  0  0
  9 10  1  0  0  0
  9 11  1  0  0  0
 11 12  1  0  0  0
 12 13  2  0  0  0
 12 14  1  0  0  0
 14 15  1  0  0  0
 15  1  1  0  0  0
  1  2  1  0  0  0
  2  3  2  0  0  0
  3 22  1  0  0  0
 22 23  2  0  0  0
 22 24  2  0  0  0
 22 25  1  0  0  0
 25 26  1  0  0  0
 26 27  1  0  0  0
 27 28  1  0  0  0
 28 31  1  0  0  0
 31 32  1  0  0  0
 32 33  1  0  0  0
 33 34  2  0  0  0
 33 35  1  0  0  0
 35 36  1  0  0  0
 28 29  1  0  0  0
 29 30  1  0  0  0
  3  4  1  0  0  0
  4  5  2  0  0  0
  5  6  1  0  0  0
  6 39  1  0  0  0
 39 40  1  0  0  0
 40 41  1  0  0  0
 15 16  2  0  0  0
 16 17  1  0  0  0
 17  7  1  0  0  0
 17 11  2  0  0  0
  6  1  2  0  0  0
 30 25  1  0  0  0
 14 18  1  0  0  0
 35 37  1  0  0  0
 36 38  1  0  0  0
M  END
> <minimizedAffinity>
-9.81006

$$$$



 41 44  0  0  0  0  0  0  0  0999 V2000
    1.9330   66.4743   83.8446 C   0  0  0  0  0  0  0  0  0  0  0  0
    1.3351   67.1735   82.7776 C   0  0  0  0  0  0  0  0  0  0  0  0
    2.0233   68.2028   82.1339 C   0  0  0  0  0  0  0  0  0  0  0  0
    3.2990   68.5710   82.5547 C   0  0  0  0  0  0  0  0  0  0  0  0
    3.8945   67.8991   83.6243 C   0  0  0  0  0  0  0  0  0  0  0  0
    3.2234   66.8563   84.2825 C   0  0  0  0  0  0  0  0  0  0  0  0
   -1.0884   62.5456   83.8460 C   0  0  0  0  0  0  0  0  0  0  0  0
   -1.5992   61.8092   84.8514 N   0  0  0  0  0  0  0  0  0  0  0  0
   -1.0779   62.3722   85.9707 N   0  0  0  0  0  0  0  0  0  0  0  0
   -1.4290   61.8507   87.2694 C   0  0  0  0  0  0  0  0  0  0  0  0
   -0.2677   63.4310   85.7064 C   0  0  0  0  0  0  0  0  0  0  0  0
    0.4557   64.2972   86.5615 C   0  0  0  0  0  0  0  0  0  0  0  0
    0.4931   64.2350   87.7845 O   0  0  0  0  0  0  0  0  0  0  0  0
    1.1354   65.2530   85.8417 N   0  0  0  0  0  0  0  0  0  0  0  0
    1.1242   65.3561   84.4543 C   0  0  0  0  0  0  0  0  0  0  0  0
    0.4643   64.5427   83.6738 N   0  0  0  0  0  0  0  0  0  0  0  0
   -0.2553   63.5576   84.3507 C   0  0  0  0  0  0  0  0  0  0  0  0
    1.6772   65.9095   86.3884 H   0  0  0  0  0  0  0  0  0  0  0  0
   -1.4294   62.2452   82.4271 C   0  0  0  0  0  0  0  0  0  0  0  0
    0.8295   61.3938   81.5999 C   0  0  0  0  0  0  0  0  0  0  0  0
   -0.6384   61.0704   81.8436 C   0  0  0  0  0  0  0  0  0  0  0  0
    1.2541   69.1079   80.8131 S   0  0  0  0  0  0  0  0  0  0  0  0
    2.2624   69.4505   79.8339 O   0  0  0  0  0  0  0  0  0  0  0  0
    0.0626   68.3775   80.4352 O   0  0  0  0  0  0  0  0  0  0  0  0
    0.7659   70.5542   81.5836 N   0  0  0  0  0  0  0  0  0  0  0  0
    1.8600   71.5577   81.7805 C   0  0  0  0  0  0  0  0  0  0  0  0
    1.3334   72.7925   82.5416 C   0  0  0  0  0  0  0  0  0  0  0  0
    0.1581   73.4623   81.9302 N   0  0  0  0  0  0  0  0  0  0  0  0
   -0.8841   72.4310   81.6959 C   0  0  0  0  0  0  0  0  0  0  0  0
   -0.4205   71.1802   80.9189 C   0  0  0  0  0  0  0  0  0  0  0  0
    0.5361   74.1872   80.6971 C   0  0  0  0  0  0  0  0  0  0  0  0
    0.5614   75.7091   80.8764 C   0  0  0  0  0  0  0  0  0  0  0  0
   -0.6434   76.2156   81.6364 C   0  0  0  0  0  0  0  0  0  0  0  0
   -1.6297   76.7023   81.0862 O   0  0  0  0  0  0  0  0  0  0  0  0
   -0.5657   76.0528   82.9998 N   0  0  0  0  0  0  0  0  0  0  0  0
   -1.6117   76.6625   83.7350 O   0  0  0  0  0  0  0  0  0  0  0  0
    0.3610   76.0637   83.4338 H   0  0  0  0  0  0  0  0  0  0  0  0
   -2.1992   77.0018   83.0244 H   0  0  0  0  0  0  0  0  0  0  0  0
    3.7742   66.1662   85.3346 O   0  0  0  0  0  0  0  0  0  0  0  0
    5.0852   66.5411   85.7699 C   0  0  0  0  0  0  0  0  0  0  0  0
    5.9963   65.3429   85.5757 C   0  0  0  0  0  0  0  0  0  0  0  0
 20 21  1  0  0  0
 21 19  1  0  0  0
 19  7  1  0  0  0
  7  8  2  0  0  0
  8  9  1  0  0  0
  9 10  1  0  0  0
  9 11  1  0  0  0
 11 12  1  0  0  0
 12 13  2  0  0  0
 12 14  1  0  0  0
 14 15  1  0  0  0
 15  1  1  0  0  0
  1  2  1  0  0  0
  2  3  2  0  0  0
  3 22  1  0  0  0
 22 23  2  0  0  0
 22 24  2  0  0  0
 22 25  1  0  0  0
 25 26  1  0  0  0
 26 27  1  0  0  0
 27 28  1  0  0  0
 28 31  1  0  0  0
 31 32  1  0  0  0
 32 33  1  0  0  0
 33 34  2  0  0  0
 33 35  1  0  0  0
 35 36  1  0  0  0
 28 29  1  0  0  0
 29 30  1  0  0  0
  3  4  1  0  0  0
  4  5  2  0  0  0
  5  6  1  0  0  0
  6 39  1  0  0  0
 39 40  1  0  0  0
 40 41  1  0  0  0
 15 16  2  0  0  0
 16 17  1  0  0  0
 17  7  1  0  0  0
 17 11  2  0  0  0
  6  1  2  0  0  0
 30 25  1  0  0  0
 14 18  1  0  0  0
 35 37  1  0  0  0
 36 38  1  0  0  0
M  END
> <minimizedAffinity>
-9.74197

$$$$



 41 44  0  0  0  0  0  0  0  0999 V2000
    1.8902   66.4472   83.8781 C   0  0  0  0  0  0  0  0  0  0  0  0
    1.3174   67.1433   82.7954 C   0  0  0  0  0  0  0  0  0  0  0  0
    2.0257   68.1619   82.1565 C   0  0  0  0  0  0  0  0  0  0  0  0
    3.2969   68.5225   82.5972 C   0  0  0  0  0  0  0  0  0  0  0  0
    3.8675   67.8537   83.6822 C   0  0  0  0  0  0  0  0  0  0  0  0
    3.1759   66.8217   84.3361 C   0  0  0  0  0  0  0  0  0  0  0  0
   -1.1741   62.5520   83.8554 C   0  0  0  0  0  0  0  0  0  0  0  0
   -1.7063   61.8255   84.8570 N   0  0  0  0  0  0  0  0  0  0  0  0
   -1.1937   62.3875   85.9808 N   0  0  0  0  0  0  0  0  0  0  0  0
   -1.5676   61.8754   87.2768 C   0  0  0  0  0  0  0  0  0  0  0  0
   -0.3683   63.4362   85.7229 C   0  0  0  0  0  0  0  0  0  0  0  0
    0.3533   64.2979   86.5840 C   0  0  0  0  0  0  0  0  0  0  0  0
    0.3738   64.2405   87.8076 O   0  0  0  0  0  0  0  0  0  0  0  0
    1.0529   65.2432   85.8694 N   0  0  0  0  0  0  0  0  0  0  0  0
    1.0612   65.3406   84.4815 C   0  0  0  0  0  0  0  0  0  0  0  0
    0.4027   64.5312   83.6957 N   0  0  0  0  0  0  0  0  0  0  0  0
   -0.3366   63.5569   84.3670 C   0  0  0  0  0  0  0  0  0  0  0  0
    1.5946   65.8961   86.4206 H   0  0  0  0  0  0  0  0  0  0  0  0
   -1.4996   62.2494   82.4334 C   0  0  0  0  0  0  0  0  0  0  0  0
    0.7412   61.4166   81.5406 C   0  0  0  0  0  0  0  0  0  0  0  0
   -0.7063   61.0701   81.8620 C   0  0  0  0  0  0  0  0  0  0  0  0
    1.2880   69.0634   80.8155 S   0  0  0  0  0  0  0  0  0  0  0  0
    2.3155   69.3857   79.8495 O   0  0  0  0  0  0  0  0  0  0  0  0
    0.0944   68.3430   80.4251 O   0  0  0  0  0  0  0  0  0  0  0  0
    0.8040   70.5220   81.5651 N   0  0  0  0  0  0  0  0  0  0  0  0
    1.8604   71.5827   81.6095 C   0  0  0  0  0  0  0  0  0  0  0  0
    1.3478   72.8280   82.3628 C   0  0  0  0  0  0  0  0  0  0  0  0
    0.0875   73.4130   81.8400 N   0  0  0  0  0  0  0  0  0  0  0  0
   -0.9194   72.3252   81.7547 C   0  0  0  0  0  0  0  0  0  0  0  0
   -0.4702   71.0602   80.9923 C   0  0  0  0  0  0  0  0  0  0  0  0
    0.3094   74.0931   80.5450 C   0  0  0  0  0  0  0  0  0  0  0  0
    1.4232   75.1445   80.5994 C   0  0  0  0  0  0  0  0  0  0  0  0
    2.4489   74.9484   79.5062 C   0  0  0  0  0  0  0  0  0  0  0  0
    2.2584   75.2817   78.3378 O   0  0  0  0  0  0  0  0  0  0  0  0
    3.6357   74.3990   79.9314 N   0  0  0  0  0  0  0  0  0  0  0  0
    4.5438   74.0643   78.8971 O   0  0  0  0  0  0  0  0  0  0  0  0
    3.6130   73.7690   80.7375 H   0  0  0  0  0  0  0  0  0  0  0  0
    4.0868   74.4046   78.0967 H   0  0  0  0  0  0  0  0  0  0  0  0
    3.7019   66.1349   85.4030 O   0  0  0  0  0  0  0  0  0  0  0  0
    5.0640   65.7035   85.3172 C   0  0  0  0  0  0  0  0  0  0  0  0
    5.4046   64.9896   86.6125 C   0  0  0  0  0  0  0  0  0  0  0  0
 20 21  1  0  0  0
 21 19  1  0  0  0
 19  7  1  0  0  0
  7  8  2  0  0  0
  8  9  1  0  0  0
  9 10  1  0  0  0
  9 11  1  0  0  0
 11 12  1  0  0  0
 12 13  2  0  0  0
 12 14  1  0  0  0
 14 15  1  0  0  0
 15  1  1  0  0  0
  1  2  1  0  0  0
  2  3  2  0  0  0
  3 22  1  0  0  0
 22 23  2  0  0  0
 22 24  2  0  0  0
 22 25  1  0  0  0
 25 26  1  0  0  0
 26 27  1  0  0  0
 27 28  1  0  0  0
 28 31  1  0  0  0
 31 32  1  0  0  0
 32 33  1  0  0  0
 33 34  2  0  0  0
 33 35  1  0  0  0
 35 36  1  0  0  0
 28 29  1  0  0  0
 29 30  1  0  0  0
  3  4  1  0  0  0
  4  5  2  0  0  0
  5  6  1  0  0  0
  6 39  1  0  0  0
 39 40  1  0  0  0
 40 41  1  0  0  0
 15 16  2  0  0  0
 16 17  1  0  0  0
 17  7  1  0  0  0
 17 11  2  0  0  0
  6  1  2  0  0  0
 30 25  1  0  0  0
 14 18  1  0  0  0
 35 37  1  0  0  0
 36 38  1  0  0  0
M  END
> <minimizedAffinity>
-9.58092

$$$$



 41 44  0  0  0  0  0  0  0  0999 V2000
   -0.0262   63.9780   84.0559 C   0  0  0  0  0  0  0  0  0  0  0  0
   -0.8268   63.5179   82.9919 C   0  0  0  0  0  0  0  0  0  0  0  0
   -1.7169   62.4604   83.1839 C   0  0  0  0  0  0  0  0  0  0  0  0
   -1.8065   61.8280   84.4216 C   0  0  0  0  0  0  0  0  0  0  0  0
   -1.0037   62.2616   85.4788 C   0  0  0  0  0  0  0  0  0  0  0  0
   -0.1057   63.3276   85.3103 C   0  0  0  0  0  0  0  0  0  0  0  0
    3.9253   66.9114   84.6424 C   0  0  0  0  0  0  0  0  0  0  0  0
    4.3081   68.0357   84.0071 N   0  0  0  0  0  0  0  0  0  0  0  0
    3.3406   68.2346   83.0765 N   0  0  0  0  0  0  0  0  0  0  0  0
    3.4049   69.3828   82.2053 C   0  0  0  0  0  0  0  0  0  0  0  0
    2.3687   67.2850   83.1076 C   0  0  0  0  0  0  0  0  0  0  0  0
    1.1919   67.1193   82.3378 C   0  0  0  0  0  0  0  0  0  0  0  0
    0.8173   67.8510   81.4294 O   0  0  0  0  0  0  0  0  0  0  0  0
    0.4882   66.0067   82.7383 N   0  0  0  0  0  0  0  0  0  0  0  0
    0.8799   65.1475   83.7601 C   0  0  0  0  0  0  0  0  0  0  0  0
    1.9752   65.3019   84.4550 N   0  0  0  0  0  0  0  0  0  0  0  0
    2.7250   66.4235   84.1000 C   0  0  0  0  0  0  0  0  0  0  0  0
   -0.3675   65.8239   82.2306 H   0  0  0  0  0  0  0  0  0  0  0  0
    4.7358   66.3492   85.7590 C   0  0  0  0  0  0  0  0  0  0  0  0
    7.0573   65.7349   84.8959 C   0  0  0  0  0  0  0  0  0  0  0  0
    5.6856   65.2296   85.3220 C   0  0  0  0  0  0  0  0  0  0  0  0
   -2.6990   61.8573   81.8321 S   0  0  0  0  0  0  0  0  0  0  0  0
   -3.3741   60.6478   82.2497 O   0  0  0  0  0  0  0  0  0  0  0  0
   -3.4410   62.9853   81.3096 O   0  0  0  0  0  0  0  0  0  0  0  0
   -1.5177   61.4198   80.6758 N   0  0  0  0  0  0  0  0  0  0  0  0
   -2.0680   61.0028   79.3469 C   0  0  0  0  0  0  0  0  0  0  0  0
   -0.9298   60.5646   78.4014 C   0  0  0  0  0  0  0  0  0  0  0  0
    0.1454   61.5671   78.1940 N   0  0  0  0  0  0  0  0  0  0  0  0
    0.6283   62.0010   79.5293 C   0  0  0  0  0  0  0  0  0  0  0  0
   -0.4650   62.4717   80.5123 C   0  0  0  0  0  0  0  0  0  0  0  0
   -0.3268   62.6941   77.3598 C   0  0  0  0  0  0  0  0  0  0  0  0
    0.4796   63.9801   77.5720 C   0  0  0  0  0  0  0  0  0  0  0  0
   -0.4093   65.1818   77.7988 C   0  0  0  0  0  0  0  0  0  0  0  0
   -1.3652   65.4572   77.0756 O   0  0  0  0  0  0  0  0  0  0  0  0
   -0.0862   65.9271   78.9085 N   0  0  0  0  0  0  0  0  0  0  0  0
   -0.8070   67.1388   79.0451 O   0  0  0  0  0  0  0  0  0  0  0  0
    0.8919   65.9440   79.2088 H   0  0  0  0  0  0  0  0  0  0  0  0
   -1.4455   67.0897   78.2999 H   0  0  0  0  0  0  0  0  0  0  0  0
    0.6979   63.7889   86.3242 O   0  0  0  0  0  0  0  0  0  0  0  0
    0.0779   64.1340   87.5672 C   0  0  0  0  0  0  0  0  0  0  0  0
    0.6147   63.1909   88.6283 C   0  0  0  0  0  0  0  0  0  0  0  0
 20 21  1  0  0  0
 21 19  1  0  0  0
 19  7  1  0  0  0
  7  8  2  0  0  0
  8  9  1  0  0  0
  9 10  1  0  0  0
  9 11  1  0  0  0
 11 12  1  0  0  0
 12 13  2  0  0  0
 12 14  1  0  0  0
 14 15  1  0  0  0
 15  1  1  0  0  0
  1  2  1  0  0  0
  2  3  2  0  0  0
  3 22  1  0  0  0
 22 23  2  0  0  0
 22 24  2  0  0  0
 22 25  1  0  0  0
 25 26  1  0  0  0
 26 27  1  0  0  0
 27 28  1  0  0  0
 28 31  1  0  0  0
 31 32  1  0  0  0
 32 33  1  0  0  0
 33 34  2  0  0  0
 33 35  1  0  0  0
 35 36  1  0  0  0
 28 29  1  0  0  0
 29 30  1  0  0  0
  3  4  1  0  0  0
  4  5  2  0  0  0
  5  6  1  0  0  0
  6 39  1  0  0  0
 39 40  1  0  0  0
 40 41  1  0  0  0
 15 16  2  0  0  0
 16 17  1  0  0  0
 17  7  1  0  0  0
 17 11  2  0  0  0
  6  1  2  0  0  0
 30 25  1  0  0  0
 14 18  1  0  0  0
 35 37  1  0  0  0
 36 38  1  0  0  0
M  END
> <minimizedAffinity>
-9.32872

$$$$



 41 44  0  0  0  0  0  0  0  0999 V2000
    1.0632   65.0825   84.5781 C   0  0  0  0  0  0  0  0  0  0  0  0
   -0.0900   64.2761   84.5096 C   0  0  0  0  0  0  0  0  0  0  0  0
   -0.4247   63.4309   85.5683 C   0  0  0  0  0  0  0  0  0  0  0  0
    0.3905   63.3527   86.6950 C   0  0  0  0  0  0  0  0  0  0  0  0
    1.5471   64.1319   86.7663 C   0  0  0  0  0  0  0  0  0  0  0  0
    1.9001   64.9939   85.7159 C   0  0  0  0  0  0  0  0  0  0  0  0
    1.4198   66.2932   79.7853 C   0  0  0  0  0  0  0  0  0  0  0  0
    1.7707   67.4418   79.1756 N   0  0  0  0  0  0  0  0  0  0  0  0
    2.0150   68.2978   80.1999 N   0  0  0  0  0  0  0  0  0  0  0  0
    2.4464   69.6466   79.9235 C   0  0  0  0  0  0  0  0  0  0  0  0
    1.8359   67.7307   81.4220 C   0  0  0  0  0  0  0  0  0  0  0  0
    1.9911   68.2493   82.7304 C   0  0  0  0  0  0  0  0  0  0  0  0
    2.3284   69.3918   83.0163 O   0  0  0  0  0  0  0  0  0  0  0  0
    1.7134   67.2932   83.6804 N   0  0  0  0  0  0  0  0  0  0  0  0
    1.3230   65.9878   83.3994 C   0  0  0  0  0  0  0  0  0  0  0  0
    1.1692   65.5235   82.1882 N   0  0  0  0  0  0  0  0  0  0  0  0
    1.4493   66.4476   81.1811 C   0  0  0  0  0  0  0  0  0  0  0  0
    1.8031   67.5932   84.6424 H   0  0  0  0  0  0  0  0  0  0  0  0
    1.0710   65.0810   78.9924 C   0  0  0  0  0  0  0  0  0  0  0  0
   -0.5490   64.5669   77.0890 C   0  0  0  0  0  0  0  0  0  0  0  0
   -0.3864   65.0565   78.5217 C   0  0  0  0  0  0  0  0  0  0  0  0
   -1.8587   62.3877   85.4652 S   0  0  0  0  0  0  0  0  0  0  0  0
   -1.8317   61.4480   86.5648 O   0  0  0  0  0  0  0  0  0  0  0  0
   -2.9991   63.2531   85.2492 O   0  0  0  0  0  0  0  0  0  0  0  0
   -1.5810   61.5093   84.0246 N   0  0  0  0  0  0  0  0  0  0  0  0
   -2.8126   60.9339   83.3959 C   0  0  0  0  0  0  0  0  0  0  0  0
   -2.4477   60.1067   82.1454 C   0  0  0  0  0  0  0  0  0  0  0  0
   -1.6618   60.8282   81.1132 N   0  0  0  0  0  0  0  0  0  0  0  0
   -0.4809   61.4335   81.7793 C   0  0  0  0  0  0  0  0  0  0  0  0
   -0.7864   62.2916   83.0257 C   0  0  0  0  0  0  0  0  0  0  0  0
   -2.4951   61.8246   80.4048 C   0  0  0  0  0  0  0  0  0  0  0  0
   -2.5808   61.5746   78.8952 C   0  0  0  0  0  0  0  0  0  0  0  0
   -3.1449   60.2096   78.5725 C   0  0  0  0  0  0  0  0  0  0  0  0
   -2.5824   59.4083   77.8282 O   0  0  0  0  0  0  0  0  0  0  0  0
   -4.3266   59.9167   79.2121 N   0  0  0  0  0  0  0  0  0  0  0  0
   -4.9461   58.7113   78.8002 O   0  0  0  0  0  0  0  0  0  0  0  0
   -4.9521   60.6920   79.4464 H   0  0  0  0  0  0  0  0  0  0  0  0
   -4.2860   58.3372   78.1760 H   0  0  0  0  0  0  0  0  0  0  0  0
    3.0252   65.7811   85.7474 O   0  0  0  0  0  0  0  0  0  0  0  0
    4.2891   65.1549   85.5038 C   0  0  0  0  0  0  0  0  0  0  0  0
    5.1355   65.3224   86.7525 C   0  0  0  0  0  0  0  0  0  0  0  0
 20 21  1  0  0  0
 21 19  1  0  0  0
 19  7  1  0  0  0
  7  8  2  0  0  0
  8  9  1  0  0  0
  9 10  1  0  0  0
  9 11  1  0  0  0
 11 12  1  0  0  0
 12 13  2  0  0  0
 12 14  1  0  0  0
 14 15  1  0  0  0
 15  1  1  0  0  0
  1  2  1  0  0  0
  2  3  2  0  0  0
  3 22  1  0  0  0
 22 23  2  0  0  0
 22 24  2  0  0  0
 22 25  1  0  0  0
 25 26  1  0  0  0
 26 27  1  0  0  0
 27 28  1  0  0  0
 28 31  1  0  0  0
 31 32  1  0  0  0
 32 33  1  0  0  0
 33 34  2  0  0  0
 33 35  1  0  0  0
 35 36  1  0  0  0
 28 29  1  0  0  0
 29 30  1  0  0  0
  3  4  1  0  0  0
  4  5  2  0  0  0
  5  6  1  0  0  0
  6 39  1  0  0  0
 39 40  1  0  0  0
 40 41  1  0  0  0
 15 16  2  0  0  0
 16 17  1  0  0  0
 17  7  1  0  0  0
 17 11  2  0  0  0
  6  1  2  0  0  0
 30 25  1  0  0  0
 14 18  1  0  0  0
 35 37  1  0  0  0
 36 38  1  0  0  0
M  END
> <minimizedAffinity>
-9.28466

$$$$
