


 24 27  0  0  0  0  0  0  0  0999 V2000
    1.9594   66.8500   83.4523 C   0  0  0  0  0  0  0  0  0  0  0  0
    1.5311   66.0940   84.4773 N   0  0  0  0  0  0  0  0  0  0  0  0
    0.7409   65.0563   84.1601 C   0  0  0  0  0  0  0  0  0  0  0  0
    0.3779   64.7302   82.9049 N   0  0  0  0  0  0  0  0  0  0  0  0
    0.8355   65.4907   81.9032 C   0  0  0  0  0  0  0  0  0  0  0  0
    0.4842   65.1740   80.5960 C   0  0  0  0  0  0  0  0  0  0  0  0
    0.9302   65.9289   79.5061 C   0  0  0  0  0  0  0  0  0  0  0  0
    1.7484   67.0312   79.7173 C   0  0  0  0  0  0  0  0  0  0  0  0
    2.1140   67.3692   81.0172 C   0  0  0  0  0  0  0  0  0  0  0  0
    1.6585   66.5983   82.1145 C   0  0  0  0  0  0  0  0  0  0  0  0
    0.2332   64.2161   85.2654 C   0  0  0  0  0  0  0  0  0  0  0  0
    0.6235   64.4399   86.6008 C   0  0  0  0  0  0  0  0  0  0  0  0
    0.1419   63.6475   87.6483 C   0  0  0  0  0  0  0  0  0  0  0  0
   -0.7446   62.6083   87.3845 C   0  0  0  0  0  0  0  0  0  0  0  0
   -1.1483   62.3610   86.0763 C   0  0  0  0  0  0  0  0  0  0  0  0
   -0.6643   63.1557   85.0316 C   0  0  0  0  0  0  0  0  0  0  0  0
    2.7945   67.9212   83.7201 O   0  0  0  0  0  0  0  0  0  0  0  0
    3.3829   67.9136   85.0218 C   0  0  0  0  0  0  0  0  0  0  0  0
    7.0286   65.6058   85.0326 C   0  0  0  0  0  0  0  0  0  0  0  0
    5.9302   65.1788   85.7768 C   0  0  0  0  0  0  0  0  0  0  0  0
    4.7519   65.9268   85.7752 C   0  0  0  0  0  0  0  0  0  0  0  0
    4.6641   67.1137   85.0333 C   0  0  0  0  0  0  0  0  0  0  0  0
    5.7721   67.5285   84.2822 C   0  0  0  0  0  0  0  0  0  0  0  0
    6.9490   66.7786   84.2838 C   0  0  0  0  0  0  0  0  0  0  0  0
 19 20  2  0  0  0
 20 21  1  0  0  0
 21 22  2  0  0  0
 22 18  1  0  0  0
 18 17  1  0  0  0
 17  1  1  0  0  0
  1  2  1  0  0  0
  2  3  2  0  0  0
  3 11  1  0  0  0
 11 12  2  0  0  0
 12 13  1  0  0  0
 13 14  2  0  0  0
 14 15  1  0  0  0
 15 16  2  0  0  0
  3  4  1  0  0  0
  4  5  2  0  0  0
  5  6  1  0  0  0
  6  7  2  0  0  0
  7  8  1  0  0  0
  8  9  2  0  0  0
  9 10  1  0  0  0
 22 23  1  0  0  0
 23 24  2  0  0  0
 24 19  1  0  0  0
 10  1  2  0  0  0
 16 11  1  0  0  0
 10  5  1  0  0  0
M  END
> <minimizedAffinity>
-10.15979

$$$$



 24 27  0  0  0  0  0  0  0  0999 V2000
   -0.1563   64.1402   84.7750 C   0  0  0  0  0  0  0  0  0  0  0  0
   -0.8184   63.6550   83.7110 N   0  0  0  0  0  0  0  0  0  0  0  0
   -1.4719   62.4972   83.8959 C   0  0  0  0  0  0  0  0  0  0  0  0
   -1.5138   61.8229   85.0609 N   0  0  0  0  0  0  0  0  0  0  0  0
   -0.8603   62.3406   86.1078 C   0  0  0  0  0  0  0  0  0  0  0  0
   -0.8918   61.6711   87.3257 C   0  0  0  0  0  0  0  0  0  0  0  0
   -0.2301   62.1606   88.4568 C   0  0  0  0  0  0  0  0  0  0  0  0
    0.4851   63.3487   88.3791 C   0  0  0  0  0  0  0  0  0  0  0  0
    0.5322   64.0377   87.1705 C   0  0  0  0  0  0  0  0  0  0  0  0
   -0.1419   63.5351   86.0308 C   0  0  0  0  0  0  0  0  0  0  0  0
   -2.1930   61.9229   82.7401 C   0  0  0  0  0  0  0  0  0  0  0  0
   -2.4732   60.5444   82.6570 C   0  0  0  0  0  0  0  0  0  0  0  0
   -3.1578   59.9997   81.5654 C   0  0  0  0  0  0  0  0  0  0  0  0
   -3.5799   60.8235   80.5267 C   0  0  0  0  0  0  0  0  0  0  0  0
   -3.3176   62.1888   80.5787 C   0  0  0  0  0  0  0  0  0  0  0  0
   -2.6326   62.7295   81.6721 C   0  0  0  0  0  0  0  0  0  0  0  0
    0.5180   65.3424   84.6464 O   0  0  0  0  0  0  0  0  0  0  0  0
    1.6722   65.2972   83.8059 C   0  0  0  0  0  0  0  0  0  0  0  0
    4.8214   67.7665   85.4189 C   0  0  0  0  0  0  0  0  0  0  0  0
    3.7593   68.3510   84.7312 C   0  0  0  0  0  0  0  0  0  0  0  0
    2.7420   67.5518   84.2074 C   0  0  0  0  0  0  0  0  0  0  0  0
    2.7818   66.1584   84.3613 C   0  0  0  0  0  0  0  0  0  0  0  0
    3.8503   65.5828   85.0620 C   0  0  0  0  0  0  0  0  0  0  0  0
    4.8659   66.3836   85.5863 C   0  0  0  0  0  0  0  0  0  0  0  0
 19 20  2  0  0  0
 20 21  1  0  0  0
 21 22  2  0  0  0
 22 18  1  0  0  0
 18 17  1  0  0  0
 17  1  1  0  0  0
  1  2  1  0  0  0
  2  3  2  0  0  0
  3 11  1  0  0  0
 11 12  2  0  0  0
 12 13  1  0  0  0
 13 14  2  0  0  0
 14 15  1  0  0  0
 15 16  2  0  0  0
  3  4  1  0  0  0
  4  5  2  0  0  0
  5  6  1  0  0  0
  6  7  2  0  0  0
  7  8  1  0  0  0
  8  9  2  0  0  0
  9 10  1  0  0  0
 22 23  1  0  0  0
 23 24  2  0  0  0
 24 19  1  0  0  0
 10  1  2  0  0  0
 16 11  1  0  0  0
 10  5  1  0  0  0
M  END
> <minimizedAffinity>
-10.03179

$$$$



 24 27  0  0  0  0  0  0  0  0999 V2000
    0.9078   65.4575   83.2064 C   0  0  0  0  0  0  0  0  0  0  0  0
    1.8597   65.4655   84.1549 N   0  0  0  0  0  0  0  0  0  0  0  0
    2.8282   66.3846   84.0163 C   0  0  0  0  0  0  0  0  0  0  0  0
    2.8875   67.2849   83.0166 N   0  0  0  0  0  0  0  0  0  0  0  0
    1.9151   67.2646   82.0972 C   0  0  0  0  0  0  0  0  0  0  0  0
    1.9451   68.1871   81.0576 C   0  0  0  0  0  0  0  0  0  0  0  0
    0.9584   68.2178   80.0665 C   0  0  0  0  0  0  0  0  0  0  0  0
   -0.0893   67.3068   80.1059 C   0  0  0  0  0  0  0  0  0  0  0  0
   -0.1416   66.3727   81.1366 C   0  0  0  0  0  0  0  0  0  0  0  0
    0.8613   66.3500   82.1364 C   0  0  0  0  0  0  0  0  0  0  0  0
    3.9041   66.4074   85.0300 C   0  0  0  0  0  0  0  0  0  0  0  0
    4.6005   67.5928   85.3391 C   0  0  0  0  0  0  0  0  0  0  0  0
    5.6169   67.6168   86.3000 C   0  0  0  0  0  0  0  0  0  0  0  0
    5.9628   66.4517   86.9770 C   0  0  0  0  0  0  0  0  0  0  0  0
    5.2947   65.2648   86.6937 C   0  0  0  0  0  0  0  0  0  0  0  0
    4.2789   65.2450   85.7320 C   0  0  0  0  0  0  0  0  0  0  0  0
   -0.1270   64.5440   83.3112 O   0  0  0  0  0  0  0  0  0  0  0  0
    0.1848   63.3656   84.0562 C   0  0  0  0  0  0  0  0  0  0  0  0
   -2.2861   63.0219   87.5766 C   0  0  0  0  0  0  0  0  0  0  0  0
   -2.7768   62.6151   86.3372 C   0  0  0  0  0  0  0  0  0  0  0  0
   -1.9783   62.7287   85.1981 C   0  0  0  0  0  0  0  0  0  0  0  0
   -0.6824   63.2572   85.2880 C   0  0  0  0  0  0  0  0  0  0  0  0
   -0.1966   63.6550   86.5409 C   0  0  0  0  0  0  0  0  0  0  0  0
   -0.9960   63.5394   87.6790 C   0  0  0  0  0  0  0  0  0  0  0  0
 19 20  2  0  0  0
 20 21  1  0  0  0
 21 22  2  0  0  0
 22 18  1  0  0  0
 18 17  1  0  0  0
 17  1  1  0  0  0
  1  2  1  0  0  0
  2  3  2  0  0  0
  3 11  1  0  0  0
 11 12  2  0  0  0
 12 13  1  0  0  0
 13 14  2  0  0  0
 14 15  1  0  0  0
 15 16  2  0  0  0
  3  4  1  0  0  0
  4  5  2  0  0  0
  5  6  1  0  0  0
  6  7  2  0  0  0
  7  8  1  0  0  0
  8  9  2  0  0  0
  9 10  1  0  0  0
 22 23  1  0  0  0
 23 24  2  0  0  0
 24 19  1  0  0  0
 10  1  2  0  0  0
 16 11  1  0  0  0
 10  5  1  0  0  0
M  END
> <minimizedAffinity>
-10.02043

$$$$



 24 27  0  0  0  0  0  0  0  0999 V2000
   -0.0998   64.0885   84.7013 C   0  0  0  0  0  0  0  0  0  0  0  0
   -0.7730   63.6024   83.6447 N   0  0  0  0  0  0  0  0  0  0  0  0
   -1.4759   62.4782   83.8546 C   0  0  0  0  0  0  0  0  0  0  0  0
   -1.5554   61.8383   85.0369 N   0  0  0  0  0  0  0  0  0  0  0  0
   -0.8893   62.3568   86.0755 C   0  0  0  0  0  0  0  0  0  0  0  0
   -0.9587   61.7226   87.3107 C   0  0  0  0  0  0  0  0  0  0  0  0
   -0.2864   62.2148   88.4343 C   0  0  0  0  0  0  0  0  0  0  0  0
    0.4786   63.3696   88.3312 C   0  0  0  0  0  0  0  0  0  0  0  0
    0.5643   64.0228   87.1050 C   0  0  0  0  0  0  0  0  0  0  0  0
   -0.1210   63.5177   85.9731 C   0  0  0  0  0  0  0  0  0  0  0  0
   -2.2110   61.9031   82.7082 C   0  0  0  0  0  0  0  0  0  0  0  0
   -2.4577   60.5193   82.6100 C   0  0  0  0  0  0  0  0  0  0  0  0
   -3.1555   59.9737   81.5273 C   0  0  0  0  0  0  0  0  0  0  0  0
   -3.6247   60.8020   80.5127 C   0  0  0  0  0  0  0  0  0  0  0  0
   -3.3962   62.1727   80.5798 C   0  0  0  0  0  0  0  0  0  0  0  0
   -2.6979   62.7142   81.6643 C   0  0  0  0  0  0  0  0  0  0  0  0
    0.6252   65.2576   84.5467 O   0  0  0  0  0  0  0  0  0  0  0  0
    1.0046   65.5560   83.2022 C   0  0  0  0  0  0  0  0  0  0  0  0
    3.1263   69.3065   82.9797 C   0  0  0  0  0  0  0  0  0  0  0  0
    3.1070   68.5853   84.1722 C   0  0  0  0  0  0  0  0  0  0  0  0
    2.4186   67.3734   84.2446 C   0  0  0  0  0  0  0  0  0  0  0  0
    1.7367   66.8749   83.1251 C   0  0  0  0  0  0  0  0  0  0  0  0
    1.7702   67.6046   81.9291 C   0  0  0  0  0  0  0  0  0  0  0  0
    2.4603   68.8155   81.8581 C   0  0  0  0  0  0  0  0  0  0  0  0
 19 20  2  0  0  0
 20 21  1  0  0  0
 21 22  2  0  0  0
 22 18  1  0  0  0
 18 17  1  0  0  0
 17  1  1  0  0  0
  1  2  1  0  0  0
  2  3  2  0  0  0
  3 11  1  0  0  0
 11 12  2  0  0  0
 12 13  1  0  0  0
 13 14  2  0  0  0
 14 15  1  0  0  0
 15 16  2  0  0  0
  3  4  1  0  0  0
  4  5  2  0  0  0
  5  6  1  0  0  0
  6  7  2  0  0  0
  7  8  1  0  0  0
  8  9  2  0  0  0
  9 10  1  0  0  0
 22 23  1  0  0  0
 23 24  2  0  0  0
 24 19  1  0  0  0
 10  1  2  0  0  0
 16 11  1  0  0  0
 10  5  1  0  0  0
M  END
> <minimizedAffinity>
-10.01490

$$$$



 24 27  0  0  0  0  0  0  0  0999 V2000
    1.0589   65.5205   83.5761 C   0  0  0  0  0  0  0  0  0  0  0  0
    0.9743   65.3687   82.2436 N   0  0  0  0  0  0  0  0  0  0  0  0
    0.3739   64.2490   81.8105 C   0  0  0  0  0  0  0  0  0  0  0  0
   -0.1490   63.3041   82.6152 N   0  0  0  0  0  0  0  0  0  0  0  0
   -0.0662   63.4922   83.9377 C   0  0  0  0  0  0  0  0  0  0  0  0
   -0.6040   62.5377   84.7936 C   0  0  0  0  0  0  0  0  0  0  0  0
   -0.5501   62.6765   86.1844 C   0  0  0  0  0  0  0  0  0  0  0  0
    0.0554   63.7940   86.7447 C   0  0  0  0  0  0  0  0  0  0  0  0
    0.6017   64.7637   85.9088 C   0  0  0  0  0  0  0  0  0  0  0  0
    0.5414   64.6153   84.5016 C   0  0  0  0  0  0  0  0  0  0  0  0
    0.2830   64.0387   80.3501 C   0  0  0  0  0  0  0  0  0  0  0  0
    0.2038   65.1225   79.4528 C   0  0  0  0  0  0  0  0  0  0  0  0
    0.1205   64.9254   78.0704 C   0  0  0  0  0  0  0  0  0  0  0  0
    0.1140   63.6352   77.5501 C   0  0  0  0  0  0  0  0  0  0  0  0
    0.1898   62.5440   78.4098 C   0  0  0  0  0  0  0  0  0  0  0  0
    0.2729   62.7454   79.7917 C   0  0  0  0  0  0  0  0  0  0  0  0
    1.6500   66.6672   84.0781 O   0  0  0  0  0  0  0  0  0  0  0  0
    3.0008   66.8778   83.6639 C   0  0  0  0  0  0  0  0  0  0  0  0
    5.7427   66.5103   86.9751 C   0  0  0  0  0  0  0  0  0  0  0  0
    5.1700   65.3705   86.4135 C   0  0  0  0  0  0  0  0  0  0  0  0
    4.2812   65.4897   85.3441 C   0  0  0  0  0  0  0  0  0  0  0  0
    3.9518   66.7525   84.8307 C   0  0  0  0  0  0  0  0  0  0  0  0
    4.5404   67.8908   85.3978 C   0  0  0  0  0  0  0  0  0  0  0  0
    5.4301   67.7696   86.4662 C   0  0  0  0  0  0  0  0  0  0  0  0
 19 20  2  0  0  0
 20 21  1  0  0  0
 21 22  2  0  0  0
 22 18  1  0  0  0
 18 17  1  0  0  0
 17  1  1  0  0  0
  1  2  1  0  0  0
  2  3  2  0  0  0
  3 11  1  0  0  0
 11 12  2  0  0  0
 12 13  1  0  0  0
 13 14  2  0  0  0
 14 15  1  0  0  0
 15 16  2  0  0  0
  3  4  1  0  0  0
  4  5  2  0  0  0
  5  6  1  0  0  0
  6  7  2  0  0  0
  7  8  1  0  0  0
  8  9  2  0  0  0
  9 10  1  0  0  0
 22 23  1  0  0  0
 23 24  2  0  0  0
 24 19  1  0  0  0
 10  1  2  0  0  0
 16 11  1  0  0  0
 10  5  1  0  0  0
M  END
> <minimizedAffinity>
-10.00504

$$$$



 24 27  0  0  0  0  0  0  0  0999 V2000
    0.3007   63.6347   82.4906 C   0  0  0  0  0  0  0  0  0  0  0  0
   -0.1543   63.3208   81.2658 N   0  0  0  0  0  0  0  0  0  0  0  0
   -0.1264   64.3038   80.3520 C   0  0  0  0  0  0  0  0  0  0  0  0
    0.3357   65.5473   80.5839 N   0  0  0  0  0  0  0  0  0  0  0  0
    0.7998   65.8247   81.8081 C   0  0  0  0  0  0  0  0  0  0  0  0
    1.2906   67.0976   82.0753 C   0  0  0  0  0  0  0  0  0  0  0  0
    1.7898   67.4495   83.3337 C   0  0  0  0  0  0  0  0  0  0  0  0
    1.8028   66.5124   84.3589 C   0  0  0  0  0  0  0  0  0  0  0  0
    1.3164   65.2308   84.1166 C   0  0  0  0  0  0  0  0  0  0  0  0
    0.8140   64.8833   82.8388 C   0  0  0  0  0  0  0  0  0  0  0  0
   -0.6402   63.9997   78.9996 C   0  0  0  0  0  0  0  0  0  0  0  0
   -1.3734   62.8255   78.7364 C   0  0  0  0  0  0  0  0  0  0  0  0
   -1.8627   62.5375   77.4579 C   0  0  0  0  0  0  0  0  0  0  0  0
   -1.6294   63.4200   76.4079 C   0  0  0  0  0  0  0  0  0  0  0  0
   -0.9078   64.5875   76.6353 C   0  0  0  0  0  0  0  0  0  0  0  0
   -0.4201   64.8717   77.9153 C   0  0  0  0  0  0  0  0  0  0  0  0
    0.3142   62.6528   83.4663 O   0  0  0  0  0  0  0  0  0  0  0  0
   -0.9755   62.1948   83.8759 C   0  0  0  0  0  0  0  0  0  0  0  0
   -1.7710   63.3104   87.9673 C   0  0  0  0  0  0  0  0  0  0  0  0
   -0.4642   63.3199   87.4829 C   0  0  0  0  0  0  0  0  0  0  0  0
   -0.2068   62.9566   86.1601 C   0  0  0  0  0  0  0  0  0  0  0  0
   -1.2552   62.5736   85.3110 C   0  0  0  0  0  0  0  0  0  0  0  0
   -2.5660   62.5761   85.8067 C   0  0  0  0  0  0  0  0  0  0  0  0
   -2.8217   62.9410   87.1293 C   0  0  0  0  0  0  0  0  0  0  0  0
 19 20  2  0  0  0
 20 21  1  0  0  0
 21 22  2  0  0  0
 22 18  1  0  0  0
 18 17  1  0  0  0
 17  1  1  0  0  0
  1  2  1  0  0  0
  2  3  2  0  0  0
  3 11  1  0  0  0
 11 12  2  0  0  0
 12 13  1  0  0  0
 13 14  2  0  0  0
 14 15  1  0  0  0
 15 16  2  0  0  0
  3  4  1  0  0  0
  4  5  2  0  0  0
  5  6  1  0  0  0
  6  7  2  0  0  0
  7  8  1  0  0  0
  8  9  2  0  0  0
  9 10  1  0  0  0
 22 23  1  0  0  0
 23 24  2  0  0  0
 24 19  1  0  0  0
 10  1  2  0  0  0
 16 11  1  0  0  0
 10  5  1  0  0  0
M  END
> <minimizedAffinity>
-10.00460

$$$$



 24 27  0  0  0  0  0  0  0  0999 V2000
   -0.0964   64.0735   84.7138 C   0  0  0  0  0  0  0  0  0  0  0  0
   -0.7660   63.5946   83.6517 N   0  0  0  0  0  0  0  0  0  0  0  0
   -1.4622   62.4640   83.8491 C   0  0  0  0  0  0  0  0  0  0  0  0
   -1.5384   61.8110   85.0244 N   0  0  0  0  0  0  0  0  0  0  0  0
   -0.8761   62.3224   86.0689 C   0  0  0  0  0  0  0  0  0  0  0  0
   -0.9423   61.6747   87.2972 C   0  0  0  0  0  0  0  0  0  0  0  0
   -0.2735   62.1589   88.4264 C   0  0  0  0  0  0  0  0  0  0  0  0
    0.4844   63.3193   88.3361 C   0  0  0  0  0  0  0  0  0  0  0  0
    0.5668   63.9861   87.1170 C   0  0  0  0  0  0  0  0  0  0  0  0
   -0.1147   63.4890   85.9794 C   0  0  0  0  0  0  0  0  0  0  0  0
   -2.1931   61.8968   82.6961 C   0  0  0  0  0  0  0  0  0  0  0  0
   -2.6759   62.7144   81.6548 C   0  0  0  0  0  0  0  0  0  0  0  0
   -3.3653   62.1790   80.5616 C   0  0  0  0  0  0  0  0  0  0  0  0
   -3.5897   60.8082   80.4834 C   0  0  0  0  0  0  0  0  0  0  0  0
   -3.1265   59.9743   81.4961 C   0  0  0  0  0  0  0  0  0  0  0  0
   -2.4376   60.5137   82.5877 C   0  0  0  0  0  0  0  0  0  0  0  0
    0.6216   65.2485   84.5721 O   0  0  0  0  0  0  0  0  0  0  0  0
    0.9986   65.5644   83.2309 C   0  0  0  0  0  0  0  0  0  0  0  0
    3.1187   69.3189   83.0694 C   0  0  0  0  0  0  0  0  0  0  0  0
    2.3957   68.8777   81.9626 C   0  0  0  0  0  0  0  0  0  0  0  0
    1.7120   67.6620   82.0142 C   0  0  0  0  0  0  0  0  0  0  0  0
    1.7512   66.8727   83.1727 C   0  0  0  0  0  0  0  0  0  0  0  0
    2.4745   67.3307   84.2823 C   0  0  0  0  0  0  0  0  0  0  0  0
    3.1563   68.5472   84.2295 C   0  0  0  0  0  0  0  0  0  0  0  0
 19 20  2  0  0  0
 20 21  1  0  0  0
 21 22  2  0  0  0
 22 18  1  0  0  0
 18 17  1  0  0  0
 17  1  1  0  0  0
  1  2  1  0  0  0
  2  3  2  0  0  0
  3 11  1  0  0  0
 11 12  2  0  0  0
 12 13  1  0  0  0
 13 14  2  0  0  0
 14 15  1  0  0  0
 15 16  2  0  0  0
  3  4  1  0  0  0
  4  5  2  0  0  0
  5  6  1  0  0  0
  6  7  2  0  0  0
  7  8  1  0  0  0
  8  9  2  0  0  0
  9 10  1  0  0  0
 22 23  1  0  0  0
 23 24  2  0  0  0
 24 19  1  0  0  0
 10  1  2  0  0  0
 16 11  1  0  0  0
 10  5  1  0  0  0
M  END
> <minimizedAffinity>
-10.00331

$$$$



 24 27  0  0  0  0  0  0  0  0999 V2000
    0.4294   63.8900   82.4999 C   0  0  0  0  0  0  0  0  0  0  0  0
   -0.0216   63.5226   81.2886 N   0  0  0  0  0  0  0  0  0  0  0  0
   -0.0027   64.4683   80.3361 C   0  0  0  0  0  0  0  0  0  0  0  0
    0.4468   65.7247   80.5179 N   0  0  0  0  0  0  0  0  0  0  0  0
    0.9074   66.0556   81.7302 C   0  0  0  0  0  0  0  0  0  0  0  0
    1.3853   67.3430   81.9461 C   0  0  0  0  0  0  0  0  0  0  0  0
    1.8802   67.7501   83.1895 C   0  0  0  0  0  0  0  0  0  0  0  0
    1.9017   66.8551   84.2515 C   0  0  0  0  0  0  0  0  0  0  0  0
    1.4282   65.5601   84.0608 C   0  0  0  0  0  0  0  0  0  0  0  0
    0.9301   65.1566   82.7979 C   0  0  0  0  0  0  0  0  0  0  0  0
   -0.5126   64.1051   78.9969 C   0  0  0  0  0  0  0  0  0  0  0  0
   -1.1559   62.8736   78.7621 C   0  0  0  0  0  0  0  0  0  0  0  0
   -1.6415   62.5294   77.4961 C   0  0  0  0  0  0  0  0  0  0  0  0
   -1.4944   63.4116   76.4304 C   0  0  0  0  0  0  0  0  0  0  0  0
   -0.8626   64.6350   76.6296 C   0  0  0  0  0  0  0  0  0  0  0  0
   -0.3784   64.9753   77.8972 C   0  0  0  0  0  0  0  0  0  0  0  0
    0.4520   62.9483   83.5143 O   0  0  0  0  0  0  0  0  0  0  0  0
   -0.8261   62.4198   83.8723 C   0  0  0  0  0  0  0  0  0  0  0  0
   -1.8035   63.3366   87.9736 C   0  0  0  0  0  0  0  0  0  0  0  0
   -2.7826   62.8340   87.1185 C   0  0  0  0  0  0  0  0  0  0  0  0
   -2.4669   62.5399   85.7912 C   0  0  0  0  0  0  0  0  0  0  0  0
   -1.1687   62.7526   85.3052 C   0  0  0  0  0  0  0  0  0  0  0  0
   -0.1904   63.2503   86.1765 C   0  0  0  0  0  0  0  0  0  0  0  0
   -0.5076   63.5425   87.5038 C   0  0  0  0  0  0  0  0  0  0  0  0
 19 20  2  0  0  0
 20 21  1  0  0  0
 21 22  2  0  0  0
 22 18  1  0  0  0
 18 17  1  0  0  0
 17  1  1  0  0  0
  1  2  1  0  0  0
  2  3  2  0  0  0
  3 11  1  0  0  0
 11 12  2  0  0  0
 12 13  1  0  0  0
 13 14  2  0  0  0
 14 15  1  0  0  0
 15 16  2  0  0  0
  3  4  1  0  0  0
  4  5  2  0  0  0
  5  6  1  0  0  0
  6  7  2  0  0  0
  7  8  1  0  0  0
  8  9  2  0  0  0
  9 10  1  0  0  0
 22 23  1  0  0  0
 23 24  2  0  0  0
 24 19  1  0  0  0
 10  1  2  0  0  0
 16 11  1  0  0  0
 10  5  1  0  0  0
M  END
> <minimizedAffinity>
-9.96700

$$$$



 24 27  0  0  0  0  0  0  0  0999 V2000
    2.9169   67.9153   83.9061 C   0  0  0  0  0  0  0  0  0  0  0  0
    2.2860   66.8590   84.4464 N   0  0  0  0  0  0  0  0  0  0  0  0
    1.3845   66.2428   83.6657 C   0  0  0  0  0  0  0  0  0  0  0  0
    1.0981   66.6041   82.4004 N   0  0  0  0  0  0  0  0  0  0  0  0
    1.7562   67.6484   81.8832 C   0  0  0  0  0  0  0  0  0  0  0  0
    1.4876   68.0400   80.5767 C   0  0  0  0  0  0  0  0  0  0  0  0
    2.1419   69.1222   79.9789 C   0  0  0  0  0  0  0  0  0  0  0  0
    3.0906   69.8388   80.6971 C   0  0  0  0  0  0  0  0  0  0  0  0
    3.3771   69.4665   82.0075 C   0  0  0  0  0  0  0  0  0  0  0  0
    2.7104   68.3686   82.6040 C   0  0  0  0  0  0  0  0  0  0  0  0
    0.6553   65.0901   84.2358 C   0  0  0  0  0  0  0  0  0  0  0  0
    0.7277   64.7776   85.6080 C   0  0  0  0  0  0  0  0  0  0  0  0
    0.0362   63.6889   86.1497 C   0  0  0  0  0  0  0  0  0  0  0  0
   -0.7470   62.8833   85.3291 C   0  0  0  0  0  0  0  0  0  0  0  0
   -0.8381   63.1650   83.9697 C   0  0  0  0  0  0  0  0  0  0  0  0
   -0.1449   64.2546   83.4320 C   0  0  0  0  0  0  0  0  0  0  0  0
    3.8721   68.5756   84.6597 O   0  0  0  0  0  0  0  0  0  0  0  0
    4.3620   67.8433   85.7843 C   0  0  0  0  0  0  0  0  0  0  0  0
    7.9688   65.7107   84.7550 C   0  0  0  0  0  0  0  0  0  0  0  0
    6.7473   65.0405   84.7880 C   0  0  0  0  0  0  0  0  0  0  0  0
    5.5810   65.7300   85.1234 C   0  0  0  0  0  0  0  0  0  0  0  0
    5.6277   67.0964   85.4357 C   0  0  0  0  0  0  0  0  0  0  0  0
    6.8604   67.7616   85.3909 C   0  0  0  0  0  0  0  0  0  0  0  0
    8.0253   67.0709   85.0539 C   0  0  0  0  0  0  0  0  0  0  0  0
 19 20  2  0  0  0
 20 21  1  0  0  0
 21 22  2  0  0  0
 22 18  1  0  0  0
 18 17  1  0  0  0
 17  1  1  0  0  0
  1  2  1  0  0  0
  2  3  2  0  0  0
  3 11  1  0  0  0
 11 12  2  0  0  0
 12 13  1  0  0  0
 13 14  2  0  0  0
 14 15  1  0  0  0
 15 16  2  0  0  0
  3  4  1  0  0  0
  4  5  2  0  0  0
  5  6  1  0  0  0
  6  7  2  0  0  0
  7  8  1  0  0  0
  8  9  2  0  0  0
  9 10  1  0  0  0
 22 23  1  0  0  0
 23 24  2  0  0  0
 24 19  1  0  0  0
 10  1  2  0  0  0
 16 11  1  0  0  0
 10  5  1  0  0  0
M  END
> <minimizedAffinity>
-9.82441

$$$$
