


 34 36  0  0  0  0  0  0  0  0999 V2000
    1.2736   66.0900   83.2907 C   0  0  0  0  0  0  0  0  0  0  0  0
    1.3980   66.4142   81.9347 C   0  0  0  0  0  0  0  0  0  0  0  0
    0.9206   65.5536   80.9375 C   0  0  0  0  0  0  0  0  0  0  0  0
    0.3080   64.3511   81.2724 C   0  0  0  0  0  0  0  0  0  0  0  0
    0.1777   64.0224   82.6253 C   0  0  0  0  0  0  0  0  0  0  0  0
    0.6501   64.8760   83.6435 C   0  0  0  0  0  0  0  0  0  0  0  0
    0.4460   64.4084   85.0570 C   0  0  0  0  0  0  0  0  0  0  0  0
   -0.7132   63.9849   85.4530 N   0  0  0  0  0  0  0  0  0  0  0  0
   -0.8618   63.5610   86.7572 C   0  0  0  0  0  0  0  0  0  0  0  0
    0.1354   63.5626   87.6667 C   0  0  0  0  0  0  0  0  0  0  0  0
    1.4615   64.0443   87.2009 C   0  0  0  0  0  0  0  0  0  0  0  0
    2.4483   64.0753   87.9291 O   0  0  0  0  0  0  0  0  0  0  0  0
    1.5169   64.4493   85.9047 N   0  0  0  0  0  0  0  0  0  0  0  0
    2.4153   64.7754   85.5731 H   0  0  0  0  0  0  0  0  0  0  0  0
   -2.2726   63.0944   87.0643 C   0  0  0  0  0  0  0  0  0  0  0  0
   -2.7632   62.0659   86.0531 C   0  0  0  0  0  0  0  0  0  0  0  0
    0.0594   63.1443   89.1109 C   0  0  0  0  0  0  0  0  0  0  0  0
    0.2270   61.6408   89.2784 C   0  0  0  0  0  0  0  0  0  0  0  0
   -0.1980   63.4274   80.3339 N   0  0  0  0  0  0  0  0  0  0  0  0
    0.1357   62.0841   80.2051 C   0  0  0  0  0  0  0  0  0  0  0  0
    0.9411   61.4759   80.9024 O   0  0  0  0  0  0  0  0  0  0  0  0
   -0.8799   63.7974   79.6820 H   0  0  0  0  0  0  0  0  0  0  0  0
   -0.6446   61.3996   79.0584 C   0  0  0  0  0  0  0  0  0  0  0  0
   -0.1172   61.9178   77.7099 C   0  0  0  0  0  0  0  0  0  0  0  0
   -1.3548   61.9856   76.8260 C   0  0  0  0  0  0  0  0  0  0  0  0
   -2.4478   62.3842   77.8007 C   0  0  0  0  0  0  0  0  0  0  0  0
   -2.0780   61.7071   79.0285 N   0  0  0  0  0  0  0  0  0  0  0  0
   -3.0421   61.2850   79.9170 C   0  0  0  0  0  0  0  0  0  0  0  0
   -2.5813   60.5182   81.1307 C   0  0  0  0  0  0  0  0  0  0  0  0
   -4.2394   61.5178   79.7473 O   0  0  0  0  0  0  0  0  0  0  0  0
    1.7276   66.8951   84.3038 O   0  0  0  0  0  0  0  0  0  0  0  0
    2.9932   67.5408   84.1428 C   0  0  0  0  0  0  0  0  0  0  0  0
    5.4264   67.2419   84.7866 C   0  0  0  0  0  0  0  0  0  0  0  0
    4.0970   66.5520   84.5133 C   0  0  0  0  0  0  0  0  0  0  0  0
 33 34  1  0  0  0
 34 32  1  0  0  0
 32 31  1  0  0  0
 31  1  1  0  0  0
  1  2  1  0  0  0
  2  3  2  0  0  0
  3  4  1  0  0  0
  4 19  1  0  0  0
 19 20  1  0  0  0
 20 21  2  0  0  0
 20 23  1  0  0  0
 23 24  1  0  0  0
 24 25  1  0  0  0
 25 26  1  0  0  0
 26 27  1  0  0  0
 27 28  1  0  0  0
 28 29  1  0  0  0
 28 30  2  0  0  0
  4  5  2  0  0  0
  5  6  1  0  0  0
  6  7  1  0  0  0
  7  8  2  0  0  0
  8  9  1  0  0  0
  9 15  1  0  0  0
 15 16  1  0  0  0
  9 10  2  0  0  0
 10 17  1  0  0  0
 17 18  1  0  0  0
 10 11  1  0  0  0
 11 12  2  0  0  0
 11 13  1  0  0  0
  6  1  2  0  0  0
 13  7  1  0  0  0
 27 23  1  0  0  0
 19 22  1  0  0  0
 13 14  1  0  0  0
M  END
> <minimizedAffinity>
-9.71754

$$$$



 34 36  0  0  0  0  0  0  0  0999 V2000
    0.0680   63.9195   85.4803 C   0  0  0  0  0  0  0  0  0  0  0  0
   -1.0483   63.1018   85.2691 C   0  0  0  0  0  0  0  0  0  0  0  0
   -1.5688   62.9047   83.9833 C   0  0  0  0  0  0  0  0  0  0  0  0
   -0.9857   63.5190   82.8805 C   0  0  0  0  0  0  0  0  0  0  0  0
    0.1316   64.3347   83.0840 C   0  0  0  0  0  0  0  0  0  0  0  0
    0.6713   64.5441   84.3699 C   0  0  0  0  0  0  0  0  0  0  0  0
    1.8749   65.4400   84.4528 C   0  0  0  0  0  0  0  0  0  0  0  0
    1.9565   66.5077   83.7225 N   0  0  0  0  0  0  0  0  0  0  0  0
    3.0756   67.3073   83.8278 C   0  0  0  0  0  0  0  0  0  0  0  0
    4.1124   67.0452   84.6511 C   0  0  0  0  0  0  0  0  0  0  0  0
    4.0061   65.8221   85.4880 C   0  0  0  0  0  0  0  0  0  0  0  0
    4.8751   65.4888   86.2872 O   0  0  0  0  0  0  0  0  0  0  0  0
    2.8746   65.0893   85.3157 N   0  0  0  0  0  0  0  0  0  0  0  0
    2.7872   64.2562   85.8830 H   0  0  0  0  0  0  0  0  0  0  0  0
    3.0196   68.5166   82.9128 C   0  0  0  0  0  0  0  0  0  0  0  0
    1.6878   68.6124   82.1793 C   0  0  0  0  0  0  0  0  0  0  0  0
    5.3788   67.8431   84.8128 C   0  0  0  0  0  0  0  0  0  0  0  0
    6.5881   67.1144   84.2443 C   0  0  0  0  0  0  0  0  0  0  0  0
   -1.4459   63.3765   81.5546 N   0  0  0  0  0  0  0  0  0  0  0  0
   -1.3063   62.2696   80.7254 C   0  0  0  0  0  0  0  0  0  0  0  0
   -0.7482   61.2182   81.0218 O   0  0  0  0  0  0  0  0  0  0  0  0
   -1.9295   64.1808   81.1722 H   0  0  0  0  0  0  0  0  0  0  0  0
   -1.9571   62.4960   79.3407 C   0  0  0  0  0  0  0  0  0  0  0  0
   -3.3958   61.9533   79.3648 C   0  0  0  0  0  0  0  0  0  0  0  0
   -3.6009   61.3763   77.9711 C   0  0  0  0  0  0  0  0  0  0  0  0
   -2.2289   60.8271   77.6249 C   0  0  0  0  0  0  0  0  0  0  0  0
   -1.3152   61.7702   78.2399 N   0  0  0  0  0  0  0  0  0  0  0  0
   -0.0798   62.0179   77.6837 C   0  0  0  0  0  0  0  0  0  0  0  0
    0.7791   63.0705   78.3377 C   0  0  0  0  0  0  0  0  0  0  0  0
    0.3283   61.4113   76.6927 O   0  0  0  0  0  0  0  0  0  0  0  0
    0.6127   64.1480   86.7180 O   0  0  0  0  0  0  0  0  0  0  0  0
   -0.2351   64.0370   87.8641 C   0  0  0  0  0  0  0  0  0  0  0  0
    0.1316   61.8634   89.1151 C   0  0  0  0  0  0  0  0  0  0  0  0
    0.5350   63.3247   88.9745 C   0  0  0  0  0  0  0  0  0  0  0  0
 33 34  1  0  0  0
 34 32  1  0  0  0
 32 31  1  0  0  0
 31  1  1  0  0  0
  1  2  1  0  0  0
  2  3  2  0  0  0
  3  4  1  0  0  0
  4 19  1  0  0  0
 19 20  1  0  0  0
 20 21  2  0  0  0
 20 23  1  0  0  0
 23 24  1  0  0  0
 24 25  1  0  0  0
 25 26  1  0  0  0
 26 27  1  0  0  0
 27 28  1  0  0  0
 28 29  1  0  0  0
 28 30  2  0  0  0
  4  5  2  0  0  0
  5  6  1  0  0  0
  6  7  1  0  0  0
  7  8  2  0  0  0
  8  9  1  0  0  0
  9 15  1  0  0  0
 15 16  1  0  0  0
  9 10  2  0  0  0
 10 17  1  0  0  0
 17 18  1  0  0  0
 10 11  1  0  0  0
 11 12  2  0  0  0
 11 13  1  0  0  0
  6  1  2  0  0  0
 13  7  1  0  0  0
 27 23  1  0  0  0
 19 22  1  0  0  0
 13 14  1  0  0  0
M  END
> <minimizedAffinity>
-9.64041

$$$$



 34 36  0  0  0  0  0  0  0  0999 V2000
    3.9548   66.4252   84.5432 C   0  0  0  0  0  0  0  0  0  0  0  0
    4.7567   67.5304   84.2351 C   0  0  0  0  0  0  0  0  0  0  0  0
    4.1895   68.7492   83.8404 C   0  0  0  0  0  0  0  0  0  0  0  0
    2.8095   68.8913   83.7456 C   0  0  0  0  0  0  0  0  0  0  0  0
    2.0025   67.7921   84.0549 C   0  0  0  0  0  0  0  0  0  0  0  0
    2.5542   66.5578   84.4557 C   0  0  0  0  0  0  0  0  0  0  0  0
    1.5785   65.4568   84.7627 C   0  0  0  0  0  0  0  0  0  0  0  0
    0.7887   64.9974   83.8434 N   0  0  0  0  0  0  0  0  0  0  0  0
   -0.0918   63.9844   84.1619 C   0  0  0  0  0  0  0  0  0  0  0  0
   -0.1917   63.4332   85.3899 C   0  0  0  0  0  0  0  0  0  0  0  0
    0.7222   63.9631   86.4346 C   0  0  0  0  0  0  0  0  0  0  0  0
    0.7381   63.5302   87.5824 O   0  0  0  0  0  0  0  0  0  0  0  0
    1.5509   64.9642   86.0369 N   0  0  0  0  0  0  0  0  0  0  0  0
    2.1820   65.3311   86.7373 H   0  0  0  0  0  0  0  0  0  0  0  0
   -0.9433   63.5558   82.9814 C   0  0  0  0  0  0  0  0  0  0  0  0
   -0.7171   64.4454   81.7654 C   0  0  0  0  0  0  0  0  0  0  0  0
   -1.1356   62.3473   85.8330 C   0  0  0  0  0  0  0  0  0  0  0  0
   -2.4698   62.9088   86.3034 C   0  0  0  0  0  0  0  0  0  0  0  0
    2.1570   70.0795   83.3550 N   0  0  0  0  0  0  0  0  0  0  0  0
    1.7033   70.4168   82.0852 C   0  0  0  0  0  0  0  0  0  0  0  0
    1.8010   69.7194   81.0807 O   0  0  0  0  0  0  0  0  0  0  0  0
    2.0103   70.7590   84.0924 H   0  0  0  0  0  0  0  0  0  0  0  0
    1.0272   71.8078   82.0608 C   0  0  0  0  0  0  0  0  0  0  0  0
   -0.4851   71.6298   81.8460 C   0  0  0  0  0  0  0  0  0  0  0  0
   -0.8800   72.8121   80.9721 C   0  0  0  0  0  0  0  0  0  0  0  0
    0.3373   73.0016   80.0855 C   0  0  0  0  0  0  0  0  0  0  0  0
    1.4506   72.6715   80.9539 N   0  0  0  0  0  0  0  0  0  0  0  0
    2.6753   73.2800   80.7900 C   0  0  0  0  0  0  0  0  0  0  0  0
    3.7583   72.9420   81.7831 C   0  0  0  0  0  0  0  0  0  0  0  0
    2.8992   74.0697   79.8719 O   0  0  0  0  0  0  0  0  0  0  0  0
    4.4604   65.2104   84.9298 O   0  0  0  0  0  0  0  0  0  0  0  0
    5.4829   65.1873   85.9291 C   0  0  0  0  0  0  0  0  0  0  0  0
    5.6739   65.5196   88.4345 C   0  0  0  0  0  0  0  0  0  0  0  0
    4.8290   64.9717   87.2926 C   0  0  0  0  0  0  0  0  0  0  0  0
 33 34  1  0  0  0
 34 32  1  0  0  0
 32 31  1  0  0  0
 31  1  1  0  0  0
  1  2  1  0  0  0
  2  3  2  0  0  0
  3  4  1  0  0  0
  4 19  1  0  0  0
 19 20  1  0  0  0
 20 21  2  0  0  0
 20 23  1  0  0  0
 23 24  1  0  0  0
 24 25  1  0  0  0
 25 26  1  0  0  0
 26 27  1  0  0  0
 27 28  1  0  0  0
 28 29  1  0  0  0
 28 30  2  0  0  0
  4  5  2  0  0  0
  5  6  1  0  0  0
  6  7  1  0  0  0
  7  8  2  0  0  0
  8  9  1  0  0  0
  9 15  1  0  0  0
 15 16  1  0  0  0
  9 10  2  0  0  0
 10 17  1  0  0  0
 17 18  1  0  0  0
 10 11  1  0  0  0
 11 12  2  0  0  0
 11 13  1  0  0  0
  6  1  2  0  0  0
 13  7  1  0  0  0
 27 23  1  0  0  0
 19 22  1  0  0  0
 13 14  1  0  0  0
M  END
> <minimizedAffinity>
-9.54544

$$$$



 34 36  0  0  0  0  0  0  0  0999 V2000
    0.3489   63.9993   84.9499 C   0  0  0  0  0  0  0  0  0  0  0  0
   -0.1320   62.6863   85.0144 C   0  0  0  0  0  0  0  0  0  0  0  0
   -0.2868   61.9139   83.8558 C   0  0  0  0  0  0  0  0  0  0  0  0
    0.0358   62.4352   82.6078 C   0  0  0  0  0  0  0  0  0  0  0  0
    0.5196   63.7452   82.5364 C   0  0  0  0  0  0  0  0  0  0  0  0
    0.6842   64.5378   83.6911 C   0  0  0  0  0  0  0  0  0  0  0  0
    1.2154   65.9274   83.4788 C   0  0  0  0  0  0  0  0  0  0  0  0
    0.8254   66.6374   82.4670 N   0  0  0  0  0  0  0  0  0  0  0  0
    1.3330   67.9100   82.3064 C   0  0  0  0  0  0  0  0  0  0  0  0
    2.2286   68.4737   83.1441 C   0  0  0  0  0  0  0  0  0  0  0  0
    2.6644   67.6535   84.3038 C   0  0  0  0  0  0  0  0  0  0  0  0
    3.4595   68.0633   85.1435 O   0  0  0  0  0  0  0  0  0  0  0  0
    2.1207   66.4104   84.3812 N   0  0  0  0  0  0  0  0  0  0  0  0
    2.4053   65.8428   85.1688 H   0  0  0  0  0  0  0  0  0  0  0  0
    0.7787   68.6112   81.0802 C   0  0  0  0  0  0  0  0  0  0  0  0
   -0.3375   67.8089   80.4234 C   0  0  0  0  0  0  0  0  0  0  0  0
    2.8531   69.8392   83.0343 C   0  0  0  0  0  0  0  0  0  0  0  0
    3.8581   69.9162   81.8939 C   0  0  0  0  0  0  0  0  0  0  0  0
   -0.0914   61.7288   81.3934 N   0  0  0  0  0  0  0  0  0  0  0  0
   -0.9851   61.9798   80.3588 C   0  0  0  0  0  0  0  0  0  0  0  0
   -1.8237   62.8749   80.3377 O   0  0  0  0  0  0  0  0  0  0  0  0
    0.5449   60.9492   81.2738 H   0  0  0  0  0  0  0  0  0  0  0  0
   -0.8074   60.9885   79.1849 C   0  0  0  0  0  0  0  0  0  0  0  0
    0.0501   61.6489   78.0925 C   0  0  0  0  0  0  0  0  0  0  0  0
   -0.5457   61.1361   76.7888 C   0  0  0  0  0  0  0  0  0  0  0  0
   -2.0263   61.0357   77.1075 C   0  0  0  0  0  0  0  0  0  0  0  0
   -2.0521   60.6274   78.4987 N   0  0  0  0  0  0  0  0  0  0  0  0
   -3.0777   59.8465   78.9839 C   0  0  0  0  0  0  0  0  0  0  0  0
   -2.9904   59.3978   80.4207 C   0  0  0  0  0  0  0  0  0  0  0  0
   -4.0401   59.5193   78.2886 O   0  0  0  0  0  0  0  0  0  0  0  0
    0.5145   64.7974   86.0528 O   0  0  0  0  0  0  0  0  0  0  0  0
   -0.0744   64.3804   87.2873 C   0  0  0  0  0  0  0  0  0  0  0  0
    0.3834   62.5741   89.0054 C   0  0  0  0  0  0  0  0  0  0  0  0
    0.9843   63.6504   88.1118 C   0  0  0  0  0  0  0  0  0  0  0  0
 33 34  1  0  0  0
 34 32  1  0  0  0
 32 31  1  0  0  0
 31  1  1  0  0  0
  1  2  1  0  0  0
  2  3  2  0  0  0
  3  4  1  0  0  0
  4 19  1  0  0  0
 19 20  1  0  0  0
 20 21  2  0  0  0
 20 23  1  0  0  0
 23 24  1  0  0  0
 24 25  1  0  0  0
 25 26  1  0  0  0
 26 27  1  0  0  0
 27 28  1  0  0  0
 28 29  1  0  0  0
 28 30  2  0  0  0
  4  5  2  0  0  0
  5  6  1  0  0  0
  6  7  1  0  0  0
  7  8  2  0  0  0
  8  9  1  0  0  0
  9 15  1  0  0  0
 15 16  1  0  0  0
  9 10  2  0  0  0
 10 17  1  0  0  0
 17 18  1  0  0  0
 10 11  1  0  0  0
 11 12  2  0  0  0
 11 13  1  0  0  0
  6  1  2  0  0  0
 13  7  1  0  0  0
 27 23  1  0  0  0
 19 22  1  0  0  0
 13 14  1  0  0  0
M  END
> <minimizedAffinity>
-9.46419

$$$$



 34 36  0  0  0  0  0  0  0  0999 V2000
   -0.0831   63.0778   85.2119 C   0  0  0  0  0  0  0  0  0  0  0  0
    0.5325   64.0661   85.9888 C   0  0  0  0  0  0  0  0  0  0  0  0
    0.9964   65.2559   85.4125 C   0  0  0  0  0  0  0  0  0  0  0  0
    0.8550   65.4852   84.0483 C   0  0  0  0  0  0  0  0  0  0  0  0
    0.2382   64.5033   83.2668 C   0  0  0  0  0  0  0  0  0  0  0  0
   -0.2368   63.3002   83.8284 C   0  0  0  0  0  0  0  0  0  0  0  0
   -0.8829   62.3287   82.8812 C   0  0  0  0  0  0  0  0  0  0  0  0
   -0.4495   62.2016   81.6663 N   0  0  0  0  0  0  0  0  0  0  0  0
   -1.0660   61.2977   80.8264 C   0  0  0  0  0  0  0  0  0  0  0  0
   -2.1125   60.5264   81.1894 C   0  0  0  0  0  0  0  0  0  0  0  0
   -2.5975   60.6757   82.5858 C   0  0  0  0  0  0  0  0  0  0  0  0
   -3.5286   60.0169   83.0377 O   0  0  0  0  0  0  0  0  0  0  0  0
   -1.9382   61.5929   83.3416 N   0  0  0  0  0  0  0  0  0  0  0  0
   -2.2553   61.7013   84.2961 H   0  0  0  0  0  0  0  0  0  0  0  0
   -0.4433   61.2645   79.4431 C   0  0  0  0  0  0  0  0  0  0  0  0
    0.4434   62.4773   79.1903 C   0  0  0  0  0  0  0  0  0  0  0  0
   -2.8605   59.5362   80.3371 C   0  0  0  0  0  0  0  0  0  0  0  0
   -3.8248   60.2220   79.3799 C   0  0  0  0  0  0  0  0  0  0  0  0
    1.2945   66.6516   83.3878 N   0  0  0  0  0  0  0  0  0  0  0  0
    2.6044   67.0853   83.2192 C   0  0  0  0  0  0  0  0  0  0  0  0
    3.6079   66.5098   83.6277 O   0  0  0  0  0  0  0  0  0  0  0  0
    0.5625   67.2340   82.9981 H   0  0  0  0  0  0  0  0  0  0  0  0
    2.6794   68.4115   82.4269 C   0  0  0  0  0  0  0  0  0  0  0  0
    2.7426   69.5872   83.4162 C   0  0  0  0  0  0  0  0  0  0  0  0
    1.9349   70.6871   82.7414 C   0  0  0  0  0  0  0  0  0  0  0  0
    0.8411   69.9157   82.0255 C   0  0  0  0  0  0  0  0  0  0  0  0
    1.5007   68.6958   81.6021 N   0  0  0  0  0  0  0  0  0  0  0  0
    1.1097   68.0474   80.4516 C   0  0  0  0  0  0  0  0  0  0  0  0
    1.8975   66.8305   80.0370 C   0  0  0  0  0  0  0  0  0  0  0  0
    0.1537   68.4283   79.7750 O   0  0  0  0  0  0  0  0  0  0  0  0
   -0.5500   61.8954   85.7264 O   0  0  0  0  0  0  0  0  0  0  0  0
   -0.9933   61.8742   87.0857 C   0  0  0  0  0  0  0  0  0  0  0  0
   -3.0472   63.3594   87.0832 C   0  0  0  0  0  0  0  0  0  0  0  0
   -2.5197   61.9313   87.1029 C   0  0  0  0  0  0  0  0  0  0  0  0
 33 34  1  0  0  0
 34 32  1  0  0  0
 32 31  1  0  0  0
 31  1  1  0  0  0
  1  2  1  0  0  0
  2  3  2  0  0  0
  3  4  1  0  0  0
  4 19  1  0  0  0
 19 20  1  0  0  0
 20 21  2  0  0  0
 20 23  1  0  0  0
 23 24  1  0  0  0
 24 25  1  0  0  0
 25 26  1  0  0  0
 26 27  1  0  0  0
 27 28  1  0  0  0
 28 29  1  0  0  0
 28 30  2  0  0  0
  4  5  2  0  0  0
  5  6  1  0  0  0
  6  7  1  0  0  0
  7  8  2  0  0  0
  8  9  1  0  0  0
  9 15  1  0  0  0
 15 16  1  0  0  0
  9 10  2  0  0  0
 10 17  1  0  0  0
 17 18  1  0  0  0
 10 11  1  0  0  0
 11 12  2  0  0  0
 11 13  1  0  0  0
  6  1  2  0  0  0
 13  7  1  0  0  0
 27 23  1  0  0  0
 19 22  1  0  0  0
 13 14  1  0  0  0
M  END
> <minimizedAffinity>
-9.44027

$$$$



 34 36  0  0  0  0  0  0  0  0999 V2000
    1.5539   66.0612   83.3155 C   0  0  0  0  0  0  0  0  0  0  0  0
    1.6210   66.4424   81.9703 C   0  0  0  0  0  0  0  0  0  0  0  0
    0.8660   65.7823   80.9919 C   0  0  0  0  0  0  0  0  0  0  0  0
    0.0270   64.7280   81.3354 C   0  0  0  0  0  0  0  0  0  0  0  0
   -0.0471   64.3440   82.6779 C   0  0  0  0  0  0  0  0  0  0  0  0
    0.7034   64.9969   83.6773 C   0  0  0  0  0  0  0  0  0  0  0  0
    0.5315   64.4902   85.0816 C   0  0  0  0  0  0  0  0  0  0  0  0
   -0.6104   64.0259   85.4823 N   0  0  0  0  0  0  0  0  0  0  0  0
   -0.7295   63.5671   86.7777 C   0  0  0  0  0  0  0  0  0  0  0  0
    0.2797   63.5741   87.6739 C   0  0  0  0  0  0  0  0  0  0  0  0
    1.5858   64.1029   87.2025 C   0  0  0  0  0  0  0  0  0  0  0  0
    2.5813   64.1433   87.9183 O   0  0  0  0  0  0  0  0  0  0  0  0
    1.6124   64.5401   85.9160 N   0  0  0  0  0  0  0  0  0  0  0  0
    2.4971   64.8984   85.5806 H   0  0  0  0  0  0  0  0  0  0  0  0
   -2.1229   63.0549   87.0919 C   0  0  0  0  0  0  0  0  0  0  0  0
   -2.8079   62.4801   85.8585 C   0  0  0  0  0  0  0  0  0  0  0  0
    0.2349   63.1195   89.1083 C   0  0  0  0  0  0  0  0  0  0  0  0
    0.3145   61.6043   89.2288 C   0  0  0  0  0  0  0  0  0  0  0  0
   -0.7647   64.0090   80.4155 N   0  0  0  0  0  0  0  0  0  0  0  0
   -0.9221   62.6304   80.3317 C   0  0  0  0  0  0  0  0  0  0  0  0
   -0.3853   61.8024   81.0605 O   0  0  0  0  0  0  0  0  0  0  0  0
   -1.2696   64.5723   79.7411 H   0  0  0  0  0  0  0  0  0  0  0  0
   -1.8857   62.2243   79.1920 C   0  0  0  0  0  0  0  0  0  0  0  0
   -3.0733   61.4498   79.7875 C   0  0  0  0  0  0  0  0  0  0  0  0
   -3.3940   60.3937   78.7391 C   0  0  0  0  0  0  0  0  0  0  0  0
   -2.0270   60.0426   78.1804 C   0  0  0  0  0  0  0  0  0  0  0  0
   -1.3101   61.3028   78.2071 N   0  0  0  0  0  0  0  0  0  0  0  0
   -0.3408   61.5809   77.2690 C   0  0  0  0  0  0  0  0  0  0  0  0
    0.3020   62.9440   77.3160 C   0  0  0  0  0  0  0  0  0  0  0  0
    0.0052   60.7603   76.4184 O   0  0  0  0  0  0  0  0  0  0  0  0
    2.2750   66.6715   84.3096 O   0  0  0  0  0  0  0  0  0  0  0  0
    2.3122   68.1005   84.3422 C   0  0  0  0  0  0  0  0  0  0  0  0
    3.7008   69.4581   82.7135 C   0  0  0  0  0  0  0  0  0  0  0  0
    3.7129   68.5622   83.9444 C   0  0  0  0  0  0  0  0  0  0  0  0
 33 34  1  0  0  0
 34 32  1  0  0  0
 32 31  1  0  0  0
 31  1  1  0  0  0
  1  2  1  0  0  0
  2  3  2  0  0  0
  3  4  1  0  0  0
  4 19  1  0  0  0
 19 20  1  0  0  0
 20 21  2  0  0  0
 20 23  1  0  0  0
 23 24  1  0  0  0
 24 25  1  0  0  0
 25 26  1  0  0  0
 26 27  1  0  0  0
 27 28  1  0  0  0
 28 29  1  0  0  0
 28 30  2  0  0  0
  4  5  2  0  0  0
  5  6  1  0  0  0
  6  7  1  0  0  0
  7  8  2  0  0  0
  8  9  1  0  0  0
  9 15  1  0  0  0
 15 16  1  0  0  0
  9 10  2  0  0  0
 10 17  1  0  0  0
 17 18  1  0  0  0
 10 11  1  0  0  0
 11 12  2  0  0  0
 11 13  1  0  0  0
  6  1  2  0  0  0
 13  7  1  0  0  0
 27 23  1  0  0  0
 19 22  1  0  0  0
 13 14  1  0  0  0
M  END
> <minimizedAffinity>
-9.40553

$$$$



 34 36  0  0  0  0  0  0  0  0999 V2000
    0.1032   63.6775   83.8731 C   0  0  0  0  0  0  0  0  0  0  0  0
    0.7300   64.5346   84.7851 C   0  0  0  0  0  0  0  0  0  0  0  0
    1.1795   65.8032   84.3956 C   0  0  0  0  0  0  0  0  0  0  0  0
    1.0122   66.2438   83.0874 C   0  0  0  0  0  0  0  0  0  0  0  0
    0.3841   65.3938   82.1719 C   0  0  0  0  0  0  0  0  0  0  0  0
   -0.0768   64.1143   82.5450 C   0  0  0  0  0  0  0  0  0  0  0  0
   -0.7372   63.3005   81.4681 C   0  0  0  0  0  0  0  0  0  0  0  0
   -0.1533   63.1170   80.3255 N   0  0  0  0  0  0  0  0  0  0  0  0
   -0.7892   62.3618   79.3621 C   0  0  0  0  0  0  0  0  0  0  0  0
   -2.0027   61.7953   79.5302 C   0  0  0  0  0  0  0  0  0  0  0  0
   -2.6605   62.0070   80.8455 C   0  0  0  0  0  0  0  0  0  0  0  0
   -3.7549   61.5275   81.1236 O   0  0  0  0  0  0  0  0  0  0  0  0
   -1.9677   62.7687   81.7326 N   0  0  0  0  0  0  0  0  0  0  0  0
   -2.4022   62.9169   82.6342 H   0  0  0  0  0  0  0  0  0  0  0  0
    0.0216   62.2378   78.0855 C   0  0  0  0  0  0  0  0  0  0  0  0
   -0.1737   63.4397   77.1699 C   0  0  0  0  0  0  0  0  0  0  0  0
   -2.7801   60.9806   78.5311 C   0  0  0  0  0  0  0  0  0  0  0  0
   -3.5747   61.8584   77.5747 C   0  0  0  0  0  0  0  0  0  0  0  0
    1.4357   67.5024   82.6114 N   0  0  0  0  0  0  0  0  0  0  0  0
    1.9994   67.7927   81.3744 C   0  0  0  0  0  0  0  0  0  0  0  0
    2.2231   66.9823   80.4810 O   0  0  0  0  0  0  0  0  0  0  0  0
    1.3130   68.2757   83.2548 H   0  0  0  0  0  0  0  0  0  0  0  0
    2.3216   69.2978   81.2221 C   0  0  0  0  0  0  0  0  0  0  0  0
    3.5461   69.6414   82.0865 C   0  0  0  0  0  0  0  0  0  0  0  0
    3.2537   71.0411   82.6090 C   0  0  0  0  0  0  0  0  0  0  0  0
    1.7481   71.0254   82.7999 C   0  0  0  0  0  0  0  0  0  0  0  0
    1.2712   70.1979   81.7088 N   0  0  0  0  0  0  0  0  0  0  0  0
    0.0342   70.4205   81.1455 C   0  0  0  0  0  0  0  0  0  0  0  0
   -0.3551   69.5694   79.9634 C   0  0  0  0  0  0  0  0  0  0  0  0
   -0.7408   71.2743   81.5779 O   0  0  0  0  0  0  0  0  0  0  0  0
   -0.3504   62.4260   84.2029 O   0  0  0  0  0  0  0  0  0  0  0  0
   -0.8297   62.2057   85.5319 C   0  0  0  0  0  0  0  0  0  0  0  0
   -2.7716   62.9499   86.9809 C   0  0  0  0  0  0  0  0  0  0  0  0
   -2.3142   62.5620   85.5814 C   0  0  0  0  0  0  0  0  0  0  0  0
 33 34  1  0  0  0
 34 32  1  0  0  0
 32 31  1  0  0  0
 31  1  1  0  0  0
  1  2  1  0  0  0
  2  3  2  0  0  0
  3  4  1  0  0  0
  4 19  1  0  0  0
 19 20  1  0  0  0
 20 21  2  0  0  0
 20 23  1  0  0  0
 23 24  1  0  0  0
 24 25  1  0  0  0
 25 26  1  0  0  0
 26 27  1  0  0  0
 27 28  1  0  0  0
 28 29  1  0  0  0
 28 30  2  0  0  0
  4  5  2  0  0  0
  5  6  1  0  0  0
  6  7  1  0  0  0
  7  8  2  0  0  0
  8  9  1  0  0  0
  9 15  1  0  0  0
 15 16  1  0  0  0
  9 10  2  0  0  0
 10 17  1  0  0  0
 17 18  1  0  0  0
 10 11  1  0  0  0
 11 12  2  0  0  0
 11 13  1  0  0  0
  6  1  2  0  0  0
 13  7  1  0  0  0
 27 23  1  0  0  0
 19 22  1  0  0  0
 13 14  1  0  0  0
M  END
> <minimizedAffinity>
-9.30472

$$$$



 34 36  0  0  0  0  0  0  0  0999 V2000
    4.2246   66.3179   84.8351 C   0  0  0  0  0  0  0  0  0  0  0  0
    5.1154   67.3710   84.5968 C   0  0  0  0  0  0  0  0  0  0  0  0
    4.7176   68.5084   83.8820 C   0  0  0  0  0  0  0  0  0  0  0  0
    3.4216   68.6196   83.3905 C   0  0  0  0  0  0  0  0  0  0  0  0
    2.5257   67.5726   83.6276 C   0  0  0  0  0  0  0  0  0  0  0  0
    2.9065   66.4206   84.3462 C   0  0  0  0  0  0  0  0  0  0  0  0
    1.8490   65.3696   84.5350 C   0  0  0  0  0  0  0  0  0  0  0  0
    1.1915   64.9028   83.5202 N   0  0  0  0  0  0  0  0  0  0  0  0
    0.2300   63.9368   83.7321 C   0  0  0  0  0  0  0  0  0  0  0  0
   -0.0816   63.4397   84.9476 C   0  0  0  0  0  0  0  0  0  0  0  0
    0.6820   63.9773   86.1032 C   0  0  0  0  0  0  0  0  0  0  0  0
    0.5022   63.5908   87.2535 O   0  0  0  0  0  0  0  0  0  0  0  0
    1.6042   64.9302   85.8054 N   0  0  0  0  0  0  0  0  0  0  0  0
    2.1347   65.3016   86.5826 H   0  0  0  0  0  0  0  0  0  0  0  0
   -0.4468   63.4925   82.4487 C   0  0  0  0  0  0  0  0  0  0  0  0
   -0.7514   64.6696   81.5306 C   0  0  0  0  0  0  0  0  0  0  0  0
   -1.1281   62.4081   85.2752 C   0  0  0  0  0  0  0  0  0  0  0  0
   -2.4770   63.0424   85.5830 C   0  0  0  0  0  0  0  0  0  0  0  0
    2.9397   69.7265   82.6607 N   0  0  0  0  0  0  0  0  0  0  0  0
    2.7332   69.8097   81.2886 C   0  0  0  0  0  0  0  0  0  0  0  0
    2.9423   68.9139   80.4770 O   0  0  0  0  0  0  0  0  0  0  0  0
    2.7257   70.5510   83.2098 H   0  0  0  0  0  0  0  0  0  0  0  0
    2.1828   71.1924   80.8672 C   0  0  0  0  0  0  0  0  0  0  0  0
    3.1988   72.2794   81.2558 C   0  0  0  0  0  0  0  0  0  0  0  0
    2.3378   73.4625   81.6757 C   0  0  0  0  0  0  0  0  0  0  0  0
    1.1414   72.7972   82.3311 C   0  0  0  0  0  0  0  0  0  0  0  0
    0.9479   71.5905   81.5505 N   0  0  0  0  0  0  0  0  0  0  0  0
   -0.3099   71.0550   81.3830 C   0  0  0  0  0  0  0  0  0  0  0  0
   -0.4378   69.8455   80.4919 C   0  0  0  0  0  0  0  0  0  0  0  0
   -1.3044   71.5282   81.9340 O   0  0  0  0  0  0  0  0  0  0  0  0
    4.5655   65.1825   85.5246 O   0  0  0  0  0  0  0  0  0  0  0  0
    5.5646   65.2806   86.5428 C   0  0  0  0  0  0  0  0  0  0  0  0
    5.8005   65.4606   89.0600 C   0  0  0  0  0  0  0  0  0  0  0  0
    4.9032   65.0506   87.9004 C   0  0  0  0  0  0  0  0  0  0  0  0
 33 34  1  0  0  0
 34 32  1  0  0  0
 32 31  1  0  0  0
 31  1  1  0  0  0
  1  2  1  0  0  0
  2  3  2  0  0  0
  3  4  1  0  0  0
  4 19  1  0  0  0
 19 20  1  0  0  0
 20 21  2  0  0  0
 20 23  1  0  0  0
 23 24  1  0  0  0
 24 25  1  0  0  0
 25 26  1  0  0  0
 26 27  1  0  0  0
 27 28  1  0  0  0
 28 29  1  0  0  0
 28 30  2  0  0  0
  4  5  2  0  0  0
  5  6  1  0  0  0
  6  7  1  0  0  0
  7  8  2  0  0  0
  8  9  1  0  0  0
  9 15  1  0  0  0
 15 16  1  0  0  0
  9 10  2  0  0  0
 10 17  1  0  0  0
 17 18  1  0  0  0
 10 11  1  0  0  0
 11 12  2  0  0  0
 11 13  1  0  0  0
  6  1  2  0  0  0
 13  7  1  0  0  0
 27 23  1  0  0  0
 19 22  1  0  0  0
 13 14  1  0  0  0
M  END
> <minimizedAffinity>
-9.29307

$$$$



 34 36  0  0  0  0  0  0  0  0999 V2000
    0.2798   63.9387   84.9614 C   0  0  0  0  0  0  0  0  0  0  0  0
   -0.3388   62.6831   84.9645 C   0  0  0  0  0  0  0  0  0  0  0  0
   -0.4791   61.9418   83.7839 C   0  0  0  0  0  0  0  0  0  0  0  0
   -0.0039   62.4376   82.5748 C   0  0  0  0  0  0  0  0  0  0  0  0
    0.6179   63.6900   82.5650 C   0  0  0  0  0  0  0  0  0  0  0  0
    0.7702   64.4503   83.7428 C   0  0  0  0  0  0  0  0  0  0  0  0
    1.4587   65.7781   83.5978 C   0  0  0  0  0  0  0  0  0  0  0  0
    2.5610   66.0247   84.2337 N   0  0  0  0  0  0  0  0  0  0  0  0
    3.1658   67.2541   84.0737 C   0  0  0  0  0  0  0  0  0  0  0  0
    2.6755   68.2372   83.2896 C   0  0  0  0  0  0  0  0  0  0  0  0
    1.4148   67.9420   82.5608 C   0  0  0  0  0  0  0  0  0  0  0  0
    0.8825   68.7482   81.8047 O   0  0  0  0  0  0  0  0  0  0  0  0
    0.8835   66.7108   82.7815 N   0  0  0  0  0  0  0  0  0  0  0  0
    0.0273   66.4948   82.2877 H   0  0  0  0  0  0  0  0  0  0  0  0
    4.4448   67.3869   84.8793 C   0  0  0  0  0  0  0  0  0  0  0  0
    5.3042   66.1321   84.7912 C   0  0  0  0  0  0  0  0  0  0  0  0
    3.2510   69.6117   83.0754 C   0  0  0  0  0  0  0  0  0  0  0  0
    3.9885   69.7205   81.7485 C   0  0  0  0  0  0  0  0  0  0  0  0
   -0.1053   61.7595   81.3419 N   0  0  0  0  0  0  0  0  0  0  0  0
   -1.0574   61.9509   80.3474 C   0  0  0  0  0  0  0  0  0  0  0  0
   -1.9810   62.7575   80.3854 O   0  0  0  0  0  0  0  0  0  0  0  0
    0.6004   61.0518   81.1743 H   0  0  0  0  0  0  0  0  0  0  0  0
   -0.8258   61.0189   79.1349 C   0  0  0  0  0  0  0  0  0  0  0  0
    0.0690   61.7367   78.1107 C   0  0  0  0  0  0  0  0  0  0  0  0
   -0.4709   61.2845   76.7611 C   0  0  0  0  0  0  0  0  0  0  0  0
   -1.9621   61.1600   77.0155 C   0  0  0  0  0  0  0  0  0  0  0  0
   -2.0396   60.6844   78.3831 N   0  0  0  0  0  0  0  0  0  0  0  0
   -3.0774   59.8749   78.7888 C   0  0  0  0  0  0  0  0  0  0  0  0
   -3.0434   59.3574   80.2045 C   0  0  0  0  0  0  0  0  0  0  0  0
   -4.0091   59.5763   78.0408 O   0  0  0  0  0  0  0  0  0  0  0  0
    0.4379   64.7049   86.0877 O   0  0  0  0  0  0  0  0  0  0  0  0
   -0.1622   64.2547   87.3051 C   0  0  0  0  0  0  0  0  0  0  0  0
    0.3393   62.4896   89.0536 C   0  0  0  0  0  0  0  0  0  0  0  0
    0.9105   63.5810   88.1587 C   0  0  0  0  0  0  0  0  0  0  0  0
 33 34  1  0  0  0
 34 32  1  0  0  0
 32 31  1  0  0  0
 31  1  1  0  0  0
  1  2  1  0  0  0
  2  3  2  0  0  0
  3  4  1  0  0  0
  4 19  1  0  0  0
 19 20  1  0  0  0
 20 21  2  0  0  0
 20 23  1  0  0  0
 23 24  1  0  0  0
 24 25  1  0  0  0
 25 26  1  0  0  0
 26 27  1  0  0  0
 27 28  1  0  0  0
 28 29  1  0  0  0
 28 30  2  0  0  0
  4  5  2  0  0  0
  5  6  1  0  0  0
  6  7  1  0  0  0
  7  8  2  0  0  0
  8  9  1  0  0  0
  9 15  1  0  0  0
 15 16  1  0  0  0
  9 10  2  0  0  0
 10 17  1  0  0  0
 17 18  1  0  0  0
 10 11  1  0  0  0
 11 12  2  0  0  0
 11 13  1  0  0  0
  6  1  2  0  0  0
 13  7  1  0  0  0
 27 23  1  0  0  0
 19 22  1  0  0  0
 13 14  1  0  0  0
M  END
> <minimizedAffinity>
-9.17198

$$$$
