


 23 25  0  0  0  0  0  0  0  0999 V2000
    1.3645   65.4153   84.5874 C   0  0  0  0  0  0  0  0  0  0  0  0
    0.8934   64.5397   83.7398 N   0  0  0  0  0  0  0  0  0  0  0  0
    0.1146   63.5906   84.3165 C   0  0  0  0  0  0  0  0  0  0  0  0
   -0.2131   63.4671   85.6440 C   0  0  0  0  0  0  0  0  0  0  0  0
   -1.0289   62.3257   85.7388 C   0  0  0  0  0  0  0  0  0  0  0  0
   -1.6497   61.7475   86.9540 C   0  0  0  0  0  0  0  0  0  0  0  0
   -1.2100   61.7573   84.5347 N   0  0  0  0  0  0  0  0  0  0  0  0
   -0.5050   62.5478   83.6883 N   0  0  0  0  0  0  0  0  0  0  0  0
   -0.4737   62.2272   82.2838 C   0  0  0  0  0  0  0  0  0  0  0  0
    0.3009   64.4306   86.5707 C   0  0  0  0  0  0  0  0  0  0  0  0
    0.0999   64.4109   87.7790 O   0  0  0  0  0  0  0  0  0  0  0  0
    1.0732   65.3949   85.9504 N   0  0  0  0  0  0  0  0  0  0  0  0
    1.4928   66.0744   86.5710 H   0  0  0  0  0  0  0  0  0  0  0  0
    3.5812   66.6995   84.4851 C   0  0  0  0  0  0  0  0  0  0  0  0
    4.2876   67.8098   83.9945 C   0  0  0  0  0  0  0  0  0  0  0  0
    3.6821   68.7191   83.1249 C   0  0  0  0  0  0  0  0  0  0  0  0
    2.3614   68.5317   82.7324 C   0  0  0  0  0  0  0  0  0  0  0  0
    1.6416   67.4409   83.2194 C   0  0  0  0  0  0  0  0  0  0  0  0
    2.2353   66.5267   84.1076 C   0  0  0  0  0  0  0  0  0  0  0  0
    4.4993   65.5884   85.5495 S   0  0  0  0  0  0  0  0  0  0  0  0
    6.0458   66.5512   85.7138 C   0  0  0  0  0  0  0  0  0  0  0  0
    8.4056   66.7385   84.7583 C   0  0  0  0  0  0  0  0  0  0  0  0
    7.2402   65.8198   85.1028 C   0  0  0  0  0  0  0  0  0  0  0  0
 22 23  1  0  0  0
 23 21  1  0  0  0
 21 20  1  0  0  0
 20 14  1  0  0  0
 14 15  2  0  0  0
 15 16  1  0  0  0
 16 17  2  0  0  0
 17 18  1  0  0  0
 18 19  2  0  0  0
 19  1  1  0  0  0
  1  2  2  0  0  0
  2  3  1  0  0  0
  3  4  2  0  0  0
  4  5  1  0  0  0
  5  6  1  0  0  0
  5  7  2  0  0  0
  7  8  1  0  0  0
  8  9  1  0  0  0
  4 10  1  0  0  0
 10 11  2  0  0  0
 10 12  1  0  0  0
 19 14  1  0  0  0
 12  1  1  0  0  0
  8  3  1  0  0  0
 12 13  1  0  0  0
M  END
> <minimizedAffinity>
-8.86353

$$$$



 23 25  0  0  0  0  0  0  0  0999 V2000
    1.4473   65.3928   84.6719 C   0  0  0  0  0  0  0  0  0  0  0  0
    0.9765   64.5467   83.7948 N   0  0  0  0  0  0  0  0  0  0  0  0
    0.1599   63.6061   84.3319 C   0  0  0  0  0  0  0  0  0  0  0  0
   -0.2046   63.4641   85.6478 C   0  0  0  0  0  0  0  0  0  0  0  0
   -1.0505   62.3420   85.6985 C   0  0  0  0  0  0  0  0  0  0  0  0
   -1.7162   61.7552   86.8854 C   0  0  0  0  0  0  0  0  0  0  0  0
   -1.2147   61.8028   84.4787 N   0  0  0  0  0  0  0  0  0  0  0  0
   -0.4690   62.5922   83.6668 N   0  0  0  0  0  0  0  0  0  0  0  0
   -0.4099   62.2994   82.2571 C   0  0  0  0  0  0  0  0  0  0  0  0
    0.3093   64.3954   86.6070 C   0  0  0  0  0  0  0  0  0  0  0  0
    0.0771   64.3564   87.8093 O   0  0  0  0  0  0  0  0  0  0  0  0
    1.1209   65.3523   86.0265 N   0  0  0  0  0  0  0  0  0  0  0  0
    1.5412   66.0083   86.6714 H   0  0  0  0  0  0  0  0  0  0  0  0
    3.7362   66.5379   84.5205 C   0  0  0  0  0  0  0  0  0  0  0  0
    4.4818   67.6468   84.0883 C   0  0  0  0  0  0  0  0  0  0  0  0
    3.8802   68.6793   83.3660 C   0  0  0  0  0  0  0  0  0  0  0  0
    2.5241   68.6181   83.0644 C   0  0  0  0  0  0  0  0  0  0  0  0
    1.7663   67.5297   83.4960 C   0  0  0  0  0  0  0  0  0  0  0  0
    2.3572   66.4913   84.2374 C   0  0  0  0  0  0  0  0  0  0  0  0
    4.6487   65.2650   85.3906 S   0  0  0  0  0  0  0  0  0  0  0  0
    5.2579   66.2547   86.8030 C   0  0  0  0  0  0  0  0  0  0  0  0
    5.6252   65.5534   89.2300 C   0  0  0  0  0  0  0  0  0  0  0  0
    6.0736   65.4104   87.7811 C   0  0  0  0  0  0  0  0  0  0  0  0
 22 23  1  0  0  0
 23 21  1  0  0  0
 21 20  1  0  0  0
 20 14  1  0  0  0
 14 15  2  0  0  0
 15 16  1  0  0  0
 16 17  2  0  0  0
 17 18  1  0  0  0
 18 19  2  0  0  0
 19  1  1  0  0  0
  1  2  2  0  0  0
  2  3  1  0  0  0
  3  4  2  0  0  0
  4  5  1  0  0  0
  5  6  1  0  0  0
  5  7  2  0  0  0
  7  8  1  0  0  0
  8  9  1  0  0  0
  4 10  1  0  0  0
 10 11  2  0  0  0
 10 12  1  0  0  0
 19 14  1  0  0  0
 12  1  1  0  0  0
  8  3  1  0  0  0
 12 13  1  0  0  0
M  END
> <minimizedAffinity>
-8.60851

$$$$



 23 25  0  0  0  0  0  0  0  0999 V2000
    0.5609   64.7001   84.6658 C   0  0  0  0  0  0  0  0  0  0  0  0
   -0.5060   63.9465   84.6346 N   0  0  0  0  0  0  0  0  0  0  0  0
   -0.6919   63.2217   85.7660 C   0  0  0  0  0  0  0  0  0  0  0  0
    0.0957   63.2047   86.8903 C   0  0  0  0  0  0  0  0  0  0  0  0
   -0.5078   62.2929   87.7744 C   0  0  0  0  0  0  0  0  0  0  0  0
   -0.0549   61.9023   89.1304 C   0  0  0  0  0  0  0  0  0  0  0  0
   -1.6201   61.7619   87.2392 N   0  0  0  0  0  0  0  0  0  0  0  0
   -1.7088   62.3454   86.0185 N   0  0  0  0  0  0  0  0  0  0  0  0
   -2.8049   62.0005   85.1491 C   0  0  0  0  0  0  0  0  0  0  0  0
    1.2625   64.0347   86.9240 C   0  0  0  0  0  0  0  0  0  0  0  0
    2.0539   64.0861   87.8577 O   0  0  0  0  0  0  0  0  0  0  0  0
    1.4131   64.7751   85.7663 N   0  0  0  0  0  0  0  0  0  0  0  0
    2.2469   65.3463   85.7266 H   0  0  0  0  0  0  0  0  0  0  0  0
    0.3808   65.3838   82.2014 C   0  0  0  0  0  0  0  0  0  0  0  0
    0.8081   66.2401   81.1735 C   0  0  0  0  0  0  0  0  0  0  0  0
    1.7142   67.2715   81.4281 C   0  0  0  0  0  0  0  0  0  0  0  0
    2.2062   67.4626   82.7145 C   0  0  0  0  0  0  0  0  0  0  0  0
    1.8015   66.6140   83.7447 C   0  0  0  0  0  0  0  0  0  0  0  0
    0.9015   65.5623   83.4979 C   0  0  0  0  0  0  0  0  0  0  0  0
   -0.8231   64.1392   81.7413 S   0  0  0  0  0  0  0  0  0  0  0  0
    0.1736   63.2020   80.5273 C   0  0  0  0  0  0  0  0  0  0  0  0
    0.9591   61.5471   82.3052 C   0  0  0  0  0  0  0  0  0  0  0  0
    0.3321   61.7365   80.9298 C   0  0  0  0  0  0  0  0  0  0  0  0
 22 23  1  0  0  0
 23 21  1  0  0  0
 21 20  1  0  0  0
 20 14  1  0  0  0
 14 15  2  0  0  0
 15 16  1  0  0  0
 16 17  2  0  0  0
 17 18  1  0  0  0
 18 19  2  0  0  0
 19  1  1  0  0  0
  1  2  2  0  0  0
  2  3  1  0  0  0
  3  4  2  0  0  0
  4  5  1  0  0  0
  5  6  1  0  0  0
  5  7  2  0  0  0
  7  8  1  0  0  0
  8  9  1  0  0  0
  4 10  1  0  0  0
 10 11  2  0  0  0
 10 12  1  0  0  0
 19 14  1  0  0  0
 12  1  1  0  0  0
  8  3  1  0  0  0
 12 13  1  0  0  0
M  END
> <minimizedAffinity>
-8.30872

$$$$



 23 25  0  0  0  0  0  0  0  0999 V2000
   -0.2847   62.8983   80.6866 C   0  0  0  0  0  0  0  0  0  0  0  0
   -1.1937   62.0002   80.9591 N   0  0  0  0  0  0  0  0  0  0  0  0
   -1.4745   61.1785   79.9170 C   0  0  0  0  0  0  0  0  0  0  0  0
   -0.9204   61.1971   78.6610 C   0  0  0  0  0  0  0  0  0  0  0  0
   -1.5450   60.1608   77.9447 C   0  0  0  0  0  0  0  0  0  0  0  0
   -1.3123   59.7559   76.5382 C   0  0  0  0  0  0  0  0  0  0  0  0
   -2.4458   59.5183   78.7073 N   0  0  0  0  0  0  0  0  0  0  0  0
   -2.3810   60.1568   79.9017 N   0  0  0  0  0  0  0  0  0  0  0  0
   -3.2319   59.7238   80.9809 C   0  0  0  0  0  0  0  0  0  0  0  0
    0.0789   62.1797   78.3658 C   0  0  0  0  0  0  0  0  0  0  0  0
    0.6259   62.3117   77.2776 O   0  0  0  0  0  0  0  0  0  0  0  0
    0.3572   62.9878   79.4526 N   0  0  0  0  0  0  0  0  0  0  0  0
    1.0280   63.7248   79.2798 H   0  0  0  0  0  0  0  0  0  0  0  0
    0.1904   63.5887   83.1096 C   0  0  0  0  0  0  0  0  0  0  0  0
    0.5699   64.6057   84.0008 C   0  0  0  0  0  0  0  0  0  0  0  0
    0.9175   65.8755   83.5355 C   0  0  0  0  0  0  0  0  0  0  0  0
    0.8914   66.1473   82.1721 C   0  0  0  0  0  0  0  0  0  0  0  0
    0.5055   65.1524   81.2740 C   0  0  0  0  0  0  0  0  0  0  0  0
    0.1385   63.8745   81.7314 C   0  0  0  0  0  0  0  0  0  0  0  0
   -0.1778   61.9955   83.8419 S   0  0  0  0  0  0  0  0  0  0  0  0
   -0.7272   62.5528   85.4951 C   0  0  0  0  0  0  0  0  0  0  0  0
   -2.7475   62.9325   87.0087 C   0  0  0  0  0  0  0  0  0  0  0  0
   -2.2502   62.5520   85.6200 C   0  0  0  0  0  0  0  0  0  0  0  0
 22 23  1  0  0  0
 23 21  1  0  0  0
 21 20  1  0  0  0
 20 14  1  0  0  0
 14 15  2  0  0  0
 15 16  1  0  0  0
 16 17  2  0  0  0
 17 18  1  0  0  0
 18 19  2  0  0  0
 19  1  1  0  0  0
  1  2  2  0  0  0
  2  3  1  0  0  0
  3  4  2  0  0  0
  4  5  1  0  0  0
  5  6  1  0  0  0
  5  7  2  0  0  0
  7  8  1  0  0  0
  8  9  1  0  0  0
  4 10  1  0  0  0
 10 11  2  0  0  0
 10 12  1  0  0  0
 19 14  1  0  0  0
 12  1  1  0  0  0
  8  3  1  0  0  0
 12 13  1  0  0  0
M  END
> <minimizedAffinity>
-8.26304

$$$$



 23 25  0  0  0  0  0  0  0  0999 V2000
   -1.3630   62.8716   82.1055 C   0  0  0  0  0  0  0  0  0  0  0  0
   -0.6601   63.9725   82.0748 N   0  0  0  0  0  0  0  0  0  0  0  0
   -0.1281   64.3106   83.2760 C   0  0  0  0  0  0  0  0  0  0  0  0
   -0.2498   63.6381   84.4666 C   0  0  0  0  0  0  0  0  0  0  0  0
    0.4691   64.3893   85.4132 C   0  0  0  0  0  0  0  0  0  0  0  0
    0.6522   64.1027   86.8556 C   0  0  0  0  0  0  0  0  0  0  0  0
    1.0189   65.4792   84.8513 N   0  0  0  0  0  0  0  0  0  0  0  0
    0.6411   65.4053   83.5512 N   0  0  0  0  0  0  0  0  0  0  0  0
    1.0596   66.4354   82.6347 C   0  0  0  0  0  0  0  0  0  0  0  0
   -1.0173   62.4292   84.4971 C   0  0  0  0  0  0  0  0  0  0  0  0
   -1.2184   61.7570   85.5013 O   0  0  0  0  0  0  0  0  0  0  0  0
   -1.5287   62.1011   83.2552 N   0  0  0  0  0  0  0  0  0  0  0  0
   -2.1132   61.2759   83.2353 H   0  0  0  0  0  0  0  0  0  0  0  0
   -1.3168   62.0591   79.6743 C   0  0  0  0  0  0  0  0  0  0  0  0
   -2.0445   61.6221   78.5554 C   0  0  0  0  0  0  0  0  0  0  0  0
   -3.4303   61.4629   78.6174 C   0  0  0  0  0  0  0  0  0  0  0  0
   -4.1093   61.7378   79.7993 C   0  0  0  0  0  0  0  0  0  0  0  0
   -3.4036   62.1839   80.9166 C   0  0  0  0  0  0  0  0  0  0  0  0
   -2.0101   62.3629   80.8622 C   0  0  0  0  0  0  0  0  0  0  0  0
    0.4595   62.1673   79.4665 S   0  0  0  0  0  0  0  0  0  0  0  0
    0.5142   62.9368   77.8081 C   0  0  0  0  0  0  0  0  0  0  0  0
   -0.9456   64.8239   76.8999 C   0  0  0  0  0  0  0  0  0  0  0  0
    0.1692   64.4245   77.8582 C   0  0  0  0  0  0  0  0  0  0  0  0
 22 23  1  0  0  0
 23 21  1  0  0  0
 21 20  1  0  0  0
 20 14  1  0  0  0
 14 15  2  0  0  0
 15 16  1  0  0  0
 16 17  2  0  0  0
 17 18  1  0  0  0
 18 19  2  0  0  0
 19  1  1  0  0  0
  1  2  2  0  0  0
  2  3  1  0  0  0
  3  4  2  0  0  0
  4  5  1  0  0  0
  5  6  1  0  0  0
  5  7  2  0  0  0
  7  8  1  0  0  0
  8  9  1  0  0  0
  4 10  1  0  0  0
 10 11  2  0  0  0
 10 12  1  0  0  0
 19 14  1  0  0  0
 12  1  1  0  0  0
  8  3  1  0  0  0
 12 13  1  0  0  0
M  END
> <minimizedAffinity>
-8.24632

$$$$



 23 25  0  0  0  0  0  0  0  0999 V2000
    0.8414   65.2962   84.2879 C   0  0  0  0  0  0  0  0  0  0  0  0
   -0.0705   64.5285   83.7528 N   0  0  0  0  0  0  0  0  0  0  0  0
   -0.5253   63.5620   84.5888 C   0  0  0  0  0  0  0  0  0  0  0  0
   -0.1391   63.3237   85.8845 C   0  0  0  0  0  0  0  0  0  0  0  0
   -0.8880   62.2146   86.3161 C   0  0  0  0  0  0  0  0  0  0  0  0
   -0.8495   61.5477   87.6390 C   0  0  0  0  0  0  0  0  0  0  0  0
   -1.7069   61.7748   85.3456 N   0  0  0  0  0  0  0  0  0  0  0  0
   -1.4668   62.6132   84.3074 N   0  0  0  0  0  0  0  0  0  0  0  0
   -2.1846   62.4302   83.0715 C   0  0  0  0  0  0  0  0  0  0  0  0
    0.8575   64.1691   86.4706 C   0  0  0  0  0  0  0  0  0  0  0  0
    1.3004   64.0402   87.6055 O   0  0  0  0  0  0  0  0  0  0  0  0
    1.2858   65.1553   85.6015 N   0  0  0  0  0  0  0  0  0  0  0  0
    2.0207   65.7523   85.9572 H   0  0  0  0  0  0  0  0  0  0  0  0
    1.3388   66.5323   82.0976 C   0  0  0  0  0  0  0  0  0  0  0  0
    1.9777   67.6094   81.4618 C   0  0  0  0  0  0  0  0  0  0  0  0
    2.6805   68.5642   82.1993 C   0  0  0  0  0  0  0  0  0  0  0  0
    2.7547   68.4567   83.5836 C   0  0  0  0  0  0  0  0  0  0  0  0
    2.1360   67.3869   84.2301 C   0  0  0  0  0  0  0  0  0  0  0  0
    1.4384   66.4106   83.4973 C   0  0  0  0  0  0  0  0  0  0  0  0
    0.4304   65.4142   81.0322 S   0  0  0  0  0  0  0  0  0  0  0  0
    1.2145   65.8311   79.4332 C   0  0  0  0  0  0  0  0  0  0  0  0
    0.8870   63.5727   78.2890 C   0  0  0  0  0  0  0  0  0  0  0  0
    0.5827   65.0653   78.2716 C   0  0  0  0  0  0  0  0  0  0  0  0
 22 23  1  0  0  0
 23 21  1  0  0  0
 21 20  1  0  0  0
 20 14  1  0  0  0
 14 15  2  0  0  0
 15 16  1  0  0  0
 16 17  2  0  0  0
 17 18  1  0  0  0
 18 19  2  0  0  0
 19  1  1  0  0  0
  1  2  2  0  0  0
  2  3  1  0  0  0
  3  4  2  0  0  0
  4  5  1  0  0  0
  5  6  1  0  0  0
  5  7  2  0  0  0
  7  8  1  0  0  0
  8  9  1  0  0  0
  4 10  1  0  0  0
 10 11  2  0  0  0
 10 12  1  0  0  0
 19 14  1  0  0  0
 12  1  1  0  0  0
  8  3  1  0  0  0
 12 13  1  0  0  0
M  END
> <minimizedAffinity>
-8.23929

$$$$



 23 25  0  0  0  0  0  0  0  0999 V2000
   -0.6710   62.9174   82.2843 C   0  0  0  0  0  0  0  0  0  0  0  0
   -0.2989   62.7730   81.0403 N   0  0  0  0  0  0  0  0  0  0  0  0
   -0.9963   61.8204   80.3722 C   0  0  0  0  0  0  0  0  0  0  0  0
   -2.0102   61.0301   80.8541 C   0  0  0  0  0  0  0  0  0  0  0  0
   -2.3979   60.2008   79.7868 C   0  0  0  0  0  0  0  0  0  0  0  0
   -3.4520   59.1591   79.7782 C   0  0  0  0  0  0  0  0  0  0  0  0
   -1.6694   60.4538   78.6863 N   0  0  0  0  0  0  0  0  0  0  0  0
   -0.8262   61.4438   79.0703 N   0  0  0  0  0  0  0  0  0  0  0  0
    0.1210   61.9721   78.1216 C   0  0  0  0  0  0  0  0  0  0  0  0
   -2.4194   61.1931   82.2169 C   0  0  0  0  0  0  0  0  0  0  0  0
   -3.2918   60.5312   82.7661 O   0  0  0  0  0  0  0  0  0  0  0  0
   -1.7046   62.1837   82.8643 N   0  0  0  0  0  0  0  0  0  0  0  0
   -1.9301   62.3072   83.8425 H   0  0  0  0  0  0  0  0  0  0  0  0
    0.1121   63.8232   84.5514 C   0  0  0  0  0  0  0  0  0  0  0  0
    0.7316   64.8630   85.2637 C   0  0  0  0  0  0  0  0  0  0  0  0
    1.2517   65.9768   84.6014 C   0  0  0  0  0  0  0  0  0  0  0  0
    1.1607   66.0673   83.2168 C   0  0  0  0  0  0  0  0  0  0  0  0
    0.5382   65.0492   82.4949 C   0  0  0  0  0  0  0  0  0  0  0  0
   -0.0031   63.9299   83.1517 C   0  0  0  0  0  0  0  0  0  0  0  0
   -0.4615   62.4329   85.5253 S   0  0  0  0  0  0  0  0  0  0  0  0
   -0.2682   63.1472   87.1979 C   0  0  0  0  0  0  0  0  0  0  0  0
   -2.8092   62.9793   87.0193 C   0  0  0  0  0  0  0  0  0  0  0  0
   -1.6158   63.3609   87.8859 C   0  0  0  0  0  0  0  0  0  0  0  0
 22 23  1  0  0  0
 23 21  1  0  0  0
 21 20  1  0  0  0
 20 14  1  0  0  0
 14 15  2  0  0  0
 15 16  1  0  0  0
 16 17  2  0  0  0
 17 18  1  0  0  0
 18 19  2  0  0  0
 19  1  1  0  0  0
  1  2  2  0  0  0
  2  3  1  0  0  0
  3  4  2  0  0  0
  4  5  1  0  0  0
  5  6  1  0  0  0
  5  7  2  0  0  0
  7  8  1  0  0  0
  8  9  1  0  0  0
  4 10  1  0  0  0
 10 11  2  0  0  0
 10 12  1  0  0  0
 19 14  1  0  0  0
 12  1  1  0  0  0
  8  3  1  0  0  0
 12 13  1  0  0  0
M  END
> <minimizedAffinity>
-8.21631

$$$$



 23 25  0  0  0  0  0  0  0  0999 V2000
    0.9929   65.3644   84.5433 C   0  0  0  0  0  0  0  0  0  0  0  0
    0.0611   64.6614   83.9563 N   0  0  0  0  0  0  0  0  0  0  0  0
   -0.4357   63.6645   84.7306 C   0  0  0  0  0  0  0  0  0  0  0  0
   -0.0721   63.3383   86.0136 C   0  0  0  0  0  0  0  0  0  0  0  0
   -0.8634   62.2329   86.3731 C   0  0  0  0  0  0  0  0  0  0  0  0
   -0.8622   61.4896   87.6552 C   0  0  0  0  0  0  0  0  0  0  0  0
   -1.6862   61.8789   85.3714 N   0  0  0  0  0  0  0  0  0  0  0  0
   -1.4061   62.7671   84.3860 N   0  0  0  0  0  0  0  0  0  0  0  0
   -2.1163   62.6811   83.1351 C   0  0  0  0  0  0  0  0  0  0  0  0
    0.9465   64.1130   86.6567 C   0  0  0  0  0  0  0  0  0  0  0  0
    1.3723   63.9032   87.7861 O   0  0  0  0  0  0  0  0  0  0  0  0
    1.4179   65.1323   85.8504 N   0  0  0  0  0  0  0  0  0  0  0  0
    2.1689   65.6817   86.2468 H   0  0  0  0  0  0  0  0  0  0  0  0
    1.5949   66.6821   82.4281 C   0  0  0  0  0  0  0  0  0  0  0  0
    2.2735   67.7746   81.8638 C   0  0  0  0  0  0  0  0  0  0  0  0
    2.9592   68.6873   82.6678 C   0  0  0  0  0  0  0  0  0  0  0  0
    2.9761   68.5216   84.0483 C   0  0  0  0  0  0  0  0  0  0  0  0
    2.3174   67.4357   84.6244 C   0  0  0  0  0  0  0  0  0  0  0  0
    1.6364   66.5012   83.8243 C   0  0  0  0  0  0  0  0  0  0  0  0
    0.7149   65.6230   81.2817 S   0  0  0  0  0  0  0  0  0  0  0  0
    0.5793   66.7727   79.8656 C   0  0  0  0  0  0  0  0  0  0  0  0
   -0.4297   69.1144   79.9878 C   0  0  0  0  0  0  0  0  0  0  0  0
   -0.6938   67.6150   79.9350 C   0  0  0  0  0  0  0  0  0  0  0  0
 22 23  1  0  0  0
 23 21  1  0  0  0
 21 20  1  0  0  0
 20 14  1  0  0  0
 14 15  2  0  0  0
 15 16  1  0  0  0
 16 17  2  0  0  0
 17 18  1  0  0  0
 18 19  2  0  0  0
 19  1  1  0  0  0
  1  2  2  0  0  0
  2  3  1  0  0  0
  3  4  2  0  0  0
  4  5  1  0  0  0
  5  6  1  0  0  0
  5  7  2  0  0  0
  7  8  1  0  0  0
  8  9  1  0  0  0
  4 10  1  0  0  0
 10 11  2  0  0  0
 10 12  1  0  0  0
 19 14  1  0  0  0
 12  1  1  0  0  0
  8  3  1  0  0  0
 12 13  1  0  0  0
M  END
> <minimizedAffinity>
-8.18246

$$$$



 23 25  0  0  0  0  0  0  0  0999 V2000
    1.3073   65.8448   83.6837 C   0  0  0  0  0  0  0  0  0  0  0  0
    1.0016   65.4350   84.8860 N   0  0  0  0  0  0  0  0  0  0  0  0
    0.1821   64.3541   84.8992 C   0  0  0  0  0  0  0  0  0  0  0  0
   -0.3327   63.6785   83.8206 C   0  0  0  0  0  0  0  0  0  0  0  0
   -1.1269   62.6464   84.3509 C   0  0  0  0  0  0  0  0  0  0  0  0
   -1.9106   61.6282   83.6123 C   0  0  0  0  0  0  0  0  0  0  0  0
   -1.1141   62.6658   85.6944 N   0  0  0  0  0  0  0  0  0  0  0  0
   -0.3093   63.7131   86.0008 N   0  0  0  0  0  0  0  0  0  0  0  0
   -0.0664   64.0361   87.3839 C   0  0  0  0  0  0  0  0  0  0  0  0
    0.0072   64.1268   82.5035 C   0  0  0  0  0  0  0  0  0  0  0  0
   -0.4091   63.6230   81.4672 O   0  0  0  0  0  0  0  0  0  0  0  0
    0.8585   65.2159   82.5235 N   0  0  0  0  0  0  0  0  0  0  0  0
    1.0939   65.5944   81.6155 H   0  0  0  0  0  0  0  0  0  0  0  0
    3.4852   67.1396   84.0757 C   0  0  0  0  0  0  0  0  0  0  0  0
    4.2213   68.3160   83.8599 C   0  0  0  0  0  0  0  0  0  0  0  0
    3.7118   69.3468   83.0678 C   0  0  0  0  0  0  0  0  0  0  0  0
    2.4589   69.2165   82.4790 C   0  0  0  0  0  0  0  0  0  0  0  0
    1.7094   68.0598   82.6924 C   0  0  0  0  0  0  0  0  0  0  0  0
    2.2049   67.0213   83.5006 C   0  0  0  0  0  0  0  0  0  0  0  0
    4.2841   65.8807   85.0693 S   0  0  0  0  0  0  0  0  0  0  0  0
    5.9055   66.6895   85.3188 C   0  0  0  0  0  0  0  0  0  0  0  0
    8.4008   66.5449   84.8000 C   0  0  0  0  0  0  0  0  0  0  0  0
    7.0581   65.8252   84.8096 C   0  0  0  0  0  0  0  0  0  0  0  0
 22 23  1  0  0  0
 23 21  1  0  0  0
 21 20  1  0  0  0
 20 14  1  0  0  0
 14 15  2  0  0  0
 15 16  1  0  0  0
 16 17  2  0  0  0
 17 18  1  0  0  0
 18 19  2  0  0  0
 19  1  1  0  0  0
  1  2  2  0  0  0
  2  3  1  0  0  0
  3  4  2  0  0  0
  4  5  1  0  0  0
  5  6  1  0  0  0
  5  7  2  0  0  0
  7  8  1  0  0  0
  8  9  1  0  0  0
  4 10  1  0  0  0
 10 11  2  0  0  0
 10 12  1  0  0  0
 19 14  1  0  0  0
 12  1  1  0  0  0
  8  3  1  0  0  0
 12 13  1  0  0  0
M  END
> <minimizedAffinity>
-8.16472

$$$$
