


 34 36  0  0  0  0  0  0  0  0999 V2000
    0.9849   65.8708   82.9165 C   0  0  0  0  0  0  0  0  0  0  0  0
    1.1141   66.1300   81.5427 C   0  0  0  0  0  0  0  0  0  0  0  0
    0.7035   65.1905   80.5937 C   0  0  0  0  0  0  0  0  0  0  0  0
    0.1584   63.9799   81.0143 C   0  0  0  0  0  0  0  0  0  0  0  0
    0.0023   63.7089   82.3740 C   0  0  0  0  0  0  0  0  0  0  0  0
    0.4245   64.6421   83.3388 C   0  0  0  0  0  0  0  0  0  0  0  0
    0.2544   64.2400   84.7764 C   0  0  0  0  0  0  0  0  0  0  0  0
   -0.8704   63.7536   85.1961 N   0  0  0  0  0  0  0  0  0  0  0  0
   -0.9939   63.3957   86.5219 C   0  0  0  0  0  0  0  0  0  0  0  0
   -0.0001   63.5138   87.4274 C   0  0  0  0  0  0  0  0  0  0  0  0
    1.2929   64.0515   86.9308 C   0  0  0  0  0  0  0  0  0  0  0  0
    2.2803   64.1720   87.6489 O   0  0  0  0  0  0  0  0  0  0  0  0
    1.3191   64.3996   85.6171 N   0  0  0  0  0  0  0  0  0  0  0  0
    2.1960   64.7587   85.2640 H   0  0  0  0  0  0  0  0  0  0  0  0
   -2.3729   62.8583   86.8571 C   0  0  0  0  0  0  0  0  0  0  0  0
   -2.9560   62.0372   85.7137 C   0  0  0  0  0  0  0  0  0  0  0  0
   -0.0528   63.1765   88.8933 C   0  0  0  0  0  0  0  0  0  0  0  0
    0.2988   61.7191   89.1556 C   0  0  0  0  0  0  0  0  0  0  0  0
   -0.3880   62.7939   79.8067 S   0  0  0  0  0  0  0  0  0  0  0  0
   -1.0023   63.5197   78.7183 O   0  0  0  0  0  0  0  0  0  0  0  0
    0.7099   61.8800   79.5725 O   0  0  0  0  0  0  0  0  0  0  0  0
   -1.5694   61.9575   80.6667 N   0  0  0  0  0  0  0  0  0  0  0  0
   -2.8613   62.6196   80.9561 C   0  0  0  0  0  0  0  0  0  0  0  0
   -3.9196   61.5268   80.8464 C   0  0  0  0  0  0  0  0  0  0  0  0
   -3.1422   60.2277   80.9818 C   0  0  0  0  0  0  0  0  0  0  0  0
   -1.8115   60.5375   80.2984 C   0  0  0  0  0  0  0  0  0  0  0  0
   -1.8725   60.1865   78.8233 C   0  0  0  0  0  0  0  0  0  0  0  0
   -2.7820   60.4741   78.0599 O   0  0  0  0  0  0  0  0  0  0  0  0
   -0.7746   59.5606   78.3582 O   0  0  0  0  0  0  0  0  0  0  0  0
   -0.9899   59.3276   77.4312 H   0  0  0  0  0  0  0  0  0  0  0  0
    1.3744   66.7593   83.8876 O   0  0  0  0  0  0  0  0  0  0  0  0
    2.3807   67.7227   83.5653 C   0  0  0  0  0  0  0  0  0  0  0  0
    4.2565   66.3450   84.5694 C   0  0  0  0  0  0  0  0  0  0  0  0
    3.4815   67.6543   84.6221 C   0  0  0  0  0  0  0  0  0  0  0  0
 33 34  1  0  0  0
 34 32  1  0  0  0
 32 31  1  0  0  0
 31  1  1  0  0  0
  1  2  1  0  0  0
  2  3  2  0  0  0
  3  4  1  0  0  0
  4 19  1  0  0  0
 19 20  2  0  0  0
 19 21  2  0  0  0
 19 22  1  0  0  0
 22 23  1  0  0  0
 23 24  1  0  0  0
 24 25  1  0  0  0
 25 26  1  0  0  0
 26 27  1  0  0  0
 27 28  2  0  0  0
 27 29  1  0  0  0
  4  5  2  0  0  0
  5  6  1  0  0  0
  6  7  1  0  0  0
  7  8  2  0  0  0
  8  9  1  0  0  0
  9 15  1  0  0  0
 15 16  1  0  0  0
  9 10  2  0  0  0
 10 17  1  0  0  0
 17 18  1  0  0  0
 10 11  1  0  0  0
 11 12  2  0  0  0
 11 13  1  0  0  0
  6  1  2  0  0  0
 13  7  1  0  0  0
 26 22  1  0  0  0
 29 30  1  0  0  0
 13 14  1  0  0  0
M  END
> <minimizedAffinity>
-9.21904

$$$$



 34 36  0  0  0  0  0  0  0  0999 V2000
    3.6591   66.6150   84.7042 C   0  0  0  0  0  0  0  0  0  0  0  0
    4.4371   67.6871   84.2390 C   0  0  0  0  0  0  0  0  0  0  0  0
    3.9044   68.6301   83.3564 C   0  0  0  0  0  0  0  0  0  0  0  0
    2.5840   68.5068   82.9314 C   0  0  0  0  0  0  0  0  0  0  0  0
    1.7862   67.4606   83.3960 C   0  0  0  0  0  0  0  0  0  0  0  0
    2.3161   66.4975   84.2744 C   0  0  0  0  0  0  0  0  0  0  0  0
    1.3917   65.3859   84.6833 C   0  0  0  0  0  0  0  0  0  0  0  0
    0.8677   64.6036   83.7937 N   0  0  0  0  0  0  0  0  0  0  0  0
    0.0223   63.5939   84.2022 C   0  0  0  0  0  0  0  0  0  0  0  0
   -0.2961   63.3568   85.4921 C   0  0  0  0  0  0  0  0  0  0  0  0
    0.3281   64.2453   86.5064 C   0  0  0  0  0  0  0  0  0  0  0  0
    0.1446   64.1071   87.7114 O   0  0  0  0  0  0  0  0  0  0  0  0
    1.1290   65.2272   86.0144 N   0  0  0  0  0  0  0  0  0  0  0  0
    1.5673   65.8336   86.6946 H   0  0  0  0  0  0  0  0  0  0  0  0
   -0.5183   62.7781   83.0424 C   0  0  0  0  0  0  0  0  0  0  0  0
    0.4846   61.7350   82.5653 C   0  0  0  0  0  0  0  0  0  0  0  0
   -1.2264   62.3010   86.0260 C   0  0  0  0  0  0  0  0  0  0  0  0
   -2.6659   62.7907   86.0926 C   0  0  0  0  0  0  0  0  0  0  0  0
    1.8974   69.7210   81.8281 S   0  0  0  0  0  0  0  0  0  0  0  0
    2.4680   69.5034   80.5182 O   0  0  0  0  0  0  0  0  0  0  0  0
    0.4639   69.7251   82.0296 O   0  0  0  0  0  0  0  0  0  0  0  0
    2.5050   71.1499   82.4794 N   0  0  0  0  0  0  0  0  0  0  0  0
    3.7382   71.7393   81.9111 C   0  0  0  0  0  0  0  0  0  0  0  0
    3.5362   73.2501   81.9633 C   0  0  0  0  0  0  0  0  0  0  0  0
    2.4314   73.4524   82.9874 C   0  0  0  0  0  0  0  0  0  0  0  0
    1.5337   72.2327   82.7865 C   0  0  0  0  0  0  0  0  0  0  0  0
    0.4512   72.5271   81.7645 C   0  0  0  0  0  0  0  0  0  0  0  0
    0.6379   72.8072   80.5900 O   0  0  0  0  0  0  0  0  0  0  0  0
   -0.8037   72.3908   82.2336 O   0  0  0  0  0  0  0  0  0  0  0  0
   -1.3815   72.6886   81.5005 H   0  0  0  0  0  0  0  0  0  0  0  0
    4.1357   65.6620   85.5695 O   0  0  0  0  0  0  0  0  0  0  0  0
    5.5087   65.2757   85.4684 C   0  0  0  0  0  0  0  0  0  0  0  0
    5.4429   65.4477   87.9964 C   0  0  0  0  0  0  0  0  0  0  0  0
    6.2400   65.7295   86.7304 C   0  0  0  0  0  0  0  0  0  0  0  0
 33 34  1  0  0  0
 34 32  1  0  0  0
 32 31  1  0  0  0
 31  1  1  0  0  0
  1  2  1  0  0  0
  2  3  2  0  0  0
  3  4  1  0  0  0
  4 19  1  0  0  0
 19 20  2  0  0  0
 19 21  2  0  0  0
 19 22  1  0  0  0
 22 23  1  0  0  0
 23 24  1  0  0  0
 24 25  1  0  0  0
 25 26  1  0  0  0
 26 27  1  0  0  0
 27 28  2  0  0  0
 27 29  1  0  0  0
  4  5  2  0  0  0
  5  6  1  0  0  0
  6  7  1  0  0  0
  7  8  2  0  0  0
  8  9  1  0  0  0
  9 15  1  0  0  0
 15 16  1  0  0  0
  9 10  2  0  0  0
 10 17  1  0  0  0
 17 18  1  0  0  0
 10 11  1  0  0  0
 11 12  2  0  0  0
 11 13  1  0  0  0
  6  1  2  0  0  0
 13  7  1  0  0  0
 26 22  1  0  0  0
 29 30  1  0  0  0
 13 14  1  0  0  0
M  END
> <minimizedAffinity>
-9.15623

$$$$



 34 36  0  0  0  0  0  0  0  0999 V2000
    0.5795   65.3099   82.7714 C   0  0  0  0  0  0  0  0  0  0  0  0
    0.6597   65.3826   81.3716 C   0  0  0  0  0  0  0  0  0  0  0  0
    0.3465   64.2772   80.5768 C   0  0  0  0  0  0  0  0  0  0  0  0
   -0.0510   63.0861   81.1793 C   0  0  0  0  0  0  0  0  0  0  0  0
   -0.1567   62.9968   82.5677 C   0  0  0  0  0  0  0  0  0  0  0  0
    0.1690   64.0995   83.3787 C   0  0  0  0  0  0  0  0  0  0  0  0
    0.0654   63.8909   84.8630 C   0  0  0  0  0  0  0  0  0  0  0  0
   -1.0416   63.4793   85.3950 N   0  0  0  0  0  0  0  0  0  0  0  0
   -1.1037   63.2992   86.7606 C   0  0  0  0  0  0  0  0  0  0  0  0
   -0.0664   63.5204   87.5952 C   0  0  0  0  0  0  0  0  0  0  0  0
    1.2053   63.9705   86.9725 C   0  0  0  0  0  0  0  0  0  0  0  0
    2.2271   64.1696   87.6215 O   0  0  0  0  0  0  0  0  0  0  0  0
    1.1707   64.1438   85.6247 N   0  0  0  0  0  0  0  0  0  0  0  0
    2.0323   64.4413   85.1869 H   0  0  0  0  0  0  0  0  0  0  0  0
   -2.4691   62.8296   87.2275 C   0  0  0  0  0  0  0  0  0  0  0  0
   -3.1354   61.9158   86.2065 C   0  0  0  0  0  0  0  0  0  0  0  0
   -0.0509   63.3780   89.0935 C   0  0  0  0  0  0  0  0  0  0  0  0
    0.2892   61.9594   89.5276 C   0  0  0  0  0  0  0  0  0  0  0  0
   -0.4744   61.6863   80.1672 S   0  0  0  0  0  0  0  0  0  0  0  0
    0.4667   61.6298   79.0719 O   0  0  0  0  0  0  0  0  0  0  0  0
   -0.6632   60.5561   81.0518 O   0  0  0  0  0  0  0  0  0  0  0  0
   -1.9902   62.1356   79.5880 N   0  0  0  0  0  0  0  0  0  0  0  0
   -2.1022   62.7403   78.2416 C   0  0  0  0  0  0  0  0  0  0  0  0
   -3.4026   62.2023   77.6537 C   0  0  0  0  0  0  0  0  0  0  0  0
   -4.1940   61.7178   78.8575 C   0  0  0  0  0  0  0  0  0  0  0  0
   -3.1158   61.1879   79.8012 C   0  0  0  0  0  0  0  0  0  0  0  0
   -2.8608   59.7135   79.5488 C   0  0  0  0  0  0  0  0  0  0  0  0
   -2.4621   59.2289   78.5005 O   0  0  0  0  0  0  0  0  0  0  0  0
   -3.0460   58.9280   80.6269 O   0  0  0  0  0  0  0  0  0  0  0  0
   -2.9284   58.0131   80.2965 H   0  0  0  0  0  0  0  0  0  0  0  0
    0.8780   66.3659   83.5960 O   0  0  0  0  0  0  0  0  0  0  0  0
    1.7307   67.3996   83.0972 C   0  0  0  0  0  0  0  0  0  0  0  0
    3.6760   66.4341   84.4044 C   0  0  0  0  0  0  0  0  0  0  0  0
    2.8289   67.6677   84.1246 C   0  0  0  0  0  0  0  0  0  0  0  0
 33 34  1  0  0  0
 34 32  1  0  0  0
 32 31  1  0  0  0
 31  1  1  0  0  0
  1  2  1  0  0  0
  2  3  2  0  0  0
  3  4  1  0  0  0
  4 19  1  0  0  0
 19 20  2  0  0  0
 19 21  2  0  0  0
 19 22  1  0  0  0
 22 23  1  0  0  0
 23 24  1  0  0  0
 24 25  1  0  0  0
 25 26  1  0  0  0
 26 27  1  0  0  0
 27 28  2  0  0  0
 27 29  1  0  0  0
  4  5  2  0  0  0
  5  6  1  0  0  0
  6  7  1  0  0  0
  7  8  2  0  0  0
  8  9  1  0  0  0
  9 15  1  0  0  0
 15 16  1  0  0  0
  9 10  2  0  0  0
 10 17  1  0  0  0
 17 18  1  0  0  0
 10 11  1  0  0  0
 11 12  2  0  0  0
 11 13  1  0  0  0
  6  1  2  0  0  0
 13  7  1  0  0  0
 26 22  1  0  0  0
 29 30  1  0  0  0
 13 14  1  0  0  0
M  END
> <minimizedAffinity>
-9.06510

$$$$



 34 36  0  0  0  0  0  0  0  0999 V2000
    0.0012   63.7962   84.5665 C   0  0  0  0  0  0  0  0  0  0  0  0
   -0.7079   62.5946   84.7233 C   0  0  0  0  0  0  0  0  0  0  0  0
   -1.3699   62.0061   83.6429 C   0  0  0  0  0  0  0  0  0  0  0  0
   -1.3268   62.6180   82.3926 C   0  0  0  0  0  0  0  0  0  0  0  0
   -0.6119   63.8020   82.2089 C   0  0  0  0  0  0  0  0  0  0  0  0
    0.0474   64.4107   83.2927 C   0  0  0  0  0  0  0  0  0  0  0  0
    0.7528   65.7054   83.0038 C   0  0  0  0  0  0  0  0  0  0  0  0
    0.6221   66.2846   81.8524 N   0  0  0  0  0  0  0  0  0  0  0  0
    1.2841   67.4713   81.6191 C   0  0  0  0  0  0  0  0  0  0  0  0
    2.0684   68.0854   82.5296 C   0  0  0  0  0  0  0  0  0  0  0  0
    2.1935   67.4248   83.8546 C   0  0  0  0  0  0  0  0  0  0  0  0
    2.8482   67.9037   84.7750 O   0  0  0  0  0  0  0  0  0  0  0  0
    1.5263   66.2483   83.9902 N   0  0  0  0  0  0  0  0  0  0  0  0
    1.5958   65.7925   84.8902 H   0  0  0  0  0  0  0  0  0  0  0  0
    1.0407   68.0124   80.2223 C   0  0  0  0  0  0  0  0  0  0  0  0
   -0.1816   68.9205   80.1699 C   0  0  0  0  0  0  0  0  0  0  0  0
    2.8477   69.3611   82.3545 C   0  0  0  0  0  0  0  0  0  0  0  0
    2.0271   70.5864   82.7310 C   0  0  0  0  0  0  0  0  0  0  0  0
   -2.1478   61.8561   81.0111 S   0  0  0  0  0  0  0  0  0  0  0  0
   -1.9284   60.4302   81.0957 O   0  0  0  0  0  0  0  0  0  0  0  0
   -3.4854   62.4059   80.9478 O   0  0  0  0  0  0  0  0  0  0  0  0
   -1.2788   62.4860   79.7137 N   0  0  0  0  0  0  0  0  0  0  0  0
    0.0663   61.9470   79.4115 C   0  0  0  0  0  0  0  0  0  0  0  0
    0.1787   61.9452   77.8905 C   0  0  0  0  0  0  0  0  0  0  0  0
   -0.8915   62.9202   77.4275 C   0  0  0  0  0  0  0  0  0  0  0  0
   -2.0149   62.7228   78.4438 C   0  0  0  0  0  0  0  0  0  0  0  0
   -2.9814   61.6520   77.9725 C   0  0  0  0  0  0  0  0  0  0  0  0
   -2.6841   60.5045   77.6768 O   0  0  0  0  0  0  0  0  0  0  0  0
   -4.2713   62.0387   77.9595 O   0  0  0  0  0  0  0  0  0  0  0  0
   -4.7569   61.2863   77.5617 H   0  0  0  0  0  0  0  0  0  0  0  0
    0.6659   64.4150   85.5957 O   0  0  0  0  0  0  0  0  0  0  0  0
    0.1013   64.3500   86.9078 C   0  0  0  0  0  0  0  0  0  0  0  0
    0.3800   62.8353   88.9210 C   0  0  0  0  0  0  0  0  0  0  0  0
    1.0836   63.6295   87.8293 C   0  0  0  0  0  0  0  0  0  0  0  0
 33 34  1  0  0  0
 34 32  1  0  0  0
 32 31  1  0  0  0
 31  1  1  0  0  0
  1  2  1  0  0  0
  2  3  2  0  0  0
  3  4  1  0  0  0
  4 19  1  0  0  0
 19 20  2  0  0  0
 19 21  2  0  0  0
 19 22  1  0  0  0
 22 23  1  0  0  0
 23 24  1  0  0  0
 24 25  1  0  0  0
 25 26  1  0  0  0
 26 27  1  0  0  0
 27 28  2  0  0  0
 27 29  1  0  0  0
  4  5  2  0  0  0
  5  6  1  0  0  0
  6  7  1  0  0  0
  7  8  2  0  0  0
  8  9  1  0  0  0
  9 15  1  0  0  0
 15 16  1  0  0  0
  9 10  2  0  0  0
 10 17  1  0  0  0
 17 18  1  0  0  0
 10 11  1  0  0  0
 11 12  2  0  0  0
 11 13  1  0  0  0
  6  1  2  0  0  0
 13  7  1  0  0  0
 26 22  1  0  0  0
 29 30  1  0  0  0
 13 14  1  0  0  0
M  END
> <minimizedAffinity>
-9.01770

$$$$



 34 36  0  0  0  0  0  0  0  0999 V2000
    0.3322   64.2829   84.2586 C   0  0  0  0  0  0  0  0  0  0  0  0
   -0.1782   62.9763   84.1994 C   0  0  0  0  0  0  0  0  0  0  0  0
   -0.4035   62.3491   82.9715 C   0  0  0  0  0  0  0  0  0  0  0  0
   -0.1183   63.0274   81.7891 C   0  0  0  0  0  0  0  0  0  0  0  0
    0.4080   64.3192   81.8241 C   0  0  0  0  0  0  0  0  0  0  0  0
    0.6264   64.9656   83.0546 C   0  0  0  0  0  0  0  0  0  0  0  0
    1.1544   66.3706   82.9867 C   0  0  0  0  0  0  0  0  0  0  0  0
    0.7398   67.1869   82.0703 N   0  0  0  0  0  0  0  0  0  0  0  0
    1.2455   68.4692   82.0350 C   0  0  0  0  0  0  0  0  0  0  0  0
    2.1553   68.9421   82.9124 C   0  0  0  0  0  0  0  0  0  0  0  0
    2.6073   68.0050   83.9732 C   0  0  0  0  0  0  0  0  0  0  0  0
    3.4033   68.3290   84.8487 O   0  0  0  0  0  0  0  0  0  0  0  0
    2.0752   66.7554   83.9194 N   0  0  0  0  0  0  0  0  0  0  0  0
    2.3676   66.1102   84.6410 H   0  0  0  0  0  0  0  0  0  0  0  0
    0.6721   69.2933   80.8970 C   0  0  0  0  0  0  0  0  0  0  0  0
   -0.3124   68.4914   80.0548 C   0  0  0  0  0  0  0  0  0  0  0  0
    2.7808   70.3109   82.9337 C   0  0  0  0  0  0  0  0  0  0  0  0
    3.8605   70.4607   81.8716 C   0  0  0  0  0  0  0  0  0  0  0  0
   -0.3808   62.2204   80.2261 S   0  0  0  0  0  0  0  0  0  0  0  0
   -0.5361   63.2446   79.2184 O   0  0  0  0  0  0  0  0  0  0  0  0
    0.6281   61.1902   80.0980 O   0  0  0  0  0  0  0  0  0  0  0  0
   -1.8575   61.4544   80.4863 N   0  0  0  0  0  0  0  0  0  0  0  0
   -3.0966   62.2630   80.5281 C   0  0  0  0  0  0  0  0  0  0  0  0
   -4.1711   61.4072   79.8655 C   0  0  0  0  0  0  0  0  0  0  0  0
   -3.6200   59.9918   79.9212 C   0  0  0  0  0  0  0  0  0  0  0  0
   -2.1151   60.1899   79.7480 C   0  0  0  0  0  0  0  0  0  0  0  0
   -1.7330   60.1335   78.2804 C   0  0  0  0  0  0  0  0  0  0  0  0
   -2.2626   60.7694   77.3817 O   0  0  0  0  0  0  0  0  0  0  0  0
   -0.6724   59.3472   78.0153 O   0  0  0  0  0  0  0  0  0  0  0  0
   -0.5979   59.3439   77.0383 H   0  0  0  0  0  0  0  0  0  0  0  0
    0.5692   64.9432   85.4384 O   0  0  0  0  0  0  0  0  0  0  0  0
    1.0024   64.1829   86.5693 C   0  0  0  0  0  0  0  0  0  0  0  0
    0.1578   63.1573   88.7279 C   0  0  0  0  0  0  0  0  0  0  0  0
   -0.1423   64.1088   87.5780 C   0  0  0  0  0  0  0  0  0  0  0  0
 33 34  1  0  0  0
 34 32  1  0  0  0
 32 31  1  0  0  0
 31  1  1  0  0  0
  1  2  1  0  0  0
  2  3  2  0  0  0
  3  4  1  0  0  0
  4 19  1  0  0  0
 19 20  2  0  0  0
 19 21  2  0  0  0
 19 22  1  0  0  0
 22 23  1  0  0  0
 23 24  1  0  0  0
 24 25  1  0  0  0
 25 26  1  0  0  0
 26 27  1  0  0  0
 27 28  2  0  0  0
 27 29  1  0  0  0
  4  5  2  0  0  0
  5  6  1  0  0  0
  6  7  1  0  0  0
  7  8  2  0  0  0
  8  9  1  0  0  0
  9 15  1  0  0  0
 15 16  1  0  0  0
  9 10  2  0  0  0
 10 17  1  0  0  0
 17 18  1  0  0  0
 10 11  1  0  0  0
 11 12  2  0  0  0
 11 13  1  0  0  0
  6  1  2  0  0  0
 13  7  1  0  0  0
 26 22  1  0  0  0
 29 30  1  0  0  0
 13 14  1  0  0  0
M  END
> <minimizedAffinity>
-8.96135

$$$$



 34 36  0  0  0  0  0  0  0  0999 V2000
   -0.7235   63.3606   84.1822 C   0  0  0  0  0  0  0  0  0  0  0  0
   -1.5479   62.2257   84.2411 C   0  0  0  0  0  0  0  0  0  0  0  0
   -2.1048   61.6825   83.0805 C   0  0  0  0  0  0  0  0  0  0  0  0
   -1.8395   62.2734   81.8476 C   0  0  0  0  0  0  0  0  0  0  0  0
   -1.0072   63.3901   81.7630 C   0  0  0  0  0  0  0  0  0  0  0  0
   -0.4518   63.9536   82.9265 C   0  0  0  0  0  0  0  0  0  0  0  0
    0.3950   65.1800   82.7361 C   0  0  0  0  0  0  0  0  0  0  0  0
    0.0995   66.0498   81.8228 N   0  0  0  0  0  0  0  0  0  0  0  0
    0.8980   67.1638   81.6734 C   0  0  0  0  0  0  0  0  0  0  0  0
    1.9835   67.4173   82.4343 C   0  0  0  0  0  0  0  0  0  0  0  0
    2.3007   66.4250   83.4937 C   0  0  0  0  0  0  0  0  0  0  0  0
    3.2396   66.5627   84.2712 O   0  0  0  0  0  0  0  0  0  0  0  0
    1.4752   65.3468   83.5554 N   0  0  0  0  0  0  0  0  0  0  0  0
    1.6746   64.6681   84.2780 H   0  0  0  0  0  0  0  0  0  0  0  0
    0.4280   68.0750   80.5546 C   0  0  0  0  0  0  0  0  0  0  0  0
   -0.8060   67.5223   79.8523 C   0  0  0  0  0  0  0  0  0  0  0  0
    2.9247   68.5867   82.3252 C   0  0  0  0  0  0  0  0  0  0  0  0
    2.4057   69.8074   83.0714 C   0  0  0  0  0  0  0  0  0  0  0  0
   -2.5272   61.5675   80.3671 S   0  0  0  0  0  0  0  0  0  0  0  0
   -2.3125   60.1392   80.4154 O   0  0  0  0  0  0  0  0  0  0  0  0
   -3.8548   62.1205   80.2023 O   0  0  0  0  0  0  0  0  0  0  0  0
   -1.5439   62.2475   79.1815 N   0  0  0  0  0  0  0  0  0  0  0  0
   -0.1857   61.7005   78.9641 C   0  0  0  0  0  0  0  0  0  0  0  0
    0.0540   61.7751   77.4597 C   0  0  0  0  0  0  0  0  0  0  0  0
   -0.9602   62.7917   76.9615 C   0  0  0  0  0  0  0  0  0  0  0  0
   -2.1675   62.5626   77.8691 C   0  0  0  0  0  0  0  0  0  0  0  0
   -3.1056   61.5351   77.2633 C   0  0  0  0  0  0  0  0  0  0  0  0
   -2.7840   60.4279   76.8592 O   0  0  0  0  0  0  0  0  0  0  0  0
   -4.4002   61.9060   77.2544 O   0  0  0  0  0  0  0  0  0  0  0  0
   -4.8642   61.1932   76.7679 H   0  0  0  0  0  0  0  0  0  0  0  0
   -0.1544   63.9330   85.2924 O   0  0  0  0  0  0  0  0  0  0  0  0
    0.0056   63.1316   86.4657 C   0  0  0  0  0  0  0  0  0  0  0  0
   -2.2219   63.1168   87.6753 C   0  0  0  0  0  0  0  0  0  0  0  0
   -0.8335   63.7356   87.5902 C   0  0  0  0  0  0  0  0  0  0  0  0
 33 34  1  0  0  0
 34 32  1  0  0  0
 32 31  1  0  0  0
 31  1  1  0  0  0
  1  2  1  0  0  0
  2  3  2  0  0  0
  3  4  1  0  0  0
  4 19  1  0  0  0
 19 20  2  0  0  0
 19 21  2  0  0  0
 19 22  1  0  0  0
 22 23  1  0  0  0
 23 24  1  0  0  0
 24 25  1  0  0  0
 25 26  1  0  0  0
 26 27  1  0  0  0
 27 28  2  0  0  0
 27 29  1  0  0  0
  4  5  2  0  0  0
  5  6  1  0  0  0
  6  7  1  0  0  0
  7  8  2  0  0  0
  8  9  1  0  0  0
  9 15  1  0  0  0
 15 16  1  0  0  0
  9 10  2  0  0  0
 10 17  1  0  0  0
 17 18  1  0  0  0
 10 11  1  0  0  0
 11 12  2  0  0  0
 11 13  1  0  0  0
  6  1  2  0  0  0
 13  7  1  0  0  0
 26 22  1  0  0  0
 29 30  1  0  0  0
 13 14  1  0  0  0
M  END
> <minimizedAffinity>
-8.93041

$$$$



 34 36  0  0  0  0  0  0  0  0999 V2000
   -0.0525   66.1143   80.3278 C   0  0  0  0  0  0  0  0  0  0  0  0
   -0.2588   66.2420   78.9449 C   0  0  0  0  0  0  0  0  0  0  0  0
   -0.5013   65.1195   78.1491 C   0  0  0  0  0  0  0  0  0  0  0  0
   -0.5393   63.8561   78.7338 C   0  0  0  0  0  0  0  0  0  0  0  0
   -0.3566   63.7074   80.1091 C   0  0  0  0  0  0  0  0  0  0  0  0
   -0.0984   64.8292   80.9181 C   0  0  0  0  0  0  0  0  0  0  0  0
    0.1277   64.5614   82.3791 C   0  0  0  0  0  0  0  0  0  0  0  0
   -0.4608   63.5677   82.9659 N   0  0  0  0  0  0  0  0  0  0  0  0
   -0.2328   63.3503   84.3082 C   0  0  0  0  0  0  0  0  0  0  0  0
    0.5837   64.1137   85.0646 C   0  0  0  0  0  0  0  0  0  0  0  0
    1.2714   65.2370   84.3769 C   0  0  0  0  0  0  0  0  0  0  0  0
    2.0644   65.9782   84.9485 O   0  0  0  0  0  0  0  0  0  0  0  0
    0.9715   65.3921   83.0602 N   0  0  0  0  0  0  0  0  0  0  0  0
    1.4397   66.1476   82.5779 H   0  0  0  0  0  0  0  0  0  0  0  0
   -1.0048   62.1605   84.8478 C   0  0  0  0  0  0  0  0  0  0  0  0
   -2.4828   62.4800   85.0352 C   0  0  0  0  0  0  0  0  0  0  0  0
    0.8696   63.9688   86.5351 C   0  0  0  0  0  0  0  0  0  0  0  0
   -0.3189   64.3839   87.3903 C   0  0  0  0  0  0  0  0  0  0  0  0
   -0.8732   62.4294   77.7257 S   0  0  0  0  0  0  0  0  0  0  0  0
   -1.6867   62.8552   76.6097 O   0  0  0  0  0  0  0  0  0  0  0  0
    0.3851   61.7446   77.5175 O   0  0  0  0  0  0  0  0  0  0  0  0
   -1.7966   61.4866   78.7715 N   0  0  0  0  0  0  0  0  0  0  0  0
   -3.2397   61.7771   78.9270 C   0  0  0  0  0  0  0  0  0  0  0  0
   -3.9198   60.4210   79.0832 C   0  0  0  0  0  0  0  0  0  0  0  0
   -2.8007   59.4777   79.4934 C   0  0  0  0  0  0  0  0  0  0  0  0
   -1.5881   60.0150   78.7353 C   0  0  0  0  0  0  0  0  0  0  0  0
   -1.4665   59.3478   77.3777 C   0  0  0  0  0  0  0  0  0  0  0  0
   -2.3679   59.2220   76.5627 O   0  0  0  0  0  0  0  0  0  0  0  0
   -0.2210   58.9351   77.0742 O   0  0  0  0  0  0  0  0  0  0  0  0
   -0.3127   58.4593   76.2227 H   0  0  0  0  0  0  0  0  0  0  0  0
    0.1910   67.1846   81.1520 O   0  0  0  0  0  0  0  0  0  0  0  0
    0.7606   68.3665   80.5834 C   0  0  0  0  0  0  0  0  0  0  0  0
    2.0388   68.8094   82.7270 C   0  0  0  0  0  0  0  0  0  0  0  0
    2.1278   68.6074   81.2207 C   0  0  0  0  0  0  0  0  0  0  0  0
 33 34  1  0  0  0
 34 32  1  0  0  0
 32 31  1  0  0  0
 31  1  1  0  0  0
  1  2  1  0  0  0
  2  3  2  0  0  0
  3  4  1  0  0  0
  4 19  1  0  0  0
 19 20  2  0  0  0
 19 21  2  0  0  0
 19 22  1  0  0  0
 22 23  1  0  0  0
 23 24  1  0  0  0
 24 25  1  0  0  0
 25 26  1  0  0  0
 26 27  1  0  0  0
 27 28  2  0  0  0
 27 29  1  0  0  0
  4  5  2  0  0  0
  5  6  1  0  0  0
  6  7  1  0  0  0
  7  8  2  0  0  0
  8  9  1  0  0  0
  9 15  1  0  0  0
 15 16  1  0  0  0
  9 10  2  0  0  0
 10 17  1  0  0  0
 17 18  1  0  0  0
 10 11  1  0  0  0
 11 12  2  0  0  0
 11 13  1  0  0  0
  6  1  2  0  0  0
 13  7  1  0  0  0
 26 22  1  0  0  0
 29 30  1  0  0  0
 13 14  1  0  0  0
M  END
> <minimizedAffinity>
-8.83910

$$$$



 34 36  0  0  0  0  0  0  0  0999 V2000
    0.2380   64.3378   84.2627 C   0  0  0  0  0  0  0  0  0  0  0  0
   -0.4267   63.1032   84.1911 C   0  0  0  0  0  0  0  0  0  0  0  0
   -0.6408   62.4740   82.9622 C   0  0  0  0  0  0  0  0  0  0  0  0
   -0.1893   63.0779   81.7914 C   0  0  0  0  0  0  0  0  0  0  0  0
    0.4910   64.2951   81.8403 C   0  0  0  0  0  0  0  0  0  0  0  0
    0.7005   64.9443   83.0709 C   0  0  0  0  0  0  0  0  0  0  0  0
    1.4040   66.2707   83.0151 C   0  0  0  0  0  0  0  0  0  0  0  0
    2.5202   66.4520   83.6470 N   0  0  0  0  0  0  0  0  0  0  0  0
    3.1395   67.6818   83.5763 C   0  0  0  0  0  0  0  0  0  0  0  0
    2.6552   68.7273   82.8736 C   0  0  0  0  0  0  0  0  0  0  0  0
    1.3863   68.5021   82.1340 C   0  0  0  0  0  0  0  0  0  0  0  0
    0.8664   69.3635   81.4320 O   0  0  0  0  0  0  0  0  0  0  0  0
    0.8331   67.2688   82.2777 N   0  0  0  0  0  0  0  0  0  0  0  0
   -0.0263   67.0994   81.7723 H   0  0  0  0  0  0  0  0  0  0  0  0
    4.4253   67.7366   84.3804 C   0  0  0  0  0  0  0  0  0  0  0  0
    5.0487   66.3567   84.5497 C   0  0  0  0  0  0  0  0  0  0  0  0
    3.2454   70.1073   82.7623 C   0  0  0  0  0  0  0  0  0  0  0  0
    4.0831   70.2689   81.5020 C   0  0  0  0  0  0  0  0  0  0  0  0
   -0.4389   62.2653   80.2291 S   0  0  0  0  0  0  0  0  0  0  0  0
   -0.6123   63.2860   79.2208 O   0  0  0  0  0  0  0  0  0  0  0  0
    0.5874   61.2525   80.1012 O   0  0  0  0  0  0  0  0  0  0  0  0
   -1.9021   61.4744   80.4908 N   0  0  0  0  0  0  0  0  0  0  0  0
   -3.1562   62.2602   80.5205 C   0  0  0  0  0  0  0  0  0  0  0  0
   -4.2121   61.3785   79.8618 C   0  0  0  0  0  0  0  0  0  0  0  0
   -3.6349   59.9742   79.9325 C   0  0  0  0  0  0  0  0  0  0  0  0
   -2.1334   60.1987   79.7631 C   0  0  0  0  0  0  0  0  0  0  0  0
   -1.7446   60.1360   78.2976 C   0  0  0  0  0  0  0  0  0  0  0  0
   -2.2802   60.7564   77.3915 O   0  0  0  0  0  0  0  0  0  0  0  0
   -0.6709   59.3639   78.0431 O   0  0  0  0  0  0  0  0  0  0  0  0
   -0.5925   59.3538   77.0664 H   0  0  0  0  0  0  0  0  0  0  0  0
    0.4713   64.9970   85.4439 O   0  0  0  0  0  0  0  0  0  0  0  0
    1.0045   64.2554   86.5440 C   0  0  0  0  0  0  0  0  0  0  0  0
    0.2788   63.0669   88.6620 C   0  0  0  0  0  0  0  0  0  0  0  0
   -0.0842   64.0997   87.6041 C   0  0  0  0  0  0  0  0  0  0  0  0
 33 34  1  0  0  0
 34 32  1  0  0  0
 32 31  1  0  0  0
 31  1  1  0  0  0
  1  2  1  0  0  0
  2  3  2  0  0  0
  3  4  1  0  0  0
  4 19  1  0  0  0
 19 20  2  0  0  0
 19 21  2  0  0  0
 19 22  1  0  0  0
 22 23  1  0  0  0
 23 24  1  0  0  0
 24 25  1  0  0  0
 25 26  1  0  0  0
 26 27  1  0  0  0
 27 28  2  0  0  0
 27 29  1  0  0  0
  4  5  2  0  0  0
  5  6  1  0  0  0
  6  7  1  0  0  0
  7  8  2  0  0  0
  8  9  1  0  0  0
  9 15  1  0  0  0
 15 16  1  0  0  0
  9 10  2  0  0  0
 10 17  1  0  0  0
 17 18  1  0  0  0
 10 11  1  0  0  0
 11 12  2  0  0  0
 11 13  1  0  0  0
  6  1  2  0  0  0
 13  7  1  0  0  0
 26 22  1  0  0  0
 29 30  1  0  0  0
 13 14  1  0  0  0
M  END
> <minimizedAffinity>
-8.64239

$$$$



 34 36  0  0  0  0  0  0  0  0999 V2000
    3.7388   66.5772   84.6423 C   0  0  0  0  0  0  0  0  0  0  0  0
    4.5451   67.6422   84.2100 C   0  0  0  0  0  0  0  0  0  0  0  0
    4.0130   68.6767   83.4362 C   0  0  0  0  0  0  0  0  0  0  0  0
    2.6647   68.6530   83.0882 C   0  0  0  0  0  0  0  0  0  0  0  0
    1.8402   67.6148   83.5231 C   0  0  0  0  0  0  0  0  0  0  0  0
    2.3681   66.5609   84.2915 C   0  0  0  0  0  0  0  0  0  0  0  0
    1.4104   65.4683   84.6741 C   0  0  0  0  0  0  0  0  0  0  0  0
    0.5935   64.9718   83.7999 N   0  0  0  0  0  0  0  0  0  0  0  0
   -0.2735   63.9708   84.1839 C   0  0  0  0  0  0  0  0  0  0  0  0
   -0.3241   63.4589   85.4316 C   0  0  0  0  0  0  0  0  0  0  0  0
    0.6324   64.0194   86.4209 C   0  0  0  0  0  0  0  0  0  0  0  0
    0.7068   63.6118   87.5755 O   0  0  0  0  0  0  0  0  0  0  0  0
    1.4339   65.0174   85.9633 N   0  0  0  0  0  0  0  0  0  0  0  0
    2.0959   65.4017   86.6240 H   0  0  0  0  0  0  0  0  0  0  0  0
   -1.1719   63.5084   83.0517 C   0  0  0  0  0  0  0  0  0  0  0  0
   -0.9056   64.2788   81.7644 C   0  0  0  0  0  0  0  0  0  0  0  0
   -1.2515   62.3907   85.9456 C   0  0  0  0  0  0  0  0  0  0  0  0
   -2.5544   62.9733   86.4741 C   0  0  0  0  0  0  0  0  0  0  0  0
    1.9809   69.9824   82.1248 S   0  0  0  0  0  0  0  0  0  0  0  0
    1.6624   71.0658   83.0267 O   0  0  0  0  0  0  0  0  0  0  0  0
    2.8549   70.1855   80.9888 O   0  0  0  0  0  0  0  0  0  0  0  0
    0.5586   69.2865   81.5522 N   0  0  0  0  0  0  0  0  0  0  0  0
   -0.3786   70.1058   80.7514 C   0  0  0  0  0  0  0  0  0  0  0  0
   -0.9486   69.1665   79.6935 C   0  0  0  0  0  0  0  0  0  0  0  0
   -0.6866   67.7725   80.2397 C   0  0  0  0  0  0  0  0  0  0  0  0
    0.6477   67.9220   80.9685 C   0  0  0  0  0  0  0  0  0  0  0  0
    1.8050   67.6234   80.0334 C   0  0  0  0  0  0  0  0  0  0  0  0
    2.5293   66.6409   80.0877 O   0  0  0  0  0  0  0  0  0  0  0  0
    1.9592   68.5204   79.0408 O   0  0  0  0  0  0  0  0  0  0  0  0
    2.7788   68.2475   78.5784 H   0  0  0  0  0  0  0  0  0  0  0  0
    4.2134   65.5370   85.4018 O   0  0  0  0  0  0  0  0  0  0  0  0
    5.2127   65.8132   86.3865 C   0  0  0  0  0  0  0  0  0  0  0  0
    5.7213   65.4603   88.8445 C   0  0  0  0  0  0  0  0  0  0  0  0
    4.8917   65.0145   87.6484 C   0  0  0  0  0  0  0  0  0  0  0  0
 33 34  1  0  0  0
 34 32  1  0  0  0
 32 31  1  0  0  0
 31  1  1  0  0  0
  1  2  1  0  0  0
  2  3  2  0  0  0
  3  4  1  0  0  0
  4 19  1  0  0  0
 19 20  2  0  0  0
 19 21  2  0  0  0
 19 22  1  0  0  0
 22 23  1  0  0  0
 23 24  1  0  0  0
 24 25  1  0  0  0
 25 26  1  0  0  0
 26 27  1  0  0  0
 27 28  2  0  0  0
 27 29  1  0  0  0
  4  5  2  0  0  0
  5  6  1  0  0  0
  6  7  1  0  0  0
  7  8  2  0  0  0
  8  9  1  0  0  0
  9 15  1  0  0  0
 15 16  1  0  0  0
  9 10  2  0  0  0
 10 17  1  0  0  0
 17 18  1  0  0  0
 10 11  1  0  0  0
 11 12  2  0  0  0
 11 13  1  0  0  0
  6  1  2  0  0  0
 13  7  1  0  0  0
 26 22  1  0  0  0
 29 30  1  0  0  0
 13 14  1  0  0  0
M  END
> <minimizedAffinity>
-8.63128

$$$$
