


 35 38  0  0  0  0  0  0  0  0999 V2000
   -1.7110   62.5224   83.5360 N   0  0  0  0  0  0  0  0  0  0  0  0
   -2.5353   61.4701   83.1881 C   0  0  0  0  0  0  0  0  0  0  0  0
   -3.1476   60.7557   83.9764 O   0  0  0  0  0  0  0  0  0  0  0  0
   -2.6834   61.1649   81.6756 C   0  0  0  0  0  0  0  0  0  0  0  0
   -2.0735   61.8731   80.7717 N   0  0  0  0  0  0  0  0  0  0  0  0
   -1.2884   62.9508   81.1907 C   0  0  0  0  0  0  0  0  0  0  0  0
   -0.7202   63.6500   80.1873 N   0  0  0  0  0  0  0  0  0  0  0  0
    0.0334   64.7121   80.5652 C   0  0  0  0  0  0  0  0  0  0  0  0
    0.2273   65.0921   81.8931 C   0  0  0  0  0  0  0  0  0  0  0  0
   -0.3426   64.3700   82.8947 N   0  0  0  0  0  0  0  0  0  0  0  0
   -1.0979   63.3021   82.5347 C   0  0  0  0  0  0  0  0  0  0  0  0
    1.0372   66.2496   82.3081 C   0  0  0  0  0  0  0  0  0  0  0  0
    1.5135   66.4317   83.6155 C   0  0  0  0  0  0  0  0  0  0  0  0
    2.2733   67.5561   83.9456 C   0  0  0  0  0  0  0  0  0  0  0  0
    2.5476   68.4832   82.9567 C   0  0  0  0  0  0  0  0  0  0  0  0
    2.1215   68.3572   81.6864 N   0  0  0  0  0  0  0  0  0  0  0  0
    1.3901   67.2503   81.3967 C   0  0  0  0  0  0  0  0  0  0  0  0
    3.2993   69.5772   83.3328 O   0  0  0  0  0  0  0  0  0  0  0  0
    3.0655   70.7196   82.5152 C   0  0  0  0  0  0  0  0  0  0  0  0
   -3.4977   60.0969   81.3467 N   0  0  0  0  0  0  0  0  0  0  0  0
   -3.9361   59.6465   82.1499 H   0  0  0  0  0  0  0  0  0  0  0  0
   -3.2384   59.2535   80.1912 C   0  0  0  0  0  0  0  0  0  0  0  0
   -3.9393   59.8264   78.9395 C   0  0  0  0  0  0  0  0  0  0  0  0
   -3.1089   60.1250   77.7665 N   0  0  0  0  0  0  0  0  0  0  0  0
   -3.0875   61.5547   77.4112 C   0  0  0  0  0  0  0  0  0  0  0  0
   -1.9636   61.8557   76.4075 C   0  0  0  0  0  0  0  0  0  0  0  0
   -0.6556   61.6016   76.9397 O   0  0  0  0  0  0  0  0  0  0  0  0
   -0.6451   60.6052   77.9700 C   0  0  0  0  0  0  0  0  0  0  0  0
   -1.7525   59.5507   77.8077 C   0  0  0  0  0  0  0  0  0  0  0  0
   -1.5432   62.8841   84.9360 C   0  0  0  0  0  0  0  0  0  0  0  0
   -0.4945   62.0205   85.6439 C   0  0  0  0  0  0  0  0  0  0  0  0
   -0.9342   61.6177   86.9425 O   0  0  0  0  0  0  0  0  0  0  0  0
   -1.7459   62.6000   87.5863 C   0  0  0  0  0  0  0  0  0  0  0  0
    0.2412   62.3048   89.1071 C   0  0  0  0  0  0  0  0  0  0  0  0
   -0.9618   63.1648   88.7642 C   0  0  0  0  0  0  0  0  0  0  0  0
 34 35  1  0  0  0
 35 33  1  0  0  0
 33 32  1  0  0  0
 32 31  1  0  0  0
 31 30  1  0  0  0
 30  1  1  0  0  0
  1  2  1  0  0  0
  2  3  2  0  0  0
  2  4  1  0  0  0
  4 20  1  0  0  0
 20 22  1  0  0  0
 22 23  1  0  0  0
 23 24  1  0  0  0
 24 25  1  0  0  0
 25 26  1  0  0  0
 26 27  1  0  0  0
 27 28  1  0  0  0
 28 29  1  0  0  0
  4  5  2  0  0  0
  5  6  1  0  0  0
  6  7  1  0  0  0
  7  8  2  0  0  0
  8  9  1  0  0  0
  9 12  1  0  0  0
 12 13  2  0  0  0
 13 14  1  0  0  0
 14 15  2  0  0  0
 15 18  1  0  0  0
 18 19  1  0  0  0
 15 16  1  0  0  0
 16 17  2  0  0  0
  9 10  2  0  0  0
 10 11  1  0  0  0
 11  1  1  0  0  0
 29 24  1  0  0  0
 11  6  2  0  0  0
 17 12  1  0  0  0
 20 21  1  0  0  0
M  END
> <minimizedAffinity>
-8.82865

$$$$



 35 38  0  0  0  0  0  0  0  0999 V2000
   -1.6791   62.0724   83.3427 N   0  0  0  0  0  0  0  0  0  0  0  0
   -2.5961   61.2133   82.7692 C   0  0  0  0  0  0  0  0  0  0  0  0
   -3.2092   60.3295   83.3606 O   0  0  0  0  0  0  0  0  0  0  0  0
   -2.8567   61.3773   81.2501 C   0  0  0  0  0  0  0  0  0  0  0  0
   -2.2535   62.2895   80.5469 N   0  0  0  0  0  0  0  0  0  0  0  0
   -1.3694   63.1537   81.1986 C   0  0  0  0  0  0  0  0  0  0  0  0
   -0.8143   64.0888   80.4013 N   0  0  0  0  0  0  0  0  0  0  0  0
    0.0348   64.9520   81.0118 C   0  0  0  0  0  0  0  0  0  0  0  0
    0.3353   64.9117   82.3732 C   0  0  0  0  0  0  0  0  0  0  0  0
   -0.2232   63.9552   83.1624 N   0  0  0  0  0  0  0  0  0  0  0  0
   -1.0735   63.0815   82.5673 C   0  0  0  0  0  0  0  0  0  0  0  0
    1.2495   65.8520   83.0426 C   0  0  0  0  0  0  0  0  0  0  0  0
    1.4064   67.1901   82.6501 C   0  0  0  0  0  0  0  0  0  0  0  0
    2.2956   68.0297   83.3247 C   0  0  0  0  0  0  0  0  0  0  0  0
    3.0146   67.5149   84.3879 C   0  0  0  0  0  0  0  0  0  0  0  0
    2.9003   66.2423   84.8108 N   0  0  0  0  0  0  0  0  0  0  0  0
    2.0236   65.4537   84.1373 C   0  0  0  0  0  0  0  0  0  0  0  0
    3.8811   68.3825   85.0202 O   0  0  0  0  0  0  0  0  0  0  0  0
    5.0815   67.7511   85.4541 C   0  0  0  0  0  0  0  0  0  0  0  0
   -3.7637   60.4971   80.6893 N   0  0  0  0  0  0  0  0  0  0  0  0
   -4.5090   60.2092   81.3232 H   0  0  0  0  0  0  0  0  0  0  0  0
   -3.3813   59.5428   79.6613 C   0  0  0  0  0  0  0  0  0  0  0  0
   -3.6440   60.1310   78.2573 C   0  0  0  0  0  0  0  0  0  0  0  0
   -2.4839   60.3915   77.3963 N   0  0  0  0  0  0  0  0  0  0  0  0
   -2.3418   61.8077   77.0158 C   0  0  0  0  0  0  0  0  0  0  0  0
   -0.9567   62.0780   76.4079 C   0  0  0  0  0  0  0  0  0  0  0  0
    0.1149   61.8492   77.3342 O   0  0  0  0  0  0  0  0  0  0  0  0
   -0.2068   60.8902   78.3497 C   0  0  0  0  0  0  0  0  0  0  0  0
   -1.2137   59.8254   77.8836 C   0  0  0  0  0  0  0  0  0  0  0  0
   -1.4016   61.9945   84.7697 C   0  0  0  0  0  0  0  0  0  0  0  0
   -2.5217   62.6027   85.6196 C   0  0  0  0  0  0  0  0  0  0  0  0
   -2.3695   62.2757   87.0023 O   0  0  0  0  0  0  0  0  0  0  0  0
   -1.0117   62.0363   87.3729 C   0  0  0  0  0  0  0  0  0  0  0  0
    0.4858   64.0580   87.2362 C   0  0  0  0  0  0  0  0  0  0  0  0
   -0.4916   63.2740   88.0931 C   0  0  0  0  0  0  0  0  0  0  0  0
 34 35  1  0  0  0
 35 33  1  0  0  0
 33 32  1  0  0  0
 32 31  1  0  0  0
 31 30  1  0  0  0
 30  1  1  0  0  0
  1  2  1  0  0  0
  2  3  2  0  0  0
  2  4  1  0  0  0
  4 20  1  0  0  0
 20 22  1  0  0  0
 22 23  1  0  0  0
 23 24  1  0  0  0
 24 25  1  0  0  0
 25 26  1  0  0  0
 26 27  1  0  0  0
 27 28  1  0  0  0
 28 29  1  0  0  0
  4  5  2  0  0  0
  5  6  1  0  0  0
  6  7  1  0  0  0
  7  8  2  0  0  0
  8  9  1  0  0  0
  9 12  1  0  0  0
 12 13  2  0  0  0
 13 14  1  0  0  0
 14 15  2  0  0  0
 15 18  1  0  0  0
 18 19  1  0  0  0
 15 16  1  0  0  0
 16 17  2  0  0  0
  9 10  2  0  0  0
 10 11  1  0  0  0
 11  1  1  0  0  0
 29 24  1  0  0  0
 11  6  2  0  0  0
 17 12  1  0  0  0
 20 21  1  0  0  0
M  END
> <minimizedAffinity>
-8.78544

$$$$



 35 38  0  0  0  0  0  0  0  0999 V2000
    0.1396   63.9011   83.7958 N   0  0  0  0  0  0  0  0  0  0  0  0
    0.7537   64.8487   84.5914 C   0  0  0  0  0  0  0  0  0  0  0  0
    0.9103   64.7642   85.8058 O   0  0  0  0  0  0  0  0  0  0  0  0
    1.2734   66.1272   83.8858 C   0  0  0  0  0  0  0  0  0  0  0  0
    1.1523   66.2978   82.6025 N   0  0  0  0  0  0  0  0  0  0  0  0
    0.5591   65.2801   81.8504 C   0  0  0  0  0  0  0  0  0  0  0  0
    0.5044   65.5254   80.5255 N   0  0  0  0  0  0  0  0  0  0  0  0
   -0.0511   64.5462   79.7696 C   0  0  0  0  0  0  0  0  0  0  0  0
   -0.5396   63.3479   80.2898 C   0  0  0  0  0  0  0  0  0  0  0  0
   -0.4883   63.1198   81.6295 N   0  0  0  0  0  0  0  0  0  0  0  0
    0.0621   64.0904   82.4013 C   0  0  0  0  0  0  0  0  0  0  0  0
   -1.1354   62.2779   79.4724 C   0  0  0  0  0  0  0  0  0  0  0  0
   -2.4539   61.8252   79.6326 C   0  0  0  0  0  0  0  0  0  0  0  0
   -2.9573   60.8014   78.8269 C   0  0  0  0  0  0  0  0  0  0  0  0
   -2.1300   60.2465   77.8677 C   0  0  0  0  0  0  0  0  0  0  0  0
   -0.8603   60.6447   77.6665 N   0  0  0  0  0  0  0  0  0  0  0  0
   -0.4030   61.6455   78.4623 C   0  0  0  0  0  0  0  0  0  0  0  0
   -2.6723   59.2374   77.0990 O   0  0  0  0  0  0  0  0  0  0  0  0
   -1.6878   58.4743   76.4087 C   0  0  0  0  0  0  0  0  0  0  0  0
    1.8687   67.0729   84.7001 N   0  0  0  0  0  0  0  0  0  0  0  0
    1.3387   67.2858   85.5450 H   0  0  0  0  0  0  0  0  0  0  0  0
    2.6963   68.1424   84.1664 C   0  0  0  0  0  0  0  0  0  0  0  0
    4.0740   68.1556   84.8651 C   0  0  0  0  0  0  0  0  0  0  0  0
    4.9414   66.9843   84.6902 N   0  0  0  0  0  0  0  0  0  0  0  0
    6.3420   67.3305   84.3921 C   0  0  0  0  0  0  0  0  0  0  0  0
    7.2570   66.1060   84.5484 C   0  0  0  0  0  0  0  0  0  0  0  0
    7.2930   65.6026   85.8915 O   0  0  0  0  0  0  0  0  0  0  0  0
    6.1030   65.8884   86.6376 C   0  0  0  0  0  0  0  0  0  0  0  0
    4.8424   65.9772   85.7614 C   0  0  0  0  0  0  0  0  0  0  0  0
   -0.3509   62.6633   84.3844 C   0  0  0  0  0  0  0  0  0  0  0  0
   -1.7258   62.8290   85.0392 C   0  0  0  0  0  0  0  0  0  0  0  0
   -2.0234   61.7435   85.9197 O   0  0  0  0  0  0  0  0  0  0  0  0
   -2.6419   62.1648   87.1355 C   0  0  0  0  0  0  0  0  0  0  0  0
   -0.7722   62.8826   88.6643 C   0  0  0  0  0  0  0  0  0  0  0  0
   -1.8445   63.3381   87.6912 C   0  0  0  0  0  0  0  0  0  0  0  0
 34 35  1  0  0  0
 35 33  1  0  0  0
 33 32  1  0  0  0
 32 31  1  0  0  0
 31 30  1  0  0  0
 30  1  1  0  0  0
  1  2  1  0  0  0
  2  3  2  0  0  0
  2  4  1  0  0  0
  4 20  1  0  0  0
 20 22  1  0  0  0
 22 23  1  0  0  0
 23 24  1  0  0  0
 24 25  1  0  0  0
 25 26  1  0  0  0
 26 27  1  0  0  0
 27 28  1  0  0  0
 28 29  1  0  0  0
  4  5  2  0  0  0
  5  6  1  0  0  0
  6  7  1  0  0  0
  7  8  2  0  0  0
  8  9  1  0  0  0
  9 12  1  0  0  0
 12 13  2  0  0  0
 13 14  1  0  0  0
 14 15  2  0  0  0
 15 18  1  0  0  0
 18 19  1  0  0  0
 15 16  1  0  0  0
 16 17  2  0  0  0
  9 10  2  0  0  0
 10 11  1  0  0  0
 11  1  1  0  0  0
 29 24  1  0  0  0
 11  6  2  0  0  0
 17 12  1  0  0  0
 20 21  1  0  0  0
M  END
> <minimizedAffinity>
-8.76156

$$$$



 35 38  0  0  0  0  0  0  0  0999 V2000
    0.3785   63.9992   83.6635 N   0  0  0  0  0  0  0  0  0  0  0  0
    0.9223   64.8904   84.5678 C   0  0  0  0  0  0  0  0  0  0  0  0
    1.0304   64.7010   85.7757 O   0  0  0  0  0  0  0  0  0  0  0  0
    1.4233   66.2445   84.0039 C   0  0  0  0  0  0  0  0  0  0  0  0
    1.3505   66.5272   82.7369 N   0  0  0  0  0  0  0  0  0  0  0  0
    0.8282   65.5629   81.8705 C   0  0  0  0  0  0  0  0  0  0  0  0
    0.8206   65.9259   80.5718 N   0  0  0  0  0  0  0  0  0  0  0  0
    0.3347   65.0015   79.7067 C   0  0  0  0  0  0  0  0  0  0  0  0
   -0.1301   63.7451   80.0947 C   0  0  0  0  0  0  0  0  0  0  0  0
   -0.1272   63.3979   81.4096 N   0  0  0  0  0  0  0  0  0  0  0  0
    0.3532   64.3120   82.2895 C   0  0  0  0  0  0  0  0  0  0  0  0
   -0.6503   62.7347   79.1584 C   0  0  0  0  0  0  0  0  0  0  0  0
    0.0397   62.3160   78.0105 C   0  0  0  0  0  0  0  0  0  0  0  0
   -0.5123   61.3560   77.1594 C   0  0  0  0  0  0  0  0  0  0  0  0
   -1.7504   60.8262   77.4738 C   0  0  0  0  0  0  0  0  0  0  0  0
   -2.4537   61.1863   78.5633 N   0  0  0  0  0  0  0  0  0  0  0  0
   -1.8870   62.1175   79.3731 C   0  0  0  0  0  0  0  0  0  0  0  0
   -2.2540   59.8836   76.6014 O   0  0  0  0  0  0  0  0  0  0  0  0
   -1.3810   58.7734   76.4182 C   0  0  0  0  0  0  0  0  0  0  0  0
    1.9477   67.1316   84.9259 N   0  0  0  0  0  0  0  0  0  0  0  0
    1.3446   67.2979   85.7313 H   0  0  0  0  0  0  0  0  0  0  0  0
    2.8264   68.2225   84.5367 C   0  0  0  0  0  0  0  0  0  0  0  0
    4.1595   67.6689   83.9867 C   0  0  0  0  0  0  0  0  0  0  0  0
    5.1197   67.1151   84.9491 N   0  0  0  0  0  0  0  0  0  0  0  0
    5.0428   67.7406   86.2808 C   0  0  0  0  0  0  0  0  0  0  0  0
    5.8155   66.9158   87.3219 C   0  0  0  0  0  0  0  0  0  0  0  0
    5.2686   65.6031   87.5132 O   0  0  0  0  0  0  0  0  0  0  0  0
    4.5738   65.1039   86.3633 C   0  0  0  0  0  0  0  0  0  0  0  0
    5.1293   65.6441   85.0350 C   0  0  0  0  0  0  0  0  0  0  0  0
   -0.0898   62.6972   84.1159 C   0  0  0  0  0  0  0  0  0  0  0  0
   -1.4704   62.7668   84.7761 C   0  0  0  0  0  0  0  0  0  0  0  0
   -1.6310   61.7506   85.7678 O   0  0  0  0  0  0  0  0  0  0  0  0
   -2.5428   62.1199   86.8025 C   0  0  0  0  0  0  0  0  0  0  0  0
   -1.0294   63.0844   88.5711 C   0  0  0  0  0  0  0  0  0  0  0  0
   -2.0210   63.3898   87.4631 C   0  0  0  0  0  0  0  0  0  0  0  0
 34 35  1  0  0  0
 35 33  1  0  0  0
 33 32  1  0  0  0
 32 31  1  0  0  0
 31 30  1  0  0  0
 30  1  1  0  0  0
  1  2  1  0  0  0
  2  3  2  0  0  0
  2  4  1  0  0  0
  4 20  1  0  0  0
 20 22  1  0  0  0
 22 23  1  0  0  0
 23 24  1  0  0  0
 24 25  1  0  0  0
 25 26  1  0  0  0
 26 27  1  0  0  0
 27 28  1  0  0  0
 28 29  1  0  0  0
  4  5  2  0  0  0
  5  6  1  0  0  0
  6  7  1  0  0  0
  7  8  2  0  0  0
  8  9  1  0  0  0
  9 12  1  0  0  0
 12 13  2  0  0  0
 13 14  1  0  0  0
 14 15  2  0  0  0
 15 18  1  0  0  0
 18 19  1  0  0  0
 15 16  1  0  0  0
 16 17  2  0  0  0
  9 10  2  0  0  0
 10 11  1  0  0  0
 11  1  1  0  0  0
 29 24  1  0  0  0
 11  6  2  0  0  0
 17 12  1  0  0  0
 20 21  1  0  0  0
M  END
> <minimizedAffinity>
-8.53073

$$$$



 35 38  0  0  0  0  0  0  0  0999 V2000
    1.0415   65.7038   81.0275 N   0  0  0  0  0  0  0  0  0  0  0  0
    0.9979   65.7850   79.6493 C   0  0  0  0  0  0  0  0  0  0  0  0
    1.6918   66.5249   78.9582 O   0  0  0  0  0  0  0  0  0  0  0  0
   -0.0238   64.8721   78.9245 C   0  0  0  0  0  0  0  0  0  0  0  0
   -0.7960   64.0554   79.5782 N   0  0  0  0  0  0  0  0  0  0  0  0
   -0.6702   63.9923   80.9687 C   0  0  0  0  0  0  0  0  0  0  0  0
   -1.4847   63.0963   81.5622 N   0  0  0  0  0  0  0  0  0  0  0  0
   -1.3709   63.0021   82.9101 C   0  0  0  0  0  0  0  0  0  0  0  0
   -0.4784   63.7601   83.6678 C   0  0  0  0  0  0  0  0  0  0  0  0
    0.3284   64.6683   83.0564 N   0  0  0  0  0  0  0  0  0  0  0  0
    0.2259   64.7775   81.7080 C   0  0  0  0  0  0  0  0  0  0  0  0
   -0.3447   63.6552   85.1304 C   0  0  0  0  0  0  0  0  0  0  0  0
   -1.1377   62.8093   85.9210 C   0  0  0  0  0  0  0  0  0  0  0  0
   -0.9637   62.7606   87.3059 C   0  0  0  0  0  0  0  0  0  0  0  0
    0.0073   63.5608   87.8796 C   0  0  0  0  0  0  0  0  0  0  0  0
    0.7993   64.3859   87.1703 N   0  0  0  0  0  0  0  0  0  0  0  0
    0.6087   64.4059   85.8259 C   0  0  0  0  0  0  0  0  0  0  0  0
    0.1390   63.4787   89.2505 O   0  0  0  0  0  0  0  0  0  0  0  0
    0.2598   62.1389   89.7178 C   0  0  0  0  0  0  0  0  0  0  0  0
   -0.0666   64.9799   77.5467 N   0  0  0  0  0  0  0  0  0  0  0  0
    0.1201   65.9199   77.1980 H   0  0  0  0  0  0  0  0  0  0  0  0
   -0.9356   64.1462   76.7321 C   0  0  0  0  0  0  0  0  0  0  0  0
   -0.4453   62.6814   76.7488 C   0  0  0  0  0  0  0  0  0  0  0  0
   -1.4459   61.6270   76.9534 N   0  0  0  0  0  0  0  0  0  0  0  0
   -1.1160   60.7116   78.0597 C   0  0  0  0  0  0  0  0  0  0  0  0
   -2.3299   59.8508   78.4425 C   0  0  0  0  0  0  0  0  0  0  0  0
   -3.4310   60.6258   78.9383 O   0  0  0  0  0  0  0  0  0  0  0  0
   -3.4519   61.9685   78.4373 C   0  0  0  0  0  0  0  0  0  0  0  0
   -2.8379   62.1038   77.0339 C   0  0  0  0  0  0  0  0  0  0  0  0
    1.9937   66.5124   81.7749 C   0  0  0  0  0  0  0  0  0  0  0  0
    1.4414   67.8984   82.1223 C   0  0  0  0  0  0  0  0  0  0  0  0
    2.0834   68.4466   83.2753 O   0  0  0  0  0  0  0  0  0  0  0  0
    2.4154   67.4591   84.2515 C   0  0  0  0  0  0  0  0  0  0  0  0
    4.5960   66.3537   84.8613 C   0  0  0  0  0  0  0  0  0  0  0  0
    3.8665   67.6704   84.6648 C   0  0  0  0  0  0  0  0  0  0  0  0
 34 35  1  0  0  0
 35 33  1  0  0  0
 33 32  1  0  0  0
 32 31  1  0  0  0
 31 30  1  0  0  0
 30  1  1  0  0  0
  1  2  1  0  0  0
  2  3  2  0  0  0
  2  4  1  0  0  0
  4 20  1  0  0  0
 20 22  1  0  0  0
 22 23  1  0  0  0
 23 24  1  0  0  0
 24 25  1  0  0  0
 25 26  1  0  0  0
 26 27  1  0  0  0
 27 28  1  0  0  0
 28 29  1  0  0  0
  4  5  2  0  0  0
  5  6  1  0  0  0
  6  7  1  0  0  0
  7  8  2  0  0  0
  8  9  1  0  0  0
  9 12  1  0  0  0
 12 13  2  0  0  0
 13 14  1  0  0  0
 14 15  2  0  0  0
 15 18  1  0  0  0
 18 19  1  0  0  0
 15 16  1  0  0  0
 16 17  2  0  0  0
  9 10  2  0  0  0
 10 11  1  0  0  0
 11  1  1  0  0  0
 29 24  1  0  0  0
 11  6  2  0  0  0
 17 12  1  0  0  0
 20 21  1  0  0  0
M  END
> <minimizedAffinity>
-8.50082

$$$$



 35 38  0  0  0  0  0  0  0  0999 V2000
    0.9208   65.5873   81.0347 N   0  0  0  0  0  0  0  0  0  0  0  0
    0.9405   65.6493   79.6550 C   0  0  0  0  0  0  0  0  0  0  0  0
    1.6538   66.3917   78.9866 O   0  0  0  0  0  0  0  0  0  0  0  0
   -0.0311   64.7096   78.8963 C   0  0  0  0  0  0  0  0  0  0  0  0
   -0.8195   63.8886   79.5248 N   0  0  0  0  0  0  0  0  0  0  0  0
   -0.7579   63.8462   80.9204 C   0  0  0  0  0  0  0  0  0  0  0  0
   -1.5845   62.9445   81.4878 N   0  0  0  0  0  0  0  0  0  0  0  0
   -1.5325   62.8703   82.8408 C   0  0  0  0  0  0  0  0  0  0  0  0
   -0.6890   63.6534   83.6285 C   0  0  0  0  0  0  0  0  0  0  0  0
    0.1305   64.5669   83.0426 N   0  0  0  0  0  0  0  0  0  0  0  0
    0.0895   64.6564   81.6895 C   0  0  0  0  0  0  0  0  0  0  0  0
   -0.6223   63.5702   85.0971 C   0  0  0  0  0  0  0  0  0  0  0  0
    0.3957   64.1626   85.8600 C   0  0  0  0  0  0  0  0  0  0  0  0
    0.4038   64.0417   87.2514 C   0  0  0  0  0  0  0  0  0  0  0  0
   -0.6132   63.3291   87.8598 C   0  0  0  0  0  0  0  0  0  0  0  0
   -1.6168   62.7454   87.1791 N   0  0  0  0  0  0  0  0  0  0  0  0
   -1.5987   62.8861   85.8285 C   0  0  0  0  0  0  0  0  0  0  0  0
   -0.5597   63.2363   89.2353 O   0  0  0  0  0  0  0  0  0  0  0  0
    0.3156   62.2088   89.6893 C   0  0  0  0  0  0  0  0  0  0  0  0
   -0.0111   64.7983   77.5166 N   0  0  0  0  0  0  0  0  0  0  0  0
    0.2456   65.7200   77.1637 H   0  0  0  0  0  0  0  0  0  0  0  0
   -0.8943   64.0049   76.6776 C   0  0  0  0  0  0  0  0  0  0  0  0
   -0.4545   62.5240   76.6835 C   0  0  0  0  0  0  0  0  0  0  0  0
   -1.4825   61.5057   76.9307 N   0  0  0  0  0  0  0  0  0  0  0  0
   -1.1970   60.6552   78.0994 C   0  0  0  0  0  0  0  0  0  0  0  0
   -2.4377   59.8459   78.5075 C   0  0  0  0  0  0  0  0  0  0  0  0
   -3.5318   60.6734   78.9283 O   0  0  0  0  0  0  0  0  0  0  0  0
   -3.5120   61.9820   78.3439 C   0  0  0  0  0  0  0  0  0  0  0  0
   -2.8649   62.0156   76.9493 C   0  0  0  0  0  0  0  0  0  0  0  0
    1.8236   66.4219   81.8142 C   0  0  0  0  0  0  0  0  0  0  0  0
    1.3209   67.8626   81.9501 C   0  0  0  0  0  0  0  0  0  0  0  0
    2.1658   68.7823   81.2557 O   0  0  0  0  0  0  0  0  0  0  0  0
    1.4481   69.8740   80.6801 C   0  0  0  0  0  0  0  0  0  0  0  0
   -0.5054   71.2743   81.4361 C   0  0  0  0  0  0  0  0  0  0  0  0
    0.0365   69.8681   81.2534 C   0  0  0  0  0  0  0  0  0  0  0  0
 34 35  1  0  0  0
 35 33  1  0  0  0
 33 32  1  0  0  0
 32 31  1  0  0  0
 31 30  1  0  0  0
 30  1  1  0  0  0
  1  2  1  0  0  0
  2  3  2  0  0  0
  2  4  1  0  0  0
  4 20  1  0  0  0
 20 22  1  0  0  0
 22 23  1  0  0  0
 23 24  1  0  0  0
 24 25  1  0  0  0
 25 26  1  0  0  0
 26 27  1  0  0  0
 27 28  1  0  0  0
 28 29  1  0  0  0
  4  5  2  0  0  0
  5  6  1  0  0  0
  6  7  1  0  0  0
  7  8  2  0  0  0
  8  9  1  0  0  0
  9 12  1  0  0  0
 12 13  2  0  0  0
 13 14  1  0  0  0
 14 15  2  0  0  0
 15 18  1  0  0  0
 18 19  1  0  0  0
 15 16  1  0  0  0
 16 17  2  0  0  0
  9 10  2  0  0  0
 10 11  1  0  0  0
 11  1  1  0  0  0
 29 24  1  0  0  0
 11  6  2  0  0  0
 17 12  1  0  0  0
 20 21  1  0  0  0
M  END
> <minimizedAffinity>
-8.36662

$$$$



 35 38  0  0  0  0  0  0  0  0999 V2000
   -0.2493   63.7069   81.1454 N   0  0  0  0  0  0  0  0  0  0  0  0
   -0.3979   62.4928   80.5038 C   0  0  0  0  0  0  0  0  0  0  0  0
   -0.9773   61.5125   80.9621 O   0  0  0  0  0  0  0  0  0  0  0  0
    0.2334   62.3620   79.0942 C   0  0  0  0  0  0  0  0  0  0  0  0
    0.8622   63.3512   78.5315 N   0  0  0  0  0  0  0  0  0  0  0  0
    0.9388   64.5659   79.2185 C   0  0  0  0  0  0  0  0  0  0  0  0
    1.5785   65.5459   78.5486 N   0  0  0  0  0  0  0  0  0  0  0  0
    1.6522   66.7409   79.1853 C   0  0  0  0  0  0  0  0  0  0  0  0
    1.1097   66.9818   80.4474 C   0  0  0  0  0  0  0  0  0  0  0  0
    0.4777   65.9802   81.1158 N   0  0  0  0  0  0  0  0  0  0  0  0
    0.3971   64.7769   80.4944 C   0  0  0  0  0  0  0  0  0  0  0  0
    1.1792   68.2799   81.1391 C   0  0  0  0  0  0  0  0  0  0  0  0
    0.2832   69.3329   80.8997 C   0  0  0  0  0  0  0  0  0  0  0  0
    0.4074   70.5426   81.5867 C   0  0  0  0  0  0  0  0  0  0  0  0
    1.4294   70.6784   82.5083 C   0  0  0  0  0  0  0  0  0  0  0  0
    2.3132   69.7010   82.7818 N   0  0  0  0  0  0  0  0  0  0  0  0
    2.1618   68.5358   82.1010 C   0  0  0  0  0  0  0  0  0  0  0  0
    1.5116   71.8922   83.1590 O   0  0  0  0  0  0  0  0  0  0  0  0
    2.6810   72.6288   82.8153 C   0  0  0  0  0  0  0  0  0  0  0  0
    0.0909   61.1341   78.4746 N   0  0  0  0  0  0  0  0  0  0  0  0
    0.7009   60.4073   78.8484 H   0  0  0  0  0  0  0  0  0  0  0  0
   -0.2807   61.0128   77.0743 C   0  0  0  0  0  0  0  0  0  0  0  0
   -1.1733   59.7702   76.8607 C   0  0  0  0  0  0  0  0  0  0  0  0
   -2.5229   59.7896   77.4378 N   0  0  0  0  0  0  0  0  0  0  0  0
   -2.5524   59.4570   78.8728 C   0  0  0  0  0  0  0  0  0  0  0  0
   -3.9128   59.8123   79.4924 C   0  0  0  0  0  0  0  0  0  0  0  0
   -4.1981   61.2178   79.4470 O   0  0  0  0  0  0  0  0  0  0  0  0
   -3.5393   61.8968   78.3703 C   0  0  0  0  0  0  0  0  0  0  0  0
   -3.3041   61.0033   77.1410 C   0  0  0  0  0  0  0  0  0  0  0  0
   -0.8375   63.9121   82.4611 C   0  0  0  0  0  0  0  0  0  0  0  0
    0.0591   63.3976   83.5917 C   0  0  0  0  0  0  0  0  0  0  0  0
   -0.4847   62.2257   84.2023 O   0  0  0  0  0  0  0  0  0  0  0  0
   -0.8062   62.4128   85.5807 C   0  0  0  0  0  0  0  0  0  0  0  0
   -2.7568   62.9566   87.0801 C   0  0  0  0  0  0  0  0  0  0  0  0
   -2.3233   62.4657   85.7106 C   0  0  0  0  0  0  0  0  0  0  0  0
 34 35  1  0  0  0
 35 33  1  0  0  0
 33 32  1  0  0  0
 32 31  1  0  0  0
 31 30  1  0  0  0
 30  1  1  0  0  0
  1  2  1  0  0  0
  2  3  2  0  0  0
  2  4  1  0  0  0
  4 20  1  0  0  0
 20 22  1  0  0  0
 22 23  1  0  0  0
 23 24  1  0  0  0
 24 25  1  0  0  0
 25 26  1  0  0  0
 26 27  1  0  0  0
 27 28  1  0  0  0
 28 29  1  0  0  0
  4  5  2  0  0  0
  5  6  1  0  0  0
  6  7  1  0  0  0
  7  8  2  0  0  0
  8  9  1  0  0  0
  9 12  1  0  0  0
 12 13  2  0  0  0
 13 14  1  0  0  0
 14 15  2  0  0  0
 15 18  1  0  0  0
 18 19  1  0  0  0
 15 16  1  0  0  0
 16 17  2  0  0  0
  9 10  2  0  0  0
 10 11  1  0  0  0
 11  1  1  0  0  0
 29 24  1  0  0  0
 11  6  2  0  0  0
 17 12  1  0  0  0
 20 21  1  0  0  0
M  END
> <minimizedAffinity>
-8.35601

$$$$



 35 38  0  0  0  0  0  0  0  0999 V2000
   -0.6856   63.3181   83.7029 N   0  0  0  0  0  0  0  0  0  0  0  0
   -1.2637   62.0919   83.4381 C   0  0  0  0  0  0  0  0  0  0  0  0
   -1.7729   61.3505   84.2733 O   0  0  0  0  0  0  0  0  0  0  0  0
   -1.2524   61.6145   81.9634 C   0  0  0  0  0  0  0  0  0  0  0  0
   -0.7368   62.3379   81.0139 N   0  0  0  0  0  0  0  0  0  0  0  0
   -0.2067   63.5880   81.3449 C   0  0  0  0  0  0  0  0  0  0  0  0
    0.2761   64.2843   80.2958 N   0  0  0  0  0  0  0  0  0  0  0  0
    0.7811   65.5088   80.5864 C   0  0  0  0  0  0  0  0  0  0  0  0
    0.8117   66.0500   81.8714 C   0  0  0  0  0  0  0  0  0  0  0  0
    0.3319   65.3308   82.9212 N   0  0  0  0  0  0  0  0  0  0  0  0
   -0.1749   64.1022   82.6489 C   0  0  0  0  0  0  0  0  0  0  0  0
    1.3507   67.3825   82.1907 C   0  0  0  0  0  0  0  0  0  0  0  0
    2.2235   67.6276   83.2619 C   0  0  0  0  0  0  0  0  0  0  0  0
    2.6951   68.9178   83.5143 C   0  0  0  0  0  0  0  0  0  0  0  0
    2.2859   69.9461   82.6851 C   0  0  0  0  0  0  0  0  0  0  0  0
    1.4555   69.7681   81.6411 N   0  0  0  0  0  0  0  0  0  0  0  0
    1.0194   68.5013   81.4194 C   0  0  0  0  0  0  0  0  0  0  0  0
    2.7770   71.2019   82.9767 O   0  0  0  0  0  0  0  0  0  0  0  0
    2.3955   72.1840   82.0186 C   0  0  0  0  0  0  0  0  0  0  0  0
   -1.8187   60.3769   81.7196 N   0  0  0  0  0  0  0  0  0  0  0  0
   -1.1538   59.6714   81.4030 H   0  0  0  0  0  0  0  0  0  0  0  0
   -3.1893   60.2310   81.2571 C   0  0  0  0  0  0  0  0  0  0  0  0
   -3.2514   59.2590   80.0581 C   0  0  0  0  0  0  0  0  0  0  0  0
   -3.1569   59.8295   78.7089 N   0  0  0  0  0  0  0  0  0  0  0  0
   -3.5266   61.2543   78.6470 C   0  0  0  0  0  0  0  0  0  0  0  0
   -3.0975   61.8768   77.3093 C   0  0  0  0  0  0  0  0  0  0  0  0
   -1.6752   61.8696   77.1198 O   0  0  0  0  0  0  0  0  0  0  0  0
   -1.0126   60.8160   77.8305 C   0  0  0  0  0  0  0  0  0  0  0  0
   -1.8853   59.5631   78.0135 C   0  0  0  0  0  0  0  0  0  0  0  0
   -0.6816   63.8434   85.0605 C   0  0  0  0  0  0  0  0  0  0  0  0
    0.6669   63.6496   85.7610 C   0  0  0  0  0  0  0  0  0  0  0  0
    0.5438   63.7639   87.1801 O   0  0  0  0  0  0  0  0  0  0  0  0
   -0.8133   63.7734   87.6235 C   0  0  0  0  0  0  0  0  0  0  0  0
    0.3367   62.1825   89.2031 C   0  0  0  0  0  0  0  0  0  0  0  0
   -0.8768   63.0645   88.9705 C   0  0  0  0  0  0  0  0  0  0  0  0
 34 35  1  0  0  0
 35 33  1  0  0  0
 33 32  1  0  0  0
 32 31  1  0  0  0
 31 30  1  0  0  0
 30  1  1  0  0  0
  1  2  1  0  0  0
  2  3  2  0  0  0
  2  4  1  0  0  0
  4 20  1  0  0  0
 20 22  1  0  0  0
 22 23  1  0  0  0
 23 24  1  0  0  0
 24 25  1  0  0  0
 25 26  1  0  0  0
 26 27  1  0  0  0
 27 28  1  0  0  0
 28 29  1  0  0  0
  4  5  2  0  0  0
  5  6  1  0  0  0
  6  7  1  0  0  0
  7  8  2  0  0  0
  8  9  1  0  0  0
  9 12  1  0  0  0
 12 13  2  0  0  0
 13 14  1  0  0  0
 14 15  2  0  0  0
 15 18  1  0  0  0
 18 19  1  0  0  0
 15 16  1  0  0  0
 16 17  2  0  0  0
  9 10  2  0  0  0
 10 11  1  0  0  0
 11  1  1  0  0  0
 29 24  1  0  0  0
 11  6  2  0  0  0
 17 12  1  0  0  0
 20 21  1  0  0  0
M  END
> <minimizedAffinity>
-8.27347

$$$$



 35 38  0  0  0  0  0  0  0  0999 V2000
    0.4277   64.1337   83.5106 N   0  0  0  0  0  0  0  0  0  0  0  0
    0.9731   65.0105   84.4280 C   0  0  0  0  0  0  0  0  0  0  0  0
    1.0966   64.7960   85.6302 O   0  0  0  0  0  0  0  0  0  0  0  0
    1.4547   66.3813   83.8881 C   0  0  0  0  0  0  0  0  0  0  0  0
    1.3649   66.6906   82.6284 N   0  0  0  0  0  0  0  0  0  0  0  0
    0.8422   65.7402   81.7471 C   0  0  0  0  0  0  0  0  0  0  0  0
    0.8164   66.1310   80.4567 N   0  0  0  0  0  0  0  0  0  0  0  0
    0.3297   65.2209   79.5772 C   0  0  0  0  0  0  0  0  0  0  0  0
   -0.1187   63.9519   79.9430 C   0  0  0  0  0  0  0  0  0  0  0  0
   -0.0976   63.5763   81.2499 N   0  0  0  0  0  0  0  0  0  0  0  0
    0.3839   64.4759   82.1440 C   0  0  0  0  0  0  0  0  0  0  0  0
   -0.6396   62.9569   78.9908 C   0  0  0  0  0  0  0  0  0  0  0  0
   -1.3159   63.2970   77.8091 C   0  0  0  0  0  0  0  0  0  0  0  0
   -1.7903   62.3033   76.9500 C   0  0  0  0  0  0  0  0  0  0  0  0
   -1.5770   60.9793   77.2875 C   0  0  0  0  0  0  0  0  0  0  0  0
   -0.9307   60.5957   78.4039 N   0  0  0  0  0  0  0  0  0  0  0  0
   -0.4772   61.5859   79.2152 C   0  0  0  0  0  0  0  0  0  0  0  0
   -2.0663   60.0354   76.4083 O   0  0  0  0  0  0  0  0  0  0  0  0
   -1.4217   58.7717   76.5342 C   0  0  0  0  0  0  0  0  0  0  0  0
    1.9809   67.2533   84.8233 N   0  0  0  0  0  0  0  0  0  0  0  0
    1.3216   67.5291   85.5508 H   0  0  0  0  0  0  0  0  0  0  0  0
    3.0157   68.2173   84.4860 C   0  0  0  0  0  0  0  0  0  0  0  0
    4.2914   67.4904   84.0057 C   0  0  0  0  0  0  0  0  0  0  0  0
    5.1829   66.9261   85.0263 N   0  0  0  0  0  0  0  0  0  0  0  0
    5.1009   67.6179   86.3246 C   0  0  0  0  0  0  0  0  0  0  0  0
    5.7859   66.7984   87.4292 C   0  0  0  0  0  0  0  0  0  0  0  0
    5.1526   65.5318   87.6603 O   0  0  0  0  0  0  0  0  0  0  0  0
    4.4667   65.0212   86.5100 C   0  0  0  0  0  0  0  0  0  0  0  0
    5.0984   65.4630   85.1793 C   0  0  0  0  0  0  0  0  0  0  0  0
   -0.0230   62.8177   83.9397 C   0  0  0  0  0  0  0  0  0  0  0  0
   -1.4657   62.8303   84.4548 C   0  0  0  0  0  0  0  0  0  0  0  0
   -2.1609   61.6329   84.1015 O   0  0  0  0  0  0  0  0  0  0  0  0
   -1.7847   61.1265   82.8208 C   0  0  0  0  0  0  0  0  0  0  0  0
   -3.6558   61.0343   81.1359 C   0  0  0  0  0  0  0  0  0  0  0  0
   -2.9507   60.3143   82.2711 C   0  0  0  0  0  0  0  0  0  0  0  0
 34 35  1  0  0  0
 35 33  1  0  0  0
 33 32  1  0  0  0
 32 31  1  0  0  0
 31 30  1  0  0  0
 30  1  1  0  0  0
  1  2  1  0  0  0
  2  3  2  0  0  0
  2  4  1  0  0  0
  4 20  1  0  0  0
 20 22  1  0  0  0
 22 23  1  0  0  0
 23 24  1  0  0  0
 24 25  1  0  0  0
 25 26  1  0  0  0
 26 27  1  0  0  0
 27 28  1  0  0  0
 28 29  1  0  0  0
  4  5  2  0  0  0
  5  6  1  0  0  0
  6  7  1  0  0  0
  7  8  2  0  0  0
  8  9  1  0  0  0
  9 12  1  0  0  0
 12 13  2  0  0  0
 13 14  1  0  0  0
 14 15  2  0  0  0
 15 18  1  0  0  0
 18 19  1  0  0  0
 15 16  1  0  0  0
 16 17  2  0  0  0
  9 10  2  0  0  0
 10 11  1  0  0  0
 11  1  1  0  0  0
 29 24  1  0  0  0
 11  6  2  0  0  0
 17 12  1  0  0  0
 20 21  1  0  0  0
M  END
> <minimizedAffinity>
-8.19571

$$$$
