
     RDKit          3D

 47 49  0  0  0  0  0  0  0  0999 V2000
   -2.9644    3.2870    0.9210 C   0  0  0  0  0  0  0  0  0  0  0  0
   -2.5920    2.1503    1.8560 C   0  0  0  0  0  0  0  0  0  0  0  0
   -2.1979    0.9983    1.1085 O   0  0  0  0  0  0  0  0  0  0  0  0
   -3.1298    0.0269    0.8265 C   0  0  0  0  0  0  0  0  0  0  0  0
   -4.5115    0.2053    0.9868 C   0  0  0  0  0  0  0  0  0  0  0  0
   -5.4067   -0.8219    0.6773 C   0  0  0  0  0  0  0  0  0  0  0  0
   -4.9349   -2.0370    0.1980 C   0  0  0  0  0  0  0  0  0  0  0  0
   -3.5650   -2.2235    0.0211 C   0  0  0  0  0  0  0  0  0  0  0  0
   -2.6436   -1.2038    0.3237 C   0  0  0  0  0  0  0  0  0  0  0  0
   -1.2159   -1.4854    0.0942 C   0  0  0  0  0  0  0  0  0  0  0  0
   -0.6984   -2.6257   -0.3451 N   0  0  0  0  0  0  0  0  0  0  0  0
    0.6595   -2.4218   -0.4162 C   0  0  0  0  0  0  0  0  0  0  0  0
    1.7011   -3.3306   -0.8373 C   0  0  0  0  0  0  0  0  0  0  0  0
    1.4736   -4.4753   -1.2210 O   0  0  0  0  0  0  0  0  0  0  0  0
    2.9868   -2.7636   -0.7651 N   0  0  0  0  0  0  0  0  0  0  0  0
    4.1046   -3.5919   -1.1713 C   0  0  0  0  0  0  0  0  0  0  0  0
    3.3047   -1.4442   -0.3761 C   0  0  0  0  0  0  0  0  0  0  0  0
    4.4694   -1.0352   -0.3910 O   0  0  0  0  0  0  0  0  0  0  0  0
    2.2417   -0.6138    0.0244 N   0  0  0  0  0  0  0  0  0  0  0  0
    2.5179    0.7631    0.4370 C   0  0  0  0  0  0  0  0  0  0  0  0
    2.1935    1.8025   -0.6532 C   0  0  0  0  0  0  0  0  0  0  0  0
    3.1138    1.6687   -1.8674 C   0  0  0  0  0  0  0  0  0  0  0  0
    2.3002    3.2136   -0.0719 C   0  0  0  0  0  0  0  0  0  0  0  0
    0.9755   -1.1550   -0.0201 C   0  0  0  0  0  0  0  0  0  0  0  0
   -0.2065   -0.5670    0.3050 N   0  0  0  0  0  0  0  0  0  0  0  0
   -3.8247    3.0275    0.2972 H   0  0  0  0  0  0  0  0  0  0  0  0
   -3.2037    4.1913    1.4877 H   0  0  0  0  0  0  0  0  0  0  0  0
   -2.1357    3.5082    0.2399 H   0  0  0  0  0  0  0  0  0  0  0  0
   -3.3735    1.9349    2.5926 H   0  0  0  0  0  0  0  0  0  0  0  0
   -1.7128    2.4552    2.4353 H   0  0  0  0  0  0  0  0  0  0  0  0
   -4.9347    1.1392    1.3403 H   0  0  0  0  0  0  0  0  0  0  0  0
   -6.4754   -0.6693    0.8075 H   0  0  0  0  0  0  0  0  0  0  0  0
   -5.6271   -2.8392   -0.0447 H   0  0  0  0  0  0  0  0  0  0  0  0
   -3.2077   -3.1793   -0.3623 H   0  0  0  0  0  0  0  0  0  0  0  0
    3.8160   -4.6292   -1.3580 H   0  0  0  0  0  0  0  0  0  0  0  0
    4.8710   -3.5763   -0.3893 H   0  0  0  0  0  0  0  0  0  0  0  0
    4.5361   -3.1728   -2.0863 H   0  0  0  0  0  0  0  0  0  0  0  0
    3.5672    0.8567    0.7413 H   0  0  0  0  0  0  0  0  0  0  0  0
    1.9214    0.9607    1.3368 H   0  0  0  0  0  0  0  0  0  0  0  0
    1.1615    1.6605   -0.9966 H   0  0  0  0  0  0  0  0  0  0  0  0
    2.9822    0.6999   -2.3591 H   0  0  0  0  0  0  0  0  0  0  0  0
    2.8919    2.4434   -2.6092 H   0  0  0  0  0  0  0  0  0  0  0  0
    4.1665    1.7674   -1.5816 H   0  0  0  0  0  0  0  0  0  0  0  0
    2.0451    3.9658   -0.8259 H   0  0  0  0  0  0  0  0  0  0  0  0
    1.6113    3.3400    0.7701 H   0  0  0  0  0  0  0  0  0  0  0  0
    3.3148    3.4213    0.2847 H   0  0  0  0  0  0  0  0  0  0  0  0
   -0.3655    0.3741    0.6359 H   0  0  0  0  0  0  0  0  0  0  0  0
  1  2  1  0
  2  3  1  0
  3  4  1  0
  4  5  2  0
  5  6  1  0
  6  7  2  0
  7  8  1  0
  8  9  2  0
  9 10  1  0
 10 11  2  0
 11 12  1  0
 12 13  1  0
 13 14  2  0
 13 15  1  0
 15 16  1  0
 15 17  1  0
 17 18  2  0
 17 19  1  0
 19 20  1  0
 20 21  1  0
 21 22  1  0
 21 23  1  0
 19 24  1  0
 24 25  1  0
  9  4  1  0
 25 10  1  0
 24 12  2  0
  1 26  1  0
  1 27  1  0
  1 28  1  0
  2 29  1  0
  2 30  1  0
  5 31  1  0
  6 32  1  0
  7 33  1  0
  8 34  1  0
 16 35  1  0
 16 36  1  0
 16 37  1  0
 20 38  1  0
 20 39  1  0
 21 40  1  0
 22 41  1  0
 22 42  1  0
 22 43  1  0
 23 44  1  0
 23 45  1  0
 23 46  1  0
 25 47  1  0
M  END
$$$$
