


 36 41  0  0  0  0  0  0  0  0999 V2000
    0.6009   68.4707   81.3346 N   0  0  0  0  0  0  0  0  0  0  0  0
   -0.1088   67.4776   80.6223 C   0  0  0  0  0  0  0  0  0  0  0  0
   -0.7483   67.7120   79.5978 O   0  0  0  0  0  0  0  0  0  0  0  0
   -0.0115   66.1324   81.1991 C   0  0  0  0  0  0  0  0  0  0  0  0
   -0.5826   64.9728   80.7467 N   0  0  0  0  0  0  0  0  0  0  0  0
   -0.1921   64.0279   81.5865 C   0  0  0  0  0  0  0  0  0  0  0  0
    0.6048   64.5575   82.5985 N   0  0  0  0  0  0  0  0  0  0  0  0
    0.7385   65.8948   82.3294 C   0  0  0  0  0  0  0  0  0  0  0  0
    1.4325   66.8820   82.9299 N   0  0  0  0  0  0  0  0  0  0  0  0
    2.2199   66.8579   84.1314 C   0  0  0  0  0  0  0  0  0  0  0  0
    2.7903   68.2983   84.1616 C   0  0  0  0  0  0  0  0  0  0  0  0
    2.0789   69.0673   83.0830 N   0  0  0  0  0  0  0  0  0  0  0  0
    1.3768   68.1696   82.4480 C   0  0  0  0  0  0  0  0  0  0  0  0
   -0.5020   70.6686   81.4997 C   0  0  0  0  0  0  0  0  0  0  0  0
    0.5722   69.8327   80.8187 C   0  0  0  0  0  0  0  0  0  0  0  0
   -0.5460   62.5742   81.4407 C   0  0  0  0  0  0  0  0  0  0  0  0
   -1.7418   62.3066   80.5527 C   0  0  0  0  0  0  0  0  0  0  0  0
   -3.0005   62.0574   81.1211 C   0  0  0  0  0  0  0  0  0  0  0  0
   -4.1065   61.7988   80.3098 C   0  0  0  0  0  0  0  0  0  0  0  0
   -3.9649   61.7738   78.9239 C   0  0  0  0  0  0  0  0  0  0  0  0
   -2.7164   61.9990   78.3477 C   0  0  0  0  0  0  0  0  0  0  0  0
   -1.6091   62.2573   79.1568 C   0  0  0  0  0  0  0  0  0  0  0  0
    1.1246   63.8095   83.7323 C   0  0  0  0  0  0  0  0  0  0  0  0
    0.1487   63.6807   84.8780 C   0  0  0  0  0  0  0  0  0  0  0  0
    0.4779   64.2504   86.1191 C   0  0  0  0  0  0  0  0  0  0  0  0
   -0.3816   64.1280   87.2122 C   0  0  0  0  0  0  0  0  0  0  0  0
   -1.5761   63.4243   87.0841 C   0  0  0  0  0  0  0  0  0  0  0  0
   -1.9091   62.8385   85.8655 C   0  0  0  0  0  0  0  0  0  0  0  0
   -1.0505   62.9590   84.7708 C   0  0  0  0  0  0  0  0  0  0  0  0
    4.3049   68.3116   83.8942 C   0  0  0  0  0  0  0  0  0  0  0  0
    5.0832   67.4258   84.8403 C   0  0  0  0  0  0  0  0  0  0  0  0
    5.0037   67.6215   86.2253 C   0  0  0  0  0  0  0  0  0  0  0  0
    5.7177   66.8016   87.1002 C   0  0  0  0  0  0  0  0  0  0  0  0
    6.5183   65.7771   86.5995 C   0  0  0  0  0  0  0  0  0  0  0  0
    6.6032   65.5704   85.2241 C   0  0  0  0  0  0  0  0  0  0  0  0
    5.8883   66.3892   84.3476 C   0  0  0  0  0  0  0  0  0  0  0  0
 14 15  1  0  0  0
 15  1  1  0  0  0
  1  2  1  0  0  0
  2  3  2  0  0  0
  2  4  1  0  0  0
  4  5  1  0  0  0
  5  6  2  0  0  0
  6 16  1  0  0  0
 16 17  1  0  0  0
 17 18  2  0  0  0
 18 19  1  0  0  0
 19 20  2  0  0  0
 20 21  1  0  0  0
 21 22  2  0  0  0
  6  7  1  0  0  0
  7 23  1  0  0  0
 23 24  1  0  0  0
 24 25  2  0  0  0
 25 26  1  0  0  0
 26 27  2  0  0  0
 27 28  1  0  0  0
 28 29  2  0  0  0
  7  8  1  0  0  0
  8  9  1  0  0  0
  9 10  1  0  0  0
 10 11  1  0  0  0
 11 30  1  0  0  0
 30 31  1  0  0  0
 31 32  2  0  0  0
 32 33  1  0  0  0
 33 34  2  0  0  0
 34 35  1  0  0  0
 35 36  2  0  0  0
 11 12  1  0  0  0
 12 13  2  0  0  0
 13  1  1  0  0  0
  8  4  2  0  0  0
 13  9  1  0  0  0
 22 17  1  0  0  0
 29 24  1  0  0  0
 36 31  1  0  0  0
M  END
> <minimizedAffinity>
-11.54772

$$$$



 36 41  0  0  0  0  0  0  0  0999 V2000
    0.5093   67.6074   81.2237 N   0  0  0  0  0  0  0  0  0  0  0  0
   -0.2014   66.5944   80.5411 C   0  0  0  0  0  0  0  0  0  0  0  0
   -0.7501   66.7730   79.4546 O   0  0  0  0  0  0  0  0  0  0  0  0
   -0.2227   65.2998   81.2304 C   0  0  0  0  0  0  0  0  0  0  0  0
   -0.8239   64.1361   80.8302 N   0  0  0  0  0  0  0  0  0  0  0  0
   -0.5498   63.2474   81.7713 C   0  0  0  0  0  0  0  0  0  0  0  0
    0.1998   63.8202   82.7960 N   0  0  0  0  0  0  0  0  0  0  0  0
    0.4281   65.1214   82.4309 C   0  0  0  0  0  0  0  0  0  0  0  0
    1.1311   66.1198   83.0017 N   0  0  0  0  0  0  0  0  0  0  0  0
    1.8260   66.1581   84.2586 C   0  0  0  0  0  0  0  0  0  0  0  0
    2.4732   67.5654   84.2164 C   0  0  0  0  0  0  0  0  0  0  0  0
    1.8871   68.2749   83.0275 N   0  0  0  0  0  0  0  0  0  0  0  0
    1.1836   67.3631   82.4146 C   0  0  0  0  0  0  0  0  0  0  0  0
    1.8420   69.0506   79.7353 C   0  0  0  0  0  0  0  0  0  0  0  0
    0.5955   68.9204   80.5989 C   0  0  0  0  0  0  0  0  0  0  0  0
   -0.9737   61.8063   81.7164 C   0  0  0  0  0  0  0  0  0  0  0  0
   -1.8531   61.4565   80.5355 C   0  0  0  0  0  0  0  0  0  0  0  0
   -3.2265   61.7426   80.5699 C   0  0  0  0  0  0  0  0  0  0  0  0
   -4.0468   61.4136   79.4896 C   0  0  0  0  0  0  0  0  0  0  0  0
   -3.5072   60.7842   78.3696 C   0  0  0  0  0  0  0  0  0  0  0  0
   -2.1490   60.4758   78.3316 C   0  0  0  0  0  0  0  0  0  0  0  0
   -1.3270   60.8035   79.4106 C   0  0  0  0  0  0  0  0  0  0  0  0
    0.5922   63.1457   84.0233 C   0  0  0  0  0  0  0  0  0  0  0  0
   -0.4636   63.1795   85.1030 C   0  0  0  0  0  0  0  0  0  0  0  0
   -0.1235   63.6783   86.3714 C   0  0  0  0  0  0  0  0  0  0  0  0
   -1.0603   63.6988   87.4060 C   0  0  0  0  0  0  0  0  0  0  0  0
   -2.3461   63.2098   87.1916 C   0  0  0  0  0  0  0  0  0  0  0  0
   -2.6941   62.6956   85.9452 C   0  0  0  0  0  0  0  0  0  0  0  0
   -1.7584   62.6735   84.9089 C   0  0  0  0  0  0  0  0  0  0  0  0
    4.0017   67.4797   84.0670 C   0  0  0  0  0  0  0  0  0  0  0  0
    4.6777   66.8154   85.2448 C   0  0  0  0  0  0  0  0  0  0  0  0
    5.0632   67.5689   86.3613 C   0  0  0  0  0  0  0  0  0  0  0  0
    5.6830   66.9564   87.4514 C   0  0  0  0  0  0  0  0  0  0  0  0
    5.9233   65.5841   87.4368 C   0  0  0  0  0  0  0  0  0  0  0  0
    5.5416   64.8234   86.3335 C   0  0  0  0  0  0  0  0  0  0  0  0
    4.9203   65.4347   85.2427 C   0  0  0  0  0  0  0  0  0  0  0  0
 14 15  1  0  0  0
 15  1  1  0  0  0
  1  2  1  0  0  0
  2  3  2  0  0  0
  2  4  1  0  0  0
  4  5  1  0  0  0
  5  6  2  0  0  0
  6 16  1  0  0  0
 16 17  1  0  0  0
 17 18  2  0  0  0
 18 19  1  0  0  0
 19 20  2  0  0  0
 20 21  1  0  0  0
 21 22  2  0  0  0
  6  7  1  0  0  0
  7 23  1  0  0  0
 23 24  1  0  0  0
 24 25  2  0  0  0
 25 26  1  0  0  0
 26 27  2  0  0  0
 27 28  1  0  0  0
 28 29  2  0  0  0
  7  8  1  0  0  0
  8  9  1  0  0  0
  9 10  1  0  0  0
 10 11  1  0  0  0
 11 30  1  0  0  0
 30 31  1  0  0  0
 31 32  2  0  0  0
 32 33  1  0  0  0
 33 34  2  0  0  0
 34 35  1  0  0  0
 35 36  2  0  0  0
 11 12  1  0  0  0
 12 13  2  0  0  0
 13  1  1  0  0  0
  8  4  2  0  0  0
 13  9  1  0  0  0
 22 17  1  0  0  0
 29 24  1  0  0  0
 36 31  1  0  0  0
M  END
> <minimizedAffinity>
-11.32117

$$$$



 36 41  0  0  0  0  0  0  0  0999 V2000
   -0.5780   63.0490   85.7516 N   0  0  0  0  0  0  0  0  0  0  0  0
    0.5253   63.9279   85.6651 C   0  0  0  0  0  0  0  0  0  0  0  0
    1.3292   64.0908   86.5820 O   0  0  0  0  0  0  0  0  0  0  0  0
    0.6438   64.6267   84.3809 C   0  0  0  0  0  0  0  0  0  0  0  0
    1.5936   65.5345   83.9943 N   0  0  0  0  0  0  0  0  0  0  0  0
    1.2886   65.8668   82.7505 C   0  0  0  0  0  0  0  0  0  0  0  0
    0.1362   65.2096   82.3263 N   0  0  0  0  0  0  0  0  0  0  0  0
   -0.2535   64.3997   83.3612 C   0  0  0  0  0  0  0  0  0  0  0  0
   -1.2550   63.5077   83.4951 N   0  0  0  0  0  0  0  0  0  0  0  0
   -2.3157   63.1675   82.5876 C   0  0  0  0  0  0  0  0  0  0  0  0
   -3.0237   62.0187   83.3491 C   0  0  0  0  0  0  0  0  0  0  0  0
   -2.4212   61.9776   84.7261 N   0  0  0  0  0  0  0  0  0  0  0  0
   -1.4310   62.8255   84.6770 C   0  0  0  0  0  0  0  0  0  0  0  0
   -1.5985   63.0734   87.9949 C   0  0  0  0  0  0  0  0  0  0  0  0
   -0.7590   62.3002   86.9880 C   0  0  0  0  0  0  0  0  0  0  0  0
    2.1023   66.8089   81.9079 C   0  0  0  0  0  0  0  0  0  0  0  0
    1.6741   68.2577   81.9968 C   0  0  0  0  0  0  0  0  0  0  0  0
    0.5893   68.7203   81.2363 C   0  0  0  0  0  0  0  0  0  0  0  0
    0.1946   70.0575   81.3040 C   0  0  0  0  0  0  0  0  0  0  0  0
    0.8864   70.9490   82.1214 C   0  0  0  0  0  0  0  0  0  0  0  0
    1.9783   70.5070   82.8656 C   0  0  0  0  0  0  0  0  0  0  0  0
    2.3750   69.1707   82.7992 C   0  0  0  0  0  0  0  0  0  0  0  0
   -0.5223   65.4171   81.0464 C   0  0  0  0  0  0  0  0  0  0  0  0
   -0.1110   64.4286   79.9807 C   0  0  0  0  0  0  0  0  0  0  0  0
   -0.1667   64.8196   78.6326 C   0  0  0  0  0  0  0  0  0  0  0  0
    0.1752   63.9273   77.6151 C   0  0  0  0  0  0  0  0  0  0  0  0
    0.5655   62.6283   77.9293 C   0  0  0  0  0  0  0  0  0  0  0  0
    0.6090   62.2195   79.2597 C   0  0  0  0  0  0  0  0  0  0  0  0
    0.2667   63.1101   80.2793 C   0  0  0  0  0  0  0  0  0  0  0  0
   -2.8132   60.6645   82.6508 C   0  0  0  0  0  0  0  0  0  0  0  0
   -2.9763   60.7381   81.1497 C   0  0  0  0  0  0  0  0  0  0  0  0
   -3.9689   61.5470   80.5810 C   0  0  0  0  0  0  0  0  0  0  0  0
   -4.1175   61.6198   79.1953 C   0  0  0  0  0  0  0  0  0  0  0  0
   -3.2750   60.8851   78.3637 C   0  0  0  0  0  0  0  0  0  0  0  0
   -2.2820   60.0795   78.9172 C   0  0  0  0  0  0  0  0  0  0  0  0
   -2.1312   60.0066   80.3035 C   0  0  0  0  0  0  0  0  0  0  0  0
 14 15  1  0  0  0
 15  1  1  0  0  0
  1  2  1  0  0  0
  2  3  2  0  0  0
  2  4  1  0  0  0
  4  5  1  0  0  0
  5  6  2  0  0  0
  6 16  1  0  0  0
 16 17  1  0  0  0
 17 18  2  0  0  0
 18 19  1  0  0  0
 19 20  2  0  0  0
 20 21  1  0  0  0
 21 22  2  0  0  0
  6  7  1  0  0  0
  7 23  1  0  0  0
 23 24  1  0  0  0
 24 25  2  0  0  0
 25 26  1  0  0  0
 26 27  2  0  0  0
 27 28  1  0  0  0
 28 29  2  0  0  0
  7  8  1  0  0  0
  8  9  1  0  0  0
  9 10  1  0  0  0
 10 11  1  0  0  0
 11 30  1  0  0  0
 30 31  1  0  0  0
 31 32  2  0  0  0
 32 33  1  0  0  0
 33 34  2  0  0  0
 34 35  1  0  0  0
 35 36  2  0  0  0
 11 12  1  0  0  0
 12 13  2  0  0  0
 13  1  1  0  0  0
  8  4  2  0  0  0
 13  9  1  0  0  0
 22 17  1  0  0  0
 29 24  1  0  0  0
 36 31  1  0  0  0
M  END
> <minimizedAffinity>
-11.17448

$$$$



 36 41  0  0  0  0  0  0  0  0999 V2000
    0.3207   64.2378   80.0531 N   0  0  0  0  0  0  0  0  0  0  0  0
    0.7478   65.4823   79.5373 C   0  0  0  0  0  0  0  0  0  0  0  0
    0.7114   65.7625   78.3400 O   0  0  0  0  0  0  0  0  0  0  0  0
    1.2300   66.4252   80.5521 C   0  0  0  0  0  0  0  0  0  0  0  0
    1.7075   67.6958   80.3699 N   0  0  0  0  0  0  0  0  0  0  0  0
    1.9994   68.1474   81.5788 C   0  0  0  0  0  0  0  0  0  0  0  0
    1.7453   67.1800   82.5480 N   0  0  0  0  0  0  0  0  0  0  0  0
    1.2289   66.0947   81.8890 C   0  0  0  0  0  0  0  0  0  0  0  0
    0.7589   64.9060   82.3163 N   0  0  0  0  0  0  0  0  0  0  0  0
    0.7202   64.3507   83.6409 C   0  0  0  0  0  0  0  0  0  0  0  0
   -0.0287   63.0158   83.3997 C   0  0  0  0  0  0  0  0  0  0  0  0
   -0.1394   62.8457   81.9099 N   0  0  0  0  0  0  0  0  0  0  0  0
    0.3019   63.9701   81.4170 C   0  0  0  0  0  0  0  0  0  0  0  0
    0.9337   62.4516   78.4693 C   0  0  0  0  0  0  0  0  0  0  0  0
   -0.1912   63.2489   79.1139 C   0  0  0  0  0  0  0  0  0  0  0  0
    2.5108   69.5330   81.8583 C   0  0  0  0  0  0  0  0  0  0  0  0
    1.4511   70.6125   81.8151 C   0  0  0  0  0  0  0  0  0  0  0  0
    1.7804   71.9372   82.1406 C   0  0  0  0  0  0  0  0  0  0  0  0
    0.8068   72.9371   82.1139 C   0  0  0  0  0  0  0  0  0  0  0  0
   -0.5076   72.6226   81.7746 C   0  0  0  0  0  0  0  0  0  0  0  0
   -0.8520   71.3074   81.4696 C   0  0  0  0  0  0  0  0  0  0  0  0
    0.1196   70.3060   81.4960 C   0  0  0  0  0  0  0  0  0  0  0  0
    2.0401   67.3179   83.9654 C   0  0  0  0  0  0  0  0  0  0  0  0
    3.4690   66.9872   84.3269 C   0  0  0  0  0  0  0  0  0  0  0  0
    3.7563   65.7292   84.8821 C   0  0  0  0  0  0  0  0  0  0  0  0
    5.0582   65.3947   85.2585 C   0  0  0  0  0  0  0  0  0  0  0  0
    6.0890   66.3166   85.0972 C   0  0  0  0  0  0  0  0  0  0  0  0
    5.8180   67.5744   84.5646 C   0  0  0  0  0  0  0  0  0  0  0  0
    4.5162   67.9115   84.1880 C   0  0  0  0  0  0  0  0  0  0  0  0
   -1.4340   63.0358   84.0247 C   0  0  0  0  0  0  0  0  0  0  0  0
   -1.4122   63.0396   85.5362 C   0  0  0  0  0  0  0  0  0  0  0  0
   -0.2195   63.2838   86.2297 C   0  0  0  0  0  0  0  0  0  0  0  0
   -0.1987   63.2925   87.6250 C   0  0  0  0  0  0  0  0  0  0  0  0
   -1.3702   63.0576   88.3417 C   0  0  0  0  0  0  0  0  0  0  0  0
   -2.5634   62.8167   87.6635 C   0  0  0  0  0  0  0  0  0  0  0  0
   -2.5859   62.8090   86.2674 C   0  0  0  0  0  0  0  0  0  0  0  0
 14 15  1  0  0  0
 15  1  1  0  0  0
  1  2  1  0  0  0
  2  3  2  0  0  0
  2  4  1  0  0  0
  4  5  1  0  0  0
  5  6  2  0  0  0
  6 16  1  0  0  0
 16 17  1  0  0  0
 17 18  2  0  0  0
 18 19  1  0  0  0
 19 20  2  0  0  0
 20 21  1  0  0  0
 21 22  2  0  0  0
  6  7  1  0  0  0
  7 23  1  0  0  0
 23 24  1  0  0  0
 24 25  2  0  0  0
 25 26  1  0  0  0
 26 27  2  0  0  0
 27 28  1  0  0  0
 28 29  2  0  0  0
  7  8  1  0  0  0
  8  9  1  0  0  0
  9 10  1  0  0  0
 10 11  1  0  0  0
 11 30  1  0  0  0
 30 31  1  0  0  0
 31 32  2  0  0  0
 32 33  1  0  0  0
 33 34  2  0  0  0
 34 35  1  0  0  0
 35 36  2  0  0  0
 11 12  1  0  0  0
 12 13  2  0  0  0
 13  1  1  0  0  0
  8  4  2  0  0  0
 13  9  1  0  0  0
 22 17  1  0  0  0
 29 24  1  0  0  0
 36 31  1  0  0  0
M  END
> <minimizedAffinity>
-11.11601

$$$$



 36 41  0  0  0  0  0  0  0  0999 V2000
   -1.5323   63.0574   85.8957 N   0  0  0  0  0  0  0  0  0  0  0  0
   -2.4153   62.1029   85.3422 C   0  0  0  0  0  0  0  0  0  0  0  0
   -3.4413   61.7279   85.9080 O   0  0  0  0  0  0  0  0  0  0  0  0
   -2.0147   61.6001   84.0237 C   0  0  0  0  0  0  0  0  0  0  0  0
   -2.6531   60.6773   83.2386 N   0  0  0  0  0  0  0  0  0  0  0  0
   -1.9199   60.5685   82.1426 C   0  0  0  0  0  0  0  0  0  0  0  0
   -0.7952   61.3872   82.2109 N   0  0  0  0  0  0  0  0  0  0  0  0
   -0.8769   62.0626   83.4008 C   0  0  0  0  0  0  0  0  0  0  0  0
   -0.1063   63.0133   83.9656 N   0  0  0  0  0  0  0  0  0  0  0  0
    1.1325   63.5853   83.5156 C   0  0  0  0  0  0  0  0  0  0  0  0
    1.3901   64.6655   84.5962 C   0  0  0  0  0  0  0  0  0  0  0  0
    0.3759   64.4399   85.6830 N   0  0  0  0  0  0  0  0  0  0  0  0
   -0.4177   63.5207   85.2062 C   0  0  0  0  0  0  0  0  0  0  0  0
   -1.1816   62.8691   88.3280 C   0  0  0  0  0  0  0  0  0  0  0  0
   -1.8657   63.6225   87.1963 C   0  0  0  0  0  0  0  0  0  0  0  0
   -2.2789   59.6941   80.9738 C   0  0  0  0  0  0  0  0  0  0  0  0
   -2.5590   60.4466   79.6911 C   0  0  0  0  0  0  0  0  0  0  0  0
   -3.4497   61.5311   79.6900 C   0  0  0  0  0  0  0  0  0  0  0  0
   -3.7221   62.2239   78.5093 C   0  0  0  0  0  0  0  0  0  0  0  0
   -3.1185   61.8335   77.3157 C   0  0  0  0  0  0  0  0  0  0  0  0
   -2.2484   60.7453   77.2993 C   0  0  0  0  0  0  0  0  0  0  0  0
   -1.9748   60.0509   78.4784 C   0  0  0  0  0  0  0  0  0  0  0  0
    0.2633   61.4397   81.2150 C   0  0  0  0  0  0  0  0  0  0  0  0
    0.0734   62.5219   80.1784 C   0  0  0  0  0  0  0  0  0  0  0  0
    0.6663   62.3647   78.9147 C   0  0  0  0  0  0  0  0  0  0  0  0
    0.5413   63.3547   77.9385 C   0  0  0  0  0  0  0  0  0  0  0  0
   -0.1672   64.5208   78.2153 C   0  0  0  0  0  0  0  0  0  0  0  0
   -0.7462   64.6999   79.4691 C   0  0  0  0  0  0  0  0  0  0  0  0
   -0.6217   63.7113   80.4474 C   0  0  0  0  0  0  0  0  0  0  0  0
    1.2306   66.0848   84.0252 C   0  0  0  0  0  0  0  0  0  0  0  0
    2.5222   66.8702   84.0155 C   0  0  0  0  0  0  0  0  0  0  0  0
    3.6961   66.3151   84.5417 C   0  0  0  0  0  0  0  0  0  0  0  0
    4.8903   67.0370   84.5291 C   0  0  0  0  0  0  0  0  0  0  0  0
    4.9236   68.3212   83.9897 C   0  0  0  0  0  0  0  0  0  0  0  0
    3.7635   68.8830   83.4605 C   0  0  0  0  0  0  0  0  0  0  0  0
    2.5681   68.1614   83.4713 C   0  0  0  0  0  0  0  0  0  0  0  0
 14 15  1  0  0  0
 15  1  1  0  0  0
  1  2  1  0  0  0
  2  3  2  0  0  0
  2  4  1  0  0  0
  4  5  1  0  0  0
  5  6  2  0  0  0
  6 16  1  0  0  0
 16 17  1  0  0  0
 17 18  2  0  0  0
 18 19  1  0  0  0
 19 20  2  0  0  0
 20 21  1  0  0  0
 21 22  2  0  0  0
  6  7  1  0  0  0
  7 23  1  0  0  0
 23 24  1  0  0  0
 24 25  2  0  0  0
 25 26  1  0  0  0
 26 27  2  0  0  0
 27 28  1  0  0  0
 28 29  2  0  0  0
  7  8  1  0  0  0
  8  9  1  0  0  0
  9 10  1  0  0  0
 10 11  1  0  0  0
 11 30  1  0  0  0
 30 31  1  0  0  0
 31 32  2  0  0  0
 32 33  1  0  0  0
 33 34  2  0  0  0
 34 35  1  0  0  0
 35 36  2  0  0  0
 11 12  1  0  0  0
 12 13  2  0  0  0
 13  1  1  0  0  0
  8  4  2  0  0  0
 13  9  1  0  0  0
 22 17  1  0  0  0
 29 24  1  0  0  0
 36 31  1  0  0  0
M  END
> <minimizedAffinity>
-11.04576

$$$$



 36 41  0  0  0  0  0  0  0  0999 V2000
   -0.4716   64.1514   82.7378 N   0  0  0  0  0  0  0  0  0  0  0  0
    0.2006   64.4957   83.9323 C   0  0  0  0  0  0  0  0  0  0  0  0
    0.0369   63.8952   84.9934 O   0  0  0  0  0  0  0  0  0  0  0  0
    1.1254   65.6268   83.8024 C   0  0  0  0  0  0  0  0  0  0  0  0
    1.9124   66.1936   84.7693 N   0  0  0  0  0  0  0  0  0  0  0  0
    2.5780   67.1659   84.1673 C   0  0  0  0  0  0  0  0  0  0  0  0
    2.2175   67.2614   82.8254 N   0  0  0  0  0  0  0  0  0  0  0  0
    1.3117   66.2592   82.5933 C   0  0  0  0  0  0  0  0  0  0  0  0
    0.6739   65.8448   81.4805 N   0  0  0  0  0  0  0  0  0  0  0  0
    0.6852   66.3921   80.1521 C   0  0  0  0  0  0  0  0  0  0  0  0
   -0.1833   65.3654   79.3824 C   0  0  0  0  0  0  0  0  0  0  0  0
   -0.7902   64.4543   80.4131 N   0  0  0  0  0  0  0  0  0  0  0  0
   -0.2161   64.7968   81.5333 C   0  0  0  0  0  0  0  0  0  0  0  0
   -0.6893   61.7097   82.4830 C   0  0  0  0  0  0  0  0  0  0  0  0
   -1.3957   63.0260   82.7745 C   0  0  0  0  0  0  0  0  0  0  0  0
    3.6051   68.0280   84.8466 C   0  0  0  0  0  0  0  0  0  0  0  0
    4.9254   67.3380   85.1123 C   0  0  0  0  0  0  0  0  0  0  0  0
    5.9509   67.3854   84.1554 C   0  0  0  0  0  0  0  0  0  0  0  0
    7.1679   66.7425   84.3876 C   0  0  0  0  0  0  0  0  0  0  0  0
    7.3691   66.0353   85.5712 C   0  0  0  0  0  0  0  0  0  0  0  0
    6.3515   65.9630   86.5202 C   0  0  0  0  0  0  0  0  0  0  0  0
    5.1338   66.6046   86.2901 C   0  0  0  0  0  0  0  0  0  0  0  0
    2.6926   68.2793   81.9017 C   0  0  0  0  0  0  0  0  0  0  0  0
    1.8868   69.5565   81.9333 C   0  0  0  0  0  0  0  0  0  0  0  0
    2.4441   70.6976   82.5339 C   0  0  0  0  0  0  0  0  0  0  0  0
    1.7216   71.8894   82.6116 C   0  0  0  0  0  0  0  0  0  0  0  0
    0.4277   71.9544   82.1017 C   0  0  0  0  0  0  0  0  0  0  0  0
   -0.1460   70.8273   81.5189 C   0  0  0  0  0  0  0  0  0  0  0  0
    0.5747   69.6338   81.4407 C   0  0  0  0  0  0  0  0  0  0  0  0
    0.6594   64.5412   78.3943 C   0  0  0  0  0  0  0  0  0  0  0  0
   -0.1278   63.4462   77.7111 C   0  0  0  0  0  0  0  0  0  0  0  0
   -1.3234   63.7410   77.0426 C   0  0  0  0  0  0  0  0  0  0  0  0
   -2.0488   62.7321   76.4073 C   0  0  0  0  0  0  0  0  0  0  0  0
   -1.5862   61.4181   76.4332 C   0  0  0  0  0  0  0  0  0  0  0  0
   -0.3969   61.1129   77.0921 C   0  0  0  0  0  0  0  0  0  0  0  0
    0.3306   62.1215   77.7270 C   0  0  0  0  0  0  0  0  0  0  0  0
 14 15  1  0  0  0
 15  1  1  0  0  0
  1  2  1  0  0  0
  2  3  2  0  0  0
  2  4  1  0  0  0
  4  5  1  0  0  0
  5  6  2  0  0  0
  6 16  1  0  0  0
 16 17  1  0  0  0
 17 18  2  0  0  0
 18 19  1  0  0  0
 19 20  2  0  0  0
 20 21  1  0  0  0
 21 22  2  0  0  0
  6  7  1  0  0  0
  7 23  1  0  0  0
 23 24  1  0  0  0
 24 25  2  0  0  0
 25 26  1  0  0  0
 26 27  2  0  0  0
 27 28  1  0  0  0
 28 29  2  0  0  0
  7  8  1  0  0  0
  8  9  1  0  0  0
  9 10  1  0  0  0
 10 11  1  0  0  0
 11 30  1  0  0  0
 30 31  1  0  0  0
 31 32  2  0  0  0
 32 33  1  0  0  0
 33 34  2  0  0  0
 34 35  1  0  0  0
 35 36  2  0  0  0
 11 12  1  0  0  0
 12 13  2  0  0  0
 13  1  1  0  0  0
  8  4  2  0  0  0
 13  9  1  0  0  0
 22 17  1  0  0  0
 29 24  1  0  0  0
 36 31  1  0  0  0
M  END
> <minimizedAffinity>
-10.93593

$$$$



 36 41  0  0  0  0  0  0  0  0999 V2000
   -0.7037   63.2341   84.2717 N   0  0  0  0  0  0  0  0  0  0  0  0
    0.1533   63.9181   85.1633 C   0  0  0  0  0  0  0  0  0  0  0  0
    0.2036   63.6746   86.3681 O   0  0  0  0  0  0  0  0  0  0  0  0
    0.9934   64.9409   84.5311 C   0  0  0  0  0  0  0  0  0  0  0  0
    1.9141   65.7652   85.1215 N   0  0  0  0  0  0  0  0  0  0  0  0
    2.4228   66.4958   84.1427 C   0  0  0  0  0  0  0  0  0  0  0  0
    1.8285   66.1804   82.9233 N   0  0  0  0  0  0  0  0  0  0  0  0
    0.9380   65.1690   83.1741 C   0  0  0  0  0  0  0  0  0  0  0  0
    0.1323   64.4428   82.3741 N   0  0  0  0  0  0  0  0  0  0  0  0
   -0.1127   64.5560   80.9629 C   0  0  0  0  0  0  0  0  0  0  0  0
   -1.0599   63.3557   80.7117 C   0  0  0  0  0  0  0  0  0  0  0  0
   -1.4382   62.8139   82.0623 N   0  0  0  0  0  0  0  0  0  0  0  0
   -0.6907   63.4750   82.9027 C   0  0  0  0  0  0  0  0  0  0  0  0
   -2.7079   62.7682   85.6283 C   0  0  0  0  0  0  0  0  0  0  0  0
   -1.5598   62.1881   84.8148 C   0  0  0  0  0  0  0  0  0  0  0  0
    3.5169   67.5093   84.3309 C   0  0  0  0  0  0  0  0  0  0  0  0
    4.8563   66.9207   84.7181 C   0  0  0  0  0  0  0  0  0  0  0  0
    4.9306   65.9264   85.7056 C   0  0  0  0  0  0  0  0  0  0  0  0
    6.1629   65.3859   86.0765 C   0  0  0  0  0  0  0  0  0  0  0  0
    7.3344   65.8412   85.4749 C   0  0  0  0  0  0  0  0  0  0  0  0
    7.2763   66.8428   84.5080 C   0  0  0  0  0  0  0  0  0  0  0  0
    6.0454   67.3850   84.1359 C   0  0  0  0  0  0  0  0  0  0  0  0
    2.0915   66.8586   81.6640 C   0  0  0  0  0  0  0  0  0  0  0  0
    1.2837   68.1202   81.4695 C   0  0  0  0  0  0  0  0  0  0  0  0
    0.3048   68.1525   80.4626 C   0  0  0  0  0  0  0  0  0  0  0  0
   -0.4426   69.3082   80.2293 C   0  0  0  0  0  0  0  0  0  0  0  0
   -0.2138   70.4514   80.9902 C   0  0  0  0  0  0  0  0  0  0  0  0
    0.7651   70.4416   81.9804 C   0  0  0  0  0  0  0  0  0  0  0  0
    1.5145   69.2869   82.2151 C   0  0  0  0  0  0  0  0  0  0  0  0
   -0.3708   62.2556   79.8866 C   0  0  0  0  0  0  0  0  0  0  0  0
   -1.3032   61.5703   78.9138 C   0  0  0  0  0  0  0  0  0  0  0  0
   -2.4810   62.2016   78.4927 C   0  0  0  0  0  0  0  0  0  0  0  0
   -3.3403   61.5723   77.5909 C   0  0  0  0  0  0  0  0  0  0  0  0
   -3.0308   60.3055   77.1004 C   0  0  0  0  0  0  0  0  0  0  0  0
   -1.8608   59.6686   77.5092 C   0  0  0  0  0  0  0  0  0  0  0  0
   -0.9994   60.2976   78.4104 C   0  0  0  0  0  0  0  0  0  0  0  0
 14 15  1  0  0  0
 15  1  1  0  0  0
  1  2  1  0  0  0
  2  3  2  0  0  0
  2  4  1  0  0  0
  4  5  1  0  0  0
  5  6  2  0  0  0
  6 16  1  0  0  0
 16 17  1  0  0  0
 17 18  2  0  0  0
 18 19  1  0  0  0
 19 20  2  0  0  0
 20 21  1  0  0  0
 21 22  2  0  0  0
  6  7  1  0  0  0
  7 23  1  0  0  0
 23 24  1  0  0  0
 24 25  2  0  0  0
 25 26  1  0  0  0
 26 27  2  0  0  0
 27 28  1  0  0  0
 28 29  2  0  0  0
  7  8  1  0  0  0
  8  9  1  0  0  0
  9 10  1  0  0  0
 10 11  1  0  0  0
 11 30  1  0  0  0
 30 31  1  0  0  0
 31 32  2  0  0  0
 32 33  1  0  0  0
 33 34  2  0  0  0
 34 35  1  0  0  0
 35 36  2  0  0  0
 11 12  1  0  0  0
 12 13  2  0  0  0
 13  1  1  0  0  0
  8  4  2  0  0  0
 13  9  1  0  0  0
 22 17  1  0  0  0
 29 24  1  0  0  0
 36 31  1  0  0  0
M  END
> <minimizedAffinity>
-10.89350

$$$$



 36 41  0  0  0  0  0  0  0  0999 V2000
    0.0078   63.8848   78.9573 N   0  0  0  0  0  0  0  0  0  0  0  0
    0.0492   62.6955   79.7197 C   0  0  0  0  0  0  0  0  0  0  0  0
    0.0274   61.5730   79.2169 O   0  0  0  0  0  0  0  0  0  0  0  0
    0.1332   62.9075   81.1687 C   0  0  0  0  0  0  0  0  0  0  0  0
    0.1861   61.9656   82.1616 N   0  0  0  0  0  0  0  0  0  0  0  0
    0.2722   62.6424   83.2952 C   0  0  0  0  0  0  0  0  0  0  0  0
    0.2490   64.0150   83.0605 N   0  0  0  0  0  0  0  0  0  0  0  0
    0.1883   64.1765   81.7007 C   0  0  0  0  0  0  0  0  0  0  0  0
    0.1958   65.2679   80.9098 N   0  0  0  0  0  0  0  0  0  0  0  0
    0.1928   66.6615   81.2596 C   0  0  0  0  0  0  0  0  0  0  0  0
    0.3006   67.3344   79.8680 C   0  0  0  0  0  0  0  0  0  0  0  0
    0.1243   66.2452   78.8466 N   0  0  0  0  0  0  0  0  0  0  0  0
    0.1078   65.1418   79.5424 C   0  0  0  0  0  0  0  0  0  0  0  0
   -1.4954   63.6935   77.0136 C   0  0  0  0  0  0  0  0  0  0  0  0
   -0.0574   63.7641   77.5071 C   0  0  0  0  0  0  0  0  0  0  0  0
    0.4050   62.0023   84.6489 C   0  0  0  0  0  0  0  0  0  0  0  0
   -0.6623   62.4090   85.6416 C   0  0  0  0  0  0  0  0  0  0  0  0
   -2.0196   62.3006   85.3017 C   0  0  0  0  0  0  0  0  0  0  0  0
   -3.0103   62.6837   86.2072 C   0  0  0  0  0  0  0  0  0  0  0  0
   -2.6564   63.1907   87.4559 C   0  0  0  0  0  0  0  0  0  0  0  0
   -1.3121   63.3231   87.7977 C   0  0  0  0  0  0  0  0  0  0  0  0
   -0.3198   62.9411   86.8939 C   0  0  0  0  0  0  0  0  0  0  0  0
    0.2355   65.0402   84.0919 C   0  0  0  0  0  0  0  0  0  0  0  0
    1.5586   65.7478   84.2668 C   0  0  0  0  0  0  0  0  0  0  0  0
    2.6152   65.0684   84.8954 C   0  0  0  0  0  0  0  0  0  0  0  0
    3.8444   65.6960   85.1045 C   0  0  0  0  0  0  0  0  0  0  0  0
    4.0312   67.0150   84.6998 C   0  0  0  0  0  0  0  0  0  0  0  0
    2.9882   67.7084   84.0911 C   0  0  0  0  0  0  0  0  0  0  0  0
    1.7575   67.0829   83.8816 C   0  0  0  0  0  0  0  0  0  0  0  0
    1.6678   68.0115   79.6726 C   0  0  0  0  0  0  0  0  0  0  0  0
    1.9131   69.1459   80.6413 C   0  0  0  0  0  0  0  0  0  0  0  0
    0.8387   69.7904   81.2684 C   0  0  0  0  0  0  0  0  0  0  0  0
    1.0636   70.8346   82.1666 C   0  0  0  0  0  0  0  0  0  0  0  0
    2.3652   71.2449   82.4476 C   0  0  0  0  0  0  0  0  0  0  0  0
    3.4422   70.6095   81.8327 C   0  0  0  0  0  0  0  0  0  0  0  0
    3.2186   69.5638   80.9348 C   0  0  0  0  0  0  0  0  0  0  0  0
 14 15  1  0  0  0
 15  1  1  0  0  0
  1  2  1  0  0  0
  2  3  2  0  0  0
  2  4  1  0  0  0
  4  5  1  0  0  0
  5  6  2  0  0  0
  6 16  1  0  0  0
 16 17  1  0  0  0
 17 18  2  0  0  0
 18 19  1  0  0  0
 19 20  2  0  0  0
 20 21  1  0  0  0
 21 22  2  0  0  0
  6  7  1  0  0  0
  7 23  1  0  0  0
 23 24  1  0  0  0
 24 25  2  0  0  0
 25 26  1  0  0  0
 26 27  2  0  0  0
 27 28  1  0  0  0
 28 29  2  0  0  0
  7  8  1  0  0  0
  8  9  1  0  0  0
  9 10  1  0  0  0
 10 11  1  0  0  0
 11 30  1  0  0  0
 30 31  1  0  0  0
 31 32  2  0  0  0
 32 33  1  0  0  0
 33 34  2  0  0  0
 34 35  1  0  0  0
 35 36  2  0  0  0
 11 12  1  0  0  0
 12 13  2  0  0  0
 13  1  1  0  0  0
  8  4  2  0  0  0
 13  9  1  0  0  0
 22 17  1  0  0  0
 29 24  1  0  0  0
 36 31  1  0  0  0
M  END
> <minimizedAffinity>
-10.69673

$$$$



 36 41  0  0  0  0  0  0  0  0999 V2000
   -1.2679   62.5284   84.8611 N   0  0  0  0  0  0  0  0  0  0  0  0
   -2.1756   61.9970   83.9173 C   0  0  0  0  0  0  0  0  0  0  0  0
   -3.1546   61.3216   84.2317 O   0  0  0  0  0  0  0  0  0  0  0  0
   -1.8623   62.3276   82.5229 C   0  0  0  0  0  0  0  0  0  0  0  0
   -2.5427   61.9626   81.3918 N   0  0  0  0  0  0  0  0  0  0  0  0
   -1.8869   62.5143   80.3837 C   0  0  0  0  0  0  0  0  0  0  0  0
   -0.7706   63.2130   80.8369 N   0  0  0  0  0  0  0  0  0  0  0  0
   -0.7769   63.1128   82.2039 C   0  0  0  0  0  0  0  0  0  0  0  0
    0.0195   63.6293   83.1607 N   0  0  0  0  0  0  0  0  0  0  0  0
    1.2164   64.4150   83.0407 C   0  0  0  0  0  0  0  0  0  0  0  0
    1.5357   64.7288   84.5242 C   0  0  0  0  0  0  0  0  0  0  0  0
    0.6031   63.8901   85.3535 N   0  0  0  0  0  0  0  0  0  0  0  0
   -0.2104   63.3501   84.4884 C   0  0  0  0  0  0  0  0  0  0  0  0
   -2.6584   63.1126   86.8104 C   0  0  0  0  0  0  0  0  0  0  0  0
   -1.5163   62.2629   86.2717 C   0  0  0  0  0  0  0  0  0  0  0  0
   -2.3162   62.4155   78.9465 C   0  0  0  0  0  0  0  0  0  0  0  0
   -1.6557   61.2964   78.1709 C   0  0  0  0  0  0  0  0  0  0  0  0
   -0.7562   61.5917   77.1349 C   0  0  0  0  0  0  0  0  0  0  0  0
   -0.1509   60.5658   76.4073 C   0  0  0  0  0  0  0  0  0  0  0  0
   -0.4468   59.2355   76.6976 C   0  0  0  0  0  0  0  0  0  0  0  0
   -1.3540   58.9294   77.7098 C   0  0  0  0  0  0  0  0  0  0  0  0
   -1.9608   59.9533   78.4384 C   0  0  0  0  0  0  0  0  0  0  0  0
    0.2147   63.8595   79.9846 C   0  0  0  0  0  0  0  0  0  0  0  0
    0.1923   65.3680   80.0610 C   0  0  0  0  0  0  0  0  0  0  0  0
    1.3721   66.0803   79.7890 C   0  0  0  0  0  0  0  0  0  0  0  0
    1.4027   67.4730   79.8782 C   0  0  0  0  0  0  0  0  0  0  0  0
    0.2587   68.1726   80.2523 C   0  0  0  0  0  0  0  0  0  0  0  0
   -0.9143   67.4805   80.5424 C   0  0  0  0  0  0  0  0  0  0  0  0
   -0.9471   66.0872   80.4546 C   0  0  0  0  0  0  0  0  0  0  0  0
    1.3187   66.2171   84.8459 C   0  0  0  0  0  0  0  0  0  0  0  0
    2.4048   67.1098   84.2903 C   0  0  0  0  0  0  0  0  0  0  0  0
    2.0914   68.1315   83.3842 C   0  0  0  0  0  0  0  0  0  0  0  0
    3.0922   68.9596   82.8741 C   0  0  0  0  0  0  0  0  0  0  0  0
    4.4168   68.7751   83.2648 C   0  0  0  0  0  0  0  0  0  0  0  0
    4.7407   67.7644   84.1677 C   0  0  0  0  0  0  0  0  0  0  0  0
    3.7402   66.9360   84.6800 C   0  0  0  0  0  0  0  0  0  0  0  0
 14 15  1  0  0  0
 15  1  1  0  0  0
  1  2  1  0  0  0
  2  3  2  0  0  0
  2  4  1  0  0  0
  4  5  1  0  0  0
  5  6  2  0  0  0
  6 16  1  0  0  0
 16 17  1  0  0  0
 17 18  2  0  0  0
 18 19  1  0  0  0
 19 20  2  0  0  0
 20 21  1  0  0  0
 21 22  2  0  0  0
  6  7  1  0  0  0
  7 23  1  0  0  0
 23 24  1  0  0  0
 24 25  2  0  0  0
 25 26  1  0  0  0
 26 27  2  0  0  0
 27 28  1  0  0  0
 28 29  2  0  0  0
  7  8  1  0  0  0
  8  9  1  0  0  0
  9 10  1  0  0  0
 10 11  1  0  0  0
 11 30  1  0  0  0
 30 31  1  0  0  0
 31 32  2  0  0  0
 32 33  1  0  0  0
 33 34  2  0  0  0
 34 35  1  0  0  0
 35 36  2  0  0  0
 11 12  1  0  0  0
 12 13  2  0  0  0
 13  1  1  0  0  0
  8  4  2  0  0  0
 13  9  1  0  0  0
 22 17  1  0  0  0
 29 24  1  0  0  0
 36 31  1  0  0  0
M  END
> <minimizedAffinity>
-10.37911

$$$$
