


 29 32  0  0  0  0  0  0  0  0999 V2000
    0.5916   65.1596   84.0030 C   0  0  0  0  0  0  0  0  0  0  0  0
    1.5183   65.9906   84.4071 N   0  0  0  0  0  0  0  0  0  0  0  0
    1.8986   66.8920   83.4669 C   0  0  0  0  0  0  0  0  0  0  0  0
    1.4383   67.0082   82.1795 C   0  0  0  0  0  0  0  0  0  0  0  0
    2.1489   68.0768   81.6049 C   0  0  0  0  0  0  0  0  0  0  0  0
    2.0320   68.6118   80.2278 C   0  0  0  0  0  0  0  0  0  0  0  0
    3.0192   68.6094   82.4792 N   0  0  0  0  0  0  0  0  0  0  0  0
    2.8242   67.8886   83.6174 N   0  0  0  0  0  0  0  0  0  0  0  0
    0.4282   66.0981   81.7306 C   0  0  0  0  0  0  0  0  0  0  0  0
   -0.0561   66.0932   80.6048 O   0  0  0  0  0  0  0  0  0  0  0  0
    0.0544   65.2062   82.7171 N   0  0  0  0  0  0  0  0  0  0  0  0
   -0.6517   64.5326   82.4517 H   0  0  0  0  0  0  0  0  0  0  0  0
   -0.7262   63.0014   84.5240 C   0  0  0  0  0  0  0  0  0  0  0  0
   -1.1865   62.0962   85.4911 C   0  0  0  0  0  0  0  0  0  0  0  0
   -0.8718   62.2653   86.8420 C   0  0  0  0  0  0  0  0  0  0  0  0
   -0.0954   63.3424   87.2476 C   0  0  0  0  0  0  0  0  0  0  0  0
    0.3630   64.2569   86.3010 C   0  0  0  0  0  0  0  0  0  0  0  0
    0.0543   64.1063   84.9354 C   0  0  0  0  0  0  0  0  0  0  0  0
   -1.0001   62.8839   83.1856 O   0  0  0  0  0  0  0  0  0  0  0  0
   -1.0015   61.5984   82.5603 C   0  0  0  0  0  0  0  0  0  0  0  0
    1.4372   61.0699   82.1234 C   0  0  0  0  0  0  0  0  0  0  0  0
    0.1048   61.4831   81.5130 C   0  0  0  0  0  0  0  0  0  0  0  0
    3.6070   68.1754   84.8076 C   0  0  0  0  0  0  0  0  0  0  0  0
    4.8171   67.2796   84.9084 C   0  0  0  0  0  0  0  0  0  0  0  0
    6.0295   67.6464   84.3064 C   0  0  0  0  0  0  0  0  0  0  0  0
    7.1446   66.8117   84.3943 C   0  0  0  0  0  0  0  0  0  0  0  0
    7.0581   65.6010   85.0792 C   0  0  0  0  0  0  0  0  0  0  0  0
    5.8556   65.2204   85.6719 C   0  0  0  0  0  0  0  0  0  0  0  0
    4.7394   66.0536   85.5852 C   0  0  0  0  0  0  0  0  0  0  0  0
 21 22  1  0  0  0
 22 20  1  0  0  0
 20 19  1  0  0  0
 19 13  1  0  0  0
 13 14  2  0  0  0
 14 15  1  0  0  0
 15 16  2  0  0  0
 16 17  1  0  0  0
 17 18  2  0  0  0
 18  1  1  0  0  0
  1  2  2  0  0  0
  2  3  1  0  0  0
  3  4  2  0  0  0
  4  5  1  0  0  0
  5  6  1  0  0  0
  5  7  2  0  0  0
  7  8  1  0  0  0
  8 23  1  0  0  0
 23 24  1  0  0  0
 24 25  2  0  0  0
 25 26  1  0  0  0
 26 27  2  0  0  0
 27 28  1  0  0  0
 28 29  2  0  0  0
  4  9  1  0  0  0
  9 10  2  0  0  0
  9 11  1  0  0  0
 18 13  1  0  0  0
 11  1  1  0  0  0
  8  3  1  0  0  0
 29 24  1  0  0  0
 11 12  1  0  0  0
M  END
> <minimizedAffinity>
-10.17382

$$$$



 29 32  0  0  0  0  0  0  0  0999 V2000
    1.2948   65.3391   84.7796 C   0  0  0  0  0  0  0  0  0  0  0  0
    0.3407   64.7473   84.1073 N   0  0  0  0  0  0  0  0  0  0  0  0
   -0.2940   63.7667   84.7978 C   0  0  0  0  0  0  0  0  0  0  0  0
   -0.0381   63.3388   86.0762 C   0  0  0  0  0  0  0  0  0  0  0  0
   -0.9481   62.2971   86.3294 C   0  0  0  0  0  0  0  0  0  0  0  0
   -1.0884   61.4914   87.5653 C   0  0  0  0  0  0  0  0  0  0  0  0
   -1.7381   62.0709   85.2663 N   0  0  0  0  0  0  0  0  0  0  0  0
   -1.3395   63.0020   84.3567 N   0  0  0  0  0  0  0  0  0  0  0  0
    1.0081   63.9794   86.8143 C   0  0  0  0  0  0  0  0  0  0  0  0
    1.3384   63.6830   87.9567 O   0  0  0  0  0  0  0  0  0  0  0  0
    1.6210   64.9815   86.0873 N   0  0  0  0  0  0  0  0  0  0  0  0
    2.3754   65.4632   86.5579 H   0  0  0  0  0  0  0  0  0  0  0  0
    3.4284   66.7611   84.4772 C   0  0  0  0  0  0  0  0  0  0  0  0
    4.0533   67.8430   83.8401 C   0  0  0  0  0  0  0  0  0  0  0  0
    3.3734   68.6073   82.8883 C   0  0  0  0  0  0  0  0  0  0  0  0
    2.0586   68.3046   82.5606 C   0  0  0  0  0  0  0  0  0  0  0  0
    1.4192   67.2384   83.1905 C   0  0  0  0  0  0  0  0  0  0  0  0
    2.0856   66.4579   84.1547 C   0  0  0  0  0  0  0  0  0  0  0  0
    4.0467   65.9746   85.4150 O   0  0  0  0  0  0  0  0  0  0  0  0
    5.3885   65.5267   85.2087 C   0  0  0  0  0  0  0  0  0  0  0  0
    5.4985   65.4596   87.7387 C   0  0  0  0  0  0  0  0  0  0  0  0
    6.2520   65.7532   86.4485 C   0  0  0  0  0  0  0  0  0  0  0  0
   -1.9731   63.0663   83.0505 C   0  0  0  0  0  0  0  0  0  0  0  0
   -1.0040   62.7314   81.9435 C   0  0  0  0  0  0  0  0  0  0  0  0
   -0.9203   63.5379   80.7991 C   0  0  0  0  0  0  0  0  0  0  0  0
   -0.0288   63.2206   79.7732 C   0  0  0  0  0  0  0  0  0  0  0  0
    0.7831   62.0927   79.8777 C   0  0  0  0  0  0  0  0  0  0  0  0
    0.7009   61.2774   81.0049 C   0  0  0  0  0  0  0  0  0  0  0  0
   -0.1898   61.5927   82.0319 C   0  0  0  0  0  0  0  0  0  0  0  0
 21 22  1  0  0  0
 22 20  1  0  0  0
 20 19  1  0  0  0
 19 13  1  0  0  0
 13 14  2  0  0  0
 14 15  1  0  0  0
 15 16  2  0  0  0
 16 17  1  0  0  0
 17 18  2  0  0  0
 18  1  1  0  0  0
  1  2  2  0  0  0
  2  3  1  0  0  0
  3  4  2  0  0  0
  4  5  1  0  0  0
  5  6  1  0  0  0
  5  7  2  0  0  0
  7  8  1  0  0  0
  8 23  1  0  0  0
 23 24  1  0  0  0
 24 25  2  0  0  0
 25 26  1  0  0  0
 26 27  2  0  0  0
 27 28  1  0  0  0
 28 29  2  0  0  0
  4  9  1  0  0  0
  9 10  2  0  0  0
  9 11  1  0  0  0
 18 13  1  0  0  0
 11  1  1  0  0  0
  8  3  1  0  0  0
 29 24  1  0  0  0
 11 12  1  0  0  0
M  END
> <minimizedAffinity>
-10.09616

$$$$



 29 32  0  0  0  0  0  0  0  0999 V2000
    1.3263   65.4912   84.4211 C   0  0  0  0  0  0  0  0  0  0  0  0
    0.9686   64.4960   83.6503 N   0  0  0  0  0  0  0  0  0  0  0  0
    0.2807   63.5195   84.2940 C   0  0  0  0  0  0  0  0  0  0  0  0
   -0.0536   63.4641   85.6237 C   0  0  0  0  0  0  0  0  0  0  0  0
   -0.7454   62.2531   85.8029 C   0  0  0  0  0  0  0  0  0  0  0  0
   -1.3199   61.7100   87.0564 C   0  0  0  0  0  0  0  0  0  0  0  0
   -0.8417   61.5715   84.6490 N   0  0  0  0  0  0  0  0  0  0  0  0
   -0.2352   62.3807   83.7378 N   0  0  0  0  0  0  0  0  0  0  0  0
    0.3399   64.5479   86.4725 C   0  0  0  0  0  0  0  0  0  0  0  0
    0.1103   64.6114   87.6747 O   0  0  0  0  0  0  0  0  0  0  0  0
    1.0232   65.5298   85.7817 N   0  0  0  0  0  0  0  0  0  0  0  0
    1.3337   66.3173   86.3351 H   0  0  0  0  0  0  0  0  0  0  0  0
    3.3826   67.0448   84.2665 C   0  0  0  0  0  0  0  0  0  0  0  0
    3.9808   68.1663   83.6740 C   0  0  0  0  0  0  0  0  0  0  0  0
    3.3216   68.8909   82.6776 C   0  0  0  0  0  0  0  0  0  0  0  0
    2.0539   68.5081   82.2601 C   0  0  0  0  0  0  0  0  0  0  0  0
    1.4407   67.4014   82.8444 C   0  0  0  0  0  0  0  0  0  0  0  0
    2.0867   66.6599   83.8522 C   0  0  0  0  0  0  0  0  0  0  0  0
    3.9829   66.2944   85.2446 O   0  0  0  0  0  0  0  0  0  0  0  0
    5.3303   66.5666   85.6370 C   0  0  0  0  0  0  0  0  0  0  0  0
    7.4950   65.7240   84.6264 C   0  0  0  0  0  0  0  0  0  0  0  0
    6.2370   65.3595   85.4031 C   0  0  0  0  0  0  0  0  0  0  0  0
   -0.1355   61.9702   82.3474 C   0  0  0  0  0  0  0  0  0  0  0  0
   -1.4910   61.6720   81.7553 C   0  0  0  0  0  0  0  0  0  0  0  0
   -1.9263   60.3481   81.5980 C   0  0  0  0  0  0  0  0  0  0  0  0
   -3.1772   60.0755   81.0423 C   0  0  0  0  0  0  0  0  0  0  0  0
   -4.0025   61.1215   80.6336 C   0  0  0  0  0  0  0  0  0  0  0  0
   -3.5763   62.4409   80.7744 C   0  0  0  0  0  0  0  0  0  0  0  0
   -2.3259   62.7157   81.3298 C   0  0  0  0  0  0  0  0  0  0  0  0
 21 22  1  0  0  0
 22 20  1  0  0  0
 20 19  1  0  0  0
 19 13  1  0  0  0
 13 14  2  0  0  0
 14 15  1  0  0  0
 15 16  2  0  0  0
 16 17  1  0  0  0
 17 18  2  0  0  0
 18  1  1  0  0  0
  1  2  2  0  0  0
  2  3  1  0  0  0
  3  4  2  0  0  0
  4  5  1  0  0  0
  5  6  1  0  0  0
  5  7  2  0  0  0
  7  8  1  0  0  0
  8 23  1  0  0  0
 23 24  1  0  0  0
 24 25  2  0  0  0
 25 26  1  0  0  0
 26 27  2  0  0  0
 27 28  1  0  0  0
 28 29  2  0  0  0
  4  9  1  0  0  0
  9 10  2  0  0  0
  9 11  1  0  0  0
 18 13  1  0  0  0
 11  1  1  0  0  0
  8  3  1  0  0  0
 29 24  1  0  0  0
 11 12  1  0  0  0
M  END
> <minimizedAffinity>
-9.77671

$$$$



 29 32  0  0  0  0  0  0  0  0999 V2000
    1.0877   64.7940   85.6132 C   0  0  0  0  0  0  0  0  0  0  0  0
    0.9650   65.6463   84.6277 N   0  0  0  0  0  0  0  0  0  0  0  0
    2.1136   66.2979   84.3159 C   0  0  0  0  0  0  0  0  0  0  0  0
    3.3415   66.1696   84.9149 C   0  0  0  0  0  0  0  0  0  0  0  0
    4.1975   67.0636   84.2475 C   0  0  0  0  0  0  0  0  0  0  0  0
    5.6340   67.3159   84.5102 C   0  0  0  0  0  0  0  0  0  0  0  0
    3.5472   67.7292   83.2782 N   0  0  0  0  0  0  0  0  0  0  0  0
    2.2852   67.2207   83.3202 N   0  0  0  0  0  0  0  0  0  0  0  0
    3.4800   65.2423   85.9969 C   0  0  0  0  0  0  0  0  0  0  0  0
    4.5181   65.0443   86.6175 O   0  0  0  0  0  0  0  0  0  0  0  0
    2.2967   64.5865   86.2763 N   0  0  0  0  0  0  0  0  0  0  0  0
    2.3344   63.9242   87.0396 H   0  0  0  0  0  0  0  0  0  0  0  0
   -0.9192   63.2208   85.2095 C   0  0  0  0  0  0  0  0  0  0  0  0
   -2.0069   62.5213   85.7522 C   0  0  0  0  0  0  0  0  0  0  0  0
   -2.2731   62.5574   87.1234 C   0  0  0  0  0  0  0  0  0  0  0  0
   -1.4592   63.2949   87.9727 C   0  0  0  0  0  0  0  0  0  0  0  0
   -0.3792   64.0034   87.4492 C   0  0  0  0  0  0  0  0  0  0  0  0
   -0.0957   63.9827   86.0701 C   0  0  0  0  0  0  0  0  0  0  0  0
   -0.6078   63.2188   83.8741 O   0  0  0  0  0  0  0  0  0  0  0  0
   -0.5283   61.9863   83.1544 C   0  0  0  0  0  0  0  0  0  0  0  0
    0.6670   61.4744   80.9803 C   0  0  0  0  0  0  0  0  0  0  0  0
    0.8199   61.8331   82.4521 C   0  0  0  0  0  0  0  0  0  0  0  0
    1.2689   67.7100   82.4040 C   0  0  0  0  0  0  0  0  0  0  0  0
    1.0875   66.7844   81.2262 C   0  0  0  0  0  0  0  0  0  0  0  0
    0.0590   65.8310   81.2187 C   0  0  0  0  0  0  0  0  0  0  0  0
   -0.1009   64.9707   80.1314 C   0  0  0  0  0  0  0  0  0  0  0  0
    0.7676   65.0506   79.0443 C   0  0  0  0  0  0  0  0  0  0  0  0
    1.8003   65.9864   79.0452 C   0  0  0  0  0  0  0  0  0  0  0  0
    1.9620   66.8475   80.1314 C   0  0  0  0  0  0  0  0  0  0  0  0
 21 22  1  0  0  0
 22 20  1  0  0  0
 20 19  1  0  0  0
 19 13  1  0  0  0
 13 14  2  0  0  0
 14 15  1  0  0  0
 15 16  2  0  0  0
 16 17  1  0  0  0
 17 18  2  0  0  0
 18  1  1  0  0  0
  1  2  2  0  0  0
  2  3  1  0  0  0
  3  4  2  0  0  0
  4  5  1  0  0  0
  5  6  1  0  0  0
  5  7  2  0  0  0
  7  8  1  0  0  0
  8 23  1  0  0  0
 23 24  1  0  0  0
 24 25  2  0  0  0
 25 26  1  0  0  0
 26 27  2  0  0  0
 27 28  1  0  0  0
 28 29  2  0  0  0
  4  9  1  0  0  0
  9 10  2  0  0  0
  9 11  1  0  0  0
 18 13  1  0  0  0
 11  1  1  0  0  0
  8  3  1  0  0  0
 29 24  1  0  0  0
 11 12  1  0  0  0
M  END
> <minimizedAffinity>
-9.57573

$$$$



 29 32  0  0  0  0  0  0  0  0999 V2000
   -0.0051   64.1449   82.9160 C   0  0  0  0  0  0  0  0  0  0  0  0
   -0.8083   63.9032   83.9206 N   0  0  0  0  0  0  0  0  0  0  0  0
   -1.5347   62.7653   83.7844 C   0  0  0  0  0  0  0  0  0  0  0  0
   -1.5239   61.8823   82.7341 C   0  0  0  0  0  0  0  0  0  0  0  0
   -2.4560   60.8800   83.0562 C   0  0  0  0  0  0  0  0  0  0  0  0
   -2.8281   59.6911   82.2534 C   0  0  0  0  0  0  0  0  0  0  0  0
   -3.0330   61.1154   84.2466 N   0  0  0  0  0  0  0  0  0  0  0  0
   -2.4304   62.2549   84.6842 N   0  0  0  0  0  0  0  0  0  0  0  0
   -0.6508   62.1448   81.6301 C   0  0  0  0  0  0  0  0  0  0  0  0
   -0.5568   61.4399   80.6320 O   0  0  0  0  0  0  0  0  0  0  0  0
    0.0837   63.3009   81.8096 N   0  0  0  0  0  0  0  0  0  0  0  0
    0.7123   63.5404   81.0545 H   0  0  0  0  0  0  0  0  0  0  0  0
    1.0756   66.2117   81.8086 C   0  0  0  0  0  0  0  0  0  0  0  0
    1.9397   67.3092   81.9332 C   0  0  0  0  0  0  0  0  0  0  0  0
    2.5887   67.5801   83.1406 C   0  0  0  0  0  0  0  0  0  0  0  0
    2.3870   66.7573   84.2406 C   0  0  0  0  0  0  0  0  0  0  0  0
    1.5386   65.6570   84.1320 C   0  0  0  0  0  0  0  0  0  0  0  0
    0.8777   65.3648   82.9235 C   0  0  0  0  0  0  0  0  0  0  0  0
    0.4097   65.8997   80.6513 O   0  0  0  0  0  0  0  0  0  0  0  0
    1.1240   65.7776   79.4191 C   0  0  0  0  0  0  0  0  0  0  0  0
    0.9472   63.5600   78.2073 C   0  0  0  0  0  0  0  0  0  0  0  0
    0.3466   64.9459   78.4004 C   0  0  0  0  0  0  0  0  0  0  0  0
   -2.8054   62.8359   85.9623 C   0  0  0  0  0  0  0  0  0  0  0  0
   -1.7041   62.6944   86.9839 C   0  0  0  0  0  0  0  0  0  0  0  0
   -1.2199   63.8161   87.6725 C   0  0  0  0  0  0  0  0  0  0  0  0
   -0.1954   63.6830   88.6108 C   0  0  0  0  0  0  0  0  0  0  0  0
    0.3589   62.4301   88.8663 C   0  0  0  0  0  0  0  0  0  0  0  0
   -0.1061   61.3097   88.1802 C   0  0  0  0  0  0  0  0  0  0  0  0
   -1.1305   61.4406   87.2415 C   0  0  0  0  0  0  0  0  0  0  0  0
 21 22  1  0  0  0
 22 20  1  0  0  0
 20 19  1  0  0  0
 19 13  1  0  0  0
 13 14  2  0  0  0
 14 15  1  0  0  0
 15 16  2  0  0  0
 16 17  1  0  0  0
 17 18  2  0  0  0
 18  1  1  0  0  0
  1  2  2  0  0  0
  2  3  1  0  0  0
  3  4  2  0  0  0
  4  5  1  0  0  0
  5  6  1  0  0  0
  5  7  2  0  0  0
  7  8  1  0  0  0
  8 23  1  0  0  0
 23 24  1  0  0  0
 24 25  2  0  0  0
 25 26  1  0  0  0
 26 27  2  0  0  0
 27 28  1  0  0  0
 28 29  2  0  0  0
  4  9  1  0  0  0
  9 10  2  0  0  0
  9 11  1  0  0  0
 18 13  1  0  0  0
 11  1  1  0  0  0
  8  3  1  0  0  0
 29 24  1  0  0  0
 11 12  1  0  0  0
M  END
> <minimizedAffinity>
-9.50842

$$$$



 29 32  0  0  0  0  0  0  0  0999 V2000
    0.9830   65.4591   84.4568 C   0  0  0  0  0  0  0  0  0  0  0  0
    0.0497   64.7455   83.8805 N   0  0  0  0  0  0  0  0  0  0  0  0
   -0.4282   63.7365   84.6516 C   0  0  0  0  0  0  0  0  0  0  0  0
   -0.0378   63.3921   85.9212 C   0  0  0  0  0  0  0  0  0  0  0  0
   -0.8139   62.2757   86.2797 C   0  0  0  0  0  0  0  0  0  0  0  0
   -0.7802   61.5140   87.5505 C   0  0  0  0  0  0  0  0  0  0  0  0
   -1.6506   61.9252   85.2885 N   0  0  0  0  0  0  0  0  0  0  0  0
   -1.4176   62.8517   84.3188 N   0  0  0  0  0  0  0  0  0  0  0  0
    0.9867   64.1664   86.5544 C   0  0  0  0  0  0  0  0  0  0  0  0
    1.4275   63.9544   87.6781 O   0  0  0  0  0  0  0  0  0  0  0  0
    1.4380   65.1930   85.7478 N   0  0  0  0  0  0  0  0  0  0  0  0
    2.1702   65.7683   86.1422 H   0  0  0  0  0  0  0  0  0  0  0  0
    1.5032   66.8448   82.3414 C   0  0  0  0  0  0  0  0  0  0  0  0
    2.1455   67.9579   81.7799 C   0  0  0  0  0  0  0  0  0  0  0  0
    2.8664   68.8504   82.5776 C   0  0  0  0  0  0  0  0  0  0  0  0
    2.9591   68.6430   83.9473 C   0  0  0  0  0  0  0  0  0  0  0  0
    2.3345   67.5370   84.5209 C   0  0  0  0  0  0  0  0  0  0  0  0
    1.6061   66.6241   83.7342 C   0  0  0  0  0  0  0  0  0  0  0  0
    0.7796   65.9389   81.6092 O   0  0  0  0  0  0  0  0  0  0  0  0
   -0.3305   66.3725   80.8198 C   0  0  0  0  0  0  0  0  0  0  0  0
    1.2939   65.5859   79.0423 C   0  0  0  0  0  0  0  0  0  0  0  0
   -0.1233   66.0566   79.3395 C   0  0  0  0  0  0  0  0  0  0  0  0
   -2.1469   62.7953   83.0632 C   0  0  0  0  0  0  0  0  0  0  0  0
   -1.2431   62.4387   81.9087 C   0  0  0  0  0  0  0  0  0  0  0  0
   -1.5661   62.8300   80.6012 C   0  0  0  0  0  0  0  0  0  0  0  0
   -0.7322   62.4913   79.5345 C   0  0  0  0  0  0  0  0  0  0  0  0
    0.4285   61.7544   79.7624 C   0  0  0  0  0  0  0  0  0  0  0  0
    0.7543   61.3502   81.0558 C   0  0  0  0  0  0  0  0  0  0  0  0
   -0.0781   61.6877   82.1238 C   0  0  0  0  0  0  0  0  0  0  0  0
 21 22  1  0  0  0
 22 20  1  0  0  0
 20 19  1  0  0  0
 19 13  1  0  0  0
 13 14  2  0  0  0
 14 15  1  0  0  0
 15 16  2  0  0  0
 16 17  1  0  0  0
 17 18  2  0  0  0
 18  1  1  0  0  0
  1  2  2  0  0  0
  2  3  1  0  0  0
  3  4  2  0  0  0
  4  5  1  0  0  0
  5  6  1  0  0  0
  5  7  2  0  0  0
  7  8  1  0  0  0
  8 23  1  0  0  0
 23 24  1  0  0  0
 24 25  2  0  0  0
 25 26  1  0  0  0
 26 27  2  0  0  0
 27 28  1  0  0  0
 28 29  2  0  0  0
  4  9  1  0  0  0
  9 10  2  0  0  0
  9 11  1  0  0  0
 18 13  1  0  0  0
 11  1  1  0  0  0
  8  3  1  0  0  0
 29 24  1  0  0  0
 11 12  1  0  0  0
M  END
> <minimizedAffinity>
-9.48871

$$$$



 29 32  0  0  0  0  0  0  0  0999 V2000
   -0.0391   63.7238   82.8950 C   0  0  0  0  0  0  0  0  0  0  0  0
   -0.1965   64.9067   82.3578 N   0  0  0  0  0  0  0  0  0  0  0  0
   -0.1177   64.9121   81.0032 C   0  0  0  0  0  0  0  0  0  0  0  0
    0.1153   63.8464   80.1709 C   0  0  0  0  0  0  0  0  0  0  0  0
    0.1201   64.3647   78.8638 C   0  0  0  0  0  0  0  0  0  0  0  0
    0.3327   63.6303   77.5943 C   0  0  0  0  0  0  0  0  0  0  0  0
   -0.0935   65.6912   78.8648 N   0  0  0  0  0  0  0  0  0  0  0  0
   -0.2669   65.9952   80.1803 N   0  0  0  0  0  0  0  0  0  0  0  0
    0.2934   62.5508   80.7538 C   0  0  0  0  0  0  0  0  0  0  0  0
    0.5162   61.5254   80.1205 O   0  0  0  0  0  0  0  0  0  0  0  0
    0.1913   62.5802   82.1311 N   0  0  0  0  0  0  0  0  0  0  0  0
    0.3179   61.6917   82.5972 H   0  0  0  0  0  0  0  0  0  0  0  0
   -0.7484   62.4653   85.0348 C   0  0  0  0  0  0  0  0  0  0  0  0
   -0.7671   62.4244   86.4365 C   0  0  0  0  0  0  0  0  0  0  0  0
   -0.1560   63.4273   87.1935 C   0  0  0  0  0  0  0  0  0  0  0  0
    0.4804   64.4876   86.5622 C   0  0  0  0  0  0  0  0  0  0  0  0
    0.5009   64.5489   85.1700 C   0  0  0  0  0  0  0  0  0  0  0  0
   -0.1118   63.5502   84.3890 C   0  0  0  0  0  0  0  0  0  0  0  0
   -1.3274   61.5085   84.2415 O   0  0  0  0  0  0  0  0  0  0  0  0
   -2.7233   61.5705   83.9395 C   0  0  0  0  0  0  0  0  0  0  0  0
   -3.1475   61.2908   81.4578 C   0  0  0  0  0  0  0  0  0  0  0  0
   -3.0975   60.6049   82.8163 C   0  0  0  0  0  0  0  0  0  0  0  0
   -0.5194   67.3673   80.5866 C   0  0  0  0  0  0  0  0  0  0  0  0
    0.7641   68.1189   80.8408 C   0  0  0  0  0  0  0  0  0  0  0  0
    1.3498   68.8948   79.8299 C   0  0  0  0  0  0  0  0  0  0  0  0
    2.5414   69.5820   80.0656 C   0  0  0  0  0  0  0  0  0  0  0  0
    3.1621   69.4966   81.3105 C   0  0  0  0  0  0  0  0  0  0  0  0
    2.5957   68.7197   82.3193 C   0  0  0  0  0  0  0  0  0  0  0  0
    1.4042   68.0317   82.0858 C   0  0  0  0  0  0  0  0  0  0  0  0
 21 22  1  0  0  0
 22 20  1  0  0  0
 20 19  1  0  0  0
 19 13  1  0  0  0
 13 14  2  0  0  0
 14 15  1  0  0  0
 15 16  2  0  0  0
 16 17  1  0  0  0
 17 18  2  0  0  0
 18  1  1  0  0  0
  1  2  2  0  0  0
  2  3  1  0  0  0
  3  4  2  0  0  0
  4  5  1  0  0  0
  5  6  1  0  0  0
  5  7  2  0  0  0
  7  8  1  0  0  0
  8 23  1  0  0  0
 23 24  1  0  0  0
 24 25  2  0  0  0
 25 26  1  0  0  0
 26 27  2  0  0  0
 27 28  1  0  0  0
 28 29  2  0  0  0
  4  9  1  0  0  0
  9 10  2  0  0  0
  9 11  1  0  0  0
 18 13  1  0  0  0
 11  1  1  0  0  0
  8  3  1  0  0  0
 29 24  1  0  0  0
 11 12  1  0  0  0
M  END
> <minimizedAffinity>
-9.47796

$$$$



 29 32  0  0  0  0  0  0  0  0999 V2000
    0.9683   65.6543   82.6903 C   0  0  0  0  0  0  0  0  0  0  0  0
    1.7491   66.2741   83.5381 N   0  0  0  0  0  0  0  0  0  0  0  0
    2.1335   67.5103   83.1315 C   0  0  0  0  0  0  0  0  0  0  0  0
    1.8107   68.1476   81.9600 C   0  0  0  0  0  0  0  0  0  0  0  0
    2.4624   69.3929   81.9997 C   0  0  0  0  0  0  0  0  0  0  0  0
    2.4439   70.4630   80.9746 C   0  0  0  0  0  0  0  0  0  0  0  0
    3.1668   69.5383   83.1346 N   0  0  0  0  0  0  0  0  0  0  0  0
    2.9239   68.3886   83.8217 N   0  0  0  0  0  0  0  0  0  0  0  0
    0.9609   67.4718   81.0266 C   0  0  0  0  0  0  0  0  0  0  0  0
    0.6093   67.9291   79.9453 O   0  0  0  0  0  0  0  0  0  0  0  0
    0.5768   66.2246   81.4795 N   0  0  0  0  0  0  0  0  0  0  0  0
   -0.0186   65.6975   80.8546 H   0  0  0  0  0  0  0  0  0  0  0  0
    0.1303   63.8210   84.3035 C   0  0  0  0  0  0  0  0  0  0  0  0
   -0.3306   62.5070   84.4703 C   0  0  0  0  0  0  0  0  0  0  0  0
   -0.4935   61.6574   83.3731 C   0  0  0  0  0  0  0  0  0  0  0  0
   -0.1958   62.1061   82.0934 C   0  0  0  0  0  0  0  0  0  0  0  0
    0.2719   63.4061   81.9102 C   0  0  0  0  0  0  0  0  0  0  0  0
    0.4461   64.2769   83.0029 C   0  0  0  0  0  0  0  0  0  0  0  0
    0.3056   64.6996   85.3416 O   0  0  0  0  0  0  0  0  0  0  0  0
    0.9095   64.2627   86.5615 C   0  0  0  0  0  0  0  0  0  0  0  0
    0.3446   63.0642   88.7206 C   0  0  0  0  0  0  0  0  0  0  0  0
   -0.1335   64.0420   87.6558 C   0  0  0  0  0  0  0  0  0  0  0  0
    3.5329   68.1720   85.1232 C   0  0  0  0  0  0  0  0  0  0  0  0
    4.7208   67.2457   85.0359 C   0  0  0  0  0  0  0  0  0  0  0  0
    4.6496   65.9423   85.5489 C   0  0  0  0  0  0  0  0  0  0  0  0
    5.7529   65.0909   85.4741 C   0  0  0  0  0  0  0  0  0  0  0  0
    6.9388   65.5343   84.8916 C   0  0  0  0  0  0  0  0  0  0  0  0
    7.0253   66.8311   84.3884 C   0  0  0  0  0  0  0  0  0  0  0  0
    5.9233   67.6841   84.4622 C   0  0  0  0  0  0  0  0  0  0  0  0
 21 22  1  0  0  0
 22 20  1  0  0  0
 20 19  1  0  0  0
 19 13  1  0  0  0
 13 14  2  0  0  0
 14 15  1  0  0  0
 15 16  2  0  0  0
 16 17  1  0  0  0
 17 18  2  0  0  0
 18  1  1  0  0  0
  1  2  2  0  0  0
  2  3  1  0  0  0
  3  4  2  0  0  0
  4  5  1  0  0  0
  5  6  1  0  0  0
  5  7  2  0  0  0
  7  8  1  0  0  0
  8 23  1  0  0  0
 23 24  1  0  0  0
 24 25  2  0  0  0
 25 26  1  0  0  0
 26 27  2  0  0  0
 27 28  1  0  0  0
 28 29  2  0  0  0
  4  9  1  0  0  0
  9 10  2  0  0  0
  9 11  1  0  0  0
 18 13  1  0  0  0
 11  1  1  0  0  0
  8  3  1  0  0  0
 29 24  1  0  0  0
 11 12  1  0  0  0
M  END
> <minimizedAffinity>
-9.38155

$$$$



 29 32  0  0  0  0  0  0  0  0999 V2000
   -0.4524   63.1067   79.8145 C   0  0  0  0  0  0  0  0  0  0  0  0
   -0.3764   62.6947   81.0543 N   0  0  0  0  0  0  0  0  0  0  0  0
    0.0815   63.6337   81.9203 C   0  0  0  0  0  0  0  0  0  0  0  0
    0.4717   64.9184   81.6374 C   0  0  0  0  0  0  0  0  0  0  0  0
    0.8780   65.4820   82.8599 C   0  0  0  0  0  0  0  0  0  0  0  0
    1.3930   66.8498   83.1052 C   0  0  0  0  0  0  0  0  0  0  0  0
    0.7574   64.6005   83.8668 N   0  0  0  0  0  0  0  0  0  0  0  0
    0.2396   63.4909   83.2720 N   0  0  0  0  0  0  0  0  0  0  0  0
    0.3955   65.3725   80.2817 C   0  0  0  0  0  0  0  0  0  0  0  0
    0.7224   66.4906   79.9009 O   0  0  0  0  0  0  0  0  0  0  0  0
   -0.0889   64.3973   79.4316 N   0  0  0  0  0  0  0  0  0  0  0  0
   -0.1557   64.6611   78.4576 H   0  0  0  0  0  0  0  0  0  0  0  0
   -2.2850   61.7148   78.6441 C   0  0  0  0  0  0  0  0  0  0  0  0
   -2.6282   60.8416   77.6017 C   0  0  0  0  0  0  0  0  0  0  0  0
   -1.6812   60.4471   76.6530 C   0  0  0  0  0  0  0  0  0  0  0  0
   -0.3769   60.9161   76.7328 C   0  0  0  0  0  0  0  0  0  0  0  0
   -0.0162   61.7774   77.7674 C   0  0  0  0  0  0  0  0  0  0  0  0
   -0.9545   62.1844   78.7352 C   0  0  0  0  0  0  0  0  0  0  0  0
   -3.1721   62.1385   79.6001 O   0  0  0  0  0  0  0  0  0  0  0  0
   -3.9308   61.1879   80.3513 C   0  0  0  0  0  0  0  0  0  0  0  0
   -3.0931   60.3297   82.5826 C   0  0  0  0  0  0  0  0  0  0  0  0
   -3.0249   60.1882   81.0681 C   0  0  0  0  0  0  0  0  0  0  0  0
   -0.0296   62.2984   84.0575 C   0  0  0  0  0  0  0  0  0  0  0  0
   -0.7905   62.6220   85.3197 C   0  0  0  0  0  0  0  0  0  0  0  0
   -0.1090   62.9636   86.4969 C   0  0  0  0  0  0  0  0  0  0  0  0
   -0.8155   63.2541   87.6650 C   0  0  0  0  0  0  0  0  0  0  0  0
   -2.2082   63.2011   87.6700 C   0  0  0  0  0  0  0  0  0  0  0  0
   -2.8961   62.8520   86.5094 C   0  0  0  0  0  0  0  0  0  0  0  0
   -2.1916   62.5610   85.3404 C   0  0  0  0  0  0  0  0  0  0  0  0
 21 22  1  0  0  0
 22 20  1  0  0  0
 20 19  1  0  0  0
 19 13  1  0  0  0
 13 14  2  0  0  0
 14 15  1  0  0  0
 15 16  2  0  0  0
 16 17  1  0  0  0
 17 18  2  0  0  0
 18  1  1  0  0  0
  1  2  2  0  0  0
  2  3  1  0  0  0
  3  4  2  0  0  0
  4  5  1  0  0  0
  5  6  1  0  0  0
  5  7  2  0  0  0
  7  8  1  0  0  0
  8 23  1  0  0  0
 23 24  1  0  0  0
 24 25  2  0  0  0
 25 26  1  0  0  0
 26 27  2  0  0  0
 27 28  1  0  0  0
 28 29  2  0  0  0
  4  9  1  0  0  0
  9 10  2  0  0  0
  9 11  1  0  0  0
 18 13  1  0  0  0
 11  1  1  0  0  0
  8  3  1  0  0  0
 29 24  1  0  0  0
 11 12  1  0  0  0
M  END
> <minimizedAffinity>
-9.37055

$$$$
