
     RDKit          3D

 55 60  0  0  0  0  0  0  0  0999 V2000
    2.4401   -1.8035   -1.1875 O   0  0  0  0  0  0  0  0  0  0  0  0
    1.8777   -0.7086   -1.2207 C   0  0  0  0  0  0  0  0  0  0  0  0
    0.3431   -0.5860   -1.3368 C   0  0  1  0  0  0  0  0  0  0  0  0
   -0.2763   -1.8618   -0.7176 C   0  0  0  0  0  0  0  0  0  0  0  0
   -1.7527   -1.7547   -0.7370 C   0  0  0  0  0  0  0  0  0  0  0  0
   -2.3656   -0.5225   -0.7439 C   0  0  0  0  0  0  0  0  0  0  0  0
   -3.7201   -0.7299   -0.7778 N   0  0  0  0  0  0  0  0  0  0  0  0
   -3.9887   -2.0818   -0.7814 C   0  0  0  0  0  0  0  0  0  0  0  0
   -5.2154   -2.7556   -0.8047 C   0  0  0  0  0  0  0  0  0  0  0  0
   -5.1867   -4.1535   -0.8025 C   0  0  0  0  0  0  0  0  0  0  0  0
   -3.9789   -4.8474   -0.7775 C   0  0  0  0  0  0  0  0  0  0  0  0
   -2.7602   -4.1593   -0.7538 C   0  0  0  0  0  0  0  0  0  0  0  0
   -2.7628   -2.7512   -0.7551 C   0  0  0  0  0  0  0  0  0  0  0  0
   -1.7102    0.8268   -0.7307 C   0  0  1  0  0  0  0  0  0  0  0  0
   -2.1305    1.6059    0.5159 C   0  0  0  0  0  0  0  0  0  0  0  0
   -1.5328    1.2958    1.7575 C   0  0  0  0  0  0  0  0  0  0  0  0
   -1.8913    1.9698    2.9259 C   0  0  0  0  0  0  0  0  0  0  0  0
   -2.8629    2.9627    2.8830 C   0  0  0  0  0  0  0  0  0  0  0  0
   -3.4828    3.2734    1.6740 C   0  0  0  0  0  0  0  0  0  0  0  0
   -3.1273    2.5977    0.4991 C   0  0  0  0  0  0  0  0  0  0  0  0
   -4.0877    3.0686   -1.0729 Br  0  0  0  0  0  0  0  0  0  0  0  0
   -0.2314    0.6753   -0.8015 N   0  0  0  0  0  0  0  0  0  0  0  0
    0.4620    1.8470   -1.1275 C   0  0  0  0  0  0  0  0  0  0  0  0
   -0.0781    2.9365   -1.3084 O   0  0  0  0  0  0  0  0  0  0  0  0
    1.9755    1.7343   -0.9854 C   0  0  0  0  0  0  0  0  0  0  0  0
    2.5752    0.4781   -1.4108 N   0  0  0  0  0  0  0  0  0  0  0  0
    4.0334    0.4344   -1.4959 C   0  0  0  0  0  0  0  0  0  0  0  0
    4.7223    0.6441   -0.1670 C   0  0  0  0  0  0  0  0  0  0  0  0
    5.2858    1.8878    0.1565 C   0  0  0  0  0  0  0  0  0  0  0  0
    5.9054    2.0856    1.3918 C   0  0  0  0  0  0  0  0  0  0  0  0
    5.9682    1.0447    2.3160 C   0  0  0  0  0  0  0  0  0  0  0  0
    5.4128   -0.1949    2.0064 C   0  0  0  0  0  0  0  0  0  0  0  0
    4.7927   -0.3947    0.7722 C   0  0  0  0  0  0  0  0  0  0  0  0
    0.1304   -0.5704   -2.4165 H   0  0  0  0  0  0  0  0  0  0  0  0
    0.0478   -2.7515   -1.2702 H   0  0  0  0  0  0  0  0  0  0  0  0
    0.0586   -1.9789    0.3211 H   0  0  0  0  0  0  0  0  0  0  0  0
   -4.4258   -0.0051   -0.7823 H   0  0  0  0  0  0  0  0  0  0  0  0
   -6.1582   -2.2190   -0.8236 H   0  0  0  0  0  0  0  0  0  0  0  0
   -6.1229   -4.7069   -0.8200 H   0  0  0  0  0  0  0  0  0  0  0  0
   -3.9804   -5.9346   -0.7758 H   0  0  0  0  0  0  0  0  0  0  0  0
   -1.8242   -4.7094   -0.7333 H   0  0  0  0  0  0  0  0  0  0  0  0
   -1.9975    1.3481   -1.6503 H   0  0  0  0  0  0  0  0  0  0  0  0
   -0.7780    0.5134    1.8182 H   0  0  0  0  0  0  0  0  0  0  0  0
   -1.4117    1.7157    3.8679 H   0  0  0  0  0  0  0  0  0  0  0  0
   -3.1434    3.4910    3.7906 H   0  0  0  0  0  0  0  0  0  0  0  0
   -4.2483    4.0457    1.6579 H   0  0  0  0  0  0  0  0  0  0  0  0
    2.2087    1.8925    0.0734 H   0  0  0  0  0  0  0  0  0  0  0  0
    2.4251    2.5364   -1.5811 H   0  0  0  0  0  0  0  0  0  0  0  0
    4.3438    1.2062   -2.2110 H   0  0  0  0  0  0  0  0  0  0  0  0
    4.3588   -0.5213   -1.9244 H   0  0  0  0  0  0  0  0  0  0  0  0
    5.2461    2.7127   -0.5514 H   0  0  0  0  0  0  0  0  0  0  0  0
    6.3400    3.0522    1.6334 H   0  0  0  0  0  0  0  0  0  0  0  0
    6.4516    1.1987    3.2772 H   0  0  0  0  0  0  0  0  0  0  0  0
    5.4625   -1.0088    2.7253 H   0  0  0  0  0  0  0  0  0  0  0  0
    4.3651   -1.3698    0.5445 H   0  0  0  0  0  0  0  0  0  0  0  0
  1  2  2  0
  2  3  1  0
  3  4  1  0
  4  5  1  0
  5  6  2  0
  6  7  1  0
  7  8  1  0
  8  9  2  0
  9 10  1  0
 10 11  2  0
 11 12  1  0
 12 13  2  0
  6 14  1  0
 14 15  1  0
 15 16  2  0
 16 17  1  0
 17 18  2  0
 18 19  1  0
 19 20  2  0
 20 21  1  0
 14 22  1  0
 22 23  1  0
 23 24  2  0
 23 25  1  0
 25 26  1  0
 26 27  1  0
 27 28  1  0
 28 29  2  0
 29 30  1  0
 30 31  2  0
 31 32  1  0
 32 33  2  0
 26  2  1  0
 33 28  1  0
 22  3  1  0
 13  5  1  0
 20 15  1  0
 13  8  1  0
  3 34  1  6
  4 35  1  0
  4 36  1  0
  7 37  1  0
  9 38  1  0
 10 39  1  0
 11 40  1  0
 12 41  1  0
 14 42  1  6
 16 43  1  0
 17 44  1  0
 18 45  1  0
 19 46  1  0
 25 47  1  0
 25 48  1  0
 27 49  1  0
 27 50  1  0
 29 51  1  0
 30 52  1  0
 31 53  1  0
 32 54  1  0
 33 55  1  0
M  END
$$$$
