


 26 29  0  0  0  0  0  0  0  0999 V2000
   -0.7233   62.1536   85.3753 C   0  0  0  0  0  0  0  0  0  0  0  0
   -0.6588   63.0598   84.2492 N   0  0  0  0  0  0  0  0  0  0  0  0
    0.1687   64.1503   84.3515 N   0  0  0  0  0  0  0  0  0  0  0  0
    0.2044   64.7613   83.2021 C   0  0  0  0  0  0  0  0  0  0  0  0
   -0.7422   64.0411   81.9053 S   0  0  0  0  0  0  0  0  0  0  0  0
   -1.2152   62.7644   83.0240 C   0  0  0  0  0  0  0  0  0  0  0  0
   -1.9469   61.7309   82.7433 N   0  0  0  0  0  0  0  0  0  0  0  0
    0.9998   65.9949   82.9703 C   0  0  0  0  0  0  0  0  0  0  0  0
    1.6840   66.5577   84.0606 C   0  0  0  0  0  0  0  0  0  0  0  0
    2.4486   67.7181   83.9026 C   0  0  0  0  0  0  0  0  0  0  0  0
    2.5340   68.3245   82.6526 C   0  0  0  0  0  0  0  0  0  0  0  0
    3.4735   69.7511   82.4551 Cl  0  0  0  0  0  0  0  0  0  0  0  0
    1.8614   67.7805   81.5608 C   0  0  0  0  0  0  0  0  0  0  0  0
    1.0956   66.6188   81.7174 C   0  0  0  0  0  0  0  0  0  0  0  0
   -2.4542   61.5482   81.4515 C   0  0  0  0  0  0  0  0  0  0  0  0
   -3.7716   61.9076   81.1585 C   0  0  0  0  0  0  0  0  0  0  0  0
   -4.2746   61.7528   79.8676 C   0  0  0  0  0  0  0  0  0  0  0  0
   -3.4536   61.2477   78.8577 C   0  0  0  0  0  0  0  0  0  0  0  0
   -2.1210   60.8998   79.1271 C   0  0  0  0  0  0  0  0  0  0  0  0
   -1.6301   61.0632   80.4307 C   0  0  0  0  0  0  0  0  0  0  0  0
   -1.2579   60.3799   78.0754 C   0  0  0  0  0  0  0  0  0  0  0  0
   -0.5333   61.1908   77.2293 N   0  0  0  0  0  0  0  0  0  0  0  0
    0.1334   60.3936   76.4075 N   0  0  0  0  0  0  0  0  0  0  0  0
   -0.2118   59.1594   76.7855 N   0  0  0  0  0  0  0  0  0  0  0  0
   -1.0671   59.0730   77.8141 N   0  0  0  0  0  0  0  0  0  0  0  0
    0.1566   58.3365   76.3170 H   0  0  0  0  0  0  0  0  0  0  0  0
  1  2  1  0  0  0
  2  3  1  0  0  0
  3  4  2  0  0  0
  4  8  1  0  0  0
  8  9  1  0  0  0
  9 10  2  0  0  0
 10 11  1  0  0  0
 11 12  1  0  0  0
 11 13  2  0  0  0
 13 14  1  0  0  0
  4  5  1  0  0  0
  5  6  1  0  0  0
  6  7  2  0  0  0
  7 15  1  0  0  0
 15 16  1  0  0  0
 16 17  2  0  0  0
 17 18  1  0  0  0
 18 19  2  0  0  0
 19 21  1  0  0  0
 21 22  1  0  0  0
 22 23  2  0  0  0
 23 24  1  0  0  0
 24 25  1  0  0  0
 19 20  1  0  0  0
  6  2  1  0  0  0
 20 15  2  0  0  0
 14  8  2  0  0  0
 25 21  2  0  0  0
 24 26  1  0  0  0
M  END
> <minimizedAffinity>
-9.69298

$$$$



 26 29  0  0  0  0  0  0  0  0999 V2000
    0.7036   67.0191   81.2147 C   0  0  0  0  0  0  0  0  0  0  0  0
    0.5357   65.6885   81.7577 N   0  0  0  0  0  0  0  0  0  0  0  0
    0.4849   65.5558   83.1230 N   0  0  0  0  0  0  0  0  0  0  0  0
    0.1887   64.3220   83.4156 C   0  0  0  0  0  0  0  0  0  0  0  0
   -0.0770   63.2389   82.0544 S   0  0  0  0  0  0  0  0  0  0  0  0
    0.2155   64.6008   80.9751 C   0  0  0  0  0  0  0  0  0  0  0  0
    0.1359   64.5844   79.6806 N   0  0  0  0  0  0  0  0  0  0  0  0
    0.0670   63.8329   84.8135 C   0  0  0  0  0  0  0  0  0  0  0  0
    0.7193   64.5538   85.8277 C   0  0  0  0  0  0  0  0  0  0  0  0
    0.6401   64.1412   87.1617 C   0  0  0  0  0  0  0  0  0  0  0  0
   -0.0918   63.0039   87.4911 C   0  0  0  0  0  0  0  0  0  0  0  0
   -0.1912   62.4943   89.1304 Cl  0  0  0  0  0  0  0  0  0  0  0  0
   -0.7441   62.2766   86.4981 C   0  0  0  0  0  0  0  0  0  0  0  0
   -0.6659   62.6885   85.1622 C   0  0  0  0  0  0  0  0  0  0  0  0
   -0.2000   63.4062   79.0035 C   0  0  0  0  0  0  0  0  0  0  0  0
    0.3557   63.1346   77.7513 C   0  0  0  0  0  0  0  0  0  0  0  0
    0.0457   61.9508   77.0836 C   0  0  0  0  0  0  0  0  0  0  0  0
   -0.8152   61.0243   77.6750 C   0  0  0  0  0  0  0  0  0  0  0  0
   -1.3679   61.2693   78.9414 C   0  0  0  0  0  0  0  0  0  0  0  0
   -1.0445   62.4644   79.6003 C   0  0  0  0  0  0  0  0  0  0  0  0
   -2.2602   60.3025   79.5662 C   0  0  0  0  0  0  0  0  0  0  0  0
   -2.7697   59.2101   78.8985 N   0  0  0  0  0  0  0  0  0  0  0  0
   -3.5329   58.5529   79.7594 N   0  0  0  0  0  0  0  0  0  0  0  0
   -3.4531   59.2641   80.8878 N   0  0  0  0  0  0  0  0  0  0  0  0
   -2.6804   60.3587   80.8440 N   0  0  0  0  0  0  0  0  0  0  0  0
   -3.9512   58.9862   81.7285 H   0  0  0  0  0  0  0  0  0  0  0  0
  1  2  1  0  0  0
  2  3  1  0  0  0
  3  4  2  0  0  0
  4  8  1  0  0  0
  8  9  1  0  0  0
  9 10  2  0  0  0
 10 11  1  0  0  0
 11 12  1  0  0  0
 11 13  2  0  0  0
 13 14  1  0  0  0
  4  5  1  0  0  0
  5  6  1  0  0  0
  6  7  2  0  0  0
  7 15  1  0  0  0
 15 16  1  0  0  0
 16 17  2  0  0  0
 17 18  1  0  0  0
 18 19  2  0  0  0
 19 21  1  0  0  0
 21 22  1  0  0  0
 22 23  2  0  0  0
 23 24  1  0  0  0
 24 25  1  0  0  0
 19 20  1  0  0  0
  6  2  1  0  0  0
 20 15  2  0  0  0
 14  8  2  0  0  0
 25 21  2  0  0  0
 24 26  1  0  0  0
M  END
> <minimizedAffinity>
-9.63930

$$$$



 26 29  0  0  0  0  0  0  0  0999 V2000
    2.1359   67.0801   80.7634 C   0  0  0  0  0  0  0  0  0  0  0  0
    1.3455   65.9270   81.1362 N   0  0  0  0  0  0  0  0  0  0  0  0
    1.2035   65.6534   82.4738 N   0  0  0  0  0  0  0  0  0  0  0  0
    0.3520   64.6784   82.6163 C   0  0  0  0  0  0  0  0  0  0  0  0
   -0.3593   64.0408   81.1385 S   0  0  0  0  0  0  0  0  0  0  0  0
    0.5692   65.2339   80.2333 C   0  0  0  0  0  0  0  0  0  0  0  0
    0.5241   65.4295   78.9519 N   0  0  0  0  0  0  0  0  0  0  0  0
   -0.0216   64.1232   83.9431 C   0  0  0  0  0  0  0  0  0  0  0  0
   -1.0202   63.1361   83.9918 C   0  0  0  0  0  0  0  0  0  0  0  0
   -1.4131   62.5768   85.2120 C   0  0  0  0  0  0  0  0  0  0  0  0
   -0.8103   63.0011   86.3928 C   0  0  0  0  0  0  0  0  0  0  0  0
   -1.2910   62.3150   87.8944 Cl  0  0  0  0  0  0  0  0  0  0  0  0
    0.1810   63.9794   86.3630 C   0  0  0  0  0  0  0  0  0  0  0  0
    0.5754   64.5402   85.1422 C   0  0  0  0  0  0  0  0  0  0  0  0
   -0.3114   64.6510   78.1425 C   0  0  0  0  0  0  0  0  0  0  0  0
   -1.1790   65.2642   77.2360 C   0  0  0  0  0  0  0  0  0  0  0  0
   -1.9946   64.4939   76.4085 C   0  0  0  0  0  0  0  0  0  0  0  0
   -1.9352   63.1006   76.4761 C   0  0  0  0  0  0  0  0  0  0  0  0
   -1.0555   62.4652   77.3659 C   0  0  0  0  0  0  0  0  0  0  0  0
   -0.2407   63.2549   78.1903 C   0  0  0  0  0  0  0  0  0  0  0  0
   -0.9840   61.0121   77.4348 C   0  0  0  0  0  0  0  0  0  0  0  0
   -1.9362   60.2427   78.0672 N   0  0  0  0  0  0  0  0  0  0  0  0
   -1.5603   58.9789   77.9366 N   0  0  0  0  0  0  0  0  0  0  0  0
   -0.4187   59.0392   77.2450 N   0  0  0  0  0  0  0  0  0  0  0  0
   -0.0019   60.2648   76.8966 N   0  0  0  0  0  0  0  0  0  0  0  0
    0.0996   58.2008   76.9990 H   0  0  0  0  0  0  0  0  0  0  0  0
  1  2  1  0  0  0
  2  3  1  0  0  0
  3  4  2  0  0  0
  4  8  1  0  0  0
  8  9  1  0  0  0
  9 10  2  0  0  0
 10 11  1  0  0  0
 11 12  1  0  0  0
 11 13  2  0  0  0
 13 14  1  0  0  0
  4  5  1  0  0  0
  5  6  1  0  0  0
  6  7  2  0  0  0
  7 15  1  0  0  0
 15 16  1  0  0  0
 16 17  2  0  0  0
 17 18  1  0  0  0
 18 19  2  0  0  0
 19 21  1  0  0  0
 21 22  1  0  0  0
 22 23  2  0  0  0
 23 24  1  0  0  0
 24 25  1  0  0  0
 19 20  1  0  0  0
  6  2  1  0  0  0
 20 15  2  0  0  0
 14  8  2  0  0  0
 25 21  2  0  0  0
 24 26  1  0  0  0
M  END
> <minimizedAffinity>
-9.20896

$$$$



 26 29  0  0  0  0  0  0  0  0999 V2000
   -0.9894   62.5096   86.9786 C   0  0  0  0  0  0  0  0  0  0  0  0
   -0.7354   62.6117   85.5578 N   0  0  0  0  0  0  0  0  0  0  0  0
   -1.5270   61.8760   84.7114 N   0  0  0  0  0  0  0  0  0  0  0  0
   -1.2484   62.2042   83.4824 C   0  0  0  0  0  0  0  0  0  0  0  0
   -0.0247   63.4499   83.2652 S   0  0  0  0  0  0  0  0  0  0  0  0
    0.1063   63.5600   85.0190 C   0  0  0  0  0  0  0  0  0  0  0  0
    0.8528   64.3881   85.6819 N   0  0  0  0  0  0  0  0  0  0  0  0
   -1.9191   61.5825   82.3111 C   0  0  0  0  0  0  0  0  0  0  0  0
   -1.9682   62.3109   81.1109 C   0  0  0  0  0  0  0  0  0  0  0  0
   -2.5860   61.7767   79.9755 C   0  0  0  0  0  0  0  0  0  0  0  0
   -3.1598   60.5097   80.0326 C   0  0  0  0  0  0  0  0  0  0  0  0
   -3.9198   59.8501   78.6383 Cl  0  0  0  0  0  0  0  0  0  0  0  0
   -3.1209   59.7739   81.2147 C   0  0  0  0  0  0  0  0  0  0  0  0
   -2.5027   60.3073   82.3521 C   0  0  0  0  0  0  0  0  0  0  0  0
    1.6675   65.3063   85.0091 C   0  0  0  0  0  0  0  0  0  0  0  0
    1.0970   66.2685   84.1730 C   0  0  0  0  0  0  0  0  0  0  0  0
    1.9008   67.2024   83.5210 C   0  0  0  0  0  0  0  0  0  0  0  0
    3.2834   67.1849   83.7143 C   0  0  0  0  0  0  0  0  0  0  0  0
    3.8739   66.2389   84.5661 C   0  0  0  0  0  0  0  0  0  0  0  0
    3.0509   65.3074   85.2158 C   0  0  0  0  0  0  0  0  0  0  0  0
    5.3149   66.2213   84.7774 C   0  0  0  0  0  0  0  0  0  0  0  0
    6.1381   67.2690   84.4261 N   0  0  0  0  0  0  0  0  0  0  0  0
    7.3720   66.9185   84.7583 N   0  0  0  0  0  0  0  0  0  0  0  0
    7.2425   65.6973   85.2849 N   0  0  0  0  0  0  0  0  0  0  0  0
    5.9976   65.2024   85.3328 N   0  0  0  0  0  0  0  0  0  0  0  0
    8.0452   65.1779   85.6286 H   0  0  0  0  0  0  0  0  0  0  0  0
  1  2  1  0  0  0
  2  3  1  0  0  0
  3  4  2  0  0  0
  4  8  1  0  0  0
  8  9  1  0  0  0
  9 10  2  0  0  0
 10 11  1  0  0  0
 11 12  1  0  0  0
 11 13  2  0  0  0
 13 14  1  0  0  0
  4  5  1  0  0  0
  5  6  1  0  0  0
  6  7  2  0  0  0
  7 15  1  0  0  0
 15 16  1  0  0  0
 16 17  2  0  0  0
 17 18  1  0  0  0
 18 19  2  0  0  0
 19 21  1  0  0  0
 21 22  1  0  0  0
 22 23  2  0  0  0
 23 24  1  0  0  0
 24 25  1  0  0  0
 19 20  1  0  0  0
  6  2  1  0  0  0
 20 15  2  0  0  0
 14  8  2  0  0  0
 25 21  2  0  0  0
 24 26  1  0  0  0
M  END
> <minimizedAffinity>
-9.01134

$$$$



 26 29  0  0  0  0  0  0  0  0999 V2000
    4.1557   64.7161   86.8742 C   0  0  0  0  0  0  0  0  0  0  0  0
    3.1433   65.2599   85.9950 N   0  0  0  0  0  0  0  0  0  0  0  0
    3.5468   66.1368   85.0190 N   0  0  0  0  0  0  0  0  0  0  0  0
    2.5329   66.4027   84.2463 C   0  0  0  0  0  0  0  0  0  0  0  0
    1.0223   65.5865   84.6317 S   0  0  0  0  0  0  0  0  0  0  0  0
    1.8527   64.7792   85.9597 C   0  0  0  0  0  0  0  0  0  0  0  0
    1.3441   63.8888   86.7541 N   0  0  0  0  0  0  0  0  0  0  0  0
    2.6230   67.3335   83.0914 C   0  0  0  0  0  0  0  0  0  0  0  0
    3.3247   68.5384   83.2636 C   0  0  0  0  0  0  0  0  0  0  0  0
    3.4428   69.4531   82.2122 C   0  0  0  0  0  0  0  0  0  0  0  0
    2.8594   69.1694   80.9806 C   0  0  0  0  0  0  0  0  0  0  0  0
    3.0031   70.2919   79.6860 Cl  0  0  0  0  0  0  0  0  0  0  0  0
    2.1593   67.9799   80.7926 C   0  0  0  0  0  0  0  0  0  0  0  0
    2.0402   67.0632   81.8442 C   0  0  0  0  0  0  0  0  0  0  0  0
    0.0112   63.4862   86.6108 C   0  0  0  0  0  0  0  0  0  0  0  0
   -0.8877   63.6496   87.6672 C   0  0  0  0  0  0  0  0  0  0  0  0
   -2.2227   63.2750   87.5218 C   0  0  0  0  0  0  0  0  0  0  0  0
   -2.6678   62.7453   86.3093 C   0  0  0  0  0  0  0  0  0  0  0  0
   -1.7849   62.5919   85.2293 C   0  0  0  0  0  0  0  0  0  0  0  0
   -0.4456   62.9752   85.3916 C   0  0  0  0  0  0  0  0  0  0  0  0
   -2.2460   62.0471   83.9597 C   0  0  0  0  0  0  0  0  0  0  0  0
   -2.8925   60.8349   83.8533 N   0  0  0  0  0  0  0  0  0  0  0  0
   -3.1670   60.6552   82.5696 N   0  0  0  0  0  0  0  0  0  0  0  0
   -2.6827   61.7456   81.9681 N   0  0  0  0  0  0  0  0  0  0  0  0
   -2.1016   62.6528   82.7660 N   0  0  0  0  0  0  0  0  0  0  0  0
   -2.7541   61.8753   80.9630 H   0  0  0  0  0  0  0  0  0  0  0  0
  1  2  1  0  0  0
  2  3  1  0  0  0
  3  4  2  0  0  0
  4  8  1  0  0  0
  8  9  1  0  0  0
  9 10  2  0  0  0
 10 11  1  0  0  0
 11 12  1  0  0  0
 11 13  2  0  0  0
 13 14  1  0  0  0
  4  5  1  0  0  0
  5  6  1  0  0  0
  6  7  2  0  0  0
  7 15  1  0  0  0
 15 16  1  0  0  0
 16 17  2  0  0  0
 17 18  1  0  0  0
 18 19  2  0  0  0
 19 21  1  0  0  0
 21 22  1  0  0  0
 22 23  2  0  0  0
 23 24  1  0  0  0
 24 25  1  0  0  0
 19 20  1  0  0  0
  6  2  1  0  0  0
 20 15  2  0  0  0
 14  8  2  0  0  0
 25 21  2  0  0  0
 24 26  1  0  0  0
M  END
> <minimizedAffinity>
-8.96892

$$$$



 26 29  0  0  0  0  0  0  0  0999 V2000
    0.6199   62.2164   80.0926 C   0  0  0  0  0  0  0  0  0  0  0  0
    0.2936   63.1074   81.1849 N   0  0  0  0  0  0  0  0  0  0  0  0
    0.2212   62.5731   82.4473 N   0  0  0  0  0  0  0  0  0  0  0  0
    0.0620   63.5397   83.3053 C   0  0  0  0  0  0  0  0  0  0  0  0
    0.0160   65.1701   82.6450 S   0  0  0  0  0  0  0  0  0  0  0  0
    0.2655   64.4776   81.0440 C   0  0  0  0  0  0  0  0  0  0  0  0
    0.4053   65.1375   79.9362 N   0  0  0  0  0  0  0  0  0  0  0  0
   -0.0673   63.3056   84.7671 C   0  0  0  0  0  0  0  0  0  0  0  0
    0.5151   64.2376   85.6422 C   0  0  0  0  0  0  0  0  0  0  0  0
    0.4255   64.0697   87.0278 C   0  0  0  0  0  0  0  0  0  0  0  0
   -0.2471   62.9677   87.5483 C   0  0  0  0  0  0  0  0  0  0  0  0
   -0.3593   62.7587   89.2514 Cl  0  0  0  0  0  0  0  0  0  0  0  0
   -0.8298   62.0334   86.6951 C   0  0  0  0  0  0  0  0  0  0  0  0
   -0.7410   62.2001   85.3078 C   0  0  0  0  0  0  0  0  0  0  0  0
    0.3554   66.5364   79.9304 C   0  0  0  0  0  0  0  0  0  0  0  0
   -0.8701   67.1935   79.8004 C   0  0  0  0  0  0  0  0  0  0  0  0
   -0.9296   68.5861   79.8205 C   0  0  0  0  0  0  0  0  0  0  0  0
    0.2408   69.3294   79.9844 C   0  0  0  0  0  0  0  0  0  0  0  0
    1.4795   68.6877   80.1370 C   0  0  0  0  0  0  0  0  0  0  0  0
    1.5216   67.2860   80.1161 C   0  0  0  0  0  0  0  0  0  0  0  0
    2.7024   69.4582   80.3162 C   0  0  0  0  0  0  0  0  0  0  0  0
    3.2458   70.2456   79.3245 N   0  0  0  0  0  0  0  0  0  0  0  0
    4.3416   70.7964   79.8260 N   0  0  0  0  0  0  0  0  0  0  0  0
    4.4112   70.3258   81.0746 N   0  0  0  0  0  0  0  0  0  0  0  0
    3.4285   69.4946   81.4494 N   0  0  0  0  0  0  0  0  0  0  0  0
    5.1675   70.5870   81.7006 H   0  0  0  0  0  0  0  0  0  0  0  0
  1  2  1  0  0  0
  2  3  1  0  0  0
  3  4  2  0  0  0
  4  8  1  0  0  0
  8  9  1  0  0  0
  9 10  2  0  0  0
 10 11  1  0  0  0
 11 12  1  0  0  0
 11 13  2  0  0  0
 13 14  1  0  0  0
  4  5  1  0  0  0
  5  6  1  0  0  0
  6  7  2  0  0  0
  7 15  1  0  0  0
 15 16  1  0  0  0
 16 17  2  0  0  0
 17 18  1  0  0  0
 18 19  2  0  0  0
 19 21  1  0  0  0
 21 22  1  0  0  0
 22 23  2  0  0  0
 23 24  1  0  0  0
 24 25  1  0  0  0
 19 20  1  0  0  0
  6  2  1  0  0  0
 20 15  2  0  0  0
 14  8  2  0  0  0
 25 21  2  0  0  0
 24 26  1  0  0  0
M  END
> <minimizedAffinity>
-8.94438

$$$$



 26 29  0  0  0  0  0  0  0  0999 V2000
    4.8282   66.3588   85.0573 C   0  0  0  0  0  0  0  0  0  0  0  0
    3.4596   66.1045   84.6627 N   0  0  0  0  0  0  0  0  0  0  0  0
    2.7359   65.2046   85.4048 N   0  0  0  0  0  0  0  0  0  0  0  0
    1.5006   65.2157   84.9929 C   0  0  0  0  0  0  0  0  0  0  0  0
    1.1211   66.3394   83.6929 S   0  0  0  0  0  0  0  0  0  0  0  0
    2.8008   66.8710   83.7264 C   0  0  0  0  0  0  0  0  0  0  0  0
    3.3204   67.8168   83.0068 N   0  0  0  0  0  0  0  0  0  0  0  0
    0.4489   64.3439   85.5777 C   0  0  0  0  0  0  0  0  0  0  0  0
   -0.3533   63.5933   84.7020 C   0  0  0  0  0  0  0  0  0  0  0  0
   -1.3587   62.7553   85.1949 C   0  0  0  0  0  0  0  0  0  0  0  0
   -1.5695   62.6622   86.5677 C   0  0  0  0  0  0  0  0  0  0  0  0
   -2.8046   61.6324   87.1767 Cl  0  0  0  0  0  0  0  0  0  0  0  0
   -0.7839   63.3999   87.4503 C   0  0  0  0  0  0  0  0  0  0  0  0
    0.2230   64.2393   86.9584 C   0  0  0  0  0  0  0  0  0  0  0  0
    2.5369   68.5221   82.0859 C   0  0  0  0  0  0  0  0  0  0  0  0
    2.1533   67.9199   80.8856 C   0  0  0  0  0  0  0  0  0  0  0  0
    1.3510   68.6074   79.9762 C   0  0  0  0  0  0  0  0  0  0  0  0
    0.9171   69.9011   80.2716 C   0  0  0  0  0  0  0  0  0  0  0  0
    1.2748   70.5160   81.4812 C   0  0  0  0  0  0  0  0  0  0  0  0
    2.0811   69.8100   82.3859 C   0  0  0  0  0  0  0  0  0  0  0  0
    0.8183   71.8624   81.7978 C   0  0  0  0  0  0  0  0  0  0  0  0
    1.6600   72.8520   82.2572 N   0  0  0  0  0  0  0  0  0  0  0  0
    0.9191   73.9355   82.4384 N   0  0  0  0  0  0  0  0  0  0  0  0
   -0.3143   73.5597   82.0880 N   0  0  0  0  0  0  0  0  0  0  0  0
   -0.4523   72.2910   81.6776 N   0  0  0  0  0  0  0  0  0  0  0  0
   -1.0993   74.2031   82.1314 H   0  0  0  0  0  0  0  0  0  0  0  0
  1  2  1  0  0  0
  2  3  1  0  0  0
  3  4  2  0  0  0
  4  8  1  0  0  0
  8  9  1  0  0  0
  9 10  2  0  0  0
 10 11  1  0  0  0
 11 12  1  0  0  0
 11 13  2  0  0  0
 13 14  1  0  0  0
  4  5  1  0  0  0
  5  6  1  0  0  0
  6  7  2  0  0  0
  7 15  1  0  0  0
 15 16  1  0  0  0
 16 17  2  0  0  0
 17 18  1  0  0  0
 18 19  2  0  0  0
 19 21  1  0  0  0
 21 22  1  0  0  0
 22 23  2  0  0  0
 23 24  1  0  0  0
 24 25  1  0  0  0
 19 20  1  0  0  0
  6  2  1  0  0  0
 20 15  2  0  0  0
 14  8  2  0  0  0
 25 21  2  0  0  0
 24 26  1  0  0  0
M  END
> <minimizedAffinity>
-8.84038

$$$$



 26 29  0  0  0  0  0  0  0  0999 V2000
    0.2352   63.9698   80.9805 C   0  0  0  0  0  0  0  0  0  0  0  0
    0.3582   64.5092   82.3174 N   0  0  0  0  0  0  0  0  0  0  0  0
    0.1292   63.6623   83.3732 N   0  0  0  0  0  0  0  0  0  0  0  0
    0.4246   64.2804   84.4807 C   0  0  0  0  0  0  0  0  0  0  0  0
    1.0280   65.9255   84.3198 S   0  0  0  0  0  0  0  0  0  0  0  0
    0.8940   65.7528   82.5712 C   0  0  0  0  0  0  0  0  0  0  0  0
    1.2435   66.6327   81.6846 N   0  0  0  0  0  0  0  0  0  0  0  0
    0.2776   63.6501   85.8184 C   0  0  0  0  0  0  0  0  0  0  0  0
    1.0896   64.1179   86.8650 C   0  0  0  0  0  0  0  0  0  0  0  0
    0.9952   63.5631   88.1454 C   0  0  0  0  0  0  0  0  0  0  0  0
    0.0879   62.5357   88.3882 C   0  0  0  0  0  0  0  0  0  0  0  0
   -0.0307   61.8518   89.9614 Cl  0  0  0  0  0  0  0  0  0  0  0  0
   -0.7245   62.0591   87.3618 C   0  0  0  0  0  0  0  0  0  0  0  0
   -0.6312   62.6136   86.0796 C   0  0  0  0  0  0  0  0  0  0  0  0
    1.7775   67.8654   82.0779 C   0  0  0  0  0  0  0  0  0  0  0  0
    3.0782   67.9372   82.5816 C   0  0  0  0  0  0  0  0  0  0  0  0
    3.6252   69.1653   82.9502 C   0  0  0  0  0  0  0  0  0  0  0  0
    2.8739   70.3329   82.8034 C   0  0  0  0  0  0  0  0  0  0  0  0
    1.5726   70.2843   82.2803 C   0  0  0  0  0  0  0  0  0  0  0  0
    1.0378   69.0410   81.9128 C   0  0  0  0  0  0  0  0  0  0  0  0
    0.7876   71.5003   82.1177 C   0  0  0  0  0  0  0  0  0  0  0  0
   -0.4223   71.5304   81.4590 N   0  0  0  0  0  0  0  0  0  0  0  0
   -0.8535   72.7826   81.5008 N   0  0  0  0  0  0  0  0  0  0  0  0
    0.0972   73.4416   82.1696 N   0  0  0  0  0  0  0  0  0  0  0  0
    1.1419   72.7119   82.5857 N   0  0  0  0  0  0  0  0  0  0  0  0
    0.0269   74.4388   82.3504 H   0  0  0  0  0  0  0  0  0  0  0  0
  1  2  1  0  0  0
  2  3  1  0  0  0
  3  4  2  0  0  0
  4  8  1  0  0  0
  8  9  1  0  0  0
  9 10  2  0  0  0
 10 11  1  0  0  0
 11 12  1  0  0  0
 11 13  2  0  0  0
 13 14  1  0  0  0
  4  5  1  0  0  0
  5  6  1  0  0  0
  6  7  2  0  0  0
  7 15  1  0  0  0
 15 16  1  0  0  0
 16 17  2  0  0  0
 17 18  1  0  0  0
 18 19  2  0  0  0
 19 21  1  0  0  0
 21 22  1  0  0  0
 22 23  2  0  0  0
 23 24  1  0  0  0
 24 25  1  0  0  0
 19 20  1  0  0  0
  6  2  1  0  0  0
 20 15  2  0  0  0
 14  8  2  0  0  0
 25 21  2  0  0  0
 24 26  1  0  0  0
M  END
> <minimizedAffinity>
-8.81025

$$$$



 26 29  0  0  0  0  0  0  0  0999 V2000
   -0.1435   63.0282   86.6069 C   0  0  0  0  0  0  0  0  0  0  0  0
   -0.1198   63.6503   85.3009 N   0  0  0  0  0  0  0  0  0  0  0  0
    0.6087   64.8045   85.1545 N   0  0  0  0  0  0  0  0  0  0  0  0
    0.6293   65.1327   83.8945 C   0  0  0  0  0  0  0  0  0  0  0  0
   -0.2109   64.0492   82.7916 S   0  0  0  0  0  0  0  0  0  0  0  0
   -0.6097   63.0299   84.1725 C   0  0  0  0  0  0  0  0  0  0  0  0
   -1.2420   61.8981   84.1332 N   0  0  0  0  0  0  0  0  0  0  0  0
    1.3244   66.3452   83.3895 C   0  0  0  0  0  0  0  0  0  0  0  0
    2.0846   67.1007   84.2978 C   0  0  0  0  0  0  0  0  0  0  0  0
    2.7610   68.2514   83.8799 C   0  0  0  0  0  0  0  0  0  0  0  0
    2.6815   68.6551   82.5501 C   0  0  0  0  0  0  0  0  0  0  0  0
    3.5122   70.0691   82.0332 Cl  0  0  0  0  0  0  0  0  0  0  0  0
    1.9316   67.9183   81.6362 C   0  0  0  0  0  0  0  0  0  0  0  0
    1.2540   66.7661   82.0531 C   0  0  0  0  0  0  0  0  0  0  0  0
   -1.6904   61.3758   82.9143 C   0  0  0  0  0  0  0  0  0  0  0  0
   -2.8874   60.6585   82.8570 C   0  0  0  0  0  0  0  0  0  0  0  0
   -3.3527   60.1585   81.6417 C   0  0  0  0  0  0  0  0  0  0  0  0
   -2.6252   60.3865   80.4721 C   0  0  0  0  0  0  0  0  0  0  0  0
   -1.4306   61.1221   80.5055 C   0  0  0  0  0  0  0  0  0  0  0  0
   -0.9773   61.6195   81.7360 C   0  0  0  0  0  0  0  0  0  0  0  0
   -0.6720   61.3696   79.2870 C   0  0  0  0  0  0  0  0  0  0  0  0
    0.1954   62.4307   79.1451 N   0  0  0  0  0  0  0  0  0  0  0  0
    0.7084   62.3496   77.9261 N   0  0  0  0  0  0  0  0  0  0  0  0
    0.1385   61.2641   77.3949 N   0  0  0  0  0  0  0  0  0  0  0  0
   -0.7246   60.6044   78.1805 N   0  0  0  0  0  0  0  0  0  0  0  0
    0.3512   60.9599   76.4492 H   0  0  0  0  0  0  0  0  0  0  0  0
  1  2  1  0  0  0
  2  3  1  0  0  0
  3  4  2  0  0  0
  4  8  1  0  0  0
  8  9  1  0  0  0
  9 10  2  0  0  0
 10 11  1  0  0  0
 11 12  1  0  0  0
 11 13  2  0  0  0
 13 14  1  0  0  0
  4  5  1  0  0  0
  5  6  1  0  0  0
  6  7  2  0  0  0
  7 15  1  0  0  0
 15 16  1  0  0  0
 16 17  2  0  0  0
 17 18  1  0  0  0
 18 19  2  0  0  0
 19 21  1  0  0  0
 21 22  1  0  0  0
 22 23  2  0  0  0
 23 24  1  0  0  0
 24 25  1  0  0  0
 19 20  1  0  0  0
  6  2  1  0  0  0
 20 15  2  0  0  0
 14  8  2  0  0  0
 25 21  2  0  0  0
 24 26  1  0  0  0
M  END
> <minimizedAffinity>
-8.80864

$$$$
