
     RDKit          3D

 73 77  0  0  0  0  0  0  0  0999 V2000
   -2.9297   -2.9616    1.1275 C   0  0  0  0  0  0  0  0  0  0  0  0
   -1.5754   -2.3096    1.2398 C   0  0  0  0  0  0  0  0  0  0  0  0
   -0.9984   -1.5653    0.2712 C   0  0  0  0  0  0  0  0  0  0  0  0
   -1.6462   -1.2741   -1.0229 C   0  0  0  0  0  0  0  0  0  0  0  0
   -1.1181   -1.4849   -2.1034 O   0  0  0  0  0  0  0  0  0  0  0  0
   -2.8378   -0.6724   -0.8047 O   0  0  0  0  0  0  0  0  0  0  0  0
   -3.5387   -0.2266   -1.9773 C   0  0  2  0  0  0  0  0  0  0  0  0
   -3.0113    1.1418   -2.4062 C   0  0  0  0  0  0  0  0  0  0  0  0
   -5.0146   -0.1575   -1.6315 C   0  0  0  0  0  0  0  0  0  0  0  0
   -5.4585    0.4784   -0.4606 C   0  0  0  0  0  0  0  0  0  0  0  0
   -6.8194    0.5445   -0.1582 C   0  0  0  0  0  0  0  0  0  0  0  0
   -7.7539   -0.0219   -1.0222 C   0  0  0  0  0  0  0  0  0  0  0  0
   -7.3289   -0.6541   -2.1888 C   0  0  0  0  0  0  0  0  0  0  0  0
   -5.9677   -0.7211   -2.4933 C   0  0  0  0  0  0  0  0  0  0  0  0
    0.3950   -0.9733    0.4331 C   0  0  0  0  0  0  0  0  0  0  0  0
    0.3519    0.5517    0.2666 C   0  0  0  0  0  0  0  0  0  0  0  0
    0.9132    1.1433   -0.8766 C   0  0  0  0  0  0  0  0  0  0  0  0
    0.8745    2.5266   -1.0845 C   0  0  0  0  0  0  0  0  0  0  0  0
    0.2457    3.3074   -0.1074 C   0  0  0  0  0  0  0  0  0  0  0  0
   -0.3270    2.7566    1.0345 C   0  0  0  0  0  0  0  0  0  0  0  0
   -0.8503    3.8616    1.7403 C   0  0  0  0  0  0  0  0  0  0  0  0
   -0.6414    5.0217    1.1135 N   0  0  0  0  0  0  0  0  0  0  0  0
    0.0305    4.6603    0.0018 N   0  0  0  0  0  0  0  0  0  0  0  0
    0.4372    5.6728   -0.9428 C   0  0  0  0  0  0  0  0  0  0  0  0
   -0.2786    1.3654    1.2306 C   0  0  0  0  0  0  0  0  0  0  0  0
    1.0658   -1.3775    1.7443 C   0  0  0  0  0  0  0  0  0  0  0  0
    2.4411   -0.8792    1.9820 C   0  0  0  0  0  0  0  0  0  0  0  0
    2.8520   -0.4652    3.0547 O   0  0  0  0  0  0  0  0  0  0  0  0
    3.1520   -0.9563    0.8320 O   0  0  0  0  0  0  0  0  0  0  0  0
    4.5055   -0.4733    0.9010 C   0  0  2  0  0  0  0  0  0  0  0  0
    4.5240    1.0447    0.7278 C   0  0  0  0  0  0  0  0  0  0  0  0
    5.3062   -1.1451   -0.2003 C   0  0  0  0  0  0  0  0  0  0  0  0
    6.6107   -1.5952    0.0561 C   0  0  0  0  0  0  0  0  0  0  0  0
    7.3657   -2.1995   -0.9511 C   0  0  0  0  0  0  0  0  0  0  0  0
    6.8288   -2.3583   -2.2269 C   0  0  0  0  0  0  0  0  0  0  0  0
    5.5373   -1.9120   -2.4981 C   0  0  0  0  0  0  0  0  0  0  0  0
    4.7813   -1.3070   -1.4927 C   0  0  0  0  0  0  0  0  0  0  0  0
    0.4146   -2.1236    2.6669 C   0  0  0  0  0  0  0  0  0  0  0  0
    1.0138   -2.5843    3.9721 C   0  0  0  0  0  0  0  0  0  0  0  0
   -0.8846   -2.5421    2.4185 N   0  0  0  0  0  0  0  0  0  0  0  0
   -3.6657   -2.4023    1.7139 H   0  0  0  0  0  0  0  0  0  0  0  0
   -2.8912   -3.9864    1.5138 H   0  0  0  0  0  0  0  0  0  0  0  0
   -3.2879   -3.0331    0.0968 H   0  0  0  0  0  0  0  0  0  0  0  0
   -3.4001   -0.9514   -2.7899 H   0  0  0  0  0  0  0  0  0  0  0  0
   -1.9581    1.0771   -2.6986 H   0  0  0  0  0  0  0  0  0  0  0  0
   -3.5783    1.5412   -3.2534 H   0  0  0  0  0  0  0  0  0  0  0  0
   -3.0602    1.8655   -1.5845 H   0  0  0  0  0  0  0  0  0  0  0  0
   -4.7401    0.9249    0.2244 H   0  0  0  0  0  0  0  0  0  0  0  0
   -7.1491    1.0393    0.7517 H   0  0  0  0  0  0  0  0  0  0  0  0
   -8.8136    0.0305   -0.7867 H   0  0  0  0  0  0  0  0  0  0  0  0
   -8.0582   -1.0949   -2.8636 H   0  0  0  0  0  0  0  0  0  0  0  0
   -5.6570   -1.2175   -3.4102 H   0  0  0  0  0  0  0  0  0  0  0  0
    1.0048   -1.4011   -0.3762 H   0  0  0  0  0  0  0  0  0  0  0  0
    1.3862    0.5197   -1.6348 H   0  0  0  0  0  0  0  0  0  0  0  0
    1.3122    2.9662   -1.9748 H   0  0  0  0  0  0  0  0  0  0  0  0
   -1.3773    3.8638    2.6852 H   0  0  0  0  0  0  0  0  0  0  0  0
    1.4980    5.5361   -1.1671 H   0  0  0  0  0  0  0  0  0  0  0  0
    0.2789    6.6633   -0.5082 H   0  0  0  0  0  0  0  0  0  0  0  0
   -0.1664    5.5591   -1.8465 H   0  0  0  0  0  0  0  0  0  0  0  0
   -0.7316    0.9294    2.1178 H   0  0  0  0  0  0  0  0  0  0  0  0
    4.9450   -0.7476    1.8687 H   0  0  0  0  0  0  0  0  0  0  0  0
    5.5466    1.4357    0.7453 H   0  0  0  0  0  0  0  0  0  0  0  0
    4.0592    1.3436   -0.2184 H   0  0  0  0  0  0  0  0  0  0  0  0
    3.9540    1.5358    1.5233 H   0  0  0  0  0  0  0  0  0  0  0  0
    7.0492   -1.4783    1.0450 H   0  0  0  0  0  0  0  0  0  0  0  0
    8.3738   -2.5465   -0.7395 H   0  0  0  0  0  0  0  0  0  0  0  0
    7.4167   -2.8299   -3.0097 H   0  0  0  0  0  0  0  0  0  0  0  0
    5.1170   -2.0357   -3.4927 H   0  0  0  0  0  0  0  0  0  0  0  0
    3.7748   -0.9642   -1.7220 H   0  0  0  0  0  0  0  0  0  0  0  0
    0.6323   -3.5758    4.2420 H   0  0  0  0  0  0  0  0  0  0  0  0
    0.7492   -1.8889    4.7748 H   0  0  0  0  0  0  0  0  0  0  0  0
    2.1021   -2.6817    3.9280 H   0  0  0  0  0  0  0  0  0  0  0  0
   -1.3311   -3.1317    3.1170 H   0  0  0  0  0  0  0  0  0  0  0  0
  1  2  1  0
  2  3  2  0
  3  4  1  0
  4  5  2  0
  4  6  1  0
  6  7  1  0
  7  8  1  0
  7  9  1  0
  9 10  2  0
 10 11  1  0
 11 12  2  0
 12 13  1  0
 13 14  2  0
  3 15  1  0
 15 16  1  0
 16 17  2  0
 17 18  1  0
 18 19  2  0
 19 20  1  0
 20 21  1  0
 21 22  2  0
 22 23  1  0
 23 24  1  0
 20 25  2  0
 15 26  1  0
 26 27  1  0
 27 28  2  0
 27 29  1  0
 29 30  1  0
 30 31  1  0
 30 32  1  0
 32 33  2  0
 33 34  1  0
 34 35  2  0
 35 36  1  0
 36 37  2  0
 26 38  2  0
 38 39  1  0
 38 40  1  0
 40  2  1  0
 14  9  1  0
 25 16  1  0
 37 32  1  0
 23 19  1  0
  1 41  1  0
  1 42  1  0
  1 43  1  0
  7 44  1  6
  8 45  1  0
  8 46  1  0
  8 47  1  0
 10 48  1  0
 11 49  1  0
 12 50  1  0
 13 51  1  0
 14 52  1  0
 15 53  1  0
 17 54  1  0
 18 55  1  0
 21 56  1  0
 24 57  1  0
 24 58  1  0
 24 59  1  0
 25 60  1  0
 30 61  1  1
 31 62  1  0
 31 63  1  0
 31 64  1  0
 33 65  1  0
 34 66  1  0
 35 67  1  0
 36 68  1  0
 37 69  1  0
 39 70  1  0
 39 71  1  0
 39 72  1  0
 40 73  1  0
M  END
$$$$
