
     RDKit          3D

 48 52  0  0  0  0  0  0  0  0999 V2000
    6.0474   -1.7519    3.0552 C   0  0  0  0  0  0  0  0  0  0  0  0
    5.2862   -0.7999    2.1815 C   0  0  0  0  0  0  0  0  0  0  0  0
    4.0313   -0.3207    2.5763 C   0  0  0  0  0  0  0  0  0  0  0  0
    3.3056    0.5409    1.7479 C   0  0  0  0  0  0  0  0  0  0  0  0
    3.8166    0.9294    0.5008 C   0  0  0  0  0  0  0  0  0  0  0  0
    3.0463    1.8508   -0.4059 C   0  0  0  0  0  0  0  0  0  0  0  0
    1.8465    1.2127   -0.9268 N   0  0  0  0  0  0  0  0  0  0  0  0
    0.6717    1.3406   -0.2699 N   0  0  0  0  0  0  0  0  0  0  0  0
   -0.2126    0.6324   -1.0075 C   0  0  0  0  0  0  0  0  0  0  0  0
   -1.6265    0.4986   -0.6139 C   0  0  0  0  0  0  0  0  0  0  0  0
   -2.4417   -0.2194   -1.4467 N   0  0  0  0  0  0  0  0  0  0  0  0
   -3.7597   -0.3848   -1.1458 N   0  0  0  0  0  0  0  0  0  0  0  0
   -4.1804    0.1876   -0.0157 C   0  0  0  0  0  0  0  0  0  0  0  0
   -3.3195    0.8996    0.7878 C   0  0  0  0  0  0  0  0  0  0  0  0
   -2.0297    1.0871    0.5372 N   0  0  0  0  0  0  0  0  0  0  0  0
   -3.9991    1.3849    1.8869 N   0  0  0  0  0  0  0  0  0  0  0  0
   -5.3344    1.0143    1.8549 C   0  0  0  0  0  0  0  0  0  0  0  0
   -6.1675    1.3039    2.6974 O   0  0  0  0  0  0  0  0  0  0  0  0
   -5.5673    0.1786    0.5733 C   0  0  0  0  0  0  0  0  0  0  0  0
   -6.0139   -1.2335    0.9384 C   0  0  0  0  0  0  0  0  0  0  0  0
   -6.5697    0.8794   -0.3383 C   0  0  0  0  0  0  0  0  0  0  0  0
    0.4262    0.0783   -2.1661 C   0  0  0  0  0  0  0  0  0  0  0  0
    0.0653   -0.7106   -3.2752 C   0  0  0  0  0  0  0  0  0  0  0  0
    1.0644   -1.0132   -4.1941 C   0  0  0  0  0  0  0  0  0  0  0  0
    0.7789   -1.7601   -5.2683 F   0  0  0  0  0  0  0  0  0  0  0  0
    2.3510   -0.5391   -3.9955 C   0  0  0  0  0  0  0  0  0  0  0  0
    2.7510    0.2225   -2.9496 N   0  0  0  0  0  0  0  0  0  0  0  0
    1.7525    0.4872   -2.0803 C   0  0  0  0  0  0  0  0  0  0  0  0
    5.0635    0.4366    0.1136 C   0  0  0  0  0  0  0  0  0  0  0  0
    5.5881    0.7949   -1.0667 F   0  0  0  0  0  0  0  0  0  0  0  0
    5.7927   -0.4216    0.9339 C   0  0  0  0  0  0  0  0  0  0  0  0
    7.1266   -1.6421    2.9052 H   0  0  0  0  0  0  0  0  0  0  0  0
    5.8454   -1.5568    4.1136 H   0  0  0  0  0  0  0  0  0  0  0  0
    5.7611   -2.7824    2.8239 H   0  0  0  0  0  0  0  0  0  0  0  0
    3.6070   -0.6166    3.5340 H   0  0  0  0  0  0  0  0  0  0  0  0
    2.3313    0.8999    2.0781 H   0  0  0  0  0  0  0  0  0  0  0  0
    3.6441    2.1870   -1.2603 H   0  0  0  0  0  0  0  0  0  0  0  0
    2.7394    2.7505    0.1411 H   0  0  0  0  0  0  0  0  0  0  0  0
   -3.5709    1.9376    2.6133 H   0  0  0  0  0  0  0  0  0  0  0  0
   -6.9926   -1.2215    1.4313 H   0  0  0  0  0  0  0  0  0  0  0  0
   -6.0899   -1.8703    0.0498 H   0  0  0  0  0  0  0  0  0  0  0  0
   -5.3098   -1.7123    1.6295 H   0  0  0  0  0  0  0  0  0  0  0  0
   -6.6751    0.3539   -1.2942 H   0  0  0  0  0  0  0  0  0  0  0  0
   -6.2624    1.9089   -0.5586 H   0  0  0  0  0  0  0  0  0  0  0  0
   -7.5588    0.9309    0.1307 H   0  0  0  0  0  0  0  0  0  0  0  0
   -0.9436   -1.0778   -3.4279 H   0  0  0  0  0  0  0  0  0  0  0  0
    3.1296   -0.7765   -4.7151 H   0  0  0  0  0  0  0  0  0  0  0  0
    6.7553   -0.7860    0.5867 H   0  0  0  0  0  0  0  0  0  0  0  0
  1  2  1  0
  2  3  1  0
  3  4  2  0
  4  5  1  0
  5  6  1  0
  6  7  1  0
  7  8  1  0
  8  9  2  0
  9 10  1  0
 10 11  1  0
 11 12  2  0
 12 13  1  0
 13 14  2  0
 14 15  1  0
 14 16  1  0
 16 17  1  0
 17 18  2  0
 17 19  1  0
 19 20  1  0
 19 21  1  0
  9 22  1  0
 22 23  1  0
 23 24  2  0
 24 25  1  0
 24 26  1  0
 26 27  2  0
 27 28  1  0
  5 29  2  0
 29 30  1  0
 29 31  1  0
 31  2  2  0
 28  7  1  0
 15 10  2  0
 28 22  2  0
 19 13  1  0
  1 32  1  0
  1 33  1  0
  1 34  1  0
  3 35  1  0
  4 36  1  0
  6 37  1  0
  6 38  1  0
 16 39  1  0
 20 40  1  0
 20 41  1  0
 20 42  1  0
 21 43  1  0
 21 44  1  0
 21 45  1  0
 23 46  1  0
 26 47  1  0
 31 48  1  0
M  END
$$$$
