
     RDKit          3D

 33 35  0  0  0  0  0  0  0  0999 V2000
   -2.9405   -2.1777    0.5073 C   0  0  0  0  0  0  0  0  0  0  0  0
   -3.2444   -1.2084   -0.6266 C   0  0  0  0  0  0  0  0  0  0  0  0
   -2.7825    0.2141   -0.3157 C   0  0  0  0  0  0  0  0  0  0  0  0
   -1.3561    0.2196   -0.2136 O   0  0  0  0  0  0  0  0  0  0  0  0
   -0.7314    1.3933    0.1279 C   0  0  0  0  0  0  0  0  0  0  0  0
   -1.4140    2.6092    0.2828 C   0  0  0  0  0  0  0  0  0  0  0  0
   -0.7307    3.7753    0.6359 C   0  0  0  0  0  0  0  0  0  0  0  0
    0.6430    3.7440    0.8378 C   0  0  0  0  0  0  0  0  0  0  0  0
    1.3369    2.5447    0.6835 C   0  0  0  0  0  0  0  0  0  0  0  0
    0.6676    1.3590    0.3255 C   0  0  0  0  0  0  0  0  0  0  0  0
    1.5136    0.1220    0.1812 C   0  0  0  0  0  0  0  0  0  0  0  0
    2.7843    0.1438    0.5033 N   0  0  0  0  0  0  0  0  0  0  0  0
    3.4036   -1.0446    0.3151 C   0  0  0  0  0  0  0  0  0  0  0  0
    4.7091   -1.3429    0.5556 N   0  0  0  0  0  0  0  0  0  0  0  0
    4.9766   -2.6319    0.2519 N   0  0  0  0  0  0  0  0  0  0  0  0
    3.8461   -3.1867   -0.1889 N   0  0  0  0  0  0  0  0  0  0  0  0
    2.8838   -2.2246   -0.1531 C   0  0  0  0  0  0  0  0  0  0  0  0
    1.4927   -2.2590   -0.5082 C   0  0  0  0  0  0  0  0  0  0  0  0
    0.8830   -3.2350   -0.9310 O   0  0  0  0  0  0  0  0  0  0  0  0
    0.8853   -1.0259   -0.3127 N   0  0  0  0  0  0  0  0  0  0  0  0
   -1.8649   -2.2522    0.6933 H   0  0  0  0  0  0  0  0  0  0  0  0
   -3.4280   -1.8598    1.4345 H   0  0  0  0  0  0  0  0  0  0  0  0
   -3.3081   -3.1778    0.2566 H   0  0  0  0  0  0  0  0  0  0  0  0
   -2.7442   -1.5672   -1.5337 H   0  0  0  0  0  0  0  0  0  0  0  0
   -4.3232   -1.2056   -0.8177 H   0  0  0  0  0  0  0  0  0  0  0  0
   -3.0950    0.8697   -1.1368 H   0  0  0  0  0  0  0  0  0  0  0  0
   -3.2364    0.5489    0.6248 H   0  0  0  0  0  0  0  0  0  0  0  0
   -2.4863    2.6897    0.1335 H   0  0  0  0  0  0  0  0  0  0  0  0
   -1.2751    4.7097    0.7527 H   0  0  0  0  0  0  0  0  0  0  0  0
    1.1770    4.6502    1.1134 H   0  0  0  0  0  0  0  0  0  0  0  0
    2.4136    2.5455    0.8436 H   0  0  0  0  0  0  0  0  0  0  0  0
    5.4461   -0.7480    0.9114 H   0  0  0  0  0  0  0  0  0  0  0  0
   -0.1013   -0.9913   -0.5357 H   0  0  0  0  0  0  0  0  0  0  0  0
  1  2  1  0
  2  3  1  0
  3  4  1  0
  4  5  1  0
  5  6  2  0
  6  7  1  0
  7  8  2  0
  8  9  1  0
  9 10  2  0
 10 11  1  0
 11 12  2  0
 12 13  1  0
 13 14  1  0
 14 15  1  0
 15 16  2  0
 16 17  1  0
 17 18  1  0
 18 19  2  0
 18 20  1  0
 10  5  1  0
 20 11  1  0
 17 13  2  0
  1 21  1  0
  1 22  1  0
  1 23  1  0
  2 24  1  0
  2 25  1  0
  3 26  1  0
  3 27  1  0
  6 28  1  0
  7 29  1  0
  8 30  1  0
  9 31  1  0
 14 32  1  0
 20 33  1  0
M  END
$$$$
