
     RDKit          3D

 65 68  0  0  0  0  0  0  0  0999 V2000
   -2.7261    4.5813    2.2042 C   0  0  0  0  0  0  0  0  0  0  0  0
   -3.2697    3.2178    1.8083 C   0  0  0  0  0  0  0  0  0  0  0  0
   -3.1716    2.9923    0.2990 C   0  0  0  0  0  0  0  0  0  0  0  0
   -3.6911    1.6563   -0.1046 C   0  0  0  0  0  0  0  0  0  0  0  0
   -4.9466    1.5114   -0.5695 N   0  0  0  0  0  0  0  0  0  0  0  0
   -5.0547    0.1816   -0.8170 N   0  0  0  0  0  0  0  0  0  0  0  0
   -6.2918   -0.3580   -1.3274 C   0  0  0  0  0  0  0  0  0  0  0  0
   -3.9171   -0.5069   -0.5341 C   0  0  0  0  0  0  0  0  0  0  0  0
   -3.5996   -1.8825   -0.6460 C   0  0  0  0  0  0  0  0  0  0  0  0
   -4.3423   -2.7584   -1.0725 O   0  0  0  0  0  0  0  0  0  0  0  0
   -2.3164   -2.1336   -0.2176 N   0  0  0  0  0  0  0  0  0  0  0  0
   -1.4317   -1.1590    0.2320 C   0  0  0  0  0  0  0  0  0  0  0  0
   -0.0608   -1.6251    0.6362 C   0  0  0  0  0  0  0  0  0  0  0  0
    0.6999   -0.7347    1.4143 C   0  0  0  0  0  0  0  0  0  0  0  0
    2.0097   -1.0537    1.7726 C   0  0  0  0  0  0  0  0  0  0  0  0
    2.9662    0.1021    2.7339 S   0  0  0  0  0  0  0  0  0  0  0  0
    4.0907   -0.6256    3.2838 O   0  0  0  0  0  0  0  0  0  0  0  0
    2.0443    0.8139    3.5924 O   0  0  0  0  0  0  0  0  0  0  0  0
    3.5570    1.1758    1.5599 N   0  0  0  0  0  0  0  0  0  0  0  0
    2.6369    2.1792    0.9834 C   0  0  0  0  0  0  0  0  0  0  0  0
    2.4213    1.9450   -0.5049 C   0  0  0  0  0  0  0  0  0  0  0  0
    3.7359    1.9581   -1.3003 C   0  0  0  0  0  0  0  0  0  0  0  0
    3.6565    0.9303   -2.4220 C   0  0  0  0  0  0  0  0  0  0  0  0
    2.7431    1.2109   -3.3952 N   0  0  0  0  0  0  0  0  0  0  0  0
    4.3238   -0.0962   -2.4675 O   0  0  0  0  0  0  0  0  0  0  0  0
    4.9564    1.7043   -0.4046 C   0  0  0  0  0  0  0  0  0  0  0  0
    4.6383    0.6794    0.6778 C   0  0  0  0  0  0  0  0  0  0  0  0
    2.5562   -2.2850    1.4169 C   0  0  0  0  0  0  0  0  0  0  0  0
    1.8006   -3.1859    0.6618 C   0  0  0  0  0  0  0  0  0  0  0  0
    0.4973   -2.8654    0.2532 C   0  0  0  0  0  0  0  0  0  0  0  0
   -0.2830   -3.7060   -0.4999 O   0  0  0  0  0  0  0  0  0  0  0  0
    0.3372   -4.8532   -1.0855 C   0  0  0  0  0  0  0  0  0  0  0  0
   -0.6844   -5.5189   -1.9899 C   0  0  0  0  0  0  0  0  0  0  0  0
   -1.7283    0.1102    0.3221 N   0  0  0  0  0  0  0  0  0  0  0  0
   -3.0288    0.4189   -0.0776 C   0  0  0  0  0  0  0  0  0  0  0  0
   -2.8067    4.7217    3.2867 H   0  0  0  0  0  0  0  0  0  0  0  0
   -3.2864    5.3843    1.7148 H   0  0  0  0  0  0  0  0  0  0  0  0
   -1.6716    4.6785    1.9268 H   0  0  0  0  0  0  0  0  0  0  0  0
   -4.3144    3.1373    2.1327 H   0  0  0  0  0  0  0  0  0  0  0  0
   -2.7113    2.4400    2.3436 H   0  0  0  0  0  0  0  0  0  0  0  0
   -3.7263    3.7787   -0.2283 H   0  0  0  0  0  0  0  0  0  0  0  0
   -2.1260    3.0833   -0.0213 H   0  0  0  0  0  0  0  0  0  0  0  0
   -6.0950   -0.8109   -2.3021 H   0  0  0  0  0  0  0  0  0  0  0  0
   -6.6622   -1.1038   -0.6199 H   0  0  0  0  0  0  0  0  0  0  0  0
   -7.0242    0.4465   -1.4337 H   0  0  0  0  0  0  0  0  0  0  0  0
   -2.0041   -3.0929   -0.2973 H   0  0  0  0  0  0  0  0  0  0  0  0
    0.2721    0.2137    1.7354 H   0  0  0  0  0  0  0  0  0  0  0  0
    1.6694    2.1809    1.4937 H   0  0  0  0  0  0  0  0  0  0  0  0
    3.0677    3.1734    1.1534 H   0  0  0  0  0  0  0  0  0  0  0  0
    1.8989    0.9907   -0.6452 H   0  0  0  0  0  0  0  0  0  0  0  0
    1.7501    2.7169   -0.9013 H   0  0  0  0  0  0  0  0  0  0  0  0
    3.8706    2.9391   -1.7750 H   0  0  0  0  0  0  0  0  0  0  0  0
    2.6988    0.5797   -4.1855 H   0  0  0  0  0  0  0  0  0  0  0  0
    2.2882    2.1095   -3.4788 H   0  0  0  0  0  0  0  0  0  0  0  0
    5.2553    2.6485    0.0697 H   0  0  0  0  0  0  0  0  0  0  0  0
    5.8178    1.3695   -0.9941 H   0  0  0  0  0  0  0  0  0  0  0  0
    5.5373    0.5149    1.2817 H   0  0  0  0  0  0  0  0  0  0  0  0
    4.3541   -0.2733    0.2215 H   0  0  0  0  0  0  0  0  0  0  0  0
    3.5677   -2.5528    1.7182 H   0  0  0  0  0  0  0  0  0  0  0  0
    2.2653   -4.1345    0.4086 H   0  0  0  0  0  0  0  0  0  0  0  0
    0.6362   -5.5594   -0.3030 H   0  0  0  0  0  0  0  0  0  0  0  0
    1.2065   -4.5569   -1.6838 H   0  0  0  0  0  0  0  0  0  0  0  0
   -1.5733   -5.8086   -1.4196 H   0  0  0  0  0  0  0  0  0  0  0  0
   -1.0185   -4.8258   -2.7691 H   0  0  0  0  0  0  0  0  0  0  0  0
   -0.2634   -6.4092   -2.4652 H   0  0  0  0  0  0  0  0  0  0  0  0
  1  2  1  0
  2  3  1  0
  3  4  1  0
  4  5  2  0
  5  6  1  0
  6  7  1  0
  6  8  1  0
  8  9  1  0
  9 10  2  0
  9 11  1  0
 11 12  1  0
 12 13  1  0
 13 14  1  0
 14 15  2  0
 15 16  1  0
 16 17  2  0
 16 18  2  0
 16 19  1  0
 19 20  1  0
 20 21  1  0
 21 22  1  0
 22 23  1  0
 23 24  1  0
 23 25  2  0
 22 26  1  0
 26 27  1  0
 15 28  1  0
 28 29  2  0
 29 30  1  0
 30 31  1  0
 31 32  1  0
 32 33  1  0
 12 34  2  0
 34 35  1  0
 35  4  1  0
 35  8  2  0
 30 13  2  0
 27 19  1  0
  1 36  1  0
  1 37  1  0
  1 38  1  0
  2 39  1  0
  2 40  1  0
  3 41  1  0
  3 42  1  0
  7 43  1  0
  7 44  1  0
  7 45  1  0
 11 46  1  0
 14 47  1  0
 20 48  1  0
 20 49  1  0
 21 50  1  0
 21 51  1  0
 22 52  1  0
 24 53  1  0
 24 54  1  0
 26 55  1  0
 26 56  1  0
 27 57  1  0
 27 58  1  0
 28 59  1  0
 29 60  1  0
 32 61  1  0
 32 62  1  0
 33 63  1  0
 33 64  1  0
 33 65  1  0
M  END
$$$$
