


 37 43  0  0  0  0  0  0  0  0999 V2000
    0.7795   61.1669   82.2870 O   0  0  0  0  0  0  0  0  0  0  0  0
    0.2408   61.9461   81.4977 C   0  0  0  0  0  0  0  0  0  0  0  0
    0.2524   63.3088   81.7489 N   0  0  0  0  0  0  0  0  0  0  0  0
   -0.0126   64.3767   80.7815 C   0  0  0  0  0  0  0  0  0  0  0  0
    0.5691   65.5914   81.4167 C   0  0  0  0  0  0  0  0  0  0  0  0
    1.0784   65.3002   82.6680 C   0  0  0  0  0  0  0  0  0  0  0  0
    1.6887   66.1940   83.4671 N   0  0  0  0  0  0  0  0  0  0  0  0
    1.7809   67.4545   83.0079 C   0  0  0  0  0  0  0  0  0  0  0  0
    2.3996   68.3914   83.8227 C   0  0  0  0  0  0  0  0  0  0  0  0
    2.5515   69.7240   83.4358 C   0  0  0  0  0  0  0  0  0  0  0  0
    2.0772   70.1398   82.2002 C   0  0  0  0  0  0  0  0  0  0  0  0
    1.4488   69.2231   81.3569 C   0  0  0  0  0  0  0  0  0  0  0  0
    1.2823   67.8693   81.7413 C   0  0  0  0  0  0  0  0  0  0  0  0
    0.6569   66.8817   80.9466 C   0  0  0  0  0  0  0  0  0  0  0  0
    0.1176   67.1153   79.7137 O   0  0  0  0  0  0  0  0  0  0  0  0
    0.8616   63.8278   82.9829 C   0  0  0  0  0  0  0  0  0  0  0  0
    0.1017   68.0678   79.5364 H   0  0  0  0  0  0  0  0  0  0  0  0
   -0.4025   61.4481   80.2912 C   0  0  0  0  0  0  0  0  0  0  0  0
    0.1125   61.3171   79.0115 C   0  0  0  0  0  0  0  0  0  0  0  0
   -0.9084   60.7612   78.2004 C   0  0  0  0  0  0  0  0  0  0  0  0
   -1.0327   60.3920   76.8492 C   0  0  0  0  0  0  0  0  0  0  0  0
   -2.2505   59.8526   76.4074 C   0  0  0  0  0  0  0  0  0  0  0  0
   -3.3130   59.6871   77.2963 C   0  0  0  0  0  0  0  0  0  0  0  0
   -4.5029   59.1627   76.8760 O   0  0  0  0  0  0  0  0  0  0  0  0
   -3.2164   60.0430   78.6407 C   0  0  0  0  0  0  0  0  0  0  0  0
   -1.9954   60.5747   79.0442 C   0  0  0  0  0  0  0  0  0  0  0  0
   -1.6901   60.9827   80.3051 O   0  0  0  0  0  0  0  0  0  0  0  0
   -4.4356   58.9489   75.9309 H   0  0  0  0  0  0  0  0  0  0  0  0
   -0.0257   63.5911   84.1971 C   0  0  0  0  0  0  0  0  0  0  0  0
   -1.3647   63.1472   84.0607 C   0  0  0  0  0  0  0  0  0  0  0  0
   -2.1738   62.9299   85.1797 C   0  0  0  0  0  0  0  0  0  0  0  0
   -1.6244   63.1468   86.4241 C   0  0  0  0  0  0  0  0  0  0  0  0
   -0.3185   63.5791   86.5824 C   0  0  0  0  0  0  0  0  0  0  0  0
    0.4941   63.8115   85.4861 C   0  0  0  0  0  0  0  0  0  0  0  0
   -0.0439   63.7827   88.0214 C   0  0  0  0  0  0  0  0  0  0  0  0
   -1.2469   63.0381   88.6020 C   0  0  0  0  0  0  0  0  0  0  0  0
   -2.2964   62.9787   87.6071 O   0  0  0  0  0  0  0  0  0  0  0  0
  1  2  2  0  0  0
  2 18  1  0  0  0
 18 19  2  0  0  0
 19 20  1  0  0  0
 20 21  2  0  0  0
 21 22  1  0  0  0
 22 23  2  0  0  0
 23 24  1  0  0  0
 23 25  1  0  0  0
 25 26  2  0  0  0
 26 27  1  0  0  0
  2  3  1  0  0  0
  3  4  1  0  0  0
  4  5  1  0  0  0
  5  6  1  0  0  0
  6  7  2  0  0  0
  7  8  1  0  0  0
  8  9  2  0  0  0
  9 10  1  0  0  0
 10 11  2  0  0  0
 11 12  1  0  0  0
 12 13  2  0  0  0
 13 14  1  0  0  0
 14 15  1  0  0  0
  6 16  1  0  0  0
 16 29  1  0  0  0
 29 30  1  0  0  0
 30 31  2  0  0  0
 31 32  1  0  0  0
 32 33  2  0  0  0
 33 34  1  0  0  0
 33 35  1  0  0  0
 35 36  1  0  0  0
 36 37  1  0  0  0
 27 18  1  0  0  0
 16  3  1  0  0  0
 34 29  2  0  0  0
 26 20  1  0  0  0
 14  5  2  0  0  0
 37 32  1  0  0  0
 13  8  1  0  0  0
 24 28  1  0  0  0
 15 17  1  0  0  0
M  END
> <minimizedAffinity>
-13.65767

$$$$



 37 43  0  0  0  0  0  0  0  0999 V2000
    1.1231   61.7681   82.3566 O   0  0  0  0  0  0  0  0  0  0  0  0
    0.3268   62.4481   81.7056 C   0  0  0  0  0  0  0  0  0  0  0  0
    0.2530   63.8167   81.9089 N   0  0  0  0  0  0  0  0  0  0  0  0
   -0.3544   64.8010   81.0094 C   0  0  0  0  0  0  0  0  0  0  0  0
    0.2311   66.0985   81.4464 C   0  0  0  0  0  0  0  0  0  0  0  0
    1.0597   65.9251   82.5387 C   0  0  0  0  0  0  0  0  0  0  0  0
    1.7473   66.9152   83.1359 N   0  0  0  0  0  0  0  0  0  0  0  0
    1.5880   68.1527   82.6342 C   0  0  0  0  0  0  0  0  0  0  0  0
    2.2830   69.1872   83.2433 C   0  0  0  0  0  0  0  0  0  0  0  0
    2.1911   70.5060   82.7947 C   0  0  0  0  0  0  0  0  0  0  0  0
    1.3866   70.8075   81.7055 C   0  0  0  0  0  0  0  0  0  0  0  0
    0.6732   69.7905   81.0707 C   0  0  0  0  0  0  0  0  0  0  0  0
    0.7526   68.4491   81.5210 C   0  0  0  0  0  0  0  0  0  0  0  0
    0.0616   67.3645   80.9344 C   0  0  0  0  0  0  0  0  0  0  0  0
   -0.7853   67.4787   79.8689 O   0  0  0  0  0  0  0  0  0  0  0  0
    1.0864   64.4574   82.9376 C   0  0  0  0  0  0  0  0  0  0  0  0
   -0.9466   68.4144   79.6754 H   0  0  0  0  0  0  0  0  0  0  0  0
   -0.5350   61.8265   80.7115 C   0  0  0  0  0  0  0  0  0  0  0  0
   -0.3801   61.7551   79.3363 C   0  0  0  0  0  0  0  0  0  0  0  0
   -1.4807   61.0227   78.8250 C   0  0  0  0  0  0  0  0  0  0  0  0
   -1.9122   60.6102   77.5517 C   0  0  0  0  0  0  0  0  0  0  0  0
   -3.0996   59.8695   77.4500 C   0  0  0  0  0  0  0  0  0  0  0  0
   -3.8329   59.5507   78.5933 C   0  0  0  0  0  0  0  0  0  0  0  0
   -4.9905   58.8299   78.5048 O   0  0  0  0  0  0  0  0  0  0  0  0
   -3.4274   59.9455   79.8673 C   0  0  0  0  0  0  0  0  0  0  0  0
   -2.2462   60.6782   79.9312 C   0  0  0  0  0  0  0  0  0  0  0  0
   -1.6746   61.1568   81.0687 O   0  0  0  0  0  0  0  0  0  0  0  0
   -5.1535   58.6104   77.5728 H   0  0  0  0  0  0  0  0  0  0  0  0
    0.5545   64.1999   84.3406 C   0  0  0  0  0  0  0  0  0  0  0  0
    1.2351   64.6748   85.4894 C   0  0  0  0  0  0  0  0  0  0  0  0
    0.7406   64.4365   86.7750 C   0  0  0  0  0  0  0  0  0  0  0  0
   -0.4399   63.7365   86.8919 C   0  0  0  0  0  0  0  0  0  0  0  0
   -1.1234   63.2638   85.7842 C   0  0  0  0  0  0  0  0  0  0  0  0
   -0.6430   63.4791   84.5039 C   0  0  0  0  0  0  0  0  0  0  0  0
   -2.3088   62.5012   86.2321 C   0  0  0  0  0  0  0  0  0  0  0  0
   -2.3550   62.9651   87.6887 C   0  0  0  0  0  0  0  0  0  0  0  0
   -1.0414   63.4263   88.0841 O   0  0  0  0  0  0  0  0  0  0  0  0
  1  2  2  0  0  0
  2 18  1  0  0  0
 18 19  2  0  0  0
 19 20  1  0  0  0
 20 21  2  0  0  0
 21 22  1  0  0  0
 22 23  2  0  0  0
 23 24  1  0  0  0
 23 25  1  0  0  0
 25 26  2  0  0  0
 26 27  1  0  0  0
  2  3  1  0  0  0
  3  4  1  0  0  0
  4  5  1  0  0  0
  5  6  1  0  0  0
  6  7  2  0  0  0
  7  8  1  0  0  0
  8  9  2  0  0  0
  9 10  1  0  0  0
 10 11  2  0  0  0
 11 12  1  0  0  0
 12 13  2  0  0  0
 13 14  1  0  0  0
 14 15  1  0  0  0
  6 16  1  0  0  0
 16 29  1  0  0  0
 29 30  1  0  0  0
 30 31  2  0  0  0
 31 32  1  0  0  0
 32 33  2  0  0  0
 33 34  1  0  0  0
 33 35  1  0  0  0
 35 36  1  0  0  0
 36 37  1  0  0  0
 27 18  1  0  0  0
 16  3  1  0  0  0
 34 29  2  0  0  0
 26 20  1  0  0  0
 14  5  2  0  0  0
 37 32  1  0  0  0
 13  8  1  0  0  0
 24 28  1  0  0  0
 15 17  1  0  0  0
M  END
> <minimizedAffinity>
-13.42035

$$$$



 37 43  0  0  0  0  0  0  0  0999 V2000
   -2.1711   63.7378   82.7801 O   0  0  0  0  0  0  0  0  0  0  0  0
   -1.1229   63.9423   83.3963 C   0  0  0  0  0  0  0  0  0  0  0  0
   -0.1351   64.7405   82.8421 N   0  0  0  0  0  0  0  0  0  0  0  0
    0.9837   65.3645   83.5532 C   0  0  0  0  0  0  0  0  0  0  0  0
    1.4405   66.4418   82.6324 C   0  0  0  0  0  0  0  0  0  0  0  0
    0.7131   66.4304   81.4573 C   0  0  0  0  0  0  0  0  0  0  0  0
    0.8848   67.3037   80.4486 N   0  0  0  0  0  0  0  0  0  0  0  0
    1.8478   68.2292   80.6048 C   0  0  0  0  0  0  0  0  0  0  0  0
    2.0445   69.1326   79.5706 C   0  0  0  0  0  0  0  0  0  0  0  0
    3.0135   70.1352   79.6374 C   0  0  0  0  0  0  0  0  0  0  0  0
    3.8107   70.2470   80.7671 C   0  0  0  0  0  0  0  0  0  0  0  0
    3.6396   69.3537   81.8250 C   0  0  0  0  0  0  0  0  0  0  0  0
    2.6642   68.3273   81.7662 C   0  0  0  0  0  0  0  0  0  0  0  0
    2.4305   67.3841   82.7926 C   0  0  0  0  0  0  0  0  0  0  0  0
    3.1306   67.3338   83.9642 O   0  0  0  0  0  0  0  0  0  0  0  0
   -0.3099   65.3052   81.4953 C   0  0  0  0  0  0  0  0  0  0  0  0
    3.8880   67.9367   83.9213 H   0  0  0  0  0  0  0  0  0  0  0  0
   -0.9144   63.3592   84.7131 C   0  0  0  0  0  0  0  0  0  0  0  0
   -1.2580   62.1010   85.1809 C   0  0  0  0  0  0  0  0  0  0  0  0
   -0.8158   62.0150   86.5249 C   0  0  0  0  0  0  0  0  0  0  0  0
   -0.8548   61.0404   87.5379 C   0  0  0  0  0  0  0  0  0  0  0  0
   -0.2858   61.3415   88.7848 C   0  0  0  0  0  0  0  0  0  0  0  0
    0.3067   62.5847   89.0086 C   0  0  0  0  0  0  0  0  0  0  0  0
    0.8635   62.8876   90.2192 O   0  0  0  0  0  0  0  0  0  0  0  0
    0.3604   63.5680   88.0219 C   0  0  0  0  0  0  0  0  0  0  0  0
   -0.2133   63.2358   86.7985 C   0  0  0  0  0  0  0  0  0  0  0  0
   -0.2668   64.0443   85.7062 O   0  0  0  0  0  0  0  0  0  0  0  0
    0.7699   62.1213   90.8087 H   0  0  0  0  0  0  0  0  0  0  0  0
   -0.1018   64.2586   80.4095 C   0  0  0  0  0  0  0  0  0  0  0  0
    0.6258   63.0681   80.6580 C   0  0  0  0  0  0  0  0  0  0  0  0
    0.8120   62.1101   79.6572 C   0  0  0  0  0  0  0  0  0  0  0  0
    0.2527   62.3518   78.4218 C   0  0  0  0  0  0  0  0  0  0  0  0
   -0.4633   63.5067   78.1557 C   0  0  0  0  0  0  0  0  0  0  0  0
   -0.6478   64.4724   79.1302 C   0  0  0  0  0  0  0  0  0  0  0  0
   -0.8765   63.5073   76.7356 C   0  0  0  0  0  0  0  0  0  0  0  0
   -0.6114   62.0370   76.4089 C   0  0  0  0  0  0  0  0  0  0  0  0
    0.3548   61.5069   77.3471 O   0  0  0  0  0  0  0  0  0  0  0  0
  1  2  2  0  0  0
  2 18  1  0  0  0
 18 19  2  0  0  0
 19 20  1  0  0  0
 20 21  2  0  0  0
 21 22  1  0  0  0
 22 23  2  0  0  0
 23 24  1  0  0  0
 23 25  1  0  0  0
 25 26  2  0  0  0
 26 27  1  0  0  0
  2  3  1  0  0  0
  3  4  1  0  0  0
  4  5  1  0  0  0
  5  6  1  0  0  0
  6  7  2  0  0  0
  7  8  1  0  0  0
  8  9  2  0  0  0
  9 10  1  0  0  0
 10 11  2  0  0  0
 11 12  1  0  0  0
 12 13  2  0  0  0
 13 14  1  0  0  0
 14 15  1  0  0  0
  6 16  1  0  0  0
 16 29  1  0  0  0
 29 30  1  0  0  0
 30 31  2  0  0  0
 31 32  1  0  0  0
 32 33  2  0  0  0
 33 34  1  0  0  0
 33 35  1  0  0  0
 35 36  1  0  0  0
 36 37  1  0  0  0
 27 18  1  0  0  0
 16  3  1  0  0  0
 34 29  2  0  0  0
 26 20  1  0  0  0
 14  5  2  0  0  0
 37 32  1  0  0  0
 13  8  1  0  0  0
 24 28  1  0  0  0
 15 17  1  0  0  0
M  END
> <minimizedAffinity>
-11.03970

$$$$



 37 43  0  0  0  0  0  0  0  0999 V2000
    1.1825   65.2352   83.7971 O   0  0  0  0  0  0  0  0  0  0  0  0
    2.0538   66.1073   83.7724 C   0  0  0  0  0  0  0  0  0  0  0  0
    1.8841   67.2376   82.9891 N   0  0  0  0  0  0  0  0  0  0  0  0
    2.6202   68.4990   83.1062 C   0  0  0  0  0  0  0  0  0  0  0  0
    1.7657   69.4835   82.3865 C   0  0  0  0  0  0  0  0  0  0  0  0
    0.6571   68.8682   81.8366 C   0  0  0  0  0  0  0  0  0  0  0  0
   -0.3062   69.5097   81.1508 N   0  0  0  0  0  0  0  0  0  0  0  0
   -0.1510   70.8348   80.9822 C   0  0  0  0  0  0  0  0  0  0  0  0
   -1.1307   71.5109   80.2699 C   0  0  0  0  0  0  0  0  0  0  0  0
   -1.0662   72.8872   80.0455 C   0  0  0  0  0  0  0  0  0  0  0  0
    0.0025   73.6164   80.5461 C   0  0  0  0  0  0  0  0  0  0  0  0
    1.0056   72.9668   81.2660 C   0  0  0  0  0  0  0  0  0  0  0  0
    0.9551   71.5691   81.4944 C   0  0  0  0  0  0  0  0  0  0  0  0
    1.9301   70.8383   82.2107 C   0  0  0  0  0  0  0  0  0  0  0  0
    3.0546   71.3880   82.7575 O   0  0  0  0  0  0  0  0  0  0  0  0
    0.6886   67.3788   82.1440 C   0  0  0  0  0  0  0  0  0  0  0  0
    3.1501   72.3056   82.4609 H   0  0  0  0  0  0  0  0  0  0  0  0
    3.2623   65.9668   84.5706 C   0  0  0  0  0  0  0  0  0  0  0  0
    4.5681   66.3059   84.2544 C   0  0  0  0  0  0  0  0  0  0  0  0
    5.3704   65.9910   85.3797 C   0  0  0  0  0  0  0  0  0  0  0  0
    6.7364   66.0836   85.7007 C   0  0  0  0  0  0  0  0  0  0  0  0
    7.1613   65.6551   86.9676 C   0  0  0  0  0  0  0  0  0  0  0  0
    6.2417   65.1493   87.8868 C   0  0  0  0  0  0  0  0  0  0  0  0
    6.6454   64.7295   89.1230 O   0  0  0  0  0  0  0  0  0  0  0  0
    4.8823   65.0479   87.5952 C   0  0  0  0  0  0  0  0  0  0  0  0
    4.4962   65.4814   86.3306 C   0  0  0  0  0  0  0  0  0  0  0  0
    3.2252   65.4716   85.8467 O   0  0  0  0  0  0  0  0  0  0  0  0
    7.6043   64.8622   89.2022 H   0  0  0  0  0  0  0  0  0  0  0  0
    0.7659   66.5039   80.9005 C   0  0  0  0  0  0  0  0  0  0  0  0
    1.7340   66.7346   79.8915 C   0  0  0  0  0  0  0  0  0  0  0  0
    1.8010   65.9266   78.7528 C   0  0  0  0  0  0  0  0  0  0  0  0
    0.9041   64.8865   78.6471 C   0  0  0  0  0  0  0  0  0  0  0  0
   -0.0497   64.6406   79.6204 C   0  0  0  0  0  0  0  0  0  0  0  0
   -0.1394   65.4372   80.7489 C   0  0  0  0  0  0  0  0  0  0  0  0
   -0.8999   63.5081   79.1940 C   0  0  0  0  0  0  0  0  0  0  0  0
   -0.0248   62.9644   78.0637 C   0  0  0  0  0  0  0  0  0  0  0  0
    0.8490   64.0162   77.5894 O   0  0  0  0  0  0  0  0  0  0  0  0
  1  2  2  0  0  0
  2 18  1  0  0  0
 18 19  2  0  0  0
 19 20  1  0  0  0
 20 21  2  0  0  0
 21 22  1  0  0  0
 22 23  2  0  0  0
 23 24  1  0  0  0
 23 25  1  0  0  0
 25 26  2  0  0  0
 26 27  1  0  0  0
  2  3  1  0  0  0
  3  4  1  0  0  0
  4  5  1  0  0  0
  5  6  1  0  0  0
  6  7  2  0  0  0
  7  8  1  0  0  0
  8  9  2  0  0  0
  9 10  1  0  0  0
 10 11  2  0  0  0
 11 12  1  0  0  0
 12 13  2  0  0  0
 13 14  1  0  0  0
 14 15  1  0  0  0
  6 16  1  0  0  0
 16 29  1  0  0  0
 29 30  1  0  0  0
 30 31  2  0  0  0
 31 32  1  0  0  0
 32 33  2  0  0  0
 33 34  1  0  0  0
 33 35  1  0  0  0
 35 36  1  0  0  0
 36 37  1  0  0  0
 27 18  1  0  0  0
 16  3  1  0  0  0
 34 29  2  0  0  0
 26 20  1  0  0  0
 14  5  2  0  0  0
 37 32  1  0  0  0
 13  8  1  0  0  0
 24 28  1  0  0  0
 15 17  1  0  0  0
M  END
> <minimizedAffinity>
-10.95745

$$$$
