


 44 47  0  0  0  0  0  0  0  0999 V2000
    3.7794   66.8019   84.6891 C   0  0  0  0  0  0  0  0  0  0  0  0
    4.6513   67.8136   84.2608 C   0  0  0  0  0  0  0  0  0  0  0  0
    4.2719   68.6883   83.2422 C   0  0  0  0  0  0  0  0  0  0  0  0
    3.0112   68.5585   82.6593 C   0  0  0  0  0  0  0  0  0  0  0  0
    2.1163   67.5831   83.1047 C   0  0  0  0  0  0  0  0  0  0  0  0
    2.4920   66.6932   84.1260 C   0  0  0  0  0  0  0  0  0  0  0  0
    1.4927   65.6458   84.5229 C   0  0  0  0  0  0  0  0  0  0  0  0
    0.7726   65.0683   83.6037 N   0  0  0  0  0  0  0  0  0  0  0  0
   -0.1193   64.1089   84.0839 C   0  0  0  0  0  0  0  0  0  0  0  0
   -1.0089   63.3432   83.3094 C   0  0  0  0  0  0  0  0  0  0  0  0
   -1.6727   62.4954   84.2038 C   0  0  0  0  0  0  0  0  0  0  0  0
   -1.2035   62.7978   85.4829 N   0  0  0  0  0  0  0  0  0  0  0  0
   -1.6751   62.1812   86.7058 C   0  0  0  0  0  0  0  0  0  0  0  0
   -0.2362   63.7702   85.4019 C   0  0  0  0  0  0  0  0  0  0  0  0
    0.5680   64.3952   86.4051 C   0  0  0  0  0  0  0  0  0  0  0  0
    0.5753   64.1367   87.6039 O   0  0  0  0  0  0  0  0  0  0  0  0
    1.3967   65.3549   85.8740 N   0  0  0  0  0  0  0  0  0  0  0  0
    2.0006   65.8262   86.5352 H   0  0  0  0  0  0  0  0  0  0  0  0
   -2.6560   61.4889   83.8587 C   0  0  0  0  0  0  0  0  0  0  0  0
   -2.3844   60.4902   83.0797 N   0  0  0  0  0  0  0  0  0  0  0  0
   -3.5318   59.7013   82.9269 O   0  0  0  0  0  0  0  0  0  0  0  0
   -3.2199   58.9897   82.3371 H   0  0  0  0  0  0  0  0  0  0  0  0
   -1.1726   63.4320   81.8232 C   0  0  0  0  0  0  0  0  0  0  0  0
    0.1161   63.0858   81.0766 C   0  0  0  0  0  0  0  0  0  0  0  0
    0.4096   61.5954   81.1378 C   0  0  0  0  0  0  0  0  0  0  0  0
    2.5424   69.6765   81.3617 S   0  0  0  0  0  0  0  0  0  0  0  0
    1.9771   68.8807   80.2936 O   0  0  0  0  0  0  0  0  0  0  0  0
    3.6308   70.5987   81.1189 O   0  0  0  0  0  0  0  0  0  0  0  0
    1.2789   70.5626   82.0847 N   0  0  0  0  0  0  0  0  0  0  0  0
    1.6172   71.9628   82.5028 C   0  0  0  0  0  0  0  0  0  0  0  0
    1.0263   73.0029   81.5337 C   0  0  0  0  0  0  0  0  0  0  0  0
   -0.4531   72.9786   81.4838 N   0  0  0  0  0  0  0  0  0  0  0  0
   -0.9722   71.6099   81.7077 C   0  0  0  0  0  0  0  0  0  0  0  0
   -0.0028   70.4818   81.3112 C   0  0  0  0  0  0  0  0  0  0  0  0
   -0.9756   73.5629   80.2385 C   0  0  0  0  0  0  0  0  0  0  0  0
   -2.1188   72.7571   79.6005 C   0  0  0  0  0  0  0  0  0  0  0  0
   -3.0930   73.6831   79.1236 O   0  0  0  0  0  0  0  0  0  0  0  0
   -4.3436   73.0729   78.8718 N   0  0  0  0  0  0  0  0  0  0  0  0
   -5.2923   73.8071   79.1414 O   0  0  0  0  0  0  0  0  0  0  0  0
   -4.3338   71.9218   78.4331 O   0  0  0  0  0  0  0  0  0  0  0  0
    4.1422   65.9456   85.6993 O   0  0  0  0  0  0  0  0  0  0  0  0
    5.4008   65.2896   85.4867 C   0  0  0  0  0  0  0  0  0  0  0  0
    5.4851   65.4865   87.9993 C   0  0  0  0  0  0  0  0  0  0  0  0
    6.2752   65.5656   86.7060 C   0  0  0  0  0  0  0  0  0  0  0  0
 43 44  1  0  0  0
 44 42  1  0  0  0
 42 41  1  0  0  0
 41  1  1  0  0  0
  1  2  1  0  0  0
  2  3  2  0  0  0
  3  4  1  0  0  0
  4 26  1  0  0  0
 26 27  2  0  0  0
 26 28  2  0  0  0
 26 29  1  0  0  0
 29 30  1  0  0  0
 30 31  1  0  0  0
 31 32  1  0  0  0
 32 35  1  0  0  0
 35 36  1  0  0  0
 36 37  1  0  0  0
 37 38  1  0  0  0
 38 39  2  0  0  0
 38 40  1  0  0  0
 32 33  1  0  0  0
 33 34  1  0  0  0
  4  5  2  0  0  0
  5  6  1  0  0  0
  6  7  1  0  0  0
  7  8  2  0  0  0
  8  9  1  0  0  0
  9 10  1  0  0  0
 10 23  1  0  0  0
 23 24  1  0  0  0
 24 25  1  0  0  0
 10 11  2  0  0  0
 11 19  1  0  0  0
 19 20  2  0  0  0
 20 21  1  0  0  0
 11 12  1  0  0  0
 12 13  1  0  0  0
 12 14  1  0  0  0
 14 15  1  0  0  0
 15 16  2  0  0  0
 15 17  1  0  0  0
  6  1  2  0  0  0
 17  7  1  0  0  0
 34 29  1  0  0  0
 14  9  2  0  0  0
 21 22  1  0  0  0
 17 18  1  0  0  0
M  CHG 1  38   1
M  CHG 1  40  -1
M  END
> <minimizedAffinity>
-10.02988

$$$$



 44 47  0  0  0  0  0  0  0  0999 V2000
    3.6505   67.1693   84.3516 C   0  0  0  0  0  0  0  0  0  0  0  0
    4.4094   68.2410   83.8591 C   0  0  0  0  0  0  0  0  0  0  0  0
    3.9013   69.0622   82.8521 C   0  0  0  0  0  0  0  0  0  0  0  0
    2.6247   68.8182   82.3455 C   0  0  0  0  0  0  0  0  0  0  0  0
    1.8408   67.7811   82.8559 C   0  0  0  0  0  0  0  0  0  0  0  0
    2.3466   66.9445   83.8660 C   0  0  0  0  0  0  0  0  0  0  0  0
    1.4621   65.8262   84.3351 C   0  0  0  0  0  0  0  0  0  0  0  0
    0.6067   65.2973   83.5071 N   0  0  0  0  0  0  0  0  0  0  0  0
   -0.1598   64.2642   84.0471 C   0  0  0  0  0  0  0  0  0  0  0  0
   -1.1513   63.5287   83.3736 C   0  0  0  0  0  0  0  0  0  0  0  0
   -1.6231   62.5819   84.2901 C   0  0  0  0  0  0  0  0  0  0  0  0
   -0.9436   62.7961   85.4901 N   0  0  0  0  0  0  0  0  0  0  0  0
   -1.1746   62.0602   86.7161 C   0  0  0  0  0  0  0  0  0  0  0  0
   -0.0326   63.8121   85.3296 C   0  0  0  0  0  0  0  0  0  0  0  0
    0.9191   64.3848   86.2297 C   0  0  0  0  0  0  0  0  0  0  0  0
    1.1453   64.0277   87.3809 O   0  0  0  0  0  0  0  0  0  0  0  0
    1.6145   65.4198   85.6507 N   0  0  0  0  0  0  0  0  0  0  0  0
    2.3128   65.8595   86.2365 H   0  0  0  0  0  0  0  0  0  0  0  0
   -2.6244   61.5667   84.0325 C   0  0  0  0  0  0  0  0  0  0  0  0
   -2.4313   60.5966   83.1961 N   0  0  0  0  0  0  0  0  0  0  0  0
   -3.5760   59.7903   83.1554 O   0  0  0  0  0  0  0  0  0  0  0  0
   -3.3250   59.1024   82.5109 H   0  0  0  0  0  0  0  0  0  0  0  0
   -1.5776   63.7342   81.9525 C   0  0  0  0  0  0  0  0  0  0  0  0
   -0.6178   63.0785   80.9591 C   0  0  0  0  0  0  0  0  0  0  0  0
    0.0573   64.1137   80.0738 C   0  0  0  0  0  0  0  0  0  0  0  0
    1.9916   69.8693   81.0618 S   0  0  0  0  0  0  0  0  0  0  0  0
    1.2211   69.0347   80.1654 O   0  0  0  0  0  0  0  0  0  0  0  0
    3.0615   70.7123   80.5732 O   0  0  0  0  0  0  0  0  0  0  0  0
    0.9067   70.8699   81.9139 N   0  0  0  0  0  0  0  0  0  0  0  0
    1.5269   71.9813   82.7076 C   0  0  0  0  0  0  0  0  0  0  0  0
    1.3464   73.3437   82.0135 C   0  0  0  0  0  0  0  0  0  0  0  0
   -0.0725   73.7400   81.8675 N   0  0  0  0  0  0  0  0  0  0  0  0
   -0.9420   72.5546   81.6889 C   0  0  0  0  0  0  0  0  0  0  0  0
   -0.2423   71.3317   81.0688 C   0  0  0  0  0  0  0  0  0  0  0  0
   -0.2653   74.7247   80.7914 C   0  0  0  0  0  0  0  0  0  0  0  0
   -0.5084   76.1581   81.2909 C   0  0  0  0  0  0  0  0  0  0  0  0
   -0.7899   76.0924   82.6875 O   0  0  0  0  0  0  0  0  0  0  0  0
    0.0857   76.8946   83.4554 N   0  0  0  0  0  0  0  0  0  0  0  0
   -0.4847   77.4642   84.3838 O   0  0  0  0  0  0  0  0  0  0  0  0
    1.2687   76.9288   83.1135 O   0  0  0  0  0  0  0  0  0  0  0  0
    4.1401   66.3649   85.3509 O   0  0  0  0  0  0  0  0  0  0  0  0
    5.3255   66.8712   85.9819 C   0  0  0  0  0  0  0  0  0  0  0  0
    4.7094   64.8241   87.3195 C   0  0  0  0  0  0  0  0  0  0  0  0
    5.8047   65.8164   86.9744 C   0  0  0  0  0  0  0  0  0  0  0  0
 43 44  1  0  0  0
 44 42  1  0  0  0
 42 41  1  0  0  0
 41  1  1  0  0  0
  1  2  1  0  0  0
  2  3  2  0  0  0
  3  4  1  0  0  0
  4 26  1  0  0  0
 26 27  2  0  0  0
 26 28  2  0  0  0
 26 29  1  0  0  0
 29 30  1  0  0  0
 30 31  1  0  0  0
 31 32  1  0  0  0
 32 35  1  0  0  0
 35 36  1  0  0  0
 36 37  1  0  0  0
 37 38  1  0  0  0
 38 39  2  0  0  0
 38 40  1  0  0  0
 32 33  1  0  0  0
 33 34  1  0  0  0
  4  5  2  0  0  0
  5  6  1  0  0  0
  6  7  1  0  0  0
  7  8  2  0  0  0
  8  9  1  0  0  0
  9 10  1  0  0  0
 10 23  1  0  0  0
 23 24  1  0  0  0
 24 25  1  0  0  0
 10 11  2  0  0  0
 11 19  1  0  0  0
 19 20  2  0  0  0
 20 21  1  0  0  0
 11 12  1  0  0  0
 12 13  1  0  0  0
 12 14  1  0  0  0
 14 15  1  0  0  0
 15 16  2  0  0  0
 15 17  1  0  0  0
  6  1  2  0  0  0
 17  7  1  0  0  0
 34 29  1  0  0  0
 14  9  2  0  0  0
 21 22  1  0  0  0
 17 18  1  0  0  0
M  CHG 1  38   1
M  CHG 1  40  -1
M  END
> <minimizedAffinity>
-9.94536

$$$$



 44 47  0  0  0  0  0  0  0  0999 V2000
    3.6512   67.0685   84.3214 C   0  0  0  0  0  0  0  0  0  0  0  0
    4.3990   68.1602   83.8566 C   0  0  0  0  0  0  0  0  0  0  0  0
    3.8278   69.0873   82.9845 C   0  0  0  0  0  0  0  0  0  0  0  0
    2.5002   68.9288   82.5865 C   0  0  0  0  0  0  0  0  0  0  0  0
    1.7306   67.8706   83.0746 C   0  0  0  0  0  0  0  0  0  0  0  0
    2.2992   66.9279   83.9487 C   0  0  0  0  0  0  0  0  0  0  0  0
    1.4225   65.7956   84.3984 C   0  0  0  0  0  0  0  0  0  0  0  0
    0.5861   65.2607   83.5550 N   0  0  0  0  0  0  0  0  0  0  0  0
   -0.1748   64.2147   84.0779 C   0  0  0  0  0  0  0  0  0  0  0  0
   -1.1468   63.4706   83.3858 C   0  0  0  0  0  0  0  0  0  0  0  0
   -1.6197   62.5123   84.2900 C   0  0  0  0  0  0  0  0  0  0  0  0
   -0.9605   62.7282   85.5010 N   0  0  0  0  0  0  0  0  0  0  0  0
   -1.1998   61.9822   86.7192 C   0  0  0  0  0  0  0  0  0  0  0  0
   -0.0605   63.7567   85.3595 C   0  0  0  0  0  0  0  0  0  0  0  0
    0.8706   64.3362   86.2767 C   0  0  0  0  0  0  0  0  0  0  0  0
    1.0846   63.9753   87.4290 O   0  0  0  0  0  0  0  0  0  0  0  0
    1.5609   65.3834   85.7138 N   0  0  0  0  0  0  0  0  0  0  0  0
    2.2449   65.8286   86.3122 H   0  0  0  0  0  0  0  0  0  0  0  0
   -2.6039   61.4860   84.0119 C   0  0  0  0  0  0  0  0  0  0  0  0
   -2.4269   60.5818   83.1015 N   0  0  0  0  0  0  0  0  0  0  0  0
   -3.5491   59.7443   83.0613 O   0  0  0  0  0  0  0  0  0  0  0  0
   -3.3124   59.1102   82.3588 H   0  0  0  0  0  0  0  0  0  0  0  0
   -1.5551   63.6788   81.9599 C   0  0  0  0  0  0  0  0  0  0  0  0
   -0.3967   63.4559   80.9870 C   0  0  0  0  0  0  0  0  0  0  0  0
    0.1455   62.0390   81.0849 C   0  0  0  0  0  0  0  0  0  0  0  0
    1.7868   70.1146   81.4736 S   0  0  0  0  0  0  0  0  0  0  0  0
    0.3911   70.2514   81.8300 O   0  0  0  0  0  0  0  0  0  0  0  0
    2.1910   69.7939   80.1216 O   0  0  0  0  0  0  0  0  0  0  0  0
    2.5871   71.5533   81.9142 N   0  0  0  0  0  0  0  0  0  0  0  0
    3.1721   72.3490   80.7854 C   0  0  0  0  0  0  0  0  0  0  0  0
    2.3217   73.5922   80.4667 C   0  0  0  0  0  0  0  0  0  0  0  0
    2.2440   74.5495   81.5933 N   0  0  0  0  0  0  0  0  0  0  0  0
    2.2970   73.8466   82.8956 C   0  0  0  0  0  0  0  0  0  0  0  0
    1.7876   72.3943   82.8635 C   0  0  0  0  0  0  0  0  0  0  0  0
    1.0671   75.4272   81.4950 C   0  0  0  0  0  0  0  0  0  0  0  0
    0.6310   76.0418   82.8349 C   0  0  0  0  0  0  0  0  0  0  0  0
   -0.7895   76.1677   82.8162 O   0  0  0  0  0  0  0  0  0  0  0  0
   -1.2750   76.9881   83.8607 N   0  0  0  0  0  0  0  0  0  0  0  0
   -2.4940   76.9071   83.9997 O   0  0  0  0  0  0  0  0  0  0  0  0
   -0.4513   77.6630   84.4801 O   0  0  0  0  0  0  0  0  0  0  0  0
    4.2038   66.1592   85.1894 O   0  0  0  0  0  0  0  0  0  0  0  0
    5.4634   66.5687   85.7420 C   0  0  0  0  0  0  0  0  0  0  0  0
    7.7161   66.0556   84.7313 C   0  0  0  0  0  0  0  0  0  0  0  0
    6.4849   65.4850   85.4111 C   0  0  0  0  0  0  0  0  0  0  0  0
 43 44  1  0  0  0
 44 42  1  0  0  0
 42 41  1  0  0  0
 41  1  1  0  0  0
  1  2  1  0  0  0
  2  3  2  0  0  0
  3  4  1  0  0  0
  4 26  1  0  0  0
 26 27  2  0  0  0
 26 28  2  0  0  0
 26 29  1  0  0  0
 29 30  1  0  0  0
 30 31  1  0  0  0
 31 32  1  0  0  0
 32 35  1  0  0  0
 35 36  1  0  0  0
 36 37  1  0  0  0
 37 38  1  0  0  0
 38 39  2  0  0  0
 38 40  1  0  0  0
 32 33  1  0  0  0
 33 34  1  0  0  0
  4  5  2  0  0  0
  5  6  1  0  0  0
  6  7  1  0  0  0
  7  8  2  0  0  0
  8  9  1  0  0  0
  9 10  1  0  0  0
 10 23  1  0  0  0
 23 24  1  0  0  0
 24 25  1  0  0  0
 10 11  2  0  0  0
 11 19  1  0  0  0
 19 20  2  0  0  0
 20 21  1  0  0  0
 11 12  1  0  0  0
 12 13  1  0  0  0
 12 14  1  0  0  0
 14 15  1  0  0  0
 15 16  2  0  0  0
 15 17  1  0  0  0
  6  1  2  0  0  0
 17  7  1  0  0  0
 34 29  1  0  0  0
 14  9  2  0  0  0
 21 22  1  0  0  0
 17 18  1  0  0  0
M  CHG 1  38   1
M  CHG 1  40  -1
M  END
> <minimizedAffinity>
-9.81342

$$$$



 44 47  0  0  0  0  0  0  0  0999 V2000
    3.6455   67.2329   84.1569 C   0  0  0  0  0  0  0  0  0  0  0  0
    4.3880   68.3086   83.6481 C   0  0  0  0  0  0  0  0  0  0  0  0
    3.8420   69.1460   82.6750 C   0  0  0  0  0  0  0  0  0  0  0  0
    2.5442   68.9142   82.2188 C   0  0  0  0  0  0  0  0  0  0  0  0
    1.7777   67.8731   82.7469 C   0  0  0  0  0  0  0  0  0  0  0  0
    2.3215   67.0202   83.7231 C   0  0  0  0  0  0  0  0  0  0  0  0
    1.4523   65.8988   84.2130 C   0  0  0  0  0  0  0  0  0  0  0  0
    0.5878   65.3587   83.4018 N   0  0  0  0  0  0  0  0  0  0  0  0
   -0.1629   64.3238   83.9602 C   0  0  0  0  0  0  0  0  0  0  0  0
   -1.1596   63.5772   83.3070 C   0  0  0  0  0  0  0  0  0  0  0  0
   -1.6104   62.6329   84.2367 C   0  0  0  0  0  0  0  0  0  0  0  0
   -0.9137   62.8595   85.4246 N   0  0  0  0  0  0  0  0  0  0  0  0
   -1.1203   62.1298   86.6586 C   0  0  0  0  0  0  0  0  0  0  0  0
   -0.0125   63.8808   85.2434 C   0  0  0  0  0  0  0  0  0  0  0  0
    0.9491   64.4657   86.1249 C   0  0  0  0  0  0  0  0  0  0  0  0
    1.1958   64.1176   87.2746 O   0  0  0  0  0  0  0  0  0  0  0  0
    1.6281   65.5018   85.5286 N   0  0  0  0  0  0  0  0  0  0  0  0
    2.3323   65.9501   86.1005 H   0  0  0  0  0  0  0  0  0  0  0  0
   -2.6084   61.6093   84.0012 C   0  0  0  0  0  0  0  0  0  0  0  0
   -2.4141   60.6247   83.1822 N   0  0  0  0  0  0  0  0  0  0  0  0
   -3.5557   59.8132   83.1602 O   0  0  0  0  0  0  0  0  0  0  0  0
   -3.3041   59.1146   82.5276 H   0  0  0  0  0  0  0  0  0  0  0  0
   -1.6095   63.7706   81.8915 C   0  0  0  0  0  0  0  0  0  0  0  0
   -0.7270   63.0182   80.8951 C   0  0  0  0  0  0  0  0  0  0  0  0
    0.1373   63.9733   80.0877 C   0  0  0  0  0  0  0  0  0  0  0  0
    1.8629   69.9859   80.9775 S   0  0  0  0  0  0  0  0  0  0  0  0
    0.7983   69.2586   80.3207 O   0  0  0  0  0  0  0  0  0  0  0  0
    2.9453   70.5811   80.2237 O   0  0  0  0  0  0  0  0  0  0  0  0
    1.1570   71.2228   81.9136 N   0  0  0  0  0  0  0  0  0  0  0  0
    1.9565   71.6872   83.0946 C   0  0  0  0  0  0  0  0  0  0  0  0
    2.6218   73.0501   82.8292 C   0  0  0  0  0  0  0  0  0  0  0  0
    1.6466   74.1382   82.5912 N   0  0  0  0  0  0  0  0  0  0  0  0
    0.4266   73.6255   81.9266 C   0  0  0  0  0  0  0  0  0  0  0  0
    0.6400   72.3572   81.0807 C   0  0  0  0  0  0  0  0  0  0  0  0
    2.2399   75.2622   81.8499 C   0  0  0  0  0  0  0  0  0  0  0  0
    2.5398   76.4954   82.7174 C   0  0  0  0  0  0  0  0  0  0  0  0
    3.9027   76.4179   83.1307 O   0  0  0  0  0  0  0  0  0  0  0  0
    4.0366   76.0717   84.4952 N   0  0  0  0  0  0  0  0  0  0  0  0
    3.0479   76.3745   85.1604 O   0  0  0  0  0  0  0  0  0  0  0  0
    5.0886   75.5326   84.8420 O   0  0  0  0  0  0  0  0  0  0  0  0
    4.1727   66.4125   85.1235 O   0  0  0  0  0  0  0  0  0  0  0  0
    5.2903   66.9773   85.8246 C   0  0  0  0  0  0  0  0  0  0  0  0
    7.2378   65.8485   84.6877 C   0  0  0  0  0  0  0  0  0  0  0  0
    6.3628   65.8972   85.9268 C   0  0  0  0  0  0  0  0  0  0  0  0
 43 44  1  0  0  0
 44 42  1  0  0  0
 42 41  1  0  0  0
 41  1  1  0  0  0
  1  2  1  0  0  0
  2  3  2  0  0  0
  3  4  1  0  0  0
  4 26  1  0  0  0
 26 27  2  0  0  0
 26 28  2  0  0  0
 26 29  1  0  0  0
 29 30  1  0  0  0
 30 31  1  0  0  0
 31 32  1  0  0  0
 32 35  1  0  0  0
 35 36  1  0  0  0
 36 37  1  0  0  0
 37 38  1  0  0  0
 38 39  2  0  0  0
 38 40  1  0  0  0
 32 33  1  0  0  0
 33 34  1  0  0  0
  4  5  2  0  0  0
  5  6  1  0  0  0
  6  7  1  0  0  0
  7  8  2  0  0  0
  8  9  1  0  0  0
  9 10  1  0  0  0
 10 23  1  0  0  0
 23 24  1  0  0  0
 24 25  1  0  0  0
 10 11  2  0  0  0
 11 19  1  0  0  0
 19 20  2  0  0  0
 20 21  1  0  0  0
 11 12  1  0  0  0
 12 13  1  0  0  0
 12 14  1  0  0  0
 14 15  1  0  0  0
 15 16  2  0  0  0
 15 17  1  0  0  0
  6  1  2  0  0  0
 17  7  1  0  0  0
 34 29  1  0  0  0
 14  9  2  0  0  0
 21 22  1  0  0  0
 17 18  1  0  0  0
M  CHG 1  38   1
M  CHG 1  40  -1
M  END
> <minimizedAffinity>
-9.79693

$$$$



 44 47  0  0  0  0  0  0  0  0999 V2000
    3.7266   66.9152   84.5034 C   0  0  0  0  0  0  0  0  0  0  0  0
    4.5216   67.9840   84.0643 C   0  0  0  0  0  0  0  0  0  0  0  0
    4.0100   68.9233   83.1685 C   0  0  0  0  0  0  0  0  0  0  0  0
    2.6945   68.8002   82.7209 C   0  0  0  0  0  0  0  0  0  0  0  0
    1.8777   67.7656   83.1823 C   0  0  0  0  0  0  0  0  0  0  0  0
    2.3863   66.8108   84.0800 C   0  0  0  0  0  0  0  0  0  0  0  0
    1.4620   65.7050   84.4992 C   0  0  0  0  0  0  0  0  0  0  0  0
    0.6403   65.1934   83.6273 N   0  0  0  0  0  0  0  0  0  0  0  0
   -0.1684   64.1706   84.1236 C   0  0  0  0  0  0  0  0  0  0  0  0
   -1.1369   63.4541   83.3983 C   0  0  0  0  0  0  0  0  0  0  0  0
   -1.6686   62.5112   84.2857 C   0  0  0  0  0  0  0  0  0  0  0  0
   -1.0460   62.7095   85.5189 N   0  0  0  0  0  0  0  0  0  0  0  0
   -1.3491   61.9723   86.7283 C   0  0  0  0  0  0  0  0  0  0  0  0
   -0.1121   63.7112   85.4086 C   0  0  0  0  0  0  0  0  0  0  0  0
    0.8029   64.2647   86.3575 C   0  0  0  0  0  0  0  0  0  0  0  0
    0.9661   63.8992   87.5167 O   0  0  0  0  0  0  0  0  0  0  0  0
    1.5425   65.2907   85.8187 N   0  0  0  0  0  0  0  0  0  0  0  0
    2.2179   65.7166   86.4404 H   0  0  0  0  0  0  0  0  0  0  0  0
   -2.6719   61.5135   83.9739 C   0  0  0  0  0  0  0  0  0  0  0  0
   -2.4507   60.5397   83.1488 N   0  0  0  0  0  0  0  0  0  0  0  0
   -3.6054   59.7533   83.0459 O   0  0  0  0  0  0  0  0  0  0  0  0
   -3.3319   59.0609   82.4157 H   0  0  0  0  0  0  0  0  0  0  0  0
   -1.4890   63.6723   81.9589 C   0  0  0  0  0  0  0  0  0  0  0  0
   -0.3072   63.4049   81.0263 C   0  0  0  0  0  0  0  0  0  0  0  0
    0.1162   61.9455   81.0713 C   0  0  0  0  0  0  0  0  0  0  0  0
    2.0571   70.0011   81.5784 S   0  0  0  0  0  0  0  0  0  0  0  0
    0.6268   70.0727   81.7854 O   0  0  0  0  0  0  0  0  0  0  0  0
    2.6168   69.7479   80.2682 O   0  0  0  0  0  0  0  0  0  0  0  0
    2.7463   71.4501   82.1527 N   0  0  0  0  0  0  0  0  0  0  0  0
    3.6519   72.1681   81.1967 C   0  0  0  0  0  0  0  0  0  0  0  0
    2.9668   73.4040   80.5854 C   0  0  0  0  0  0  0  0  0  0  0  0
    2.6049   74.4273   81.5921 N   0  0  0  0  0  0  0  0  0  0  0  0
    2.2650   73.8017   82.8907 C   0  0  0  0  0  0  0  0  0  0  0  0
    1.7388   72.3586   82.7908 C   0  0  0  0  0  0  0  0  0  0  0  0
    1.5328   75.3167   81.1182 C   0  0  0  0  0  0  0  0  0  0  0  0
    0.6387   74.6958   80.0326 C   0  0  0  0  0  0  0  0  0  0  0  0
   -0.5118   74.1490   80.6741 O   0  0  0  0  0  0  0  0  0  0  0  0
   -1.2997   73.3660   79.7990 N   0  0  0  0  0  0  0  0  0  0  0  0
   -1.3379   72.1816   80.1270 O   0  0  0  0  0  0  0  0  0  0  0  0
   -1.8301   73.9407   78.8472 O   0  0  0  0  0  0  0  0  0  0  0  0
    4.2204   65.9943   85.3942 O   0  0  0  0  0  0  0  0  0  0  0  0
    5.4237   66.4087   86.0575 C   0  0  0  0  0  0  0  0  0  0  0  0
    5.5349   65.5289   88.4182 C   0  0  0  0  0  0  0  0  0  0  0  0
    5.8684   65.2632   86.9616 C   0  0  0  0  0  0  0  0  0  0  0  0
 43 44  1  0  0  0
 44 42  1  0  0  0
 42 41  1  0  0  0
 41  1  1  0  0  0
  1  2  1  0  0  0
  2  3  2  0  0  0
  3  4  1  0  0  0
  4 26  1  0  0  0
 26 27  2  0  0  0
 26 28  2  0  0  0
 26 29  1  0  0  0
 29 30  1  0  0  0
 30 31  1  0  0  0
 31 32  1  0  0  0
 32 35  1  0  0  0
 35 36  1  0  0  0
 36 37  1  0  0  0
 37 38  1  0  0  0
 38 39  2  0  0  0
 38 40  1  0  0  0
 32 33  1  0  0  0
 33 34  1  0  0  0
  4  5  2  0  0  0
  5  6  1  0  0  0
  6  7  1  0  0  0
  7  8  2  0  0  0
  8  9  1  0  0  0
  9 10  1  0  0  0
 10 23  1  0  0  0
 23 24  1  0  0  0
 24 25  1  0  0  0
 10 11  2  0  0  0
 11 19  1  0  0  0
 19 20  2  0  0  0
 20 21  1  0  0  0
 11 12  1  0  0  0
 12 13  1  0  0  0
 12 14  1  0  0  0
 14 15  1  0  0  0
 15 16  2  0  0  0
 15 17  1  0  0  0
  6  1  2  0  0  0
 17  7  1  0  0  0
 34 29  1  0  0  0
 14  9  2  0  0  0
 21 22  1  0  0  0
 17 18  1  0  0  0
M  CHG 1  38   1
M  CHG 1  40  -1
M  END
> <minimizedAffinity>
-9.76911

$$$$



 44 47  0  0  0  0  0  0  0  0999 V2000
   -0.4662   63.8865   85.6252 C   0  0  0  0  0  0  0  0  0  0  0  0
   -1.4974   62.9363   85.6536 C   0  0  0  0  0  0  0  0  0  0  0  0
   -1.9319   62.3303   84.4744 C   0  0  0  0  0  0  0  0  0  0  0  0
   -1.3238   62.6665   83.2648 C   0  0  0  0  0  0  0  0  0  0  0  0
   -0.2674   63.5791   83.2268 C   0  0  0  0  0  0  0  0  0  0  0  0
    0.1731   64.1995   84.4088 C   0  0  0  0  0  0  0  0  0  0  0  0
    1.2853   65.1997   84.2832 C   0  0  0  0  0  0  0  0  0  0  0  0
    2.4374   64.9477   84.8366 N   0  0  0  0  0  0  0  0  0  0  0  0
    3.3982   65.9426   84.6536 C   0  0  0  0  0  0  0  0  0  0  0  0
    4.7156   65.9226   85.1449 C   0  0  0  0  0  0  0  0  0  0  0  0
    5.3185   67.1009   84.6895 C   0  0  0  0  0  0  0  0  0  0  0  0
    4.3490   67.8122   83.9810 N   0  0  0  0  0  0  0  0  0  0  0  0
    4.5486   69.1177   83.3862 C   0  0  0  0  0  0  0  0  0  0  0  0
    3.1818   67.0884   83.9424 C   0  0  0  0  0  0  0  0  0  0  0  0
    1.9207   67.3529   83.3230 C   0  0  0  0  0  0  0  0  0  0  0  0
    1.6348   68.3228   82.6291 O   0  0  0  0  0  0  0  0  0  0  0  0
    1.0079   66.3554   83.5713 N   0  0  0  0  0  0  0  0  0  0  0  0
    0.0970   66.4806   83.1486 H   0  0  0  0  0  0  0  0  0  0  0  0
    6.6944   67.4982   84.9092 C   0  0  0  0  0  0  0  0  0  0  0  0
    7.6959   66.7426   84.5866 N   0  0  0  0  0  0  0  0  0  0  0  0
    8.8896   67.3905   84.9298 O   0  0  0  0  0  0  0  0  0  0  0  0
    9.5661   66.7480   84.6451 H   0  0  0  0  0  0  0  0  0  0  0  0
    5.3232   64.8318   85.9721 C   0  0  0  0  0  0  0  0  0  0  0  0
    4.7734   64.8118   87.3988 C   0  0  0  0  0  0  0  0  0  0  0  0
    5.7038   65.5309   88.3623 C   0  0  0  0  0  0  0  0  0  0  0  0
   -1.8889   61.8899   81.7711 S   0  0  0  0  0  0  0  0  0  0  0  0
   -3.1637   62.4856   81.4340 O   0  0  0  0  0  0  0  0  0  0  0  0
   -1.7378   60.4564   81.8995 O   0  0  0  0  0  0  0  0  0  0  0  0
   -0.7405   62.4204   80.6292 N   0  0  0  0  0  0  0  0  0  0  0  0
    0.2151   61.3782   80.1290 C   0  0  0  0  0  0  0  0  0  0  0  0
   -0.1441   60.9152   78.7053 C   0  0  0  0  0  0  0  0  0  0  0  0
   -0.0659   62.0011   77.7022 N   0  0  0  0  0  0  0  0  0  0  0  0
   -0.4169   63.3086   78.3026 C   0  0  0  0  0  0  0  0  0  0  0  0
   -1.3523   63.2255   79.5223 C   0  0  0  0  0  0  0  0  0  0  0  0
   -0.8776   61.7136   76.5091 C   0  0  0  0  0  0  0  0  0  0  0  0
   -1.5852   60.3493   76.5475 C   0  0  0  0  0  0  0  0  0  0  0  0
   -2.9859   60.5794   76.4090 O   0  0  0  0  0  0  0  0  0  0  0  0
   -3.5654   61.1181   77.5810 N   0  0  0  0  0  0  0  0  0  0  0  0
   -3.5206   60.3406   78.5325 O   0  0  0  0  0  0  0  0  0  0  0  0
   -4.0314   62.2563   77.5107 O   0  0  0  0  0  0  0  0  0  0  0  0
   -0.0258   64.4775   86.7838 O   0  0  0  0  0  0  0  0  0  0  0  0
    0.7765   63.6207   87.6095 C   0  0  0  0  0  0  0  0  0  0  0  0
    0.1995   61.9092   89.3694 C   0  0  0  0  0  0  0  0  0  0  0  0
   -0.0184   63.3287   88.8785 C   0  0  0  0  0  0  0  0  0  0  0  0
 43 44  1  0  0  0
 44 42  1  0  0  0
 42 41  1  0  0  0
 41  1  1  0  0  0
  1  2  1  0  0  0
  2  3  2  0  0  0
  3  4  1  0  0  0
  4 26  1  0  0  0
 26 27  2  0  0  0
 26 28  2  0  0  0
 26 29  1  0  0  0
 29 30  1  0  0  0
 30 31  1  0  0  0
 31 32  1  0  0  0
 32 35  1  0  0  0
 35 36  1  0  0  0
 36 37  1  0  0  0
 37 38  1  0  0  0
 38 39  2  0  0  0
 38 40  1  0  0  0
 32 33  1  0  0  0
 33 34  1  0  0  0
  4  5  2  0  0  0
  5  6  1  0  0  0
  6  7  1  0  0  0
  7  8  2  0  0  0
  8  9  1  0  0  0
  9 10  1  0  0  0
 10 23  1  0  0  0
 23 24  1  0  0  0
 24 25  1  0  0  0
 10 11  2  0  0  0
 11 19  1  0  0  0
 19 20  2  0  0  0
 20 21  1  0  0  0
 11 12  1  0  0  0
 12 13  1  0  0  0
 12 14  1  0  0  0
 14 15  1  0  0  0
 15 16  2  0  0  0
 15 17  1  0  0  0
  6  1  2  0  0  0
 17  7  1  0  0  0
 34 29  1  0  0  0
 14  9  2  0  0  0
 21 22  1  0  0  0
 17 18  1  0  0  0
M  CHG 1  38   1
M  CHG 1  40  -1
M  END
> <minimizedAffinity>
-9.74260

$$$$



 44 47  0  0  0  0  0  0  0  0999 V2000
    0.8043   64.9999   83.9237 C   0  0  0  0  0  0  0  0  0  0  0  0
    1.4667   66.1273   84.4309 C   0  0  0  0  0  0  0  0  0  0  0  0
    1.7436   67.2155   83.6029 C   0  0  0  0  0  0  0  0  0  0  0  0
    1.3450   67.1809   82.2665 C   0  0  0  0  0  0  0  0  0  0  0  0
    0.6471   66.0831   81.7584 C   0  0  0  0  0  0  0  0  0  0  0  0
    0.3691   64.9793   82.5834 C   0  0  0  0  0  0  0  0  0  0  0  0
   -0.3481   63.8196   81.9560 C   0  0  0  0  0  0  0  0  0  0  0  0
   -0.0880   63.4997   80.7202 N   0  0  0  0  0  0  0  0  0  0  0  0
   -0.8079   62.4048   80.2412 C   0  0  0  0  0  0  0  0  0  0  0  0
   -0.7196   61.8560   78.9495 C   0  0  0  0  0  0  0  0  0  0  0  0
   -1.5887   60.7589   78.9328 C   0  0  0  0  0  0  0  0  0  0  0  0
   -2.2029   60.7011   80.1846 N   0  0  0  0  0  0  0  0  0  0  0  0
   -3.2161   59.7392   80.5669 C   0  0  0  0  0  0  0  0  0  0  0  0
   -1.7048   61.6970   80.9895 C   0  0  0  0  0  0  0  0  0  0  0  0
   -1.9748   62.0418   82.3504 C   0  0  0  0  0  0  0  0  0  0  0  0
   -2.7232   61.4503   83.1211 O   0  0  0  0  0  0  0  0  0  0  0  0
   -1.2642   63.1488   82.7498 N   0  0  0  0  0  0  0  0  0  0  0  0
   -1.4048   63.4361   83.7099 H   0  0  0  0  0  0  0  0  0  0  0  0
   -1.8004   59.8520   77.8227 C   0  0  0  0  0  0  0  0  0  0  0  0
   -1.3420   58.6405   77.8180 N   0  0  0  0  0  0  0  0  0  0  0  0
   -1.6967   58.0198   76.6133 O   0  0  0  0  0  0  0  0  0  0  0  0
   -1.3128   57.1289   76.7156 H   0  0  0  0  0  0  0  0  0  0  0  0
    0.1554   62.3608   77.8436 C   0  0  0  0  0  0  0  0  0  0  0  0
   -0.5990   63.2784   76.8808 C   0  0  0  0  0  0  0  0  0  0  0  0
   -0.4670   64.7375   77.2864 C   0  0  0  0  0  0  0  0  0  0  0  0
    1.7068   68.5715   81.2231 S   0  0  0  0  0  0  0  0  0  0  0  0
    1.0854   68.3187   79.9411 O   0  0  0  0  0  0  0  0  0  0  0  0
    3.1156   68.8853   81.3285 O   0  0  0  0  0  0  0  0  0  0  0  0
    0.8486   69.8308   81.9859 N   0  0  0  0  0  0  0  0  0  0  0  0
    1.6834   70.8612   82.6867 C   0  0  0  0  0  0  0  0  0  0  0  0
    1.7623   72.1711   81.8816 C   0  0  0  0  0  0  0  0  0  0  0  0
    0.4458   72.8231   81.6988 N   0  0  0  0  0  0  0  0  0  0  0  0
   -0.6399   71.8194   81.6163 C   0  0  0  0  0  0  0  0  0  0  0  0
   -0.1997   70.4369   81.1019 C   0  0  0  0  0  0  0  0  0  0  0  0
    0.4342   73.7350   80.5442 C   0  0  0  0  0  0  0  0  0  0  0  0
    0.2373   75.2135   80.9163 C   0  0  0  0  0  0  0  0  0  0  0  0
   -0.4925   75.2626   82.1407 O   0  0  0  0  0  0  0  0  0  0  0  0
   -0.0247   76.2746   83.0106 N   0  0  0  0  0  0  0  0  0  0  0  0
   -0.9325   76.8185   83.6367 O   0  0  0  0  0  0  0  0  0  0  0  0
    1.1888   76.4851   83.0337 O   0  0  0  0  0  0  0  0  0  0  0  0
    0.5180   63.9308   84.7364 O   0  0  0  0  0  0  0  0  0  0  0  0
    0.6899   64.1972   86.1361 C   0  0  0  0  0  0  0  0  0  0  0  0
   -0.8594   62.2087   86.2080 C   0  0  0  0  0  0  0  0  0  0  0  0
   -0.4498   63.5069   86.8791 C   0  0  0  0  0  0  0  0  0  0  0  0
 43 44  1  0  0  0
 44 42  1  0  0  0
 42 41  1  0  0  0
 41  1  1  0  0  0
  1  2  1  0  0  0
  2  3  2  0  0  0
  3  4  1  0  0  0
  4 26  1  0  0  0
 26 27  2  0  0  0
 26 28  2  0  0  0
 26 29  1  0  0  0
 29 30  1  0  0  0
 30 31  1  0  0  0
 31 32  1  0  0  0
 32 35  1  0  0  0
 35 36  1  0  0  0
 36 37  1  0  0  0
 37 38  1  0  0  0
 38 39  2  0  0  0
 38 40  1  0  0  0
 32 33  1  0  0  0
 33 34  1  0  0  0
  4  5  2  0  0  0
  5  6  1  0  0  0
  6  7  1  0  0  0
  7  8  2  0  0  0
  8  9  1  0  0  0
  9 10  1  0  0  0
 10 23  1  0  0  0
 23 24  1  0  0  0
 24 25  1  0  0  0
 10 11  2  0  0  0
 11 19  1  0  0  0
 19 20  2  0  0  0
 20 21  1  0  0  0
 11 12  1  0  0  0
 12 13  1  0  0  0
 12 14  1  0  0  0
 14 15  1  0  0  0
 15 16  2  0  0  0
 15 17  1  0  0  0
  6  1  2  0  0  0
 17  7  1  0  0  0
 34 29  1  0  0  0
 14  9  2  0  0  0
 21 22  1  0  0  0
 17 18  1  0  0  0
M  CHG 1  38   1
M  CHG 1  40  -1
M  END
> <minimizedAffinity>
-9.71067

$$$$



 44 47  0  0  0  0  0  0  0  0999 V2000
    4.0414   66.6878   84.2630 C   0  0  0  0  0  0  0  0  0  0  0  0
    4.8925   67.7344   83.8791 C   0  0  0  0  0  0  0  0  0  0  0  0
    4.3664   68.9205   83.3666 C   0  0  0  0  0  0  0  0  0  0  0  0
    2.9838   69.0649   83.2498 C   0  0  0  0  0  0  0  0  0  0  0  0
    2.1226   68.0480   83.6677 C   0  0  0  0  0  0  0  0  0  0  0  0
    2.6435   66.8469   84.1795 C   0  0  0  0  0  0  0  0  0  0  0  0
    1.6574   65.7844   84.5693 C   0  0  0  0  0  0  0  0  0  0  0  0
    0.8356   65.3153   83.6739 N   0  0  0  0  0  0  0  0  0  0  0  0
   -0.0330   64.3301   84.1442 C   0  0  0  0  0  0  0  0  0  0  0  0
   -1.0149   63.6626   83.3906 C   0  0  0  0  0  0  0  0  0  0  0  0
   -1.6134   62.7427   84.2593 C   0  0  0  0  0  0  0  0  0  0  0  0
   -1.0146   62.9070   85.5092 N   0  0  0  0  0  0  0  0  0  0  0  0
   -1.3836   62.1806   86.7068 C   0  0  0  0  0  0  0  0  0  0  0  0
   -0.0320   63.8640   85.4280 C   0  0  0  0  0  0  0  0  0  0  0  0
    0.8829   64.3702   86.4030 C   0  0  0  0  0  0  0  0  0  0  0  0
    0.9983   63.9934   87.5643 O   0  0  0  0  0  0  0  0  0  0  0  0
    1.6838   65.3621   85.8885 N   0  0  0  0  0  0  0  0  0  0  0  0
    2.3620   65.7535   86.5295 H   0  0  0  0  0  0  0  0  0  0  0  0
   -2.6541   61.7946   83.9167 C   0  0  0  0  0  0  0  0  0  0  0  0
   -2.3956   60.6367   83.3968 N   0  0  0  0  0  0  0  0  0  0  0  0
   -3.5987   59.9563   83.1689 O   0  0  0  0  0  0  0  0  0  0  0  0
   -3.2931   59.1120   82.7877 H   0  0  0  0  0  0  0  0  0  0  0  0
   -1.3185   63.9023   81.9436 C   0  0  0  0  0  0  0  0  0  0  0  0
   -0.7266   62.8199   81.0403 C   0  0  0  0  0  0  0  0  0  0  0  0
   -1.7902   62.1962   80.1511 C   0  0  0  0  0  0  0  0  0  0  0  0
    2.3279   70.5787   82.5928 S   0  0  0  0  0  0  0  0  0  0  0  0
    3.4367   71.4958   82.4402 O   0  0  0  0  0  0  0  0  0  0  0  0
    1.1458   70.9444   83.3430 O   0  0  0  0  0  0  0  0  0  0  0  0
    1.8155   70.1074   81.0373 N   0  0  0  0  0  0  0  0  0  0  0  0
    2.7025   69.1308   80.3238 C   0  0  0  0  0  0  0  0  0  0  0  0
    2.1042   67.7122   80.3286 C   0  0  0  0  0  0  0  0  0  0  0  0
    0.8087   67.6236   79.6177 N   0  0  0  0  0  0  0  0  0  0  0  0
    0.0451   68.8865   79.7406 C   0  0  0  0  0  0  0  0  0  0  0  0
    0.3693   69.7141   80.9974 C   0  0  0  0  0  0  0  0  0  0  0  0
    0.0160   66.4626   80.0521 C   0  0  0  0  0  0  0  0  0  0  0  0
   -0.5537   65.6256   78.8954 C   0  0  0  0  0  0  0  0  0  0  0  0
    0.5324   64.9387   78.2767 O   0  0  0  0  0  0  0  0  0  0  0  0
    0.1112   64.0986   77.2201 N   0  0  0  0  0  0  0  0  0  0  0  0
   -0.6251   64.6744   76.4212 O   0  0  0  0  0  0  0  0  0  0  0  0
    0.5133   62.9342   77.2277 O   0  0  0  0  0  0  0  0  0  0  0  0
    4.5524   65.5226   84.7795 O   0  0  0  0  0  0  0  0  0  0  0  0
    5.8492   65.6667   85.3772 C   0  0  0  0  0  0  0  0  0  0  0  0
    4.7721   64.8462   87.5046 C   0  0  0  0  0  0  0  0  0  0  0  0
    5.6435   65.9136   86.8685 C   0  0  0  0  0  0  0  0  0  0  0  0
 43 44  1  0  0  0
 44 42  1  0  0  0
 42 41  1  0  0  0
 41  1  1  0  0  0
  1  2  1  0  0  0
  2  3  2  0  0  0
  3  4  1  0  0  0
  4 26  1  0  0  0
 26 27  2  0  0  0
 26 28  2  0  0  0
 26 29  1  0  0  0
 29 30  1  0  0  0
 30 31  1  0  0  0
 31 32  1  0  0  0
 32 35  1  0  0  0
 35 36  1  0  0  0
 36 37  1  0  0  0
 37 38  1  0  0  0
 38 39  2  0  0  0
 38 40  1  0  0  0
 32 33  1  0  0  0
 33 34  1  0  0  0
  4  5  2  0  0  0
  5  6  1  0  0  0
  6  7  1  0  0  0
  7  8  2  0  0  0
  8  9  1  0  0  0
  9 10  1  0  0  0
 10 23  1  0  0  0
 23 24  1  0  0  0
 24 25  1  0  0  0
 10 11  2  0  0  0
 11 19  1  0  0  0
 19 20  2  0  0  0
 20 21  1  0  0  0
 11 12  1  0  0  0
 12 13  1  0  0  0
 12 14  1  0  0  0
 14 15  1  0  0  0
 15 16  2  0  0  0
 15 17  1  0  0  0
  6  1  2  0  0  0
 17  7  1  0  0  0
 34 29  1  0  0  0
 14  9  2  0  0  0
 21 22  1  0  0  0
 17 18  1  0  0  0
M  CHG 1  38   1
M  CHG 1  40  -1
M  END
> <minimizedAffinity>
-9.69864

$$$$



 44 47  0  0  0  0  0  0  0  0999 V2000
    0.7851   65.0461   83.6739 C   0  0  0  0  0  0  0  0  0  0  0  0
    1.4299   66.2020   84.1379 C   0  0  0  0  0  0  0  0  0  0  0  0
    1.6032   67.3003   83.2953 C   0  0  0  0  0  0  0  0  0  0  0  0
    1.1184   67.2468   81.9884 C   0  0  0  0  0  0  0  0  0  0  0  0
    0.4368   66.1190   81.5259 C   0  0  0  0  0  0  0  0  0  0  0  0
    0.2629   65.0050   82.3655 C   0  0  0  0  0  0  0  0  0  0  0  0
   -0.4431   63.8143   81.7851 C   0  0  0  0  0  0  0  0  0  0  0  0
   -0.2215   63.4811   80.5453 N   0  0  0  0  0  0  0  0  0  0  0  0
   -0.9264   62.3578   80.1123 C   0  0  0  0  0  0  0  0  0  0  0  0
   -0.8717   61.7898   78.8270 C   0  0  0  0  0  0  0  0  0  0  0  0
   -1.7077   60.6677   78.8617 C   0  0  0  0  0  0  0  0  0  0  0  0
   -2.2712   60.6134   80.1374 N   0  0  0  0  0  0  0  0  0  0  0  0
   -3.2397   59.6290   80.5743 C   0  0  0  0  0  0  0  0  0  0  0  0
   -1.7722   61.6370   80.9063 C   0  0  0  0  0  0  0  0  0  0  0  0
   -1.9996   61.9968   82.2711 C   0  0  0  0  0  0  0  0  0  0  0  0
   -2.6998   61.3970   83.0797 O   0  0  0  0  0  0  0  0  0  0  0  0
   -1.3074   63.1307   82.6247 N   0  0  0  0  0  0  0  0  0  0  0  0
   -1.4194   63.4302   83.5849 H   0  0  0  0  0  0  0  0  0  0  0  0
   -1.9350   59.7363   77.7754 C   0  0  0  0  0  0  0  0  0  0  0  0
   -1.3180   58.6003   77.6933 N   0  0  0  0  0  0  0  0  0  0  0  0
   -1.7376   57.9320   76.5359 O   0  0  0  0  0  0  0  0  0  0  0  0
   -1.2240   57.1036   76.5744 H   0  0  0  0  0  0  0  0  0  0  0  0
   -0.0555   62.3010   77.6799 C   0  0  0  0  0  0  0  0  0  0  0  0
   -0.8569   63.2297   76.7670 C   0  0  0  0  0  0  0  0  0  0  0  0
   -0.6157   64.6905   77.1116 C   0  0  0  0  0  0  0  0  0  0  0  0
    1.3487   68.6508   80.9257 S   0  0  0  0  0  0  0  0  0  0  0  0
    0.0536   69.2713   80.7484 O   0  0  0  0  0  0  0  0  0  0  0  0
    2.1562   68.2555   79.7917 O   0  0  0  0  0  0  0  0  0  0  0  0
    2.3008   69.6840   81.8903 N   0  0  0  0  0  0  0  0  0  0  0  0
    3.6940   69.9401   81.3975 C   0  0  0  0  0  0  0  0  0  0  0  0
    3.8261   71.3401   80.7709 C   0  0  0  0  0  0  0  0  0  0  0  0
    3.5660   72.4357   81.7319 N   0  0  0  0  0  0  0  0  0  0  0  0
    2.5644   72.0307   82.7447 C   0  0  0  0  0  0  0  0  0  0  0  0
    1.5821   70.9415   82.2776 C   0  0  0  0  0  0  0  0  0  0  0  0
    3.1842   73.6863   81.0572 C   0  0  0  0  0  0  0  0  0  0  0  0
    4.3747   74.4933   80.5142 C   0  0  0  0  0  0  0  0  0  0  0  0
    4.2835   74.5026   79.0909 O   0  0  0  0  0  0  0  0  0  0  0  0
    5.5513   74.4591   78.4660 N   0  0  0  0  0  0  0  0  0  0  0  0
    6.3613   75.2260   78.9832 O   0  0  0  0  0  0  0  0  0  0  0  0
    5.6866   73.6908   77.5127 O   0  0  0  0  0  0  0  0  0  0  0  0
    0.6006   63.9663   84.5019 O   0  0  0  0  0  0  0  0  0  0  0  0
    0.6961   64.2777   85.8996 C   0  0  0  0  0  0  0  0  0  0  0  0
   -0.7574   62.2175   85.9482 C   0  0  0  0  0  0  0  0  0  0  0  0
   -0.4351   63.5433   86.6128 C   0  0  0  0  0  0  0  0  0  0  0  0
 43 44  1  0  0  0
 44 42  1  0  0  0
 42 41  1  0  0  0
 41  1  1  0  0  0
  1  2  1  0  0  0
  2  3  2  0  0  0
  3  4  1  0  0  0
  4 26  1  0  0  0
 26 27  2  0  0  0
 26 28  2  0  0  0
 26 29  1  0  0  0
 29 30  1  0  0  0
 30 31  1  0  0  0
 31 32  1  0  0  0
 32 35  1  0  0  0
 35 36  1  0  0  0
 36 37  1  0  0  0
 37 38  1  0  0  0
 38 39  2  0  0  0
 38 40  1  0  0  0
 32 33  1  0  0  0
 33 34  1  0  0  0
  4  5  2  0  0  0
  5  6  1  0  0  0
  6  7  1  0  0  0
  7  8  2  0  0  0
  8  9  1  0  0  0
  9 10  1  0  0  0
 10 23  1  0  0  0
 23 24  1  0  0  0
 24 25  1  0  0  0
 10 11  2  0  0  0
 11 19  1  0  0  0
 19 20  2  0  0  0
 20 21  1  0  0  0
 11 12  1  0  0  0
 12 13  1  0  0  0
 12 14  1  0  0  0
 14 15  1  0  0  0
 15 16  2  0  0  0
 15 17  1  0  0  0
  6  1  2  0  0  0
 17  7  1  0  0  0
 34 29  1  0  0  0
 14  9  2  0  0  0
 21 22  1  0  0  0
 17 18  1  0  0  0
M  CHG 1  38   1
M  CHG 1  40  -1
M  END
> <minimizedAffinity>
-9.52594

$$$$
