
     RDKit          3D

 40 42  0  0  0  0  0  0  0  0999 V2000
   -2.3042   -2.7570   -0.2431 C   0  0  0  0  0  0  0  0  0  0  0  0
   -3.4040   -1.7248   -0.0293 C   0  0  0  0  0  0  0  0  0  0  0  0
   -2.9192   -0.2810   -0.1535 C   0  0  0  0  0  0  0  0  0  0  0  0
   -2.4691    0.1420   -1.8751 S   0  0  0  0  0  0  0  0  0  0  0  0
   -1.7341    1.7514   -1.5925 C   0  0  0  0  0  0  0  0  0  0  0  0
   -2.4938    2.8586   -2.0040 C   0  0  0  0  0  0  0  0  0  0  0  0
   -2.0355    4.1611   -1.7965 C   0  0  0  0  0  0  0  0  0  0  0  0
   -0.8109    4.3761   -1.1739 C   0  0  0  0  0  0  0  0  0  0  0  0
   -0.0382    3.2877   -0.7695 C   0  0  0  0  0  0  0  0  0  0  0  0
   -0.4817    1.9712   -0.9867 C   0  0  0  0  0  0  0  0  0  0  0  0
    0.4377    0.8852   -0.5408 C   0  0  0  0  0  0  0  0  0  0  0  0
    1.1287    1.0226    0.5595 N   0  0  0  0  0  0  0  0  0  0  0  0
    1.9243   -0.0404    0.8372 C   0  0  0  0  0  0  0  0  0  0  0  0
    2.0685   -1.1938    0.1067 C   0  0  0  0  0  0  0  0  0  0  0  0
    2.9933   -1.9864    0.8094 C   0  0  0  0  0  0  0  0  0  0  0  0
    3.4964   -3.3337    0.4516 C   0  0  0  0  0  0  0  0  0  0  0  0
    3.4142   -1.3669    1.9251 N   0  0  0  0  0  0  0  0  0  0  0  0
    2.7494   -0.1852    1.9161 N   0  0  0  0  0  0  0  0  0  0  0  0
    2.9610    0.7522    2.9898 C   0  0  0  0  0  0  0  0  0  0  0  0
    1.3133   -1.3405   -1.1014 C   0  0  0  0  0  0  0  0  0  0  0  0
    1.3378   -2.3308   -1.8222 O   0  0  0  0  0  0  0  0  0  0  0  0
    0.5286   -0.2337   -1.3671 N   0  0  0  0  0  0  0  0  0  0  0  0
   -2.6921   -3.7625   -0.0506 H   0  0  0  0  0  0  0  0  0  0  0  0
   -1.4655   -2.5830    0.4388 H   0  0  0  0  0  0  0  0  0  0  0  0
   -1.9241   -2.7398   -1.2687 H   0  0  0  0  0  0  0  0  0  0  0  0
   -4.2323   -1.9158   -0.7220 H   0  0  0  0  0  0  0  0  0  0  0  0
   -3.8066   -1.8635    0.9816 H   0  0  0  0  0  0  0  0  0  0  0  0
   -2.0645   -0.1214    0.5115 H   0  0  0  0  0  0  0  0  0  0  0  0
   -3.7183    0.3984    0.1618 H   0  0  0  0  0  0  0  0  0  0  0  0
   -3.4607    2.7168   -2.4845 H   0  0  0  0  0  0  0  0  0  0  0  0
   -2.6396    5.0068   -2.1172 H   0  0  0  0  0  0  0  0  0  0  0  0
   -0.4537    5.3894   -1.0056 H   0  0  0  0  0  0  0  0  0  0  0  0
    0.9226    3.4708   -0.2909 H   0  0  0  0  0  0  0  0  0  0  0  0
    3.9904   -3.3097   -0.5250 H   0  0  0  0  0  0  0  0  0  0  0  0
    4.2194   -3.7019    1.1868 H   0  0  0  0  0  0  0  0  0  0  0  0
    2.6693   -4.0491    0.4033 H   0  0  0  0  0  0  0  0  0  0  0  0
    2.6452    0.2811    3.9240 H   0  0  0  0  0  0  0  0  0  0  0  0
    2.3781    1.6594    2.8164 H   0  0  0  0  0  0  0  0  0  0  0  0
    4.0252    0.9987    3.0268 H   0  0  0  0  0  0  0  0  0  0  0  0
   -0.0553   -0.3081   -2.1896 H   0  0  0  0  0  0  0  0  0  0  0  0
  1  2  1  0
  2  3  1  0
  3  4  1  0
  4  5  1  0
  5  6  2  0
  6  7  1  0
  7  8  2  0
  8  9  1  0
  9 10  2  0
 10 11  1  0
 11 12  2  0
 12 13  1  0
 13 14  2  0
 14 15  1  0
 15 16  1  0
 15 17  2  0
 17 18  1  0
 18 19  1  0
 14 20  1  0
 20 21  2  0
 20 22  1  0
 10  5  1  0
 22 11  1  0
 18 13  1  0
  1 23  1  0
  1 24  1  0
  1 25  1  0
  2 26  1  0
  2 27  1  0
  3 28  1  0
  3 29  1  0
  6 30  1  0
  7 31  1  0
  8 32  1  0
  9 33  1  0
 16 34  1  0
 16 35  1  0
 16 36  1  0
 19 37  1  0
 19 38  1  0
 19 39  1  0
 22 40  1  0
M  END
$$$$
