


 32 34  0  0  0  0  0  0  0  0999 V2000
    3.4459   66.4347   84.7102 C   0  0  0  0  0  0  0  0  0  0  0  0
    4.2240   67.4273   84.0920 C   0  0  0  0  0  0  0  0  0  0  0  0
    3.7126   68.1857   83.0360 C   0  0  0  0  0  0  0  0  0  0  0  0
    2.4153   67.9513   82.5897 C   0  0  0  0  0  0  0  0  0  0  0  0
    1.6241   66.9682   83.1862 C   0  0  0  0  0  0  0  0  0  0  0  0
    2.1270   66.2023   84.2530 C   0  0  0  0  0  0  0  0  0  0  0  0
    1.1980   65.1767   84.8386 C   0  0  0  0  0  0  0  0  0  0  0  0
    0.4429   64.4561   84.0715 N   0  0  0  0  0  0  0  0  0  0  0  0
   -0.3916   63.5176   84.6405 C   0  0  0  0  0  0  0  0  0  0  0  0
   -0.4900   63.3074   85.9699 C   0  0  0  0  0  0  0  0  0  0  0  0
    0.3736   64.1450   86.8420 C   0  0  0  0  0  0  0  0  0  0  0  0
    0.3694   64.0514   88.0654 O   0  0  0  0  0  0  0  0  0  0  0  0
    1.1788   65.0302   86.1972 N   0  0  0  0  0  0  0  0  0  0  0  0
    1.7663   65.6113   86.7803 H   0  0  0  0  0  0  0  0  0  0  0  0
   -1.1932   62.7462   83.6085 C   0  0  0  0  0  0  0  0  0  0  0  0
   -1.5956   63.6243   82.4301 C   0  0  0  0  0  0  0  0  0  0  0  0
   -1.3879   62.3289   86.6782 C   0  0  0  0  0  0  0  0  0  0  0  0
   -2.7534   62.9279   86.9841 C   0  0  0  0  0  0  0  0  0  0  0  0
    1.7430   68.9078   81.2547 S   0  0  0  0  0  0  0  0  0  0  0  0
    0.8115   68.0549   80.5502 O   0  0  0  0  0  0  0  0  0  0  0  0
    2.8377   69.5609   80.5669 O   0  0  0  0  0  0  0  0  0  0  0  0
    0.8643   70.1194   82.0626 N   0  0  0  0  0  0  0  0  0  0  0  0
    1.6756   71.2086   82.6977 C   0  0  0  0  0  0  0  0  0  0  0  0
    1.5948   72.5157   81.8894 C   0  0  0  0  0  0  0  0  0  0  0  0
    0.2242   73.0651   81.8193 N   0  0  0  0  0  0  0  0  0  0  0  0
    0.0888   73.9561   80.6692 C   0  0  0  0  0  0  0  0  0  0  0  0
   -0.7911   71.9911   81.8075 C   0  0  0  0  0  0  0  0  0  0  0  0
   -0.2902   70.6416   81.2617 C   0  0  0  0  0  0  0  0  0  0  0  0
    3.9005   65.6662   85.7523 O   0  0  0  0  0  0  0  0  0  0  0  0
    5.2485   65.1906   85.7133 C   0  0  0  0  0  0  0  0  0  0  0  0
    5.5091   65.4516   88.2078 C   0  0  0  0  0  0  0  0  0  0  0  0
    6.0122   65.8787   86.8409 C   0  0  0  0  0  0  0  0  0  0  0  0
 31 32  1  0  0  0
 32 30  1  0  0  0
 30 29  1  0  0  0
 29  1  1  0  0  0
  1  2  1  0  0  0
  2  3  2  0  0  0
  3  4  1  0  0  0
  4 19  1  0  0  0
 19 20  2  0  0  0
 19 21  2  0  0  0
 19 22  1  0  0  0
 22 23  1  0  0  0
 23 24  1  0  0  0
 24 25  1  0  0  0
 25 26  1  0  0  0
 25 27  1  0  0  0
 27 28  1  0  0  0
  4  5  2  0  0  0
  5  6  1  0  0  0
  6  7  1  0  0  0
  7  8  2  0  0  0
  8  9  1  0  0  0
  9 15  1  0  0  0
 15 16  1  0  0  0
  9 10  2  0  0  0
 10 17  1  0  0  0
 17 18  1  0  0  0
 10 11  1  0  0  0
 11 12  2  0  0  0
 11 13  1  0  0  0
  6  1  2  0  0  0
 13  7  1  0  0  0
 28 22  1  0  0  0
 13 14  1  0  0  0
M  END
> <minimizedAffinity>
-9.76190

$$$$



 32 34  0  0  0  0  0  0  0  0999 V2000
    3.6614   66.6397   84.6793 C   0  0  0  0  0  0  0  0  0  0  0  0
    4.4271   67.7117   84.1920 C   0  0  0  0  0  0  0  0  0  0  0  0
    3.9067   68.5899   83.2382 C   0  0  0  0  0  0  0  0  0  0  0  0
    2.6127   68.3969   82.7633 C   0  0  0  0  0  0  0  0  0  0  0  0
    1.8338   67.3370   83.2302 C   0  0  0  0  0  0  0  0  0  0  0  0
    2.3458   66.4498   84.1938 C   0  0  0  0  0  0  0  0  0  0  0  0
    1.4297   65.3473   84.6443 C   0  0  0  0  0  0  0  0  0  0  0  0
    0.9024   64.5348   83.7841 N   0  0  0  0  0  0  0  0  0  0  0  0
    0.0732   63.5284   84.2317 C   0  0  0  0  0  0  0  0  0  0  0  0
   -0.2467   63.3398   85.5291 C   0  0  0  0  0  0  0  0  0  0  0  0
    0.3560   64.2822   86.5071 C   0  0  0  0  0  0  0  0  0  0  0  0
    0.1363   64.2169   87.7125 O   0  0  0  0  0  0  0  0  0  0  0  0
    1.1757   65.2309   85.9820 N   0  0  0  0  0  0  0  0  0  0  0  0
    1.5864   65.8830   86.6369 H   0  0  0  0  0  0  0  0  0  0  0  0
   -0.4459   62.6545   83.1050 C   0  0  0  0  0  0  0  0  0  0  0  0
    0.6071   61.6638   82.6239 C   0  0  0  0  0  0  0  0  0  0  0  0
   -1.1596   62.2902   86.1038 C   0  0  0  0  0  0  0  0  0  0  0  0
   -2.6126   62.7438   86.1151 C   0  0  0  0  0  0  0  0  0  0  0  0
    1.9291   69.5046   81.5572 S   0  0  0  0  0  0  0  0  0  0  0  0
    0.5201   69.6373   81.8550 O   0  0  0  0  0  0  0  0  0  0  0  0
    2.3883   69.0904   80.2474 O   0  0  0  0  0  0  0  0  0  0  0  0
    2.7001   70.9774   81.9164 N   0  0  0  0  0  0  0  0  0  0  0  0
    2.9948   71.8687   80.7473 C   0  0  0  0  0  0  0  0  0  0  0  0
    2.0301   73.0665   80.6946 C   0  0  0  0  0  0  0  0  0  0  0  0
    2.1449   73.9499   81.8743 N   0  0  0  0  0  0  0  0  0  0  0  0
    0.9220   74.7303   82.0495 C   0  0  0  0  0  0  0  0  0  0  0  0
    2.4916   73.1873   83.0919 C   0  0  0  0  0  0  0  0  0  0  0  0
    2.0686   71.7073   83.0634 C   0  0  0  0  0  0  0  0  0  0  0  0
    4.1252   65.7525   85.6179 O   0  0  0  0  0  0  0  0  0  0  0  0
    5.4507   65.2359   85.4736 C   0  0  0  0  0  0  0  0  0  0  0  0
    5.4486   65.4688   87.9845 C   0  0  0  0  0  0  0  0  0  0  0  0
    6.2456   65.6567   86.7063 C   0  0  0  0  0  0  0  0  0  0  0  0
 31 32  1  0  0  0
 32 30  1  0  0  0
 30 29  1  0  0  0
 29  1  1  0  0  0
  1  2  1  0  0  0
  2  3  2  0  0  0
  3  4  1  0  0  0
  4 19  1  0  0  0
 19 20  2  0  0  0
 19 21  2  0  0  0
 19 22  1  0  0  0
 22 23  1  0  0  0
 23 24  1  0  0  0
 24 25  1  0  0  0
 25 26  1  0  0  0
 25 27  1  0  0  0
 27 28  1  0  0  0
  4  5  2  0  0  0
  5  6  1  0  0  0
  6  7  1  0  0  0
  7  8  2  0  0  0
  8  9  1  0  0  0
  9 15  1  0  0  0
 15 16  1  0  0  0
  9 10  2  0  0  0
 10 17  1  0  0  0
 17 18  1  0  0  0
 10 11  1  0  0  0
 11 12  2  0  0  0
 11 13  1  0  0  0
  6  1  2  0  0  0
 13  7  1  0  0  0
 28 22  1  0  0  0
 13 14  1  0  0  0
M  END
> <minimizedAffinity>
-9.60533

$$$$



 32 34  0  0  0  0  0  0  0  0999 V2000
    0.9697   66.0395   81.8612 C   0  0  0  0  0  0  0  0  0  0  0  0
    1.3488   66.5819   80.6223 C   0  0  0  0  0  0  0  0  0  0  0  0
    1.1070   65.8909   79.4324 C   0  0  0  0  0  0  0  0  0  0  0  0
    0.4844   64.6469   79.4772 C   0  0  0  0  0  0  0  0  0  0  0  0
    0.1014   64.0860   80.6966 C   0  0  0  0  0  0  0  0  0  0  0  0
    0.3356   64.7750   81.9000 C   0  0  0  0  0  0  0  0  0  0  0  0
   -0.1223   64.0976   83.1607 C   0  0  0  0  0  0  0  0  0  0  0  0
   -1.0997   63.2478   83.1354 N   0  0  0  0  0  0  0  0  0  0  0  0
   -1.4892   62.6372   84.3085 C   0  0  0  0  0  0  0  0  0  0  0  0
   -0.9216   62.8831   85.5079 C   0  0  0  0  0  0  0  0  0  0  0  0
    0.1928   63.8658   85.5280 C   0  0  0  0  0  0  0  0  0  0  0  0
    0.7835   64.1772   86.5574 O   0  0  0  0  0  0  0  0  0  0  0  0
    0.5240   64.4047   84.3249 N   0  0  0  0  0  0  0  0  0  0  0  0
    1.2764   65.0806   84.3266 H   0  0  0  0  0  0  0  0  0  0  0  0
   -2.6308   61.6581   84.1066 C   0  0  0  0  0  0  0  0  0  0  0  0
   -2.5654   60.9836   82.7419 C   0  0  0  0  0  0  0  0  0  0  0  0
   -1.2967   62.2868   86.8380 C   0  0  0  0  0  0  0  0  0  0  0  0
   -2.4438   63.0401   87.4964 C   0  0  0  0  0  0  0  0  0  0  0  0
    0.1609   63.7550   77.9776 S   0  0  0  0  0  0  0  0  0  0  0  0
    1.3523   62.9942   77.6723 O   0  0  0  0  0  0  0  0  0  0  0  0
   -0.4152   64.6737   77.0173 O   0  0  0  0  0  0  0  0  0  0  0  0
   -1.0692   62.6744   78.4380 N   0  0  0  0  0  0  0  0  0  0  0  0
   -2.3583   62.7824   77.6801 C   0  0  0  0  0  0  0  0  0  0  0  0
   -2.5253   61.6213   76.6840 C   0  0  0  0  0  0  0  0  0  0  0  0
   -2.5920   60.3010   77.3455 N   0  0  0  0  0  0  0  0  0  0  0  0
   -2.2305   59.2404   76.4076 C   0  0  0  0  0  0  0  0  0  0  0  0
   -1.7613   60.2634   78.5673 C   0  0  0  0  0  0  0  0  0  0  0  0
   -0.5890   61.2611   78.5762 C   0  0  0  0  0  0  0  0  0  0  0  0
    1.1815   66.6797   83.0565 O   0  0  0  0  0  0  0  0  0  0  0  0
    1.9520   67.8843   83.0592 C   0  0  0  0  0  0  0  0  0  0  0  0
    3.5432   66.4939   84.4353 C   0  0  0  0  0  0  0  0  0  0  0  0
    2.8659   67.8435   84.2805 C   0  0  0  0  0  0  0  0  0  0  0  0
 31 32  1  0  0  0
 32 30  1  0  0  0
 30 29  1  0  0  0
 29  1  1  0  0  0
  1  2  1  0  0  0
  2  3  2  0  0  0
  3  4  1  0  0  0
  4 19  1  0  0  0
 19 20  2  0  0  0
 19 21  2  0  0  0
 19 22  1  0  0  0
 22 23  1  0  0  0
 23 24  1  0  0  0
 24 25  1  0  0  0
 25 26  1  0  0  0
 25 27  1  0  0  0
 27 28  1  0  0  0
  4  5  2  0  0  0
  5  6  1  0  0  0
  6  7  1  0  0  0
  7  8  2  0  0  0
  8  9  1  0  0  0
  9 15  1  0  0  0
 15 16  1  0  0  0
  9 10  2  0  0  0
 10 17  1  0  0  0
 17 18  1  0  0  0
 10 11  1  0  0  0
 11 12  2  0  0  0
 11 13  1  0  0  0
  6  1  2  0  0  0
 13  7  1  0  0  0
 28 22  1  0  0  0
 13 14  1  0  0  0
M  END
> <minimizedAffinity>
-9.24189

$$$$



 32 34  0  0  0  0  0  0  0  0999 V2000
    3.5809   67.0091   84.3413 C   0  0  0  0  0  0  0  0  0  0  0  0
    4.2908   68.1508   83.9347 C   0  0  0  0  0  0  0  0  0  0  0  0
    3.7970   68.9811   82.9255 C   0  0  0  0  0  0  0  0  0  0  0  0
    2.5862   68.6697   82.3137 C   0  0  0  0  0  0  0  0  0  0  0  0
    1.8643   67.5388   82.6985 C   0  0  0  0  0  0  0  0  0  0  0  0
    2.3497   66.6988   83.7166 C   0  0  0  0  0  0  0  0  0  0  0  0
    1.4977   65.5127   84.0704 C   0  0  0  0  0  0  0  0  0  0  0  0
    1.0720   65.3442   85.2821 N   0  0  0  0  0  0  0  0  0  0  0  0
    0.2848   64.2499   85.5713 C   0  0  0  0  0  0  0  0  0  0  0  0
   -0.0644   63.3146   84.6633 C   0  0  0  0  0  0  0  0  0  0  0  0
    0.4361   63.5120   83.2782 C   0  0  0  0  0  0  0  0  0  0  0  0
    0.1916   62.7276   82.3669 O   0  0  0  0  0  0  0  0  0  0  0  0
    1.1883   64.6263   83.0774 N   0  0  0  0  0  0  0  0  0  0  0  0
    1.5410   64.7680   82.1402 H   0  0  0  0  0  0  0  0  0  0  0  0
   -0.1458   64.2077   87.0257 C   0  0  0  0  0  0  0  0  0  0  0  0
    0.8877   63.5129   87.9037 C   0  0  0  0  0  0  0  0  0  0  0  0
   -0.8934   62.0796   84.8932 C   0  0  0  0  0  0  0  0  0  0  0  0
   -2.3848   62.3833   84.8728 C   0  0  0  0  0  0  0  0  0  0  0  0
    1.9367   69.7144   81.0347 S   0  0  0  0  0  0  0  0  0  0  0  0
    1.1666   68.8697   80.1487 O   0  0  0  0  0  0  0  0  0  0  0  0
    3.0124   70.5476   80.5379 O   0  0  0  0  0  0  0  0  0  0  0  0
    0.8668   70.7291   81.8822 N   0  0  0  0  0  0  0  0  0  0  0  0
    1.4911   71.8771   82.6173 C   0  0  0  0  0  0  0  0  0  0  0  0
    1.2456   73.2115   81.8912 C   0  0  0  0  0  0  0  0  0  0  0  0
   -0.1876   73.5625   81.8013 N   0  0  0  0  0  0  0  0  0  0  0  0
   -0.4162   74.5019   80.7058 C   0  0  0  0  0  0  0  0  0  0  0  0
   -1.0349   72.3575   81.6805 C   0  0  0  0  0  0  0  0  0  0  0  0
   -0.3265   71.1344   81.0704 C   0  0  0  0  0  0  0  0  0  0  0  0
    4.0212   66.1646   85.3294 O   0  0  0  0  0  0  0  0  0  0  0  0
    5.2615   66.4591   85.9773 C   0  0  0  0  0  0  0  0  0  0  0  0
    7.2550   65.8315   84.5663 C   0  0  0  0  0  0  0  0  0  0  0  0
    6.2498   65.3591   85.6010 C   0  0  0  0  0  0  0  0  0  0  0  0
 31 32  1  0  0  0
 32 30  1  0  0  0
 30 29  1  0  0  0
 29  1  1  0  0  0
  1  2  1  0  0  0
  2  3  2  0  0  0
  3  4  1  0  0  0
  4 19  1  0  0  0
 19 20  2  0  0  0
 19 21  2  0  0  0
 19 22  1  0  0  0
 22 23  1  0  0  0
 23 24  1  0  0  0
 24 25  1  0  0  0
 25 26  1  0  0  0
 25 27  1  0  0  0
 27 28  1  0  0  0
  4  5  2  0  0  0
  5  6  1  0  0  0
  6  7  1  0  0  0
  7  8  2  0  0  0
  8  9  1  0  0  0
  9 15  1  0  0  0
 15 16  1  0  0  0
  9 10  2  0  0  0
 10 17  1  0  0  0
 17 18  1  0  0  0
 10 11  1  0  0  0
 11 12  2  0  0  0
 11 13  1  0  0  0
  6  1  2  0  0  0
 13  7  1  0  0  0
 28 22  1  0  0  0
 13 14  1  0  0  0
M  END
> <minimizedAffinity>
-8.99938

$$$$



 32 34  0  0  0  0  0  0  0  0999 V2000
    0.9995   66.0730   81.9120 C   0  0  0  0  0  0  0  0  0  0  0  0
    1.3912   66.6106   80.6749 C   0  0  0  0  0  0  0  0  0  0  0  0
    1.1558   65.9179   79.4847 C   0  0  0  0  0  0  0  0  0  0  0  0
    0.5270   64.6769   79.5274 C   0  0  0  0  0  0  0  0  0  0  0  0
    0.1314   64.1209   80.7450 C   0  0  0  0  0  0  0  0  0  0  0  0
    0.3590   64.8117   81.9486 C   0  0  0  0  0  0  0  0  0  0  0  0
   -0.1123   64.1394   83.2071 C   0  0  0  0  0  0  0  0  0  0  0  0
    0.2662   64.5724   84.3678 N   0  0  0  0  0  0  0  0  0  0  0  0
   -0.1919   63.9383   85.5031 C   0  0  0  0  0  0  0  0  0  0  0  0
   -1.0097   62.8650   85.4861 C   0  0  0  0  0  0  0  0  0  0  0  0
   -1.4312   62.3704   84.1498 C   0  0  0  0  0  0  0  0  0  0  0  0
   -2.1673   61.3997   84.0042 O   0  0  0  0  0  0  0  0  0  0  0  0
   -0.9489   63.0656   83.0860 N   0  0  0  0  0  0  0  0  0  0  0  0
   -1.2228   62.7343   82.1705 H   0  0  0  0  0  0  0  0  0  0  0  0
    0.3266   64.5766   86.7784 C   0  0  0  0  0  0  0  0  0  0  0  0
    1.5602   63.8585   87.3117 C   0  0  0  0  0  0  0  0  0  0  0  0
   -1.5362   62.0960   86.6680 C   0  0  0  0  0  0  0  0  0  0  0  0
   -2.7640   62.7583   87.2768 C   0  0  0  0  0  0  0  0  0  0  0  0
    0.2115   63.7830   78.0273 S   0  0  0  0  0  0  0  0  0  0  0  0
    1.4043   63.0216   77.7295 O   0  0  0  0  0  0  0  0  0  0  0  0
   -0.3592   64.7005   77.0626 O   0  0  0  0  0  0  0  0  0  0  0  0
   -1.0213   62.7033   78.4826 N   0  0  0  0  0  0  0  0  0  0  0  0
   -2.2876   62.7747   77.6831 C   0  0  0  0  0  0  0  0  0  0  0  0
   -2.4125   61.5827   76.7178 C   0  0  0  0  0  0  0  0  0  0  0  0
   -2.4862   60.2820   77.4163 N   0  0  0  0  0  0  0  0  0  0  0  0
   -2.0857   59.1980   76.5221 C   0  0  0  0  0  0  0  0  0  0  0  0
   -1.6930   60.2898   78.6633 C   0  0  0  0  0  0  0  0  0  0  0  0
   -0.5314   61.3000   78.6777 C   0  0  0  0  0  0  0  0  0  0  0  0
    1.2046   66.7150   83.1074 O   0  0  0  0  0  0  0  0  0  0  0  0
    1.9740   67.9204   83.1123 C   0  0  0  0  0  0  0  0  0  0  0  0
    3.4929   66.4936   84.5322 C   0  0  0  0  0  0  0  0  0  0  0  0
    2.8948   67.8737   84.3282 C   0  0  0  0  0  0  0  0  0  0  0  0
 31 32  1  0  0  0
 32 30  1  0  0  0
 30 29  1  0  0  0
 29  1  1  0  0  0
  1  2  1  0  0  0
  2  3  2  0  0  0
  3  4  1  0  0  0
  4 19  1  0  0  0
 19 20  2  0  0  0
 19 21  2  0  0  0
 19 22  1  0  0  0
 22 23  1  0  0  0
 23 24  1  0  0  0
 24 25  1  0  0  0
 25 26  1  0  0  0
 25 27  1  0  0  0
 27 28  1  0  0  0
  4  5  2  0  0  0
  5  6  1  0  0  0
  6  7  1  0  0  0
  7  8  2  0  0  0
  8  9  1  0  0  0
  9 15  1  0  0  0
 15 16  1  0  0  0
  9 10  2  0  0  0
 10 17  1  0  0  0
 17 18  1  0  0  0
 10 11  1  0  0  0
 11 12  2  0  0  0
 11 13  1  0  0  0
  6  1  2  0  0  0
 13  7  1  0  0  0
 28 22  1  0  0  0
 13 14  1  0  0  0
M  END
> <minimizedAffinity>
-8.93751

$$$$



 32 34  0  0  0  0  0  0  0  0999 V2000
    1.5732   65.8205   83.2121 C   0  0  0  0  0  0  0  0  0  0  0  0
    0.7225   66.2688   82.1882 C   0  0  0  0  0  0  0  0  0  0  0  0
    0.9359   67.5015   81.5664 C   0  0  0  0  0  0  0  0  0  0  0  0
    2.0049   68.2962   81.9700 C   0  0  0  0  0  0  0  0  0  0  0  0
    2.8619   67.8735   82.9873 C   0  0  0  0  0  0  0  0  0  0  0  0
    2.6593   66.6324   83.6167 C   0  0  0  0  0  0  0  0  0  0  0  0
    3.6399   66.2576   84.6918 C   0  0  0  0  0  0  0  0  0  0  0  0
    4.8591   66.6935   84.6537 N   0  0  0  0  0  0  0  0  0  0  0  0
    5.7312   66.3381   85.6607 C   0  0  0  0  0  0  0  0  0  0  0  0
    5.3988   65.5365   86.6942 C   0  0  0  0  0  0  0  0  0  0  0  0
    4.0006   65.0344   86.7243 C   0  0  0  0  0  0  0  0  0  0  0  0
    3.5810   64.2942   87.6083 O   0  0  0  0  0  0  0  0  0  0  0  0
    3.2042   65.4493   85.7039 N   0  0  0  0  0  0  0  0  0  0  0  0
    2.2520   65.1084   85.7092 H   0  0  0  0  0  0  0  0  0  0  0  0
    7.1106   66.9440   85.4801 C   0  0  0  0  0  0  0  0  0  0  0  0
    8.0659   65.9830   84.7833 C   0  0  0  0  0  0  0  0  0  0  0  0
    6.2872   65.0762   87.8186 C   0  0  0  0  0  0  0  0  0  0  0  0
    5.7799   65.5469   89.1742 C   0  0  0  0  0  0  0  0  0  0  0  0
    2.2989   69.8623   81.1889 S   0  0  0  0  0  0  0  0  0  0  0  0
    1.8856   69.7312   79.8092 O   0  0  0  0  0  0  0  0  0  0  0  0
    3.6341   70.3015   81.5388 O   0  0  0  0  0  0  0  0  0  0  0  0
    1.2067   70.8937   81.9864 N   0  0  0  0  0  0  0  0  0  0  0  0
    1.8149   72.0191   82.7683 C   0  0  0  0  0  0  0  0  0  0  0  0
    1.6417   73.3661   82.0447 C   0  0  0  0  0  0  0  0  0  0  0  0
    0.2243   73.7519   81.8785 N   0  0  0  0  0  0  0  0  0  0  0  0
    0.0796   74.7073   80.7825 C   0  0  0  0  0  0  0  0  0  0  0  0
   -0.6425   72.5686   81.6967 C   0  0  0  0  0  0  0  0  0  0  0  0
    0.0707   71.3352   81.1136 C   0  0  0  0  0  0  0  0  0  0  0  0
    1.4083   64.6172   83.8510 O   0  0  0  0  0  0  0  0  0  0  0  0
    0.1002   64.2571   84.3027 C   0  0  0  0  0  0  0  0  0  0  0  0
    0.1195   64.1349   86.8213 C   0  0  0  0  0  0  0  0  0  0  0  0
    0.2664   63.3590   85.5250 C   0  0  0  0  0  0  0  0  0  0  0  0
 31 32  1  0  0  0
 32 30  1  0  0  0
 30 29  1  0  0  0
 29  1  1  0  0  0
  1  2  1  0  0  0
  2  3  2  0  0  0
  3  4  1  0  0  0
  4 19  1  0  0  0
 19 20  2  0  0  0
 19 21  2  0  0  0
 19 22  1  0  0  0
 22 23  1  0  0  0
 23 24  1  0  0  0
 24 25  1  0  0  0
 25 26  1  0  0  0
 25 27  1  0  0  0
 27 28  1  0  0  0
  4  5  2  0  0  0
  5  6  1  0  0  0
  6  7  1  0  0  0
  7  8  2  0  0  0
  8  9  1  0  0  0
  9 15  1  0  0  0
 15 16  1  0  0  0
  9 10  2  0  0  0
 10 17  1  0  0  0
 17 18  1  0  0  0
 10 11  1  0  0  0
 11 12  2  0  0  0
 11 13  1  0  0  0
  6  1  2  0  0  0
 13  7  1  0  0  0
 28 22  1  0  0  0
 13 14  1  0  0  0
M  END
> <minimizedAffinity>
-8.91993

$$$$



 32 34  0  0  0  0  0  0  0  0999 V2000
    0.5034   64.2559   85.8626 C   0  0  0  0  0  0  0  0  0  0  0  0
   -0.6405   63.4910   85.5809 C   0  0  0  0  0  0  0  0  0  0  0  0
   -0.9837   63.1713   84.2649 C   0  0  0  0  0  0  0  0  0  0  0  0
   -0.1816   63.6201   83.2197 C   0  0  0  0  0  0  0  0  0  0  0  0
    0.9582   64.3842   83.4745 C   0  0  0  0  0  0  0  0  0  0  0  0
    1.3157   64.7077   84.7956 C   0  0  0  0  0  0  0  0  0  0  0  0
    2.5652   65.5236   84.9716 C   0  0  0  0  0  0  0  0  0  0  0  0
    2.7685   66.5823   84.2534 N   0  0  0  0  0  0  0  0  0  0  0  0
    3.9213   67.3135   84.4463 C   0  0  0  0  0  0  0  0  0  0  0  0
    4.8794   66.9843   85.3378 C   0  0  0  0  0  0  0  0  0  0  0  0
    4.6413   65.7634   86.1505 C   0  0  0  0  0  0  0  0  0  0  0  0
    5.4408   65.3586   86.9886 O   0  0  0  0  0  0  0  0  0  0  0  0
    3.4714   65.1146   85.9092 N   0  0  0  0  0  0  0  0  0  0  0  0
    3.3010   64.2779   86.4511 H   0  0  0  0  0  0  0  0  0  0  0  0
    3.9993   68.5305   83.5432 C   0  0  0  0  0  0  0  0  0  0  0  0
    2.6405   69.1983   83.3721 C   0  0  0  0  0  0  0  0  0  0  0  0
    6.1756   67.7042   85.5966 C   0  0  0  0  0  0  0  0  0  0  0  0
    7.3387   67.0695   84.8473 C   0  0  0  0  0  0  0  0  0  0  0  0
   -0.5946   63.2196   81.5410 S   0  0  0  0  0  0  0  0  0  0  0  0
    0.4996   62.4363   81.0112 O   0  0  0  0  0  0  0  0  0  0  0  0
   -1.0461   64.4284   80.8829 O   0  0  0  0  0  0  0  0  0  0  0  0
   -1.9505   62.2077   81.7162 N   0  0  0  0  0  0  0  0  0  0  0  0
   -3.2191   62.6906   81.0795 C   0  0  0  0  0  0  0  0  0  0  0  0
   -3.5386   61.9064   79.7945 C   0  0  0  0  0  0  0  0  0  0  0  0
   -3.7703   60.4674   80.0413 N   0  0  0  0  0  0  0  0  0  0  0  0
   -3.5525   59.6974   78.8188 C   0  0  0  0  0  0  0  0  0  0  0  0
   -2.9449   59.9690   81.1614 C   0  0  0  0  0  0  0  0  0  0  0  0
   -1.6544   60.7700   81.4125 C   0  0  0  0  0  0  0  0  0  0  0  0
    0.8849   64.5931   87.1369 O   0  0  0  0  0  0  0  0  0  0  0  0
    1.3484   63.5579   88.0078 C   0  0  0  0  0  0  0  0  0  0  0  0
    0.1378   61.7706   89.3112 C   0  0  0  0  0  0  0  0  0  0  0  0
    0.2277   63.2531   88.9976 C   0  0  0  0  0  0  0  0  0  0  0  0
 31 32  1  0  0  0
 32 30  1  0  0  0
 30 29  1  0  0  0
 29  1  1  0  0  0
  1  2  1  0  0  0
  2  3  2  0  0  0
  3  4  1  0  0  0
  4 19  1  0  0  0
 19 20  2  0  0  0
 19 21  2  0  0  0
 19 22  1  0  0  0
 22 23  1  0  0  0
 23 24  1  0  0  0
 24 25  1  0  0  0
 25 26  1  0  0  0
 25 27  1  0  0  0
 27 28  1  0  0  0
  4  5  2  0  0  0
  5  6  1  0  0  0
  6  7  1  0  0  0
  7  8  2  0  0  0
  8  9  1  0  0  0
  9 15  1  0  0  0
 15 16  1  0  0  0
  9 10  2  0  0  0
 10 17  1  0  0  0
 17 18  1  0  0  0
 10 11  1  0  0  0
 11 12  2  0  0  0
 11 13  1  0  0  0
  6  1  2  0  0  0
 13  7  1  0  0  0
 28 22  1  0  0  0
 13 14  1  0  0  0
M  END
> <minimizedAffinity>
-8.83650

$$$$



 32 34  0  0  0  0  0  0  0  0999 V2000
    0.8250   65.7174   80.5765 C   0  0  0  0  0  0  0  0  0  0  0  0
    1.7249   66.7439   80.2458 C   0  0  0  0  0  0  0  0  0  0  0  0
    2.3891   67.4642   81.2417 C   0  0  0  0  0  0  0  0  0  0  0  0
    2.1526   67.1610   82.5794 C   0  0  0  0  0  0  0  0  0  0  0  0
    1.2605   66.1474   82.9326 C   0  0  0  0  0  0  0  0  0  0  0  0
    0.5901   65.4128   81.9383 C   0  0  0  0  0  0  0  0  0  0  0  0
   -0.3410   64.3339   82.4145 C   0  0  0  0  0  0  0  0  0  0  0  0
   -0.1219   63.7203   83.5341 N   0  0  0  0  0  0  0  0  0  0  0  0
   -1.0008   62.7413   83.9465 C   0  0  0  0  0  0  0  0  0  0  0  0
   -2.0854   62.3594   83.2401 C   0  0  0  0  0  0  0  0  0  0  0  0
   -2.3231   63.0629   81.9531 C   0  0  0  0  0  0  0  0  0  0  0  0
   -3.2710   62.8006   81.2195 O   0  0  0  0  0  0  0  0  0  0  0  0
   -1.4192   64.0263   81.6332 N   0  0  0  0  0  0  0  0  0  0  0  0
   -1.5661   64.5076   80.7559 H   0  0  0  0  0  0  0  0  0  0  0  0
   -0.6149   62.1348   85.2828 C   0  0  0  0  0  0  0  0  0  0  0  0
   -0.2588   63.2031   86.3094 C   0  0  0  0  0  0  0  0  0  0  0  0
   -3.0800   61.2876   83.5973 C   0  0  0  0  0  0  0  0  0  0  0  0
   -2.9440   60.0638   82.7025 C   0  0  0  0  0  0  0  0  0  0  0  0
    2.9908   68.0582   83.8606 S   0  0  0  0  0  0  0  0  0  0  0  0
    2.1311   68.0380   85.0234 O   0  0  0  0  0  0  0  0  0  0  0  0
    3.4757   69.3033   83.3015 O   0  0  0  0  0  0  0  0  0  0  0  0
    4.3508   67.0864   84.1751 N   0  0  0  0  0  0  0  0  0  0  0  0
    5.5462   67.7908   84.7433 C   0  0  0  0  0  0  0  0  0  0  0  0
    5.7194   67.4875   86.2420 C   0  0  0  0  0  0  0  0  0  0  0  0
    5.9667   66.0558   86.5145 N   0  0  0  0  0  0  0  0  0  0  0  0
    5.6125   65.7292   87.8939 C   0  0  0  0  0  0  0  0  0  0  0  0
    5.2642   65.1895   85.5448 C   0  0  0  0  0  0  0  0  0  0  0  0
    4.0139   65.8229   84.9079 C   0  0  0  0  0  0  0  0  0  0  0  0
    0.1512   64.9791   79.6361 O   0  0  0  0  0  0  0  0  0  0  0  0
    0.6880   64.9047   78.3128 C   0  0  0  0  0  0  0  0  0  0  0  0
    0.5949   62.4840   79.0133 C   0  0  0  0  0  0  0  0  0  0  0  0
    0.5674   63.4563   77.8479 C   0  0  0  0  0  0  0  0  0  0  0  0
 31 32  1  0  0  0
 32 30  1  0  0  0
 30 29  1  0  0  0
 29  1  1  0  0  0
  1  2  1  0  0  0
  2  3  2  0  0  0
  3  4  1  0  0  0
  4 19  1  0  0  0
 19 20  2  0  0  0
 19 21  2  0  0  0
 19 22  1  0  0  0
 22 23  1  0  0  0
 23 24  1  0  0  0
 24 25  1  0  0  0
 25 26  1  0  0  0
 25 27  1  0  0  0
 27 28  1  0  0  0
  4  5  2  0  0  0
  5  6  1  0  0  0
  6  7  1  0  0  0
  7  8  2  0  0  0
  8  9  1  0  0  0
  9 15  1  0  0  0
 15 16  1  0  0  0
  9 10  2  0  0  0
 10 17  1  0  0  0
 17 18  1  0  0  0
 10 11  1  0  0  0
 11 12  2  0  0  0
 11 13  1  0  0  0
  6  1  2  0  0  0
 13  7  1  0  0  0
 28 22  1  0  0  0
 13 14  1  0  0  0
M  END
> <minimizedAffinity>
-8.82861

$$$$



 32 34  0  0  0  0  0  0  0  0999 V2000
    0.5555   64.0359   85.7728 C   0  0  0  0  0  0  0  0  0  0  0  0
   -0.6336   63.3474   85.4816 C   0  0  0  0  0  0  0  0  0  0  0  0
   -1.1766   63.3658   84.1945 C   0  0  0  0  0  0  0  0  0  0  0  0
   -0.5307   64.0791   83.1888 C   0  0  0  0  0  0  0  0  0  0  0  0
    0.6504   64.7736   83.4548 C   0  0  0  0  0  0  0  0  0  0  0  0
    1.2084   64.7578   84.7456 C   0  0  0  0  0  0  0  0  0  0  0  0
    2.4872   65.5243   84.9329 C   0  0  0  0  0  0  0  0  0  0  0  0
    2.6999   66.6223   84.2793 N   0  0  0  0  0  0  0  0  0  0  0  0
    3.8800   67.3060   84.4811 C   0  0  0  0  0  0  0  0  0  0  0  0
    4.8553   66.8911   85.3165 C   0  0  0  0  0  0  0  0  0  0  0  0
    4.6057   65.6260   86.0549 C   0  0  0  0  0  0  0  0  0  0  0  0
    5.4185   65.1438   86.8374 O   0  0  0  0  0  0  0  0  0  0  0  0
    3.4095   65.0283   85.8108 N   0  0  0  0  0  0  0  0  0  0  0  0
    3.2308   64.1625   86.3020 H   0  0  0  0  0  0  0  0  0  0  0  0
    3.9668   68.5777   83.6577 C   0  0  0  0  0  0  0  0  0  0  0  0
    2.5876   69.1304   83.3201 C   0  0  0  0  0  0  0  0  0  0  0  0
    6.1804   67.5550   85.5785 C   0  0  0  0  0  0  0  0  0  0  0  0
    7.2891   66.9745   84.7121 C   0  0  0  0  0  0  0  0  0  0  0  0
   -1.1987   64.1101   81.5452 S   0  0  0  0  0  0  0  0  0  0  0  0
   -0.9126   65.4173   80.9967 O   0  0  0  0  0  0  0  0  0  0  0  0
   -2.5500   63.5907   81.5935 O   0  0  0  0  0  0  0  0  0  0  0  0
   -0.2482   62.9598   80.7289 N   0  0  0  0  0  0  0  0  0  0  0  0
   -0.6196   61.5238   80.9480 C   0  0  0  0  0  0  0  0  0  0  0  0
   -1.3351   60.9332   79.7203 C   0  0  0  0  0  0  0  0  0  0  0  0
   -0.4848   60.9173   78.5112 N   0  0  0  0  0  0  0  0  0  0  0  0
   -1.3098   60.8561   77.3068 C   0  0  0  0  0  0  0  0  0  0  0  0
    0.4439   62.0667   78.4857 C   0  0  0  0  0  0  0  0  0  0  0  0
   -0.0330   63.2939   79.2835 C   0  0  0  0  0  0  0  0  0  0  0  0
    1.1305   64.0457   87.0188 O   0  0  0  0  0  0  0  0  0  0  0  0
    0.2768   64.0916   88.1650 C   0  0  0  0  0  0  0  0  0  0  0  0
   -0.2093   61.6655   88.6513 C   0  0  0  0  0  0  0  0  0  0  0  0
    0.6102   62.8839   89.0361 C   0  0  0  0  0  0  0  0  0  0  0  0
 31 32  1  0  0  0
 32 30  1  0  0  0
 30 29  1  0  0  0
 29  1  1  0  0  0
  1  2  1  0  0  0
  2  3  2  0  0  0
  3  4  1  0  0  0
  4 19  1  0  0  0
 19 20  2  0  0  0
 19 21  2  0  0  0
 19 22  1  0  0  0
 22 23  1  0  0  0
 23 24  1  0  0  0
 24 25  1  0  0  0
 25 26  1  0  0  0
 25 27  1  0  0  0
 27 28  1  0  0  0
  4  5  2  0  0  0
  5  6  1  0  0  0
  6  7  1  0  0  0
  7  8  2  0  0  0
  8  9  1  0  0  0
  9 15  1  0  0  0
 15 16  1  0  0  0
  9 10  2  0  0  0
 10 17  1  0  0  0
 17 18  1  0  0  0
 10 11  1  0  0  0
 11 12  2  0  0  0
 11 13  1  0  0  0
  6  1  2  0  0  0
 13  7  1  0  0  0
 28 22  1  0  0  0
 13 14  1  0  0  0
M  END
> <minimizedAffinity>
-8.80704

$$$$
