


 31 34  0  0  0  0  0  0  0  0999 V2000
   -1.5275   63.2881   83.4606 C   0  0  0  0  0  0  0  0  0  0  0  0
   -2.1532   60.2298   78.2800 C   0  0  0  0  0  0  0  0  0  0  0  0
   -2.4207   60.3382   79.7014 N   0  0  0  0  0  0  0  0  0  0  0  0
   -3.1752   59.3724   80.3570 C   0  0  0  0  0  0  0  0  0  0  0  0
   -3.6539   58.3797   79.8093 O   0  0  0  0  0  0  0  0  0  0  0  0
   -3.3919   59.5556   81.7104 N   0  0  0  0  0  0  0  0  0  0  0  0
   -2.9354   60.5878   82.4974 C   0  0  0  0  0  0  0  0  0  0  0  0
   -3.1686   60.6468   83.6993 O   0  0  0  0  0  0  0  0  0  0  0  0
   -2.1714   61.5395   81.7660 C   0  0  0  0  0  0  0  0  0  0  0  0
   -1.9378   61.4075   80.4258 C   0  0  0  0  0  0  0  0  0  0  0  0
   -1.2080   62.4393   79.9318 N   0  0  0  0  0  0  0  0  0  0  0  0
   -0.9976   63.2184   80.9718 C   0  0  0  0  0  0  0  0  0  0  0  0
   -0.1740   64.7323   80.8643 S   0  0  0  0  0  0  0  0  0  0  0  0
   -1.5342   62.7029   82.1311 N   0  0  0  0  0  0  0  0  0  0  0  0
   -3.9386   58.8418   82.1662 H   0  0  0  0  0  0  0  0  0  0  0  0
    0.1246   64.6495   79.5604 H   0  0  0  0  0  0  0  0  0  0  0  0
   -0.3982   62.8192   84.3899 C   0  0  0  0  0  0  0  0  0  0  0  0
   -0.8615   61.7446   85.2182 O   0  0  0  0  0  0  0  0  0  0  0  0
   -0.1358   61.5436   85.8412 H   0  0  0  0  0  0  0  0  0  0  0  0
    0.2040   63.9141   85.2802 C   0  0  0  0  0  0  0  0  0  0  0  0
    0.4285   65.0995   84.5034 O   0  0  0  0  0  0  0  0  0  0  0  0
    1.6702   65.6720   84.5160 C   0  0  0  0  0  0  0  0  0  0  0  0
    1.7349   66.9121   83.8799 C   0  0  0  0  0  0  0  0  0  0  0  0
    2.9357   67.6222   83.8201 C   0  0  0  0  0  0  0  0  0  0  0  0
    4.1003   67.1005   84.3983 C   0  0  0  0  0  0  0  0  0  0  0  0
    5.3177   67.7985   84.3493 C   0  0  0  0  0  0  0  0  0  0  0  0
    6.4693   67.2645   84.9289 C   0  0  0  0  0  0  0  0  0  0  0  0
    6.4180   66.0270   85.5632 C   0  0  0  0  0  0  0  0  0  0  0  0
    5.2149   65.3214   85.6201 C   0  0  0  0  0  0  0  0  0  0  0  0
    4.0454   65.8441   85.0430 C   0  0  0  0  0  0  0  0  0  0  0  0
    2.8251   65.1426   85.0945 C   0  0  0  0  0  0  0  0  0  0  0  0
  2  3  1  0  0  0
  3  4  1  0  0  0
  4  5  2  0  0  0
  4  6  1  0  0  0
  6  7  1  0  0  0
  7  8  2  0  0  0
  7  9  1  0  0  0
  9 10  2  0  0  0
 10 11  1  0  0  0
 11 12  2  0  0  0
 12 13  1  0  0  0
 12 14  1  0  0  0
 14  1  1  0  0  0
  1 17  1  0  0  0
 17 18  1  0  0  0
 17 20  1  0  0  0
 20 21  1  0  0  0
 21 22  1  0  0  0
 22 23  1  0  0  0
 23 24  2  0  0  0
 24 25  1  0  0  0
 25 26  2  0  0  0
 26 27  1  0  0  0
 27 28  2  0  0  0
 28 29  1  0  0  0
 29 30  2  0  0  0
 30 31  1  0  0  0
 10  3  1  0  0  0
 31 22  2  0  0  0
 14  9  1  0  0  0
 30 25  1  0  0  0
  6 15  1  0  0  0
 13 16  1  0  0  0
 18 19  1  0  0  0
M  END
> <minimizedAffinity>
-10.37249

$$$$



 31 34  0  0  0  0  0  0  0  0999 V2000
    0.2471   63.7571   79.7055 C   0  0  0  0  0  0  0  0  0  0  0  0
   -3.8194   59.9524   77.3454 C   0  0  0  0  0  0  0  0  0  0  0  0
   -2.9516   60.3194   78.4480 N   0  0  0  0  0  0  0  0  0  0  0  0
   -2.9099   59.5496   79.6046 C   0  0  0  0  0  0  0  0  0  0  0  0
   -3.5738   58.5282   79.7795 O   0  0  0  0  0  0  0  0  0  0  0  0
   -2.0632   59.9741   80.6121 N   0  0  0  0  0  0  0  0  0  0  0  0
   -1.2392   61.0759   80.6021 C   0  0  0  0  0  0  0  0  0  0  0  0
   -0.5081   61.3549   81.5456 O   0  0  0  0  0  0  0  0  0  0  0  0
   -1.3299   61.8185   79.3919 C   0  0  0  0  0  0  0  0  0  0  0  0
   -2.1587   61.4449   78.3712 C   0  0  0  0  0  0  0  0  0  0  0  0
   -2.1014   62.3086   77.3262 N   0  0  0  0  0  0  0  0  0  0  0  0
   -1.2386   63.2267   77.7078 C   0  0  0  0  0  0  0  0  0  0  0  0
   -0.8622   64.6192   76.7585 S   0  0  0  0  0  0  0  0  0  0  0  0
   -0.7060   62.9625   78.9504 N   0  0  0  0  0  0  0  0  0  0  0  0
   -2.0463   59.3994   81.4402 H   0  0  0  0  0  0  0  0  0  0  0  0
   -1.6238   64.2939   75.7048 H   0  0  0  0  0  0  0  0  0  0  0  0
   -0.3395   64.9525   80.4707 C   0  0  0  0  0  0  0  0  0  0  0  0
   -0.0025   66.1745   79.8007 O   0  0  0  0  0  0  0  0  0  0  0  0
   -0.3261   66.8998   80.3702 H   0  0  0  0  0  0  0  0  0  0  0  0
    0.0882   65.0529   81.9408 C   0  0  0  0  0  0  0  0  0  0  0  0
   -0.7176   64.1745   82.7396 O   0  0  0  0  0  0  0  0  0  0  0  0
   -0.3788   63.9758   84.0493 C   0  0  0  0  0  0  0  0  0  0  0  0
    0.5900   64.8573   84.5298 C   0  0  0  0  0  0  0  0  0  0  0  0
    1.0309   64.7821   85.8525 C   0  0  0  0  0  0  0  0  0  0  0  0
    0.5075   63.8172   86.7230 C   0  0  0  0  0  0  0  0  0  0  0  0
    0.9371   63.7248   88.0568 C   0  0  0  0  0  0  0  0  0  0  0  0
    0.4070   62.7570   88.9109 C   0  0  0  0  0  0  0  0  0  0  0  0
   -0.5575   61.8701   88.4423 C   0  0  0  0  0  0  0  0  0  0  0  0
   -0.9946   61.9497   87.1189 C   0  0  0  0  0  0  0  0  0  0  0  0
   -0.4728   62.9183   86.2452 C   0  0  0  0  0  0  0  0  0  0  0  0
   -0.9061   63.0098   84.9082 C   0  0  0  0  0  0  0  0  0  0  0  0
  2  3  1  0  0  0
  3  4  1  0  0  0
  4  5  2  0  0  0
  4  6  1  0  0  0
  6  7  1  0  0  0
  7  8  2  0  0  0
  7  9  1  0  0  0
  9 10  2  0  0  0
 10 11  1  0  0  0
 11 12  2  0  0  0
 12 13  1  0  0  0
 12 14  1  0  0  0
 14  1  1  0  0  0
  1 17  1  0  0  0
 17 18  1  0  0  0
 17 20  1  0  0  0
 20 21  1  0  0  0
 21 22  1  0  0  0
 22 23  1  0  0  0
 23 24  2  0  0  0
 24 25  1  0  0  0
 25 26  2  0  0  0
 26 27  1  0  0  0
 27 28  2  0  0  0
 28 29  1  0  0  0
 29 30  2  0  0  0
 30 31  1  0  0  0
 10  3  1  0  0  0
 31 22  2  0  0  0
 14  9  1  0  0  0
 30 25  1  0  0  0
  6 15  1  0  0  0
 13 16  1  0  0  0
 18 19  1  0  0  0
M  END
> <minimizedAffinity>
-9.88294

$$$$



 31 34  0  0  0  0  0  0  0  0999 V2000
    0.8353   63.7531   78.6573 C   0  0  0  0  0  0  0  0  0  0  0  0
   -4.2804   60.5357   78.9036 C   0  0  0  0  0  0  0  0  0  0  0  0
   -2.9682   60.8305   79.4465 N   0  0  0  0  0  0  0  0  0  0  0  0
   -2.4949   60.1544   80.5650 C   0  0  0  0  0  0  0  0  0  0  0  0
   -3.1220   59.2784   81.1598 O   0  0  0  0  0  0  0  0  0  0  0  0
   -1.2379   60.5022   81.0245 N   0  0  0  0  0  0  0  0  0  0  0  0
   -0.3849   61.4423   80.4939 C   0  0  0  0  0  0  0  0  0  0  0  0
    0.7237   61.6620   80.9685 O   0  0  0  0  0  0  0  0  0  0  0  0
   -0.9291   62.0959   79.3533 C   0  0  0  0  0  0  0  0  0  0  0  0
   -2.1703   61.7942   78.8668 C   0  0  0  0  0  0  0  0  0  0  0  0
   -2.4941   62.5538   77.7901 N   0  0  0  0  0  0  0  0  0  0  0  0
   -1.4499   63.3363   77.6162 C   0  0  0  0  0  0  0  0  0  0  0  0
   -1.3857   64.5679   76.4074 S   0  0  0  0  0  0  0  0  0  0  0  0
   -0.4444   63.0792   78.5220 N   0  0  0  0  0  0  0  0  0  0  0  0
   -0.9133   59.9973   81.8344 H   0  0  0  0  0  0  0  0  0  0  0  0
   -2.5770   64.2996   75.8551 H   0  0  0  0  0  0  0  0  0  0  0  0
    0.7704   65.2296   79.0753 C   0  0  0  0  0  0  0  0  0  0  0  0
    1.7418   65.9880   78.3425 O   0  0  0  0  0  0  0  0  0  0  0  0
    1.7143   66.8952   78.7050 H   0  0  0  0  0  0  0  0  0  0  0  0
    0.9623   65.4865   80.5757 C   0  0  0  0  0  0  0  0  0  0  0  0
   -0.1712   64.9874   81.3003 O   0  0  0  0  0  0  0  0  0  0  0  0
   -0.0379   64.7243   82.6355 C   0  0  0  0  0  0  0  0  0  0  0  0
    0.8282   65.5890   83.3054 C   0  0  0  0  0  0  0  0  0  0  0  0
    1.0580   65.4495   84.6755 C   0  0  0  0  0  0  0  0  0  0  0  0
    0.4221   64.4357   85.4040 C   0  0  0  0  0  0  0  0  0  0  0  0
    0.6395   64.2784   86.7824 C   0  0  0  0  0  0  0  0  0  0  0  0
   -0.0005   63.2625   87.4934 C   0  0  0  0  0  0  0  0  0  0  0  0
   -0.8641   62.3919   86.8357 C   0  0  0  0  0  0  0  0  0  0  0  0
   -1.0901   62.5358   85.4657 C   0  0  0  0  0  0  0  0  0  0  0  0
   -0.4553   63.5535   84.7340 C   0  0  0  0  0  0  0  0  0  0  0  0
   -0.6758   63.7100   83.3518 C   0  0  0  0  0  0  0  0  0  0  0  0
  2  3  1  0  0  0
  3  4  1  0  0  0
  4  5  2  0  0  0
  4  6  1  0  0  0
  6  7  1  0  0  0
  7  8  2  0  0  0
  7  9  1  0  0  0
  9 10  2  0  0  0
 10 11  1  0  0  0
 11 12  2  0  0  0
 12 13  1  0  0  0
 12 14  1  0  0  0
 14  1  1  0  0  0
  1 17  1  0  0  0
 17 18  1  0  0  0
 17 20  1  0  0  0
 20 21  1  0  0  0
 21 22  1  0  0  0
 22 23  1  0  0  0
 23 24  2  0  0  0
 24 25  1  0  0  0
 25 26  2  0  0  0
 26 27  1  0  0  0
 27 28  2  0  0  0
 28 29  1  0  0  0
 29 30  2  0  0  0
 30 31  1  0  0  0
 10  3  1  0  0  0
 31 22  2  0  0  0
 14  9  1  0  0  0
 30 25  1  0  0  0
  6 15  1  0  0  0
 13 16  1  0  0  0
 18 19  1  0  0  0
M  END
> <minimizedAffinity>
-9.85787

$$$$



 31 34  0  0  0  0  0  0  0  0999 V2000
   -1.1230   63.3306   82.5643 C   0  0  0  0  0  0  0  0  0  0  0  0
   -2.6782   59.9402   77.8032 C   0  0  0  0  0  0  0  0  0  0  0  0
   -2.7013   60.1575   79.2370 N   0  0  0  0  0  0  0  0  0  0  0  0
   -3.3576   59.2674   80.0791 C   0  0  0  0  0  0  0  0  0  0  0  0
   -3.9441   58.2563   79.6941 O   0  0  0  0  0  0  0  0  0  0  0  0
   -3.3402   59.5528   81.4320 N   0  0  0  0  0  0  0  0  0  0  0  0
   -2.7345   60.6209   82.0529 C   0  0  0  0  0  0  0  0  0  0  0  0
   -2.7617   60.7723   83.2689 O   0  0  0  0  0  0  0  0  0  0  0  0
   -2.0820   61.4912   81.1358 C   0  0  0  0  0  0  0  0  0  0  0  0
   -2.0792   61.2573   79.7892 C   0  0  0  0  0  0  0  0  0  0  0  0
   -1.4187   62.2254   79.1052 N   0  0  0  0  0  0  0  0  0  0  0  0
   -1.0191   63.0676   80.0346 C   0  0  0  0  0  0  0  0  0  0  0  0
   -0.1902   64.5401   79.6789 S   0  0  0  0  0  0  0  0  0  0  0  0
   -1.3657   62.6541   81.3020 N   0  0  0  0  0  0  0  0  0  0  0  0
   -3.8193   58.8926   82.0243 H   0  0  0  0  0  0  0  0  0  0  0  0
   -0.1162   64.3554   78.3536 H   0  0  0  0  0  0  0  0  0  0  0  0
    0.1504   62.9093   83.3126 C   0  0  0  0  0  0  0  0  0  0  0  0
   -0.1762   61.9625   84.3384 O   0  0  0  0  0  0  0  0  0  0  0  0
    0.6503   61.7943   84.8321 H   0  0  0  0  0  0  0  0  0  0  0  0
    0.9490   64.0637   83.9322 C   0  0  0  0  0  0  0  0  0  0  0  0
    0.3204   65.3131   83.6114 O   0  0  0  0  0  0  0  0  0  0  0  0
    1.1044   66.3727   83.2477 C   0  0  0  0  0  0  0  0  0  0  0  0
    1.9127   66.8648   84.2729 C   0  0  0  0  0  0  0  0  0  0  0  0
    2.7746   67.9403   84.0489 C   0  0  0  0  0  0  0  0  0  0  0  0
    2.8428   68.5466   82.7878 C   0  0  0  0  0  0  0  0  0  0  0  0
    3.7029   69.6290   82.5417 C   0  0  0  0  0  0  0  0  0  0  0  0
    3.7580   70.2230   81.2801 C   0  0  0  0  0  0  0  0  0  0  0  0
    2.9543   69.7431   80.2506 C   0  0  0  0  0  0  0  0  0  0  0  0
    2.0943   68.6677   80.4801 C   0  0  0  0  0  0  0  0  0  0  0  0
    2.0264   68.0567   81.7434 C   0  0  0  0  0  0  0  0  0  0  0  0
    1.1638   66.9704   81.9876 C   0  0  0  0  0  0  0  0  0  0  0  0
  2  3  1  0  0  0
  3  4  1  0  0  0
  4  5  2  0  0  0
  4  6  1  0  0  0
  6  7  1  0  0  0
  7  8  2  0  0  0
  7  9  1  0  0  0
  9 10  2  0  0  0
 10 11  1  0  0  0
 11 12  2  0  0  0
 12 13  1  0  0  0
 12 14  1  0  0  0
 14  1  1  0  0  0
  1 17  1  0  0  0
 17 18  1  0  0  0
 17 20  1  0  0  0
 20 21  1  0  0  0
 21 22  1  0  0  0
 22 23  1  0  0  0
 23 24  2  0  0  0
 24 25  1  0  0  0
 25 26  2  0  0  0
 26 27  1  0  0  0
 27 28  2  0  0  0
 28 29  1  0  0  0
 29 30  2  0  0  0
 30 31  1  0  0  0
 10  3  1  0  0  0
 31 22  2  0  0  0
 14  9  1  0  0  0
 30 25  1  0  0  0
  6 15  1  0  0  0
 13 16  1  0  0  0
 18 19  1  0  0  0
M  END
> <minimizedAffinity>
-9.57922

$$$$



 31 34  0  0  0  0  0  0  0  0999 V2000
   -0.5642   60.9201   78.8933 C   0  0  0  0  0  0  0  0  0  0  0  0
   -2.6705   62.4474   84.3535 C   0  0  0  0  0  0  0  0  0  0  0  0
   -1.5507   62.0708   83.5121 N   0  0  0  0  0  0  0  0  0  0  0  0
   -0.2685   61.9724   84.0397 C   0  0  0  0  0  0  0  0  0  0  0  0
    0.0112   62.1808   85.2198 O   0  0  0  0  0  0  0  0  0  0  0  0
    0.7444   61.6171   83.1679 N   0  0  0  0  0  0  0  0  0  0  0  0
    0.6313   61.3360   81.8258 C   0  0  0  0  0  0  0  0  0  0  0  0
    1.5948   61.0094   81.1422 O   0  0  0  0  0  0  0  0  0  0  0  0
   -0.7045   61.4548   81.3506 C   0  0  0  0  0  0  0  0  0  0  0  0
   -1.7379   61.8123   82.1707 C   0  0  0  0  0  0  0  0  0  0  0  0
   -2.9167   61.8858   81.5026 N   0  0  0  0  0  0  0  0  0  0  0  0
   -2.6076   61.5810   80.2598 C   0  0  0  0  0  0  0  0  0  0  0  0
   -3.7545   61.6093   78.9691 S   0  0  0  0  0  0  0  0  0  0  0  0
   -1.2732   61.2736   80.1109 N   0  0  0  0  0  0  0  0  0  0  0  0
    1.6652   61.5485   83.5723 H   0  0  0  0  0  0  0  0  0  0  0  0
   -4.8199   61.9197   79.7206 H   0  0  0  0  0  0  0  0  0  0  0  0
   -0.3480   62.0640   77.8916 C   0  0  0  0  0  0  0  0  0  0  0  0
    0.0827   61.5346   76.6307 O   0  0  0  0  0  0  0  0  0  0  0  0
    0.2838   62.3039   76.0625 H   0  0  0  0  0  0  0  0  0  0  0  0
    0.6427   63.1439   78.3462 C   0  0  0  0  0  0  0  0  0  0  0  0
   -0.0760   64.2648   78.8810 O   0  0  0  0  0  0  0  0  0  0  0  0
    0.4883   64.9884   79.8946 C   0  0  0  0  0  0  0  0  0  0  0  0
    1.3288   66.0159   79.4651 C   0  0  0  0  0  0  0  0  0  0  0  0
    1.9700   66.8463   80.3864 C   0  0  0  0  0  0  0  0  0  0  0  0
    1.7812   66.6617   81.7623 C   0  0  0  0  0  0  0  0  0  0  0  0
    2.4165   67.4858   82.7052 C   0  0  0  0  0  0  0  0  0  0  0  0
    2.2192   67.2880   84.0724 C   0  0  0  0  0  0  0  0  0  0  0  0
    1.3859   66.2645   84.5132 C   0  0  0  0  0  0  0  0  0  0  0  0
    0.7474   65.4371   83.5877 C   0  0  0  0  0  0  0  0  0  0  0  0
    0.9335   65.6223   82.2074 C   0  0  0  0  0  0  0  0  0  0  0  0
    0.2942   64.7952   81.2635 C   0  0  0  0  0  0  0  0  0  0  0  0
  2  3  1  0  0  0
  3  4  1  0  0  0
  4  5  2  0  0  0
  4  6  1  0  0  0
  6  7  1  0  0  0
  7  8  2  0  0  0
  7  9  1  0  0  0
  9 10  2  0  0  0
 10 11  1  0  0  0
 11 12  2  0  0  0
 12 13  1  0  0  0
 12 14  1  0  0  0
 14  1  1  0  0  0
  1 17  1  0  0  0
 17 18  1  0  0  0
 17 20  1  0  0  0
 20 21  1  0  0  0
 21 22  1  0  0  0
 22 23  1  0  0  0
 23 24  2  0  0  0
 24 25  1  0  0  0
 25 26  2  0  0  0
 26 27  1  0  0  0
 27 28  2  0  0  0
 28 29  1  0  0  0
 29 30  2  0  0  0
 30 31  1  0  0  0
 10  3  1  0  0  0
 31 22  2  0  0  0
 14  9  1  0  0  0
 30 25  1  0  0  0
  6 15  1  0  0  0
 13 16  1  0  0  0
 18 19  1  0  0  0
M  END
> <minimizedAffinity>
-9.57841

$$$$



 31 34  0  0  0  0  0  0  0  0999 V2000
   -1.4594   63.3427   83.2714 C   0  0  0  0  0  0  0  0  0  0  0  0
   -2.2229   60.1018   78.2219 C   0  0  0  0  0  0  0  0  0  0  0  0
   -2.4518   60.2608   79.6453 N   0  0  0  0  0  0  0  0  0  0  0  0
   -3.1874   59.3191   80.3552 C   0  0  0  0  0  0  0  0  0  0  0  0
   -3.6799   58.3076   79.8563 O   0  0  0  0  0  0  0  0  0  0  0  0
   -3.3674   59.5504   81.7066 N   0  0  0  0  0  0  0  0  0  0  0  0
   -2.8906   60.6099   82.4436 C   0  0  0  0  0  0  0  0  0  0  0  0
   -3.0912   60.7117   83.6485 O   0  0  0  0  0  0  0  0  0  0  0  0
   -2.1476   61.5349   81.6583 C   0  0  0  0  0  0  0  0  0  0  0  0
   -1.9503   61.3552   80.3178 C   0  0  0  0  0  0  0  0  0  0  0  0
   -1.2351   62.3687   79.7677 N   0  0  0  0  0  0  0  0  0  0  0  0
   -0.9972   63.1843   80.7732 C   0  0  0  0  0  0  0  0  0  0  0  0
   -0.1780   64.6933   80.5895 S   0  0  0  0  0  0  0  0  0  0  0  0
   -1.5016   62.7105   81.9642 N   0  0  0  0  0  0  0  0  0  0  0  0
   -3.9010   58.8534   82.2022 H   0  0  0  0  0  0  0  0  0  0  0  0
    0.0851   64.5641   79.2818 H   0  0  0  0  0  0  0  0  0  0  0  0
   -0.2037   63.0590   84.1090 C   0  0  0  0  0  0  0  0  0  0  0  0
   -0.3615   61.8263   84.8241 O   0  0  0  0  0  0  0  0  0  0  0  0
    0.4237   61.7384   85.3992 H   0  0  0  0  0  0  0  0  0  0  0  0
    0.1778   64.1672   85.0993 C   0  0  0  0  0  0  0  0  0  0  0  0
    1.5922   64.4016   85.0408 O   0  0  0  0  0  0  0  0  0  0  0  0
    2.0465   65.5632   84.4805 C   0  0  0  0  0  0  0  0  0  0  0  0
    3.3145   65.9504   84.9150 C   0  0  0  0  0  0  0  0  0  0  0  0
    3.9139   67.1118   84.4237 C   0  0  0  0  0  0  0  0  0  0  0  0
    3.2510   67.9118   83.4839 C   0  0  0  0  0  0  0  0  0  0  0  0
    3.8363   69.0834   82.9773 C   0  0  0  0  0  0  0  0  0  0  0  0
    3.1621   69.8702   82.0425 C   0  0  0  0  0  0  0  0  0  0  0  0
    1.8956   69.4961   81.6040 C   0  0  0  0  0  0  0  0  0  0  0  0
    1.3009   68.3340   82.0986 C   0  0  0  0  0  0  0  0  0  0  0  0
    1.9653   67.5291   83.0392 C   0  0  0  0  0  0  0  0  0  0  0  0
    1.3767   66.3538   83.5450 C   0  0  0  0  0  0  0  0  0  0  0  0
  2  3  1  0  0  0
  3  4  1  0  0  0
  4  5  2  0  0  0
  4  6  1  0  0  0
  6  7  1  0  0  0
  7  8  2  0  0  0
  7  9  1  0  0  0
  9 10  2  0  0  0
 10 11  1  0  0  0
 11 12  2  0  0  0
 12 13  1  0  0  0
 12 14  1  0  0  0
 14  1  1  0  0  0
  1 17  1  0  0  0
 17 18  1  0  0  0
 17 20  1  0  0  0
 20 21  1  0  0  0
 21 22  1  0  0  0
 22 23  1  0  0  0
 23 24  2  0  0  0
 24 25  1  0  0  0
 25 26  2  0  0  0
 26 27  1  0  0  0
 27 28  2  0  0  0
 28 29  1  0  0  0
 29 30  2  0  0  0
 30 31  1  0  0  0
 10  3  1  0  0  0
 31 22  2  0  0  0
 14  9  1  0  0  0
 30 25  1  0  0  0
  6 15  1  0  0  0
 13 16  1  0  0  0
 18 19  1  0  0  0
M  END
> <minimizedAffinity>
-9.55064

$$$$



 31 34  0  0  0  0  0  0  0  0999 V2000
   -1.1309   63.6106   82.4428 C   0  0  0  0  0  0  0  0  0  0  0  0
   -0.5704   61.2933   76.8842 C   0  0  0  0  0  0  0  0  0  0  0  0
   -1.0287   61.1484   78.2526 N   0  0  0  0  0  0  0  0  0  0  0  0
   -1.6838   59.9932   78.6629 C   0  0  0  0  0  0  0  0  0  0  0  0
   -1.9135   59.0315   77.9301 O   0  0  0  0  0  0  0  0  0  0  0  0
   -2.0967   59.9392   79.9815 N   0  0  0  0  0  0  0  0  0  0  0  0
   -1.9254   60.9007   80.9506 C   0  0  0  0  0  0  0  0  0  0  0  0
   -2.3143   60.7452   82.1026 O   0  0  0  0  0  0  0  0  0  0  0  0
   -1.2492   62.0548   80.4657 C   0  0  0  0  0  0  0  0  0  0  0  0
   -0.8301   62.1595   79.1689 C   0  0  0  0  0  0  0  0  0  0  0  0
   -0.2308   63.3515   78.9218 N   0  0  0  0  0  0  0  0  0  0  0  0
   -0.2886   63.9910   80.0710 C   0  0  0  0  0  0  0  0  0  0  0  0
    0.2717   65.6113   80.2775 S   0  0  0  0  0  0  0  0  0  0  0  0
   -0.8706   63.2344   81.0641 N   0  0  0  0  0  0  0  0  0  0  0  0
   -2.5665   59.0913   80.2582 H   0  0  0  0  0  0  0  0  0  0  0  0
    0.7413   65.7685   79.0321 H   0  0  0  0  0  0  0  0  0  0  0  0
   -0.0078   63.2980   83.4427 C   0  0  0  0  0  0  0  0  0  0  0  0
   -0.1913   61.9851   83.9889 O   0  0  0  0  0  0  0  0  0  0  0  0
    0.4967   61.8725   84.6739 H   0  0  0  0  0  0  0  0  0  0  0  0
    0.1334   64.3037   84.5928 C   0  0  0  0  0  0  0  0  0  0  0  0
    0.4997   65.5884   84.0691 O   0  0  0  0  0  0  0  0  0  0  0  0
    1.7811   66.0322   84.2442 C   0  0  0  0  0  0  0  0  0  0  0  0
    2.0148   67.3156   83.7495 C   0  0  0  0  0  0  0  0  0  0  0  0
    3.2746   67.9066   83.8639 C   0  0  0  0  0  0  0  0  0  0  0  0
    4.3297   67.2194   84.4782 C   0  0  0  0  0  0  0  0  0  0  0  0
    5.6040   67.7958   84.6034 C   0  0  0  0  0  0  0  0  0  0  0  0
    6.6450   67.0975   85.2167 C   0  0  0  0  0  0  0  0  0  0  0  0
    6.4250   65.8155   85.7110 C   0  0  0  0  0  0  0  0  0  0  0  0
    5.1635   65.2293   85.5939 C   0  0  0  0  0  0  0  0  0  0  0  0
    4.1035   65.9180   84.9805 C   0  0  0  0  0  0  0  0  0  0  0  0
    2.8259   65.3382   84.8571 C   0  0  0  0  0  0  0  0  0  0  0  0
  2  3  1  0  0  0
  3  4  1  0  0  0
  4  5  2  0  0  0
  4  6  1  0  0  0
  6  7  1  0  0  0
  7  8  2  0  0  0
  7  9  1  0  0  0
  9 10  2  0  0  0
 10 11  1  0  0  0
 11 12  2  0  0  0
 12 13  1  0  0  0
 12 14  1  0  0  0
 14  1  1  0  0  0
  1 17  1  0  0  0
 17 18  1  0  0  0
 17 20  1  0  0  0
 20 21  1  0  0  0
 21 22  1  0  0  0
 22 23  1  0  0  0
 23 24  2  0  0  0
 24 25  1  0  0  0
 25 26  2  0  0  0
 26 27  1  0  0  0
 27 28  2  0  0  0
 28 29  1  0  0  0
 29 30  2  0  0  0
 30 31  1  0  0  0
 10  3  1  0  0  0
 31 22  2  0  0  0
 14  9  1  0  0  0
 30 25  1  0  0  0
  6 15  1  0  0  0
 13 16  1  0  0  0
 18 19  1  0  0  0
M  END
> <minimizedAffinity>
-9.50738

$$$$



 31 34  0  0  0  0  0  0  0  0999 V2000
   -2.2786   62.2263   82.1499 C   0  0  0  0  0  0  0  0  0  0  0  0
   -0.8835   59.4538   76.9586 C   0  0  0  0  0  0  0  0  0  0  0  0
   -1.8903   60.0207   77.8354 N   0  0  0  0  0  0  0  0  0  0  0  0
   -3.2303   60.0272   77.4662 C   0  0  0  0  0  0  0  0  0  0  0  0
   -3.6584   59.5636   76.4096 O   0  0  0  0  0  0  0  0  0  0  0  0
   -4.1245   60.5952   78.3549 N   0  0  0  0  0  0  0  0  0  0  0  0
   -3.8437   61.1527   79.5810 C   0  0  0  0  0  0  0  0  0  0  0  0
   -4.7179   61.6146   80.3054 O   0  0  0  0  0  0  0  0  0  0  0  0
   -2.4571   61.1137   79.8974 C   0  0  0  0  0  0  0  0  0  0  0  0
   -1.5335   60.5718   79.0480 C   0  0  0  0  0  0  0  0  0  0  0  0
   -0.2726   60.6625   79.5412 N   0  0  0  0  0  0  0  0  0  0  0  0
   -0.4174   61.2730   80.6985 C   0  0  0  0  0  0  0  0  0  0  0  0
    0.9146   61.7113   81.7061 S   0  0  0  0  0  0  0  0  0  0  0  0
   -1.7366   61.5441   80.9876 N   0  0  0  0  0  0  0  0  0  0  0  0
   -5.0910   60.5862   78.0685 H   0  0  0  0  0  0  0  0  0  0  0  0
    1.8694   61.1656   80.9402 H   0  0  0  0  0  0  0  0  0  0  0  0
   -2.2220   61.4427   83.4696 C   0  0  0  0  0  0  0  0  0  0  0  0
   -3.3647   60.5835   83.5772 O   0  0  0  0  0  0  0  0  0  0  0  0
   -3.3209   60.1757   84.4642 H   0  0  0  0  0  0  0  0  0  0  0  0
   -2.1254   62.3084   84.7328 C   0  0  0  0  0  0  0  0  0  0  0  0
   -0.7508   62.4460   85.1205 O   0  0  0  0  0  0  0  0  0  0  0  0
   -0.0947   63.6089   84.8256 C   0  0  0  0  0  0  0  0  0  0  0  0
    0.5704   64.1814   85.9102 C   0  0  0  0  0  0  0  0  0  0  0  0
    1.2922   65.3672   85.7603 C   0  0  0  0  0  0  0  0  0  0  0  0
    1.3610   66.0056   84.5151 C   0  0  0  0  0  0  0  0  0  0  0  0
    2.0814   67.1986   84.3431 C   0  0  0  0  0  0  0  0  0  0  0  0
    2.1390   67.8230   83.0964 C   0  0  0  0  0  0  0  0  0  0  0  0
    1.4770   67.2633   82.0079 C   0  0  0  0  0  0  0  0  0  0  0  0
    0.7567   66.0777   82.1635 C   0  0  0  0  0  0  0  0  0  0  0  0
    0.6888   65.4347   83.4108 C   0  0  0  0  0  0  0  0  0  0  0  0
   -0.0335   64.2375   83.5807 C   0  0  0  0  0  0  0  0  0  0  0  0
  2  3  1  0  0  0
  3  4  1  0  0  0
  4  5  2  0  0  0
  4  6  1  0  0  0
  6  7  1  0  0  0
  7  8  2  0  0  0
  7  9  1  0  0  0
  9 10  2  0  0  0
 10 11  1  0  0  0
 11 12  2  0  0  0
 12 13  1  0  0  0
 12 14  1  0  0  0
 14  1  1  0  0  0
  1 17  1  0  0  0
 17 18  1  0  0  0
 17 20  1  0  0  0
 20 21  1  0  0  0
 21 22  1  0  0  0
 22 23  1  0  0  0
 23 24  2  0  0  0
 24 25  1  0  0  0
 25 26  2  0  0  0
 26 27  1  0  0  0
 27 28  2  0  0  0
 28 29  1  0  0  0
 29 30  2  0  0  0
 30 31  1  0  0  0
 10  3  1  0  0  0
 31 22  2  0  0  0
 14  9  1  0  0  0
 30 25  1  0  0  0
  6 15  1  0  0  0
 13 16  1  0  0  0
 18 19  1  0  0  0
M  END
> <minimizedAffinity>
-9.47254

$$$$



 31 34  0  0  0  0  0  0  0  0999 V2000
    2.4657   68.4480   82.2581 C   0  0  0  0  0  0  0  0  0  0  0  0
   -1.6992   72.2707   80.1079 C   0  0  0  0  0  0  0  0  0  0  0  0
   -0.5203   72.0437   80.9217 N   0  0  0  0  0  0  0  0  0  0  0  0
    0.0873   73.0944   81.5991 C   0  0  0  0  0  0  0  0  0  0  0  0
   -0.3132   74.2577   81.5723 O   0  0  0  0  0  0  0  0  0  0  0  0
    1.2124   72.7945   82.3450 N   0  0  0  0  0  0  0  0  0  0  0  0
    1.8038   71.5627   82.5067 C   0  0  0  0  0  0  0  0  0  0  0  0
    2.7941   71.3997   83.2102 O   0  0  0  0  0  0  0  0  0  0  0  0
    1.1337   70.5334   81.7885 C   0  0  0  0  0  0  0  0  0  0  0  0
    0.0240   70.7814   81.0300 C   0  0  0  0  0  0  0  0  0  0  0  0
   -0.4350   69.6611   80.4171 N   0  0  0  0  0  0  0  0  0  0  0  0
    0.4023   68.7170   80.7919 C   0  0  0  0  0  0  0  0  0  0  0  0
    0.3098   67.0918   80.2157 S   0  0  0  0  0  0  0  0  0  0  0  0
    1.3649   69.1833   81.6599 N   0  0  0  0  0  0  0  0  0  0  0  0
    1.6348   73.5705   82.8304 H   0  0  0  0  0  0  0  0  0  0  0  0
   -0.8005   67.2544   79.4829 H   0  0  0  0  0  0  0  0  0  0  0  0
    2.2296   67.9407   83.6884 C   0  0  0  0  0  0  0  0  0  0  0  0
    2.8612   68.8193   84.6290 O   0  0  0  0  0  0  0  0  0  0  0  0
    2.7514   68.4073   85.5084 H   0  0  0  0  0  0  0  0  0  0  0  0
    2.6993   66.5039   83.9515 C   0  0  0  0  0  0  0  0  0  0  0  0
    1.8184   65.5799   83.2965 O   0  0  0  0  0  0  0  0  0  0  0  0
    0.9311   64.8647   84.0520 C   0  0  0  0  0  0  0  0  0  0  0  0
    0.0348   64.0969   83.3080 C   0  0  0  0  0  0  0  0  0  0  0  0
   -0.9255   63.3059   83.9419 C   0  0  0  0  0  0  0  0  0  0  0  0
   -1.0069   63.2695   85.3401 C   0  0  0  0  0  0  0  0  0  0  0  0
   -1.9650   62.4807   85.9971 C   0  0  0  0  0  0  0  0  0  0  0  0
   -2.0340   62.4565   87.3906 C   0  0  0  0  0  0  0  0  0  0  0  0
   -1.1476   63.2205   88.1435 C   0  0  0  0  0  0  0  0  0  0  0  0
   -0.1897   64.0097   87.5045 C   0  0  0  0  0  0  0  0  0  0  0  0
   -0.1048   64.0454   86.1025 C   0  0  0  0  0  0  0  0  0  0  0  0
    0.8578   64.8365   85.4458 C   0  0  0  0  0  0  0  0  0  0  0  0
  2  3  1  0  0  0
  3  4  1  0  0  0
  4  5  2  0  0  0
  4  6  1  0  0  0
  6  7  1  0  0  0
  7  8  2  0  0  0
  7  9  1  0  0  0
  9 10  2  0  0  0
 10 11  1  0  0  0
 11 12  2  0  0  0
 12 13  1  0  0  0
 12 14  1  0  0  0
 14  1  1  0  0  0
  1 17  1  0  0  0
 17 18  1  0  0  0
 17 20  1  0  0  0
 20 21  1  0  0  0
 21 22  1  0  0  0
 22 23  1  0  0  0
 23 24  2  0  0  0
 24 25  1  0  0  0
 25 26  2  0  0  0
 26 27  1  0  0  0
 27 28  2  0  0  0
 28 29  1  0  0  0
 29 30  2  0  0  0
 30 31  1  0  0  0
 10  3  1  0  0  0
 31 22  2  0  0  0
 14  9  1  0  0  0
 30 25  1  0  0  0
  6 15  1  0  0  0
 13 16  1  0  0  0
 18 19  1  0  0  0
M  END
> <minimizedAffinity>
-9.42751

$$$$
