
     RDKit          3D

 65 68  0  0  0  0  0  0  0  0999 V2000
   -1.9492    3.6111    2.5182 C   0  0  0  0  0  0  0  0  0  0  0  0
   -2.0014    3.4202    1.0089 C   0  0  0  0  0  0  0  0  0  0  0  0
   -3.3888    3.0203    0.4999 C   0  0  0  0  0  0  0  0  0  0  0  0
   -3.8278    1.6690    0.9489 C   0  0  0  0  0  0  0  0  0  0  0  0
   -4.8448    1.5258    1.8201 N   0  0  0  0  0  0  0  0  0  0  0  0
   -4.9540    0.1830    1.9819 N   0  0  0  0  0  0  0  0  0  0  0  0
   -5.9583   -0.3568    2.8663 C   0  0  0  0  0  0  0  0  0  0  0  0
   -4.0469   -0.5170    1.2506 C   0  0  0  0  0  0  0  0  0  0  0  0
   -3.8076   -1.9075    1.1318 C   0  0  0  0  0  0  0  0  0  0  0  0
   -4.4297   -2.7943    1.7040 O   0  0  0  0  0  0  0  0  0  0  0  0
   -2.7609   -2.1609    0.2752 N   0  0  0  0  0  0  0  0  0  0  0  0
   -2.0319   -1.1834   -0.3944 C   0  0  0  0  0  0  0  0  0  0  0  0
   -0.9042   -1.6574   -1.2766 C   0  0  0  0  0  0  0  0  0  0  0  0
   -0.1170   -0.6545   -1.8764 C   0  0  0  0  0  0  0  0  0  0  0  0
    0.9896   -0.9647   -2.6773 C   0  0  0  0  0  0  0  0  0  0  0  0
    1.8458    0.1369   -3.2580 C   0  0  0  0  0  0  0  0  0  0  0  0
    2.9278    0.6074   -2.3109 C   0  0  0  0  0  0  0  0  0  0  0  0
    4.2277    0.1079   -2.4150 C   0  0  0  0  0  0  0  0  0  0  0  0
    5.2151    0.5347   -1.5268 C   0  0  0  0  0  0  0  0  0  0  0  0
    4.9229    1.4601   -0.5092 C   0  0  0  0  0  0  0  0  0  0  0  0
    6.0635    1.8452    0.3789 C   0  0  0  0  0  0  0  0  0  0  0  0
    7.1239    1.2201    0.3627 O   0  0  0  0  0  0  0  0  0  0  0  0
    5.8865    2.9159    1.2209 N   0  0  0  0  0  0  0  0  0  0  0  0
    6.9040    3.1220    2.1809 O   0  0  0  0  0  0  0  0  0  0  0  0
    3.6088    1.9495   -0.3759 C   0  0  0  0  0  0  0  0  0  0  0  0
    3.3494    2.8264    0.6483 O   0  0  0  0  0  0  0  0  0  0  0  0
    1.9832    3.0742    0.9732 C   0  0  0  0  0  0  0  0  0  0  0  0
    2.6308    1.5283   -1.2903 C   0  0  0  0  0  0  0  0  0  0  0  0
    1.3080   -2.3075   -2.8807 C   0  0  0  0  0  0  0  0  0  0  0  0
    0.5268   -3.3179   -2.3099 C   0  0  0  0  0  0  0  0  0  0  0  0
   -0.5874   -3.0114   -1.5158 C   0  0  0  0  0  0  0  0  0  0  0  0
   -1.3752   -3.9658   -0.9242 O   0  0  0  0  0  0  0  0  0  0  0  0
   -1.3078   -5.3183   -1.3839 C   0  0  0  0  0  0  0  0  0  0  0  0
   -0.3713   -6.1281   -0.5053 C   0  0  0  0  0  0  0  0  0  0  0  0
   -2.2674    0.0978   -0.2838 N   0  0  0  0  0  0  0  0  0  0  0  0
   -3.3170    0.4148    0.5779 C   0  0  0  0  0  0  0  0  0  0  0  0
   -0.9559    3.9602    2.8182 H   0  0  0  0  0  0  0  0  0  0  0  0
   -2.1471    2.6741    3.0477 H   0  0  0  0  0  0  0  0  0  0  0  0
   -2.6827    4.3548    2.8453 H   0  0  0  0  0  0  0  0  0  0  0  0
   -1.2541    2.6745    0.7139 H   0  0  0  0  0  0  0  0  0  0  0  0
   -1.7128    4.3634    0.5296 H   0  0  0  0  0  0  0  0  0  0  0  0
   -3.3757    3.0318   -0.5974 H   0  0  0  0  0  0  0  0  0  0  0  0
   -4.1225    3.7771    0.8048 H   0  0  0  0  0  0  0  0  0  0  0  0
   -5.4564   -0.9208    3.6562 H   0  0  0  0  0  0  0  0  0  0  0  0
   -6.6185   -1.0052    2.2851 H   0  0  0  0  0  0  0  0  0  0  0  0
   -6.5356    0.4612    3.3050 H   0  0  0  0  0  0  0  0  0  0  0  0
   -2.5234   -3.1358    0.1446 H   0  0  0  0  0  0  0  0  0  0  0  0
   -0.3605    0.3932   -1.7060 H   0  0  0  0  0  0  0  0  0  0  0  0
    2.2948   -0.2025   -4.2009 H   0  0  0  0  0  0  0  0  0  0  0  0
    1.2126    0.9882   -3.5417 H   0  0  0  0  0  0  0  0  0  0  0  0
    4.4855   -0.6141   -3.1869 H   0  0  0  0  0  0  0  0  0  0  0  0
    6.2244    0.1384   -1.6318 H   0  0  0  0  0  0  0  0  0  0  0  0
    4.9604    3.2787    1.4338 H   0  0  0  0  0  0  0  0  0  0  0  0
    7.5509    2.4224    1.9414 H   0  0  0  0  0  0  0  0  0  0  0  0
    1.9627    3.6607    1.8967 H   0  0  0  0  0  0  0  0  0  0  0  0
    1.4405    2.1412    1.1593 H   0  0  0  0  0  0  0  0  0  0  0  0
    1.4990    3.6685    0.1919 H   0  0  0  0  0  0  0  0  0  0  0  0
    1.6140    1.9056   -1.2295 H   0  0  0  0  0  0  0  0  0  0  0  0
    2.1745   -2.5821   -3.4794 H   0  0  0  0  0  0  0  0  0  0  0  0
    0.8367   -4.3421   -2.4919 H   0  0  0  0  0  0  0  0  0  0  0  0
   -1.0595   -5.3957   -2.4480 H   0  0  0  0  0  0  0  0  0  0  0  0
   -2.3190   -5.7285   -1.2817 H   0  0  0  0  0  0  0  0  0  0  0  0
    0.6514   -5.7424   -0.5474 H   0  0  0  0  0  0  0  0  0  0  0  0
   -0.3623   -7.1774   -0.8135 H   0  0  0  0  0  0  0  0  0  0  0  0
   -0.6865   -6.0724    0.5421 H   0  0  0  0  0  0  0  0  0  0  0  0
  1  2  1  0
  2  3  1  0
  3  4  1  0
  4  5  2  0
  5  6  1  0
  6  7  1  0
  6  8  1  0
  8  9  1  0
  9 10  2  0
  9 11  1  0
 11 12  1  0
 12 13  1  0
 13 14  1  0
 14 15  2  0
 15 16  1  0
 16 17  1  0
 17 18  1  0
 18 19  2  0
 19 20  1  0
 20 21  1  0
 21 22  2  0
 21 23  1  0
 23 24  1  0
 20 25  2  0
 25 26  1  0
 26 27  1  0
 25 28  1  0
 15 29  1  0
 29 30  2  0
 30 31  1  0
 31 32  1  0
 32 33  1  0
 33 34  1  0
 12 35  2  0
 35 36  1  0
 36  4  1  0
 36  8  2  0
 31 13  2  0
 28 17  2  0
  1 37  1  0
  1 38  1  0
  1 39  1  0
  2 40  1  0
  2 41  1  0
  3 42  1  0
  3 43  1  0
  7 44  1  0
  7 45  1  0
  7 46  1  0
 11 47  1  0
 14 48  1  0
 16 49  1  0
 16 50  1  0
 18 51  1  0
 19 52  1  0
 23 53  1  0
 24 54  1  0
 27 55  1  0
 27 56  1  0
 27 57  1  0
 28 58  1  0
 29 59  1  0
 30 60  1  0
 33 61  1  0
 33 62  1  0
 34 63  1  0
 34 64  1  0
 34 65  1  0
M  END
$$$$
