
     RDKit          3D

 61 65  0  0  0  0  0  0  0  0999 V2000
   -3.9605    6.2004   -0.8807 C   0  0  0  0  0  0  0  0  0  0  0  0
   -3.9601    4.9490   -1.5543 O   0  0  0  0  0  0  0  0  0  0  0  0
   -2.9086    4.1011   -1.3242 C   0  0  0  0  0  0  0  0  0  0  0  0
   -1.8743    4.3493   -0.4165 C   0  0  0  0  0  0  0  0  0  0  0  0
   -0.8421    3.4196   -0.2415 C   0  0  0  0  0  0  0  0  0  0  0  0
   -0.8204    2.2270   -0.9745 C   0  0  0  0  0  0  0  0  0  0  0  0
    0.2674    1.2057   -0.7495 C   0  0  0  0  0  0  0  0  0  0  0  0
   -0.2042    0.3488    0.2885 O   0  0  0  0  0  0  0  0  0  0  0  0
    0.6301   -0.7156    0.5654 C   0  0  0  0  0  0  0  0  0  0  0  0
    1.8612   -0.7098    0.0091 N   0  0  0  0  0  0  0  0  0  0  0  0
    2.6747   -1.7434    0.2768 C   0  0  0  0  0  0  0  0  0  0  0  0
    3.9172   -1.7747   -0.3101 N   0  0  0  0  0  0  0  0  0  0  0  0
    4.4881   -0.5337   -0.8069 C   0  0  0  0  0  0  0  0  0  0  0  0
    5.9067   -0.9399   -1.2105 C   0  0  0  0  0  0  0  0  0  0  0  0
    6.2289   -2.0692   -0.2663 C   0  0  0  0  0  0  0  0  0  0  0  0
    7.3990   -2.9851   -0.5523 C   0  0  0  0  0  0  0  0  0  0  0  0
    7.4771   -2.0153    0.5901 C   0  0  0  0  0  0  0  0  0  0  0  0
    4.9341   -2.6219    0.2991 C   0  0  0  0  0  0  0  0  0  0  0  0
    2.3072   -2.7612    1.0701 N   0  0  0  0  0  0  0  0  0  0  0  0
    1.0685   -2.7246    1.6121 C   0  0  0  0  0  0  0  0  0  0  0  0
    0.1672   -1.7085    1.4013 C   0  0  0  0  0  0  0  0  0  0  0  0
   -1.1653   -1.7800    2.0432 C   0  0  0  0  0  0  0  0  0  0  0  0
   -1.4798   -2.7909    2.6643 O   0  0  0  0  0  0  0  0  0  0  0  0
   -2.0004   -0.6951    1.9095 N   0  0  0  0  0  0  0  0  0  0  0  0
   -3.3857   -0.7286    2.3157 C   0  0  0  0  0  0  0  0  0  0  0  0
   -4.2723   -0.9877    1.1240 C   0  0  0  0  0  0  0  0  0  0  0  0
   -4.7971    0.0783    0.3756 C   0  0  0  0  0  0  0  0  0  0  0  0
   -5.5932   -0.1724   -0.7432 C   0  0  0  0  0  0  0  0  0  0  0  0
   -5.8551   -1.4842   -1.1200 C   0  0  0  0  0  0  0  0  0  0  0  0
   -6.6175   -1.7224   -2.1952 F   0  0  0  0  0  0  0  0  0  0  0  0
   -5.3342   -2.5528   -0.4007 C   0  0  0  0  0  0  0  0  0  0  0  0
   -4.5397   -2.3056    0.7191 C   0  0  0  0  0  0  0  0  0  0  0  0
   -1.8621    1.9694   -1.8741 C   0  0  0  0  0  0  0  0  0  0  0  0
   -2.8914    2.9001   -2.0510 C   0  0  0  0  0  0  0  0  0  0  0  0
   -4.1368    2.5189   -3.1896 Cl  0  0  0  0  0  0  0  0  0  0  0  0
   -3.0782    6.7926   -1.1447 H   0  0  0  0  0  0  0  0  0  0  0  0
   -4.8443    6.7562   -1.2086 H   0  0  0  0  0  0  0  0  0  0  0  0
   -4.0369    6.0637    0.2029 H   0  0  0  0  0  0  0  0  0  0  0  0
   -1.8412    5.2567    0.1781 H   0  0  0  0  0  0  0  0  0  0  0  0
   -0.0547    3.6330    0.4798 H   0  0  0  0  0  0  0  0  0  0  0  0
    1.1937    1.7126   -0.4506 H   0  0  0  0  0  0  0  0  0  0  0  0
    0.4453    0.6468   -1.6774 H   0  0  0  0  0  0  0  0  0  0  0  0
    4.5302    0.2202   -0.0104 H   0  0  0  0  0  0  0  0  0  0  0  0
    3.9382   -0.1240   -1.6609 H   0  0  0  0  0  0  0  0  0  0  0  0
    5.9106   -1.3117   -2.2420 H   0  0  0  0  0  0  0  0  0  0  0  0
    6.6009   -0.0968   -1.1422 H   0  0  0  0  0  0  0  0  0  0  0  0
    8.0068   -2.7880   -1.4286 H   0  0  0  0  0  0  0  0  0  0  0  0
    7.3006   -4.0394   -0.3176 H   0  0  0  0  0  0  0  0  0  0  0  0
    7.4352   -2.4171    1.5968 H   0  0  0  0  0  0  0  0  0  0  0  0
    8.1439   -1.1664    0.4874 H   0  0  0  0  0  0  0  0  0  0  0  0
    4.9395   -2.5346    1.3924 H   0  0  0  0  0  0  0  0  0  0  0  0
    4.7894   -3.6688    0.0111 H   0  0  0  0  0  0  0  0  0  0  0  0
    0.8262   -3.5769    2.2428 H   0  0  0  0  0  0  0  0  0  0  0  0
   -1.7230    0.0605    1.2916 H   0  0  0  0  0  0  0  0  0  0  0  0
   -3.5484   -1.4881    3.0883 H   0  0  0  0  0  0  0  0  0  0  0  0
   -3.6212    0.2447    2.7601 H   0  0  0  0  0  0  0  0  0  0  0  0
   -4.5884    1.1082    0.6571 H   0  0  0  0  0  0  0  0  0  0  0  0
   -6.0068    0.6455   -1.3248 H   0  0  0  0  0  0  0  0  0  0  0  0
   -5.5457   -3.5689   -0.7171 H   0  0  0  0  0  0  0  0  0  0  0  0
   -4.1210   -3.1432    1.2756 H   0  0  0  0  0  0  0  0  0  0  0  0
   -1.8776    1.0381   -2.4373 H   0  0  0  0  0  0  0  0  0  0  0  0
  1  2  1  0
  2  3  1  0
  3  4  1  0
  4  5  2  0
  5  6  1  0
  6  7  1  0
  7  8  1  0
  8  9  1  0
  9 10  2  0
 10 11  1  0
 11 12  1  0
 12 13  1  0
 13 14  1  0
 14 15  1  0
 15 16  1  0
 16 17  1  0
 15 18  1  0
 11 19  2  0
 19 20  1  0
 20 21  2  0
 21 22  1  0
 22 23  2  0
 22 24  1  0
 24 25  1  0
 25 26  1  0
 26 27  1  0
 27 28  2  0
 28 29  1  0
 29 30  1  0
 29 31  2  0
 31 32  1  0
  6 33  2  0
 33 34  1  0
 34 35  1  0
 34  3  2  0
 21  9  1  0
 32 26  2  0
 18 12  1  0
 17 15  1  0
  1 36  1  0
  1 37  1  0
  1 38  1  0
  4 39  1  0
  5 40  1  0
  7 41  1  0
  7 42  1  0
 13 43  1  0
 13 44  1  0
 14 45  1  0
 14 46  1  0
 16 47  1  0
 16 48  1  0
 17 49  1  0
 17 50  1  0
 18 51  1  0
 18 52  1  0
 20 53  1  0
 24 54  1  0
 25 55  1  0
 25 56  1  0
 27 57  1  0
 28 58  1  0
 31 59  1  0
 32 60  1  0
 33 61  1  0
M  END
$$$$
