


 25 27  0  0  0  0  0  0  0  0999 V2000
    0.2120   64.2668   84.8278 C   0  0  0  0  0  0  0  0  0  0  0  0
    1.1171   65.1352   85.2766 N   0  0  0  0  0  0  0  0  0  0  0  0
    1.7081   65.9444   84.3781 C   0  0  0  0  0  0  0  0  0  0  0  0
    1.3868   65.9144   83.0105 C   0  0  0  0  0  0  0  0  0  0  0  0
    1.9521   66.7423   82.0036 C   0  0  0  0  0  0  0  0  0  0  0  0
    1.5559   66.6220   80.6737 C   0  0  0  0  0  0  0  0  0  0  0  0
    0.5964   65.6796   80.3330 C   0  0  0  0  0  0  0  0  0  0  0  0
    0.0399   64.8684   81.3255 C   0  0  0  0  0  0  0  0  0  0  0  0
    0.4181   64.9706   82.6593 C   0  0  0  0  0  0  0  0  0  0  0  0
   -0.1624   64.1630   83.5505 N   0  0  0  0  0  0  0  0  0  0  0  0
   -0.3496   63.4447   85.7975 N   0  0  0  0  0  0  0  0  0  0  0  0
    0.0674   62.5361   85.6336 H   0  0  0  0  0  0  0  0  0  0  0  0
   -0.2311   63.9646   87.1559 C   0  0  0  0  0  0  0  0  0  0  0  0
   -1.3942   63.4799   88.0362 C   0  0  0  0  0  0  0  0  0  0  0  0
    0.2605   62.3409   89.3353 C   0  0  0  0  0  0  0  0  0  0  0  0
   -0.9811   63.0274   89.3308 O   0  0  0  0  0  0  0  0  0  0  0  0
    2.6550   66.8556   84.8886 N   0  0  0  0  0  0  0  0  0  0  0  0
    2.4047   67.1637   85.8224 H   0  0  0  0  0  0  0  0  0  0  0  0
    4.0307   66.5834   84.9407 C   0  0  0  0  0  0  0  0  0  0  0  0
    4.5206   65.3991   85.4820 C   0  0  0  0  0  0  0  0  0  0  0  0
    5.8961   65.1776   85.5030 C   0  0  0  0  0  0  0  0  0  0  0  0
    6.7556   66.1439   84.9864 C   0  0  0  0  0  0  0  0  0  0  0  0
    8.2350   65.9335   84.9499 C   0  0  0  0  0  0  0  0  0  0  0  0
    6.1759   67.2845   84.4459 C   0  0  0  0  0  0  0  0  0  0  0  0
    4.8438   67.5245   84.4178 N   0  0  0  0  0  0  0  0  0  0  0  0
 15 16  1  0  0  0
 16 14  1  0  0  0
 14 13  1  0  0  0
 13 11  1  0  0  0
 11  1  1  0  0  0
  1  2  2  0  0  0
  2  3  1  0  0  0
  3 17  1  0  0  0
 17 19  1  0  0  0
 19 20  2  0  0  0
 20 21  1  0  0  0
 21 22  2  0  0  0
 22 23  1  0  0  0
 22 24  1  0  0  0
 24 25  2  0  0  0
  3  4  2  0  0  0
  4  5  1  0  0  0
  5  6  2  0  0  0
  6  7  1  0  0  0
  7  8  2  0  0  0
  8  9  1  0  0  0
  9 10  2  0  0  0
 10  1  1  0  0  0
 25 19  1  0  0  0
  9  4  1  0  0  0
 11 12  1  0  0  0
 17 18  1  0  0  0
M  END
> <minimizedAffinity>
-8.94128

$$$$



 25 27  0  0  0  0  0  0  0  0999 V2000
   -2.6431   61.2465   83.9247 C   0  0  0  0  0  0  0  0  0  0  0  0
   -1.5866   61.7354   83.2770 N   0  0  0  0  0  0  0  0  0  0  0  0
   -0.7570   62.5490   83.9560 C   0  0  0  0  0  0  0  0  0  0  0  0
   -0.9583   62.8725   85.3085 C   0  0  0  0  0  0  0  0  0  0  0  0
   -0.1241   63.7088   86.0983 C   0  0  0  0  0  0  0  0  0  0  0  0
   -0.4249   63.9612   87.4346 C   0  0  0  0  0  0  0  0  0  0  0  0
   -1.5551   63.3861   87.9973 C   0  0  0  0  0  0  0  0  0  0  0  0
   -2.3726   62.5618   87.2194 C   0  0  0  0  0  0  0  0  0  0  0  0
   -2.0926   62.2941   85.8842 C   0  0  0  0  0  0  0  0  0  0  0  0
   -2.9193   61.4929   85.2075 N   0  0  0  0  0  0  0  0  0  0  0  0
   -3.4740   60.4292   83.1676 N   0  0  0  0  0  0  0  0  0  0  0  0
   -4.1785   61.0559   82.7969 H   0  0  0  0  0  0  0  0  0  0  0  0
   -2.7673   59.6126   82.1861 C   0  0  0  0  0  0  0  0  0  0  0  0
   -3.3137   59.8548   80.7701 C   0  0  0  0  0  0  0  0  0  0  0  0
   -3.8129   61.7050   79.3382 C   0  0  0  0  0  0  0  0  0  0  0  0
   -3.9723   61.1178   80.6198 O   0  0  0  0  0  0  0  0  0  0  0  0
    0.3543   63.0420   83.2422 N   0  0  0  0  0  0  0  0  0  0  0  0
    0.6608   62.3824   82.5348 H   0  0  0  0  0  0  0  0  0  0  0  0
    0.3671   64.2969   82.6142 C   0  0  0  0  0  0  0  0  0  0  0  0
    1.1318   65.3508   83.1041 C   0  0  0  0  0  0  0  0  0  0  0  0
    1.1121   66.5742   82.4376 C   0  0  0  0  0  0  0  0  0  0  0  0
    0.3268   66.7225   81.2970 C   0  0  0  0  0  0  0  0  0  0  0  0
    0.3049   68.0027   80.5255 C   0  0  0  0  0  0  0  0  0  0  0  0
   -0.3853   65.6099   80.8683 C   0  0  0  0  0  0  0  0  0  0  0  0
   -0.3858   64.4128   81.5006 N   0  0  0  0  0  0  0  0  0  0  0  0
 15 16  1  0  0  0
 16 14  1  0  0  0
 14 13  1  0  0  0
 13 11  1  0  0  0
 11  1  1  0  0  0
  1  2  2  0  0  0
  2  3  1  0  0  0
  3 17  1  0  0  0
 17 19  1  0  0  0
 19 20  2  0  0  0
 20 21  1  0  0  0
 21 22  2  0  0  0
 22 23  1  0  0  0
 22 24  1  0  0  0
 24 25  2  0  0  0
  3  4  2  0  0  0
  4  5  1  0  0  0
  5  6  2  0  0  0
  6  7  1  0  0  0
  7  8  2  0  0  0
  8  9  1  0  0  0
  9 10  2  0  0  0
 10  1  1  0  0  0
 25 19  1  0  0  0
  9  4  1  0  0  0
 11 12  1  0  0  0
 17 18  1  0  0  0
M  END
> <minimizedAffinity>
-8.66559

$$$$



 25 27  0  0  0  0  0  0  0  0999 V2000
    1.2110   66.3519   81.5195 C   0  0  0  0  0  0  0  0  0  0  0  0
    1.9833   66.8940   82.4600 N   0  0  0  0  0  0  0  0  0  0  0  0
    1.8734   66.4156   83.7131 C   0  0  0  0  0  0  0  0  0  0  0  0
    1.0003   65.3661   84.0456 C   0  0  0  0  0  0  0  0  0  0  0  0
    0.8366   64.7959   85.3367 C   0  0  0  0  0  0  0  0  0  0  0  0
   -0.0643   63.7551   85.5493 C   0  0  0  0  0  0  0  0  0  0  0  0
   -0.8093   63.2725   84.4831 C   0  0  0  0  0  0  0  0  0  0  0  0
   -0.6445   63.8330   83.2137 C   0  0  0  0  0  0  0  0  0  0  0  0
    0.2489   64.8713   82.9764 C   0  0  0  0  0  0  0  0  0  0  0  0
    0.3532   65.3517   81.7348 N   0  0  0  0  0  0  0  0  0  0  0  0
    1.3537   66.8993   80.2500 N   0  0  0  0  0  0  0  0  0  0  0  0
    0.5102   66.6270   79.7592 H   0  0  0  0  0  0  0  0  0  0  0  0
    1.6579   68.3265   80.2511 C   0  0  0  0  0  0  0  0  0  0  0  0
    0.3720   69.1654   80.1794 C   0  0  0  0  0  0  0  0  0  0  0  0
    1.0525   70.4586   82.0735 C   0  0  0  0  0  0  0  0  0  0  0  0
    0.0021   69.7527   81.4323 O   0  0  0  0  0  0  0  0  0  0  0  0
    2.7106   67.0070   84.6812 N   0  0  0  0  0  0  0  0  0  0  0  0
    2.3251   66.9052   85.6143 H   0  0  0  0  0  0  0  0  0  0  0  0
    4.0747   66.7020   84.8047 C   0  0  0  0  0  0  0  0  0  0  0  0
    4.5073   65.5023   85.3607 C   0  0  0  0  0  0  0  0  0  0  0  0
    5.8741   65.2482   85.4535 C   0  0  0  0  0  0  0  0  0  0  0  0
    6.7823   66.1981   84.9927 C   0  0  0  0  0  0  0  0  0  0  0  0
    8.2563   65.9532   85.0339 C   0  0  0  0  0  0  0  0  0  0  0  0
    6.2591   67.3563   84.4324 C   0  0  0  0  0  0  0  0  0  0  0  0
    4.9364   67.6278   84.3349 N   0  0  0  0  0  0  0  0  0  0  0  0
 15 16  1  0  0  0
 16 14  1  0  0  0
 14 13  1  0  0  0
 13 11  1  0  0  0
 11  1  1  0  0  0
  1  2  2  0  0  0
  2  3  1  0  0  0
  3 17  1  0  0  0
 17 19  1  0  0  0
 19 20  2  0  0  0
 20 21  1  0  0  0
 21 22  2  0  0  0
 22 23  1  0  0  0
 22 24  1  0  0  0
 24 25  2  0  0  0
  3  4  2  0  0  0
  4  5  1  0  0  0
  5  6  2  0  0  0
  6  7  1  0  0  0
  7  8  2  0  0  0
  8  9  1  0  0  0
  9 10  2  0  0  0
 10  1  1  0  0  0
 25 19  1  0  0  0
  9  4  1  0  0  0
 11 12  1  0  0  0
 17 18  1  0  0  0
M  END
> <minimizedAffinity>
-8.59871

$$$$



 25 27  0  0  0  0  0  0  0  0999 V2000
    0.8995   65.6977   81.8790 C   0  0  0  0  0  0  0  0  0  0  0  0
    1.7139   66.3888   82.6753 N   0  0  0  0  0  0  0  0  0  0  0  0
    1.7004   66.0979   83.9893 C   0  0  0  0  0  0  0  0  0  0  0  0
    0.8838   65.0904   84.5301 C   0  0  0  0  0  0  0  0  0  0  0  0
    0.8219   64.7132   85.8986 C   0  0  0  0  0  0  0  0  0  0  0  0
   -0.0305   63.6961   86.3217 C   0  0  0  0  0  0  0  0  0  0  0  0
   -0.8276   63.0460   85.3908 C   0  0  0  0  0  0  0  0  0  0  0  0
   -0.7630   63.4169   84.0450 C   0  0  0  0  0  0  0  0  0  0  0  0
    0.0804   64.4277   83.5984 C   0  0  0  0  0  0  0  0  0  0  0  0
    0.0890   64.7221   82.2959 N   0  0  0  0  0  0  0  0  0  0  0  0
    0.9425   66.0551   80.5366 N   0  0  0  0  0  0  0  0  0  0  0  0
    1.9254   66.0166   80.2942 H   0  0  0  0  0  0  0  0  0  0  0  0
    0.0457   65.2775   79.6876 C   0  0  0  0  0  0  0  0  0  0  0  0
    0.7111   64.9410   78.3436 C   0  0  0  0  0  0  0  0  0  0  0  0
    0.4629   62.6930   79.1230 C   0  0  0  0  0  0  0  0  0  0  0  0
    1.1374   63.5774   78.2423 O   0  0  0  0  0  0  0  0  0  0  0  0
    2.5797   66.8431   84.8012 N   0  0  0  0  0  0  0  0  0  0  0  0
    2.2553   66.8774   85.7620 H   0  0  0  0  0  0  0  0  0  0  0  0
    3.9564   66.5833   84.8803 C   0  0  0  0  0  0  0  0  0  0  0  0
    4.4463   65.4033   85.4310 C   0  0  0  0  0  0  0  0  0  0  0  0
    5.8230   65.1941   85.4790 C   0  0  0  0  0  0  0  0  0  0  0  0
    6.6838   66.1683   84.9794 C   0  0  0  0  0  0  0  0  0  0  0  0
    8.1655   65.9713   84.9720 C   0  0  0  0  0  0  0  0  0  0  0  0
    6.1046   67.3038   84.4278 C   0  0  0  0  0  0  0  0  0  0  0  0
    4.7712   67.5318   84.3735 N   0  0  0  0  0  0  0  0  0  0  0  0
 15 16  1  0  0  0
 16 14  1  0  0  0
 14 13  1  0  0  0
 13 11  1  0  0  0
 11  1  1  0  0  0
  1  2  2  0  0  0
  2  3  1  0  0  0
  3 17  1  0  0  0
 17 19  1  0  0  0
 19 20  2  0  0  0
 20 21  1  0  0  0
 21 22  2  0  0  0
 22 23  1  0  0  0
 22 24  1  0  0  0
 24 25  2  0  0  0
  3  4  2  0  0  0
  4  5  1  0  0  0
  5  6  2  0  0  0
  6  7  1  0  0  0
  7  8  2  0  0  0
  8  9  1  0  0  0
  9 10  2  0  0  0
 10  1  1  0  0  0
 25 19  1  0  0  0
  9  4  1  0  0  0
 11 12  1  0  0  0
 17 18  1  0  0  0
M  END
> <minimizedAffinity>
-8.59338

$$$$



 25 27  0  0  0  0  0  0  0  0999 V2000
    0.1663   64.4383   84.6668 C   0  0  0  0  0  0  0  0  0  0  0  0
    1.0778   65.2848   85.1433 N   0  0  0  0  0  0  0  0  0  0  0  0
    1.7315   66.0632   84.2612 C   0  0  0  0  0  0  0  0  0  0  0  0
    1.4683   66.0242   82.8815 C   0  0  0  0  0  0  0  0  0  0  0  0
    2.1015   66.8205   81.8897 C   0  0  0  0  0  0  0  0  0  0  0  0
    1.7591   66.6939   80.5455 C   0  0  0  0  0  0  0  0  0  0  0  0
    0.7863   65.7766   80.1755 C   0  0  0  0  0  0  0  0  0  0  0  0
    0.1629   64.9964   81.1530 C   0  0  0  0  0  0  0  0  0  0  0  0
    0.4867   65.1054   82.5005 C   0  0  0  0  0  0  0  0  0  0  0  0
   -0.1561   64.3283   83.3758 N   0  0  0  0  0  0  0  0  0  0  0  0
   -0.4616   63.6471   85.6215 N   0  0  0  0  0  0  0  0  0  0  0  0
   -1.1856   64.2410   86.0081 H   0  0  0  0  0  0  0  0  0  0  0  0
   -0.9022   62.3498   85.1189 C   0  0  0  0  0  0  0  0  0  0  0  0
   -2.4350   62.2388   85.1457 C   0  0  0  0  0  0  0  0  0  0  0  0
   -2.4645   61.2187   82.9820 C   0  0  0  0  0  0  0  0  0  0  0  0
   -2.9466   61.1894   84.3160 O   0  0  0  0  0  0  0  0  0  0  0  0
    2.6835   66.9522   84.8008 N   0  0  0  0  0  0  0  0  0  0  0  0
    2.4200   67.2538   85.7330 H   0  0  0  0  0  0  0  0  0  0  0  0
    4.0530   66.6558   84.8765 C   0  0  0  0  0  0  0  0  0  0  0  0
    4.5119   65.4557   85.4099 C   0  0  0  0  0  0  0  0  0  0  0  0
    5.8827   65.2104   85.4553 C   0  0  0  0  0  0  0  0  0  0  0  0
    6.7687   66.1693   84.9704 C   0  0  0  0  0  0  0  0  0  0  0  0
    8.2448   65.9343   84.9606 C   0  0  0  0  0  0  0  0  0  0  0  0
    6.2193   67.3273   84.4354 C   0  0  0  0  0  0  0  0  0  0  0  0
    4.8923   67.5904   84.3840 N   0  0  0  0  0  0  0  0  0  0  0  0
 15 16  1  0  0  0
 16 14  1  0  0  0
 14 13  1  0  0  0
 13 11  1  0  0  0
 11  1  1  0  0  0
  1  2  2  0  0  0
  2  3  1  0  0  0
  3 17  1  0  0  0
 17 19  1  0  0  0
 19 20  2  0  0  0
 20 21  1  0  0  0
 21 22  2  0  0  0
 22 23  1  0  0  0
 22 24  1  0  0  0
 24 25  2  0  0  0
  3  4  2  0  0  0
  4  5  1  0  0  0
  5  6  2  0  0  0
  6  7  1  0  0  0
  7  8  2  0  0  0
  8  9  1  0  0  0
  9 10  2  0  0  0
 10  1  1  0  0  0
 25 19  1  0  0  0
  9  4  1  0  0  0
 11 12  1  0  0  0
 17 18  1  0  0  0
M  END
> <minimizedAffinity>
-8.59112

$$$$



 25 27  0  0  0  0  0  0  0  0999 V2000
    0.8613   66.1142   81.8501 C   0  0  0  0  0  0  0  0  0  0  0  0
    1.6854   66.7094   82.7111 N   0  0  0  0  0  0  0  0  0  0  0  0
    1.7044   66.2534   83.9772 C   0  0  0  0  0  0  0  0  0  0  0  0
    0.9114   65.1739   84.4017 C   0  0  0  0  0  0  0  0  0  0  0  0
    0.8843   64.6245   85.7118 C   0  0  0  0  0  0  0  0  0  0  0  0
    0.0529   63.5500   86.0192 C   0  0  0  0  0  0  0  0  0  0  0  0
   -0.7573   63.0128   85.0295 C   0  0  0  0  0  0  0  0  0  0  0  0
   -0.7269   63.5530   83.7411 C   0  0  0  0  0  0  0  0  0  0  0  0
    0.0949   64.6241   83.4098 C   0  0  0  0  0  0  0  0  0  0  0  0
    0.0713   65.0821   82.1557 N   0  0  0  0  0  0  0  0  0  0  0  0
    0.8703   66.6402   80.5637 N   0  0  0  0  0  0  0  0  0  0  0  0
    0.9608   65.8324   79.9590 H   0  0  0  0  0  0  0  0  0  0  0  0
   -0.2529   67.5272   80.2786 C   0  0  0  0  0  0  0  0  0  0  0  0
    0.2102   68.9892   80.1756 C   0  0  0  0  0  0  0  0  0  0  0  0
    0.9508   70.3777   81.9774 C   0  0  0  0  0  0  0  0  0  0  0  0
   -0.1520   69.7847   81.3103 O   0  0  0  0  0  0  0  0  0  0  0  0
    2.5932   66.9012   84.8593 N   0  0  0  0  0  0  0  0  0  0  0  0
    2.3070   66.7818   85.8253 H   0  0  0  0  0  0  0  0  0  0  0  0
    3.9792   66.6815   84.8499 C   0  0  0  0  0  0  0  0  0  0  0  0
    4.8656   67.6314   84.3523 C   0  0  0  0  0  0  0  0  0  0  0  0
    6.2328   67.3638   84.3726 C   0  0  0  0  0  0  0  0  0  0  0  0
    6.6882   66.1521   84.8862 C   0  0  0  0  0  0  0  0  0  0  0  0
    8.1472   65.8371   84.9664 C   0  0  0  0  0  0  0  0  0  0  0  0
    5.7327   65.2742   85.3817 C   0  0  0  0  0  0  0  0  0  0  0  0
    4.3995   65.5094   85.3692 N   0  0  0  0  0  0  0  0  0  0  0  0
 15 16  1  0  0  0
 16 14  1  0  0  0
 14 13  1  0  0  0
 13 11  1  0  0  0
 11  1  1  0  0  0
  1  2  2  0  0  0
  2  3  1  0  0  0
  3 17  1  0  0  0
 17 19  1  0  0  0
 19 20  2  0  0  0
 20 21  1  0  0  0
 21 22  2  0  0  0
 22 23  1  0  0  0
 22 24  1  0  0  0
 24 25  2  0  0  0
  3  4  2  0  0  0
  4  5  1  0  0  0
  5  6  2  0  0  0
  6  7  1  0  0  0
  7  8  2  0  0  0
  8  9  1  0  0  0
  9 10  2  0  0  0
 10  1  1  0  0  0
 25 19  1  0  0  0
  9  4  1  0  0  0
 11 12  1  0  0  0
 17 18  1  0  0  0
M  END
> <minimizedAffinity>
-8.45032

$$$$



 25 27  0  0  0  0  0  0  0  0999 V2000
   -2.6527   61.2077   83.8689 C   0  0  0  0  0  0  0  0  0  0  0  0
   -1.5971   61.6884   83.2138 N   0  0  0  0  0  0  0  0  0  0  0  0
   -0.7693   62.5144   83.8799 C   0  0  0  0  0  0  0  0  0  0  0  0
   -0.9716   62.8590   85.2271 C   0  0  0  0  0  0  0  0  0  0  0  0
   -0.1393   63.7095   86.0035 C   0  0  0  0  0  0  0  0  0  0  0  0
   -0.4410   63.9826   87.3356 C   0  0  0  0  0  0  0  0  0  0  0  0
   -1.5702   63.4143   87.9071 C   0  0  0  0  0  0  0  0  0  0  0  0
   -2.3858   62.5760   87.1422 C   0  0  0  0  0  0  0  0  0  0  0  0
   -2.1050   62.2876   85.8116 C   0  0  0  0  0  0  0  0  0  0  0  0
   -2.9298   61.4740   85.1476 N   0  0  0  0  0  0  0  0  0  0  0  0
   -3.4818   60.3767   83.1248 N   0  0  0  0  0  0  0  0  0  0  0  0
   -4.2527   60.9712   82.8445 H   0  0  0  0  0  0  0  0  0  0  0  0
   -2.7981   59.6689   82.0472 C   0  0  0  0  0  0  0  0  0  0  0  0
   -3.3607   60.0749   80.6757 C   0  0  0  0  0  0  0  0  0  0  0  0
   -2.5673   59.7116   78.4483 C   0  0  0  0  0  0  0  0  0  0  0  0
   -3.0753   59.1296   79.6383 O   0  0  0  0  0  0  0  0  0  0  0  0
    0.3412   62.9982   83.1586 N   0  0  0  0  0  0  0  0  0  0  0  0
    0.6252   62.3447   82.4362 H   0  0  0  0  0  0  0  0  0  0  0  0
    0.3693   64.2628   82.5511 C   0  0  0  0  0  0  0  0  0  0  0  0
   -0.4745   64.5831   81.4923 C   0  0  0  0  0  0  0  0  0  0  0  0
   -0.4087   65.8563   80.9301 C   0  0  0  0  0  0  0  0  0  0  0  0
    0.5002   66.7836   81.4335 C   0  0  0  0  0  0  0  0  0  0  0  0
    0.5789   68.1739   80.8900 C   0  0  0  0  0  0  0  0  0  0  0  0
    1.2862   66.3831   82.5063 C   0  0  0  0  0  0  0  0  0  0  0  0
    1.2438   65.1515   83.0667 N   0  0  0  0  0  0  0  0  0  0  0  0
 15 16  1  0  0  0
 16 14  1  0  0  0
 14 13  1  0  0  0
 13 11  1  0  0  0
 11  1  1  0  0  0
  1  2  2  0  0  0
  2  3  1  0  0  0
  3 17  1  0  0  0
 17 19  1  0  0  0
 19 20  2  0  0  0
 20 21  1  0  0  0
 21 22  2  0  0  0
 22 23  1  0  0  0
 22 24  1  0  0  0
 24 25  2  0  0  0
  3  4  2  0  0  0
  4  5  1  0  0  0
  5  6  2  0  0  0
  6  7  1  0  0  0
  7  8  2  0  0  0
  8  9  1  0  0  0
  9 10  2  0  0  0
 10  1  1  0  0  0
 25 19  1  0  0  0
  9  4  1  0  0  0
 11 12  1  0  0  0
 17 18  1  0  0  0
M  END
> <minimizedAffinity>
-8.39750

$$$$



 25 27  0  0  0  0  0  0  0  0999 V2000
    0.6300   64.9542   82.3381 C   0  0  0  0  0  0  0  0  0  0  0  0
    1.4583   65.7589   83.0022 N   0  0  0  0  0  0  0  0  0  0  0  0
    1.4863   65.6594   84.3441 C   0  0  0  0  0  0  0  0  0  0  0  0
    0.6982   64.7333   85.0480 C   0  0  0  0  0  0  0  0  0  0  0  0
    0.6804   64.5557   86.4577 C   0  0  0  0  0  0  0  0  0  0  0  0
   -0.1467   63.6030   87.0477 C   0  0  0  0  0  0  0  0  0  0  0  0
   -0.9622   62.8196   86.2439 C   0  0  0  0  0  0  0  0  0  0  0  0
   -0.9410   62.9941   84.8576 C   0  0  0  0  0  0  0  0  0  0  0  0
   -0.1235   63.9373   84.2455 C   0  0  0  0  0  0  0  0  0  0  0  0
   -0.1560   64.0418   82.9147 N   0  0  0  0  0  0  0  0  0  0  0  0
    0.6298   65.1156   80.9576 N   0  0  0  0  0  0  0  0  0  0  0  0
    1.5558   64.8249   80.6672 H   0  0  0  0  0  0  0  0  0  0  0  0
   -0.4852   64.4575   80.2845 C   0  0  0  0  0  0  0  0  0  0  0  0
    0.0162   63.3783   79.3117 C   0  0  0  0  0  0  0  0  0  0  0  0
   -0.3774   61.3205   80.4665 C   0  0  0  0  0  0  0  0  0  0  0  0
    0.5828   62.2374   79.9664 O   0  0  0  0  0  0  0  0  0  0  0  0
    2.3793   66.5205   85.0140 N   0  0  0  0  0  0  0  0  0  0  0  0
    2.1132   66.6453   85.9851 H   0  0  0  0  0  0  0  0  0  0  0  0
    3.7686   66.3234   85.0292 C   0  0  0  0  0  0  0  0  0  0  0  0
    4.3490   65.2694   85.7275 C   0  0  0  0  0  0  0  0  0  0  0  0
    5.7337   65.1170   85.7038 C   0  0  0  0  0  0  0  0  0  0  0  0
    6.5122   66.0217   84.9863 C   0  0  0  0  0  0  0  0  0  0  0  0
    7.9973   65.8755   84.8981 C   0  0  0  0  0  0  0  0  0  0  0  0
    5.8449   67.0288   84.3012 C   0  0  0  0  0  0  0  0  0  0  0  0
    4.5019   67.2002   84.3123 N   0  0  0  0  0  0  0  0  0  0  0  0
 15 16  1  0  0  0
 16 14  1  0  0  0
 14 13  1  0  0  0
 13 11  1  0  0  0
 11  1  1  0  0  0
  1  2  2  0  0  0
  2  3  1  0  0  0
  3 17  1  0  0  0
 17 19  1  0  0  0
 19 20  2  0  0  0
 20 21  1  0  0  0
 21 22  2  0  0  0
 22 23  1  0  0  0
 22 24  1  0  0  0
 24 25  2  0  0  0
  3  4  2  0  0  0
  4  5  1  0  0  0
  5  6  2  0  0  0
  6  7  1  0  0  0
  7  8  2  0  0  0
  8  9  1  0  0  0
  9 10  2  0  0  0
 10  1  1  0  0  0
 25 19  1  0  0  0
  9  4  1  0  0  0
 11 12  1  0  0  0
 17 18  1  0  0  0
M  END
> <minimizedAffinity>
-8.38328

$$$$



 25 27  0  0  0  0  0  0  0  0999 V2000
   -1.0284   62.7857   84.9433 C   0  0  0  0  0  0  0  0  0  0  0  0
   -1.5859   62.8220   83.7340 N   0  0  0  0  0  0  0  0  0  0  0  0
   -1.1115   63.7216   82.8524 C   0  0  0  0  0  0  0  0  0  0  0  0
   -0.0508   64.5907   83.1591 C   0  0  0  0  0  0  0  0  0  0  0  0
    0.5160   65.5551   82.2830 C   0  0  0  0  0  0  0  0  0  0  0  0
    1.5688   66.3668   82.6985 C   0  0  0  0  0  0  0  0  0  0  0  0
    2.0670   66.2279   83.9858 C   0  0  0  0  0  0  0  0  0  0  0  0
    1.5097   65.2769   84.8448 C   0  0  0  0  0  0  0  0  0  0  0  0
    0.4596   64.4547   84.4528 C   0  0  0  0  0  0  0  0  0  0  0  0
   -0.0167   63.5669   85.3292 N   0  0  0  0  0  0  0  0  0  0  0  0
   -1.5721   61.8512   85.8167 N   0  0  0  0  0  0  0  0  0  0  0  0
   -1.5009   60.9695   85.3227 H   0  0  0  0  0  0  0  0  0  0  0  0
   -0.9895   61.8813   87.1543 C   0  0  0  0  0  0  0  0  0  0  0  0
   -1.7908   62.8055   88.0850 C   0  0  0  0  0  0  0  0  0  0  0  0
    0.3273   62.9720   89.1844 C   0  0  0  0  0  0  0  0  0  0  0  0
   -1.0716   63.1958   89.2605 O   0  0  0  0  0  0  0  0  0  0  0  0
   -1.7193   63.7274   81.5803 N   0  0  0  0  0  0  0  0  0  0  0  0
   -1.5759   64.6132   81.1068 H   0  0  0  0  0  0  0  0  0  0  0  0
   -1.4787   62.7418   80.6109 C   0  0  0  0  0  0  0  0  0  0  0  0
   -0.3016   62.7188   79.8696 C   0  0  0  0  0  0  0  0  0  0  0  0
   -0.1118   61.7134   78.9238 C   0  0  0  0  0  0  0  0  0  0  0  0
   -1.1021   60.7528   78.7341 C   0  0  0  0  0  0  0  0  0  0  0  0
   -0.9264   59.6322   77.7605 C   0  0  0  0  0  0  0  0  0  0  0  0
   -2.2334   60.8415   79.5350 C   0  0  0  0  0  0  0  0  0  0  0  0
   -2.4427   61.8104   80.4570 N   0  0  0  0  0  0  0  0  0  0  0  0
 15 16  1  0  0  0
 16 14  1  0  0  0
 14 13  1  0  0  0
 13 11  1  0  0  0
 11  1  1  0  0  0
  1  2  2  0  0  0
  2  3  1  0  0  0
  3 17  1  0  0  0
 17 19  1  0  0  0
 19 20  2  0  0  0
 20 21  1  0  0  0
 21 22  2  0  0  0
 22 23  1  0  0  0
 22 24  1  0  0  0
 24 25  2  0  0  0
  3  4  2  0  0  0
  4  5  1  0  0  0
  5  6  2  0  0  0
  6  7  1  0  0  0
  7  8  2  0  0  0
  8  9  1  0  0  0
  9 10  2  0  0  0
 10  1  1  0  0  0
 25 19  1  0  0  0
  9  4  1  0  0  0
 11 12  1  0  0  0
 17 18  1  0  0  0
M  END
> <minimizedAffinity>
-8.30775

$$$$
