
     RDKit          3D

 51 55  0  0  0  0  0  0  0  0999 V2000
    5.3790    1.2997   -2.0093 C   0  0  0  0  0  0  0  0  0  0  0  0
    4.6705    0.6208   -0.8472 C   0  0  0  0  0  0  0  0  0  0  0  0
    4.4405   -0.8658   -1.1258 C   0  0  0  0  0  0  0  0  0  0  0  0
    3.8146   -1.6093    0.0583 C   0  0  0  0  0  0  0  0  0  0  0  0
    2.4652   -1.1727    0.3527 N   0  0  0  0  0  0  0  0  0  0  0  0
    2.1293   -0.2738    1.3307 C   0  0  0  0  0  0  0  0  0  0  0  0
    2.8970    0.2778    2.1083 O   0  0  0  0  0  0  0  0  0  0  0  0
    0.6241   -0.0608    1.3042 C   0  0  1  0  0  0  0  0  0  0  0  0
    0.2462    1.4120    1.1068 C   0  0  0  0  0  0  0  0  0  0  0  0
   -1.1149    1.4950    0.4942 C   0  0  0  0  0  0  0  0  0  0  0  0
   -1.6802    0.4187   -0.1695 C   0  0  0  0  0  0  0  0  0  0  0  0
   -2.9096    0.8062   -0.6312 N   0  0  0  0  0  0  0  0  0  0  0  0
   -3.1563    2.1126   -0.2658 C   0  0  0  0  0  0  0  0  0  0  0  0
   -4.2766    2.9166   -0.5078 C   0  0  0  0  0  0  0  0  0  0  0  0
   -4.2537    4.2257   -0.0175 C   0  0  0  0  0  0  0  0  0  0  0  0
   -3.1534    4.7102    0.6861 C   0  0  0  0  0  0  0  0  0  0  0  0
   -2.0406    3.8945    0.9213 C   0  0  0  0  0  0  0  0  0  0  0  0
   -2.0401    2.5710    0.4398 C   0  0  0  0  0  0  0  0  0  0  0  0
   -1.0832   -0.9479   -0.3681 C   0  0  2  0  0  0  0  0  0  0  0  0
   -1.8653   -2.0801    0.2810 C   0  0  0  0  0  0  0  0  0  0  0  0
   -1.8494   -3.3522   -0.3170 C   0  0  0  0  0  0  0  0  0  0  0  0
   -2.5364   -4.4230    0.2578 C   0  0  0  0  0  0  0  0  0  0  0  0
   -3.2424   -4.2421    1.4443 C   0  0  0  0  0  0  0  0  0  0  0  0
   -3.2554   -2.9934    2.0612 C   0  0  0  0  0  0  0  0  0  0  0  0
   -2.5671   -1.9216    1.4885 C   0  0  0  0  0  0  0  0  0  0  0  0
    0.2737   -0.8902    0.1594 N   0  0  0  0  0  0  0  0  0  0  0  0
    1.3646   -1.5347   -0.3760 C   0  0  0  0  0  0  0  0  0  0  0  0
    1.3469   -2.2750   -1.3470 O   0  0  0  0  0  0  0  0  0  0  0  0
    5.5312    2.3615   -1.7919 H   0  0  0  0  0  0  0  0  0  0  0  0
    4.7885    1.2220   -2.9277 H   0  0  0  0  0  0  0  0  0  0  0  0
    6.3588    0.8465   -2.1907 H   0  0  0  0  0  0  0  0  0  0  0  0
    5.2725    0.7417    0.0607 H   0  0  0  0  0  0  0  0  0  0  0  0
    3.7143    1.1270   -0.6759 H   0  0  0  0  0  0  0  0  0  0  0  0
    3.8075   -0.9765   -2.0146 H   0  0  0  0  0  0  0  0  0  0  0  0
    5.4020   -1.3397   -1.3585 H   0  0  0  0  0  0  0  0  0  0  0  0
    4.4364   -1.4863    0.9519 H   0  0  0  0  0  0  0  0  0  0  0  0
    3.7734   -2.6783   -0.1808 H   0  0  0  0  0  0  0  0  0  0  0  0
    0.1702   -0.4961    2.2011 H   0  0  0  0  0  0  0  0  0  0  0  0
    0.9611    1.9111    0.4402 H   0  0  0  0  0  0  0  0  0  0  0  0
    0.2786    1.9379    2.0675 H   0  0  0  0  0  0  0  0  0  0  0  0
   -3.5563    0.2213   -1.1437 H   0  0  0  0  0  0  0  0  0  0  0  0
   -5.1350    2.5445   -1.0573 H   0  0  0  0  0  0  0  0  0  0  0  0
   -5.1086    4.8758   -0.1901 H   0  0  0  0  0  0  0  0  0  0  0  0
   -3.1567    5.7323    1.0568 H   0  0  0  0  0  0  0  0  0  0  0  0
   -1.1881    4.2824    1.4706 H   0  0  0  0  0  0  0  0  0  0  0  0
   -1.0211   -1.1366   -1.4482 H   0  0  0  0  0  0  0  0  0  0  0  0
   -1.2855   -3.5184   -1.2345 H   0  0  0  0  0  0  0  0  0  0  0  0
   -2.5125   -5.4002   -0.2180 H   0  0  0  0  0  0  0  0  0  0  0  0
   -3.7748   -5.0766    1.8931 H   0  0  0  0  0  0  0  0  0  0  0  0
   -3.7979   -2.8536    2.9928 H   0  0  0  0  0  0  0  0  0  0  0  0
   -2.5852   -0.9599    1.9976 H   0  0  0  0  0  0  0  0  0  0  0  0
  1  2  1  0
  2  3  1  0
  3  4  1  0
  4  5  1  0
  5  6  1  0
  6  7  2  0
  6  8  1  0
  8  9  1  0
  9 10  1  0
 10 11  2  0
 11 12  1  0
 12 13  1  0
 13 14  2  0
 14 15  1  0
 15 16  2  0
 16 17  1  0
 17 18  2  0
 11 19  1  0
 19 20  1  0
 20 21  2  0
 21 22  1  0
 22 23  2  0
 23 24  1  0
 24 25  2  0
 19 26  1  0
 26 27  1  0
 27 28  2  0
 27  5  1  0
 26  8  1  0
 18 10  1  0
 25 20  1  0
 18 13  1  0
  1 29  1  0
  1 30  1  0
  1 31  1  0
  2 32  1  0
  2 33  1  0
  3 34  1  0
  3 35  1  0
  4 36  1  0
  4 37  1  0
  8 38  1  1
  9 39  1  0
  9 40  1  0
 12 41  1  0
 14 42  1  0
 15 43  1  0
 16 44  1  0
 17 45  1  0
 19 46  1  6
 21 47  1  0
 22 48  1  0
 23 49  1  0
 24 50  1  0
 25 51  1  0
M  END
$$$$
