
     RDKit          3D

 57 61  0  0  0  0  0  0  0  0999 V2000
    6.1013   -1.3469    1.1334 C   0  0  0  0  0  0  0  0  0  0  0  0
    5.1503   -0.6475    2.0874 C   0  0  0  0  0  0  0  0  0  0  0  0
    4.2863    0.1915    1.3125 O   0  0  0  0  0  0  0  0  0  0  0  0
    3.1880    0.5782    2.0415 C   0  0  0  0  0  0  0  0  0  0  0  0
    3.3511    1.5125    3.0719 C   0  0  0  0  0  0  0  0  0  0  0  0
    2.2431    1.9689    3.7836 C   0  0  0  0  0  0  0  0  0  0  0  0
    0.9715    1.5071    3.4569 C   0  0  0  0  0  0  0  0  0  0  0  0
    0.8096    0.5920    2.4133 C   0  0  0  0  0  0  0  0  0  0  0  0
    1.9127    0.1115    1.6798 C   0  0  0  0  0  0  0  0  0  0  0  0
    1.7012   -0.8500    0.5917 C   0  0  0  0  0  0  0  0  0  0  0  0
    2.3620   -2.0288    0.6819 N   0  0  0  0  0  0  0  0  0  0  0  0
    2.1251   -2.9393   -0.2730 C   0  0  0  0  0  0  0  0  0  0  0  0
    2.8303   -4.1022   -0.1385 O   0  0  0  0  0  0  0  0  0  0  0  0
    1.2233   -2.6977   -1.3037 C   0  0  0  0  0  0  0  0  0  0  0  0
    0.8084   -3.4427   -2.3785 N   0  0  0  0  0  0  0  0  0  0  0  0
   -0.0548   -2.6747   -3.0087 C   0  0  0  0  0  0  0  0  0  0  0  0
   -0.7822   -2.9225   -4.2050 C   0  0  0  0  0  0  0  0  0  0  0  0
   -1.6036   -1.9798   -4.6961 C   0  0  0  0  0  0  0  0  0  0  0  0
   -1.7755   -0.7058   -4.0253 C   0  0  0  0  0  0  0  0  0  0  0  0
   -1.1214   -0.4485   -2.8700 C   0  0  0  0  0  0  0  0  0  0  0  0
   -1.2774    0.8759   -2.1621 C   0  0  0  0  0  0  0  0  0  0  0  0
   -2.0360    0.7956   -0.9090 N   0  0  0  0  0  0  0  0  0  0  0  0
   -1.8275    2.0229   -0.1128 C   0  0  0  0  0  0  0  0  0  0  0  0
   -2.8501    2.1396    1.0342 C   0  0  0  0  0  0  0  0  0  0  0  0
   -4.2335    2.3160    0.5450 N   0  0  0  0  0  0  0  0  0  0  0  0
   -5.1899    1.8189    1.5302 C   0  0  0  0  0  0  0  0  0  0  0  0
   -4.4243    1.6848   -0.7749 C   0  0  0  0  0  0  0  0  0  0  0  0
   -3.4724    0.5043   -1.0826 C   0  0  0  0  0  0  0  0  0  0  0  0
   -0.2421   -1.4384   -2.3725 N   0  0  0  0  0  0  0  0  0  0  0  0
    0.6005   -1.4583   -1.2725 C   0  0  0  0  0  0  0  0  0  0  0  0
    0.8027   -0.4945   -0.3527 N   0  0  0  0  0  0  0  0  0  0  0  0
    6.6810   -0.6151    0.5612 H   0  0  0  0  0  0  0  0  0  0  0  0
    5.5454   -1.9506    0.4084 H   0  0  0  0  0  0  0  0  0  0  0  0
    6.7918   -1.9968    1.6780 H   0  0  0  0  0  0  0  0  0  0  0  0
    4.5771   -1.4000    2.6436 H   0  0  0  0  0  0  0  0  0  0  0  0
    5.7270   -0.0381    2.7923 H   0  0  0  0  0  0  0  0  0  0  0  0
    4.3380    1.8998    3.3084 H   0  0  0  0  0  0  0  0  0  0  0  0
    2.3715    2.6926    4.5844 H   0  0  0  0  0  0  0  0  0  0  0  0
    0.1037    1.8625    4.0067 H   0  0  0  0  0  0  0  0  0  0  0  0
   -0.1920    0.2437    2.1633 H   0  0  0  0  0  0  0  0  0  0  0  0
    3.3365   -3.9102    0.6688 H   0  0  0  0  0  0  0  0  0  0  0  0
   -0.6500   -3.8772   -4.7020 H   0  0  0  0  0  0  0  0  0  0  0  0
   -2.1623   -2.1546   -5.6107 H   0  0  0  0  0  0  0  0  0  0  0  0
   -2.4507    0.0151   -4.4768 H   0  0  0  0  0  0  0  0  0  0  0  0
   -1.7523    1.6092   -2.8294 H   0  0  0  0  0  0  0  0  0  0  0  0
   -0.2714    1.2756   -1.9767 H   0  0  0  0  0  0  0  0  0  0  0  0
   -1.8976    2.9200   -0.7435 H   0  0  0  0  0  0  0  0  0  0  0  0
   -0.8173    2.0091    0.3100 H   0  0  0  0  0  0  0  0  0  0  0  0
   -2.7624    1.2429    1.6635 H   0  0  0  0  0  0  0  0  0  0  0  0
   -2.5908    2.9987    1.6637 H   0  0  0  0  0  0  0  0  0  0  0  0
   -5.1046    0.7368    1.6818 H   0  0  0  0  0  0  0  0  0  0  0  0
   -6.2154    2.0427    1.2162 H   0  0  0  0  0  0  0  0  0  0  0  0
   -5.0423    2.3167    2.4951 H   0  0  0  0  0  0  0  0  0  0  0  0
   -4.2569    2.4608   -1.5336 H   0  0  0  0  0  0  0  0  0  0  0  0
   -5.4642    1.3637   -0.9152 H   0  0  0  0  0  0  0  0  0  0  0  0
   -3.7010    0.1287   -2.0857 H   0  0  0  0  0  0  0  0  0  0  0  0
   -3.7176   -0.3176   -0.3976 H   0  0  0  0  0  0  0  0  0  0  0  0
  1  2  1  0
  2  3  1  0
  3  4  1  0
  4  5  2  0
  5  6  1  0
  6  7  2  0
  7  8  1  0
  8  9  2  0
  9 10  1  0
 10 11  2  0
 11 12  1  0
 12 13  1  0
 12 14  2  0
 14 15  1  0
 15 16  2  0
 16 17  1  0
 17 18  2  0
 18 19  1  0
 19 20  2  0
 20 21  1  0
 21 22  1  0
 22 23  1  0
 23 24  1  0
 24 25  1  0
 25 26  1  0
 25 27  1  0
 27 28  1  0
 20 29  1  0
 29 30  1  0
 30 31  2  0
  9  4  1  0
 31 10  1  0
 30 14  1  0
 29 16  1  0
 28 22  1  0
  1 32  1  0
  1 33  1  0
  1 34  1  0
  2 35  1  0
  2 36  1  0
  5 37  1  0
  6 38  1  0
  7 39  1  0
  8 40  1  0
 13 41  1  0
 17 42  1  0
 18 43  1  0
 19 44  1  0
 21 45  1  0
 21 46  1  0
 23 47  1  0
 23 48  1  0
 24 49  1  0
 24 50  1  0
 26 51  1  0
 26 52  1  0
 26 53  1  0
 27 54  1  0
 27 55  1  0
 28 56  1  0
 28 57  1  0
M  END
$$$$
