


 35 39  0  0  0  0  0  0  0  0999 V2000
    0.1992   63.8667   85.3528 C   0  0  0  0  0  0  0  0  0  0  0  0
   -0.6228   62.7315   85.3948 C   0  0  0  0  0  0  0  0  0  0  0  0
   -0.8884   62.0184   84.2293 C   0  0  0  0  0  0  0  0  0  0  0  0
   -0.3477   62.4622   83.0222 C   0  0  0  0  0  0  0  0  0  0  0  0
    0.4655   63.6005   82.9737 C   0  0  0  0  0  0  0  0  0  0  0  0
    0.7540   64.3320   84.1436 C   0  0  0  0  0  0  0  0  0  0  0  0
    1.6036   65.5313   84.0628 C   0  0  0  0  0  0  0  0  0  0  0  0
    2.7873   65.4965   84.7198 N   0  0  0  0  0  0  0  0  0  0  0  0
    3.5889   66.5708   84.6362 C   0  0  0  0  0  0  0  0  0  0  0  0
    4.7773   66.5210   85.3220 O   0  0  0  0  0  0  0  0  0  0  0  0
    3.2166   67.6742   83.8773 C   0  0  0  0  0  0  0  0  0  0  0  0
    3.8390   68.8746   83.6257 N   0  0  0  0  0  0  0  0  0  0  0  0
    3.0030   69.5157   82.8301 C   0  0  0  0  0  0  0  0  0  0  0  0
    3.0881   70.8049   82.2290 C   0  0  0  0  0  0  0  0  0  0  0  0
    2.0903   71.2548   81.4359 C   0  0  0  0  0  0  0  0  0  0  0  0
    2.1271   72.6020   80.7777 C   0  0  0  0  0  0  0  0  0  0  0  0
    0.9087   70.4302   81.1805 C   0  0  0  0  0  0  0  0  0  0  0  0
    0.8210   69.2140   81.7440 C   0  0  0  0  0  0  0  0  0  0  0  0
    1.8577   68.7655   82.5587 N   0  0  0  0  0  0  0  0  0  0  0  0
    1.9950   67.5770   83.2358 C   0  0  0  0  0  0  0  0  0  0  0  0
    1.1415   66.5363   83.2759 N   0  0  0  0  0  0  0  0  0  0  0  0
    5.2025   67.3786   85.1370 H   0  0  0  0  0  0  0  0  0  0  0  0
   -0.7087   61.5588   81.5360 S   0  0  0  0  0  0  0  0  0  0  0  0
   -1.5354   60.4342   81.9184 O   0  0  0  0  0  0  0  0  0  0  0  0
    0.5277   61.3617   80.8107 O   0  0  0  0  0  0  0  0  0  0  0  0
   -1.6697   62.6583   80.6639 N   0  0  0  0  0  0  0  0  0  0  0  0
   -1.1709   63.0846   79.3191 C   0  0  0  0  0  0  0  0  0  0  0  0
   -1.5252   62.0759   78.2062 C   0  0  0  0  0  0  0  0  0  0  0  0
   -2.9666   61.7555   78.1642 N   0  0  0  0  0  0  0  0  0  0  0  0
   -3.2387   60.7486   77.1393 C   0  0  0  0  0  0  0  0  0  0  0  0
   -3.4123   61.2780   79.4897 C   0  0  0  0  0  0  0  0  0  0  0  0
   -3.1220   62.3099   80.5943 C   0  0  0  0  0  0  0  0  0  0  0  0
    0.3596   64.5885   86.5106 O   0  0  0  0  0  0  0  0  0  0  0  0
    0.7981   63.4038   88.5375 C   0  0  0  0  0  0  0  0  0  0  0  0
   -0.2825   63.9333   87.6127 C   0  0  0  0  0  0  0  0  0  0  0  0
 34 35  1  0  0  0
 35 33  1  0  0  0
 33  1  1  0  0  0
  1  2  1  0  0  0
  2  3  2  0  0  0
  3  4  1  0  0  0
  4 23  1  0  0  0
 23 24  2  0  0  0
 23 25  2  0  0  0
 23 26  1  0  0  0
 26 27  1  0  0  0
 27 28  1  0  0  0
 28 29  1  0  0  0
 29 30  1  0  0  0
 29 31  1  0  0  0
 31 32  1  0  0  0
  4  5  2  0  0  0
  5  6  1  0  0  0
  6  7  1  0  0  0
  7  8  2  0  0  0
  8  9  1  0  0  0
  9 10  1  0  0  0
  9 11  2  0  0  0
 11 12  1  0  0  0
 12 13  2  0  0  0
 13 14  1  0  0  0
 14 15  2  0  0  0
 15 16  1  0  0  0
 15 17  1  0  0  0
 17 18  2  0  0  0
 18 19  1  0  0  0
 19 20  1  0  0  0
 20 21  2  0  0  0
  6  1  2  0  0  0
 21  7  1  0  0  0
 32 26  1  0  0  0
 20 11  1  0  0  0
 19 13  1  0  0  0
 10 22  1  0  0  0
M  END
> <minimizedAffinity>
-10.53322

$$$$



 35 39  0  0  0  0  0  0  0  0999 V2000
   -0.1716   63.7350   85.7539 C   0  0  0  0  0  0  0  0  0  0  0  0
   -1.1122   62.7176   85.9698 C   0  0  0  0  0  0  0  0  0  0  0  0
   -1.5568   61.9403   84.9041 C   0  0  0  0  0  0  0  0  0  0  0  0
   -1.0740   62.2038   83.6220 C   0  0  0  0  0  0  0  0  0  0  0  0
   -0.1424   63.2247   83.4000 C   0  0  0  0  0  0  0  0  0  0  0  0
    0.3274   64.0178   84.4665 C   0  0  0  0  0  0  0  0  0  0  0  0
    1.2993   65.0915   84.2037 C   0  0  0  0  0  0  0  0  0  0  0  0
    0.8424   66.1990   83.5724 N   0  0  0  0  0  0  0  0  0  0  0  0
    1.7077   67.2012   83.3474 C   0  0  0  0  0  0  0  0  0  0  0  0
    1.2279   68.3084   82.6925 O   0  0  0  0  0  0  0  0  0  0  0  0
    3.0275   67.1055   83.7727 C   0  0  0  0  0  0  0  0  0  0  0  0
    4.0940   67.9684   83.6756 N   0  0  0  0  0  0  0  0  0  0  0  0
    5.0860   67.3301   84.2686 C   0  0  0  0  0  0  0  0  0  0  0  0
    6.4424   67.7081   84.4868 C   0  0  0  0  0  0  0  0  0  0  0  0
    7.2876   66.8736   85.1320 C   0  0  0  0  0  0  0  0  0  0  0  0
    8.7241   67.2196   85.3894 C   0  0  0  0  0  0  0  0  0  0  0  0
    6.8279   65.5715   85.6164 C   0  0  0  0  0  0  0  0  0  0  0  0
    5.5506   65.2079   85.4140 C   0  0  0  0  0  0  0  0  0  0  0  0
    4.6928   66.0793   84.7474 N   0  0  0  0  0  0  0  0  0  0  0  0
    3.3642   65.9337   84.4261 C   0  0  0  0  0  0  0  0  0  0  0  0
    2.5530   64.8903   84.6841 N   0  0  0  0  0  0  0  0  0  0  0  0
    1.9953   68.9062   82.6283 H   0  0  0  0  0  0  0  0  0  0  0  0
   -1.6624   61.2213   82.2642 S   0  0  0  0  0  0  0  0  0  0  0  0
   -2.6861   60.3453   82.7924 O   0  0  0  0  0  0  0  0  0  0  0  0
   -0.5178   60.6881   81.5577 O   0  0  0  0  0  0  0  0  0  0  0  0
   -2.4103   62.3814   81.2704 N   0  0  0  0  0  0  0  0  0  0  0  0
   -1.6243   62.8897   80.1030 C   0  0  0  0  0  0  0  0  0  0  0  0
   -1.7107   61.9572   78.8764 C   0  0  0  0  0  0  0  0  0  0  0  0
   -3.1029   61.6504   78.4898 N   0  0  0  0  0  0  0  0  0  0  0  0
   -3.1291   60.7134   77.3674 C   0  0  0  0  0  0  0  0  0  0  0  0
   -3.8325   61.0917   79.6471 C   0  0  0  0  0  0  0  0  0  0  0  0
   -3.8068   62.0484   80.8527 C   0  0  0  0  0  0  0  0  0  0  0  0
    0.1692   64.5331   86.8189 O   0  0  0  0  0  0  0  0  0  0  0  0
    0.7867   63.2578   88.7415 C   0  0  0  0  0  0  0  0  0  0  0  0
   -0.3431   63.9934   88.0447 C   0  0  0  0  0  0  0  0  0  0  0  0
 34 35  1  0  0  0
 35 33  1  0  0  0
 33  1  1  0  0  0
  1  2  1  0  0  0
  2  3  2  0  0  0
  3  4  1  0  0  0
  4 23  1  0  0  0
 23 24  2  0  0  0
 23 25  2  0  0  0
 23 26  1  0  0  0
 26 27  1  0  0  0
 27 28  1  0  0  0
 28 29  1  0  0  0
 29 30  1  0  0  0
 29 31  1  0  0  0
 31 32  1  0  0  0
  4  5  2  0  0  0
  5  6  1  0  0  0
  6  7  1  0  0  0
  7  8  2  0  0  0
  8  9  1  0  0  0
  9 10  1  0  0  0
  9 11  2  0  0  0
 11 12  1  0  0  0
 12 13  2  0  0  0
 13 14  1  0  0  0
 14 15  2  0  0  0
 15 16  1  0  0  0
 15 17  1  0  0  0
 17 18  2  0  0  0
 18 19  1  0  0  0
 19 20  1  0  0  0
 20 21  2  0  0  0
  6  1  2  0  0  0
 21  7  1  0  0  0
 32 26  1  0  0  0
 20 11  1  0  0  0
 19 13  1  0  0  0
 10 22  1  0  0  0
M  END
> <minimizedAffinity>
-10.08914

$$$$



 35 39  0  0  0  0  0  0  0  0999 V2000
    3.2081   66.3983   84.5456 C   0  0  0  0  0  0  0  0  0  0  0  0
    4.0604   67.4736   84.2565 C   0  0  0  0  0  0  0  0  0  0  0  0
    3.6800   68.4349   83.3245 C   0  0  0  0  0  0  0  0  0  0  0  0
    2.4563   68.2994   82.6684 C   0  0  0  0  0  0  0  0  0  0  0  0
    1.6064   67.2225   82.9465 C   0  0  0  0  0  0  0  0  0  0  0  0
    1.9686   66.2427   83.8931 C   0  0  0  0  0  0  0  0  0  0  0  0
    1.0608   65.1150   84.1590 C   0  0  0  0  0  0  0  0  0  0  0  0
    0.7342   64.8749   85.4511 N   0  0  0  0  0  0  0  0  0  0  0  0
   -0.1141   63.8670   85.7123 C   0  0  0  0  0  0  0  0  0  0  0  0
   -0.4203   63.6308   87.0298 O   0  0  0  0  0  0  0  0  0  0  0  0
   -0.6539   63.1105   84.6788 C   0  0  0  0  0  0  0  0  0  0  0  0
   -1.5290   62.0495   84.6702 N   0  0  0  0  0  0  0  0  0  0  0  0
   -1.6749   61.7564   83.3913 C   0  0  0  0  0  0  0  0  0  0  0  0
   -2.4548   60.7537   82.7455 C   0  0  0  0  0  0  0  0  0  0  0  0
   -2.4455   60.6450   81.3982 C   0  0  0  0  0  0  0  0  0  0  0  0
   -3.2465   59.6097   80.6662 C   0  0  0  0  0  0  0  0  0  0  0  0
   -1.6379   61.5509   80.5806 C   0  0  0  0  0  0  0  0  0  0  0  0
   -0.8997   62.4984   81.1822 C   0  0  0  0  0  0  0  0  0  0  0  0
   -0.9203   62.5968   82.5713 N   0  0  0  0  0  0  0  0  0  0  0  0
   -0.2600   63.4702   83.4025 C   0  0  0  0  0  0  0  0  0  0  0  0
    0.5848   64.4637   83.0671 N   0  0  0  0  0  0  0  0  0  0  0  0
   -1.0361   62.8754   87.0061 H   0  0  0  0  0  0  0  0  0  0  0  0
    1.9876   69.5190   81.4649 S   0  0  0  0  0  0  0  0  0  0  0  0
    0.7564   69.0595   80.8589 O   0  0  0  0  0  0  0  0  0  0  0  0
    3.1460   69.8288   80.6551 O   0  0  0  0  0  0  0  0  0  0  0  0
    1.6360   70.8722   82.4334 N   0  0  0  0  0  0  0  0  0  0  0  0
    2.7554   71.8269   82.7058 C   0  0  0  0  0  0  0  0  0  0  0  0
    2.9592   72.8457   81.5647 C   0  0  0  0  0  0  0  0  0  0  0  0
    1.7178   73.5649   81.2133 N   0  0  0  0  0  0  0  0  0  0  0  0
    1.9490   74.4672   80.0861 C   0  0  0  0  0  0  0  0  0  0  0  0
    0.6516   72.5944   80.8887 C   0  0  0  0  0  0  0  0  0  0  0  0
    0.3975   71.6173   82.0506 C   0  0  0  0  0  0  0  0  0  0  0  0
    3.6645   65.4280   85.4045 O   0  0  0  0  0  0  0  0  0  0  0  0
    5.5184   65.0309   86.8568 C   0  0  0  0  0  0  0  0  0  0  0  0
    5.0977   65.4229   85.4524 C   0  0  0  0  0  0  0  0  0  0  0  0
 34 35  1  0  0  0
 35 33  1  0  0  0
 33  1  1  0  0  0
  1  2  1  0  0  0
  2  3  2  0  0  0
  3  4  1  0  0  0
  4 23  1  0  0  0
 23 24  2  0  0  0
 23 25  2  0  0  0
 23 26  1  0  0  0
 26 27  1  0  0  0
 27 28  1  0  0  0
 28 29  1  0  0  0
 29 30  1  0  0  0
 29 31  1  0  0  0
 31 32  1  0  0  0
  4  5  2  0  0  0
  5  6  1  0  0  0
  6  7  1  0  0  0
  7  8  2  0  0  0
  8  9  1  0  0  0
  9 10  1  0  0  0
  9 11  2  0  0  0
 11 12  1  0  0  0
 12 13  2  0  0  0
 13 14  1  0  0  0
 14 15  2  0  0  0
 15 16  1  0  0  0
 15 17  1  0  0  0
 17 18  2  0  0  0
 18 19  1  0  0  0
 19 20  1  0  0  0
 20 21  2  0  0  0
  6  1  2  0  0  0
 21  7  1  0  0  0
 32 26  1  0  0  0
 20 11  1  0  0  0
 19 13  1  0  0  0
 10 22  1  0  0  0
M  END
> <minimizedAffinity>
-10.03401

$$$$



 35 39  0  0  0  0  0  0  0  0999 V2000
   -0.2293   63.4679   84.8595 C   0  0  0  0  0  0  0  0  0  0  0  0
   -1.1654   62.4291   84.7547 C   0  0  0  0  0  0  0  0  0  0  0  0
   -1.7585   62.1449   83.5279 C   0  0  0  0  0  0  0  0  0  0  0  0
   -1.4279   62.9209   82.4166 C   0  0  0  0  0  0  0  0  0  0  0  0
   -0.5013   63.9651   82.5185 C   0  0  0  0  0  0  0  0  0  0  0  0
    0.1172   64.2640   83.7494 C   0  0  0  0  0  0  0  0  0  0  0  0
    1.0803   65.3741   83.8310 C   0  0  0  0  0  0  0  0  0  0  0  0
    2.1511   65.2061   84.6428 N   0  0  0  0  0  0  0  0  0  0  0  0
    3.0553   66.1968   84.7104 C   0  0  0  0  0  0  0  0  0  0  0  0
    4.1252   66.0128   85.5509 O   0  0  0  0  0  0  0  0  0  0  0  0
    2.9004   67.3494   83.9491 C   0  0  0  0  0  0  0  0  0  0  0  0
    3.6636   68.4874   83.8303 N   0  0  0  0  0  0  0  0  0  0  0  0
    3.0128   69.2272   82.9516 C   0  0  0  0  0  0  0  0  0  0  0  0
    3.3042   70.5153   82.4163 C   0  0  0  0  0  0  0  0  0  0  0  0
    2.4753   71.0809   81.5107 C   0  0  0  0  0  0  0  0  0  0  0  0
    2.7327   72.4328   80.9144 C   0  0  0  0  0  0  0  0  0  0  0  0
    1.2681   70.3844   81.0646 C   0  0  0  0  0  0  0  0  0  0  0  0
    0.9865   69.1700   81.5651 C   0  0  0  0  0  0  0  0  0  0  0  0
    1.8508   68.6014   82.4974 N   0  0  0  0  0  0  0  0  0  0  0  0
    1.7774   67.3896   83.1424 C   0  0  0  0  0  0  0  0  0  0  0  0
    0.8314   66.4385   83.0258 N   0  0  0  0  0  0  0  0  0  0  0  0
    4.6521   66.8278   85.4581 H   0  0  0  0  0  0  0  0  0  0  0  0
   -2.2050   62.5655   80.8594 S   0  0  0  0  0  0  0  0  0  0  0  0
   -1.5499   63.3885   79.8655 O   0  0  0  0  0  0  0  0  0  0  0  0
   -3.6393   62.6194   81.0430 O   0  0  0  0  0  0  0  0  0  0  0  0
   -1.7618   60.9456   80.5906 N   0  0  0  0  0  0  0  0  0  0  0  0
   -2.8687   59.9490   80.4479 C   0  0  0  0  0  0  0  0  0  0  0  0
   -3.4472   59.9032   79.0180 C   0  0  0  0  0  0  0  0  0  0  0  0
   -2.4081   59.6982   77.9883 N   0  0  0  0  0  0  0  0  0  0  0  0
   -2.9981   59.7290   76.6507 C   0  0  0  0  0  0  0  0  0  0  0  0
   -1.3639   60.7360   78.1170 C   0  0  0  0  0  0  0  0  0  0  0  0
   -0.7359   60.7411   79.5223 C   0  0  0  0  0  0  0  0  0  0  0  0
    0.2613   63.7688   86.1070 O   0  0  0  0  0  0  0  0  0  0  0  0
    0.2506   63.3006   88.4489 C   0  0  0  0  0  0  0  0  0  0  0  0
   -0.4221   63.0164   87.1185 C   0  0  0  0  0  0  0  0  0  0  0  0
 34 35  1  0  0  0
 35 33  1  0  0  0
 33  1  1  0  0  0
  1  2  1  0  0  0
  2  3  2  0  0  0
  3  4  1  0  0  0
  4 23  1  0  0  0
 23 24  2  0  0  0
 23 25  2  0  0  0
 23 26  1  0  0  0
 26 27  1  0  0  0
 27 28  1  0  0  0
 28 29  1  0  0  0
 29 30  1  0  0  0
 29 31  1  0  0  0
 31 32  1  0  0  0
  4  5  2  0  0  0
  5  6  1  0  0  0
  6  7  1  0  0  0
  7  8  2  0  0  0
  8  9  1  0  0  0
  9 10  1  0  0  0
  9 11  2  0  0  0
 11 12  1  0  0  0
 12 13  2  0  0  0
 13 14  1  0  0  0
 14 15  2  0  0  0
 15 16  1  0  0  0
 15 17  1  0  0  0
 17 18  2  0  0  0
 18 19  1  0  0  0
 19 20  1  0  0  0
 20 21  2  0  0  0
  6  1  2  0  0  0
 21  7  1  0  0  0
 32 26  1  0  0  0
 20 11  1  0  0  0
 19 13  1  0  0  0
 10 22  1  0  0  0
M  END
> <minimizedAffinity>
-9.92664

$$$$



 35 39  0  0  0  0  0  0  0  0999 V2000
    0.4999   64.6534   83.9231 C   0  0  0  0  0  0  0  0  0  0  0  0
   -0.1155   63.4001   83.7925 C   0  0  0  0  0  0  0  0  0  0  0  0
   -0.3665   62.8740   82.5285 C   0  0  0  0  0  0  0  0  0  0  0  0
   -0.0213   63.6192   81.4007 C   0  0  0  0  0  0  0  0  0  0  0  0
    0.5842   64.8750   81.5261 C   0  0  0  0  0  0  0  0  0  0  0  0
    0.8551   65.4223   82.7967 C   0  0  0  0  0  0  0  0  0  0  0  0
    1.4834   66.7494   82.9001 C   0  0  0  0  0  0  0  0  0  0  0  0
    2.7153   66.8090   83.4593 N   0  0  0  0  0  0  0  0  0  0  0  0
    3.3168   68.0072   83.5384 C   0  0  0  0  0  0  0  0  0  0  0  0
    4.5587   68.0479   84.1225 O   0  0  0  0  0  0  0  0  0  0  0  0
    2.6950   69.1454   83.0387 C   0  0  0  0  0  0  0  0  0  0  0  0
    3.0832   70.4639   82.9900 N   0  0  0  0  0  0  0  0  0  0  0  0
    2.0788   71.0785   82.3928 C   0  0  0  0  0  0  0  0  0  0  0  0
    1.8909   72.4500   82.0547 C   0  0  0  0  0  0  0  0  0  0  0  0
    0.7595   72.8501   81.4325 C   0  0  0  0  0  0  0  0  0  0  0  0
    0.5090   74.2793   81.0531 C   0  0  0  0  0  0  0  0  0  0  0  0
   -0.2893   71.8867   81.0958 C   0  0  0  0  0  0  0  0  0  0  0  0
   -0.1195   70.5922   81.4119 C   0  0  0  0  0  0  0  0  0  0  0  0
    1.0519   70.1965   82.0529 N   0  0  0  0  0  0  0  0  0  0  0  0
    1.4490   68.9486   82.4710 C   0  0  0  0  0  0  0  0  0  0  0  0
    0.7869   67.7815   82.3593 N   0  0  0  0  0  0  0  0  0  0  0  0
    4.8164   68.9872   84.0838 H   0  0  0  0  0  0  0  0  0  0  0  0
   -0.3644   62.9501   79.7914 S   0  0  0  0  0  0  0  0  0  0  0  0
    0.8041   62.1952   79.3927 O   0  0  0  0  0  0  0  0  0  0  0  0
   -0.8851   64.0121   78.9578 O   0  0  0  0  0  0  0  0  0  0  0  0
   -1.6261   61.8556   80.1118 N   0  0  0  0  0  0  0  0  0  0  0  0
   -3.0086   62.2728   79.7199 C   0  0  0  0  0  0  0  0  0  0  0  0
   -3.3121   62.0023   78.2312 C   0  0  0  0  0  0  0  0  0  0  0  0
   -3.0454   60.6033   77.8395 N   0  0  0  0  0  0  0  0  0  0  0  0
   -3.2846   60.4164   76.4090 C   0  0  0  0  0  0  0  0  0  0  0  0
   -1.6536   60.2438   78.1824 C   0  0  0  0  0  0  0  0  0  0  0  0
   -1.3651   60.4479   79.6806 C   0  0  0  0  0  0  0  0  0  0  0  0
    0.6455   65.1703   85.1876 O   0  0  0  0  0  0  0  0  0  0  0  0
   -0.1151   64.1723   87.2197 C   0  0  0  0  0  0  0  0  0  0  0  0
    0.9419   64.1323   86.1315 C   0  0  0  0  0  0  0  0  0  0  0  0
 34 35  1  0  0  0
 35 33  1  0  0  0
 33  1  1  0  0  0
  1  2  1  0  0  0
  2  3  2  0  0  0
  3  4  1  0  0  0
  4 23  1  0  0  0
 23 24  2  0  0  0
 23 25  2  0  0  0
 23 26  1  0  0  0
 26 27  1  0  0  0
 27 28  1  0  0  0
 28 29  1  0  0  0
 29 30  1  0  0  0
 29 31  1  0  0  0
 31 32  1  0  0  0
  4  5  2  0  0  0
  5  6  1  0  0  0
  6  7  1  0  0  0
  7  8  2  0  0  0
  8  9  1  0  0  0
  9 10  1  0  0  0
  9 11  2  0  0  0
 11 12  1  0  0  0
 12 13  2  0  0  0
 13 14  1  0  0  0
 14 15  2  0  0  0
 15 16  1  0  0  0
 15 17  1  0  0  0
 17 18  2  0  0  0
 18 19  1  0  0  0
 19 20  1  0  0  0
 20 21  2  0  0  0
  6  1  2  0  0  0
 21  7  1  0  0  0
 32 26  1  0  0  0
 20 11  1  0  0  0
 19 13  1  0  0  0
 10 22  1  0  0  0
M  END
> <minimizedAffinity>
-9.81697

$$$$



 35 39  0  0  0  0  0  0  0  0999 V2000
    0.8444   64.9731   84.3134 C   0  0  0  0  0  0  0  0  0  0  0  0
    1.5961   66.1031   84.6655 C   0  0  0  0  0  0  0  0  0  0  0  0
    1.7634   67.1420   83.7544 C   0  0  0  0  0  0  0  0  0  0  0  0
    1.1961   67.0311   82.4847 C   0  0  0  0  0  0  0  0  0  0  0  0
    0.4530   65.9007   82.1252 C   0  0  0  0  0  0  0  0  0  0  0  0
    0.2642   64.8412   83.0357 C   0  0  0  0  0  0  0  0  0  0  0  0
   -0.5129   63.6594   82.6284 C   0  0  0  0  0  0  0  0  0  0  0  0
   -1.2207   63.0222   83.5911 N   0  0  0  0  0  0  0  0  0  0  0  0
   -1.9577   61.9576   83.2345 C   0  0  0  0  0  0  0  0  0  0  0  0
   -2.6554   61.3169   84.2283 O   0  0  0  0  0  0  0  0  0  0  0  0
   -2.0043   61.5412   81.9092 C   0  0  0  0  0  0  0  0  0  0  0  0
   -2.6675   60.5086   81.2883 N   0  0  0  0  0  0  0  0  0  0  0  0
   -2.3294   60.6205   80.0170 C   0  0  0  0  0  0  0  0  0  0  0  0
   -2.6964   59.8430   78.8807 C   0  0  0  0  0  0  0  0  0  0  0  0
   -2.2166   60.1560   77.6564 C   0  0  0  0  0  0  0  0  0  0  0  0
   -2.5695   59.3735   76.4265 C   0  0  0  0  0  0  0  0  0  0  0  0
   -1.3149   61.2943   77.4754 C   0  0  0  0  0  0  0  0  0  0  0  0
   -0.9640   62.0316   78.5420 C   0  0  0  0  0  0  0  0  0  0  0  0
   -1.4671   61.6956   79.7964 N   0  0  0  0  0  0  0  0  0  0  0  0
   -1.2561   62.2893   81.0182 C   0  0  0  0  0  0  0  0  0  0  0  0
   -0.4953   63.3630   81.3037 N   0  0  0  0  0  0  0  0  0  0  0  0
   -3.1149   60.5874   83.7732 H   0  0  0  0  0  0  0  0  0  0  0  0
    1.4321   68.3518   81.3205 S   0  0  0  0  0  0  0  0  0  0  0  0
    0.1716   69.0562   81.2232 O   0  0  0  0  0  0  0  0  0  0  0  0
    2.0762   67.8115   80.1427 O   0  0  0  0  0  0  0  0  0  0  0  0
    2.5455   69.3543   82.1254 N   0  0  0  0  0  0  0  0  0  0  0  0
    3.6836   69.8967   81.3194 C   0  0  0  0  0  0  0  0  0  0  0  0
    3.2995   71.1627   80.5248 C   0  0  0  0  0  0  0  0  0  0  0  0
    2.7008   72.2109   81.3760 N   0  0  0  0  0  0  0  0  0  0  0  0
    2.2950   73.3593   80.5668 C   0  0  0  0  0  0  0  0  0  0  0  0
    1.5422   71.6595   82.1091 C   0  0  0  0  0  0  0  0  0  0  0  0
    1.9342   70.4361   82.9570 C   0  0  0  0  0  0  0  0  0  0  0  0
    0.7822   63.9357   85.2119 O   0  0  0  0  0  0  0  0  0  0  0  0
   -0.3014   63.3816   87.2669 C   0  0  0  0  0  0  0  0  0  0  0  0
    0.5259   64.4230   86.5360 C   0  0  0  0  0  0  0  0  0  0  0  0
 34 35  1  0  0  0
 35 33  1  0  0  0
 33  1  1  0  0  0
  1  2  1  0  0  0
  2  3  2  0  0  0
  3  4  1  0  0  0
  4 23  1  0  0  0
 23 24  2  0  0  0
 23 25  2  0  0  0
 23 26  1  0  0  0
 26 27  1  0  0  0
 27 28  1  0  0  0
 28 29  1  0  0  0
 29 30  1  0  0  0
 29 31  1  0  0  0
 31 32  1  0  0  0
  4  5  2  0  0  0
  5  6  1  0  0  0
  6  7  1  0  0  0
  7  8  2  0  0  0
  8  9  1  0  0  0
  9 10  1  0  0  0
  9 11  2  0  0  0
 11 12  1  0  0  0
 12 13  2  0  0  0
 13 14  1  0  0  0
 14 15  2  0  0  0
 15 16  1  0  0  0
 15 17  1  0  0  0
 17 18  2  0  0  0
 18 19  1  0  0  0
 19 20  1  0  0  0
 20 21  2  0  0  0
  6  1  2  0  0  0
 21  7  1  0  0  0
 32 26  1  0  0  0
 20 11  1  0  0  0
 19 13  1  0  0  0
 10 22  1  0  0  0
M  END
> <minimizedAffinity>
-9.66084

$$$$



 35 39  0  0  0  0  0  0  0  0999 V2000
    1.5179   65.5180   84.4428 C   0  0  0  0  0  0  0  0  0  0  0  0
    1.0476   64.5728   85.3655 C   0  0  0  0  0  0  0  0  0  0  0  0
   -0.0057   63.7288   85.0250 C   0  0  0  0  0  0  0  0  0  0  0  0
   -0.5987   63.8541   83.7685 C   0  0  0  0  0  0  0  0  0  0  0  0
   -0.1391   64.8028   82.8476 C   0  0  0  0  0  0  0  0  0  0  0  0
    0.9318   65.6612   83.1691 C   0  0  0  0  0  0  0  0  0  0  0  0
    1.3887   66.6569   82.1859 C   0  0  0  0  0  0  0  0  0  0  0  0
    1.4474   66.2659   80.8907 N   0  0  0  0  0  0  0  0  0  0  0  0
    1.8362   67.1678   79.9747 C   0  0  0  0  0  0  0  0  0  0  0  0
    1.9036   66.7467   78.6696 O   0  0  0  0  0  0  0  0  0  0  0  0
    2.1468   68.4694   80.3506 C   0  0  0  0  0  0  0  0  0  0  0  0
    2.5579   69.5659   79.6293 N   0  0  0  0  0  0  0  0  0  0  0  0
    2.6884   70.5206   80.5318 C   0  0  0  0  0  0  0  0  0  0  0  0
    3.0850   71.8829   80.4002 C   0  0  0  0  0  0  0  0  0  0  0  0
    3.1438   72.6842   81.4872 C   0  0  0  0  0  0  0  0  0  0  0  0
    3.5538   74.1247   81.4073 C   0  0  0  0  0  0  0  0  0  0  0  0
    2.8028   72.1702   82.8142 C   0  0  0  0  0  0  0  0  0  0  0  0
    2.4285   70.8868   82.9463 C   0  0  0  0  0  0  0  0  0  0  0  0
    2.3733   70.0746   81.8163 N   0  0  0  0  0  0  0  0  0  0  0  0
    2.0249   68.7499   81.6996 C   0  0  0  0  0  0  0  0  0  0  0  0
    1.6442   67.8988   82.6711 N   0  0  0  0  0  0  0  0  0  0  0  0
    2.1997   67.5323   78.1742 H   0  0  0  0  0  0  0  0  0  0  0  0
   -1.9561   62.7877   83.3495 S   0  0  0  0  0  0  0  0  0  0  0  0
   -2.6446   63.4024   82.2349 O   0  0  0  0  0  0  0  0  0  0  0  0
   -2.6625   62.4496   84.5663 O   0  0  0  0  0  0  0  0  0  0  0  0
   -1.1643   61.3917   82.7865 N   0  0  0  0  0  0  0  0  0  0  0  0
   -2.0061   60.3523   82.1158 C   0  0  0  0  0  0  0  0  0  0  0  0
   -2.2611   60.6639   80.6260 C   0  0  0  0  0  0  0  0  0  0  0  0
   -1.0143   60.9088   79.8727 N   0  0  0  0  0  0  0  0  0  0  0  0
   -1.3139   61.2637   78.4861 C   0  0  0  0  0  0  0  0  0  0  0  0
   -0.2378   61.9834   80.5254 C   0  0  0  0  0  0  0  0  0  0  0  0
    0.0776   61.6470   81.9940 C   0  0  0  0  0  0  0  0  0  0  0  0
    2.4980   66.3879   84.8552 O   0  0  0  0  0  0  0  0  0  0  0  0
    4.8394   66.6495   84.4642 C   0  0  0  0  0  0  0  0  0  0  0  0
    3.7586   65.7152   84.9761 C   0  0  0  0  0  0  0  0  0  0  0  0
 34 35  1  0  0  0
 35 33  1  0  0  0
 33  1  1  0  0  0
  1  2  1  0  0  0
  2  3  2  0  0  0
  3  4  1  0  0  0
  4 23  1  0  0  0
 23 24  2  0  0  0
 23 25  2  0  0  0
 23 26  1  0  0  0
 26 27  1  0  0  0
 27 28  1  0  0  0
 28 29  1  0  0  0
 29 30  1  0  0  0
 29 31  1  0  0  0
 31 32  1  0  0  0
  4  5  2  0  0  0
  5  6  1  0  0  0
  6  7  1  0  0  0
  7  8  2  0  0  0
  8  9  1  0  0  0
  9 10  1  0  0  0
  9 11  2  0  0  0
 11 12  1  0  0  0
 12 13  2  0  0  0
 13 14  1  0  0  0
 14 15  2  0  0  0
 15 16  1  0  0  0
 15 17  1  0  0  0
 17 18  2  0  0  0
 18 19  1  0  0  0
 19 20  1  0  0  0
 20 21  2  0  0  0
  6  1  2  0  0  0
 21  7  1  0  0  0
 32 26  1  0  0  0
 20 11  1  0  0  0
 19 13  1  0  0  0
 10 22  1  0  0  0
M  END
> <minimizedAffinity>
-9.66033

$$$$



 35 39  0  0  0  0  0  0  0  0999 V2000
   -0.1269   65.6054   79.1358 C   0  0  0  0  0  0  0  0  0  0  0  0
   -0.5519   65.3369   77.8268 C   0  0  0  0  0  0  0  0  0  0  0  0
   -0.9398   64.0489   77.4690 C   0  0  0  0  0  0  0  0  0  0  0  0
   -0.8759   63.0304   78.4203 C   0  0  0  0  0  0  0  0  0  0  0  0
   -0.4430   63.2915   79.7256 C   0  0  0  0  0  0  0  0  0  0  0  0
   -0.0540   64.5905   80.1110 C   0  0  0  0  0  0  0  0  0  0  0  0
    0.4069   64.8355   81.4872 C   0  0  0  0  0  0  0  0  0  0  0  0
    1.3663   65.7754   81.6605 N   0  0  0  0  0  0  0  0  0  0  0  0
    1.7812   66.0327   82.9116 C   0  0  0  0  0  0  0  0  0  0  0  0
    2.7651   66.9780   83.0639 O   0  0  0  0  0  0  0  0  0  0  0  0
    1.2215   65.3644   83.9942 C   0  0  0  0  0  0  0  0  0  0  0  0
    1.4556   65.4394   85.3474 N   0  0  0  0  0  0  0  0  0  0  0  0
    0.6140   64.5688   85.8736 C   0  0  0  0  0  0  0  0  0  0  0  0
    0.3823   64.1949   87.2289 C   0  0  0  0  0  0  0  0  0  0  0  0
   -0.5505   63.2640   87.5296 C   0  0  0  0  0  0  0  0  0  0  0  0
   -0.8363   62.8327   88.9374 C   0  0  0  0  0  0  0  0  0  0  0  0
   -1.3366   62.6250   86.4737 C   0  0  0  0  0  0  0  0  0  0  0  0
   -1.1235   62.9719   85.1935 C   0  0  0  0  0  0  0  0  0  0  0  0
   -0.1587   63.9326   84.9007 N   0  0  0  0  0  0  0  0  0  0  0  0
    0.2343   64.4452   83.6873 C   0  0  0  0  0  0  0  0  0  0  0  0
   -0.2288   64.1356   82.4614 N   0  0  0  0  0  0  0  0  0  0  0  0
    2.9216   67.0155   84.0254 H   0  0  0  0  0  0  0  0  0  0  0  0
   -1.3524   61.3851   77.9500 S   0  0  0  0  0  0  0  0  0  0  0  0
   -0.5486   60.4741   78.7364 O   0  0  0  0  0  0  0  0  0  0  0  0
   -1.3650   61.3097   76.5051 O   0  0  0  0  0  0  0  0  0  0  0  0
   -2.9582   61.2972   78.5032 N   0  0  0  0  0  0  0  0  0  0  0  0
   -3.5473   59.9327   78.6770 C   0  0  0  0  0  0  0  0  0  0  0  0
   -3.1721   59.2907   80.0292 C   0  0  0  0  0  0  0  0  0  0  0  0
   -3.4889   60.1596   81.1809 N   0  0  0  0  0  0  0  0  0  0  0  0
   -3.0544   59.5351   82.4297 C   0  0  0  0  0  0  0  0  0  0  0  0
   -2.8404   61.4763   81.0082 C   0  0  0  0  0  0  0  0  0  0  0  0
   -3.2640   62.1517   79.6915 C   0  0  0  0  0  0  0  0  0  0  0  0
    0.3306   66.8698   79.4174 O   0  0  0  0  0  0  0  0  0  0  0  0
   -0.1881   68.9489   80.4720 C   0  0  0  0  0  0  0  0  0  0  0  0
   -0.7574   67.7443   79.7454 C   0  0  0  0  0  0  0  0  0  0  0  0
 34 35  1  0  0  0
 35 33  1  0  0  0
 33  1  1  0  0  0
  1  2  1  0  0  0
  2  3  2  0  0  0
  3  4  1  0  0  0
  4 23  1  0  0  0
 23 24  2  0  0  0
 23 25  2  0  0  0
 23 26  1  0  0  0
 26 27  1  0  0  0
 27 28  1  0  0  0
 28 29  1  0  0  0
 29 30  1  0  0  0
 29 31  1  0  0  0
 31 32  1  0  0  0
  4  5  2  0  0  0
  5  6  1  0  0  0
  6  7  1  0  0  0
  7  8  2  0  0  0
  8  9  1  0  0  0
  9 10  1  0  0  0
  9 11  2  0  0  0
 11 12  1  0  0  0
 12 13  2  0  0  0
 13 14  1  0  0  0
 14 15  2  0  0  0
 15 16  1  0  0  0
 15 17  1  0  0  0
 17 18  2  0  0  0
 18 19  1  0  0  0
 19 20  1  0  0  0
 20 21  2  0  0  0
  6  1  2  0  0  0
 21  7  1  0  0  0
 32 26  1  0  0  0
 20 11  1  0  0  0
 19 13  1  0  0  0
 10 22  1  0  0  0
M  END
> <minimizedAffinity>
-9.55176

$$$$



 35 39  0  0  0  0  0  0  0  0999 V2000
    0.6605   64.1982   79.5997 C   0  0  0  0  0  0  0  0  0  0  0  0
    1.2350   64.9615   78.5733 C   0  0  0  0  0  0  0  0  0  0  0  0
    1.3756   66.3383   78.7222 C   0  0  0  0  0  0  0  0  0  0  0  0
    0.9161   66.9465   79.8907 C   0  0  0  0  0  0  0  0  0  0  0  0
    0.3330   66.1900   80.9139 C   0  0  0  0  0  0  0  0  0  0  0  0
    0.1891   64.7935   80.7870 C   0  0  0  0  0  0  0  0  0  0  0  0
   -0.4370   64.0232   81.8739 C   0  0  0  0  0  0  0  0  0  0  0  0
   -1.4328   63.1707   81.5342 N   0  0  0  0  0  0  0  0  0  0  0  0
   -1.9988   62.4390   82.5078 C   0  0  0  0  0  0  0  0  0  0  0  0
   -3.0167   61.5922   82.1445 O   0  0  0  0  0  0  0  0  0  0  0  0
   -1.5546   62.5437   83.8207 C   0  0  0  0  0  0  0  0  0  0  0  0
   -1.9487   61.9202   84.9816 N   0  0  0  0  0  0  0  0  0  0  0  0
   -1.1540   62.4226   85.9085 C   0  0  0  0  0  0  0  0  0  0  0  0
   -1.0749   62.1698   87.3086 C   0  0  0  0  0  0  0  0  0  0  0  0
   -0.1617   62.8155   88.0676 C   0  0  0  0  0  0  0  0  0  0  0  0
   -0.0336   62.5884   89.5446 C   0  0  0  0  0  0  0  0  0  0  0  0
    0.7591   63.7824   87.4687 C   0  0  0  0  0  0  0  0  0  0  0  0
    0.6902   64.0264   86.1495 C   0  0  0  0  0  0  0  0  0  0  0  0
   -0.2565   63.3528   85.3817 N   0  0  0  0  0  0  0  0  0  0  0  0
   -0.5160   63.4320   84.0341 C   0  0  0  0  0  0  0  0  0  0  0  0
    0.0962   64.1968   83.1102 N   0  0  0  0  0  0  0  0  0  0  0  0
   -3.2865   61.1629   82.9771 H   0  0  0  0  0  0  0  0  0  0  0  0
    1.0799   68.7068   80.0640 S   0  0  0  0  0  0  0  0  0  0  0  0
   -0.2284   69.2761   79.8218 O   0  0  0  0  0  0  0  0  0  0  0  0
    2.2315   69.1348   79.2997 O   0  0  0  0  0  0  0  0  0  0  0  0
    1.4419   68.8795   81.7168 N   0  0  0  0  0  0  0  0  0  0  0  0
    2.8876   68.8862   82.1026 C   0  0  0  0  0  0  0  0  0  0  0  0
    3.5410   70.2743   81.9366 C   0  0  0  0  0  0  0  0  0  0  0  0
    2.7971   71.3424   82.6350 N   0  0  0  0  0  0  0  0  0  0  0  0
    3.4185   72.6436   82.3920 C   0  0  0  0  0  0  0  0  0  0  0  0
    1.3896   71.3492   82.1846 C   0  0  0  0  0  0  0  0  0  0  0  0
    0.7126   69.9853   82.4103 C   0  0  0  0  0  0  0  0  0  0  0  0
    0.4610   62.8583   79.3709 O   0  0  0  0  0  0  0  0  0  0  0  0
   -1.4516   62.5401   77.9764 C   0  0  0  0  0  0  0  0  0  0  0  0
    0.0631   62.6268   78.0129 C   0  0  0  0  0  0  0  0  0  0  0  0
 34 35  1  0  0  0
 35 33  1  0  0  0
 33  1  1  0  0  0
  1  2  1  0  0  0
  2  3  2  0  0  0
  3  4  1  0  0  0
  4 23  1  0  0  0
 23 24  2  0  0  0
 23 25  2  0  0  0
 23 26  1  0  0  0
 26 27  1  0  0  0
 27 28  1  0  0  0
 28 29  1  0  0  0
 29 30  1  0  0  0
 29 31  1  0  0  0
 31 32  1  0  0  0
  4  5  2  0  0  0
  5  6  1  0  0  0
  6  7  1  0  0  0
  7  8  2  0  0  0
  8  9  1  0  0  0
  9 10  1  0  0  0
  9 11  2  0  0  0
 11 12  1  0  0  0
 12 13  2  0  0  0
 13 14  1  0  0  0
 14 15  2  0  0  0
 15 16  1  0  0  0
 15 17  1  0  0  0
 17 18  2  0  0  0
 18 19  1  0  0  0
 19 20  1  0  0  0
 20 21  2  0  0  0
  6  1  2  0  0  0
 21  7  1  0  0  0
 32 26  1  0  0  0
 20 11  1  0  0  0
 19 13  1  0  0  0
 10 22  1  0  0  0
M  END
> <minimizedAffinity>
-9.54252

$$$$
