
     RDKit          3D

 50 53  0  0  0  0  0  0  0  0999 V2000
    6.3916    3.1189    0.1066 C   0  0  0  0  0  0  0  0  0  0  0  0
    6.2608    1.7353    0.4043 O   0  0  0  0  0  0  0  0  0  0  0  0
    4.9933    1.2206    0.4868 C   0  0  0  0  0  0  0  0  0  0  0  0
    3.8228    1.9600    0.2933 C   0  0  0  0  0  0  0  0  0  0  0  0
    2.5689    1.3467    0.3975 C   0  0  0  0  0  0  0  0  0  0  0  0
    2.4576   -0.0167    0.7019 C   0  0  0  0  0  0  0  0  0  0  0  0
    1.1000   -0.6688    0.7947 C   0  0  0  0  0  0  0  0  0  0  0  0
    0.5623   -0.8213   -0.5623 N   0  0  0  0  0  0  0  0  0  0  0  0
   -0.7652   -1.3303   -0.5628 C   0  0  0  0  0  0  0  0  0  0  0  0
   -1.8317   -0.4109   -0.5512 C   0  0  0  0  0  0  0  0  0  0  0  0
   -3.1252   -0.9195   -0.5049 C   0  0  0  0  0  0  0  0  0  0  0  0
   -3.4029   -2.2428   -0.4433 N   0  0  0  0  0  0  0  0  0  0  0  0
   -2.3895   -3.1179   -0.4432 C   0  0  0  0  0  0  0  0  0  0  0  0
   -2.7016   -4.4698   -0.3803 C   0  0  0  0  0  0  0  0  0  0  0  0
   -1.7151   -5.4577   -0.3698 C   0  0  0  0  0  0  0  0  0  0  0  0
   -0.3823   -5.0825   -0.4240 C   0  0  0  0  0  0  0  0  0  0  0  0
    0.9707   -6.4007   -0.4077 Br  0  0  0  0  0  0  0  0  0  0  0  0
   -0.0378   -3.7340   -0.4888 C   0  0  0  0  0  0  0  0  0  0  0  0
   -1.0349   -2.7256   -0.4989 C   0  0  0  0  0  0  0  0  0  0  0  0
   -4.3090    0.0054   -0.4778 C   0  0  0  0  0  0  0  0  0  0  0  0
   -3.9929    1.3188   -1.1770 C   0  0  0  0  0  0  0  0  0  0  0  0
   -2.7756    1.9134   -0.6314 N   0  0  0  0  0  0  0  0  0  0  0  0
   -2.5700    3.2793   -0.4837 C   0  0  0  0  0  0  0  0  0  0  0  0
   -3.7756    4.1773   -0.5907 C   0  0  0  0  0  0  0  0  0  0  0  0
   -1.4581    3.7600   -0.2601 O   0  0  0  0  0  0  0  0  0  0  0  0
   -1.5784    1.0731   -0.6516 C   0  0  0  0  0  0  0  0  0  0  0  0
    3.6281   -0.7613    0.8888 C   0  0  0  0  0  0  0  0  0  0  0  0
    4.8816   -0.1472    0.7841 C   0  0  0  0  0  0  0  0  0  0  0  0
    6.2820   -1.1338    1.0316 Cl  0  0  0  0  0  0  0  0  0  0  0  0
    7.4596    3.3561    0.0835 H   0  0  0  0  0  0  0  0  0  0  0  0
    5.9311    3.7358    0.8853 H   0  0  0  0  0  0  0  0  0  0  0  0
    5.9782    3.3512   -0.8803 H   0  0  0  0  0  0  0  0  0  0  0  0
    3.8446    3.0187    0.0549 H   0  0  0  0  0  0  0  0  0  0  0  0
    1.6714    1.9426    0.2303 H   0  0  0  0  0  0  0  0  0  0  0  0
    1.1850   -1.6420    1.2937 H   0  0  0  0  0  0  0  0  0  0  0  0
    0.4497   -0.0442    1.4198 H   0  0  0  0  0  0  0  0  0  0  0  0
    1.1774   -1.4221   -1.1074 H   0  0  0  0  0  0  0  0  0  0  0  0
   -3.7486   -4.7636   -0.3370 H   0  0  0  0  0  0  0  0  0  0  0  0
   -2.0030   -6.5042   -0.3192 H   0  0  0  0  0  0  0  0  0  0  0  0
    1.0141   -3.4683   -0.5304 H   0  0  0  0  0  0  0  0  0  0  0  0
   -5.1705   -0.4702   -0.9598 H   0  0  0  0  0  0  0  0  0  0  0  0
   -4.5710    0.1919    0.5708 H   0  0  0  0  0  0  0  0  0  0  0  0
   -3.8261    1.1661   -2.2508 H   0  0  0  0  0  0  0  0  0  0  0  0
   -4.8473    1.9918   -1.0758 H   0  0  0  0  0  0  0  0  0  0  0  0
   -4.5347    3.8814    0.1382 H   0  0  0  0  0  0  0  0  0  0  0  0
   -4.1795    4.1473   -1.6059 H   0  0  0  0  0  0  0  0  0  0  0  0
   -3.4795    5.2076   -0.3704 H   0  0  0  0  0  0  0  0  0  0  0  0
   -0.9335    1.3938    0.1735 H   0  0  0  0  0  0  0  0  0  0  0  0
   -1.0623    1.2850   -1.5967 H   0  0  0  0  0  0  0  0  0  0  0  0
    3.5707   -1.8229    1.1175 H   0  0  0  0  0  0  0  0  0  0  0  0
  1  2  1  0
  2  3  1  0
  3  4  1  0
  4  5  2  0
  5  6  1  0
  6  7  1  0
  7  8  1  0
  8  9  1  0
  9 10  2  0
 10 11  1  0
 11 12  2  0
 12 13  1  0
 13 14  2  0
 14 15  1  0
 15 16  2  0
 16 17  1  0
 16 18  1  0
 18 19  2  0
 11 20  1  0
 20 21  1  0
 21 22  1  0
 22 23  1  0
 23 24  1  0
 23 25  2  0
 22 26  1  0
  6 27  2  0
 27 28  1  0
 28 29  1  0
 28  3  2  0
 19  9  1  0
 26 10  1  0
 19 13  1  0
  1 30  1  0
  1 31  1  0
  1 32  1  0
  4 33  1  0
  5 34  1  0
  7 35  1  0
  7 36  1  0
  8 37  1  0
 14 38  1  0
 15 39  1  0
 18 40  1  0
 20 41  1  0
 20 42  1  0
 21 43  1  0
 21 44  1  0
 24 45  1  0
 24 46  1  0
 24 47  1  0
 26 48  1  0
 26 49  1  0
 27 50  1  0
M  END
$$$$
