


 24 26  0  0  0  0  0  0  0  0999 V2000
   -2.4999   62.1858   83.2522 N   0  0  0  0  0  0  0  0  0  0  0  0
   -1.9294   62.7646   82.6418 H   0  0  0  0  0  0  0  0  0  0  0  0
   -2.0328   62.3601   84.5759 C   0  0  0  0  0  0  0  0  0  0  0  0
   -2.5894   61.6609   85.5898 N   0  0  0  0  0  0  0  0  0  0  0  0
   -2.1363   61.7888   86.8700 N   0  0  0  0  0  0  0  0  0  0  0  0
   -1.1221   62.6339   87.1277 C   0  0  0  0  0  0  0  0  0  0  0  0
   -0.6797   62.6634   88.7916 Cl  0  0  0  0  0  0  0  0  0  0  0  0
   -0.4904   63.4033   86.1445 C   0  0  0  0  0  0  0  0  0  0  0  0
    0.5791   64.3007   86.3983 C   0  0  0  0  0  0  0  0  0  0  0  0
    1.1588   65.0485   85.3727 C   0  0  0  0  0  0  0  0  0  0  0  0
    0.6787   64.9187   84.0783 C   0  0  0  0  0  0  0  0  0  0  0  0
    1.3789   65.8433   82.8085 Cl  0  0  0  0  0  0  0  0  0  0  0  0
   -0.3697   64.0430   83.8019 C   0  0  0  0  0  0  0  0  0  0  0  0
   -0.9693   63.2620   84.8209 C   0  0  0  0  0  0  0  0  0  0  0  0
   -2.5528   60.8077   82.7709 C   0  0  0  0  0  0  0  0  0  0  0  0
   -1.3966   60.5660   78.5936 C   0  0  0  0  0  0  0  0  0  0  0  0
   -2.5204   59.8793   79.0630 C   0  0  0  0  0  0  0  0  0  0  0  0
   -2.8905   59.9589   80.4109 C   0  0  0  0  0  0  0  0  0  0  0  0
   -2.1483   60.7281   81.3173 C   0  0  0  0  0  0  0  0  0  0  0  0
   -1.0192   61.4112   80.8494 C   0  0  0  0  0  0  0  0  0  0  0  0
   -0.6491   61.3321   79.5024 C   0  0  0  0  0  0  0  0  0  0  0  0
    0.7554   62.2091   78.9987 Cl  0  0  0  0  0  0  0  0  0  0  0  0
   -0.7709   59.2832   76.6777 C   0  0  0  0  0  0  0  0  0  0  0  0
   -0.9632   60.5492   77.2933 O   0  0  0  0  0  0  0  0  0  0  0  0
 23 24  1  0  0  0
 24 16  1  0  0  0
 16 17  1  0  0  0
 17 18  2  0  0  0
 18 19  1  0  0  0
 19 15  1  0  0  0
 15  1  1  0  0  0
  1  3  1  0  0  0
  3  4  1  0  0  0
  4  5  2  0  0  0
  5  6  1  0  0  0
  6  7  1  0  0  0
  6  8  2  0  0  0
  8  9  1  0  0  0
  9 10  2  0  0  0
 10 11  1  0  0  0
 11 12  1  0  0  0
 11 13  2  0  0  0
 13 14  1  0  0  0
 19 20  2  0  0  0
 20 21  1  0  0  0
 21 22  1  0  0  0
 21 16  2  0  0  0
 14  3  2  0  0  0
 14  8  1  0  0  0
  1  2  1  0  0  0
M  END
> <minimizedAffinity>
-9.30403

$$$$



 24 26  0  0  0  0  0  0  0  0999 V2000
   -2.4003   62.1016   83.1495 N   0  0  0  0  0  0  0  0  0  0  0  0
   -2.3871   62.9928   82.6608 H   0  0  0  0  0  0  0  0  0  0  0  0
   -1.9523   62.3259   84.4722 C   0  0  0  0  0  0  0  0  0  0  0  0
   -2.4930   61.6328   85.4988 N   0  0  0  0  0  0  0  0  0  0  0  0
   -2.0569   61.8091   86.7791 N   0  0  0  0  0  0  0  0  0  0  0  0
   -1.0760   62.6964   87.0239 C   0  0  0  0  0  0  0  0  0  0  0  0
   -0.6506   62.7837   88.6902 Cl  0  0  0  0  0  0  0  0  0  0  0  0
   -0.4630   63.4631   86.0268 C   0  0  0  0  0  0  0  0  0  0  0  0
    0.5712   64.4045   86.2667 C   0  0  0  0  0  0  0  0  0  0  0  0
    1.1335   65.1467   85.2275 C   0  0  0  0  0  0  0  0  0  0  0  0
    0.6705   64.9672   83.9327 C   0  0  0  0  0  0  0  0  0  0  0  0
    1.3491   65.8842   82.6458 Cl  0  0  0  0  0  0  0  0  0  0  0  0
   -0.3432   64.0476   83.6698 C   0  0  0  0  0  0  0  0  0  0  0  0
   -0.9241   63.2714   84.7032 C   0  0  0  0  0  0  0  0  0  0  0  0
   -1.6789   61.0789   82.3966 C   0  0  0  0  0  0  0  0  0  0  0  0
   -0.7326   62.4797   78.3981 C   0  0  0  0  0  0  0  0  0  0  0  0
    0.2672   62.3667   79.3689 C   0  0  0  0  0  0  0  0  0  0  0  0
   -0.0412   61.9149   80.6578 C   0  0  0  0  0  0  0  0  0  0  0  0
   -1.3533   61.5638   81.0031 C   0  0  0  0  0  0  0  0  0  0  0  0
   -2.3562   61.6826   80.0333 C   0  0  0  0  0  0  0  0  0  0  0  0
   -2.0485   62.1337   78.7452 C   0  0  0  0  0  0  0  0  0  0  0  0
   -3.3411   62.2483   77.6000 Cl  0  0  0  0  0  0  0  0  0  0  0  0
   -0.5141   64.3089   76.8768 C   0  0  0  0  0  0  0  0  0  0  0  0
   -0.5224   62.9079   77.1130 O   0  0  0  0  0  0  0  0  0  0  0  0
 23 24  1  0  0  0
 24 16  1  0  0  0
 16 17  1  0  0  0
 17 18  2  0  0  0
 18 19  1  0  0  0
 19 15  1  0  0  0
 15  1  1  0  0  0
  1  3  1  0  0  0
  3  4  1  0  0  0
  4  5  2  0  0  0
  5  6  1  0  0  0
  6  7  1  0  0  0
  6  8  2  0  0  0
  8  9  1  0  0  0
  9 10  2  0  0  0
 10 11  1  0  0  0
 11 12  1  0  0  0
 11 13  2  0  0  0
 13 14  1  0  0  0
 19 20  2  0  0  0
 20 21  1  0  0  0
 21 22  1  0  0  0
 21 16  2  0  0  0
 14  3  2  0  0  0
 14  8  1  0  0  0
  1  2  1  0  0  0
M  END
> <minimizedAffinity>
-9.30035

$$$$



 24 26  0  0  0  0  0  0  0  0999 V2000
    0.9519   64.5995   82.7925 N   0  0  0  0  0  0  0  0  0  0  0  0
    1.5324   64.7703   83.6091 H   0  0  0  0  0  0  0  0  0  0  0  0
    0.7309   65.8403   82.1505 C   0  0  0  0  0  0  0  0  0  0  0  0
   -0.1669   65.9337   81.1445 N   0  0  0  0  0  0  0  0  0  0  0  0
   -0.4198   67.1250   80.5302 N   0  0  0  0  0  0  0  0  0  0  0  0
    0.2442   68.2248   80.9285 C   0  0  0  0  0  0  0  0  0  0  0  0
   -0.2044   69.6351   80.0481 Cl  0  0  0  0  0  0  0  0  0  0  0  0
    1.1954   68.2222   81.9547 C   0  0  0  0  0  0  0  0  0  0  0  0
    1.9063   69.3718   82.3867 C   0  0  0  0  0  0  0  0  0  0  0  0
    2.8521   69.2991   83.4100 C   0  0  0  0  0  0  0  0  0  0  0  0
    3.1091   68.0786   84.0161 C   0  0  0  0  0  0  0  0  0  0  0  0
    4.2802   67.9756   85.2713 Cl  0  0  0  0  0  0  0  0  0  0  0  0
    2.4233   66.9347   83.6118 C   0  0  0  0  0  0  0  0  0  0  0  0
    1.4490   66.9809   82.5839 C   0  0  0  0  0  0  0  0  0  0  0  0
   -0.2461   63.8434   83.1485 C   0  0  0  0  0  0  0  0  0  0  0  0
   -0.5710   63.4152   87.4562 C   0  0  0  0  0  0  0  0  0  0  0  0
    0.4533   64.1811   86.8914 C   0  0  0  0  0  0  0  0  0  0  0  0
    0.5557   64.3170   85.5016 C   0  0  0  0  0  0  0  0  0  0  0  0
   -0.3640   63.6937   84.6474 C   0  0  0  0  0  0  0  0  0  0  0  0
   -1.3865   62.9215   85.2120 C   0  0  0  0  0  0  0  0  0  0  0  0
   -1.4893   62.7856   86.6007 C   0  0  0  0  0  0  0  0  0  0  0  0
   -2.7834   61.8196   87.2233 Cl  0  0  0  0  0  0  0  0  0  0  0  0
    0.1495   62.3611   89.4756 C   0  0  0  0  0  0  0  0  0  0  0  0
   -0.7505   63.2304   88.8026 O   0  0  0  0  0  0  0  0  0  0  0  0
 23 24  1  0  0  0
 24 16  1  0  0  0
 16 17  1  0  0  0
 17 18  2  0  0  0
 18 19  1  0  0  0
 19 15  1  0  0  0
 15  1  1  0  0  0
  1  3  1  0  0  0
  3  4  1  0  0  0
  4  5  2  0  0  0
  5  6  1  0  0  0
  6  7  1  0  0  0
  6  8  2  0  0  0
  8  9  1  0  0  0
  9 10  2  0  0  0
 10 11  1  0  0  0
 11 12  1  0  0  0
 11 13  2  0  0  0
 13 14  1  0  0  0
 19 20  2  0  0  0
 20 21  1  0  0  0
 21 22  1  0  0  0
 21 16  2  0  0  0
 14  3  2  0  0  0
 14  8  1  0  0  0
  1  2  1  0  0  0
M  END
> <minimizedAffinity>
-9.17331

$$$$



 24 26  0  0  0  0  0  0  0  0999 V2000
    1.2102   66.3139   84.8961 N   0  0  0  0  0  0  0  0  0  0  0  0
    1.7507   65.9855   85.6918 H   0  0  0  0  0  0  0  0  0  0  0  0
    0.5506   65.1981   84.3299 C   0  0  0  0  0  0  0  0  0  0  0  0
    0.3672   65.1246   82.9929 N   0  0  0  0  0  0  0  0  0  0  0  0
   -0.2388   64.0451   82.4201 N   0  0  0  0  0  0  0  0  0  0  0  0
   -0.6690   63.0396   83.2032 C   0  0  0  0  0  0  0  0  0  0  0  0
   -1.4024   61.7617   82.3120 Cl  0  0  0  0  0  0  0  0  0  0  0  0
   -0.5293   63.0323   84.5954 C   0  0  0  0  0  0  0  0  0  0  0  0
   -0.9785   61.9818   85.4369 C   0  0  0  0  0  0  0  0  0  0  0  0
   -0.8185   62.0414   86.8218 C   0  0  0  0  0  0  0  0  0  0  0  0
   -0.2134   63.1514   87.3915 C   0  0  0  0  0  0  0  0  0  0  0  0
   -0.0204   63.2401   89.0981 Cl  0  0  0  0  0  0  0  0  0  0  0  0
    0.2384   64.1962   86.5873 C   0  0  0  0  0  0  0  0  0  0  0  0
    0.1004   64.1573   85.1775 C   0  0  0  0  0  0  0  0  0  0  0  0
    2.0409   67.0947   83.9830 C   0  0  0  0  0  0  0  0  0  0  0  0
    6.2039   67.0269   85.2119 C   0  0  0  0  0  0  0  0  0  0  0  0
    5.7513   67.9650   84.2793 C   0  0  0  0  0  0  0  0  0  0  0  0
    4.4081   67.9841   83.8846 C   0  0  0  0  0  0  0  0  0  0  0  0
    3.4886   67.0692   84.4151 C   0  0  0  0  0  0  0  0  0  0  0  0
    3.9422   66.1254   85.3445 C   0  0  0  0  0  0  0  0  0  0  0  0
    5.2843   66.1061   85.7394 C   0  0  0  0  0  0  0  0  0  0  0  0
    5.7679   64.9134   86.8965 Cl  0  0  0  0  0  0  0  0  0  0  0  0
    8.4389   66.2766   84.8250 C   0  0  0  0  0  0  0  0  0  0  0  0
    7.4968   66.9372   85.6585 O   0  0  0  0  0  0  0  0  0  0  0  0
 23 24  1  0  0  0
 24 16  1  0  0  0
 16 17  1  0  0  0
 17 18  2  0  0  0
 18 19  1  0  0  0
 19 15  1  0  0  0
 15  1  1  0  0  0
  1  3  1  0  0  0
  3  4  1  0  0  0
  4  5  2  0  0  0
  5  6  1  0  0  0
  6  7  1  0  0  0
  6  8  2  0  0  0
  8  9  1  0  0  0
  9 10  2  0  0  0
 10 11  1  0  0  0
 11 12  1  0  0  0
 11 13  2  0  0  0
 13 14  1  0  0  0
 19 20  2  0  0  0
 20 21  1  0  0  0
 21 22  1  0  0  0
 21 16  2  0  0  0
 14  3  2  0  0  0
 14  8  1  0  0  0
  1  2  1  0  0  0
M  END
> <minimizedAffinity>
-8.94012

$$$$



 24 26  0  0  0  0  0  0  0  0999 V2000
    0.5649   65.1934   81.3869 N   0  0  0  0  0  0  0  0  0  0  0  0
    1.1476   64.8358   82.1390 H   0  0  0  0  0  0  0  0  0  0  0  0
    0.6286   66.6060   81.4234 C   0  0  0  0  0  0  0  0  0  0  0  0
   -0.1644   67.3424   80.6139 N   0  0  0  0  0  0  0  0  0  0  0  0
   -0.1432   68.7058   80.6521 N   0  0  0  0  0  0  0  0  0  0  0  0
    0.6896   69.3273   81.5062 C   0  0  0  0  0  0  0  0  0  0  0  0
    0.5788   71.0436   81.4219 Cl  0  0  0  0  0  0  0  0  0  0  0  0
    1.5508   68.6484   82.3752 C   0  0  0  0  0  0  0  0  0  0  0  0
    2.4368   69.2872   83.2810 C   0  0  0  0  0  0  0  0  0  0  0  0
    3.2795   68.5506   84.1142 C   0  0  0  0  0  0  0  0  0  0  0  0
    3.2574   67.1654   84.0546 C   0  0  0  0  0  0  0  0  0  0  0  0
    4.2993   66.2479   85.0696 Cl  0  0  0  0  0  0  0  0  0  0  0  0
    2.3953   66.5133   83.1750 C   0  0  0  0  0  0  0  0  0  0  0  0
    1.5198   67.2350   82.3261 C   0  0  0  0  0  0  0  0  0  0  0  0
   -0.7748   64.6139   81.4392 C   0  0  0  0  0  0  0  0  0  0  0  0
   -1.3936   62.4392   85.1451 C   0  0  0  0  0  0  0  0  0  0  0  0
   -2.1840   62.1741   84.0226 C   0  0  0  0  0  0  0  0  0  0  0  0
   -1.9823   62.8775   82.8289 C   0  0  0  0  0  0  0  0  0  0  0  0
   -0.9854   63.8576   82.7302 C   0  0  0  0  0  0  0  0  0  0  0  0
   -0.1975   64.1280   83.8556 C   0  0  0  0  0  0  0  0  0  0  0  0
   -0.3986   63.4252   85.0486 C   0  0  0  0  0  0  0  0  0  0  0  0
    0.6188   63.8119   86.3943 Cl  0  0  0  0  0  0  0  0  0  0  0  0
   -2.5717   62.2076   87.2105 C   0  0  0  0  0  0  0  0  0  0  0  0
   -1.5171   61.7987   86.3507 O   0  0  0  0  0  0  0  0  0  0  0  0
 23 24  1  0  0  0
 24 16  1  0  0  0
 16 17  1  0  0  0
 17 18  2  0  0  0
 18 19  1  0  0  0
 19 15  1  0  0  0
 15  1  1  0  0  0
  1  3  1  0  0  0
  3  4  1  0  0  0
  4  5  2  0  0  0
  5  6  1  0  0  0
  6  7  1  0  0  0
  6  8  2  0  0  0
  8  9  1  0  0  0
  9 10  2  0  0  0
 10 11  1  0  0  0
 11 12  1  0  0  0
 11 13  2  0  0  0
 13 14  1  0  0  0
 19 20  2  0  0  0
 20 21  1  0  0  0
 21 22  1  0  0  0
 21 16  2  0  0  0
 14  3  2  0  0  0
 14  8  1  0  0  0
  1  2  1  0  0  0
M  END
> <minimizedAffinity>
-8.84072

$$$$



 24 26  0  0  0  0  0  0  0  0999 V2000
   -0.8682   62.3508   82.7382 N   0  0  0  0  0  0  0  0  0  0  0  0
   -0.0219   62.4692   83.2885 H   0  0  0  0  0  0  0  0  0  0  0  0
   -0.6746   63.0047   81.4990 C   0  0  0  0  0  0  0  0  0  0  0  0
   -1.1960   62.4821   80.3669 N   0  0  0  0  0  0  0  0  0  0  0  0
   -1.0489   63.1096   79.1648 N   0  0  0  0  0  0  0  0  0  0  0  0
   -0.3642   64.2659   79.1054 C   0  0  0  0  0  0  0  0  0  0  0  0
   -0.2836   64.9170   77.5134 Cl  0  0  0  0  0  0  0  0  0  0  0  0
    0.2162   64.8767   80.2224 C   0  0  0  0  0  0  0  0  0  0  0  0
    0.9431   66.0947   80.1782 C   0  0  0  0  0  0  0  0  0  0  0  0
    1.5076   66.6459   81.3291 C   0  0  0  0  0  0  0  0  0  0  0  0
    1.3621   65.9898   82.5420 C   0  0  0  0  0  0  0  0  0  0  0  0
    2.0626   66.6549   83.9649 Cl  0  0  0  0  0  0  0  0  0  0  0  0
    0.6514   64.7930   82.6131 C   0  0  0  0  0  0  0  0  0  0  0  0
    0.0570   64.2164   81.4633 C   0  0  0  0  0  0  0  0  0  0  0  0
   -2.0488   62.7573   83.4961 C   0  0  0  0  0  0  0  0  0  0  0  0
   -1.1512   63.0859   87.7307 C   0  0  0  0  0  0  0  0  0  0  0  0
   -2.3990   62.6249   87.3003 C   0  0  0  0  0  0  0  0  0  0  0  0
   -2.6857   62.5204   85.9339 C   0  0  0  0  0  0  0  0  0  0  0  0
   -1.7316   62.8710   84.9691 C   0  0  0  0  0  0  0  0  0  0  0  0
   -0.4839   63.3386   85.3991 C   0  0  0  0  0  0  0  0  0  0  0  0
   -0.1969   63.4429   86.7645 C   0  0  0  0  0  0  0  0  0  0  0  0
    1.3692   64.0237   87.2178 Cl  0  0  0  0  0  0  0  0  0  0  0  0
    0.0990   62.2408   89.5829 C   0  0  0  0  0  0  0  0  0  0  0  0
   -0.7823   63.2165   89.0444 O   0  0  0  0  0  0  0  0  0  0  0  0
 23 24  1  0  0  0
 24 16  1  0  0  0
 16 17  1  0  0  0
 17 18  2  0  0  0
 18 19  1  0  0  0
 19 15  1  0  0  0
 15  1  1  0  0  0
  1  3  1  0  0  0
  3  4  1  0  0  0
  4  5  2  0  0  0
  5  6  1  0  0  0
  6  7  1  0  0  0
  6  8  2  0  0  0
  8  9  1  0  0  0
  9 10  2  0  0  0
 10 11  1  0  0  0
 11 12  1  0  0  0
 11 13  2  0  0  0
 13 14  1  0  0  0
 19 20  2  0  0  0
 20 21  1  0  0  0
 21 22  1  0  0  0
 21 16  2  0  0  0
 14  3  2  0  0  0
 14  8  1  0  0  0
  1  2  1  0  0  0
M  END
> <minimizedAffinity>
-8.81507

$$$$



 24 26  0  0  0  0  0  0  0  0999 V2000
    2.6918   68.7273   83.3064 N   0  0  0  0  0  0  0  0  0  0  0  0
    2.3846   68.4081   84.2212 H   0  0  0  0  0  0  0  0  0  0  0  0
    2.1566   67.8464   82.3377 C   0  0  0  0  0  0  0  0  0  0  0  0
    2.2527   68.1440   81.0228 N   0  0  0  0  0  0  0  0  0  0  0  0
    1.7715   67.2964   80.0686 N   0  0  0  0  0  0  0  0  0  0  0  0
    1.1828   66.1472   80.4455 C   0  0  0  0  0  0  0  0  0  0  0  0
    0.6415   65.2018   79.1120 Cl  0  0  0  0  0  0  0  0  0  0  0  0
    1.0321   65.7599   81.7815 C   0  0  0  0  0  0  0  0  0  0  0  0
    0.4125   64.5529   82.1973 C   0  0  0  0  0  0  0  0  0  0  0  0
    0.2836   64.2306   83.5488 C   0  0  0  0  0  0  0  0  0  0  0  0
    0.7648   65.1084   84.5085 C   0  0  0  0  0  0  0  0  0  0  0  0
    0.6019   64.7260   86.1773 Cl  0  0  0  0  0  0  0  0  0  0  0  0
    1.3791   66.2997   84.1267 C   0  0  0  0  0  0  0  0  0  0  0  0
    1.5349   66.6472   82.7618 C   0  0  0  0  0  0  0  0  0  0  0  0
    4.1408   68.9082   83.2724 C   0  0  0  0  0  0  0  0  0  0  0  0
    6.0788   66.4511   86.2812 C   0  0  0  0  0  0  0  0  0  0  0  0
    5.0528   67.3331   86.6339 C   0  0  0  0  0  0  0  0  0  0  0  0
    4.4300   68.1246   85.6613 C   0  0  0  0  0  0  0  0  0  0  0  0
    4.8164   68.0495   84.3162 C   0  0  0  0  0  0  0  0  0  0  0  0
    5.8478   67.1710   83.9631 C   0  0  0  0  0  0  0  0  0  0  0  0
    6.4703   66.3797   84.9346 C   0  0  0  0  0  0  0  0  0  0  0  0
    7.7332   65.3142   84.4197 Cl  0  0  0  0  0  0  0  0  0  0  0  0
    6.0566   65.2527   88.3479 C   0  0  0  0  0  0  0  0  0  0  0  0
    6.7406   65.6370   87.1634 O   0  0  0  0  0  0  0  0  0  0  0  0
 23 24  1  0  0  0
 24 16  1  0  0  0
 16 17  1  0  0  0
 17 18  2  0  0  0
 18 19  1  0  0  0
 19 15  1  0  0  0
 15  1  1  0  0  0
  1  3  1  0  0  0
  3  4  1  0  0  0
  4  5  2  0  0  0
  5  6  1  0  0  0
  6  7  1  0  0  0
  6  8  2  0  0  0
  8  9  1  0  0  0
  9 10  2  0  0  0
 10 11  1  0  0  0
 11 12  1  0  0  0
 11 13  2  0  0  0
 13 14  1  0  0  0
 19 20  2  0  0  0
 20 21  1  0  0  0
 21 22  1  0  0  0
 21 16  2  0  0  0
 14  3  2  0  0  0
 14  8  1  0  0  0
  1  2  1  0  0  0
M  END
> <minimizedAffinity>
-8.77982

$$$$



 24 26  0  0  0  0  0  0  0  0999 V2000
    1.6143   64.9012   84.0981 N   0  0  0  0  0  0  0  0  0  0  0  0
    0.9222   65.1803   83.4080 H   0  0  0  0  0  0  0  0  0  0  0  0
    0.9238   64.3974   85.2251 C   0  0  0  0  0  0  0  0  0  0  0  0
    1.4044   64.6163   86.4692 N   0  0  0  0  0  0  0  0  0  0  0  0
    0.7410   64.1670   87.5731 N   0  0  0  0  0  0  0  0  0  0  0  0
   -0.4085   63.4859   87.4182 C   0  0  0  0  0  0  0  0  0  0  0  0
   -1.1086   63.0020   88.9152 Cl  0  0  0  0  0  0  0  0  0  0  0  0
   -0.9771   63.2059   86.1708 C   0  0  0  0  0  0  0  0  0  0  0  0
   -2.1873   62.4877   85.9886 C   0  0  0  0  0  0  0  0  0  0  0  0
   -2.6953   62.2318   84.7144 C   0  0  0  0  0  0  0  0  0  0  0  0
   -2.0029   62.6824   83.6006 C   0  0  0  0  0  0  0  0  0  0  0  0
   -2.6147   62.3636   82.0252 Cl  0  0  0  0  0  0  0  0  0  0  0  0
   -0.8129   63.3917   83.7521 C   0  0  0  0  0  0  0  0  0  0  0  0
   -0.2797   63.6768   85.0337 C   0  0  0  0  0  0  0  0  0  0  0  0
    2.5602   65.9828   84.3607 C   0  0  0  0  0  0  0  0  0  0  0  0
    1.5752   69.5148   82.0369 C   0  0  0  0  0  0  0  0  0  0  0  0
    2.4532   69.5975   83.1218 C   0  0  0  0  0  0  0  0  0  0  0  0
    2.7686   68.4566   83.8697 C   0  0  0  0  0  0  0  0  0  0  0  0
    2.2165   67.2093   83.5479 C   0  0  0  0  0  0  0  0  0  0  0  0
    1.3324   67.1268   82.4654 C   0  0  0  0  0  0  0  0  0  0  0  0
    1.0171   68.2665   81.7176 C   0  0  0  0  0  0  0  0  0  0  0  0
   -0.0791   68.0834   80.3909 Cl  0  0  0  0  0  0  0  0  0  0  0  0
    0.2359   71.4732   81.7561 C   0  0  0  0  0  0  0  0  0  0  0  0
    1.2133   70.5758   81.2480 O   0  0  0  0  0  0  0  0  0  0  0  0
 23 24  1  0  0  0
 24 16  1  0  0  0
 16 17  1  0  0  0
 17 18  2  0  0  0
 18 19  1  0  0  0
 19 15  1  0  0  0
 15  1  1  0  0  0
  1  3  1  0  0  0
  3  4  1  0  0  0
  4  5  2  0  0  0
  5  6  1  0  0  0
  6  7  1  0  0  0
  6  8  2  0  0  0
  8  9  1  0  0  0
  9 10  2  0  0  0
 10 11  1  0  0  0
 11 12  1  0  0  0
 11 13  2  0  0  0
 13 14  1  0  0  0
 19 20  2  0  0  0
 20 21  1  0  0  0
 21 22  1  0  0  0
 21 16  2  0  0  0
 14  3  2  0  0  0
 14  8  1  0  0  0
  1  2  1  0  0  0
M  END
> <minimizedAffinity>
-8.75273

$$$$



 24 26  0  0  0  0  0  0  0  0999 V2000
   -2.2460   62.4549   82.8981 N   0  0  0  0  0  0  0  0  0  0  0  0
   -2.9065   62.7508   82.1845 H   0  0  0  0  0  0  0  0  0  0  0  0
   -1.2392   63.4438   82.9938 C   0  0  0  0  0  0  0  0  0  0  0  0
   -0.8957   64.1701   81.9070 N   0  0  0  0  0  0  0  0  0  0  0  0
    0.0505   65.1498   81.9809 N   0  0  0  0  0  0  0  0  0  0  0  0
    0.6582   65.3904   83.1564 C   0  0  0  0  0  0  0  0  0  0  0  0
    1.8172   66.6607   83.0650 Cl  0  0  0  0  0  0  0  0  0  0  0  0
    0.3732   64.6850   84.3307 C   0  0  0  0  0  0  0  0  0  0  0  0
    1.0053   64.9239   85.5785 C   0  0  0  0  0  0  0  0  0  0  0  0
    0.6827   64.1757   86.7113 C   0  0  0  0  0  0  0  0  0  0  0  0
   -0.2710   63.1733   86.6181 C   0  0  0  0  0  0  0  0  0  0  0  0
   -0.6688   62.2382   88.0055 Cl  0  0  0  0  0  0  0  0  0  0  0  0
   -0.9080   62.9196   85.4048 C   0  0  0  0  0  0  0  0  0  0  0  0
   -0.6096   63.6714   84.2413 C   0  0  0  0  0  0  0  0  0  0  0  0
   -1.7805   61.0927   82.6507 C   0  0  0  0  0  0  0  0  0  0  0  0
   -2.5312   59.9124   78.5411 C   0  0  0  0  0  0  0  0  0  0  0  0
   -3.4172   59.5496   79.5600 C   0  0  0  0  0  0  0  0  0  0  0  0
   -3.1721   59.9314   80.8846 C   0  0  0  0  0  0  0  0  0  0  0  0
   -2.0393   60.6859   81.2187 C   0  0  0  0  0  0  0  0  0  0  0  0
   -1.1484   61.0445   80.1998 C   0  0  0  0  0  0  0  0  0  0  0  0
   -1.3930   60.6634   78.8761 C   0  0  0  0  0  0  0  0  0  0  0  0
   -0.2487   61.1492   77.6719 Cl  0  0  0  0  0  0  0  0  0  0  0  0
   -3.4723   60.4608   76.4147 C   0  0  0  0  0  0  0  0  0  0  0  0
   -2.6926   59.5871   77.2193 O   0  0  0  0  0  0  0  0  0  0  0  0
 23 24  1  0  0  0
 24 16  1  0  0  0
 16 17  1  0  0  0
 17 18  2  0  0  0
 18 19  1  0  0  0
 19 15  1  0  0  0
 15  1  1  0  0  0
  1  3  1  0  0  0
  3  4  1  0  0  0
  4  5  2  0  0  0
  5  6  1  0  0  0
  6  7  1  0  0  0
  6  8  2  0  0  0
  8  9  1  0  0  0
  9 10  2  0  0  0
 10 11  1  0  0  0
 11 12  1  0  0  0
 11 13  2  0  0  0
 13 14  1  0  0  0
 19 20  2  0  0  0
 20 21  1  0  0  0
 21 22  1  0  0  0
 21 16  2  0  0  0
 14  3  2  0  0  0
 14  8  1  0  0  0
  1  2  1  0  0  0
M  END
> <minimizedAffinity>
-8.73200

$$$$
