
     RDKit          3D

 63 67  0  0  0  0  0  0  0  0999 V2000
   -0.6945    6.1957    0.4196 C   0  0  0  0  0  0  0  0  0  0  0  0
    0.0937    5.1977   -0.4097 C   0  0  0  0  0  0  0  0  0  0  0  0
   -0.5591    3.9287   -0.2988 O   0  0  0  0  0  0  0  0  0  0  0  0
    0.0485    2.9159   -1.0145 C   0  0  0  0  0  0  0  0  0  0  0  0
    1.1738    3.2191   -1.7120 N   0  0  0  0  0  0  0  0  0  0  0  0
    1.7678    2.2219   -2.4089 C   0  0  0  0  0  0  0  0  0  0  0  0
    1.2943    0.9261   -2.4130 C   0  0  0  0  0  0  0  0  0  0  0  0
    2.1266   -0.3052   -3.3614 S   0  0  0  0  0  0  0  0  0  0  0  0
    3.0061    0.3858   -4.2797 O   0  0  0  0  0  0  0  0  0  0  0  0
    1.1184   -1.2245   -3.8417 O   0  0  0  0  0  0  0  0  0  0  0  0
    3.0865   -1.1090   -2.2221 N   0  0  0  0  0  0  0  0  0  0  0  0
    2.3919   -1.9761   -1.2305 C   0  0  0  0  0  0  0  0  0  0  0  0
    3.4072   -2.8761   -0.4952 C   0  0  0  0  0  0  0  0  0  0  0  0
    4.5303   -2.1523    0.1451 N   0  0  0  0  0  0  0  0  0  0  0  0
    4.0863   -1.4182    1.3379 C   0  0  0  0  0  0  0  0  0  0  0  0
    5.2493   -0.8953    2.1746 C   0  0  0  0  0  0  0  0  0  0  0  0
    5.1760   -1.2997   -0.8774 C   0  0  0  0  0  0  0  0  0  0  0  0
    4.2224   -0.3491   -1.6316 C   0  0  0  0  0  0  0  0  0  0  0  0
    0.1244    0.6313   -1.7154 C   0  0  0  0  0  0  0  0  0  0  0  0
   -0.5195    1.6383   -0.9811 C   0  0  0  0  0  0  0  0  0  0  0  0
   -1.7479    1.2671   -0.2070 C   0  0  0  0  0  0  0  0  0  0  0  0
   -2.0681    0.0060   -0.1017 N   0  0  0  0  0  0  0  0  0  0  0  0
   -3.2284   -0.2292    0.6342 C   0  0  0  0  0  0  0  0  0  0  0  0
   -3.8303   -1.4233    0.9119 C   0  0  0  0  0  0  0  0  0  0  0  0
   -4.9355   -1.0807    1.6524 N   0  0  0  0  0  0  0  0  0  0  0  0
   -5.0666    0.2448    1.8787 N   0  0  0  0  0  0  0  0  0  0  0  0
   -4.0103    0.7670    1.2351 C   0  0  0  0  0  0  0  0  0  0  0  0
   -3.6297    2.1560    1.1140 C   0  0  0  0  0  0  0  0  0  0  0  0
   -4.2125    3.1191    1.6031 O   0  0  0  0  0  0  0  0  0  0  0  0
   -2.4807    2.3057    0.3592 N   0  0  0  0  0  0  0  0  0  0  0  0
   -5.8704   -2.0242    2.2370 C   0  0  0  0  0  0  0  0  0  0  0  0
   -5.7442   -3.4156    1.6143 C   0  0  0  0  0  0  0  0  0  0  0  0
   -4.2744   -3.8169    1.4578 C   0  0  0  0  0  0  0  0  0  0  0  0
   -3.5265   -2.8314    0.5530 C   0  0  0  0  0  0  0  0  0  0  0  0
   -0.7394    5.8767    1.4662 H   0  0  0  0  0  0  0  0  0  0  0  0
   -0.2391    7.1888    0.3717 H   0  0  0  0  0  0  0  0  0  0  0  0
   -1.7277    6.2623    0.0627 H   0  0  0  0  0  0  0  0  0  0  0  0
    0.1066    5.5311   -1.4542 H   0  0  0  0  0  0  0  0  0  0  0  0
    1.1166    5.1364   -0.0196 H   0  0  0  0  0  0  0  0  0  0  0  0
    2.6537    2.5174   -2.9664 H   0  0  0  0  0  0  0  0  0  0  0  0
    1.8495   -1.3585   -0.5079 H   0  0  0  0  0  0  0  0  0  0  0  0
    1.6710   -2.6233   -1.7406 H   0  0  0  0  0  0  0  0  0  0  0  0
    3.8335   -3.5855   -1.2172 H   0  0  0  0  0  0  0  0  0  0  0  0
    2.8838   -3.4920    0.2464 H   0  0  0  0  0  0  0  0  0  0  0  0
    3.5175   -2.1008    1.9820 H   0  0  0  0  0  0  0  0  0  0  0  0
    3.4149   -0.5885    1.0902 H   0  0  0  0  0  0  0  0  0  0  0  0
    5.9579   -1.6960    2.4114 H   0  0  0  0  0  0  0  0  0  0  0  0
    4.8741   -0.4910    3.1207 H   0  0  0  0  0  0  0  0  0  0  0  0
    5.7895   -0.0908    1.6671 H   0  0  0  0  0  0  0  0  0  0  0  0
    6.0012   -0.7249   -0.4442 H   0  0  0  0  0  0  0  0  0  0  0  0
    5.6491   -1.9662   -1.6116 H   0  0  0  0  0  0  0  0  0  0  0  0
    3.8428    0.4227   -0.9540 H   0  0  0  0  0  0  0  0  0  0  0  0
    4.7932    0.1432   -2.4258 H   0  0  0  0  0  0  0  0  0  0  0  0
   -0.2834   -0.3778   -1.7473 H   0  0  0  0  0  0  0  0  0  0  0  0
   -2.1711    3.2649    0.2614 H   0  0  0  0  0  0  0  0  0  0  0  0
   -5.6454   -2.0592    3.3088 H   0  0  0  0  0  0  0  0  0  0  0  0
   -6.8824   -1.6298    2.0990 H   0  0  0  0  0  0  0  0  0  0  0  0
   -6.2251   -3.4218    0.6280 H   0  0  0  0  0  0  0  0  0  0  0  0
   -6.2735   -4.1470    2.2347 H   0  0  0  0  0  0  0  0  0  0  0  0
   -4.2025   -4.8272    1.0398 H   0  0  0  0  0  0  0  0  0  0  0  0
   -3.8003   -3.8434    2.4473 H   0  0  0  0  0  0  0  0  0  0  0  0
   -2.4490   -3.0191    0.6202 H   0  0  0  0  0  0  0  0  0  0  0  0
   -3.8209   -2.9999   -0.4901 H   0  0  0  0  0  0  0  0  0  0  0  0
  1  2  1  0
  2  3  1  0
  3  4  1  0
  4  5  1  0
  5  6  2  0
  6  7  1  0
  7  8  1  0
  8  9  2  0
  8 10  2  0
  8 11  1  0
 11 12  1  0
 12 13  1  0
 13 14  1  0
 14 15  1  0
 15 16  1  0
 14 17  1  0
 17 18  1  0
  7 19  2  0
 19 20  1  0
 20 21  1  0
 21 22  2  0
 22 23  1  0
 23 24  2  0
 24 25  1  0
 25 26  1  0
 26 27  2  0
 27 28  1  0
 28 29  2  0
 28 30  1  0
 25 31  1  0
 31 32  1  0
 32 33  1  0
 33 34  1  0
 20  4  2  0
 30 21  1  0
 18 11  1  0
 27 23  1  0
 34 24  1  0
  1 35  1  0
  1 36  1  0
  1 37  1  0
  2 38  1  0
  2 39  1  0
  6 40  1  0
 12 41  1  0
 12 42  1  0
 13 43  1  0
 13 44  1  0
 15 45  1  0
 15 46  1  0
 16 47  1  0
 16 48  1  0
 16 49  1  0
 17 50  1  0
 17 51  1  0
 18 52  1  0
 18 53  1  0
 19 54  1  0
 30 55  1  0
 31 56  1  0
 31 57  1  0
 32 58  1  0
 32 59  1  0
 33 60  1  0
 33 61  1  0
 34 62  1  0
 34 63  1  0
M  END
$$$$
