
     RDKit          3D

 73 77  0  0  0  0  0  0  0  0999 V2000
   -3.1755   -4.1393    5.5623 C   0  0  0  0  0  0  0  0  0  0  0  0
   -2.4016   -4.1772    4.2561 C   0  0  0  0  0  0  0  0  0  0  0  0
   -2.5405   -2.8987    3.6315 O   0  0  0  0  0  0  0  0  0  0  0  0
   -2.0409   -2.7407    2.3627 C   0  0  0  0  0  0  0  0  0  0  0  0
   -1.2114   -3.6875    1.7451 C   0  0  0  0  0  0  0  0  0  0  0  0
   -0.7224   -3.4802    0.4522 C   0  0  0  0  0  0  0  0  0  0  0  0
   -1.0500   -2.3219   -0.2533 C   0  0  0  0  0  0  0  0  0  0  0  0
   -0.5151   -2.0900   -1.6466 C   0  0  0  0  0  0  0  0  0  0  0  0
    0.9761   -1.7039   -1.6755 C   0  0  0  0  0  0  0  0  0  0  0  0
    1.2289   -0.3200   -1.0531 C   0  0  0  0  0  0  0  0  0  0  0  0
    2.7002    0.0815   -1.1644 C   0  0  0  0  0  0  0  0  0  0  0  0
    3.1222    0.0395   -2.5721 N   0  0  0  0  0  0  0  0  0  0  0  0
    4.3407    0.6589   -2.8997 C   0  0  0  0  0  0  0  0  0  0  0  0
    4.5723    1.0491   -4.2306 C   0  0  0  0  0  0  0  0  0  0  0  0
    5.7612    1.6772   -4.6226 C   0  0  0  0  0  0  0  0  0  0  0  0
    6.7597    1.9266   -3.6786 C   0  0  0  0  0  0  0  0  0  0  0  0
    8.0464    2.5844   -4.0335 C   0  0  0  0  0  0  0  0  0  0  0  0
    8.7586    3.1046   -3.1780 O   0  0  0  0  0  0  0  0  0  0  0  0
    8.4288    2.5302   -5.3579 N   0  0  0  0  0  0  0  0  0  0  0  0
    9.7537    2.9716   -5.6036 O   0  0  0  0  0  0  0  0  0  0  0  0
    6.5392    1.5690   -2.3453 C   0  0  0  0  0  0  0  0  0  0  0  0
    5.3446    0.9436   -1.9643 C   0  0  0  0  0  0  0  0  0  0  0  0
    2.9575   -1.2817   -3.2033 C   0  0  0  0  0  0  0  0  0  0  0  0
    1.4922   -1.7116   -3.1239 C   0  0  0  0  0  0  0  0  0  0  0  0
   -1.8742   -1.3706    0.3615 C   0  0  0  0  0  0  0  0  0  0  0  0
   -2.3725   -1.5580    1.6665 C   0  0  0  0  0  0  0  0  0  0  0  0
   -3.2407   -0.4575    2.2240 C   0  0  0  0  0  0  0  0  0  0  0  0
   -3.6028    0.5348    1.4543 N   0  0  0  0  0  0  0  0  0  0  0  0
   -4.4004    1.4887    2.0872 C   0  0  0  0  0  0  0  0  0  0  0  0
   -4.9667    2.6696    1.5798 C   0  0  0  0  0  0  0  0  0  0  0  0
   -4.8622    3.2285    0.2048 C   0  0  0  0  0  0  0  0  0  0  0  0
   -3.5951    4.0471    0.0093 C   0  0  0  0  0  0  0  0  0  0  0  0
   -5.6751    3.3039    2.5340 N   0  0  0  0  0  0  0  0  0  0  0  0
   -5.5390    2.5104    3.6260 N   0  0  0  0  0  0  0  0  0  0  0  0
   -6.1843    2.8724    4.8646 C   0  0  0  0  0  0  0  0  0  0  0  0
   -4.7782    1.4085    3.3928 C   0  0  0  0  0  0  0  0  0  0  0  0
   -4.3954    0.3375    4.2351 C   0  0  0  0  0  0  0  0  0  0  0  0
   -4.7095    0.2009    5.4116 O   0  0  0  0  0  0  0  0  0  0  0  0
   -3.6057   -0.5659    3.5626 N   0  0  0  0  0  0  0  0  0  0  0  0
   -2.8060   -3.3333    6.2054 H   0  0  0  0  0  0  0  0  0  0  0  0
   -4.2351   -3.9358    5.3741 H   0  0  0  0  0  0  0  0  0  0  0  0
   -3.0865   -5.0888    6.0970 H   0  0  0  0  0  0  0  0  0  0  0  0
   -2.8190   -4.9641    3.6167 H   0  0  0  0  0  0  0  0  0  0  0  0
   -1.3458   -4.3795    4.4716 H   0  0  0  0  0  0  0  0  0  0  0  0
   -0.9161   -4.6044    2.2457 H   0  0  0  0  0  0  0  0  0  0  0  0
   -0.0822   -4.2350   -0.0007 H   0  0  0  0  0  0  0  0  0  0  0  0
   -1.1134   -1.3222   -2.1540 H   0  0  0  0  0  0  0  0  0  0  0  0
   -0.6712   -3.0125   -2.2215 H   0  0  0  0  0  0  0  0  0  0  0  0
    1.5510   -2.4482   -1.1072 H   0  0  0  0  0  0  0  0  0  0  0  0
    0.9423   -0.3153    0.0045 H   0  0  0  0  0  0  0  0  0  0  0  0
    0.6083    0.4310   -1.5591 H   0  0  0  0  0  0  0  0  0  0  0  0
    2.8053    1.0963   -0.7605 H   0  0  0  0  0  0  0  0  0  0  0  0
    3.3116   -0.5969   -0.5557 H   0  0  0  0  0  0  0  0  0  0  0  0
    3.7932    0.8926   -4.9740 H   0  0  0  0  0  0  0  0  0  0  0  0
    5.8638    1.9890   -5.6575 H   0  0  0  0  0  0  0  0  0  0  0  0
    8.0869    1.8079   -5.9816 H   0  0  0  0  0  0  0  0  0  0  0  0
   10.0353    3.2879   -4.7159 H   0  0  0  0  0  0  0  0  0  0  0  0
    7.2975    1.7716   -1.5908 H   0  0  0  0  0  0  0  0  0  0  0  0
    5.2295    0.6748   -0.9183 H   0  0  0  0  0  0  0  0  0  0  0  0
    3.5939   -2.0205   -2.6981 H   0  0  0  0  0  0  0  0  0  0  0  0
    3.2454   -1.2717   -4.2609 H   0  0  0  0  0  0  0  0  0  0  0  0
    1.3868   -2.7148   -3.5545 H   0  0  0  0  0  0  0  0  0  0  0  0
    0.8836   -1.0330   -3.7365 H   0  0  0  0  0  0  0  0  0  0  0  0
   -2.1251   -0.4627   -0.1862 H   0  0  0  0  0  0  0  0  0  0  0  0
   -4.8809    2.4108   -0.5256 H   0  0  0  0  0  0  0  0  0  0  0  0
   -5.7342    3.8575   -0.0109 H   0  0  0  0  0  0  0  0  0  0  0  0
   -2.7001    3.4378    0.1736 H   0  0  0  0  0  0  0  0  0  0  0  0
   -3.5594    4.8924    0.7049 H   0  0  0  0  0  0  0  0  0  0  0  0
   -3.5534    4.4431   -1.0103 H   0  0  0  0  0  0  0  0  0  0  0  0
   -6.9193    2.1011    5.1080 H   0  0  0  0  0  0  0  0  0  0  0  0
   -5.4226    2.9428    5.6450 H   0  0  0  0  0  0  0  0  0  0  0  0
   -6.6837    3.8378    4.7470 H   0  0  0  0  0  0  0  0  0  0  0  0
   -3.3034   -1.3694    4.0976 H   0  0  0  0  0  0  0  0  0  0  0  0
  1  2  1  0
  2  3  1  0
  3  4  1  0
  4  5  1  0
  5  6  2  0
  6  7  1  0
  7  8  1  0
  8  9  1  0
  9 10  1  0
 10 11  1  0
 11 12  1  0
 12 13  1  0
 13 14  1  0
 14 15  2  0
 15 16  1  0
 16 17  1  0
 17 18  2  0
 17 19  1  0
 19 20  1  0
 16 21  2  0
 21 22  1  0
 12 23  1  0
 23 24  1  0
  7 25  2  0
 25 26  1  0
 26 27  1  0
 27 28  2  0
 28 29  1  0
 29 30  1  0
 30 31  1  0
 31 32  1  0
 30 33  2  0
 33 34  1  0
 34 35  1  0
 34 36  1  0
 36 37  1  0
 37 38  2  0
 37 39  1  0
 26  4  2  0
 39 27  1  0
 24  9  1  0
 36 29  2  0
 22 13  2  0
  1 40  1  0
  1 41  1  0
  1 42  1  0
  2 43  1  0
  2 44  1  0
  5 45  1  0
  6 46  1  0
  8 47  1  0
  8 48  1  0
  9 49  1  0
 10 50  1  0
 10 51  1  0
 11 52  1  0
 11 53  1  0
 14 54  1  0
 15 55  1  0
 19 56  1  0
 20 57  1  0
 21 58  1  0
 22 59  1  0
 23 60  1  0
 23 61  1  0
 24 62  1  0
 24 63  1  0
 25 64  1  0
 31 65  1  0
 31 66  1  0
 32 67  1  0
 32 68  1  0
 32 69  1  0
 35 70  1  0
 35 71  1  0
 35 72  1  0
 39 73  1  0
M  END
$$$$
