
     RDKit          3D

 58 61  0  0  0  0  0  0  0  0999 V2000
   -4.7398   -3.3669    1.0223 C   0  0  0  0  0  0  0  0  0  0  0  0
   -3.9429   -3.1732   -0.2706 C   0  0  0  0  0  0  0  0  0  0  0  0
   -4.8474   -3.3415   -1.5030 C   0  0  0  0  0  0  0  0  0  0  0  0
   -3.0936   -1.8861   -0.2307 C   0  0  0  0  0  0  0  0  0  0  0  0
   -3.5756   -0.6565   -0.5097 C   0  0  0  0  0  0  0  0  0  0  0  0
   -4.9614   -0.3892   -0.7223 C   0  0  0  0  0  0  0  0  0  0  0  0
   -6.0989   -0.2057   -0.8715 N   0  0  0  0  0  0  0  0  0  0  0  0
   -2.6872    0.5294   -0.6193 C   0  0  0  0  0  0  0  0  0  0  0  0
   -3.1990    1.6314   -0.8275 O   0  0  0  0  0  0  0  0  0  0  0  0
   -1.3136    0.3428   -0.5187 N   0  0  0  0  0  0  0  0  0  0  0  0
   -0.5030    1.5344   -0.7923 C   0  0  0  0  0  0  0  0  0  0  0  0
   -0.0766    2.3421    0.4237 C   0  0  0  0  0  0  0  0  0  0  0  0
    1.0353    3.1934    0.3089 C   0  0  0  0  0  0  0  0  0  0  0  0
    1.4655    3.9630    1.3908 C   0  0  0  0  0  0  0  0  0  0  0  0
    0.7794    3.9070    2.6004 C   0  0  0  0  0  0  0  0  0  0  0  0
   -0.3393    3.0865    2.7249 C   0  0  0  0  0  0  0  0  0  0  0  0
   -0.7685    2.3139    1.6428 C   0  0  0  0  0  0  0  0  0  0  0  0
   -0.7418   -0.9194   -0.1057 C   0  0  0  0  0  0  0  0  0  0  0  0
    0.6626   -1.1287    0.1111 C   0  0  0  0  0  0  0  0  0  0  0  0
    1.6045   -0.1029   -0.0647 N   0  0  0  0  0  0  0  0  0  0  0  0
    2.9664   -0.3762   -0.5622 C   0  0  0  0  0  0  0  0  0  0  0  0
    2.9100   -0.8616   -2.0144 C   0  0  0  0  0  0  0  0  0  0  0  0
    3.8237    0.8880   -0.4189 C   0  0  0  0  0  0  0  0  0  0  0  0
    4.3720    1.1987    0.8283 C   0  0  0  0  0  0  0  0  0  0  0  0
    5.1283    2.3595    0.9679 C   0  0  0  0  0  0  0  0  0  0  0  0
    5.3171    3.1852   -0.1324 C   0  0  0  0  0  0  0  0  0  0  0  0
    4.7351    2.8165   -1.3319 C   0  0  0  0  0  0  0  0  0  0  0  0
    3.9940    1.6988   -1.4963 N   0  0  0  0  0  0  0  0  0  0  0  0
    1.0932   -2.3452    0.6694 C   0  0  0  0  0  0  0  0  0  0  0  0
    0.2030   -3.3625    0.9629 C   0  0  0  0  0  0  0  0  0  0  0  0
   -1.1443   -3.1893    0.6872 C   0  0  0  0  0  0  0  0  0  0  0  0
   -1.6410   -1.9997    0.1169 C   0  0  0  0  0  0  0  0  0  0  0  0
   -4.0872   -3.3321    1.9012 H   0  0  0  0  0  0  0  0  0  0  0  0
   -5.5087   -2.5973    1.1452 H   0  0  0  0  0  0  0  0  0  0  0  0
   -5.2425   -4.3403    1.0212 H   0  0  0  0  0  0  0  0  0  0  0  0
   -3.2717   -4.0321   -0.3723 H   0  0  0  0  0  0  0  0  0  0  0  0
   -5.7978   -2.8114   -1.4090 H   0  0  0  0  0  0  0  0  0  0  0  0
   -5.1019   -4.4003   -1.6336 H   0  0  0  0  0  0  0  0  0  0  0  0
   -4.3431   -3.0119   -2.4176 H   0  0  0  0  0  0  0  0  0  0  0  0
    0.3395    1.2609   -1.4350 H   0  0  0  0  0  0  0  0  0  0  0  0
   -1.0788    2.2260   -1.4223 H   0  0  0  0  0  0  0  0  0  0  0  0
    1.5831    3.2478   -0.6309 H   0  0  0  0  0  0  0  0  0  0  0  0
    2.3335    4.6078    1.2837 H   0  0  0  0  0  0  0  0  0  0  0  0
    1.1075    4.5112    3.4416 H   0  0  0  0  0  0  0  0  0  0  0  0
   -0.8878    3.0541    3.6628 H   0  0  0  0  0  0  0  0  0  0  0  0
   -1.6542    1.6965    1.7650 H   0  0  0  0  0  0  0  0  0  0  0  0
    1.6278    0.4749    0.7775 H   0  0  0  0  0  0  0  0  0  0  0  0
    3.4619   -1.1488    0.0366 H   0  0  0  0  0  0  0  0  0  0  0  0
    3.9175   -1.0075   -2.4196 H   0  0  0  0  0  0  0  0  0  0  0  0
    2.3861   -0.1467   -2.6597 H   0  0  0  0  0  0  0  0  0  0  0  0
    2.3812   -1.8175   -2.0924 H   0  0  0  0  0  0  0  0  0  0  0  0
    4.2090    0.5514    1.6843 H   0  0  0  0  0  0  0  0  0  0  0  0
    5.5622    2.6186    1.9294 H   0  0  0  0  0  0  0  0  0  0  0  0
    5.9004    4.0958   -0.0571 H   0  0  0  0  0  0  0  0  0  0  0  0
    4.8494    3.4297   -2.2214 H   0  0  0  0  0  0  0  0  0  0  0  0
    2.1358   -2.5121    0.9205 H   0  0  0  0  0  0  0  0  0  0  0  0
    0.5566   -4.2875    1.4110 H   0  0  0  0  0  0  0  0  0  0  0  0
   -1.7939   -4.0151    0.9617 H   0  0  0  0  0  0  0  0  0  0  0  0
  1  2  1  0
  2  3  1  0
  2  4  1  0
  4  5  2  0
  5  6  1  0
  6  7  3  0
  5  8  1  0
  8  9  2  0
  8 10  1  0
 10 11  1  0
 11 12  1  0
 12 13  2  0
 13 14  1  0
 14 15  2  0
 15 16  1  0
 16 17  2  0
 10 18  1  0
 18 19  1  0
 19 20  1  0
 20 21  1  0
 21 22  1  0
 21 23  1  0
 23 24  2  0
 24 25  1  0
 25 26  2  0
 26 27  1  0
 27 28  2  0
 19 29  2  0
 29 30  1  0
 30 31  2  0
 31 32  1  0
 32  4  1  0
 17 12  1  0
 32 18  2  0
 28 23  1  0
  1 33  1  0
  1 34  1  0
  1 35  1  0
  2 36  1  0
  3 37  1  0
  3 38  1  0
  3 39  1  0
 11 40  1  0
 11 41  1  0
 13 42  1  0
 14 43  1  0
 15 44  1  0
 16 45  1  0
 17 46  1  0
 20 47  1  0
 21 48  1  0
 22 49  1  0
 22 50  1  0
 22 51  1  0
 24 52  1  0
 25 53  1  0
 26 54  1  0
 27 55  1  0
 29 56  1  0
 30 57  1  0
 31 58  1  0
M  END
$$$$
