


 35 38  0  0  0  0  0  0  0  0999 V2000
   -1.0709   62.6243   83.9328 N   0  0  0  0  0  0  0  0  0  0  0  0
   -2.1525   62.0679   83.2490 C   0  0  0  0  0  0  0  0  0  0  0  0
   -2.8373   61.1571   83.6998 O   0  0  0  0  0  0  0  0  0  0  0  0
   -2.4642   62.6638   81.8477 C   0  0  0  0  0  0  0  0  0  0  0  0
   -1.7879   63.6716   81.3710 N   0  0  0  0  0  0  0  0  0  0  0  0
   -0.7665   64.2340   82.1352 C   0  0  0  0  0  0  0  0  0  0  0  0
   -0.1784   65.2924   81.5403 N   0  0  0  0  0  0  0  0  0  0  0  0
    0.8189   65.9064   82.2135 C   0  0  0  0  0  0  0  0  0  0  0  0
    1.2766   65.5257   83.4727 C   0  0  0  0  0  0  0  0  0  0  0  0
    0.6425   64.4185   84.0583 C   0  0  0  0  0  0  0  0  0  0  0  0
   -0.3918   63.7487   83.3916 C   0  0  0  0  0  0  0  0  0  0  0  0
    2.3604   66.2463   84.1500 C   0  0  0  0  0  0  0  0  0  0  0  0
    3.4166   65.5745   84.7782 C   0  0  0  0  0  0  0  0  0  0  0  0
    4.4297   66.2947   85.4105 C   0  0  0  0  0  0  0  0  0  0  0  0
    4.3626   67.6772   85.4001 C   0  0  0  0  0  0  0  0  0  0  0  0
    3.3670   68.3698   84.8111 N   0  0  0  0  0  0  0  0  0  0  0  0
    2.3977   67.6415   84.2063 C   0  0  0  0  0  0  0  0  0  0  0  0
    5.3889   68.3439   86.0376 O   0  0  0  0  0  0  0  0  0  0  0  0
    6.6660   67.7632   85.7950 C   0  0  0  0  0  0  0  0  0  0  0  0
   -3.4589   62.1702   81.0260 N   0  0  0  0  0  0  0  0  0  0  0  0
   -4.1710   62.8755   80.8606 H   0  0  0  0  0  0  0  0  0  0  0  0
   -3.3181   61.1622   79.9867 C   0  0  0  0  0  0  0  0  0  0  0  0
   -3.3225   61.8754   78.6180 C   0  0  0  0  0  0  0  0  0  0  0  0
   -2.5642   61.0739   77.5699 C   0  0  0  0  0  0  0  0  0  0  0  0
   -1.0873   60.9145   77.9434 C   0  0  0  0  0  0  0  0  0  0  0  0
   -0.6267   59.6953   77.3663 O   0  0  0  0  0  0  0  0  0  0  0  0
   -0.8433   60.8961   79.4568 C   0  0  0  0  0  0  0  0  0  0  0  0
   -2.0441   60.3261   80.2103 C   0  0  0  0  0  0  0  0  0  0  0  0
    0.3307   59.6346   77.5277 H   0  0  0  0  0  0  0  0  0  0  0  0
   -0.7434   62.0801   85.2454 C   0  0  0  0  0  0  0  0  0  0  0  0
   -1.6973   62.5659   86.3415 C   0  0  0  0  0  0  0  0  0  0  0  0
   -1.0925   63.5783   87.1480 O   0  0  0  0  0  0  0  0  0  0  0  0
   -0.9781   63.2023   88.5205 C   0  0  0  0  0  0  0  0  0  0  0  0
    1.4256   63.6831   87.8864 C   0  0  0  0  0  0  0  0  0  0  0  0
    0.4920   62.9722   88.8558 C   0  0  0  0  0  0  0  0  0  0  0  0
 34 35  1  0  0  0
 35 33  1  0  0  0
 33 32  1  0  0  0
 32 31  1  0  0  0
 31 30  1  0  0  0
 30  1  1  0  0  0
  1  2  1  0  0  0
  2  3  2  0  0  0
  2  4  1  0  0  0
  4 20  1  0  0  0
 20 22  1  0  0  0
 22 23  1  0  0  0
 23 24  1  0  0  0
 24 25  1  0  0  0
 25 26  1  0  0  0
 25 27  1  0  0  0
 27 28  1  0  0  0
  4  5  2  0  0  0
  5  6  1  0  0  0
  6  7  1  0  0  0
  7  8  2  0  0  0
  8  9  1  0  0  0
  9 12  1  0  0  0
 12 13  2  0  0  0
 13 14  1  0  0  0
 14 15  2  0  0  0
 15 18  1  0  0  0
 18 19  1  0  0  0
 15 16  1  0  0  0
 16 17  2  0  0  0
  9 10  2  0  0  0
 10 11  1  0  0  0
 11  1  1  0  0  0
 28 22  1  0  0  0
 11  6  2  0  0  0
 17 12  1  0  0  0
 20 21  1  0  0  0
 26 29  1  0  0  0
M  END
> <minimizedAffinity>
-9.42615

$$$$



 35 38  0  0  0  0  0  0  0  0999 V2000
    0.6176   63.8265   82.4661 N   0  0  0  0  0  0  0  0  0  0  0  0
    0.3699   62.5478   81.9657 C   0  0  0  0  0  0  0  0  0  0  0  0
    0.2850   61.5521   82.6750 O   0  0  0  0  0  0  0  0  0  0  0  0
    0.2033   62.4293   80.4248 C   0  0  0  0  0  0  0  0  0  0  0  0
    0.2307   63.4812   79.6546 N   0  0  0  0  0  0  0  0  0  0  0  0
    0.4063   64.7421   80.2229 C   0  0  0  0  0  0  0  0  0  0  0  0
    0.3740   65.7422   79.3181 N   0  0  0  0  0  0  0  0  0  0  0  0
    0.5281   67.0019   79.7812 C   0  0  0  0  0  0  0  0  0  0  0  0
    0.7140   67.3366   81.1204 C   0  0  0  0  0  0  0  0  0  0  0  0
    0.7450   66.2690   82.0315 C   0  0  0  0  0  0  0  0  0  0  0  0
    0.5957   64.9468   81.5927 C   0  0  0  0  0  0  0  0  0  0  0  0
    0.8655   68.7301   81.5535 C   0  0  0  0  0  0  0  0  0  0  0  0
   -0.0553   69.7217   81.1926 C   0  0  0  0  0  0  0  0  0  0  0  0
    0.1219   71.0356   81.6253 C   0  0  0  0  0  0  0  0  0  0  0  0
    1.2218   71.3289   82.4127 C   0  0  0  0  0  0  0  0  0  0  0  0
    2.1365   70.4112   82.7855 N   0  0  0  0  0  0  0  0  0  0  0  0
    1.9367   69.1444   82.3484 C   0  0  0  0  0  0  0  0  0  0  0  0
    1.3521   72.6421   82.8163 O   0  0  0  0  0  0  0  0  0  0  0  0
    2.6907   72.9914   83.1527 C   0  0  0  0  0  0  0  0  0  0  0  0
    0.0229   61.2214   79.7795 N   0  0  0  0  0  0  0  0  0  0  0  0
    0.6918   60.5330   80.1123 H   0  0  0  0  0  0  0  0  0  0  0  0
   -1.2229   60.6853   79.2537 C   0  0  0  0  0  0  0  0  0  0  0  0
   -2.3926   61.4516   79.9068 C   0  0  0  0  0  0  0  0  0  0  0  0
   -3.6249   61.4533   79.0139 C   0  0  0  0  0  0  0  0  0  0  0  0
   -3.3572   62.1694   77.6866 C   0  0  0  0  0  0  0  0  0  0  0  0
   -4.2141   61.5913   76.7053 O   0  0  0  0  0  0  0  0  0  0  0  0
   -1.8985   62.0669   77.2260 C   0  0  0  0  0  0  0  0  0  0  0  0
   -1.2464   60.7749   77.7162 C   0  0  0  0  0  0  0  0  0  0  0  0
   -4.1093   62.1014   75.8835 H   0  0  0  0  0  0  0  0  0  0  0  0
    0.7913   63.9712   83.9067 C   0  0  0  0  0  0  0  0  0  0  0  0
   -0.4955   63.6875   84.6886 C   0  0  0  0  0  0  0  0  0  0  0  0
   -0.2192   63.0306   85.9268 O   0  0  0  0  0  0  0  0  0  0  0  0
    0.0884   63.9404   86.9832 C   0  0  0  0  0  0  0  0  0  0  0  0
    0.2843   62.5898   89.1159 C   0  0  0  0  0  0  0  0  0  0  0  0
   -0.6067   63.4788   88.2600 C   0  0  0  0  0  0  0  0  0  0  0  0
 34 35  1  0  0  0
 35 33  1  0  0  0
 33 32  1  0  0  0
 32 31  1  0  0  0
 31 30  1  0  0  0
 30  1  1  0  0  0
  1  2  1  0  0  0
  2  3  2  0  0  0
  2  4  1  0  0  0
  4 20  1  0  0  0
 20 22  1  0  0  0
 22 23  1  0  0  0
 23 24  1  0  0  0
 24 25  1  0  0  0
 25 26  1  0  0  0
 25 27  1  0  0  0
 27 28  1  0  0  0
  4  5  2  0  0  0
  5  6  1  0  0  0
  6  7  1  0  0  0
  7  8  2  0  0  0
  8  9  1  0  0  0
  9 12  1  0  0  0
 12 13  2  0  0  0
 13 14  1  0  0  0
 14 15  2  0  0  0
 15 18  1  0  0  0
 18 19  1  0  0  0
 15 16  1  0  0  0
 16 17  2  0  0  0
  9 10  2  0  0  0
 10 11  1  0  0  0
 11  1  1  0  0  0
 28 22  1  0  0  0
 11  6  2  0  0  0
 17 12  1  0  0  0
 20 21  1  0  0  0
 26 29  1  0  0  0
M  END
> <minimizedAffinity>
-9.15556

$$$$



 35 38  0  0  0  0  0  0  0  0999 V2000
   -0.2288   63.9583   81.2214 N   0  0  0  0  0  0  0  0  0  0  0  0
   -0.3355   62.7763   80.4878 C   0  0  0  0  0  0  0  0  0  0  0  0
   -0.9656   61.7988   80.8741 O   0  0  0  0  0  0  0  0  0  0  0  0
    0.4011   62.7437   79.1194 C   0  0  0  0  0  0  0  0  0  0  0  0
    1.0288   63.7899   78.6594 N   0  0  0  0  0  0  0  0  0  0  0  0
    1.0358   64.9676   79.4055 C   0  0  0  0  0  0  0  0  0  0  0  0
    1.6853   65.9801   78.7948 N   0  0  0  0  0  0  0  0  0  0  0  0
    1.7355   67.1643   79.4429 C   0  0  0  0  0  0  0  0  0  0  0  0
    1.1639   67.4106   80.6889 C   0  0  0  0  0  0  0  0  0  0  0  0
    0.4993   66.3323   81.2943 C   0  0  0  0  0  0  0  0  0  0  0  0
    0.4294   65.0851   80.6596 C   0  0  0  0  0  0  0  0  0  0  0  0
    1.2498   68.7272   81.3305 C   0  0  0  0  0  0  0  0  0  0  0  0
    0.2836   69.7186   81.1185 C   0  0  0  0  0  0  0  0  0  0  0  0
    0.3990   70.9577   81.7478 C   0  0  0  0  0  0  0  0  0  0  0  0
    1.4840   71.1780   82.5786 C   0  0  0  0  0  0  0  0  0  0  0  0
    2.4407   70.2575   82.8136 N   0  0  0  0  0  0  0  0  0  0  0  0
    2.3005   69.0644   82.1871 C   0  0  0  0  0  0  0  0  0  0  0  0
    1.5525   72.4188   83.1787 O   0  0  0  0  0  0  0  0  0  0  0  0
    2.8359   73.0240   83.0619 C   0  0  0  0  0  0  0  0  0  0  0  0
    0.4428   61.6212   78.3154 N   0  0  0  0  0  0  0  0  0  0  0  0
    0.8031   60.8234   78.8309 H   0  0  0  0  0  0  0  0  0  0  0  0
   -0.4405   61.3052   77.2037 C   0  0  0  0  0  0  0  0  0  0  0  0
   -0.7005   59.7839   77.2102 C   0  0  0  0  0  0  0  0  0  0  0  0
   -2.0366   59.4445   76.5659 C   0  0  0  0  0  0  0  0  0  0  0  0
   -3.2066   60.0626   77.3374 C   0  0  0  0  0  0  0  0  0  0  0  0
   -4.2618   60.2926   76.4073 O   0  0  0  0  0  0  0  0  0  0  0  0
   -2.8422   61.3743   78.0424 C   0  0  0  0  0  0  0  0  0  0  0  0
   -1.7414   62.1248   77.2941 C   0  0  0  0  0  0  0  0  0  0  0  0
   -5.0355   60.6034   76.9084 H   0  0  0  0  0  0  0  0  0  0  0  0
   -0.8979   64.0183   82.5156 C   0  0  0  0  0  0  0  0  0  0  0  0
   -0.0029   63.5463   83.6662 C   0  0  0  0  0  0  0  0  0  0  0  0
   -0.0777   64.4341   84.7830 O   0  0  0  0  0  0  0  0  0  0  0  0
    1.2059   64.8118   85.2809 C   0  0  0  0  0  0  0  0  0  0  0  0
    3.0816   66.1892   84.2832 C   0  0  0  0  0  0  0  0  0  0  0  0
    1.6088   66.1477   84.6648 C   0  0  0  0  0  0  0  0  0  0  0  0
 34 35  1  0  0  0
 35 33  1  0  0  0
 33 32  1  0  0  0
 32 31  1  0  0  0
 31 30  1  0  0  0
 30  1  1  0  0  0
  1  2  1  0  0  0
  2  3  2  0  0  0
  2  4  1  0  0  0
  4 20  1  0  0  0
 20 22  1  0  0  0
 22 23  1  0  0  0
 23 24  1  0  0  0
 24 25  1  0  0  0
 25 26  1  0  0  0
 25 27  1  0  0  0
 27 28  1  0  0  0
  4  5  2  0  0  0
  5  6  1  0  0  0
  6  7  1  0  0  0
  7  8  2  0  0  0
  8  9  1  0  0  0
  9 12  1  0  0  0
 12 13  2  0  0  0
 13 14  1  0  0  0
 14 15  2  0  0  0
 15 18  1  0  0  0
 18 19  1  0  0  0
 15 16  1  0  0  0
 16 17  2  0  0  0
  9 10  2  0  0  0
 10 11  1  0  0  0
 11  1  1  0  0  0
 28 22  1  0  0  0
 11  6  2  0  0  0
 17 12  1  0  0  0
 20 21  1  0  0  0
 26 29  1  0  0  0
M  END
> <minimizedAffinity>
-9.11562

$$$$



 35 38  0  0  0  0  0  0  0  0999 V2000
    0.9705   64.6862   83.0270 N   0  0  0  0  0  0  0  0  0  0  0  0
    0.5321   63.4095   82.6736 C   0  0  0  0  0  0  0  0  0  0  0  0
    0.6552   62.4304   83.4002 O   0  0  0  0  0  0  0  0  0  0  0  0
   -0.1371   63.2709   81.2775 C   0  0  0  0  0  0  0  0  0  0  0  0
   -0.3327   64.3073   80.5107 N   0  0  0  0  0  0  0  0  0  0  0  0
    0.0594   65.5701   80.9525 C   0  0  0  0  0  0  0  0  0  0  0  0
   -0.2385   66.5548   80.0799 N   0  0  0  0  0  0  0  0  0  0  0  0
    0.0986   67.8154   80.4294 C   0  0  0  0  0  0  0  0  0  0  0  0
    0.7261   68.1659   81.6225 C   0  0  0  0  0  0  0  0  0  0  0  0
    1.0229   67.1139   82.5035 C   0  0  0  0  0  0  0  0  0  0  0  0
    0.6964   65.7911   82.1771 C   0  0  0  0  0  0  0  0  0  0  0  0
    1.0550   69.5599   81.9407 C   0  0  0  0  0  0  0  0  0  0  0  0
    0.1768   70.6120   81.6526 C   0  0  0  0  0  0  0  0  0  0  0  0
    0.5244   71.9243   81.9718 C   0  0  0  0  0  0  0  0  0  0  0  0
    1.7489   72.1552   82.5744 C   0  0  0  0  0  0  0  0  0  0  0  0
    2.6290   71.1777   82.8705 N   0  0  0  0  0  0  0  0  0  0  0  0
    2.2624   69.9141   82.5473 C   0  0  0  0  0  0  0  0  0  0  0  0
    2.0458   73.4697   82.8716 O   0  0  0  0  0  0  0  0  0  0  0  0
    3.4417   73.7478   82.8337 C   0  0  0  0  0  0  0  0  0  0  0  0
   -0.5575   62.0598   80.7631 N   0  0  0  0  0  0  0  0  0  0  0  0
   -0.3890   61.3096   81.4270 H   0  0  0  0  0  0  0  0  0  0  0  0
   -1.6453   61.8361   79.8237 C   0  0  0  0  0  0  0  0  0  0  0  0
   -1.2563   60.6583   78.9053 C   0  0  0  0  0  0  0  0  0  0  0  0
   -2.4863   59.9418   78.3672 C   0  0  0  0  0  0  0  0  0  0  0  0
   -3.3161   59.3232   79.4963 C   0  0  0  0  0  0  0  0  0  0  0  0
   -4.6729   59.2836   79.0612 O   0  0  0  0  0  0  0  0  0  0  0  0
   -3.2174   60.0979   80.8156 C   0  0  0  0  0  0  0  0  0  0  0  0
   -2.9673   61.5857   80.5735 C   0  0  0  0  0  0  0  0  0  0  0  0
   -5.1875   58.8127   79.7393 H   0  0  0  0  0  0  0  0  0  0  0  0
    1.6140   64.8490   84.3254 C   0  0  0  0  0  0  0  0  0  0  0  0
    0.6068   64.9583   85.4747 C   0  0  0  0  0  0  0  0  0  0  0  0
    0.9640   64.1055   86.5639 O   0  0  0  0  0  0  0  0  0  0  0  0
   -0.1371   63.8086   87.4228 C   0  0  0  0  0  0  0  0  0  0  0  0
   -2.5508   63.0583   87.2741 C   0  0  0  0  0  0  0  0  0  0  0  0
   -1.1627   62.9812   86.6546 C   0  0  0  0  0  0  0  0  0  0  0  0
 34 35  1  0  0  0
 35 33  1  0  0  0
 33 32  1  0  0  0
 32 31  1  0  0  0
 31 30  1  0  0  0
 30  1  1  0  0  0
  1  2  1  0  0  0
  2  3  2  0  0  0
  2  4  1  0  0  0
  4 20  1  0  0  0
 20 22  1  0  0  0
 22 23  1  0  0  0
 23 24  1  0  0  0
 24 25  1  0  0  0
 25 26  1  0  0  0
 25 27  1  0  0  0
 27 28  1  0  0  0
  4  5  2  0  0  0
  5  6  1  0  0  0
  6  7  1  0  0  0
  7  8  2  0  0  0
  8  9  1  0  0  0
  9 12  1  0  0  0
 12 13  2  0  0  0
 13 14  1  0  0  0
 14 15  2  0  0  0
 15 18  1  0  0  0
 18 19  1  0  0  0
 15 16  1  0  0  0
 16 17  2  0  0  0
  9 10  2  0  0  0
 10 11  1  0  0  0
 11  1  1  0  0  0
 28 22  1  0  0  0
 11  6  2  0  0  0
 17 12  1  0  0  0
 20 21  1  0  0  0
 26 29  1  0  0  0
M  END
> <minimizedAffinity>
-8.96666

$$$$



 35 38  0  0  0  0  0  0  0  0999 V2000
    2.0428   67.0420   82.0135 N   0  0  0  0  0  0  0  0  0  0  0  0
    2.8016   67.7807   82.9221 C   0  0  0  0  0  0  0  0  0  0  0  0
    3.4595   68.7651   82.6062 O   0  0  0  0  0  0  0  0  0  0  0  0
    2.7828   67.2904   84.3970 C   0  0  0  0  0  0  0  0  0  0  0  0
    2.0450   66.2818   84.7695 N   0  0  0  0  0  0  0  0  0  0  0  0
    1.2490   65.6308   83.8282 C   0  0  0  0  0  0  0  0  0  0  0  0
    0.5083   64.6344   84.3562 N   0  0  0  0  0  0  0  0  0  0  0  0
   -0.3009   63.9522   83.5168 C   0  0  0  0  0  0  0  0  0  0  0  0
   -0.4243   64.2074   82.1531 C   0  0  0  0  0  0  0  0  0  0  0  0
    0.3643   65.2493   81.6398 C   0  0  0  0  0  0  0  0  0  0  0  0
    1.2221   65.9779   82.4744 C   0  0  0  0  0  0  0  0  0  0  0  0
   -1.3322   63.4304   81.3019 C   0  0  0  0  0  0  0  0  0  0  0  0
   -2.5616   62.9531   81.7729 C   0  0  0  0  0  0  0  0  0  0  0  0
   -3.3986   62.2193   80.9328 C   0  0  0  0  0  0  0  0  0  0  0  0
   -2.9841   61.9782   79.6343 C   0  0  0  0  0  0  0  0  0  0  0  0
   -1.8104   62.4142   79.1344 N   0  0  0  0  0  0  0  0  0  0  0  0
   -1.0196   63.1234   79.9755 C   0  0  0  0  0  0  0  0  0  0  0  0
   -3.8476   61.2490   78.8424 O   0  0  0  0  0  0  0  0  0  0  0  0
   -3.1927   60.2264   78.0990 C   0  0  0  0  0  0  0  0  0  0  0  0
    3.5378   67.8780   85.3935 N   0  0  0  0  0  0  0  0  0  0  0  0
    2.9557   68.4593   85.9896 H   0  0  0  0  0  0  0  0  0  0  0  0
    4.7382   67.3419   86.0160 C   0  0  0  0  0  0  0  0  0  0  0  0
    4.7248   65.8076   85.8499 C   0  0  0  0  0  0  0  0  0  0  0  0
    6.1344   65.2343   85.8568 C   0  0  0  0  0  0  0  0  0  0  0  0
    6.9637   65.7655   84.6837 C   0  0  0  0  0  0  0  0  0  0  0  0
    8.3308   65.7631   85.0871 O   0  0  0  0  0  0  0  0  0  0  0  0
    6.5560   67.1761   84.2428 C   0  0  0  0  0  0  0  0  0  0  0  0
    5.9985   67.9882   85.4109 C   0  0  0  0  0  0  0  0  0  0  0  0
    8.8673   66.0168   84.3163 H   0  0  0  0  0  0  0  0  0  0  0  0
    2.0480   67.4677   80.6188 C   0  0  0  0  0  0  0  0  0  0  0  0
    1.0590   68.6052   80.3443 C   0  0  0  0  0  0  0  0  0  0  0  0
    1.7381   69.8236   80.0354 O   0  0  0  0  0  0  0  0  0  0  0  0
    1.3590   70.9039   80.8882 C   0  0  0  0  0  0  0  0  0  0  0  0
   -0.9185   71.7536   81.5965 C   0  0  0  0  0  0  0  0  0  0  0  0
    0.0341   70.5669   81.5646 C   0  0  0  0  0  0  0  0  0  0  0  0
 34 35  1  0  0  0
 35 33  1  0  0  0
 33 32  1  0  0  0
 32 31  1  0  0  0
 31 30  1  0  0  0
 30  1  1  0  0  0
  1  2  1  0  0  0
  2  3  2  0  0  0
  2  4  1  0  0  0
  4 20  1  0  0  0
 20 22  1  0  0  0
 22 23  1  0  0  0
 23 24  1  0  0  0
 24 25  1  0  0  0
 25 26  1  0  0  0
 25 27  1  0  0  0
 27 28  1  0  0  0
  4  5  2  0  0  0
  5  6  1  0  0  0
  6  7  1  0  0  0
  7  8  2  0  0  0
  8  9  1  0  0  0
  9 12  1  0  0  0
 12 13  2  0  0  0
 13 14  1  0  0  0
 14 15  2  0  0  0
 15 18  1  0  0  0
 18 19  1  0  0  0
 15 16  1  0  0  0
 16 17  2  0  0  0
  9 10  2  0  0  0
 10 11  1  0  0  0
 11  1  1  0  0  0
 28 22  1  0  0  0
 11  6  2  0  0  0
 17 12  1  0  0  0
 20 21  1  0  0  0
 26 29  1  0  0  0
M  END
> <minimizedAffinity>
-8.86932

$$$$



 35 38  0  0  0  0  0  0  0  0999 V2000
   -0.9304   63.4249   80.9883 N   0  0  0  0  0  0  0  0  0  0  0  0
   -1.6484   62.9460   79.8919 C   0  0  0  0  0  0  0  0  0  0  0  0
   -2.5066   62.0753   79.9775 O   0  0  0  0  0  0  0  0  0  0  0  0
   -1.3058   63.5764   78.5131 C   0  0  0  0  0  0  0  0  0  0  0  0
   -0.4392   64.5447   78.4040 N   0  0  0  0  0  0  0  0  0  0  0  0
    0.1906   65.0324   79.5481 C   0  0  0  0  0  0  0  0  0  0  0  0
    1.0300   66.0582   79.2966 N   0  0  0  0  0  0  0  0  0  0  0  0
    1.6793   66.6000   80.3500 C   0  0  0  0  0  0  0  0  0  0  0  0
    1.5402   66.1767   81.6697 C   0  0  0  0  0  0  0  0  0  0  0  0
    0.6605   65.1053   81.8915 C   0  0  0  0  0  0  0  0  0  0  0  0
   -0.0280   64.5101   80.8262 C   0  0  0  0  0  0  0  0  0  0  0  0
    2.2716   66.8194   82.7672 C   0  0  0  0  0  0  0  0  0  0  0  0
    2.2994   68.2108   82.9235 C   0  0  0  0  0  0  0  0  0  0  0  0
    3.0047   68.7848   83.9809 C   0  0  0  0  0  0  0  0  0  0  0  0
    3.6696   67.9495   84.8618 C   0  0  0  0  0  0  0  0  0  0  0  0
    3.6745   66.6056   84.7536 N   0  0  0  0  0  0  0  0  0  0  0  0
    2.9811   66.0788   83.7156 C   0  0  0  0  0  0  0  0  0  0  0  0
    4.3514   68.5651   85.8916 O   0  0  0  0  0  0  0  0  0  0  0  0
    5.2630   67.6953   86.5547 C   0  0  0  0  0  0  0  0  0  0  0  0
   -1.8834   63.1562   77.3307 N   0  0  0  0  0  0  0  0  0  0  0  0
   -2.2575   63.9463   76.8131 H   0  0  0  0  0  0  0  0  0  0  0  0
   -1.5034   62.0026   76.5303 C   0  0  0  0  0  0  0  0  0  0  0  0
   -0.2577   61.3573   77.1734 C   0  0  0  0  0  0  0  0  0  0  0  0
   -0.1705   59.8726   76.8512 C   0  0  0  0  0  0  0  0  0  0  0  0
   -1.3679   59.1028   77.4168 C   0  0  0  0  0  0  0  0  0  0  0  0
   -1.5868   57.9711   76.5783 O   0  0  0  0  0  0  0  0  0  0  0  0
   -2.6469   59.9443   77.4959 C   0  0  0  0  0  0  0  0  0  0  0  0
   -2.6798   61.0160   76.4072 C   0  0  0  0  0  0  0  0  0  0  0  0
   -2.2895   57.4341   76.9835 H   0  0  0  0  0  0  0  0  0  0  0  0
   -1.2186   62.8460   82.2953 C   0  0  0  0  0  0  0  0  0  0  0  0
   -0.0931   61.9374   82.8005 C   0  0  0  0  0  0  0  0  0  0  0  0
    0.1744   62.1598   84.1862 O   0  0  0  0  0  0  0  0  0  0  0  0
   -0.5821   63.2400   84.7329 C   0  0  0  0  0  0  0  0  0  0  0  0
    0.1716   63.9998   87.0276 C   0  0  0  0  0  0  0  0  0  0  0  0
    0.3487   64.1536   85.5237 C   0  0  0  0  0  0  0  0  0  0  0  0
 34 35  1  0  0  0
 35 33  1  0  0  0
 33 32  1  0  0  0
 32 31  1  0  0  0
 31 30  1  0  0  0
 30  1  1  0  0  0
  1  2  1  0  0  0
  2  3  2  0  0  0
  2  4  1  0  0  0
  4 20  1  0  0  0
 20 22  1  0  0  0
 22 23  1  0  0  0
 23 24  1  0  0  0
 24 25  1  0  0  0
 25 26  1  0  0  0
 25 27  1  0  0  0
 27 28  1  0  0  0
  4  5  2  0  0  0
  5  6  1  0  0  0
  6  7  1  0  0  0
  7  8  2  0  0  0
  8  9  1  0  0  0
  9 12  1  0  0  0
 12 13  2  0  0  0
 13 14  1  0  0  0
 14 15  2  0  0  0
 15 18  1  0  0  0
 18 19  1  0  0  0
 15 16  1  0  0  0
 16 17  2  0  0  0
  9 10  2  0  0  0
 10 11  1  0  0  0
 11  1  1  0  0  0
 28 22  1  0  0  0
 11  6  2  0  0  0
 17 12  1  0  0  0
 20 21  1  0  0  0
 26 29  1  0  0  0
M  END
> <minimizedAffinity>
-8.81457

$$$$



 35 38  0  0  0  0  0  0  0  0999 V2000
    1.0079   66.6091   81.9950 N   0  0  0  0  0  0  0  0  0  0  0  0
    1.6726   67.6322   82.6721 C   0  0  0  0  0  0  0  0  0  0  0  0
    1.9575   68.7066   82.1562 O   0  0  0  0  0  0  0  0  0  0  0  0
    2.0529   67.3476   84.1521 C   0  0  0  0  0  0  0  0  0  0  0  0
    1.7095   66.2362   84.7413 N   0  0  0  0  0  0  0  0  0  0  0  0
    0.9791   65.2828   84.0334 C   0  0  0  0  0  0  0  0  0  0  0  0
    0.6567   64.2023   84.7740 N   0  0  0  0  0  0  0  0  0  0  0  0
   -0.0594   63.2287   84.1706 C   0  0  0  0  0  0  0  0  0  0  0  0
   -0.4874   63.2652   82.8456 C   0  0  0  0  0  0  0  0  0  0  0  0
   -0.1302   64.4038   82.1061 C   0  0  0  0  0  0  0  0  0  0  0  0
    0.6176   65.4340   82.6915 C   0  0  0  0  0  0  0  0  0  0  0  0
   -1.2716   62.1735   82.2578 C   0  0  0  0  0  0  0  0  0  0  0  0
   -1.1351   61.8043   80.9138 C   0  0  0  0  0  0  0  0  0  0  0  0
   -1.8973   60.7597   80.3915 C   0  0  0  0  0  0  0  0  0  0  0  0
   -2.7833   60.1054   81.2299 C   0  0  0  0  0  0  0  0  0  0  0  0
   -2.9522   60.4238   82.5291 N   0  0  0  0  0  0  0  0  0  0  0  0
   -2.1980   61.4433   83.0060 C   0  0  0  0  0  0  0  0  0  0  0  0
   -3.5131   59.0785   80.6666 O   0  0  0  0  0  0  0  0  0  0  0  0
   -3.8598   59.3218   79.3073 C   0  0  0  0  0  0  0  0  0  0  0  0
    2.7723   68.2365   84.9270 N   0  0  0  0  0  0  0  0  0  0  0  0
    2.2937   68.4168   85.8047 H   0  0  0  0  0  0  0  0  0  0  0  0
    4.2163   68.4105   84.9504 C   0  0  0  0  0  0  0  0  0  0  0  0
    4.7127   68.1389   86.3862 C   0  0  0  0  0  0  0  0  0  0  0  0
    6.1577   67.6619   86.3951 C   0  0  0  0  0  0  0  0  0  0  0  0
    6.3163   66.3333   85.6493 C   0  0  0  0  0  0  0  0  0  0  0  0
    7.6414   66.2891   85.1260 O   0  0  0  0  0  0  0  0  0  0  0  0
    5.3038   66.1518   84.5125 C   0  0  0  0  0  0  0  0  0  0  0  0
    4.8903   67.4945   83.9117 C   0  0  0  0  0  0  0  0  0  0  0  0
    7.7731   65.4115   84.7276 H   0  0  0  0  0  0  0  0  0  0  0  0
    0.6472   66.8386   80.6009 C   0  0  0  0  0  0  0  0  0  0  0  0
    1.7762   66.4757   79.6307 C   0  0  0  0  0  0  0  0  0  0  0  0
    1.4026   65.3925   78.7775 O   0  0  0  0  0  0  0  0  0  0  0  0
   -0.0067   65.3130   78.5633 C   0  0  0  0  0  0  0  0  0  0  0  0
    0.8059   62.9775   78.0188 C   0  0  0  0  0  0  0  0  0  0  0  0
   -0.3397   63.9741   77.9128 C   0  0  0  0  0  0  0  0  0  0  0  0
 34 35  1  0  0  0
 35 33  1  0  0  0
 33 32  1  0  0  0
 32 31  1  0  0  0
 31 30  1  0  0  0
 30  1  1  0  0  0
  1  2  1  0  0  0
  2  3  2  0  0  0
  2  4  1  0  0  0
  4 20  1  0  0  0
 20 22  1  0  0  0
 22 23  1  0  0  0
 23 24  1  0  0  0
 24 25  1  0  0  0
 25 26  1  0  0  0
 25 27  1  0  0  0
 27 28  1  0  0  0
  4  5  2  0  0  0
  5  6  1  0  0  0
  6  7  1  0  0  0
  7  8  2  0  0  0
  8  9  1  0  0  0
  9 12  1  0  0  0
 12 13  2  0  0  0
 13 14  1  0  0  0
 14 15  2  0  0  0
 15 18  1  0  0  0
 18 19  1  0  0  0
 15 16  1  0  0  0
 16 17  2  0  0  0
  9 10  2  0  0  0
 10 11  1  0  0  0
 11  1  1  0  0  0
 28 22  1  0  0  0
 11  6  2  0  0  0
 17 12  1  0  0  0
 20 21  1  0  0  0
 26 29  1  0  0  0
M  END
> <minimizedAffinity>
-8.79409

$$$$



 35 38  0  0  0  0  0  0  0  0999 V2000
    0.7386   66.1728   81.6755 N   0  0  0  0  0  0  0  0  0  0  0  0
    0.4051   64.9813   82.3206 C   0  0  0  0  0  0  0  0  0  0  0  0
   -0.1996   64.0663   81.7740 O   0  0  0  0  0  0  0  0  0  0  0  0
    0.8408   64.8554   83.8074 C   0  0  0  0  0  0  0  0  0  0  0  0
    1.5359   65.7897   84.3942 N   0  0  0  0  0  0  0  0  0  0  0  0
    1.9042   66.9247   83.6733 C   0  0  0  0  0  0  0  0  0  0  0  0
    2.6535   67.7889   84.3885 N   0  0  0  0  0  0  0  0  0  0  0  0
    3.0634   68.9158   83.7663 C   0  0  0  0  0  0  0  0  0  0  0  0
    2.7695   69.2428   82.4447 C   0  0  0  0  0  0  0  0  0  0  0  0
    1.9851   68.3207   81.7337 C   0  0  0  0  0  0  0  0  0  0  0  0
    1.5336   67.1427   82.3431 C   0  0  0  0  0  0  0  0  0  0  0  0
    3.2570   70.4825   81.8300 C   0  0  0  0  0  0  0  0  0  0  0  0
    3.0821   71.7304   82.4411 C   0  0  0  0  0  0  0  0  0  0  0  0
    3.5612   72.8868   81.8262 C   0  0  0  0  0  0  0  0  0  0  0  0
    4.2072   72.7678   80.6079 C   0  0  0  0  0  0  0  0  0  0  0  0
    4.3990   71.5908   79.9787 N   0  0  0  0  0  0  0  0  0  0  0  0
    3.9213   70.4863   80.6012 C   0  0  0  0  0  0  0  0  0  0  0  0
    4.6640   73.9401   80.0409 O   0  0  0  0  0  0  0  0  0  0  0  0
    5.6494   74.5950   80.8328 C   0  0  0  0  0  0  0  0  0  0  0  0
    0.5216   63.7657   84.5939 N   0  0  0  0  0  0  0  0  0  0  0  0
    1.3335   63.1703   84.7293 H   0  0  0  0  0  0  0  0  0  0  0  0
   -0.4847   63.7055   85.6425 C   0  0  0  0  0  0  0  0  0  0  0  0
   -0.7904   62.2212   85.9345 C   0  0  0  0  0  0  0  0  0  0  0  0
   -1.2839   62.0242   87.3605 C   0  0  0  0  0  0  0  0  0  0  0  0
   -0.2209   62.4321   88.3852 C   0  0  0  0  0  0  0  0  0  0  0  0
   -0.9003   62.8588   89.5633 O   0  0  0  0  0  0  0  0  0  0  0  0
    0.7041   63.5488   87.8873 C   0  0  0  0  0  0  0  0  0  0  0  0
   -0.0096   64.4658   86.8950 C   0  0  0  0  0  0  0  0  0  0  0  0
   -0.2288   63.0353   90.2447 H   0  0  0  0  0  0  0  0  0  0  0  0
    0.3339   66.3287   80.2833 C   0  0  0  0  0  0  0  0  0  0  0  0
    1.4269   65.9008   79.2986 C   0  0  0  0  0  0  0  0  0  0  0  0
    0.9477   64.9131   78.3843 O   0  0  0  0  0  0  0  0  0  0  0  0
   -0.4740   64.9188   78.2535 C   0  0  0  0  0  0  0  0  0  0  0  0
   -1.6968   63.5165   76.5361 C   0  0  0  0  0  0  0  0  0  0  0  0
   -0.8422   64.7516   76.7827 C   0  0  0  0  0  0  0  0  0  0  0  0
 34 35  1  0  0  0
 35 33  1  0  0  0
 33 32  1  0  0  0
 32 31  1  0  0  0
 31 30  1  0  0  0
 30  1  1  0  0  0
  1  2  1  0  0  0
  2  3  2  0  0  0
  2  4  1  0  0  0
  4 20  1  0  0  0
 20 22  1  0  0  0
 22 23  1  0  0  0
 23 24  1  0  0  0
 24 25  1  0  0  0
 25 26  1  0  0  0
 25 27  1  0  0  0
 27 28  1  0  0  0
  4  5  2  0  0  0
  5  6  1  0  0  0
  6  7  1  0  0  0
  7  8  2  0  0  0
  8  9  1  0  0  0
  9 12  1  0  0  0
 12 13  2  0  0  0
 13 14  1  0  0  0
 14 15  2  0  0  0
 15 18  1  0  0  0
 18 19  1  0  0  0
 15 16  1  0  0  0
 16 17  2  0  0  0
  9 10  2  0  0  0
 10 11  1  0  0  0
 11  1  1  0  0  0
 28 22  1  0  0  0
 11  6  2  0  0  0
 17 12  1  0  0  0
 20 21  1  0  0  0
 26 29  1  0  0  0
M  END
> <minimizedAffinity>
-8.62530

$$$$



 35 38  0  0  0  0  0  0  0  0999 V2000
    0.8859   65.4043   83.4438 N   0  0  0  0  0  0  0  0  0  0  0  0
    0.1539   64.2195   83.3585 C   0  0  0  0  0  0  0  0  0  0  0  0
   -0.0581   63.4886   84.3191 O   0  0  0  0  0  0  0  0  0  0  0  0
   -0.3978   63.8480   81.9536 C   0  0  0  0  0  0  0  0  0  0  0  0
   -0.2363   64.6375   80.9285 N   0  0  0  0  0  0  0  0  0  0  0  0
    0.4396   65.8456   81.0940 C   0  0  0  0  0  0  0  0  0  0  0  0
    0.4987   66.5808   79.9645 N   0  0  0  0  0  0  0  0  0  0  0  0
    1.1297   67.7733   80.0337 C   0  0  0  0  0  0  0  0  0  0  0  0
    1.7169   68.2934   81.1847 C   0  0  0  0  0  0  0  0  0  0  0  0
    1.6378   67.4984   82.3390 C   0  0  0  0  0  0  0  0  0  0  0  0
    0.9982   66.2522   82.3093 C   0  0  0  0  0  0  0  0  0  0  0  0
    2.3787   69.6028   81.1889 C   0  0  0  0  0  0  0  0  0  0  0  0
    2.3878   70.4240   82.3233 C   0  0  0  0  0  0  0  0  0  0  0  0
    3.0291   71.6619   82.2891 C   0  0  0  0  0  0  0  0  0  0  0  0
    3.6495   72.0520   81.1148 C   0  0  0  0  0  0  0  0  0  0  0  0
    3.6674   71.2990   79.9966 N   0  0  0  0  0  0  0  0  0  0  0  0
    3.0351   70.1026   80.0616 C   0  0  0  0  0  0  0  0  0  0  0  0
    4.2711   73.2840   81.1318 O   0  0  0  0  0  0  0  0  0  0  0  0
    5.1905   73.4589   80.0589 C   0  0  0  0  0  0  0  0  0  0  0  0
   -1.0802   62.6738   81.7011 N   0  0  0  0  0  0  0  0  0  0  0  0
   -1.4646   62.2901   82.5596 H   0  0  0  0  0  0  0  0  0  0  0  0
   -1.7843   62.3137   80.4803 C   0  0  0  0  0  0  0  0  0  0  0  0
   -1.0835   61.0851   79.8626 C   0  0  0  0  0  0  0  0  0  0  0  0
   -2.0452   60.2610   79.0191 C   0  0  0  0  0  0  0  0  0  0  0  0
   -3.1920   59.6963   79.8630 C   0  0  0  0  0  0  0  0  0  0  0  0
   -4.3227   59.5476   79.0081 O   0  0  0  0  0  0  0  0  0  0  0  0
   -3.5591   60.5838   81.0581 C   0  0  0  0  0  0  0  0  0  0  0  0
   -3.2753   62.0571   80.7691 C   0  0  0  0  0  0  0  0  0  0  0  0
   -5.0245   59.1087   79.5192 H   0  0  0  0  0  0  0  0  0  0  0  0
    1.4283   65.7765   84.7452 C   0  0  0  0  0  0  0  0  0  0  0  0
    2.8921   65.3578   84.9170 C   0  0  0  0  0  0  0  0  0  0  0  0
    3.7597   66.4926   84.9406 O   0  0  0  0  0  0  0  0  0  0  0  0
    5.0984   66.1624   85.3108 C   0  0  0  0  0  0  0  0  0  0  0  0
    5.4842   65.4984   87.7236 C   0  0  0  0  0  0  0  0  0  0  0  0
    5.0705   65.0323   86.3349 C   0  0  0  0  0  0  0  0  0  0  0  0
 34 35  1  0  0  0
 35 33  1  0  0  0
 33 32  1  0  0  0
 32 31  1  0  0  0
 31 30  1  0  0  0
 30  1  1  0  0  0
  1  2  1  0  0  0
  2  3  2  0  0  0
  2  4  1  0  0  0
  4 20  1  0  0  0
 20 22  1  0  0  0
 22 23  1  0  0  0
 23 24  1  0  0  0
 24 25  1  0  0  0
 25 26  1  0  0  0
 25 27  1  0  0  0
 27 28  1  0  0  0
  4  5  2  0  0  0
  5  6  1  0  0  0
  6  7  1  0  0  0
  7  8  2  0  0  0
  8  9  1  0  0  0
  9 12  1  0  0  0
 12 13  2  0  0  0
 13 14  1  0  0  0
 14 15  2  0  0  0
 15 18  1  0  0  0
 18 19  1  0  0  0
 15 16  1  0  0  0
 16 17  2  0  0  0
  9 10  2  0  0  0
 10 11  1  0  0  0
 11  1  1  0  0  0
 28 22  1  0  0  0
 11  6  2  0  0  0
 17 12  1  0  0  0
 20 21  1  0  0  0
 26 29  1  0  0  0
M  END
> <minimizedAffinity>
-8.60657

$$$$
