


 23 26  0  0  0  0  0  0  0  0999 V2000
   -0.9059   63.2619   82.7016 C   0  0  0  0  0  0  0  0  0  0  0  0
   -1.2401   62.9707   83.9603 N   0  0  0  0  0  0  0  0  0  0  0  0
   -0.4589   63.7646   84.7329 N   0  0  0  0  0  0  0  0  0  0  0  0
    0.2394   64.6988   83.9680 C   0  0  0  0  0  0  0  0  0  0  0  0
    1.0120   65.8308   84.2973 C   0  0  0  0  0  0  0  0  0  0  0  0
    1.6231   66.5498   83.2670 C   0  0  0  0  0  0  0  0  0  0  0  0
    1.4595   66.1708   81.9424 C   0  0  0  0  0  0  0  0  0  0  0  0
    0.6519   65.0778   81.6131 C   0  0  0  0  0  0  0  0  0  0  0  0
    0.0114   64.3408   82.6330 C   0  0  0  0  0  0  0  0  0  0  0  0
   -0.4439   63.5444   86.1448 C   0  0  0  0  0  0  0  0  0  0  0  0
   -1.6238   63.1191   86.7797 C   0  0  0  0  0  0  0  0  0  0  0  0
   -1.6474   62.8927   88.1579 C   0  0  0  0  0  0  0  0  0  0  0  0
   -0.4915   63.0714   88.9128 C   0  0  0  0  0  0  0  0  0  0  0  0
    0.6909   63.4634   88.2888 C   0  0  0  0  0  0  0  0  0  0  0  0
    0.7195   63.6935   86.9090 C   0  0  0  0  0  0  0  0  0  0  0  0
   -2.5918   60.7754   80.5069 C   0  0  0  0  0  0  0  0  0  0  0  0
   -2.3435   61.7236   79.5419 C   0  0  0  0  0  0  0  0  0  0  0  0
   -1.6789   62.7919   80.1977 C   0  0  0  0  0  0  0  0  0  0  0  0
   -1.5588   62.4418   81.5290 C   0  0  0  0  0  0  0  0  0  0  0  0
   -2.1195   61.2033   81.7103 O   0  0  0  0  0  0  0  0  0  0  0  0
   -3.0648   58.8726   81.7886 O   0  0  0  0  0  0  0  0  0  0  0  0
   -3.2475   59.4493   80.5012 C   0  0  0  0  0  0  0  0  0  0  0  0
   -2.1220   59.0037   82.0045 H   0  0  0  0  0  0  0  0  0  0  0  0
 21 22  1  0  0  0
 22 16  1  0  0  0
 16 17  2  0  0  0
 17 18  1  0  0  0
 18 19  2  0  0  0
 19  1  1  0  0  0
  1  2  2  0  0  0
  2  3  1  0  0  0
  3 10  1  0  0  0
 10 11  2  0  0  0
 11 12  1  0  0  0
 12 13  2  0  0  0
 13 14  1  0  0  0
 14 15  2  0  0  0
  3  4  1  0  0  0
  4  5  2  0  0  0
  5  6  1  0  0  0
  6  7  2  0  0  0
  7  8  1  0  0  0
  8  9  2  0  0  0
 19 20  1  0  0  0
 20 16  1  0  0  0
  9  1  1  0  0  0
 15 10  1  0  0  0
  9  4  1  0  0  0
 21 23  1  0  0  0
M  END
> <minimizedAffinity>
-9.68301

$$$$



 23 26  0  0  0  0  0  0  0  0999 V2000
    3.1298   66.0333   84.6285 C   0  0  0  0  0  0  0  0  0  0  0  0
    2.5450   65.1241   85.4108 N   0  0  0  0  0  0  0  0  0  0  0  0
    1.3284   64.9010   84.8562 N   0  0  0  0  0  0  0  0  0  0  0  0
    1.2080   65.5247   83.6145 C   0  0  0  0  0  0  0  0  0  0  0  0
    0.2466   65.4490   82.5864 C   0  0  0  0  0  0  0  0  0  0  0  0
    0.4068   66.2546   81.4562 C   0  0  0  0  0  0  0  0  0  0  0  0
    1.5001   67.1004   81.3362 C   0  0  0  0  0  0  0  0  0  0  0  0
    2.4795   67.1376   82.3335 C   0  0  0  0  0  0  0  0  0  0  0  0
    2.3502   66.3246   83.4805 C   0  0  0  0  0  0  0  0  0  0  0  0
    0.3803   64.1139   85.5797 C   0  0  0  0  0  0  0  0  0  0  0  0
    0.1785   64.3774   86.9458 C   0  0  0  0  0  0  0  0  0  0  0  0
   -0.7405   63.6296   87.6857 C   0  0  0  0  0  0  0  0  0  0  0  0
   -1.4788   62.6244   87.0674 C   0  0  0  0  0  0  0  0  0  0  0  0
   -1.3085   62.3752   85.7071 C   0  0  0  0  0  0  0  0  0  0  0  0
   -0.3879   63.1199   84.9619 C   0  0  0  0  0  0  0  0  0  0  0  0
    6.7338   66.6994   85.2678 C   0  0  0  0  0  0  0  0  0  0  0  0
    6.2386   67.8550   85.8258 C   0  0  0  0  0  0  0  0  0  0  0  0
    4.8285   67.7922   85.6812 C   0  0  0  0  0  0  0  0  0  0  0  0
    4.5366   66.6036   85.0401 C   0  0  0  0  0  0  0  0  0  0  0  0
    5.7100   65.9383   84.7915 O   0  0  0  0  0  0  0  0  0  0  0  0
    8.0515   65.2627   83.9691 O   0  0  0  0  0  0  0  0  0  0  0  0
    8.0938   66.1478   85.0818 C   0  0  0  0  0  0  0  0  0  0  0  0
    7.2611   64.7063   84.1051 H   0  0  0  0  0  0  0  0  0  0  0  0
 21 22  1  0  0  0
 22 16  1  0  0  0
 16 17  2  0  0  0
 17 18  1  0  0  0
 18 19  2  0  0  0
 19  1  1  0  0  0
  1  2  2  0  0  0
  2  3  1  0  0  0
  3 10  1  0  0  0
 10 11  2  0  0  0
 11 12  1  0  0  0
 12 13  2  0  0  0
 13 14  1  0  0  0
 14 15  2  0  0  0
  3  4  1  0  0  0
  4  5  2  0  0  0
  5  6  1  0  0  0
  6  7  2  0  0  0
  7  8  1  0  0  0
  8  9  2  0  0  0
 19 20  1  0  0  0
 20 16  1  0  0  0
  9  1  1  0  0  0
 15 10  1  0  0  0
  9  4  1  0  0  0
 21 23  1  0  0  0
M  END
> <minimizedAffinity>
-9.55690

$$$$



 23 26  0  0  0  0  0  0  0  0999 V2000
   -1.0635   63.2956   84.1679 C   0  0  0  0  0  0  0  0  0  0  0  0
   -1.6494   62.5433   83.2344 N   0  0  0  0  0  0  0  0  0  0  0  0
   -1.3249   63.1199   82.0514 N   0  0  0  0  0  0  0  0  0  0  0  0
   -0.3764   64.1294   82.2152 C   0  0  0  0  0  0  0  0  0  0  0  0
    0.4001   64.8794   81.3089 C   0  0  0  0  0  0  0  0  0  0  0  0
    1.2507   65.8677   81.8108 C   0  0  0  0  0  0  0  0  0  0  0  0
    1.3457   66.0966   83.1759 C   0  0  0  0  0  0  0  0  0  0  0  0
    0.6130   65.3182   84.0772 C   0  0  0  0  0  0  0  0  0  0  0  0
   -0.2445   64.3036   83.5989 C   0  0  0  0  0  0  0  0  0  0  0  0
   -1.9689   62.6546   80.8637 C   0  0  0  0  0  0  0  0  0  0  0  0
   -3.2903   62.1821   80.9467 C   0  0  0  0  0  0  0  0  0  0  0  0
   -3.9528   61.7201   79.8070 C   0  0  0  0  0  0  0  0  0  0  0  0
   -3.3110   61.7408   78.5719 C   0  0  0  0  0  0  0  0  0  0  0  0
   -2.0121   62.2352   78.4734 C   0  0  0  0  0  0  0  0  0  0  0  0
   -1.3432   62.6972   79.6121 C   0  0  0  0  0  0  0  0  0  0  0  0
   -0.8545   62.5331   87.8034 C   0  0  0  0  0  0  0  0  0  0  0  0
   -2.2257   62.5116   87.6966 C   0  0  0  0  0  0  0  0  0  0  0  0
   -2.5216   62.7871   86.3366 C   0  0  0  0  0  0  0  0  0  0  0  0
   -1.3165   62.9653   85.6847 C   0  0  0  0  0  0  0  0  0  0  0  0
   -0.2989   62.8064   86.5905 O   0  0  0  0  0  0  0  0  0  0  0  0
    0.3155   63.6060   89.5259 O   0  0  0  0  0  0  0  0  0  0  0  0
    0.0932   62.3373   88.9223 C   0  0  0  0  0  0  0  0  0  0  0  0
    0.4774   64.2240   88.7880 H   0  0  0  0  0  0  0  0  0  0  0  0
 21 22  1  0  0  0
 22 16  1  0  0  0
 16 17  2  0  0  0
 17 18  1  0  0  0
 18 19  2  0  0  0
 19  1  1  0  0  0
  1  2  2  0  0  0
  2  3  1  0  0  0
  3 10  1  0  0  0
 10 11  2  0  0  0
 11 12  1  0  0  0
 12 13  2  0  0  0
 13 14  1  0  0  0
 14 15  2  0  0  0
  3  4  1  0  0  0
  4  5  2  0  0  0
  5  6  1  0  0  0
  6  7  2  0  0  0
  7  8  1  0  0  0
  8  9  2  0  0  0
 19 20  1  0  0  0
 20 16  1  0  0  0
  9  1  1  0  0  0
 15 10  1  0  0  0
  9  4  1  0  0  0
 21 23  1  0  0  0
M  END
> <minimizedAffinity>
-9.55293

$$$$



 23 26  0  0  0  0  0  0  0  0999 V2000
   -1.6099   62.2807   81.5783 C   0  0  0  0  0  0  0  0  0  0  0  0
   -2.0041   62.1247   82.8436 N   0  0  0  0  0  0  0  0  0  0  0  0
   -1.2917   63.0308   83.5569 N   0  0  0  0  0  0  0  0  0  0  0  0
   -0.5813   63.8956   82.7246 C   0  0  0  0  0  0  0  0  0  0  0  0
    0.1368   65.0859   82.9581 C   0  0  0  0  0  0  0  0  0  0  0  0
    0.7815   65.7033   81.8834 C   0  0  0  0  0  0  0  0  0  0  0  0
    0.7032   65.1681   80.6058 C   0  0  0  0  0  0  0  0  0  0  0  0
   -0.0509   64.0153   80.3659 C   0  0  0  0  0  0  0  0  0  0  0  0
   -0.7239   63.3777   81.4308 C   0  0  0  0  0  0  0  0  0  0  0  0
   -1.3480   62.9758   84.9837 C   0  0  0  0  0  0  0  0  0  0  0  0
   -2.5641   62.6407   85.6042 C   0  0  0  0  0  0  0  0  0  0  0  0
   -2.6576   62.5760   86.9964 C   0  0  0  0  0  0  0  0  0  0  0  0
   -1.5363   62.8277   87.7821 C   0  0  0  0  0  0  0  0  0  0  0  0
   -0.3187   63.1311   87.1763 C   0  0  0  0  0  0  0  0  0  0  0  0
   -0.2202   63.1991   85.7824 C   0  0  0  0  0  0  0  0  0  0  0  0
   -2.1633   59.9316   78.7468 C   0  0  0  0  0  0  0  0  0  0  0  0
   -3.4725   60.0237   79.1588 C   0  0  0  0  0  0  0  0  0  0  0  0
   -3.4774   60.9079   80.2683 C   0  0  0  0  0  0  0  0  0  0  0  0
   -2.1714   61.3072   80.4779 C   0  0  0  0  0  0  0  0  0  0  0  0
   -1.3718   60.7055   79.5399 O   0  0  0  0  0  0  0  0  0  0  0  0
   -1.5935   57.7998   77.9609 O   0  0  0  0  0  0  0  0  0  0  0  0
   -1.4737   59.1870   77.6704 C   0  0  0  0  0  0  0  0  0  0  0  0
   -1.3676   57.7081   78.9060 H   0  0  0  0  0  0  0  0  0  0  0  0
 21 22  1  0  0  0
 22 16  1  0  0  0
 16 17  2  0  0  0
 17 18  1  0  0  0
 18 19  2  0  0  0
 19  1  1  0  0  0
  1  2  2  0  0  0
  2  3  1  0  0  0
  3 10  1  0  0  0
 10 11  2  0  0  0
 11 12  1  0  0  0
 12 13  2  0  0  0
 13 14  1  0  0  0
 14 15  2  0  0  0
  3  4  1  0  0  0
  4  5  2  0  0  0
  5  6  1  0  0  0
  6  7  2  0  0  0
  7  8  1  0  0  0
  8  9  2  0  0  0
 19 20  1  0  0  0
 20 16  1  0  0  0
  9  1  1  0  0  0
 15 10  1  0  0  0
  9  4  1  0  0  0
 21 23  1  0  0  0
M  END
> <minimizedAffinity>
-9.54358

$$$$



 23 26  0  0  0  0  0  0  0  0999 V2000
   -0.4245   63.5844   84.0051 C   0  0  0  0  0  0  0  0  0  0  0  0
    0.5627   64.3635   83.5590 N   0  0  0  0  0  0  0  0  0  0  0  0
    1.1925   64.8181   84.6699 N   0  0  0  0  0  0  0  0  0  0  0  0
    0.7283   64.1808   85.8204 C   0  0  0  0  0  0  0  0  0  0  0  0
    1.1732   64.1605   87.1578 C   0  0  0  0  0  0  0  0  0  0  0  0
    0.4413   63.4312   88.0982 C   0  0  0  0  0  0  0  0  0  0  0  0
   -0.6917   62.7239   87.7229 C   0  0  0  0  0  0  0  0  0  0  0  0
   -1.1035   62.7034   86.3868 C   0  0  0  0  0  0  0  0  0  0  0  0
   -0.3754   63.4206   85.4127 C   0  0  0  0  0  0  0  0  0  0  0  0
    2.1814   65.8397   84.5264 C   0  0  0  0  0  0  0  0  0  0  0  0
    1.7931   67.0982   84.0348 C   0  0  0  0  0  0  0  0  0  0  0  0
    2.7312   68.1217   83.8817 C   0  0  0  0  0  0  0  0  0  0  0  0
    4.0609   67.9060   84.2331 C   0  0  0  0  0  0  0  0  0  0  0  0
    4.4504   66.6720   84.7497 C   0  0  0  0  0  0  0  0  0  0  0  0
    3.5151   65.6428   84.9031 C   0  0  0  0  0  0  0  0  0  0  0  0
   -2.6377   61.4188   81.9428 C   0  0  0  0  0  0  0  0  0  0  0  0
   -2.9144   62.6083   81.3098 C   0  0  0  0  0  0  0  0  0  0  0  0
   -2.1393   63.5973   81.9686 C   0  0  0  0  0  0  0  0  0  0  0  0
   -1.4323   62.9611   82.9709 C   0  0  0  0  0  0  0  0  0  0  0  0
   -1.7421   61.6252   82.9475 O   0  0  0  0  0  0  0  0  0  0  0  0
   -3.3839   59.4971   83.0551 O   0  0  0  0  0  0  0  0  0  0  0  0
   -3.1041   60.0262   81.7647 C   0  0  0  0  0  0  0  0  0  0  0  0
   -2.6190   59.7395   83.6107 H   0  0  0  0  0  0  0  0  0  0  0  0
 21 22  1  0  0  0
 22 16  1  0  0  0
 16 17  2  0  0  0
 17 18  1  0  0  0
 18 19  2  0  0  0
 19  1  1  0  0  0
  1  2  2  0  0  0
  2  3  1  0  0  0
  3 10  1  0  0  0
 10 11  2  0  0  0
 11 12  1  0  0  0
 12 13  2  0  0  0
 13 14  1  0  0  0
 14 15  2  0  0  0
  3  4  1  0  0  0
  4  5  2  0  0  0
  5  6  1  0  0  0
  6  7  2  0  0  0
  7  8  1  0  0  0
  8  9  2  0  0  0
 19 20  1  0  0  0
 20 16  1  0  0  0
  9  1  1  0  0  0
 15 10  1  0  0  0
  9  4  1  0  0  0
 21 23  1  0  0  0
M  END
> <minimizedAffinity>
-9.52690

$$$$



 23 26  0  0  0  0  0  0  0  0999 V2000
   -1.0137   63.2182   82.6808 C   0  0  0  0  0  0  0  0  0  0  0  0
   -1.2170   62.8031   83.9326 N   0  0  0  0  0  0  0  0  0  0  0  0
   -0.3819   63.5468   84.6986 N   0  0  0  0  0  0  0  0  0  0  0  0
    0.2177   64.5681   83.9619 C   0  0  0  0  0  0  0  0  0  0  0  0
    0.9937   65.6887   84.3212 C   0  0  0  0  0  0  0  0  0  0  0  0
    1.4854   66.5175   83.3096 C   0  0  0  0  0  0  0  0  0  0  0  0
    1.2018   66.2562   81.9769 C   0  0  0  0  0  0  0  0  0  0  0  0
    0.3901   65.1735   81.6246 C   0  0  0  0  0  0  0  0  0  0  0  0
   -0.1315   64.3268   82.6270 C   0  0  0  0  0  0  0  0  0  0  0  0
   -0.2244   63.1990   86.0757 C   0  0  0  0  0  0  0  0  0  0  0  0
   -0.9030   62.0738   86.5753 C   0  0  0  0  0  0  0  0  0  0  0  0
   -0.7728   61.7024   87.9155 C   0  0  0  0  0  0  0  0  0  0  0  0
    0.0479   62.4384   88.7656 C   0  0  0  0  0  0  0  0  0  0  0  0
    0.7487   63.5375   88.2734 C   0  0  0  0  0  0  0  0  0  0  0  0
    0.6202   63.9150   86.9323 C   0  0  0  0  0  0  0  0  0  0  0  0
   -2.0445   61.1930   79.7351 C   0  0  0  0  0  0  0  0  0  0  0  0
   -3.2822   61.7135   80.0338 C   0  0  0  0  0  0  0  0  0  0  0  0
   -3.0986   62.5465   81.1675 C   0  0  0  0  0  0  0  0  0  0  0  0
   -1.7597   62.4890   81.5037 C   0  0  0  0  0  0  0  0  0  0  0  0
   -1.1197   61.6582   80.6196 O   0  0  0  0  0  0  0  0  0  0  0  0
   -2.2305   59.0296   78.8562 O   0  0  0  0  0  0  0  0  0  0  0  0
   -1.5421   60.2644   78.6988 C   0  0  0  0  0  0  0  0  0  0  0  0
   -2.2029   58.8326   79.8118 H   0  0  0  0  0  0  0  0  0  0  0  0
 21 22  1  0  0  0
 22 16  1  0  0  0
 16 17  2  0  0  0
 17 18  1  0  0  0
 18 19  2  0  0  0
 19  1  1  0  0  0
  1  2  2  0  0  0
  2  3  1  0  0  0
  3 10  1  0  0  0
 10 11  2  0  0  0
 11 12  1  0  0  0
 12 13  2  0  0  0
 13 14  1  0  0  0
 14 15  2  0  0  0
  3  4  1  0  0  0
  4  5  2  0  0  0
  5  6  1  0  0  0
  6  7  2  0  0  0
  7  8  1  0  0  0
  8  9  2  0  0  0
 19 20  1  0  0  0
 20 16  1  0  0  0
  9  1  1  0  0  0
 15 10  1  0  0  0
  9  4  1  0  0  0
 21 23  1  0  0  0
M  END
> <minimizedAffinity>
-9.51882

$$$$



 23 26  0  0  0  0  0  0  0  0999 V2000
   -0.0353   63.1445   83.2820 C   0  0  0  0  0  0  0  0  0  0  0  0
    0.9211   64.0289   82.9927 N   0  0  0  0  0  0  0  0  0  0  0  0
    1.1170   64.7336   84.1340 N   0  0  0  0  0  0  0  0  0  0  0  0
    0.4219   64.1764   85.2071 C   0  0  0  0  0  0  0  0  0  0  0  0
    0.4416   64.4138   86.5965 C   0  0  0  0  0  0  0  0  0  0  0  0
   -0.4299   63.6898   87.4140 C   0  0  0  0  0  0  0  0  0  0  0  0
   -1.2866   62.7412   86.8744 C   0  0  0  0  0  0  0  0  0  0  0  0
   -1.2697   62.4705   85.5027 C   0  0  0  0  0  0  0  0  0  0  0  0
   -0.3900   63.1776   84.6544 C   0  0  0  0  0  0  0  0  0  0  0  0
    1.9499   65.8938   84.0875 C   0  0  0  0  0  0  0  0  0  0  0  0
    3.2149   65.8483   84.6990 C   0  0  0  0  0  0  0  0  0  0  0  0
    4.0572   66.9622   84.6734 C   0  0  0  0  0  0  0  0  0  0  0  0
    3.6539   68.1255   84.0237 C   0  0  0  0  0  0  0  0  0  0  0  0
    2.4147   68.1712   83.3885 C   0  0  0  0  0  0  0  0  0  0  0  0
    1.5663   67.0589   83.4129 C   0  0  0  0  0  0  0  0  0  0  0  0
   -1.9460   60.8148   81.0995 C   0  0  0  0  0  0  0  0  0  0  0  0
   -0.9073   61.0588   80.2314 C   0  0  0  0  0  0  0  0  0  0  0  0
   -0.0347   61.9559   80.8998 C   0  0  0  0  0  0  0  0  0  0  0  0
   -0.5872   62.2151   82.1394 C   0  0  0  0  0  0  0  0  0  0  0  0
   -1.7582   61.5105   82.2549 O   0  0  0  0  0  0  0  0  0  0  0  0
   -2.9800   58.8550   81.8590 O   0  0  0  0  0  0  0  0  0  0  0  0
   -3.1743   59.9934   81.0286 C   0  0  0  0  0  0  0  0  0  0  0  0
   -2.0933   58.5140   81.6352 H   0  0  0  0  0  0  0  0  0  0  0  0
 21 22  1  0  0  0
 22 16  1  0  0  0
 16 17  2  0  0  0
 17 18  1  0  0  0
 18 19  2  0  0  0
 19  1  1  0  0  0
  1  2  2  0  0  0
  2  3  1  0  0  0
  3 10  1  0  0  0
 10 11  2  0  0  0
 11 12  1  0  0  0
 12 13  2  0  0  0
 13 14  1  0  0  0
 14 15  2  0  0  0
  3  4  1  0  0  0
  4  5  2  0  0  0
  5  6  1  0  0  0
  6  7  2  0  0  0
  7  8  1  0  0  0
  8  9  2  0  0  0
 19 20  1  0  0  0
 20 16  1  0  0  0
  9  1  1  0  0  0
 15 10  1  0  0  0
  9  4  1  0  0  0
 21 23  1  0  0  0
M  END
> <minimizedAffinity>
-9.47465

$$$$



 23 26  0  0  0  0  0  0  0  0999 V2000
   -0.0450   63.1235   83.2450 C   0  0  0  0  0  0  0  0  0  0  0  0
    0.9306   63.9881   82.9601 N   0  0  0  0  0  0  0  0  0  0  0  0
    1.1307   64.6935   84.1002 N   0  0  0  0  0  0  0  0  0  0  0  0
    0.4162   64.1541   85.1698 C   0  0  0  0  0  0  0  0  0  0  0  0
    0.4291   64.3967   86.5583 C   0  0  0  0  0  0  0  0  0  0  0  0
   -0.4628   63.6928   87.3714 C   0  0  0  0  0  0  0  0  0  0  0  0
   -1.3331   62.7587   86.8284 C   0  0  0  0  0  0  0  0  0  0  0  0
   -1.3102   62.4822   85.4579 C   0  0  0  0  0  0  0  0  0  0  0  0
   -0.4101   63.1688   84.6142 C   0  0  0  0  0  0  0  0  0  0  0  0
    1.9861   65.8374   84.0562 C   0  0  0  0  0  0  0  0  0  0  0  0
    1.5432   66.9929   83.3891 C   0  0  0  0  0  0  0  0  0  0  0  0
    2.3511   68.1307   83.3259 C   0  0  0  0  0  0  0  0  0  0  0  0
    3.5998   68.1332   83.9413 C   0  0  0  0  0  0  0  0  0  0  0  0
    4.0356   67.0037   84.6308 C   0  0  0  0  0  0  0  0  0  0  0  0
    3.2313   65.8607   84.6954 C   0  0  0  0  0  0  0  0  0  0  0  0
   -1.9688   60.8011   81.0661 C   0  0  0  0  0  0  0  0  0  0  0  0
   -0.9415   61.0573   80.1881 C   0  0  0  0  0  0  0  0  0  0  0  0
   -0.0658   61.9536   80.8535 C   0  0  0  0  0  0  0  0  0  0  0  0
   -0.6052   62.2002   82.1014 C   0  0  0  0  0  0  0  0  0  0  0  0
   -1.7713   61.4887   82.2248 O   0  0  0  0  0  0  0  0  0  0  0  0
   -2.9795   58.8241   81.8123 O   0  0  0  0  0  0  0  0  0  0  0  0
   -3.1937   59.9739   81.0029 C   0  0  0  0  0  0  0  0  0  0  0  0
   -2.0948   58.4916   81.5688 H   0  0  0  0  0  0  0  0  0  0  0  0
 21 22  1  0  0  0
 22 16  1  0  0  0
 16 17  2  0  0  0
 17 18  1  0  0  0
 18 19  2  0  0  0
 19  1  1  0  0  0
  1  2  2  0  0  0
  2  3  1  0  0  0
  3 10  1  0  0  0
 10 11  2  0  0  0
 11 12  1  0  0  0
 12 13  2  0  0  0
 13 14  1  0  0  0
 14 15  2  0  0  0
  3  4  1  0  0  0
  4  5  2  0  0  0
  5  6  1  0  0  0
  6  7  2  0  0  0
  7  8  1  0  0  0
  8  9  2  0  0  0
 19 20  1  0  0  0
 20 16  1  0  0  0
  9  1  1  0  0  0
 15 10  1  0  0  0
  9  4  1  0  0  0
 21 23  1  0  0  0
M  END
> <minimizedAffinity>
-9.46226

$$$$



 23 26  0  0  0  0  0  0  0  0999 V2000
    1.3554   65.0257   84.9175 C   0  0  0  0  0  0  0  0  0  0  0  0
    2.4869   65.3653   85.5380 N   0  0  0  0  0  0  0  0  0  0  0  0
    3.2123   66.0456   84.6169 N   0  0  0  0  0  0  0  0  0  0  0  0
    2.4675   66.3059   83.4668 C   0  0  0  0  0  0  0  0  0  0  0  0
    2.6931   67.1138   82.3340 C   0  0  0  0  0  0  0  0  0  0  0  0
    1.7375   67.1236   81.3148 C   0  0  0  0  0  0  0  0  0  0  0  0
    0.5786   66.3682   81.4206 C   0  0  0  0  0  0  0  0  0  0  0  0
    0.3320   65.6063   82.5670 C   0  0  0  0  0  0  0  0  0  0  0  0
    1.2741   65.5880   83.6184 C   0  0  0  0  0  0  0  0  0  0  0  0
    4.5689   66.3755   84.9218 C   0  0  0  0  0  0  0  0  0  0  0  0
    4.8690   67.6732   85.3714 C   0  0  0  0  0  0  0  0  0  0  0  0
    6.1831   68.0323   85.6800 C   0  0  0  0  0  0  0  0  0  0  0  0
    7.2071   67.0970   85.5599 C   0  0  0  0  0  0  0  0  0  0  0  0
    6.9162   65.7994   85.1442 C   0  0  0  0  0  0  0  0  0  0  0  0
    5.6019   65.4351   84.8318 C   0  0  0  0  0  0  0  0  0  0  0  0
   -0.7780   63.2165   87.3705 C   0  0  0  0  0  0  0  0  0  0  0  0
   -1.3450   62.7005   86.2284 C   0  0  0  0  0  0  0  0  0  0  0  0
   -0.6459   63.2842   85.1404 C   0  0  0  0  0  0  0  0  0  0  0  0
    0.3090   64.1279   85.6744 C   0  0  0  0  0  0  0  0  0  0  0  0
    0.2228   64.0797   87.0425 O   0  0  0  0  0  0  0  0  0  0  0  0
    0.0517   63.6291   89.5218 O   0  0  0  0  0  0  0  0  0  0  0  0
   -1.0324   63.0370   88.8167 C   0  0  0  0  0  0  0  0  0  0  0  0
    0.8603   63.3123   89.0762 H   0  0  0  0  0  0  0  0  0  0  0  0
 21 22  1  0  0  0
 22 16  1  0  0  0
 16 17  2  0  0  0
 17 18  1  0  0  0
 18 19  2  0  0  0
 19  1  1  0  0  0
  1  2  2  0  0  0
  2  3  1  0  0  0
  3 10  1  0  0  0
 10 11  2  0  0  0
 11 12  1  0  0  0
 12 13  2  0  0  0
 13 14  1  0  0  0
 14 15  2  0  0  0
  3  4  1  0  0  0
  4  5  2  0  0  0
  5  6  1  0  0  0
  6  7  2  0  0  0
  7  8  1  0  0  0
  8  9  2  0  0  0
 19 20  1  0  0  0
 20 16  1  0  0  0
  9  1  1  0  0  0
 15 10  1  0  0  0
  9  4  1  0  0  0
 21 23  1  0  0  0
M  END
> <minimizedAffinity>
-9.43417

$$$$
