


 31 35  0  0  0  0  0  0  0  0999 V2000
   -1.5839   62.0029   79.6850 N   0  0  0  0  0  0  0  0  0  0  0  0
   -2.6587   62.2449   80.5000 C   0  0  0  0  0  0  0  0  0  0  0  0
   -3.8093   61.8687   80.3210 O   0  0  0  0  0  0  0  0  0  0  0  0
   -2.1978   63.0866   81.6796 C   0  0  0  0  0  0  0  0  0  0  0  0
   -2.5064   62.4338   83.0310 C   0  0  0  0  0  0  0  0  0  0  0  0
   -1.5508   62.9519   84.0579 C   0  0  0  0  0  0  0  0  0  0  0  0
   -0.3501   63.5448   83.7019 C   0  0  0  0  0  0  0  0  0  0  0  0
    0.3099   63.8833   84.8530 N   0  0  0  0  0  0  0  0  0  0  0  0
   -0.4540   63.5414   85.9486 C   0  0  0  0  0  0  0  0  0  0  0  0
   -0.1918   63.7087   87.3136 C   0  0  0  0  0  0  0  0  0  0  0  0
   -1.1552   63.2555   88.2197 C   0  0  0  0  0  0  0  0  0  0  0  0
   -2.3329   62.6578   87.7768 C   0  0  0  0  0  0  0  0  0  0  0  0
   -2.5817   62.4972   86.4088 C   0  0  0  0  0  0  0  0  0  0  0  0
   -1.6281   62.9485   85.4758 C   0  0  0  0  0  0  0  0  0  0  0  0
    0.1720   63.7844   82.3120 C   0  0  0  0  0  0  0  0  0  0  0  0
   -0.7701   63.1533   81.3980 N   0  0  0  0  0  0  0  0  0  0  0  0
   -0.4387   62.5294   80.2175 C   0  0  0  0  0  0  0  0  0  0  0  0
    0.6863   62.4509   79.7496 O   0  0  0  0  0  0  0  0  0  0  0  0
    1.2134   64.3349   84.9038 H   0  0  0  0  0  0  0  0  0  0  0  0
    0.3641   65.2523   81.9521 C   0  0  0  0  0  0  0  0  0  0  0  0
    1.3719   65.9879   82.6003 C   0  0  0  0  0  0  0  0  0  0  0  0
    1.6012   67.3291   82.2804 C   0  0  0  0  0  0  0  0  0  0  0  0
    0.8314   67.9567   81.2983 C   0  0  0  0  0  0  0  0  0  0  0  0
   -0.1634   67.2344   80.6341 C   0  0  0  0  0  0  0  0  0  0  0  0
   -0.3904   65.8921   80.9537 C   0  0  0  0  0  0  0  0  0  0  0  0
    1.0650   69.3321   80.9687 C   0  0  0  0  0  0  0  0  0  0  0  0
    1.2526   70.4466   80.7047 N   0  0  0  0  0  0  0  0  0  0  0  0
   -1.6364   61.2559   78.4449 C   0  0  0  0  0  0  0  0  0  0  0  0
   -2.1087   62.1062   77.2621 C   0  0  0  0  0  0  0  0  0  0  0  0
   -0.9966   64.3464   76.9533 C   0  0  0  0  0  0  0  0  0  0  0  0
   -0.9690   62.8709   76.5860 C   0  0  0  0  0  0  0  0  0  0  0  0
 30 31  1  0  0  0
 31 29  1  0  0  0
 29 28  1  0  0  0
 28  1  1  0  0  0
  1  2  1  0  0  0
  2  3  2  0  0  0
  2  4  1  0  0  0
  4  5  1  0  0  0
  5  6  1  0  0  0
  6  7  2  0  0  0
  7  8  1  0  0  0
  8  9  1  0  0  0
  9 10  2  0  0  0
 10 11  1  0  0  0
 11 12  2  0  0  0
 12 13  1  0  0  0
 13 14  2  0  0  0
  7 15  1  0  0  0
 15 20  1  0  0  0
 20 21  1  0  0  0
 21 22  2  0  0  0
 22 23  1  0  0  0
 23 26  1  0  0  0
 26 27  3  0  0  0
 23 24  2  0  0  0
 24 25  1  0  0  0
 15 16  1  0  0  0
 16 17  1  0  0  0
 17 18  2  0  0  0
 17  1  1  0  0  0
 16  4  1  0  0  0
 14  6  1  0  0  0
 25 20  2  0  0  0
 14  9  1  0  0  0
  8 19  1  0  0  0
M  END
> <minimizedAffinity>
-10.60520

$$$$



 31 35  0  0  0  0  0  0  0  0999 V2000
    0.7627   67.2904   80.9405 N   0  0  0  0  0  0  0  0  0  0  0  0
    1.7169   66.7713   81.7759 C   0  0  0  0  0  0  0  0  0  0  0  0
    2.8100   67.2601   82.0277 O   0  0  0  0  0  0  0  0  0  0  0  0
    1.2068   65.4555   82.3425 C   0  0  0  0  0  0  0  0  0  0  0  0
    1.1909   65.4356   83.8745 C   0  0  0  0  0  0  0  0  0  0  0  0
    0.1734   64.4452   84.3436 C   0  0  0  0  0  0  0  0  0  0  0  0
   -0.8495   64.0058   83.5188 C   0  0  0  0  0  0  0  0  0  0  0  0
   -1.6262   63.1368   84.2377 N   0  0  0  0  0  0  0  0  0  0  0  0
   -1.1095   62.9872   85.5071 C   0  0  0  0  0  0  0  0  0  0  0  0
   -1.5588   62.1974   86.5721 C   0  0  0  0  0  0  0  0  0  0  0  0
   -0.8341   62.2459   87.7666 C   0  0  0  0  0  0  0  0  0  0  0  0
    0.2940   63.0538   87.8901 C   0  0  0  0  0  0  0  0  0  0  0  0
    0.7316   63.8382   86.8167 C   0  0  0  0  0  0  0  0  0  0  0  0
    0.0206   63.8042   85.6015 C   0  0  0  0  0  0  0  0  0  0  0  0
   -1.0988   64.3962   82.0879 C   0  0  0  0  0  0  0  0  0  0  0  0
   -0.1300   65.4343   81.7639 N   0  0  0  0  0  0  0  0  0  0  0  0
   -0.3590   66.5068   80.9333 C   0  0  0  0  0  0  0  0  0  0  0  0
   -1.3929   66.7188   80.3194 O   0  0  0  0  0  0  0  0  0  0  0  0
   -2.4463   62.6554   83.8932 H   0  0  0  0  0  0  0  0  0  0  0  0
   -1.0039   63.2469   81.0923 C   0  0  0  0  0  0  0  0  0  0  0  0
   -2.1769   62.5662   80.7216 C   0  0  0  0  0  0  0  0  0  0  0  0
   -2.1394   61.5246   79.7902 C   0  0  0  0  0  0  0  0  0  0  0  0
   -0.9273   61.1511   79.2052 C   0  0  0  0  0  0  0  0  0  0  0  0
    0.2446   61.8287   79.5516 C   0  0  0  0  0  0  0  0  0  0  0  0
    0.2054   62.8718   80.4821 C   0  0  0  0  0  0  0  0  0  0  0  0
   -0.8867   60.0833   78.2496 C   0  0  0  0  0  0  0  0  0  0  0  0
   -0.8565   59.2173   77.4776 N   0  0  0  0  0  0  0  0  0  0  0  0
    0.8987   68.5238   80.1928 C   0  0  0  0  0  0  0  0  0  0  0  0
    0.0470   69.6598   80.7665 C   0  0  0  0  0  0  0  0  0  0  0  0
    0.3235   71.8726   81.9403 C   0  0  0  0  0  0  0  0  0  0  0  0
    0.7443   70.4117   81.9019 C   0  0  0  0  0  0  0  0  0  0  0  0
 30 31  1  0  0  0
 31 29  1  0  0  0
 29 28  1  0  0  0
 28  1  1  0  0  0
  1  2  1  0  0  0
  2  3  2  0  0  0
  2  4  1  0  0  0
  4  5  1  0  0  0
  5  6  1  0  0  0
  6  7  2  0  0  0
  7  8  1  0  0  0
  8  9  1  0  0  0
  9 10  2  0  0  0
 10 11  1  0  0  0
 11 12  2  0  0  0
 12 13  1  0  0  0
 13 14  2  0  0  0
  7 15  1  0  0  0
 15 20  1  0  0  0
 20 21  1  0  0  0
 21 22  2  0  0  0
 22 23  1  0  0  0
 23 26  1  0  0  0
 26 27  3  0  0  0
 23 24  2  0  0  0
 24 25  1  0  0  0
 15 16  1  0  0  0
 16 17  1  0  0  0
 17 18  2  0  0  0
 17  1  1  0  0  0
 16  4  1  0  0  0
 14  6  1  0  0  0
 25 20  2  0  0  0
 14  9  1  0  0  0
  8 19  1  0  0  0
M  END
> <minimizedAffinity>
-9.51149

$$$$



 31 35  0  0  0  0  0  0  0  0999 V2000
    1.5731   71.1847   81.1744 N   0  0  0  0  0  0  0  0  0  0  0  0
    2.9266   70.9735   81.2076 C   0  0  0  0  0  0  0  0  0  0  0  0
    3.7992   71.7905   80.9462 O   0  0  0  0  0  0  0  0  0  0  0  0
    3.1862   69.5304   81.6111 C   0  0  0  0  0  0  0  0  0  0  0  0
    4.0794   69.4123   82.8505 C   0  0  0  0  0  0  0  0  0  0  0  0
    3.8109   68.1066   83.5283 C   0  0  0  0  0  0  0  0  0  0  0  0
    2.6438   67.3951   83.3022 C   0  0  0  0  0  0  0  0  0  0  0  0
    2.6785   66.2703   84.0825 N   0  0  0  0  0  0  0  0  0  0  0  0
    3.8598   66.2290   84.7922 C   0  0  0  0  0  0  0  0  0  0  0  0
    4.3312   65.2694   85.6959 C   0  0  0  0  0  0  0  0  0  0  0  0
    5.5808   65.4897   86.2830 C   0  0  0  0  0  0  0  0  0  0  0  0
    6.3272   66.6258   85.9786 C   0  0  0  0  0  0  0  0  0  0  0  0
    5.8430   67.5768   85.0730 C   0  0  0  0  0  0  0  0  0  0  0  0
    4.5884   67.3761   84.4655 C   0  0  0  0  0  0  0  0  0  0  0  0
    1.5154   67.7635   82.3787 C   0  0  0  0  0  0  0  0  0  0  0  0
    1.8199   69.0884   81.8559 N   0  0  0  0  0  0  0  0  0  0  0  0
    0.8941   70.0665   81.5752 C   0  0  0  0  0  0  0  0  0  0  0  0
   -0.3161   69.9490   81.6871 O   0  0  0  0  0  0  0  0  0  0  0  0
    1.9604   65.5594   84.1247 H   0  0  0  0  0  0  0  0  0  0  0  0
    1.2829   66.7796   81.2389 C   0  0  0  0  0  0  0  0  0  0  0  0
    0.2630   65.8198   81.3631 C   0  0  0  0  0  0  0  0  0  0  0  0
   -0.0029   64.9163   80.3302 C   0  0  0  0  0  0  0  0  0  0  0  0
    0.7415   64.9632   79.1493 C   0  0  0  0  0  0  0  0  0  0  0  0
    1.7479   65.9217   79.0047 C   0  0  0  0  0  0  0  0  0  0  0  0
    2.0117   66.8262   80.0381 C   0  0  0  0  0  0  0  0  0  0  0  0
    0.4702   64.0377   78.0887 C   0  0  0  0  0  0  0  0  0  0  0  0
    0.2488   63.2863   77.2323 N   0  0  0  0  0  0  0  0  0  0  0  0
    0.9385   72.4336   80.8050 C   0  0  0  0  0  0  0  0  0  0  0  0
    0.6353   73.3229   82.0141 C   0  0  0  0  0  0  0  0  0  0  0  0
    2.6586   73.9472   83.3805 C   0  0  0  0  0  0  0  0  0  0  0  0
    1.7172   74.3751   82.2655 C   0  0  0  0  0  0  0  0  0  0  0  0
 30 31  1  0  0  0
 31 29  1  0  0  0
 29 28  1  0  0  0
 28  1  1  0  0  0
  1  2  1  0  0  0
  2  3  2  0  0  0
  2  4  1  0  0  0
  4  5  1  0  0  0
  5  6  1  0  0  0
  6  7  2  0  0  0
  7  8  1  0  0  0
  8  9  1  0  0  0
  9 10  2  0  0  0
 10 11  1  0  0  0
 11 12  2  0  0  0
 12 13  1  0  0  0
 13 14  2  0  0  0
  7 15  1  0  0  0
 15 20  1  0  0  0
 20 21  1  0  0  0
 21 22  2  0  0  0
 22 23  1  0  0  0
 23 26  1  0  0  0
 26 27  3  0  0  0
 23 24  2  0  0  0
 24 25  1  0  0  0
 15 16  1  0  0  0
 16 17  1  0  0  0
 17 18  2  0  0  0
 17  1  1  0  0  0
 16  4  1  0  0  0
 14  6  1  0  0  0
 25 20  2  0  0  0
 14  9  1  0  0  0
  8 19  1  0  0  0
M  END
> <minimizedAffinity>
-9.50198

$$$$



 31 35  0  0  0  0  0  0  0  0999 V2000
    0.1922   64.5440   82.8281 N   0  0  0  0  0  0  0  0  0  0  0  0
    0.4788   65.1451   81.6305 C   0  0  0  0  0  0  0  0  0  0  0  0
    0.0956   64.7878   80.5247 O   0  0  0  0  0  0  0  0  0  0  0  0
    1.3812   66.3417   81.8880 C   0  0  0  0  0  0  0  0  0  0  0  0
    0.8015   67.6506   81.3414 C   0  0  0  0  0  0  0  0  0  0  0  0
    1.3718   68.8002   82.1091 C   0  0  0  0  0  0  0  0  0  0  0  0
    1.9430   68.6290   83.3598 C   0  0  0  0  0  0  0  0  0  0  0  0
    2.3409   69.8585   83.8128 N   0  0  0  0  0  0  0  0  0  0  0  0
    2.0589   70.8202   82.8660 C   0  0  0  0  0  0  0  0  0  0  0  0
    2.2980   72.1995   82.8882 C   0  0  0  0  0  0  0  0  0  0  0  0
    1.8951   72.9456   81.7766 C   0  0  0  0  0  0  0  0  0  0  0  0
    1.2767   72.3356   80.6877 C   0  0  0  0  0  0  0  0  0  0  0  0
    1.0442   70.9554   80.6794 C   0  0  0  0  0  0  0  0  0  0  0  0
    1.4438   70.1811   81.7859 C   0  0  0  0  0  0  0  0  0  0  0  0
    2.1076   67.3411   84.1187 C   0  0  0  0  0  0  0  0  0  0  0  0
    1.4305   66.3107   83.3435 N   0  0  0  0  0  0  0  0  0  0  0  0
    0.7442   65.2402   83.8687 C   0  0  0  0  0  0  0  0  0  0  0  0
    0.6392   64.9806   85.0571 O   0  0  0  0  0  0  0  0  0  0  0  0
    2.7931   70.0427   84.6985 H   0  0  0  0  0  0  0  0  0  0  0  0
    3.5540   66.9445   84.3867 C   0  0  0  0  0  0  0  0  0  0  0  0
    4.5827   67.8358   84.0344 C   0  0  0  0  0  0  0  0  0  0  0  0
    5.9216   67.5242   84.2881 C   0  0  0  0  0  0  0  0  0  0  0  0
    6.2549   66.3178   84.9081 C   0  0  0  0  0  0  0  0  0  0  0  0
    5.2426   65.4287   85.2784 C   0  0  0  0  0  0  0  0  0  0  0  0
    3.9034   65.7424   85.0258 C   0  0  0  0  0  0  0  0  0  0  0  0
    7.6273   65.9965   85.1693 C   0  0  0  0  0  0  0  0  0  0  0  0
    8.7387   65.7393   85.3826 N   0  0  0  0  0  0  0  0  0  0  0  0
   -0.6195   63.3543   82.9845 C   0  0  0  0  0  0  0  0  0  0  0  0
    0.2193   62.0859   83.1648 C   0  0  0  0  0  0  0  0  0  0  0  0
    1.9767   60.7330   81.9683 C   0  0  0  0  0  0  0  0  0  0  0  0
    0.6487   61.4621   81.8354 C   0  0  0  0  0  0  0  0  0  0  0  0
 30 31  1  0  0  0
 31 29  1  0  0  0
 29 28  1  0  0  0
 28  1  1  0  0  0
  1  2  1  0  0  0
  2  3  2  0  0  0
  2  4  1  0  0  0
  4  5  1  0  0  0
  5  6  1  0  0  0
  6  7  2  0  0  0
  7  8  1  0  0  0
  8  9  1  0  0  0
  9 10  2  0  0  0
 10 11  1  0  0  0
 11 12  2  0  0  0
 12 13  1  0  0  0
 13 14  2  0  0  0
  7 15  1  0  0  0
 15 20  1  0  0  0
 20 21  1  0  0  0
 21 22  2  0  0  0
 22 23  1  0  0  0
 23 26  1  0  0  0
 26 27  3  0  0  0
 23 24  2  0  0  0
 24 25  1  0  0  0
 15 16  1  0  0  0
 16 17  1  0  0  0
 17 18  2  0  0  0
 17  1  1  0  0  0
 16  4  1  0  0  0
 14  6  1  0  0  0
 25 20  2  0  0  0
 14  9  1  0  0  0
  8 19  1  0  0  0
M  END
> <minimizedAffinity>
-9.43289

$$$$



 31 35  0  0  0  0  0  0  0  0999 V2000
   -0.4684   63.3300   78.5751 N   0  0  0  0  0  0  0  0  0  0  0  0
   -1.5060   63.1031   79.4410 C   0  0  0  0  0  0  0  0  0  0  0  0
   -2.4852   62.3980   79.2375 O   0  0  0  0  0  0  0  0  0  0  0  0
   -1.2593   63.8930   80.7169 C   0  0  0  0  0  0  0  0  0  0  0  0
   -1.2501   63.0100   81.9691 C   0  0  0  0  0  0  0  0  0  0  0  0
   -0.4428   63.6773   83.0363 C   0  0  0  0  0  0  0  0  0  0  0  0
    0.4779   64.6694   82.7399 C   0  0  0  0  0  0  0  0  0  0  0  0
    1.0718   65.0563   83.9116 N   0  0  0  0  0  0  0  0  0  0  0  0
    0.5339   64.3484   84.9653 C   0  0  0  0  0  0  0  0  0  0  0  0
    0.8212   64.4182   86.3337 C   0  0  0  0  0  0  0  0  0  0  0  0
    0.1174   63.5649   87.1887 C   0  0  0  0  0  0  0  0  0  0  0  0
   -0.8344   62.6766   86.6933 C   0  0  0  0  0  0  0  0  0  0  0  0
   -1.1113   62.6180   85.3226 C   0  0  0  0  0  0  0  0  0  0  0  0
   -0.4181   63.4697   84.4409 C   0  0  0  0  0  0  0  0  0  0  0  0
    0.8000   65.2399   81.3861 C   0  0  0  0  0  0  0  0  0  0  0  0
    0.0493   64.4568   80.4142 N   0  0  0  0  0  0  0  0  0  0  0  0
    0.4816   64.1296   79.1499 C   0  0  0  0  0  0  0  0  0  0  0  0
    1.5380   64.4822   78.6493 O   0  0  0  0  0  0  0  0  0  0  0  0
    1.7846   65.7677   84.0047 H   0  0  0  0  0  0  0  0  0  0  0  0
    0.4875   66.7232   81.2334 C   0  0  0  0  0  0  0  0  0  0  0  0
    1.2706   67.6610   81.9291 C   0  0  0  0  0  0  0  0  0  0  0  0
    1.0366   69.0326   81.7957 C   0  0  0  0  0  0  0  0  0  0  0  0
    0.0196   69.4914   80.9554 C   0  0  0  0  0  0  0  0  0  0  0  0
   -0.7569   68.5722   80.2451 C   0  0  0  0  0  0  0  0  0  0  0  0
   -0.5206   67.2003   80.3780 C   0  0  0  0  0  0  0  0  0  0  0  0
   -0.2218   70.8976   80.8170 C   0  0  0  0  0  0  0  0  0  0  0  0
   -0.4198   72.0360   80.7074 N   0  0  0  0  0  0  0  0  0  0  0  0
   -0.3635   62.7699   77.2433 C   0  0  0  0  0  0  0  0  0  0  0  0
   -0.0875   61.2637   77.2555 C   0  0  0  0  0  0  0  0  0  0  0  0
   -1.2377   59.0235   77.1610 C   0  0  0  0  0  0  0  0  0  0  0  0
   -1.2164   60.4463   76.6246 C   0  0  0  0  0  0  0  0  0  0  0  0
 30 31  1  0  0  0
 31 29  1  0  0  0
 29 28  1  0  0  0
 28  1  1  0  0  0
  1  2  1  0  0  0
  2  3  2  0  0  0
  2  4  1  0  0  0
  4  5  1  0  0  0
  5  6  1  0  0  0
  6  7  2  0  0  0
  7  8  1  0  0  0
  8  9  1  0  0  0
  9 10  2  0  0  0
 10 11  1  0  0  0
 11 12  2  0  0  0
 12 13  1  0  0  0
 13 14  2  0  0  0
  7 15  1  0  0  0
 15 20  1  0  0  0
 20 21  1  0  0  0
 21 22  2  0  0  0
 22 23  1  0  0  0
 23 26  1  0  0  0
 26 27  3  0  0  0
 23 24  2  0  0  0
 24 25  1  0  0  0
 15 16  1  0  0  0
 16 17  1  0  0  0
 17 18  2  0  0  0
 17  1  1  0  0  0
 16  4  1  0  0  0
 14  6  1  0  0  0
 25 20  2  0  0  0
 14  9  1  0  0  0
  8 19  1  0  0  0
M  END
> <minimizedAffinity>
-9.38610

$$$$



 31 35  0  0  0  0  0  0  0  0999 V2000
    0.1127   64.7701   82.8152 N   0  0  0  0  0  0  0  0  0  0  0  0
    0.4104   65.3500   81.6098 C   0  0  0  0  0  0  0  0  0  0  0  0
    0.0040   64.9979   80.5106 O   0  0  0  0  0  0  0  0  0  0  0  0
    1.3591   66.5142   81.8488 C   0  0  0  0  0  0  0  0  0  0  0  0
    0.8235   67.8391   81.2960 C   0  0  0  0  0  0  0  0  0  0  0  0
    1.4433   68.9731   82.0485 C   0  0  0  0  0  0  0  0  0  0  0  0
    2.0192   68.7912   83.2955 C   0  0  0  0  0  0  0  0  0  0  0  0
    2.4669   70.0088   83.7342 N   0  0  0  0  0  0  0  0  0  0  0  0
    2.2122   70.9723   82.7815 C   0  0  0  0  0  0  0  0  0  0  0  0
    2.5026   72.3418   82.7895 C   0  0  0  0  0  0  0  0  0  0  0  0
    2.1176   73.0932   81.6752 C   0  0  0  0  0  0  0  0  0  0  0  0
    1.4668   72.4975   80.5972 C   0  0  0  0  0  0  0  0  0  0  0  0
    1.1830   71.1270   80.6031 C   0  0  0  0  0  0  0  0  0  0  0  0
    1.5637   70.3476   81.7126 C   0  0  0  0  0  0  0  0  0  0  0  0
    2.1428   67.5044   84.0641 C   0  0  0  0  0  0  0  0  0  0  0  0
    1.4206   66.4935   83.3040 N   0  0  0  0  0  0  0  0  0  0  0  0
    0.6999   65.4539   83.8447 C   0  0  0  0  0  0  0  0  0  0  0  0
    0.5962   65.2084   85.0362 O   0  0  0  0  0  0  0  0  0  0  0  0
    2.9337   70.1834   84.6142 H   0  0  0  0  0  0  0  0  0  0  0  0
    3.5759   67.0564   84.3226 C   0  0  0  0  0  0  0  0  0  0  0  0
    4.6340   67.9019   83.9454 C   0  0  0  0  0  0  0  0  0  0  0  0
    5.9627   67.5428   84.1895 C   0  0  0  0  0  0  0  0  0  0  0  0
    6.2564   66.3339   84.8245 C   0  0  0  0  0  0  0  0  0  0  0  0
    5.2150   65.4902   85.2195 C   0  0  0  0  0  0  0  0  0  0  0  0
    3.8861   65.8516   84.9766 C   0  0  0  0  0  0  0  0  0  0  0  0
    7.6184   65.9638   85.0759 C   0  0  0  0  0  0  0  0  0  0  0  0
    8.7211   65.6626   85.2763 N   0  0  0  0  0  0  0  0  0  0  0  0
   -0.7413   63.6128   82.9891 C   0  0  0  0  0  0  0  0  0  0  0  0
    0.0090   62.4045   83.5565 C   0  0  0  0  0  0  0  0  0  0  0  0
   -1.8742   62.5825   85.2215 C   0  0  0  0  0  0  0  0  0  0  0  0
   -0.5152   61.9674   84.9258 C   0  0  0  0  0  0  0  0  0  0  0  0
 30 31  1  0  0  0
 31 29  1  0  0  0
 29 28  1  0  0  0
 28  1  1  0  0  0
  1  2  1  0  0  0
  2  3  2  0  0  0
  2  4  1  0  0  0
  4  5  1  0  0  0
  5  6  1  0  0  0
  6  7  2  0  0  0
  7  8  1  0  0  0
  8  9  1  0  0  0
  9 10  2  0  0  0
 10 11  1  0  0  0
 11 12  2  0  0  0
 12 13  1  0  0  0
 13 14  2  0  0  0
  7 15  1  0  0  0
 15 20  1  0  0  0
 20 21  1  0  0  0
 21 22  2  0  0  0
 22 23  1  0  0  0
 23 26  1  0  0  0
 26 27  3  0  0  0
 23 24  2  0  0  0
 24 25  1  0  0  0
 15 16  1  0  0  0
 16 17  1  0  0  0
 17 18  2  0  0  0
 17  1  1  0  0  0
 16  4  1  0  0  0
 14  6  1  0  0  0
 25 20  2  0  0  0
 14  9  1  0  0  0
  8 19  1  0  0  0
M  END
> <minimizedAffinity>
-9.34264

$$$$



 31 35  0  0  0  0  0  0  0  0999 V2000
   -0.5049   64.1026   81.8025 N   0  0  0  0  0  0  0  0  0  0  0  0
   -0.4730   64.1456   83.1718 C   0  0  0  0  0  0  0  0  0  0  0  0
   -1.1160   63.4419   83.9390 O   0  0  0  0  0  0  0  0  0  0  0  0
    0.4924   65.2382   83.6039 C   0  0  0  0  0  0  0  0  0  0  0  0
    1.6013   64.7199   84.5256 C   0  0  0  0  0  0  0  0  0  0  0  0
    2.7895   65.6220   84.4221 C   0  0  0  0  0  0  0  0  0  0  0  0
    2.9672   66.4711   83.3418 C   0  0  0  0  0  0  0  0  0  0  0  0
    4.1504   67.1372   83.5201 N   0  0  0  0  0  0  0  0  0  0  0  0
    4.7302   66.7515   84.7100 C   0  0  0  0  0  0  0  0  0  0  0  0
    5.9251   67.1737   85.3049 C   0  0  0  0  0  0  0  0  0  0  0  0
    6.2778   66.6001   86.5301 C   0  0  0  0  0  0  0  0  0  0  0  0
    5.4675   65.6416   87.1343 C   0  0  0  0  0  0  0  0  0  0  0  0
    4.2755   65.2292   86.5278 C   0  0  0  0  0  0  0  0  0  0  0  0
    3.8963   65.7945   85.2949 C   0  0  0  0  0  0  0  0  0  0  0  0
    2.0510   66.6512   82.1628 C   0  0  0  0  0  0  0  0  0  0  0  0
    0.9920   65.6612   82.3026 N   0  0  0  0  0  0  0  0  0  0  0  0
    0.3803   64.9967   81.2648 C   0  0  0  0  0  0  0  0  0  0  0  0
    0.6107   65.1714   80.0785 O   0  0  0  0  0  0  0  0  0  0  0  0
    4.5403   67.8258   82.8902 H   0  0  0  0  0  0  0  0  0  0  0  0
    1.4612   68.0494   82.0270 C   0  0  0  0  0  0  0  0  0  0  0  0
    1.9907   69.0924   82.8071 C   0  0  0  0  0  0  0  0  0  0  0  0
    1.4985   70.3957   82.6935 C   0  0  0  0  0  0  0  0  0  0  0  0
    0.4727   70.6810   81.7895 C   0  0  0  0  0  0  0  0  0  0  0  0
   -0.0529   69.6582   80.9959 C   0  0  0  0  0  0  0  0  0  0  0  0
    0.4417   68.3550   81.1091 C   0  0  0  0  0  0  0  0  0  0  0  0
   -0.0333   72.0171   81.6714 C   0  0  0  0  0  0  0  0  0  0  0  0
   -0.4406   73.0998   81.5780 N   0  0  0  0  0  0  0  0  0  0  0  0
   -1.3317   63.2056   81.0211 C   0  0  0  0  0  0  0  0  0  0  0  0
   -0.8922   61.7434   81.1385 C   0  0  0  0  0  0  0  0  0  0  0  0
    1.4099   61.1235   81.9548 C   0  0  0  0  0  0  0  0  0  0  0  0
    0.5725   61.5291   80.7519 C   0  0  0  0  0  0  0  0  0  0  0  0
 30 31  1  0  0  0
 31 29  1  0  0  0
 29 28  1  0  0  0
 28  1  1  0  0  0
  1  2  1  0  0  0
  2  3  2  0  0  0
  2  4  1  0  0  0
  4  5  1  0  0  0
  5  6  1  0  0  0
  6  7  2  0  0  0
  7  8  1  0  0  0
  8  9  1  0  0  0
  9 10  2  0  0  0
 10 11  1  0  0  0
 11 12  2  0  0  0
 12 13  1  0  0  0
 13 14  2  0  0  0
  7 15  1  0  0  0
 15 20  1  0  0  0
 20 21  1  0  0  0
 21 22  2  0  0  0
 22 23  1  0  0  0
 23 26  1  0  0  0
 26 27  3  0  0  0
 23 24  2  0  0  0
 24 25  1  0  0  0
 15 16  1  0  0  0
 16 17  1  0  0  0
 17 18  2  0  0  0
 17  1  1  0  0  0
 16  4  1  0  0  0
 14  6  1  0  0  0
 25 20  2  0  0  0
 14  9  1  0  0  0
  8 19  1  0  0  0
M  END
> <minimizedAffinity>
-9.28326

$$$$



 31 35  0  0  0  0  0  0  0  0999 V2000
    1.0856   67.6790   81.6083 N   0  0  0  0  0  0  0  0  0  0  0  0
   -0.0049   67.5930   80.7831 C   0  0  0  0  0  0  0  0  0  0  0  0
   -0.5343   68.5136   80.1752 O   0  0  0  0  0  0  0  0  0  0  0  0
   -0.4799   66.1487   80.7500 C   0  0  0  0  0  0  0  0  0  0  0  0
   -0.5297   65.5727   79.3310 C   0  0  0  0  0  0  0  0  0  0  0  0
   -0.4041   64.0842   79.3990 C   0  0  0  0  0  0  0  0  0  0  0  0
    0.1217   63.4478   80.5118 C   0  0  0  0  0  0  0  0  0  0  0  0
    0.1332   62.1017   80.2607 N   0  0  0  0  0  0  0  0  0  0  0  0
   -0.3989   61.8534   79.0133 C   0  0  0  0  0  0  0  0  0  0  0  0
   -0.5978   60.6380   78.3477 C   0  0  0  0  0  0  0  0  0  0  0  0
   -1.1591   60.6834   77.0680 C   0  0  0  0  0  0  0  0  0  0  0  0
   -1.5057   61.8968   76.4783 C   0  0  0  0  0  0  0  0  0  0  0  0
   -1.3011   63.1043   77.1559 C   0  0  0  0  0  0  0  0  0  0  0  0
   -0.7403   63.0850   78.4476 C   0  0  0  0  0  0  0  0  0  0  0  0
    0.6096   64.0872   81.7826 C   0  0  0  0  0  0  0  0  0  0  0  0
    0.5472   65.5276   81.5754 N   0  0  0  0  0  0  0  0  0  0  0  0
    1.4393   66.4447   82.0811 C   0  0  0  0  0  0  0  0  0  0  0  0
    2.3860   66.1856   82.8072 O   0  0  0  0  0  0  0  0  0  0  0  0
    0.4616   61.3861   80.8956 H   0  0  0  0  0  0  0  0  0  0  0  0
   -0.1707   63.6924   83.0302 C   0  0  0  0  0  0  0  0  0  0  0  0
    0.4152   63.8901   84.2928 C   0  0  0  0  0  0  0  0  0  0  0  0
   -0.2763   63.5682   85.4642 C   0  0  0  0  0  0  0  0  0  0  0  0
   -1.5718   63.0509   85.3934 C   0  0  0  0  0  0  0  0  0  0  0  0
   -2.1735   62.8636   84.1463 C   0  0  0  0  0  0  0  0  0  0  0  0
   -1.4814   63.1878   82.9753 C   0  0  0  0  0  0  0  0  0  0  0  0
   -2.2827   62.7203   86.5935 C   0  0  0  0  0  0  0  0  0  0  0  0
   -2.8598   62.4500   87.5635 N   0  0  0  0  0  0  0  0  0  0  0  0
    1.7995   68.9024   81.9127 C   0  0  0  0  0  0  0  0  0  0  0  0
    2.7861   69.3008   80.8115 C   0  0  0  0  0  0  0  0  0  0  0  0
    4.5045   71.0202   80.1474 C   0  0  0  0  0  0  0  0  0  0  0  0
    3.8707   70.2614   81.3029 C   0  0  0  0  0  0  0  0  0  0  0  0
 30 31  1  0  0  0
 31 29  1  0  0  0
 29 28  1  0  0  0
 28  1  1  0  0  0
  1  2  1  0  0  0
  2  3  2  0  0  0
  2  4  1  0  0  0
  4  5  1  0  0  0
  5  6  1  0  0  0
  6  7  2  0  0  0
  7  8  1  0  0  0
  8  9  1  0  0  0
  9 10  2  0  0  0
 10 11  1  0  0  0
 11 12  2  0  0  0
 12 13  1  0  0  0
 13 14  2  0  0  0
  7 15  1  0  0  0
 15 20  1  0  0  0
 20 21  1  0  0  0
 21 22  2  0  0  0
 22 23  1  0  0  0
 23 26  1  0  0  0
 26 27  3  0  0  0
 23 24  2  0  0  0
 24 25  1  0  0  0
 15 16  1  0  0  0
 16 17  1  0  0  0
 17 18  2  0  0  0
 17  1  1  0  0  0
 16  4  1  0  0  0
 14  6  1  0  0  0
 25 20  2  0  0  0
 14  9  1  0  0  0
  8 19  1  0  0  0
M  END
> <minimizedAffinity>
-9.26047

$$$$



 31 35  0  0  0  0  0  0  0  0999 V2000
   -0.0191   64.7107   80.9161 N   0  0  0  0  0  0  0  0  0  0  0  0
   -0.1905   64.5406   82.2650 C   0  0  0  0  0  0  0  0  0  0  0  0
   -0.9147   63.7188   82.8105 O   0  0  0  0  0  0  0  0  0  0  0  0
    0.6623   65.5637   82.9988 C   0  0  0  0  0  0  0  0  0  0  0  0
    1.6408   64.9209   83.9873 C   0  0  0  0  0  0  0  0  0  0  0  0
    2.7993   65.8417   84.2025 C   0  0  0  0  0  0  0  0  0  0  0  0
    3.1046   66.8505   83.3032 C   0  0  0  0  0  0  0  0  0  0  0  0
    4.2249   67.4943   83.7570 N   0  0  0  0  0  0  0  0  0  0  0  0
    4.6363   66.9348   84.9480 C   0  0  0  0  0  0  0  0  0  0  0  0
    5.7154   67.2729   85.7735 C   0  0  0  0  0  0  0  0  0  0  0  0
    5.9036   66.5198   86.9362 C   0  0  0  0  0  0  0  0  0  0  0  0
    5.0469   65.4697   87.2584 C   0  0  0  0  0  0  0  0  0  0  0  0
    3.9720   65.1431   86.4236 C   0  0  0  0  0  0  0  0  0  0  0  0
    3.7591   65.8890   85.2481 C   0  0  0  0  0  0  0  0  0  0  0  0
    2.3662   67.2013   82.0409 C   0  0  0  0  0  0  0  0  0  0  0  0
    1.3330   66.1896   81.8672 N   0  0  0  0  0  0  0  0  0  0  0  0
    0.9040   65.6877   80.6603 C   0  0  0  0  0  0  0  0  0  0  0  0
    1.3002   66.0474   79.5628 O   0  0  0  0  0  0  0  0  0  0  0  0
    4.6791   68.2768   83.3052 H   0  0  0  0  0  0  0  0  0  0  0  0
    1.7548   68.5968   82.0319 C   0  0  0  0  0  0  0  0  0  0  0  0
    2.4173   69.6367   82.7075 C   0  0  0  0  0  0  0  0  0  0  0  0
    1.9064   70.9378   82.7011 C   0  0  0  0  0  0  0  0  0  0  0  0
    0.7268   71.2239   82.0100 C   0  0  0  0  0  0  0  0  0  0  0  0
    0.0653   70.2043   81.3208 C   0  0  0  0  0  0  0  0  0  0  0  0
    0.5786   68.9035   81.3263 C   0  0  0  0  0  0  0  0  0  0  0  0
    0.2013   72.5577   82.0021 C   0  0  0  0  0  0  0  0  0  0  0  0
   -0.2222   73.6382   81.9929 N   0  0  0  0  0  0  0  0  0  0  0  0
   -0.6904   63.9369   79.8917 C   0  0  0  0  0  0  0  0  0  0  0  0
    0.1476   62.7530   79.4008 C   0  0  0  0  0  0  0  0  0  0  0  0
   -0.2969   63.8953   77.1990 C   0  0  0  0  0  0  0  0  0  0  0  0
    0.5741   62.8913   77.9380 C   0  0  0  0  0  0  0  0  0  0  0  0
 30 31  1  0  0  0
 31 29  1  0  0  0
 29 28  1  0  0  0
 28  1  1  0  0  0
  1  2  1  0  0  0
  2  3  2  0  0  0
  2  4  1  0  0  0
  4  5  1  0  0  0
  5  6  1  0  0  0
  6  7  2  0  0  0
  7  8  1  0  0  0
  8  9  1  0  0  0
  9 10  2  0  0  0
 10 11  1  0  0  0
 11 12  2  0  0  0
 12 13  1  0  0  0
 13 14  2  0  0  0
  7 15  1  0  0  0
 15 20  1  0  0  0
 20 21  1  0  0  0
 21 22  2  0  0  0
 22 23  1  0  0  0
 23 26  1  0  0  0
 26 27  3  0  0  0
 23 24  2  0  0  0
 24 25  1  0  0  0
 15 16  1  0  0  0
 16 17  1  0  0  0
 17 18  2  0  0  0
 17  1  1  0  0  0
 16  4  1  0  0  0
 14  6  1  0  0  0
 25 20  2  0  0  0
 14  9  1  0  0  0
  8 19  1  0  0  0
M  END
> <minimizedAffinity>
-9.21737

$$$$
