


 41 44  0  0  0  0  0  0  0  0999 V2000
    3.4415   66.7437   84.5015 C   0  0  0  0  0  0  0  0  0  0  0  0
    4.2072   67.7562   83.9092 C   0  0  0  0  0  0  0  0  0  0  0  0
    3.6171   68.6460   83.0139 C   0  0  0  0  0  0  0  0  0  0  0  0
    2.2626   68.5082   82.7034 C   0  0  0  0  0  0  0  0  0  0  0  0
    1.4943   67.4908   83.2783 C   0  0  0  0  0  0  0  0  0  0  0  0
    2.0872   66.5771   84.1650 C   0  0  0  0  0  0  0  0  0  0  0  0
    1.2301   65.4695   84.6945 C   0  0  0  0  0  0  0  0  0  0  0  0
    0.3508   64.9098   83.9123 N   0  0  0  0  0  0  0  0  0  0  0  0
   -0.3831   63.8850   84.5104 C   0  0  0  0  0  0  0  0  0  0  0  0
   -1.4031   63.1148   83.9161 C   0  0  0  0  0  0  0  0  0  0  0  0
   -1.8186   62.2327   84.9046 C   0  0  0  0  0  0  0  0  0  0  0  0
   -1.0862   62.4712   86.0453 N   0  0  0  0  0  0  0  0  0  0  0  0
   -1.2326   61.7611   87.2954 C   0  0  0  0  0  0  0  0  0  0  0  0
   -0.2006   63.4859   85.8057 C   0  0  0  0  0  0  0  0  0  0  0  0
    0.7660   64.0937   86.6574 C   0  0  0  0  0  0  0  0  0  0  0  0
    0.9813   63.7976   87.8275 O   0  0  0  0  0  0  0  0  0  0  0  0
    1.4583   65.0894   86.0099 N   0  0  0  0  0  0  0  0  0  0  0  0
    2.1550   65.5703   86.5633 H   0  0  0  0  0  0  0  0  0  0  0  0
   -1.9222   63.2173   82.5201 C   0  0  0  0  0  0  0  0  0  0  0  0
   -2.3998   61.8837   81.9403 C   0  0  0  0  0  0  0  0  0  0  0  0
   -3.3980   62.0480   80.8026 C   0  0  0  0  0  0  0  0  0  0  0  0
    1.5122   69.6659   81.5840 S   0  0  0  0  0  0  0  0  0  0  0  0
    2.4941   70.6933   81.3094 O   0  0  0  0  0  0  0  0  0  0  0  0
    0.1958   70.0055   82.0798 O   0  0  0  0  0  0  0  0  0  0  0  0
    1.3070   68.7326   80.1694 N   0  0  0  0  0  0  0  0  0  0  0  0
    2.1729   67.5093   80.0846 C   0  0  0  0  0  0  0  0  0  0  0  0
    1.5955   66.4609   79.1131 C   0  0  0  0  0  0  0  0  0  0  0  0
    0.2384   65.9800   79.4502 N   0  0  0  0  0  0  0  0  0  0  0  0
   -0.5037   66.9947   80.2343 C   0  0  0  0  0  0  0  0  0  0  0  0
   -0.1320   68.4371   79.8530 C   0  0  0  0  0  0  0  0  0  0  0  0
    0.2283   64.6873   80.1496 C   0  0  0  0  0  0  0  0  0  0  0  0
   -0.3827   63.5774   79.2818 C   0  0  0  0  0  0  0  0  0  0  0  0
    0.5166   62.3422   79.2191 C   0  0  0  0  0  0  0  0  0  0  0  0
   -0.2778   61.2006   78.9120 O   0  0  0  0  0  0  0  0  0  0  0  0
   -0.6985   61.1775   77.5603 N   0  0  0  0  0  0  0  0  0  0  0  0
    0.1566   61.3898   76.6992 O   0  0  0  0  0  0  0  0  0  0  0  0
   -1.8978   60.9368   77.4393 O   0  0  0  0  0  0  0  0  0  0  0  0
    4.0758   65.8962   85.3772 O   0  0  0  0  0  0  0  0  0  0  0  0
    5.2915   66.4965   85.8590 C   0  0  0  0  0  0  0  0  0  0  0  0
    7.4445   65.9171   84.6435 C   0  0  0  0  0  0  0  0  0  0  0  0
    6.4393   65.5010   85.7067 C   0  0  0  0  0  0  0  0  0  0  0  0
 40 41  1  0  0  0
 41 39  1  0  0  0
 39 38  1  0  0  0
 38  1  1  0  0  0
  1  2  1  0  0  0
  2  3  2  0  0  0
  3  4  1  0  0  0
  4 22  1  0  0  0
 22 23  2  0  0  0
 22 24  2  0  0  0
 22 25  1  0  0  0
 25 26  1  0  0  0
 26 27  1  0  0  0
 27 28  1  0  0  0
 28 31  1  0  0  0
 31 32  1  0  0  0
 32 33  1  0  0  0
 33 34  1  0  0  0
 34 35  1  0  0  0
 35 36  2  0  0  0
 35 37  1  0  0  0
 28 29  1  0  0  0
 29 30  1  0  0  0
  4  5  2  0  0  0
  5  6  1  0  0  0
  6  7  1  0  0  0
  7  8  2  0  0  0
  8  9  1  0  0  0
  9 10  1  0  0  0
 10 19  1  0  0  0
 19 20  1  0  0  0
 20 21  1  0  0  0
 10 11  2  0  0  0
 11 12  1  0  0  0
 12 13  1  0  0  0
 12 14  1  0  0  0
 14 15  1  0  0  0
 15 16  2  0  0  0
 15 17  1  0  0  0
  6  1  2  0  0  0
 17  7  1  0  0  0
 30 25  1  0  0  0
 14  9  2  0  0  0
 17 18  1  0  0  0
M  CHG 1  35   1
M  CHG 1  37  -1
M  END
> <minimizedAffinity>
-9.58649

$$$$



 41 44  0  0  0  0  0  0  0  0999 V2000
    0.0925   63.9290   85.3703 C   0  0  0  0  0  0  0  0  0  0  0  0
   -0.8333   62.8883   85.5193 C   0  0  0  0  0  0  0  0  0  0  0  0
   -1.4125   62.3016   84.3960 C   0  0  0  0  0  0  0  0  0  0  0  0
   -1.0725   62.7712   83.1256 C   0  0  0  0  0  0  0  0  0  0  0  0
   -0.1608   63.8200   82.9682 C   0  0  0  0  0  0  0  0  0  0  0  0
    0.4109   64.4305   84.0966 C   0  0  0  0  0  0  0  0  0  0  0  0
    1.3267   65.5924   83.8666 C   0  0  0  0  0  0  0  0  0  0  0  0
    2.4553   65.6569   84.5149 N   0  0  0  0  0  0  0  0  0  0  0  0
    3.2297   66.7778   84.2139 C   0  0  0  0  0  0  0  0  0  0  0  0
    4.4820   67.1157   84.7655 C   0  0  0  0  0  0  0  0  0  0  0  0
    4.8431   68.3071   84.1509 C   0  0  0  0  0  0  0  0  0  0  0  0
    3.8452   68.6727   83.2762 N   0  0  0  0  0  0  0  0  0  0  0  0
    3.8494   69.8612   82.4540 C   0  0  0  0  0  0  0  0  0  0  0  0
    2.8517   67.7329   83.3109 C   0  0  0  0  0  0  0  0  0  0  0  0
    1.6212   67.6574   82.5975 C   0  0  0  0  0  0  0  0  0  0  0  0
    1.2112   68.4757   81.7817 O   0  0  0  0  0  0  0  0  0  0  0  0
    0.9083   66.5307   82.9330 N   0  0  0  0  0  0  0  0  0  0  0  0
    0.0167   66.4214   82.4684 H   0  0  0  0  0  0  0  0  0  0  0  0
    5.2602   66.3534   85.7864 C   0  0  0  0  0  0  0  0  0  0  0  0
    6.2526   65.3547   85.1860 C   0  0  0  0  0  0  0  0  0  0  0  0
    7.6527   65.9285   85.0178 C   0  0  0  0  0  0  0  0  0  0  0  0
   -1.7934   61.9968   81.6983 S   0  0  0  0  0  0  0  0  0  0  0  0
   -3.0517   62.6638   81.4397 O   0  0  0  0  0  0  0  0  0  0  0  0
   -1.7311   60.5610   81.8671 O   0  0  0  0  0  0  0  0  0  0  0  0
   -0.7007   62.4194   80.4567 N   0  0  0  0  0  0  0  0  0  0  0  0
   -0.1802   61.2660   79.6491 C   0  0  0  0  0  0  0  0  0  0  0  0
    0.3395   61.7166   78.2696 C   0  0  0  0  0  0  0  0  0  0  0  0
   -0.6612   62.3948   77.4180 N   0  0  0  0  0  0  0  0  0  0  0  0
   -1.7132   63.0335   78.2429 C   0  0  0  0  0  0  0  0  0  0  0  0
   -1.1870   63.5486   79.5926 C   0  0  0  0  0  0  0  0  0  0  0  0
   -1.2680   61.5158   76.4082 C   0  0  0  0  0  0  0  0  0  0  0  0
   -2.7918   61.4264   76.5758 C   0  0  0  0  0  0  0  0  0  0  0  0
   -3.2541   59.9915   76.8323 C   0  0  0  0  0  0  0  0  0  0  0  0
   -2.6710   59.5219   78.0440 O   0  0  0  0  0  0  0  0  0  0  0  0
   -3.5798   59.5420   79.1294 N   0  0  0  0  0  0  0  0  0  0  0  0
   -4.1637   60.6026   79.3572 O   0  0  0  0  0  0  0  0  0  0  0  0
   -3.6589   58.4582   79.7038 O   0  0  0  0  0  0  0  0  0  0  0  0
    0.6323   64.4687   86.5126 O   0  0  0  0  0  0  0  0  0  0  0  0
   -0.1113   64.0377   87.6666 C   0  0  0  0  0  0  0  0  0  0  0  0
    0.2482   62.0435   89.1969 C   0  0  0  0  0  0  0  0  0  0  0  0
    0.8317   63.3326   88.6387 C   0  0  0  0  0  0  0  0  0  0  0  0
 40 41  1  0  0  0
 41 39  1  0  0  0
 39 38  1  0  0  0
 38  1  1  0  0  0
  1  2  1  0  0  0
  2  3  2  0  0  0
  3  4  1  0  0  0
  4 22  1  0  0  0
 22 23  2  0  0  0
 22 24  2  0  0  0
 22 25  1  0  0  0
 25 26  1  0  0  0
 26 27  1  0  0  0
 27 28  1  0  0  0
 28 31  1  0  0  0
 31 32  1  0  0  0
 32 33  1  0  0  0
 33 34  1  0  0  0
 34 35  1  0  0  0
 35 36  2  0  0  0
 35 37  1  0  0  0
 28 29  1  0  0  0
 29 30  1  0  0  0
  4  5  2  0  0  0
  5  6  1  0  0  0
  6  7  1  0  0  0
  7  8  2  0  0  0
  8  9  1  0  0  0
  9 10  1  0  0  0
 10 19  1  0  0  0
 19 20  1  0  0  0
 20 21  1  0  0  0
 10 11  2  0  0  0
 11 12  1  0  0  0
 12 13  1  0  0  0
 12 14  1  0  0  0
 14 15  1  0  0  0
 15 16  2  0  0  0
 15 17  1  0  0  0
  6  1  2  0  0  0
 17  7  1  0  0  0
 30 25  1  0  0  0
 14  9  2  0  0  0
 17 18  1  0  0  0
M  CHG 1  35   1
M  CHG 1  37  -1
M  END
> <minimizedAffinity>
-9.53808

$$$$



 41 44  0  0  0  0  0  0  0  0999 V2000
    2.5879   66.3816   83.9605 C   0  0  0  0  0  0  0  0  0  0  0  0
    2.9975   67.0967   82.8277 C   0  0  0  0  0  0  0  0  0  0  0  0
    2.2162   67.0860   81.6740 C   0  0  0  0  0  0  0  0  0  0  0  0
    1.0327   66.3451   81.6549 C   0  0  0  0  0  0  0  0  0  0  0  0
    0.6240   65.6159   82.7762 C   0  0  0  0  0  0  0  0  0  0  0  0
    1.4171   65.6045   83.9353 C   0  0  0  0  0  0  0  0  0  0  0  0
    0.9619   64.7510   85.0781 C   0  0  0  0  0  0  0  0  0  0  0  0
   -0.1668   64.1062   84.9864 N   0  0  0  0  0  0  0  0  0  0  0  0
   -0.4838   63.3372   86.1066 C   0  0  0  0  0  0  0  0  0  0  0  0
   -1.6372   62.5493   86.2949 C   0  0  0  0  0  0  0  0  0  0  0  0
   -1.4917   61.9824   87.5539 C   0  0  0  0  0  0  0  0  0  0  0  0
   -0.3068   62.4200   88.1007 N   0  0  0  0  0  0  0  0  0  0  0  0
    0.1951   62.0565   89.4063 C   0  0  0  0  0  0  0  0  0  0  0  0
    0.3170   63.2523   87.2120 C   0  0  0  0  0  0  0  0  0  0  0  0
    1.5540   63.9519   87.3079 C   0  0  0  0  0  0  0  0  0  0  0  0
    2.3192   63.9323   88.2657 O   0  0  0  0  0  0  0  0  0  0  0  0
    1.8118   64.6849   86.1737 N   0  0  0  0  0  0  0  0  0  0  0  0
    2.6726   65.2156   86.1808 H   0  0  0  0  0  0  0  0  0  0  0  0
   -2.7710   62.3568   85.3428 C   0  0  0  0  0  0  0  0  0  0  0  0
   -2.3412   61.8351   83.9695 C   0  0  0  0  0  0  0  0  0  0  0  0
   -2.3587   62.9071   82.8887 C   0  0  0  0  0  0  0  0  0  0  0  0
    0.0281   66.3620   80.1896 S   0  0  0  0  0  0  0  0  0  0  0  0
    0.5291   67.4211   79.3397 O   0  0  0  0  0  0  0  0  0  0  0  0
   -1.3644   66.3144   80.5800 O   0  0  0  0  0  0  0  0  0  0  0  0
    0.4121   64.8668   79.4608 N   0  0  0  0  0  0  0  0  0  0  0  0
   -0.4599   63.7166   79.8735 C   0  0  0  0  0  0  0  0  0  0  0  0
   -0.4357   62.5747   78.8383 C   0  0  0  0  0  0  0  0  0  0  0  0
   -0.8766   62.9564   77.4794 N   0  0  0  0  0  0  0  0  0  0  0  0
   -0.6608   64.4023   77.2389 C   0  0  0  0  0  0  0  0  0  0  0  0
    0.5745   64.9541   77.9694 C   0  0  0  0  0  0  0  0  0  0  0  0
   -2.2709   62.5934   77.1887 C   0  0  0  0  0  0  0  0  0  0  0  0
   -2.3711   61.2124   76.5248 C   0  0  0  0  0  0  0  0  0  0  0  0
   -3.3823   60.3106   77.2339 C   0  0  0  0  0  0  0  0  0  0  0  0
   -2.7039   59.5221   78.2069 O   0  0  0  0  0  0  0  0  0  0  0  0
   -3.3178   59.5827   79.4813 N   0  0  0  0  0  0  0  0  0  0  0  0
   -3.5204   60.7007   79.9576 O   0  0  0  0  0  0  0  0  0  0  0  0
   -3.5711   58.4711   79.9407 O   0  0  0  0  0  0  0  0  0  0  0  0
    3.3972   66.4291   85.0698 O   0  0  0  0  0  0  0  0  0  0  0  0
    4.7716   66.2323   84.6923 C   0  0  0  0  0  0  0  0  0  0  0  0
    5.2679   65.5426   87.0853 C   0  0  0  0  0  0  0  0  0  0  0  0
    5.4019   65.1889   85.6119 C   0  0  0  0  0  0  0  0  0  0  0  0
 40 41  1  0  0  0
 41 39  1  0  0  0
 39 38  1  0  0  0
 38  1  1  0  0  0
  1  2  1  0  0  0
  2  3  2  0  0  0
  3  4  1  0  0  0
  4 22  1  0  0  0
 22 23  2  0  0  0
 22 24  2  0  0  0
 22 25  1  0  0  0
 25 26  1  0  0  0
 26 27  1  0  0  0
 27 28  1  0  0  0
 28 31  1  0  0  0
 31 32  1  0  0  0
 32 33  1  0  0  0
 33 34  1  0  0  0
 34 35  1  0  0  0
 35 36  2  0  0  0
 35 37  1  0  0  0
 28 29  1  0  0  0
 29 30  1  0  0  0
  4  5  2  0  0  0
  5  6  1  0  0  0
  6  7  1  0  0  0
  7  8  2  0  0  0
  8  9  1  0  0  0
  9 10  1  0  0  0
 10 19  1  0  0  0
 19 20  1  0  0  0
 20 21  1  0  0  0
 10 11  2  0  0  0
 11 12  1  0  0  0
 12 13  1  0  0  0
 12 14  1  0  0  0
 14 15  1  0  0  0
 15 16  2  0  0  0
 15 17  1  0  0  0
  6  1  2  0  0  0
 17  7  1  0  0  0
 30 25  1  0  0  0
 14  9  2  0  0  0
 17 18  1  0  0  0
M  CHG 1  35   1
M  CHG 1  37  -1
M  END
> <minimizedAffinity>
-9.46315

$$$$



 41 44  0  0  0  0  0  0  0  0999 V2000
   -0.2882   63.9616   86.0383 C   0  0  0  0  0  0  0  0  0  0  0  0
   -1.4243   63.1423   86.0559 C   0  0  0  0  0  0  0  0  0  0  0  0
   -1.9269   62.6184   84.8666 C   0  0  0  0  0  0  0  0  0  0  0  0
   -1.2967   62.9303   83.6601 C   0  0  0  0  0  0  0  0  0  0  0  0
   -0.1711   63.7600   83.6317 C   0  0  0  0  0  0  0  0  0  0  0  0
    0.3283   64.3091   84.8241 C   0  0  0  0  0  0  0  0  0  0  0  0
    1.4934   65.2439   84.7218 C   0  0  0  0  0  0  0  0  0  0  0  0
    1.4262   66.2658   83.9160 N   0  0  0  0  0  0  0  0  0  0  0  0
    2.5655   67.0712   83.9103 C   0  0  0  0  0  0  0  0  0  0  0  0
    2.7814   68.2284   83.1351 C   0  0  0  0  0  0  0  0  0  0  0  0
    4.0508   68.6703   83.4831 C   0  0  0  0  0  0  0  0  0  0  0  0
    4.5769   67.8089   84.4189 N   0  0  0  0  0  0  0  0  0  0  0  0
    5.8852   67.9280   85.0213 C   0  0  0  0  0  0  0  0  0  0  0  0
    3.6649   66.8248   84.6856 C   0  0  0  0  0  0  0  0  0  0  0  0
    3.7341   65.7116   85.5715 C   0  0  0  0  0  0  0  0  0  0  0  0
    4.6848   65.4214   86.2893 O   0  0  0  0  0  0  0  0  0  0  0  0
    2.5821   64.9621   85.5356 N   0  0  0  0  0  0  0  0  0  0  0  0
    2.5697   64.1481   86.1356 H   0  0  0  0  0  0  0  0  0  0  0  0
    1.8444   68.8528   82.1548 C   0  0  0  0  0  0  0  0  0  0  0  0
    2.1655   68.5188   80.6960 C   0  0  0  0  0  0  0  0  0  0  0  0
    1.9175   67.0578   80.3472 C   0  0  0  0  0  0  0  0  0  0  0  0
   -1.9270   62.2333   82.1523 S   0  0  0  0  0  0  0  0  0  0  0  0
   -3.1044   62.9929   81.7893 O   0  0  0  0  0  0  0  0  0  0  0  0
   -1.9816   60.7941   82.2926 O   0  0  0  0  0  0  0  0  0  0  0  0
   -0.6914   62.5970   81.0320 N   0  0  0  0  0  0  0  0  0  0  0  0
   -0.0220   61.4033   80.4150 C   0  0  0  0  0  0  0  0  0  0  0  0
    0.6642   61.7536   79.0799 C   0  0  0  0  0  0  0  0  0  0  0  0
   -0.2355   62.3011   78.0419 N   0  0  0  0  0  0  0  0  0  0  0  0
   -1.4138   62.9576   78.6547 C   0  0  0  0  0  0  0  0  0  0  0  0
   -1.0971   63.6179   80.0067 C   0  0  0  0  0  0  0  0  0  0  0  0
   -0.6647   61.3054   77.0495 C   0  0  0  0  0  0  0  0  0  0  0  0
   -2.1748   61.3850   76.7825 C   0  0  0  0  0  0  0  0  0  0  0  0
   -2.8799   60.0650   77.0966 C   0  0  0  0  0  0  0  0  0  0  0  0
   -2.3918   59.5572   78.3346 O   0  0  0  0  0  0  0  0  0  0  0  0
   -3.3897   59.5169   79.3382 N   0  0  0  0  0  0  0  0  0  0  0  0
   -3.5890   58.4351   79.8929 O   0  0  0  0  0  0  0  0  0  0  0  0
   -3.9280   60.6073   79.5180 O   0  0  0  0  0  0  0  0  0  0  0  0
    0.1634   64.4489   87.2408 O   0  0  0  0  0  0  0  0  0  0  0  0
   -0.5875   63.8735   88.3250 C   0  0  0  0  0  0  0  0  0  0  0  0
    0.3285   61.6006   88.9908 C   0  0  0  0  0  0  0  0  0  0  0  0
    0.3601   63.1009   89.2397 C   0  0  0  0  0  0  0  0  0  0  0  0
 40 41  1  0  0  0
 41 39  1  0  0  0
 39 38  1  0  0  0
 38  1  1  0  0  0
  1  2  1  0  0  0
  2  3  2  0  0  0
  3  4  1  0  0  0
  4 22  1  0  0  0
 22 23  2  0  0  0
 22 24  2  0  0  0
 22 25  1  0  0  0
 25 26  1  0  0  0
 26 27  1  0  0  0
 27 28  1  0  0  0
 28 31  1  0  0  0
 31 32  1  0  0  0
 32 33  1  0  0  0
 33 34  1  0  0  0
 34 35  1  0  0  0
 35 36  2  0  0  0
 35 37  1  0  0  0
 28 29  1  0  0  0
 29 30  1  0  0  0
  4  5  2  0  0  0
  5  6  1  0  0  0
  6  7  1  0  0  0
  7  8  2  0  0  0
  8  9  1  0  0  0
  9 10  1  0  0  0
 10 19  1  0  0  0
 19 20  1  0  0  0
 20 21  1  0  0  0
 10 11  2  0  0  0
 11 12  1  0  0  0
 12 13  1  0  0  0
 12 14  1  0  0  0
 14 15  1  0  0  0
 15 16  2  0  0  0
 15 17  1  0  0  0
  6  1  2  0  0  0
 17  7  1  0  0  0
 30 25  1  0  0  0
 14  9  2  0  0  0
 17 18  1  0  0  0
M  CHG 1  35   1
M  CHG 1  37  -1
M  END
> <minimizedAffinity>
-9.39065

$$$$



 41 44  0  0  0  0  0  0  0  0999 V2000
    0.0918   63.5923   85.6354 C   0  0  0  0  0  0  0  0  0  0  0  0
   -1.0657   62.8132   85.5097 C   0  0  0  0  0  0  0  0  0  0  0  0
   -1.7447   62.7609   84.2941 C   0  0  0  0  0  0  0  0  0  0  0  0
   -1.2687   63.5029   83.2110 C   0  0  0  0  0  0  0  0  0  0  0  0
   -0.1227   64.2954   83.3320 C   0  0  0  0  0  0  0  0  0  0  0  0
    0.5547   64.3699   84.5601 C   0  0  0  0  0  0  0  0  0  0  0  0
    1.7344   65.2878   84.6463 C   0  0  0  0  0  0  0  0  0  0  0  0
    1.7219   66.4110   83.9857 N   0  0  0  0  0  0  0  0  0  0  0  0
    2.8693   67.1881   84.1483 C   0  0  0  0  0  0  0  0  0  0  0  0
    3.1395   68.4358   83.5510 C   0  0  0  0  0  0  0  0  0  0  0  0
    4.3938   68.8022   84.0203 C   0  0  0  0  0  0  0  0  0  0  0  0
    4.8595   67.8116   84.8547 N   0  0  0  0  0  0  0  0  0  0  0  0
    6.1353   67.8228   85.5335 C   0  0  0  0  0  0  0  0  0  0  0  0
    3.9231   66.8178   84.9374 C   0  0  0  0  0  0  0  0  0  0  0  0
    3.9323   65.5931   85.6647 C   0  0  0  0  0  0  0  0  0  0  0  0
    4.8402   65.1899   86.3834 O   0  0  0  0  0  0  0  0  0  0  0  0
    2.7751   64.8773   85.4681 N   0  0  0  0  0  0  0  0  0  0  0  0
    2.7214   63.9895   85.9495 H   0  0  0  0  0  0  0  0  0  0  0  0
    2.2631   69.2055   82.6192 C   0  0  0  0  0  0  0  0  0  0  0  0
    2.6031   68.9995   81.1411 C   0  0  0  0  0  0  0  0  0  0  0  0
    2.0449   67.7020   80.5730 C   0  0  0  0  0  0  0  0  0  0  0  0
   -2.1240   63.4062   81.6568 S   0  0  0  0  0  0  0  0  0  0  0  0
   -1.2384   63.9454   80.6469 O   0  0  0  0  0  0  0  0  0  0  0  0
   -3.4630   63.9269   81.8298 O   0  0  0  0  0  0  0  0  0  0  0  0
   -2.2523   61.7220   81.4095 N   0  0  0  0  0  0  0  0  0  0  0  0
   -3.4748   61.2818   80.6576 C   0  0  0  0  0  0  0  0  0  0  0  0
   -3.2857   59.8951   80.0115 C   0  0  0  0  0  0  0  0  0  0  0  0
   -2.1610   59.8010   79.0562 N   0  0  0  0  0  0  0  0  0  0  0  0
   -1.1177   60.8065   79.3654 C   0  0  0  0  0  0  0  0  0  0  0  0
   -0.9950   61.1007   80.8696 C   0  0  0  0  0  0  0  0  0  0  0  0
   -2.5725   59.9088   77.6493 C   0  0  0  0  0  0  0  0  0  0  0  0
   -3.3318   61.2158   77.3787 C   0  0  0  0  0  0  0  0  0  0  0  0
   -2.5713   62.1285   76.4159 C   0  0  0  0  0  0  0  0  0  0  0  0
   -2.0966   63.2672   77.1277 O   0  0  0  0  0  0  0  0  0  0  0  0
   -0.7981   63.6602   76.7228 N   0  0  0  0  0  0  0  0  0  0  0  0
   -0.6295   64.8480   76.4427 O   0  0  0  0  0  0  0  0  0  0  0  0
    0.0005   62.7258   76.7132 O   0  0  0  0  0  0  0  0  0  0  0  0
    0.7204   63.6051   86.8569 O   0  0  0  0  0  0  0  0  0  0  0  0
   -0.0981   64.2767   87.8312 C   0  0  0  0  0  0  0  0  0  0  0  0
    0.3588   62.1646   89.1649 C   0  0  0  0  0  0  0  0  0  0  0  0
   -0.6484   63.2510   88.8196 C   0  0  0  0  0  0  0  0  0  0  0  0
 40 41  1  0  0  0
 41 39  1  0  0  0
 39 38  1  0  0  0
 38  1  1  0  0  0
  1  2  1  0  0  0
  2  3  2  0  0  0
  3  4  1  0  0  0
  4 22  1  0  0  0
 22 23  2  0  0  0
 22 24  2  0  0  0
 22 25  1  0  0  0
 25 26  1  0  0  0
 26 27  1  0  0  0
 27 28  1  0  0  0
 28 31  1  0  0  0
 31 32  1  0  0  0
 32 33  1  0  0  0
 33 34  1  0  0  0
 34 35  1  0  0  0
 35 36  2  0  0  0
 35 37  1  0  0  0
 28 29  1  0  0  0
 29 30  1  0  0  0
  4  5  2  0  0  0
  5  6  1  0  0  0
  6  7  1  0  0  0
  7  8  2  0  0  0
  8  9  1  0  0  0
  9 10  1  0  0  0
 10 19  1  0  0  0
 19 20  1  0  0  0
 20 21  1  0  0  0
 10 11  2  0  0  0
 11 12  1  0  0  0
 12 13  1  0  0  0
 12 14  1  0  0  0
 14 15  1  0  0  0
 15 16  2  0  0  0
 15 17  1  0  0  0
  6  1  2  0  0  0
 17  7  1  0  0  0
 30 25  1  0  0  0
 14  9  2  0  0  0
 17 18  1  0  0  0
M  CHG 1  35   1
M  CHG 1  37  -1
M  END
> <minimizedAffinity>
-8.97064

$$$$



 41 44  0  0  0  0  0  0  0  0999 V2000
    3.5059   66.8036   84.4737 C   0  0  0  0  0  0  0  0  0  0  0  0
    4.2865   67.8293   83.9249 C   0  0  0  0  0  0  0  0  0  0  0  0
    3.7233   68.7306   83.0238 C   0  0  0  0  0  0  0  0  0  0  0  0
    2.3812   68.5913   82.6638 C   0  0  0  0  0  0  0  0  0  0  0  0
    1.5987   67.5610   83.1951 C   0  0  0  0  0  0  0  0  0  0  0  0
    2.1651   66.6360   84.0873 C   0  0  0  0  0  0  0  0  0  0  0  0
    1.2959   65.5159   84.5686 C   0  0  0  0  0  0  0  0  0  0  0  0
    0.5675   64.8567   83.7124 N   0  0  0  0  0  0  0  0  0  0  0  0
   -0.1939   63.8306   84.2729 C   0  0  0  0  0  0  0  0  0  0  0  0
   -1.0781   62.9654   83.5976 C   0  0  0  0  0  0  0  0  0  0  0  0
   -1.5883   62.1252   84.5781 C   0  0  0  0  0  0  0  0  0  0  0  0
   -1.0411   62.4787   85.7906 N   0  0  0  0  0  0  0  0  0  0  0  0
   -1.3316   61.8423   87.0552 C   0  0  0  0  0  0  0  0  0  0  0  0
   -0.1811   63.5264   85.6062 C   0  0  0  0  0  0  0  0  0  0  0  0
    0.6212   64.2431   86.5399 C   0  0  0  0  0  0  0  0  0  0  0  0
    0.6794   64.0354   87.7469 O   0  0  0  0  0  0  0  0  0  0  0  0
    1.3501   65.2345   85.9269 N   0  0  0  0  0  0  0  0  0  0  0  0
    1.9349   65.7899   86.5371 H   0  0  0  0  0  0  0  0  0  0  0  0
   -1.3944   62.9479   82.1386 C   0  0  0  0  0  0  0  0  0  0  0  0
   -0.9216   61.6818   81.4202 C   0  0  0  0  0  0  0  0  0  0  0  0
    0.5856   61.4798   81.4914 C   0  0  0  0  0  0  0  0  0  0  0  0
    1.6642   69.7633   81.5374 S   0  0  0  0  0  0  0  0  0  0  0  0
    0.3335   69.2914   81.2189 O   0  0  0  0  0  0  0  0  0  0  0  0
    2.6236   70.0511   80.4929 O   0  0  0  0  0  0  0  0  0  0  0  0
    1.5168   71.1626   82.5039 N   0  0  0  0  0  0  0  0  0  0  0  0
    2.8141   71.8309   82.8559 C   0  0  0  0  0  0  0  0  0  0  0  0
    2.6146   73.3103   83.2402 C   0  0  0  0  0  0  0  0  0  0  0  0
    1.9932   74.1479   82.1918 N   0  0  0  0  0  0  0  0  0  0  0  0
    1.1591   73.3272   81.2832 C   0  0  0  0  0  0  0  0  0  0  0  0
    0.4931   72.1363   81.9920 C   0  0  0  0  0  0  0  0  0  0  0  0
    2.9613   74.9398   81.4198 C   0  0  0  0  0  0  0  0  0  0  0  0
    3.4586   74.1787   80.1823 C   0  0  0  0  0  0  0  0  0  0  0  0
    4.9124   73.7297   80.3349 C   0  0  0  0  0  0  0  0  0  0  0  0
    5.4189   73.3443   79.0606 O   0  0  0  0  0  0  0  0  0  0  0  0
    5.9698   72.0401   79.0653 N   0  0  0  0  0  0  0  0  0  0  0  0
    7.1190   71.9143   79.4911 O   0  0  0  0  0  0  0  0  0  0  0  0
    5.1915   71.1933   78.6315 O   0  0  0  0  0  0  0  0  0  0  0  0
    4.1137   65.9452   85.3575 O   0  0  0  0  0  0  0  0  0  0  0  0
    5.5446   66.0553   85.2547 C   0  0  0  0  0  0  0  0  0  0  0  0
    5.1569   65.2920   87.6454 C   0  0  0  0  0  0  0  0  0  0  0  0
    6.1814   65.5784   86.5581 C   0  0  0  0  0  0  0  0  0  0  0  0
 40 41  1  0  0  0
 41 39  1  0  0  0
 39 38  1  0  0  0
 38  1  1  0  0  0
  1  2  1  0  0  0
  2  3  2  0  0  0
  3  4  1  0  0  0
  4 22  1  0  0  0
 22 23  2  0  0  0
 22 24  2  0  0  0
 22 25  1  0  0  0
 25 26  1  0  0  0
 26 27  1  0  0  0
 27 28  1  0  0  0
 28 31  1  0  0  0
 31 32  1  0  0  0
 32 33  1  0  0  0
 33 34  1  0  0  0
 34 35  1  0  0  0
 35 36  2  0  0  0
 35 37  1  0  0  0
 28 29  1  0  0  0
 29 30  1  0  0  0
  4  5  2  0  0  0
  5  6  1  0  0  0
  6  7  1  0  0  0
  7  8  2  0  0  0
  8  9  1  0  0  0
  9 10  1  0  0  0
 10 19  1  0  0  0
 19 20  1  0  0  0
 20 21  1  0  0  0
 10 11  2  0  0  0
 11 12  1  0  0  0
 12 13  1  0  0  0
 12 14  1  0  0  0
 14 15  1  0  0  0
 15 16  2  0  0  0
 15 17  1  0  0  0
  6  1  2  0  0  0
 17  7  1  0  0  0
 30 25  1  0  0  0
 14  9  2  0  0  0
 17 18  1  0  0  0
M  CHG 1  35   1
M  CHG 1  37  -1
M  END
> <minimizedAffinity>
-8.94227

$$$$



 41 44  0  0  0  0  0  0  0  0999 V2000
    3.3589   67.2952   84.1634 C   0  0  0  0  0  0  0  0  0  0  0  0
    4.1154   68.3311   83.6005 C   0  0  0  0  0  0  0  0  0  0  0  0
    3.6047   69.0711   82.5360 C   0  0  0  0  0  0  0  0  0  0  0  0
    2.3413   68.7597   82.0289 C   0  0  0  0  0  0  0  0  0  0  0  0
    1.5856   67.7171   82.5749 C   0  0  0  0  0  0  0  0  0  0  0  0
    2.1028   66.9531   83.6338 C   0  0  0  0  0  0  0  0  0  0  0  0
    1.2762   65.8076   84.1301 C   0  0  0  0  0  0  0  0  0  0  0  0
    0.5845   65.1013   83.2811 N   0  0  0  0  0  0  0  0  0  0  0  0
   -0.1391   64.0560   83.8557 C   0  0  0  0  0  0  0  0  0  0  0  0
   -0.9798   63.1410   83.1903 C   0  0  0  0  0  0  0  0  0  0  0  0
   -1.4645   62.3003   84.1833 C   0  0  0  0  0  0  0  0  0  0  0  0
   -0.9446   62.7009   85.3932 N   0  0  0  0  0  0  0  0  0  0  0  0
   -1.2210   62.0787   86.6680 C   0  0  0  0  0  0  0  0  0  0  0  0
   -0.1271   63.7797   85.1951 C   0  0  0  0  0  0  0  0  0  0  0  0
    0.6352   64.5480   86.1210 C   0  0  0  0  0  0  0  0  0  0  0  0
    0.6899   64.3675   87.3325 O   0  0  0  0  0  0  0  0  0  0  0  0
    1.3284   65.5564   85.4943 N   0  0  0  0  0  0  0  0  0  0  0  0
    1.8835   66.1480   86.0983 H   0  0  0  0  0  0  0  0  0  0  0  0
   -1.2804   63.0807   81.7291 C   0  0  0  0  0  0  0  0  0  0  0  0
   -0.8961   61.7515   81.0747 C   0  0  0  0  0  0  0  0  0  0  0  0
    0.6090   61.5461   80.9742 C   0  0  0  0  0  0  0  0  0  0  0  0
    1.6861   69.7283   80.6914 S   0  0  0  0  0  0  0  0  0  0  0  0
    0.5358   69.0189   80.1730 O   0  0  0  0  0  0  0  0  0  0  0  0
    2.7756   70.1185   79.8227 O   0  0  0  0  0  0  0  0  0  0  0  0
    1.1320   71.1325   81.4884 N   0  0  0  0  0  0  0  0  0  0  0  0
    1.5858   72.4282   80.8813 C   0  0  0  0  0  0  0  0  0  0  0  0
    0.6676   73.6021   81.2753 C   0  0  0  0  0  0  0  0  0  0  0  0
   -0.7501   73.4416   80.8867 N   0  0  0  0  0  0  0  0  0  0  0  0
   -1.1093   72.0087   80.7728 C   0  0  0  0  0  0  0  0  0  0  0  0
   -0.3448   71.1178   81.7657 C   0  0  0  0  0  0  0  0  0  0  0  0
   -1.1074   74.1568   79.6533 C   0  0  0  0  0  0  0  0  0  0  0  0
   -2.2324   73.4434   78.8894 C   0  0  0  0  0  0  0  0  0  0  0  0
   -3.1344   74.4314   78.1486 C   0  0  0  0  0  0  0  0  0  0  0  0
   -4.2976   73.7493   77.6901 O   0  0  0  0  0  0  0  0  0  0  0  0
   -5.3358   73.7353   78.6526 N   0  0  0  0  0  0  0  0  0  0  0  0
   -5.7436   74.8246   79.0589 O   0  0  0  0  0  0  0  0  0  0  0  0
   -5.6936   72.5976   78.9500 O   0  0  0  0  0  0  0  0  0  0  0  0
    3.9123   66.6002   85.2113 O   0  0  0  0  0  0  0  0  0  0  0  0
    5.3195   66.8843   85.3096 C   0  0  0  0  0  0  0  0  0  0  0  0
    7.4318   65.6609   84.6100 C   0  0  0  0  0  0  0  0  0  0  0  0
    6.0978   65.5709   85.3354 C   0  0  0  0  0  0  0  0  0  0  0  0
 40 41  1  0  0  0
 41 39  1  0  0  0
 39 38  1  0  0  0
 38  1  1  0  0  0
  1  2  1  0  0  0
  2  3  2  0  0  0
  3  4  1  0  0  0
  4 22  1  0  0  0
 22 23  2  0  0  0
 22 24  2  0  0  0
 22 25  1  0  0  0
 25 26  1  0  0  0
 26 27  1  0  0  0
 27 28  1  0  0  0
 28 31  1  0  0  0
 31 32  1  0  0  0
 32 33  1  0  0  0
 33 34  1  0  0  0
 34 35  1  0  0  0
 35 36  2  0  0  0
 35 37  1  0  0  0
 28 29  1  0  0  0
 29 30  1  0  0  0
  4  5  2  0  0  0
  5  6  1  0  0  0
  6  7  1  0  0  0
  7  8  2  0  0  0
  8  9  1  0  0  0
  9 10  1  0  0  0
 10 19  1  0  0  0
 19 20  1  0  0  0
 20 21  1  0  0  0
 10 11  2  0  0  0
 11 12  1  0  0  0
 12 13  1  0  0  0
 12 14  1  0  0  0
 14 15  1  0  0  0
 15 16  2  0  0  0
 15 17  1  0  0  0
  6  1  2  0  0  0
 17  7  1  0  0  0
 30 25  1  0  0  0
 14  9  2  0  0  0
 17 18  1  0  0  0
M  CHG 1  35   1
M  CHG 1  37  -1
M  END
> <minimizedAffinity>
-8.84111

$$$$



 41 44  0  0  0  0  0  0  0  0999 V2000
    3.5626   66.7421   84.6668 C   0  0  0  0  0  0  0  0  0  0  0  0
    4.4054   67.7352   84.1512 C   0  0  0  0  0  0  0  0  0  0  0  0
    3.9333   68.6194   83.1833 C   0  0  0  0  0  0  0  0  0  0  0  0
    2.6205   68.4953   82.7239 C   0  0  0  0  0  0  0  0  0  0  0  0
    1.7770   67.4970   83.2219 C   0  0  0  0  0  0  0  0  0  0  0  0
    2.2524   66.5887   84.1819 C   0  0  0  0  0  0  0  0  0  0  0  0
    1.3245   65.5008   84.6259 C   0  0  0  0  0  0  0  0  0  0  0  0
    0.5789   64.8954   83.7452 N   0  0  0  0  0  0  0  0  0  0  0  0
   -0.2382   63.8947   84.2720 C   0  0  0  0  0  0  0  0  0  0  0  0
   -1.1518   63.0869   83.5653 C   0  0  0  0  0  0  0  0  0  0  0  0
   -1.7156   62.2509   84.5197 C   0  0  0  0  0  0  0  0  0  0  0  0
   -1.1706   62.5518   85.7473 N   0  0  0  0  0  0  0  0  0  0  0  0
   -1.5096   61.9028   86.9932 C   0  0  0  0  0  0  0  0  0  0  0  0
   -0.2597   63.5615   85.5983 C   0  0  0  0  0  0  0  0  0  0  0  0
    0.5612   64.2191   86.5588 C   0  0  0  0  0  0  0  0  0  0  0  0
    0.5914   63.9829   87.7615 O   0  0  0  0  0  0  0  0  0  0  0  0
    1.3450   65.1880   85.9782 N   0  0  0  0  0  0  0  0  0  0  0  0
    1.9460   65.7019   86.6087 H   0  0  0  0  0  0  0  0  0  0  0  0
   -1.4466   63.1159   82.1020 C   0  0  0  0  0  0  0  0  0  0  0  0
   -0.2471   62.7513   81.2239 C   0  0  0  0  0  0  0  0  0  0  0  0
    0.4193   61.4448   81.6322 C   0  0  0  0  0  0  0  0  0  0  0  0
    2.0185   69.6462   81.5116 S   0  0  0  0  0  0  0  0  0  0  0  0
    0.7841   69.1050   80.9840 O   0  0  0  0  0  0  0  0  0  0  0  0
    3.1095   70.0094   80.6332 O   0  0  0  0  0  0  0  0  0  0  0  0
    1.6390   71.0154   82.4580 N   0  0  0  0  0  0  0  0  0  0  0  0
    2.7728   71.9766   82.6674 C   0  0  0  0  0  0  0  0  0  0  0  0
    2.2719   73.3866   83.0378 C   0  0  0  0  0  0  0  0  0  0  0  0
    1.3819   74.0142   82.0375 N   0  0  0  0  0  0  0  0  0  0  0  0
    0.6819   72.9864   81.2322 C   0  0  0  0  0  0  0  0  0  0  0  0
    0.3760   71.7067   82.0277 C   0  0  0  0  0  0  0  0  0  0  0  0
    2.0670   74.9721   81.1581 C   0  0  0  0  0  0  0  0  0  0  0  0
    2.2301   76.3432   81.8302 C   0  0  0  0  0  0  0  0  0  0  0  0
    3.6958   76.6617   82.1279 C   0  0  0  0  0  0  0  0  0  0  0  0
    3.9314   76.5160   83.5251 O   0  0  0  0  0  0  0  0  0  0  0  0
    5.0294   75.6677   83.8067 N   0  0  0  0  0  0  0  0  0  0  0  0
    5.3944   75.5878   84.9806 O   0  0  0  0  0  0  0  0  0  0  0  0
    5.4713   75.1124   82.8031 O   0  0  0  0  0  0  0  0  0  0  0  0
    4.0813   65.8992   85.6197 O   0  0  0  0  0  0  0  0  0  0  0  0
    5.4463   65.5709   85.3043 C   0  0  0  0  0  0  0  0  0  0  0  0
    5.4692   65.4767   87.8418 C   0  0  0  0  0  0  0  0  0  0  0  0
    6.2906   65.6546   86.5739 C   0  0  0  0  0  0  0  0  0  0  0  0
 40 41  1  0  0  0
 41 39  1  0  0  0
 39 38  1  0  0  0
 38  1  1  0  0  0
  1  2  1  0  0  0
  2  3  2  0  0  0
  3  4  1  0  0  0
  4 22  1  0  0  0
 22 23  2  0  0  0
 22 24  2  0  0  0
 22 25  1  0  0  0
 25 26  1  0  0  0
 26 27  1  0  0  0
 27 28  1  0  0  0
 28 31  1  0  0  0
 31 32  1  0  0  0
 32 33  1  0  0  0
 33 34  1  0  0  0
 34 35  1  0  0  0
 35 36  2  0  0  0
 35 37  1  0  0  0
 28 29  1  0  0  0
 29 30  1  0  0  0
  4  5  2  0  0  0
  5  6  1  0  0  0
  6  7  1  0  0  0
  7  8  2  0  0  0
  8  9  1  0  0  0
  9 10  1  0  0  0
 10 19  1  0  0  0
 19 20  1  0  0  0
 20 21  1  0  0  0
 10 11  2  0  0  0
 11 12  1  0  0  0
 12 13  1  0  0  0
 12 14  1  0  0  0
 14 15  1  0  0  0
 15 16  2  0  0  0
 15 17  1  0  0  0
  6  1  2  0  0  0
 17  7  1  0  0  0
 30 25  1  0  0  0
 14  9  2  0  0  0
 17 18  1  0  0  0
M  CHG 1  35   1
M  CHG 1  37  -1
M  END
> <minimizedAffinity>
-8.76928

$$$$



 41 44  0  0  0  0  0  0  0  0999 V2000
    3.5874   66.4112   84.7825 C   0  0  0  0  0  0  0  0  0  0  0  0
    4.4967   67.3411   84.2620 C   0  0  0  0  0  0  0  0  0  0  0  0
    4.0906   68.2412   83.2789 C   0  0  0  0  0  0  0  0  0  0  0  0
    2.7762   68.1959   82.8094 C   0  0  0  0  0  0  0  0  0  0  0  0
    1.8660   67.2606   83.3124 C   0  0  0  0  0  0  0  0  0  0  0  0
    2.2740   66.3363   84.2879 C   0  0  0  0  0  0  0  0  0  0  0  0
    1.2743   65.3163   84.7373 C   0  0  0  0  0  0  0  0  0  0  0  0
    0.5998   64.6447   83.8473 N   0  0  0  0  0  0  0  0  0  0  0  0
   -0.2950   63.7171   84.3816 C   0  0  0  0  0  0  0  0  0  0  0  0
   -1.1598   62.8645   83.6661 C   0  0  0  0  0  0  0  0  0  0  0  0
   -1.8393   62.1367   84.6338 C   0  0  0  0  0  0  0  0  0  0  0  0
   -1.4077   62.5432   85.8759 N   0  0  0  0  0  0  0  0  0  0  0  0
   -1.8862   62.0249   87.1372 C   0  0  0  0  0  0  0  0  0  0  0  0
   -0.4559   63.5141   85.7244 C   0  0  0  0  0  0  0  0  0  0  0  0
    0.2873   64.2439   86.6961 C   0  0  0  0  0  0  0  0  0  0  0  0
    0.1929   64.1244   87.9127 O   0  0  0  0  0  0  0  0  0  0  0  0
    1.1533   65.1353   86.1083 N   0  0  0  0  0  0  0  0  0  0  0  0
    1.7055   65.6947   86.7446 H   0  0  0  0  0  0  0  0  0  0  0  0
   -1.3096   62.7583   82.1845 C   0  0  0  0  0  0  0  0  0  0  0  0
   -2.6904   63.1757   81.6727 C   0  0  0  0  0  0  0  0  0  0  0  0
   -3.3970   62.0771   80.8906 C   0  0  0  0  0  0  0  0  0  0  0  0
    2.2595   69.3672   81.5775 S   0  0  0  0  0  0  0  0  0  0  0  0
    1.0994   68.8088   80.9162 O   0  0  0  0  0  0  0  0  0  0  0  0
    3.4190   69.7881   80.8209 O   0  0  0  0  0  0  0  0  0  0  0  0
    1.7480   70.6948   82.5209 N   0  0  0  0  0  0  0  0  0  0  0  0
    2.7761   71.7719   82.7118 C   0  0  0  0  0  0  0  0  0  0  0  0
    2.1331   73.1234   83.0805 C   0  0  0  0  0  0  0  0  0  0  0  0
    1.1705   73.6469   82.0876 N   0  0  0  0  0  0  0  0  0  0  0  0
    0.5741   72.5455   81.2961 C   0  0  0  0  0  0  0  0  0  0  0  0
    0.4143   71.2459   82.1021 C   0  0  0  0  0  0  0  0  0  0  0  0
    1.7405   74.6660   81.1949 C   0  0  0  0  0  0  0  0  0  0  0  0
    0.9326   75.9713   81.2349 C   0  0  0  0  0  0  0  0  0  0  0  0
    0.5658   76.3714   82.6645 C   0  0  0  0  0  0  0  0  0  0  0  0
   -0.8398   76.2281   82.8441 O   0  0  0  0  0  0  0  0  0  0  0  0
   -1.3261   76.9684   83.9486 N   0  0  0  0  0  0  0  0  0  0  0  0
   -0.4960   77.5572   84.6430 O   0  0  0  0  0  0  0  0  0  0  0  0
   -2.5496   76.9164   84.0547 O   0  0  0  0  0  0  0  0  0  0  0  0
    4.0430   65.5492   85.7505 O   0  0  0  0  0  0  0  0  0  0  0  0
    5.4235   65.2195   85.5141 C   0  0  0  0  0  0  0  0  0  0  0  0
    5.4915   65.4807   88.0390 C   0  0  0  0  0  0  0  0  0  0  0  0
    6.2533   65.6244   86.7302 C   0  0  0  0  0  0  0  0  0  0  0  0
 40 41  1  0  0  0
 41 39  1  0  0  0
 39 38  1  0  0  0
 38  1  1  0  0  0
  1  2  1  0  0  0
  2  3  2  0  0  0
  3  4  1  0  0  0
  4 22  1  0  0  0
 22 23  2  0  0  0
 22 24  2  0  0  0
 22 25  1  0  0  0
 25 26  1  0  0  0
 26 27  1  0  0  0
 27 28  1  0  0  0
 28 31  1  0  0  0
 31 32  1  0  0  0
 32 33  1  0  0  0
 33 34  1  0  0  0
 34 35  1  0  0  0
 35 36  2  0  0  0
 35 37  1  0  0  0
 28 29  1  0  0  0
 29 30  1  0  0  0
  4  5  2  0  0  0
  5  6  1  0  0  0
  6  7  1  0  0  0
  7  8  2  0  0  0
  8  9  1  0  0  0
  9 10  1  0  0  0
 10 19  1  0  0  0
 19 20  1  0  0  0
 20 21  1  0  0  0
 10 11  2  0  0  0
 11 12  1  0  0  0
 12 13  1  0  0  0
 12 14  1  0  0  0
 14 15  1  0  0  0
 15 16  2  0  0  0
 15 17  1  0  0  0
  6  1  2  0  0  0
 17  7  1  0  0  0
 30 25  1  0  0  0
 14  9  2  0  0  0
 17 18  1  0  0  0
M  CHG 1  35   1
M  CHG 1  37  -1
M  END
> <minimizedAffinity>
-8.75013

$$$$
