


 45 50  0  0  0  0  0  0  0  0999 V2000
    1.9302   66.9359   82.8659 C   0  0  0  0  0  0  0  0  0  0  0  0
    3.0188   66.8045   83.7249 C   0  0  0  0  0  0  0  0  0  0  0  0
    3.6680   67.9522   84.1309 C   0  0  0  0  0  0  0  0  0  0  0  0
    3.3093   69.1938   83.7446 N   0  0  0  0  0  0  0  0  0  0  0  0
    2.2575   69.3465   82.9095 C   0  0  0  0  0  0  0  0  0  0  0  0
    1.5522   68.2253   82.4610 C   0  0  0  0  0  0  0  0  0  0  0  0
    1.8554   70.6608   82.4876 N   0  0  0  0  0  0  0  0  0  0  0  0
    2.7557   71.6639   82.7880 N   0  0  0  0  0  0  0  0  0  0  0  0
    2.5021   72.8909   82.4569 C   0  0  0  0  0  0  0  0  0  0  0  0
    1.2982   73.2861   81.7023 C   0  0  0  0  0  0  0  0  0  0  0  0
    1.0774   74.5883   81.2278 C   0  0  0  0  0  0  0  0  0  0  0  0
   -0.0914   74.8914   80.5248 C   0  0  0  0  0  0  0  0  0  0  0  0
   -1.0360   73.8986   80.2807 C   0  0  0  0  0  0  0  0  0  0  0  0
   -0.8047   72.5984   80.7279 C   0  0  0  0  0  0  0  0  0  0  0  0
    0.3694   72.2883   81.4333 C   0  0  0  0  0  0  0  0  0  0  0  0
    0.6276   70.8945   81.8581 C   0  0  0  0  0  0  0  0  0  0  0  0
   -0.2549   70.0767   81.6059 O   0  0  0  0  0  0  0  0  0  0  0  0
    3.4973   73.8999   82.8768 C   0  0  0  0  0  0  0  0  0  0  0  0
    3.3381   74.5794   84.0833 C   0  0  0  0  0  0  0  0  0  0  0  0
    4.2776   75.5414   84.4443 C   0  0  0  0  0  0  0  0  0  0  0  0
    5.3334   75.7892   83.5787 C   0  0  0  0  0  0  0  0  0  0  0  0
    5.5025   75.1562   82.3952 N   0  0  0  0  0  0  0  0  0  0  0  0
    4.5674   74.2371   82.0590 C   0  0  0  0  0  0  0  0  0  0  0  0
   -0.5921   63.0456   85.2067 C   0  0  0  0  0  0  0  0  0  0  0  0
   -0.7156   62.8504   83.8321 C   0  0  0  0  0  0  0  0  0  0  0  0
   -0.1294   63.7377   82.9118 C   0  0  0  0  0  0  0  0  0  0  0  0
   -0.2541   63.4981   81.5397 C   0  0  0  0  0  0  0  0  0  0  0  0
    0.3259   64.3447   80.5830 C   0  0  0  0  0  0  0  0  0  0  0  0
    1.0298   65.4949   81.0094 C   0  0  0  0  0  0  0  0  0  0  0  0
    1.1781   65.7521   82.4034 C   0  0  0  0  0  0  0  0  0  0  0  0
    0.5911   64.8663   83.3646 C   0  0  0  0  0  0  0  0  0  0  0  0
    0.6768   65.0561   84.7662 C   0  0  0  0  0  0  0  0  0  0  0  0
    0.0717   64.1772   85.6695 C   0  0  0  0  0  0  0  0  0  0  0  0
    0.1379   64.0055   79.1242 C   0  0  0  0  0  0  0  0  0  0  0  0
    0.7798   62.7678   78.8596 O   0  0  0  0  0  0  0  0  0  0  0  0
    0.5662   62.5363   77.9405 H   0  0  0  0  0  0  0  0  0  0  0  0
    1.6456   66.4119   79.9703 C   0  0  0  0  0  0  0  0  0  0  0  0
    0.6402   67.2552   79.4176 O   0  0  0  0  0  0  0  0  0  0  0  0
   -0.1544   66.7071   79.3048 H   0  0  0  0  0  0  0  0  0  0  0  0
   -1.1982   62.1063   85.9965 O   0  0  0  0  0  0  0  0  0  0  0  0
   -2.9517   63.1387   87.2386 C   0  0  0  0  0  0  0  0  0  0  0  0
   -2.6221   62.2399   86.0596 C   0  0  0  0  0  0  0  0  0  0  0  0
    0.1870   64.4663   87.0036 O   0  0  0  0  0  0  0  0  0  0  0  0
    1.2149   63.6571   87.5905 C   0  0  0  0  0  0  0  0  0  0  0  0
    0.6424   63.0058   88.8357 C   0  0  0  0  0  0  0  0  0  0  0  0
 41 42  1  0  0  0
 42 40  1  0  0  0
 40 24  1  0  0  0
 24 25  1  0  0  0
 25 26  2  0  0  0
 26 27  1  0  0  0
 27 28  2  0  0  0
 28 34  1  0  0  0
 34 35  1  0  0  0
 28 29  1  0  0  0
 29 37  1  0  0  0
 37 38  1  0  0  0
 29 30  2  0  0  0
 30  1  1  0  0  0
  1  2  2  0  0  0
  2  3  1  0  0  0
  3  4  2  0  0  0
  4  5  1  0  0  0
  5  7  1  0  0  0
  7  8  1  0  0  0
  8  9  2  0  0  0
  9 18  1  0  0  0
 18 19  1  0  0  0
 19 20  2  0  0  0
 20 21  1  0  0  0
 21 22  2  0  0  0
 22 23  1  0  0  0
  9 10  1  0  0  0
 10 11  2  0  0  0
 11 12  1  0  0  0
 12 13  2  0  0  0
 13 14  1  0  0  0
 14 15  2  0  0  0
 15 16  1  0  0  0
 16 17  2  0  0  0
  5  6  2  0  0  0
 30 31  1  0  0  0
 31 32  2  0  0  0
 32 33  1  0  0  0
 33 43  1  0  0  0
 43 44  1  0  0  0
 44 45  1  0  0  0
 33 24  2  0  0  0
 31 26  1  0  0  0
  6  1  1  0  0  0
 16  7  1  0  0  0
 23 18  2  0  0  0
 15 10  1  0  0  0
 35 36  1  0  0  0
 38 39  1  0  0  0
M  END
> <minimizedAffinity>
-11.72178

$$$$



 45 50  0  0  0  0  0  0  0  0999 V2000
   -0.7540   63.5256   79.7251 C   0  0  0  0  0  0  0  0  0  0  0  0
   -0.2452   63.3784   78.4368 C   0  0  0  0  0  0  0  0  0  0  0  0
    0.5485   64.3881   77.9327 C   0  0  0  0  0  0  0  0  0  0  0  0
    0.8604   65.5091   78.6151 N   0  0  0  0  0  0  0  0  0  0  0  0
    0.3764   65.6756   79.8662 C   0  0  0  0  0  0  0  0  0  0  0  0
   -0.4325   64.6896   80.4400 C   0  0  0  0  0  0  0  0  0  0  0  0
    0.6990   66.8609   80.6132 N   0  0  0  0  0  0  0  0  0  0  0  0
    1.6748   66.6890   81.5750 N   0  0  0  0  0  0  0  0  0  0  0  0
    2.0497   67.6870   82.3119 C   0  0  0  0  0  0  0  0  0  0  0  0
    1.5221   69.0535   82.1411 C   0  0  0  0  0  0  0  0  0  0  0  0
    2.0130   70.1643   82.8446 C   0  0  0  0  0  0  0  0  0  0  0  0
    1.4589   71.4297   82.6354 C   0  0  0  0  0  0  0  0  0  0  0  0
    0.4258   71.5959   81.7174 C   0  0  0  0  0  0  0  0  0  0  0  0
   -0.0440   70.4977   80.9980 C   0  0  0  0  0  0  0  0  0  0  0  0
    0.5110   69.2241   81.2033 C   0  0  0  0  0  0  0  0  0  0  0  0
    0.0394   68.0761   80.3974 C   0  0  0  0  0  0  0  0  0  0  0  0
   -0.8758   68.3043   79.6092 O   0  0  0  0  0  0  0  0  0  0  0  0
    3.0546   67.3885   83.3539 C   0  0  0  0  0  0  0  0  0  0  0  0
    2.9282   66.2445   84.1402 C   0  0  0  0  0  0  0  0  0  0  0  0
    3.8758   65.9988   85.1302 C   0  0  0  0  0  0  0  0  0  0  0  0
    4.9064   66.9126   85.2975 C   0  0  0  0  0  0  0  0  0  0  0  0
    5.0433   68.0382   84.5598 N   0  0  0  0  0  0  0  0  0  0  0  0
    4.1007   68.2632   83.6147 C   0  0  0  0  0  0  0  0  0  0  0  0
   -1.9061   62.1105   84.5878 C   0  0  0  0  0  0  0  0  0  0  0  0
   -2.6047   61.2594   83.7332 C   0  0  0  0  0  0  0  0  0  0  0  0
   -2.4988   61.3779   82.3358 C   0  0  0  0  0  0  0  0  0  0  0  0
   -3.1961   60.4917   81.5086 C   0  0  0  0  0  0  0  0  0  0  0  0
   -3.1102   60.5591   80.1098 C   0  0  0  0  0  0  0  0  0  0  0  0
   -2.3249   61.5712   79.5104 C   0  0  0  0  0  0  0  0  0  0  0  0
   -1.5974   62.4779   80.3349 C   0  0  0  0  0  0  0  0  0  0  0  0
   -1.6865   62.3822   81.7619 C   0  0  0  0  0  0  0  0  0  0  0  0
   -1.0102   63.2514   82.6535 C   0  0  0  0  0  0  0  0  0  0  0  0
   -1.1407   63.1351   84.0405 C   0  0  0  0  0  0  0  0  0  0  0  0
   -3.8991   59.5600   79.2988 C   0  0  0  0  0  0  0  0  0  0  0  0
   -3.9573   58.3373   80.0169 O   0  0  0  0  0  0  0  0  0  0  0  0
   -4.5422   57.7478   79.5126 H   0  0  0  0  0  0  0  0  0  0  0  0
   -2.2444   61.6454   77.9978 C   0  0  0  0  0  0  0  0  0  0  0  0
   -3.3957   62.3100   77.4874 O   0  0  0  0  0  0  0  0  0  0  0  0
   -4.1536   61.9988   78.0101 H   0  0  0  0  0  0  0  0  0  0  0  0
   -2.0848   61.8855   85.9261 O   0  0  0  0  0  0  0  0  0  0  0  0
   -2.2627   63.2472   87.8747 C   0  0  0  0  0  0  0  0  0  0  0  0
   -2.9234   62.8537   86.5652 C   0  0  0  0  0  0  0  0  0  0  0  0
   -0.4697   64.0442   84.8152 O   0  0  0  0  0  0  0  0  0  0  0  0
    0.7134   63.4428   85.3578 C   0  0  0  0  0  0  0  0  0  0  0  0
    0.9958   64.0950   86.6985 C   0  0  0  0  0  0  0  0  0  0  0  0
 41 42  1  0  0  0
 42 40  1  0  0  0
 40 24  1  0  0  0
 24 25  1  0  0  0
 25 26  2  0  0  0
 26 27  1  0  0  0
 27 28  2  0  0  0
 28 34  1  0  0  0
 34 35  1  0  0  0
 28 29  1  0  0  0
 29 37  1  0  0  0
 37 38  1  0  0  0
 29 30  2  0  0  0
 30  1  1  0  0  0
  1  2  2  0  0  0
  2  3  1  0  0  0
  3  4  2  0  0  0
  4  5  1  0  0  0
  5  7  1  0  0  0
  7  8  1  0  0  0
  8  9  2  0  0  0
  9 18  1  0  0  0
 18 19  1  0  0  0
 19 20  2  0  0  0
 20 21  1  0  0  0
 21 22  2  0  0  0
 22 23  1  0  0  0
  9 10  1  0  0  0
 10 11  2  0  0  0
 11 12  1  0  0  0
 12 13  2  0  0  0
 13 14  1  0  0  0
 14 15  2  0  0  0
 15 16  1  0  0  0
 16 17  2  0  0  0
  5  6  2  0  0  0
 30 31  1  0  0  0
 31 32  2  0  0  0
 32 33  1  0  0  0
 33 43  1  0  0  0
 43 44  1  0  0  0
 44 45  1  0  0  0
 33 24  2  0  0  0
 31 26  1  0  0  0
  6  1  1  0  0  0
 16  7  1  0  0  0
 23 18  2  0  0  0
 15 10  1  0  0  0
 35 36  1  0  0  0
 38 39  1  0  0  0
M  END
> <minimizedAffinity>
-11.58001

$$$$



 45 50  0  0  0  0  0  0  0  0999 V2000
    1.8056   66.9469   82.7222 C   0  0  0  0  0  0  0  0  0  0  0  0
    2.7665   66.8736   83.7279 C   0  0  0  0  0  0  0  0  0  0  0  0
    3.4042   68.0382   84.1030 C   0  0  0  0  0  0  0  0  0  0  0  0
    3.1507   69.2433   83.5526 N   0  0  0  0  0  0  0  0  0  0  0  0
    2.2241   69.3392   82.5732 C   0  0  0  0  0  0  0  0  0  0  0  0
    1.5374   68.1982   82.1461 C   0  0  0  0  0  0  0  0  0  0  0  0
    1.9352   70.6141   81.9748 N   0  0  0  0  0  0  0  0  0  0  0  0
    3.0339   71.4325   81.8017 N   0  0  0  0  0  0  0  0  0  0  0  0
    2.8973   72.6072   81.2716 C   0  0  0  0  0  0  0  0  0  0  0  0
    1.6069   73.1171   80.7720 C   0  0  0  0  0  0  0  0  0  0  0  0
    1.4717   74.3314   80.0814 C   0  0  0  0  0  0  0  0  0  0  0  0
    0.2144   74.7543   79.6428 C   0  0  0  0  0  0  0  0  0  0  0  0
   -0.9081   73.9654   79.8774 C   0  0  0  0  0  0  0  0  0  0  0  0
   -0.7707   72.7458   80.5392 C   0  0  0  0  0  0  0  0  0  0  0  0
    0.4912   72.3155   80.9804 C   0  0  0  0  0  0  0  0  0  0  0  0
    0.6323   70.9963   81.6359 C   0  0  0  0  0  0  0  0  0  0  0  0
   -0.4056   70.3603   81.8073 O   0  0  0  0  0  0  0  0  0  0  0  0
    4.1212   73.4315   81.1858 C   0  0  0  0  0  0  0  0  0  0  0  0
    4.9992   73.2709   80.1152 C   0  0  0  0  0  0  0  0  0  0  0  0
    6.1564   74.0436   80.0705 C   0  0  0  0  0  0  0  0  0  0  0  0
    6.3910   74.9396   81.1036 C   0  0  0  0  0  0  0  0  0  0  0  0
    5.5645   75.1035   82.1619 N   0  0  0  0  0  0  0  0  0  0  0  0
    4.4543   74.3295   82.1909 C   0  0  0  0  0  0  0  0  0  0  0  0
   -0.6199   63.0382   85.1335 C   0  0  0  0  0  0  0  0  0  0  0  0
   -0.7527   62.8241   83.7626 C   0  0  0  0  0  0  0  0  0  0  0  0
   -0.1922   63.7111   82.8262 C   0  0  0  0  0  0  0  0  0  0  0  0
   -0.3253   63.4526   81.4582 C   0  0  0  0  0  0  0  0  0  0  0  0
    0.2294   64.2984   80.4860 C   0  0  0  0  0  0  0  0  0  0  0  0
    0.9153   65.4668   80.8918 C   0  0  0  0  0  0  0  0  0  0  0  0
    1.0718   65.7436   82.2811 C   0  0  0  0  0  0  0  0  0  0  0  0
    0.5109   64.8586   83.2585 C   0  0  0  0  0  0  0  0  0  0  0  0
    0.6062   65.0668   84.6568 C   0  0  0  0  0  0  0  0  0  0  0  0
    0.0265   64.1877   85.5763 C   0  0  0  0  0  0  0  0  0  0  0  0
    0.0341   63.9380   79.0332 C   0  0  0  0  0  0  0  0  0  0  0  0
    1.0751   63.0573   78.6401 O   0  0  0  0  0  0  0  0  0  0  0  0
    0.8719   62.7765   77.7324 H   0  0  0  0  0  0  0  0  0  0  0  0
    1.5036   66.3826   79.8359 C   0  0  0  0  0  0  0  0  0  0  0  0
    0.4786   67.2056   79.2885 O   0  0  0  0  0  0  0  0  0  0  0  0
   -0.3092   66.6447   79.1915 H   0  0  0  0  0  0  0  0  0  0  0  0
   -1.2006   62.0972   85.9403 O   0  0  0  0  0  0  0  0  0  0  0  0
   -2.9322   63.0026   87.3060 C   0  0  0  0  0  0  0  0  0  0  0  0
   -2.6230   62.2234   86.0396 C   0  0  0  0  0  0  0  0  0  0  0  0
    0.1489   64.4950   86.9057 O   0  0  0  0  0  0  0  0  0  0  0  0
    1.2096   63.7259   87.4880 C   0  0  0  0  0  0  0  0  0  0  0  0
    0.6897   63.1132   88.7752 C   0  0  0  0  0  0  0  0  0  0  0  0
 41 42  1  0  0  0
 42 40  1  0  0  0
 40 24  1  0  0  0
 24 25  1  0  0  0
 25 26  2  0  0  0
 26 27  1  0  0  0
 27 28  2  0  0  0
 28 34  1  0  0  0
 34 35  1  0  0  0
 28 29  1  0  0  0
 29 37  1  0  0  0
 37 38  1  0  0  0
 29 30  2  0  0  0
 30  1  1  0  0  0
  1  2  2  0  0  0
  2  3  1  0  0  0
  3  4  2  0  0  0
  4  5  1  0  0  0
  5  7  1  0  0  0
  7  8  1  0  0  0
  8  9  2  0  0  0
  9 18  1  0  0  0
 18 19  1  0  0  0
 19 20  2  0  0  0
 20 21  1  0  0  0
 21 22  2  0  0  0
 22 23  1  0  0  0
  9 10  1  0  0  0
 10 11  2  0  0  0
 11 12  1  0  0  0
 12 13  2  0  0  0
 13 14  1  0  0  0
 14 15  2  0  0  0
 15 16  1  0  0  0
 16 17  2  0  0  0
  5  6  2  0  0  0
 30 31  1  0  0  0
 31 32  2  0  0  0
 32 33  1  0  0  0
 33 43  1  0  0  0
 43 44  1  0  0  0
 44 45  1  0  0  0
 33 24  2  0  0  0
 31 26  1  0  0  0
  6  1  1  0  0  0
 16  7  1  0  0  0
 23 18  2  0  0  0
 15 10  1  0  0  0
 35 36  1  0  0  0
 38 39  1  0  0  0
M  END
> <minimizedAffinity>
-11.18333

$$$$



 45 50  0  0  0  0  0  0  0  0999 V2000
    1.2668   65.6033   84.0376 C   0  0  0  0  0  0  0  0  0  0  0  0
    1.0109   65.3605   85.3851 C   0  0  0  0  0  0  0  0  0  0  0  0
    0.1460   64.3350   85.7074 C   0  0  0  0  0  0  0  0  0  0  0  0
   -0.4655   63.5538   84.7934 N   0  0  0  0  0  0  0  0  0  0  0  0
   -0.2346   63.7718   83.4795 C   0  0  0  0  0  0  0  0  0  0  0  0
    0.6338   64.7935   83.0822 C   0  0  0  0  0  0  0  0  0  0  0  0
   -0.8728   62.9490   82.4881 N   0  0  0  0  0  0  0  0  0  0  0  0
   -0.7636   63.4162   81.1933 N   0  0  0  0  0  0  0  0  0  0  0  0
   -1.2991   62.7585   80.2134 C   0  0  0  0  0  0  0  0  0  0  0  0
   -1.9908   61.4688   80.3956 C   0  0  0  0  0  0  0  0  0  0  0  0
   -2.4603   60.6871   79.3288 C   0  0  0  0  0  0  0  0  0  0  0  0
   -3.1132   59.4773   79.5781 C   0  0  0  0  0  0  0  0  0  0  0  0
   -3.2885   59.0358   80.8865 C   0  0  0  0  0  0  0  0  0  0  0  0
   -2.7981   59.7985   81.9458 C   0  0  0  0  0  0  0  0  0  0  0  0
   -2.1395   61.0143   81.7002 C   0  0  0  0  0  0  0  0  0  0  0  0
   -1.5784   61.7895   82.8289 C   0  0  0  0  0  0  0  0  0  0  0  0
   -1.7758   61.3336   83.9533 O   0  0  0  0  0  0  0  0  0  0  0  0
   -1.1813   63.3715   78.8736 C   0  0  0  0  0  0  0  0  0  0  0  0
   -2.0235   62.9628   77.8408 C   0  0  0  0  0  0  0  0  0  0  0  0
   -1.8761   63.5398   76.5824 C   0  0  0  0  0  0  0  0  0  0  0  0
   -0.8863   64.4963   76.4076 C   0  0  0  0  0  0  0  0  0  0  0  0
   -0.0454   64.8990   77.3878 N   0  0  0  0  0  0  0  0  0  0  0  0
   -0.1978   64.3119   78.5979 C   0  0  0  0  0  0  0  0  0  0  0  0
    6.1334   66.9324   85.2726 C   0  0  0  0  0  0  0  0  0  0  0  0
    5.6867   67.8422   84.3157 C   0  0  0  0  0  0  0  0  0  0  0  0
    4.3903   67.7593   83.7768 C   0  0  0  0  0  0  0  0  0  0  0  0
    3.9676   68.7031   82.8354 C   0  0  0  0  0  0  0  0  0  0  0  0
    2.6792   68.6723   82.2809 C   0  0  0  0  0  0  0  0  0  0  0  0
    1.7874   67.6398   82.6538 C   0  0  0  0  0  0  0  0  0  0  0  0
    2.1941   66.6740   83.6196 C   0  0  0  0  0  0  0  0  0  0  0  0
    3.5092   66.7324   84.1856 C   0  0  0  0  0  0  0  0  0  0  0  0
    3.9989   65.8046   85.1381 C   0  0  0  0  0  0  0  0  0  0  0  0
    5.2971   65.8869   85.6503 C   0  0  0  0  0  0  0  0  0  0  0  0
    2.3125   69.7331   81.2716 C   0  0  0  0  0  0  0  0  0  0  0  0
    2.4870   69.1994   79.9683 O   0  0  0  0  0  0  0  0  0  0  0  0
    2.1605   69.8720   79.3479 H   0  0  0  0  0  0  0  0  0  0  0  0
    0.3997   67.6057   82.0430 C   0  0  0  0  0  0  0  0  0  0  0  0
    0.4707   67.0906   80.7175 O   0  0  0  0  0  0  0  0  0  0  0  0
    1.2698   67.4676   80.3128 H   0  0  0  0  0  0  0  0  0  0  0  0
    7.4100   67.1270   85.7263 O   0  0  0  0  0  0  0  0  0  0  0  0
    8.3094   65.3617   84.4004 C   0  0  0  0  0  0  0  0  0  0  0  0
    8.4175   66.8351   84.7521 C   0  0  0  0  0  0  0  0  0  0  0  0
    5.6846   64.9229   86.5433 O   0  0  0  0  0  0  0  0  0  0  0  0
    4.8393   64.9630   87.7008 C   0  0  0  0  0  0  0  0  0  0  0  0
    5.6670   65.4732   88.8658 C   0  0  0  0  0  0  0  0  0  0  0  0
 41 42  1  0  0  0
 42 40  1  0  0  0
 40 24  1  0  0  0
 24 25  1  0  0  0
 25 26  2  0  0  0
 26 27  1  0  0  0
 27 28  2  0  0  0
 28 34  1  0  0  0
 34 35  1  0  0  0
 28 29  1  0  0  0
 29 37  1  0  0  0
 37 38  1  0  0  0
 29 30  2  0  0  0
 30  1  1  0  0  0
  1  2  2  0  0  0
  2  3  1  0  0  0
  3  4  2  0  0  0
  4  5  1  0  0  0
  5  7  1  0  0  0
  7  8  1  0  0  0
  8  9  2  0  0  0
  9 18  1  0  0  0
 18 19  1  0  0  0
 19 20  2  0  0  0
 20 21  1  0  0  0
 21 22  2  0  0  0
 22 23  1  0  0  0
  9 10  1  0  0  0
 10 11  2  0  0  0
 11 12  1  0  0  0
 12 13  2  0  0  0
 13 14  1  0  0  0
 14 15  2  0  0  0
 15 16  1  0  0  0
 16 17  2  0  0  0
  5  6  2  0  0  0
 30 31  1  0  0  0
 31 32  2  0  0  0
 32 33  1  0  0  0
 33 43  1  0  0  0
 43 44  1  0  0  0
 44 45  1  0  0  0
 33 24  2  0  0  0
 31 26  1  0  0  0
  6  1  1  0  0  0
 16  7  1  0  0  0
 23 18  2  0  0  0
 15 10  1  0  0  0
 35 36  1  0  0  0
 38 39  1  0  0  0
M  END
> <minimizedAffinity>
-11.13870

$$$$



 45 50  0  0  0  0  0  0  0  0999 V2000
    1.7907   65.4555   84.7041 C   0  0  0  0  0  0  0  0  0  0  0  0
    1.3560   65.3246   86.0210 C   0  0  0  0  0  0  0  0  0  0  0  0
    0.3110   64.4610   86.2771 C   0  0  0  0  0  0  0  0  0  0  0  0
   -0.3135   63.7359   85.3264 N   0  0  0  0  0  0  0  0  0  0  0  0
    0.0891   63.8478   84.0409 C   0  0  0  0  0  0  0  0  0  0  0  0
    1.1450   64.7033   83.7109 C   0  0  0  0  0  0  0  0  0  0  0  0
   -0.5598   63.0817   83.0118 N   0  0  0  0  0  0  0  0  0  0  0  0
   -0.3652   63.5563   81.7297 N   0  0  0  0  0  0  0  0  0  0  0  0
   -0.9013   62.9479   80.7188 C   0  0  0  0  0  0  0  0  0  0  0  0
   -1.6840   61.7053   80.8529 C   0  0  0  0  0  0  0  0  0  0  0  0
   -2.1589   60.9697   79.7560 C   0  0  0  0  0  0  0  0  0  0  0  0
   -2.9006   59.8034   79.9600 C   0  0  0  0  0  0  0  0  0  0  0  0
   -3.1600   59.3588   81.2533 C   0  0  0  0  0  0  0  0  0  0  0  0
   -2.6653   60.0740   82.3432 C   0  0  0  0  0  0  0  0  0  0  0  0
   -1.9176   61.2459   82.1433 C   0  0  0  0  0  0  0  0  0  0  0  0
   -1.3545   61.9680   83.3057 C   0  0  0  0  0  0  0  0  0  0  0  0
   -1.6291   61.5127   84.4140 O   0  0  0  0  0  0  0  0  0  0  0  0
   -0.6864   63.5678   79.3943 C   0  0  0  0  0  0  0  0  0  0  0  0
   -1.5550   63.2865   78.3411 C   0  0  0  0  0  0  0  0  0  0  0  0
   -1.3167   63.8655   77.0976 C   0  0  0  0  0  0  0  0  0  0  0  0
   -0.2140   64.6959   76.9576 C   0  0  0  0  0  0  0  0  0  0  0  0
    0.6535   64.9725   77.9581 N   0  0  0  0  0  0  0  0  0  0  0  0
    0.4097   64.3850   79.1529 C   0  0  0  0  0  0  0  0  0  0  0  0
    2.3417   69.6755   81.7268 C   0  0  0  0  0  0  0  0  0  0  0  0
    3.5850   69.4064   82.2965 C   0  0  0  0  0  0  0  0  0  0  0  0
    3.7733   68.3103   83.1573 C   0  0  0  0  0  0  0  0  0  0  0  0
    5.0401   68.0569   83.6926 C   0  0  0  0  0  0  0  0  0  0  0  0
    5.2819   66.9674   84.5429 C   0  0  0  0  0  0  0  0  0  0  0  0
    4.2113   66.1156   84.9014 C   0  0  0  0  0  0  0  0  0  0  0  0
    2.9144   66.3494   84.3586 C   0  0  0  0  0  0  0  0  0  0  0  0
    2.6920   67.4588   83.4795 C   0  0  0  0  0  0  0  0  0  0  0  0
    1.4332   67.7721   82.9092 C   0  0  0  0  0  0  0  0  0  0  0  0
    1.2558   68.8770   82.0712 C   0  0  0  0  0  0  0  0  0  0  0  0
    6.6822   66.7740   85.0722 C   0  0  0  0  0  0  0  0  0  0  0  0
    7.5911   66.8333   83.9839 O   0  0  0  0  0  0  0  0  0  0  0  0
    8.4834   66.7944   84.3663 H   0  0  0  0  0  0  0  0  0  0  0  0
    4.4767   64.9457   85.8293 C   0  0  0  0  0  0  0  0  0  0  0  0
    4.5206   65.4020   87.1773 O   0  0  0  0  0  0  0  0  0  0  0  0
    4.9929   66.2514   87.1705 H   0  0  0  0  0  0  0  0  0  0  0  0
    2.2913   70.7638   80.8982 O   0  0  0  0  0  0  0  0  0  0  0  0
    1.4573   72.5011   82.3016 C   0  0  0  0  0  0  0  0  0  0  0  0
    2.6650   71.9898   81.5357 C   0  0  0  0  0  0  0  0  0  0  0  0
   -0.0075   69.1112   81.5959 O   0  0  0  0  0  0  0  0  0  0  0  0
   -0.0965   68.6995   80.2254 C   0  0  0  0  0  0  0  0  0  0  0  0
   -0.9489   67.4453   80.1690 C   0  0  0  0  0  0  0  0  0  0  0  0
 41 42  1  0  0  0
 42 40  1  0  0  0
 40 24  1  0  0  0
 24 25  1  0  0  0
 25 26  2  0  0  0
 26 27  1  0  0  0
 27 28  2  0  0  0
 28 34  1  0  0  0
 34 35  1  0  0  0
 28 29  1  0  0  0
 29 37  1  0  0  0
 37 38  1  0  0  0
 29 30  2  0  0  0
 30  1  1  0  0  0
  1  2  2  0  0  0
  2  3  1  0  0  0
  3  4  2  0  0  0
  4  5  1  0  0  0
  5  7  1  0  0  0
  7  8  1  0  0  0
  8  9  2  0  0  0
  9 18  1  0  0  0
 18 19  1  0  0  0
 19 20  2  0  0  0
 20 21  1  0  0  0
 21 22  2  0  0  0
 22 23  1  0  0  0
  9 10  1  0  0  0
 10 11  2  0  0  0
 11 12  1  0  0  0
 12 13  2  0  0  0
 13 14  1  0  0  0
 14 15  2  0  0  0
 15 16  1  0  0  0
 16 17  2  0  0  0
  5  6  2  0  0  0
 30 31  1  0  0  0
 31 32  2  0  0  0
 32 33  1  0  0  0
 33 43  1  0  0  0
 43 44  1  0  0  0
 44 45  1  0  0  0
 33 24  2  0  0  0
 31 26  1  0  0  0
  6  1  1  0  0  0
 16  7  1  0  0  0
 23 18  2  0  0  0
 15 10  1  0  0  0
 35 36  1  0  0  0
 38 39  1  0  0  0
M  END
> <minimizedAffinity>
-10.82066

$$$$



 45 50  0  0  0  0  0  0  0  0999 V2000
    1.6736   66.2342   83.4287 C   0  0  0  0  0  0  0  0  0  0  0  0
    3.0109   66.1392   83.8069 C   0  0  0  0  0  0  0  0  0  0  0  0
    3.8054   67.2589   83.6709 C   0  0  0  0  0  0  0  0  0  0  0  0
    3.3622   68.4401   83.1935 N   0  0  0  0  0  0  0  0  0  0  0  0
    2.0690   68.5560   82.8177 C   0  0  0  0  0  0  0  0  0  0  0  0
    1.2068   67.4608   82.9316 C   0  0  0  0  0  0  0  0  0  0  0  0
    1.5741   69.8065   82.3094 N   0  0  0  0  0  0  0  0  0  0  0  0
    2.3815   70.8958   82.5710 N   0  0  0  0  0  0  0  0  0  0  0  0
    2.0392   72.0769   82.1619 C   0  0  0  0  0  0  0  0  0  0  0  0
    0.8292   72.3279   81.3570 C   0  0  0  0  0  0  0  0  0  0  0  0
    0.5175   73.5783   80.8011 C   0  0  0  0  0  0  0  0  0  0  0  0
   -0.6515   73.7436   80.0540 C   0  0  0  0  0  0  0  0  0  0  0  0
   -1.5055   72.6641   79.8468 C   0  0  0  0  0  0  0  0  0  0  0  0
   -1.1828   71.4149   80.3757 C   0  0  0  0  0  0  0  0  0  0  0  0
   -0.0079   71.2433   81.1257 C   0  0  0  0  0  0  0  0  0  0  0  0
    0.3498   69.9020   81.6383 C   0  0  0  0  0  0  0  0  0  0  0  0
   -0.4561   69.0014   81.4142 O   0  0  0  0  0  0  0  0  0  0  0  0
    2.9373   73.1866   82.5447 C   0  0  0  0  0  0  0  0  0  0  0  0
    4.0119   73.5309   81.7264 C   0  0  0  0  0  0  0  0  0  0  0  0
    4.8561   74.5650   82.1217 C   0  0  0  0  0  0  0  0  0  0  0  0
    4.5946   75.2064   83.3239 C   0  0  0  0  0  0  0  0  0  0  0  0
    3.5692   74.8816   84.1444 N   0  0  0  0  0  0  0  0  0  0  0  0
    2.7722   73.8626   83.7461 C   0  0  0  0  0  0  0  0  0  0  0  0
   -0.7630   63.0797   80.0988 C   0  0  0  0  0  0  0  0  0  0  0  0
   -1.0971   62.6602   81.3853 C   0  0  0  0  0  0  0  0  0  0  0  0
   -0.5996   63.3215   82.5225 C   0  0  0  0  0  0  0  0  0  0  0  0
   -0.9743   62.8875   83.7980 C   0  0  0  0  0  0  0  0  0  0  0  0
   -0.5178   63.5239   84.9621 C   0  0  0  0  0  0  0  0  0  0  0  0
    0.3748   64.6155   84.8521 C   0  0  0  0  0  0  0  0  0  0  0  0
    0.7610   65.0808   83.5615 C   0  0  0  0  0  0  0  0  0  0  0  0
    0.2710   64.4265   82.3847 C   0  0  0  0  0  0  0  0  0  0  0  0
    0.6166   64.8138   81.0662 C   0  0  0  0  0  0  0  0  0  0  0  0
    0.1310   64.1345   79.9450 C   0  0  0  0  0  0  0  0  0  0  0  0
   -0.9760   62.9843   86.2952 C   0  0  0  0  0  0  0  0  0  0  0  0
   -0.9370   61.5665   86.2488 O   0  0  0  0  0  0  0  0  0  0  0  0
   -1.1510   61.2543   87.1436 H   0  0  0  0  0  0  0  0  0  0  0  0
    0.8731   65.2926   86.1142 C   0  0  0  0  0  0  0  0  0  0  0  0
    1.9115   64.5137   86.6994 O   0  0  0  0  0  0  0  0  0  0  0  0
    1.6477   63.5826   86.6101 H   0  0  0  0  0  0  0  0  0  0  0  0
   -1.3205   62.3605   79.0763 O   0  0  0  0  0  0  0  0  0  0  0  0
   -3.4566   62.0195   78.0744 C   0  0  0  0  0  0  0  0  0  0  0  0
   -2.6471   61.8998   79.3538 C   0  0  0  0  0  0  0  0  0  0  0  0
    0.5496   64.5684   78.7149 O   0  0  0  0  0  0  0  0  0  0  0  0
   -0.4428   65.4275   78.1376 C   0  0  0  0  0  0  0  0  0  0  0  0
   -0.8422   64.8433   76.7953 C   0  0  0  0  0  0  0  0  0  0  0  0
 41 42  1  0  0  0
 42 40  1  0  0  0
 40 24  1  0  0  0
 24 25  1  0  0  0
 25 26  2  0  0  0
 26 27  1  0  0  0
 27 28  2  0  0  0
 28 34  1  0  0  0
 34 35  1  0  0  0
 28 29  1  0  0  0
 29 37  1  0  0  0
 37 38  1  0  0  0
 29 30  2  0  0  0
 30  1  1  0  0  0
  1  2  2  0  0  0
  2  3  1  0  0  0
  3  4  2  0  0  0
  4  5  1  0  0  0
  5  7  1  0  0  0
  7  8  1  0  0  0
  8  9  2  0  0  0
  9 18  1  0  0  0
 18 19  1  0  0  0
 19 20  2  0  0  0
 20 21  1  0  0  0
 21 22  2  0  0  0
 22 23  1  0  0  0
  9 10  1  0  0  0
 10 11  2  0  0  0
 11 12  1  0  0  0
 12 13  2  0  0  0
 13 14  1  0  0  0
 14 15  2  0  0  0
 15 16  1  0  0  0
 16 17  2  0  0  0
  5  6  2  0  0  0
 30 31  1  0  0  0
 31 32  2  0  0  0
 32 33  1  0  0  0
 33 43  1  0  0  0
 43 44  1  0  0  0
 44 45  1  0  0  0
 33 24  2  0  0  0
 31 26  1  0  0  0
  6  1  1  0  0  0
 16  7  1  0  0  0
 23 18  2  0  0  0
 15 10  1  0  0  0
 35 36  1  0  0  0
 38 39  1  0  0  0
M  END
> <minimizedAffinity>
-10.75054

$$$$



 45 50  0  0  0  0  0  0  0  0999 V2000
    1.2110   66.6695   81.5422 C   0  0  0  0  0  0  0  0  0  0  0  0
    1.7931   66.2964   80.3329 C   0  0  0  0  0  0  0  0  0  0  0  0
    2.2270   67.2951   79.4856 C   0  0  0  0  0  0  0  0  0  0  0  0
    2.1206   68.6114   79.7606 N   0  0  0  0  0  0  0  0  0  0  0  0
    1.5572   68.9980   80.9268 C   0  0  0  0  0  0  0  0  0  0  0  0
    1.0980   68.0375   81.8338 C   0  0  0  0  0  0  0  0  0  0  0  0
    1.4368   70.3955   81.2422 N   0  0  0  0  0  0  0  0  0  0  0  0
    0.3726   71.0341   80.6368 N   0  0  0  0  0  0  0  0  0  0  0  0
    0.1620   72.2956   80.8460 C   0  0  0  0  0  0  0  0  0  0  0  0
    0.9820   73.1041   81.7673 C   0  0  0  0  0  0  0  0  0  0  0  0
    0.6853   74.4351   82.0992 C   0  0  0  0  0  0  0  0  0  0  0  0
    1.5124   75.1421   82.9756 C   0  0  0  0  0  0  0  0  0  0  0  0
    2.6275   74.5239   83.5340 C   0  0  0  0  0  0  0  0  0  0  0  0
    2.9077   73.1931   83.2263 C   0  0  0  0  0  0  0  0  0  0  0  0
    2.0782   72.4777   82.3474 C   0  0  0  0  0  0  0  0  0  0  0  0
    2.3564   71.0513   82.0685 C   0  0  0  0  0  0  0  0  0  0  0  0
    3.3597   70.5789   82.5989 O   0  0  0  0  0  0  0  0  0  0  0  0
   -0.9640   72.9017   80.1047 C   0  0  0  0  0  0  0  0  0  0  0  0
   -2.1123   72.1557   79.8444 C   0  0  0  0  0  0  0  0  0  0  0  0
   -3.1489   72.7430   79.1241 C   0  0  0  0  0  0  0  0  0  0  0  0
   -2.9899   74.0503   78.6871 C   0  0  0  0  0  0  0  0  0  0  0  0
   -1.8802   74.7907   78.9117 N   0  0  0  0  0  0  0  0  0  0  0  0
   -0.8800   74.1923   79.6000 C   0  0  0  0  0  0  0  0  0  0  0  0
   -1.4613   62.2308   81.1788 C   0  0  0  0  0  0  0  0  0  0  0  0
   -1.1549   62.4197   82.5254 C   0  0  0  0  0  0  0  0  0  0  0  0
   -0.4362   63.5475   82.9607 C   0  0  0  0  0  0  0  0  0  0  0  0
   -0.1665   63.7164   84.3225 C   0  0  0  0  0  0  0  0  0  0  0  0
    0.5325   64.8320   84.8076 C   0  0  0  0  0  0  0  0  0  0  0  0
    1.0115   65.8014   83.8959 C   0  0  0  0  0  0  0  0  0  0  0  0
    0.7384   65.6543   82.5049 C   0  0  0  0  0  0  0  0  0  0  0  0
    0.0092   64.5152   82.0316 C   0  0  0  0  0  0  0  0  0  0  0  0
   -0.2914   64.2837   80.6664 C   0  0  0  0  0  0  0  0  0  0  0  0
   -0.9889   63.1477   80.2454 C   0  0  0  0  0  0  0  0  0  0  0  0
    0.7767   64.9285   86.2940 C   0  0  0  0  0  0  0  0  0  0  0  0
    2.0974   64.4865   86.5668 O   0  0  0  0  0  0  0  0  0  0  0  0
    2.2518   64.6436   87.5130 H   0  0  0  0  0  0  0  0  0  0  0  0
    1.7755   66.9997   84.4253 C   0  0  0  0  0  0  0  0  0  0  0  0
    3.1108   66.6177   84.7391 O   0  0  0  0  0  0  0  0  0  0  0  0
    3.0617   65.7380   85.1492 H   0  0  0  0  0  0  0  0  0  0  0  0
   -2.1745   61.1000   80.8853 O   0  0  0  0  0  0  0  0  0  0  0  0
   -4.2982   61.5704   79.9098 C   0  0  0  0  0  0  0  0  0  0  0  0
   -3.5692   61.2040   81.1907 C   0  0  0  0  0  0  0  0  0  0  0  0
   -1.2021   63.0015   78.9000 O   0  0  0  0  0  0  0  0  0  0  0  0
   -0.2060   63.7273   78.1672 C   0  0  0  0  0  0  0  0  0  0  0  0
   -0.8871   64.3895   76.9839 C   0  0  0  0  0  0  0  0  0  0  0  0
 41 42  1  0  0  0
 42 40  1  0  0  0
 40 24  1  0  0  0
 24 25  1  0  0  0
 25 26  2  0  0  0
 26 27  1  0  0  0
 27 28  2  0  0  0
 28 34  1  0  0  0
 34 35  1  0  0  0
 28 29  1  0  0  0
 29 37  1  0  0  0
 37 38  1  0  0  0
 29 30  2  0  0  0
 30  1  1  0  0  0
  1  2  2  0  0  0
  2  3  1  0  0  0
  3  4  2  0  0  0
  4  5  1  0  0  0
  5  7  1  0  0  0
  7  8  1  0  0  0
  8  9  2  0  0  0
  9 18  1  0  0  0
 18 19  1  0  0  0
 19 20  2  0  0  0
 20 21  1  0  0  0
 21 22  2  0  0  0
 22 23  1  0  0  0
  9 10  1  0  0  0
 10 11  2  0  0  0
 11 12  1  0  0  0
 12 13  2  0  0  0
 13 14  1  0  0  0
 14 15  2  0  0  0
 15 16  1  0  0  0
 16 17  2  0  0  0
  5  6  2  0  0  0
 30 31  1  0  0  0
 31 32  2  0  0  0
 32 33  1  0  0  0
 33 43  1  0  0  0
 43 44  1  0  0  0
 44 45  1  0  0  0
 33 24  2  0  0  0
 31 26  1  0  0  0
  6  1  1  0  0  0
 16  7  1  0  0  0
 23 18  2  0  0  0
 15 10  1  0  0  0
 35 36  1  0  0  0
 38 39  1  0  0  0
M  END
> <minimizedAffinity>
-10.41117

$$$$



 45 50  0  0  0  0  0  0  0  0999 V2000
    1.4280   66.8222   80.8192 C   0  0  0  0  0  0  0  0  0  0  0  0
    1.8669   66.6964   79.5032 C   0  0  0  0  0  0  0  0  0  0  0  0
    1.5391   65.5455   78.8165 C   0  0  0  0  0  0  0  0  0  0  0  0
    0.8178   64.5357   79.3455 N   0  0  0  0  0  0  0  0  0  0  0  0
    0.3828   64.6340   80.6215 C   0  0  0  0  0  0  0  0  0  0  0  0
    0.6769   65.7750   81.3746 C   0  0  0  0  0  0  0  0  0  0  0  0
   -0.3905   63.5713   81.2044 N   0  0  0  0  0  0  0  0  0  0  0  0
   -0.5517   63.6587   82.5731 N   0  0  0  0  0  0  0  0  0  0  0  0
   -1.2305   62.7574   83.2105 C   0  0  0  0  0  0  0  0  0  0  0  0
   -1.9130   61.6389   82.5338 C   0  0  0  0  0  0  0  0  0  0  0  0
   -2.7548   60.7330   83.1974 C   0  0  0  0  0  0  0  0  0  0  0  0
   -3.3634   59.6923   82.4913 C   0  0  0  0  0  0  0  0  0  0  0  0
   -3.1474   59.5579   81.1228 C   0  0  0  0  0  0  0  0  0  0  0  0
   -2.3330   60.4736   80.4576 C   0  0  0  0  0  0  0  0  0  0  0  0
   -1.7206   61.5225   81.1626 C   0  0  0  0  0  0  0  0  0  0  0  0
   -0.9002   62.5177   80.4372 C   0  0  0  0  0  0  0  0  0  0  0  0
   -0.7567   62.3291   79.2310 O   0  0  0  0  0  0  0  0  0  0  0  0
   -1.2936   62.9048   84.6799 C   0  0  0  0  0  0  0  0  0  0  0  0
   -2.5027   62.7246   85.3497 C   0  0  0  0  0  0  0  0  0  0  0  0
   -2.5396   62.8921   86.7313 C   0  0  0  0  0  0  0  0  0  0  0  0
   -1.3662   63.2409   87.3845 C   0  0  0  0  0  0  0  0  0  0  0  0
   -0.1839   63.4378   86.7573 N   0  0  0  0  0  0  0  0  0  0  0  0
   -0.1771   63.2850   85.4123 C   0  0  0  0  0  0  0  0  0  0  0  0
    4.1784   67.8156   85.1116 C   0  0  0  0  0  0  0  0  0  0  0  0
    3.6492   69.0271   84.6702 C   0  0  0  0  0  0  0  0  0  0  0  0
    2.8401   69.0968   83.5220 C   0  0  0  0  0  0  0  0  0  0  0  0
    2.3070   70.3261   83.1212 C   0  0  0  0  0  0  0  0  0  0  0  0
    1.4817   70.4443   81.9928 C   0  0  0  0  0  0  0  0  0  0  0  0
    1.2037   69.2978   81.2127 C   0  0  0  0  0  0  0  0  0  0  0  0
    1.7280   68.0333   81.6093 C   0  0  0  0  0  0  0  0  0  0  0  0
    2.5562   67.9314   82.7742 C   0  0  0  0  0  0  0  0  0  0  0  0
    3.1302   66.7184   83.2291 C   0  0  0  0  0  0  0  0  0  0  0  0
    3.9496   66.6670   84.3607 C   0  0  0  0  0  0  0  0  0  0  0  0
    0.9527   71.8126   81.6375 C   0  0  0  0  0  0  0  0  0  0  0  0
    1.1724   72.6836   82.7362 O   0  0  0  0  0  0  0  0  0  0  0  0
    0.9034   73.5704   82.4444 H   0  0  0  0  0  0  0  0  0  0  0  0
    0.3196   69.4339   79.9882 C   0  0  0  0  0  0  0  0  0  0  0  0
   -0.9802   68.9283   80.2754 O   0  0  0  0  0  0  0  0  0  0  0  0
   -0.8570   68.1273   80.8117 H   0  0  0  0  0  0  0  0  0  0  0  0
    4.9400   67.8790   86.2471 O   0  0  0  0  0  0  0  0  0  0  0  0
    7.1099   67.2502   85.4860 C   0  0  0  0  0  0  0  0  0  0  0  0
    6.2601   68.3868   86.0267 C   0  0  0  0  0  0  0  0  0  0  0  0
    4.4807   65.4506   84.6996 O   0  0  0  0  0  0  0  0  0  0  0  0
    3.8123   64.9327   85.8576 C   0  0  0  0  0  0  0  0  0  0  0  0
    4.8528   64.7211   86.9417 C   0  0  0  0  0  0  0  0  0  0  0  0
 41 42  1  0  0  0
 42 40  1  0  0  0
 40 24  1  0  0  0
 24 25  1  0  0  0
 25 26  2  0  0  0
 26 27  1  0  0  0
 27 28  2  0  0  0
 28 34  1  0  0  0
 34 35  1  0  0  0
 28 29  1  0  0  0
 29 37  1  0  0  0
 37 38  1  0  0  0
 29 30  2  0  0  0
 30  1  1  0  0  0
  1  2  2  0  0  0
  2  3  1  0  0  0
  3  4  2  0  0  0
  4  5  1  0  0  0
  5  7  1  0  0  0
  7  8  1  0  0  0
  8  9  2  0  0  0
  9 18  1  0  0  0
 18 19  1  0  0  0
 19 20  2  0  0  0
 20 21  1  0  0  0
 21 22  2  0  0  0
 22 23  1  0  0  0
  9 10  1  0  0  0
 10 11  2  0  0  0
 11 12  1  0  0  0
 12 13  2  0  0  0
 13 14  1  0  0  0
 14 15  2  0  0  0
 15 16  1  0  0  0
 16 17  2  0  0  0
  5  6  2  0  0  0
 30 31  1  0  0  0
 31 32  2  0  0  0
 32 33  1  0  0  0
 33 43  1  0  0  0
 43 44  1  0  0  0
 44 45  1  0  0  0
 33 24  2  0  0  0
 31 26  1  0  0  0
  6  1  1  0  0  0
 16  7  1  0  0  0
 23 18  2  0  0  0
 15 10  1  0  0  0
 35 36  1  0  0  0
 38 39  1  0  0  0
M  END
> <minimizedAffinity>
-10.30806

$$$$



 45 50  0  0  0  0  0  0  0  0999 V2000
    1.7396   65.6234   83.9682 C   0  0  0  0  0  0  0  0  0  0  0  0
    1.0916   65.1052   85.0871 C   0  0  0  0  0  0  0  0  0  0  0  0
    0.0278   64.2505   84.8836 C   0  0  0  0  0  0  0  0  0  0  0  0
   -0.4205   63.8873   83.6644 N   0  0  0  0  0  0  0  0  0  0  0  0
    0.1908   64.3790   82.5636 C   0  0  0  0  0  0  0  0  0  0  0  0
    1.2778   65.2487   82.6971 C   0  0  0  0  0  0  0  0  0  0  0  0
   -0.2680   64.0026   81.2541 N   0  0  0  0  0  0  0  0  0  0  0  0
   -0.9825   62.8218   81.2103 N   0  0  0  0  0  0  0  0  0  0  0  0
   -1.4477   62.3802   80.0841 C   0  0  0  0  0  0  0  0  0  0  0  0
   -1.3061   63.1157   78.8138 C   0  0  0  0  0  0  0  0  0  0  0  0
   -1.9152   62.7116   77.6157 C   0  0  0  0  0  0  0  0  0  0  0  0
   -1.7310   63.4558   76.4477 C   0  0  0  0  0  0  0  0  0  0  0  0
   -0.9526   64.6096   76.4711 C   0  0  0  0  0  0  0  0  0  0  0  0
   -0.3695   65.0269   77.6670 C   0  0  0  0  0  0  0  0  0  0  0  0
   -0.5534   64.2833   78.8440 C   0  0  0  0  0  0  0  0  0  0  0  0
    0.0278   64.7635   80.1174 C   0  0  0  0  0  0  0  0  0  0  0  0
    0.7023   65.7893   80.0548 O   0  0  0  0  0  0  0  0  0  0  0  0
   -2.1446   61.0776   80.1310 C   0  0  0  0  0  0  0  0  0  0  0  0
   -2.5470   60.5432   81.3539 C   0  0  0  0  0  0  0  0  0  0  0  0
   -3.1809   59.3038   81.3721 C   0  0  0  0  0  0  0  0  0  0  0  0
   -3.3788   58.6468   80.1661 C   0  0  0  0  0  0  0  0  0  0  0  0
   -2.9839   59.1350   78.9678 N   0  0  0  0  0  0  0  0  0  0  0  0
   -2.3555   60.3338   78.9778 C   0  0  0  0  0  0  0  0  0  0  0  0
    2.9076   70.3771   82.2323 C   0  0  0  0  0  0  0  0  0  0  0  0
    3.9823   69.9445   83.0071 C   0  0  0  0  0  0  0  0  0  0  0  0
    3.9795   68.6786   83.6198 C   0  0  0  0  0  0  0  0  0  0  0  0
    5.0851   68.2680   84.3713 C   0  0  0  0  0  0  0  0  0  0  0  0
    5.1366   67.0089   84.9883 C   0  0  0  0  0  0  0  0  0  0  0  0
    4.0281   66.1371   84.8805 C   0  0  0  0  0  0  0  0  0  0  0  0
    2.8956   66.5314   84.1104 C   0  0  0  0  0  0  0  0  0  0  0  0
    2.8694   67.8155   83.4752 C   0  0  0  0  0  0  0  0  0  0  0  0
    1.7790   68.2920   82.7060 C   0  0  0  0  0  0  0  0  0  0  0  0
    1.7867   69.5610   82.1195 C   0  0  0  0  0  0  0  0  0  0  0  0
    6.3719   66.6534   85.7795 C   0  0  0  0  0  0  0  0  0  0  0  0
    7.4837   67.3302   85.2138 O   0  0  0  0  0  0  0  0  0  0  0  0
    8.2413   67.1517   85.7952 H   0  0  0  0  0  0  0  0  0  0  0  0
    4.0855   64.7818   85.5584 C   0  0  0  0  0  0  0  0  0  0  0  0
    3.8971   64.9377   86.9611 O   0  0  0  0  0  0  0  0  0  0  0  0
    4.3878   65.7347   87.2229 H   0  0  0  0  0  0  0  0  0  0  0  0
    3.0367   71.6234   81.6812 O   0  0  0  0  0  0  0  0  0  0  0  0
    1.7056   73.3264   82.6870 C   0  0  0  0  0  0  0  0  0  0  0  0
    3.0785   72.6783   82.6481 C   0  0  0  0  0  0  0  0  0  0  0  0
    0.6704   69.9394   81.4212 O   0  0  0  0  0  0  0  0  0  0  0  0
    0.7177   69.3959   80.0952 C   0  0  0  0  0  0  0  0  0  0  0  0
   -0.6682   68.8821   79.7516 C   0  0  0  0  0  0  0  0  0  0  0  0
 41 42  1  0  0  0
 42 40  1  0  0  0
 40 24  1  0  0  0
 24 25  1  0  0  0
 25 26  2  0  0  0
 26 27  1  0  0  0
 27 28  2  0  0  0
 28 34  1  0  0  0
 34 35  1  0  0  0
 28 29  1  0  0  0
 29 37  1  0  0  0
 37 38  1  0  0  0
 29 30  2  0  0  0
 30  1  1  0  0  0
  1  2  2  0  0  0
  2  3  1  0  0  0
  3  4  2  0  0  0
  4  5  1  0  0  0
  5  7  1  0  0  0
  7  8  1  0  0  0
  8  9  2  0  0  0
  9 18  1  0  0  0
 18 19  1  0  0  0
 19 20  2  0  0  0
 20 21  1  0  0  0
 21 22  2  0  0  0
 22 23  1  0  0  0
  9 10  1  0  0  0
 10 11  2  0  0  0
 11 12  1  0  0  0
 12 13  2  0  0  0
 13 14  1  0  0  0
 14 15  2  0  0  0
 15 16  1  0  0  0
 16 17  2  0  0  0
  5  6  2  0  0  0
 30 31  1  0  0  0
 31 32  2  0  0  0
 32 33  1  0  0  0
 33 43  1  0  0  0
 43 44  1  0  0  0
 44 45  1  0  0  0
 33 24  2  0  0  0
 31 26  1  0  0  0
  6  1  1  0  0  0
 16  7  1  0  0  0
 23 18  2  0  0  0
 15 10  1  0  0  0
 35 36  1  0  0  0
 38 39  1  0  0  0
M  END
> <minimizedAffinity>
-10.27386

$$$$
