


 27 30  0  0  0  0  0  0  0  0999 V2000
   -1.0868   62.4800   87.0194 C   0  0  0  0  0  0  0  0  0  0  0  0
   -0.7824   62.5594   85.6070 N   0  0  0  0  0  0  0  0  0  0  0  0
   -1.5697   61.8385   84.7433 N   0  0  0  0  0  0  0  0  0  0  0  0
   -1.2622   62.1642   83.5205 C   0  0  0  0  0  0  0  0  0  0  0  0
   -0.0113   63.3867   83.3293 S   0  0  0  0  0  0  0  0  0  0  0  0
    0.0804   63.4987   85.0855 C   0  0  0  0  0  0  0  0  0  0  0  0
    0.8204   64.3204   85.7637 N   0  0  0  0  0  0  0  0  0  0  0  0
   -1.9213   61.5565   82.3354 C   0  0  0  0  0  0  0  0  0  0  0  0
   -2.5306   60.2931   82.3632 C   0  0  0  0  0  0  0  0  0  0  0  0
   -3.1361   59.7727   81.2130 C   0  0  0  0  0  0  0  0  0  0  0  0
   -3.1363   60.5098   80.0310 C   0  0  0  0  0  0  0  0  0  0  0  0
   -3.8811   59.8663   78.6211 Cl  0  0  0  0  0  0  0  0  0  0  0  0
   -2.5359   61.7649   79.9867 C   0  0  0  0  0  0  0  0  0  0  0  0
   -1.9307   62.2861   81.1347 C   0  0  0  0  0  0  0  0  0  0  0  0
    1.6541   65.2338   85.1078 C   0  0  0  0  0  0  0  0  0  0  0  0
    1.1180   66.1373   84.1877 C   0  0  0  0  0  0  0  0  0  0  0  0
    1.9469   67.0320   83.5126 C   0  0  0  0  0  0  0  0  0  0  0  0
    3.3230   67.0169   83.7476 C   0  0  0  0  0  0  0  0  0  0  0  0
    3.8842   66.1031   84.6526 C   0  0  0  0  0  0  0  0  0  0  0  0
    3.0359   65.2086   85.3223 C   0  0  0  0  0  0  0  0  0  0  0  0
    5.3254   66.0905   84.8839 C   0  0  0  0  0  0  0  0  0  0  0  0
    5.9299   65.3360   85.8241 N   0  0  0  0  0  0  0  0  0  0  0  0
    7.2837   65.6488   85.6755 O   0  0  0  0  0  0  0  0  0  0  0  0
    7.3394   66.5518   84.6705 C   0  0  0  0  0  0  0  0  0  0  0  0
    8.5281   67.0061   84.3399 O   0  0  0  0  0  0  0  0  0  0  0  0
    6.1932   66.8694   84.1433 N   0  0  0  0  0  0  0  0  0  0  0  0
    9.1271   66.5412   84.9450 H   0  0  0  0  0  0  0  0  0  0  0  0
  1  2  1  0  0  0
  2  3  1  0  0  0
  3  4  2  0  0  0
  4  8  1  0  0  0
  8  9  1  0  0  0
  9 10  2  0  0  0
 10 11  1  0  0  0
 11 12  1  0  0  0
 11 13  2  0  0  0
 13 14  1  0  0  0
  4  5  1  0  0  0
  5  6  1  0  0  0
  6  7  2  0  0  0
  7 15  1  0  0  0
 15 16  1  0  0  0
 16 17  2  0  0  0
 17 18  1  0  0  0
 18 19  2  0  0  0
 19 21  1  0  0  0
 21 22  2  0  0  0
 22 23  1  0  0  0
 23 24  1  0  0  0
 24 25  1  0  0  0
 24 26  2  0  0  0
 19 20  1  0  0  0
  6  2  1  0  0  0
 20 15  2  0  0  0
 14  8  2  0  0  0
 26 21  1  0  0  0
 25 27  1  0  0  0
M  END
> <minimizedAffinity>
-10.38582

$$$$



 27 30  0  0  0  0  0  0  0  0999 V2000
   -0.4980   62.0994   85.3160 C   0  0  0  0  0  0  0  0  0  0  0  0
   -0.5582   63.0530   84.2292 N   0  0  0  0  0  0  0  0  0  0  0  0
    0.3052   64.1200   84.2685 N   0  0  0  0  0  0  0  0  0  0  0  0
    0.2291   64.7660   83.1402 C   0  0  0  0  0  0  0  0  0  0  0  0
   -0.8786   64.1122   81.9396 S   0  0  0  0  0  0  0  0  0  0  0  0
   -1.2506   62.8070   83.0636 C   0  0  0  0  0  0  0  0  0  0  0  0
   -2.0293   61.7955   82.8332 N   0  0  0  0  0  0  0  0  0  0  0  0
    1.0278   65.9863   82.8555 C   0  0  0  0  0  0  0  0  0  0  0  0
    1.1016   66.5724   81.5830 C   0  0  0  0  0  0  0  0  0  0  0  0
    1.8720   67.7230   81.3762 C   0  0  0  0  0  0  0  0  0  0  0  0
    2.5716   68.2935   82.4371 C   0  0  0  0  0  0  0  0  0  0  0  0
    3.5164   69.7067   82.1780 Cl  0  0  0  0  0  0  0  0  0  0  0  0
    2.5090   67.7243   83.7058 C   0  0  0  0  0  0  0  0  0  0  0  0
    1.7399   66.5748   83.9140 C   0  0  0  0  0  0  0  0  0  0  0  0
   -2.6729   61.6603   81.5974 C   0  0  0  0  0  0  0  0  0  0  0  0
   -3.9421   62.2098   81.4037 C   0  0  0  0  0  0  0  0  0  0  0  0
   -4.5984   62.0564   80.1834 C   0  0  0  0  0  0  0  0  0  0  0  0
   -3.9895   61.3383   79.1525 C   0  0  0  0  0  0  0  0  0  0  0  0
   -2.7237   60.7606   79.3337 C   0  0  0  0  0  0  0  0  0  0  0  0
   -2.0777   60.9233   80.5684 C   0  0  0  0  0  0  0  0  0  0  0  0
   -2.1004   60.0046   78.2518 C   0  0  0  0  0  0  0  0  0  0  0  0
   -2.7880   59.2712   77.3529 N   0  0  0  0  0  0  0  0  0  0  0  0
   -1.7909   58.7418   76.5295 O   0  0  0  0  0  0  0  0  0  0  0  0
   -0.6237   59.2121   77.0246 C   0  0  0  0  0  0  0  0  0  0  0  0
    0.4783   58.8454   76.4083 O   0  0  0  0  0  0  0  0  0  0  0  0
   -0.7315   59.9818   78.0679 N   0  0  0  0  0  0  0  0  0  0  0  0
    0.1596   58.2827   75.6851 H   0  0  0  0  0  0  0  0  0  0  0  0
  1  2  1  0  0  0
  2  3  1  0  0  0
  3  4  2  0  0  0
  4  8  1  0  0  0
  8  9  1  0  0  0
  9 10  2  0  0  0
 10 11  1  0  0  0
 11 12  1  0  0  0
 11 13  2  0  0  0
 13 14  1  0  0  0
  4  5  1  0  0  0
  5  6  1  0  0  0
  6  7  2  0  0  0
  7 15  1  0  0  0
 15 16  1  0  0  0
 16 17  2  0  0  0
 17 18  1  0  0  0
 18 19  2  0  0  0
 19 21  1  0  0  0
 21 22  2  0  0  0
 22 23  1  0  0  0
 23 24  1  0  0  0
 24 25  1  0  0  0
 24 26  2  0  0  0
 19 20  1  0  0  0
  6  2  1  0  0  0
 20 15  2  0  0  0
 14  8  2  0  0  0
 26 21  1  0  0  0
 25 27  1  0  0  0
M  END
> <minimizedAffinity>
-10.38376

$$$$



 27 30  0  0  0  0  0  0  0  0999 V2000
    4.0174   64.6612   86.8780 C   0  0  0  0  0  0  0  0  0  0  0  0
    3.0261   65.2389   85.9961 N   0  0  0  0  0  0  0  0  0  0  0  0
    3.4621   66.1169   85.0346 N   0  0  0  0  0  0  0  0  0  0  0  0
    2.4710   66.3954   84.2371 C   0  0  0  0  0  0  0  0  0  0  0  0
    0.9430   65.5938   84.5814 S   0  0  0  0  0  0  0  0  0  0  0  0
    1.7343   64.7653   85.9203 C   0  0  0  0  0  0  0  0  0  0  0  0
    1.2001   63.8683   86.6900 N   0  0  0  0  0  0  0  0  0  0  0  0
    2.5995   67.3299   83.0889 C   0  0  0  0  0  0  0  0  0  0  0  0
    2.0532   67.0667   81.8238 C   0  0  0  0  0  0  0  0  0  0  0  0
    2.2077   67.9866   80.7796 C   0  0  0  0  0  0  0  0  0  0  0  0
    2.9073   69.1721   80.9929 C   0  0  0  0  0  0  0  0  0  0  0  0
    3.0943   70.2987   79.7073 Cl  0  0  0  0  0  0  0  0  0  0  0  0
    3.4555   69.4484   82.2422 C   0  0  0  0  0  0  0  0  0  0  0  0
    3.3021   68.5305   83.2862 C   0  0  0  0  0  0  0  0  0  0  0  0
   -0.1287   63.4700   86.5021 C   0  0  0  0  0  0  0  0  0  0  0  0
   -1.0384   63.5404   87.5594 C   0  0  0  0  0  0  0  0  0  0  0  0
   -2.3564   63.1212   87.3850 C   0  0  0  0  0  0  0  0  0  0  0  0
   -2.7672   62.6158   86.1502 C   0  0  0  0  0  0  0  0  0  0  0  0
   -1.8636   62.5172   85.0812 C   0  0  0  0  0  0  0  0  0  0  0  0
   -0.5405   62.9421   85.2741 C   0  0  0  0  0  0  0  0  0  0  0  0
   -2.3018   61.9790   83.7971 C   0  0  0  0  0  0  0  0  0  0  0  0
   -2.2450   62.6626   82.6359 N   0  0  0  0  0  0  0  0  0  0  0  0
   -2.7608   61.7626   81.6996 O   0  0  0  0  0  0  0  0  0  0  0  0
   -3.0694   60.6476   82.3997 C   0  0  0  0  0  0  0  0  0  0  0  0
   -3.5810   59.6409   81.7261 O   0  0  0  0  0  0  0  0  0  0  0  0
   -2.8210   60.7047   83.6755 N   0  0  0  0  0  0  0  0  0  0  0  0
   -3.6116   59.9684   80.8134 H   0  0  0  0  0  0  0  0  0  0  0  0
  1  2  1  0  0  0
  2  3  1  0  0  0
  3  4  2  0  0  0
  4  8  1  0  0  0
  8  9  1  0  0  0
  9 10  2  0  0  0
 10 11  1  0  0  0
 11 12  1  0  0  0
 11 13  2  0  0  0
 13 14  1  0  0  0
  4  5  1  0  0  0
  5  6  1  0  0  0
  6  7  2  0  0  0
  7 15  1  0  0  0
 15 16  1  0  0  0
 16 17  2  0  0  0
 17 18  1  0  0  0
 18 19  2  0  0  0
 19 21  1  0  0  0
 21 22  2  0  0  0
 22 23  1  0  0  0
 23 24  1  0  0  0
 24 25  1  0  0  0
 24 26  2  0  0  0
 19 20  1  0  0  0
  6  2  1  0  0  0
 20 15  2  0  0  0
 14  8  2  0  0  0
 26 21  1  0  0  0
 25 27  1  0  0  0
M  END
> <minimizedAffinity>
-10.38365

$$$$



 27 30  0  0  0  0  0  0  0  0999 V2000
   -2.6957   62.4640   81.1519 C   0  0  0  0  0  0  0  0  0  0  0  0
   -1.8760   63.2017   82.0889 N   0  0  0  0  0  0  0  0  0  0  0  0
   -1.7974   62.7303   83.3761 N   0  0  0  0  0  0  0  0  0  0  0  0
   -0.8924   63.4104   84.0199 C   0  0  0  0  0  0  0  0  0  0  0  0
   -0.0535   64.6563   83.1035 S   0  0  0  0  0  0  0  0  0  0  0  0
   -0.9962   64.1849   81.6913 C   0  0  0  0  0  0  0  0  0  0  0  0
   -0.8787   64.6703   80.4941 N   0  0  0  0  0  0  0  0  0  0  0  0
   -0.5631   63.1627   85.4476 C   0  0  0  0  0  0  0  0  0  0  0  0
    0.2842   63.9963   86.1928 C   0  0  0  0  0  0  0  0  0  0  0  0
    0.5575   63.7108   87.5360 C   0  0  0  0  0  0  0  0  0  0  0  0
   -0.0129   62.5932   88.1411 C   0  0  0  0  0  0  0  0  0  0  0  0
    0.3259   62.2468   89.7910 Cl  0  0  0  0  0  0  0  0  0  0  0  0
   -0.8557   61.7559   87.4157 C   0  0  0  0  0  0  0  0  0  0  0  0
   -1.1296   62.0398   86.0739 C   0  0  0  0  0  0  0  0  0  0  0  0
    0.0638   65.6686   80.2208 C   0  0  0  0  0  0  0  0  0  0  0  0
    1.1390   65.4040   79.3699 C   0  0  0  0  0  0  0  0  0  0  0  0
    2.0945   66.3864   79.1143 C   0  0  0  0  0  0  0  0  0  0  0  0
    1.9838   67.6383   79.7222 C   0  0  0  0  0  0  0  0  0  0  0  0
    0.9225   67.9176   80.5966 C   0  0  0  0  0  0  0  0  0  0  0  0
   -0.0295   66.9172   80.8441 C   0  0  0  0  0  0  0  0  0  0  0  0
    0.8215   69.2271   81.2334 C   0  0  0  0  0  0  0  0  0  0  0  0
   -0.1524   70.1208   80.9658 N   0  0  0  0  0  0  0  0  0  0  0  0
    0.1566   71.2015   81.7961 O   0  0  0  0  0  0  0  0  0  0  0  0
    1.2754   70.8384   82.4631 C   0  0  0  0  0  0  0  0  0  0  0  0
    1.7695   71.7058   83.3187 O   0  0  0  0  0  0  0  0  0  0  0  0
    1.7374   69.6571   82.1738 N   0  0  0  0  0  0  0  0  0  0  0  0
    1.1581   72.4568   83.2621 H   0  0  0  0  0  0  0  0  0  0  0  0
  1  2  1  0  0  0
  2  3  1  0  0  0
  3  4  2  0  0  0
  4  8  1  0  0  0
  8  9  1  0  0  0
  9 10  2  0  0  0
 10 11  1  0  0  0
 11 12  1  0  0  0
 11 13  2  0  0  0
 13 14  1  0  0  0
  4  5  1  0  0  0
  5  6  1  0  0  0
  6  7  2  0  0  0
  7 15  1  0  0  0
 15 16  1  0  0  0
 16 17  2  0  0  0
 17 18  1  0  0  0
 18 19  2  0  0  0
 19 21  1  0  0  0
 21 22  2  0  0  0
 22 23  1  0  0  0
 23 24  1  0  0  0
 24 25  1  0  0  0
 24 26  2  0  0  0
 19 20  1  0  0  0
  6  2  1  0  0  0
 20 15  2  0  0  0
 14  8  2  0  0  0
 26 21  1  0  0  0
 25 27  1  0  0  0
M  END
> <minimizedAffinity>
-10.24344

$$$$



 27 30  0  0  0  0  0  0  0  0999 V2000
    1.0628   64.9462   78.8168 C   0  0  0  0  0  0  0  0  0  0  0  0
    1.1003   65.5582   80.1276 N   0  0  0  0  0  0  0  0  0  0  0  0
    1.5147   66.8647   80.2098 N   0  0  0  0  0  0  0  0  0  0  0  0
    1.3207   67.2931   81.4242 C   0  0  0  0  0  0  0  0  0  0  0  0
    0.5991   66.1492   82.5496 S   0  0  0  0  0  0  0  0  0  0  0  0
    0.5146   64.9808   81.2332 C   0  0  0  0  0  0  0  0  0  0  0  0
   -0.0095   63.7957   81.2923 N   0  0  0  0  0  0  0  0  0  0  0  0
    1.6743   68.6695   81.8586 C   0  0  0  0  0  0  0  0  0  0  0  0
    2.9166   68.9984   82.4213 C   0  0  0  0  0  0  0  0  0  0  0  0
    3.1917   70.3145   82.8119 C   0  0  0  0  0  0  0  0  0  0  0  0
    2.2294   71.3074   82.6431 C   0  0  0  0  0  0  0  0  0  0  0  0
    2.5720   72.9222   83.1245 Cl  0  0  0  0  0  0  0  0  0  0  0  0
    0.9917   70.9976   82.0864 C   0  0  0  0  0  0  0  0  0  0  0  0
    0.7154   69.6834   81.6957 C   0  0  0  0  0  0  0  0  0  0  0  0
   -0.5800   63.3290   82.4824 C   0  0  0  0  0  0  0  0  0  0  0  0
   -1.7958   62.6424   82.4554 C   0  0  0  0  0  0  0  0  0  0  0  0
   -2.3812   62.1977   83.6398 C   0  0  0  0  0  0  0  0  0  0  0  0
   -1.7556   62.4509   84.8619 C   0  0  0  0  0  0  0  0  0  0  0  0
   -0.5441   63.1571   84.9126 C   0  0  0  0  0  0  0  0  0  0  0  0
    0.0307   63.5989   83.7114 C   0  0  0  0  0  0  0  0  0  0  0  0
    0.0968   63.4237   86.1966 C   0  0  0  0  0  0  0  0  0  0  0  0
    1.2614   64.0901   86.3324 N   0  0  0  0  0  0  0  0  0  0  0  0
    1.4748   64.1002   87.7134 O   0  0  0  0  0  0  0  0  0  0  0  0
    0.4221   63.4411   88.2481 C   0  0  0  0  0  0  0  0  0  0  0  0
    0.3966   63.3167   89.5568 O   0  0  0  0  0  0  0  0  0  0  0  0
   -0.4526   63.0009   87.3915 N   0  0  0  0  0  0  0  0  0  0  0  0
    1.2046   63.7693   89.8454 H   0  0  0  0  0  0  0  0  0  0  0  0
  1  2  1  0  0  0
  2  3  1  0  0  0
  3  4  2  0  0  0
  4  8  1  0  0  0
  8  9  1  0  0  0
  9 10  2  0  0  0
 10 11  1  0  0  0
 11 12  1  0  0  0
 11 13  2  0  0  0
 13 14  1  0  0  0
  4  5  1  0  0  0
  5  6  1  0  0  0
  6  7  2  0  0  0
  7 15  1  0  0  0
 15 16  1  0  0  0
 16 17  2  0  0  0
 17 18  1  0  0  0
 18 19  2  0  0  0
 19 21  1  0  0  0
 21 22  2  0  0  0
 22 23  1  0  0  0
 23 24  1  0  0  0
 24 25  1  0  0  0
 24 26  2  0  0  0
 19 20  1  0  0  0
  6  2  1  0  0  0
 20 15  2  0  0  0
 14  8  2  0  0  0
 26 21  1  0  0  0
 25 27  1  0  0  0
M  END
> <minimizedAffinity>
-10.08641

$$$$



 27 30  0  0  0  0  0  0  0  0999 V2000
    0.6322   63.2539   78.6798 C   0  0  0  0  0  0  0  0  0  0  0  0
    0.5920   64.1976   79.7761 N   0  0  0  0  0  0  0  0  0  0  0  0
    0.9040   65.5065   79.5027 N   0  0  0  0  0  0  0  0  0  0  0  0
    0.6491   66.2297   80.5553 C   0  0  0  0  0  0  0  0  0  0  0  0
   -0.0104   65.3779   81.9465 S   0  0  0  0  0  0  0  0  0  0  0  0
    0.0254   63.8950   80.9952 C   0  0  0  0  0  0  0  0  0  0  0  0
   -0.4086   62.7320   81.3716 N   0  0  0  0  0  0  0  0  0  0  0  0
    0.8868   67.6958   80.6019 C   0  0  0  0  0  0  0  0  0  0  0  0
   -0.1439   68.6414   80.4942 C   0  0  0  0  0  0  0  0  0  0  0  0
    0.1425   70.0110   80.5449 C   0  0  0  0  0  0  0  0  0  0  0  0
    1.4574   70.4428   80.7030 C   0  0  0  0  0  0  0  0  0  0  0  0
    1.8041   72.1258   80.7647 Cl  0  0  0  0  0  0  0  0  0  0  0  0
    2.4916   69.5173   80.8113 C   0  0  0  0  0  0  0  0  0  0  0  0
    2.2071   68.1489   80.7608 C   0  0  0  0  0  0  0  0  0  0  0  0
   -0.9703   62.5596   82.6421 C   0  0  0  0  0  0  0  0  0  0  0  0
   -2.2610   62.0429   82.7742 C   0  0  0  0  0  0  0  0  0  0  0  0
   -2.8351   61.8929   84.0356 C   0  0  0  0  0  0  0  0  0  0  0  0
   -2.1213   62.2731   85.1736 C   0  0  0  0  0  0  0  0  0  0  0  0
   -0.8313   62.8137   85.0614 C   0  0  0  0  0  0  0  0  0  0  0  0
   -0.2689   62.9593   83.7843 C   0  0  0  0  0  0  0  0  0  0  0  0
   -0.0976   63.2159   86.2573 C   0  0  0  0  0  0  0  0  0  0  0  0
    1.0097   63.9856   86.2376 N   0  0  0  0  0  0  0  0  0  0  0  0
    1.3520   64.1030   87.5873 O   0  0  0  0  0  0  0  0  0  0  0  0
    0.4190   63.3934   88.2614 C   0  0  0  0  0  0  0  0  0  0  0  0
    0.5298   63.3521   89.5709 O   0  0  0  0  0  0  0  0  0  0  0  0
   -0.4900   62.8264   87.5232 N   0  0  0  0  0  0  0  0  0  0  0  0
    1.3175   63.8891   89.7509 H   0  0  0  0  0  0  0  0  0  0  0  0
  1  2  1  0  0  0
  2  3  1  0  0  0
  3  4  2  0  0  0
  4  8  1  0  0  0
  8  9  1  0  0  0
  9 10  2  0  0  0
 10 11  1  0  0  0
 11 12  1  0  0  0
 11 13  2  0  0  0
 13 14  1  0  0  0
  4  5  1  0  0  0
  5  6  1  0  0  0
  6  7  2  0  0  0
  7 15  1  0  0  0
 15 16  1  0  0  0
 16 17  2  0  0  0
 17 18  1  0  0  0
 18 19  2  0  0  0
 19 21  1  0  0  0
 21 22  2  0  0  0
 22 23  1  0  0  0
 23 24  1  0  0  0
 24 25  1  0  0  0
 24 26  2  0  0  0
 19 20  1  0  0  0
  6  2  1  0  0  0
 20 15  2  0  0  0
 14  8  2  0  0  0
 26 21  1  0  0  0
 25 27  1  0  0  0
M  END
> <minimizedAffinity>
-10.08275

$$$$



 27 30  0  0  0  0  0  0  0  0999 V2000
   -0.2322   62.9973   86.8263 C   0  0  0  0  0  0  0  0  0  0  0  0
   -0.2065   63.6396   85.5299 N   0  0  0  0  0  0  0  0  0  0  0  0
    0.5644   64.7675   85.3921 N   0  0  0  0  0  0  0  0  0  0  0  0
    0.6021   65.1016   84.1339 C   0  0  0  0  0  0  0  0  0  0  0  0
   -0.2760   64.0578   83.0225 S   0  0  0  0  0  0  0  0  0  0  0  0
   -0.7086   63.0408   84.3950 C   0  0  0  0  0  0  0  0  0  0  0  0
   -1.3729   61.9277   84.3452 N   0  0  0  0  0  0  0  0  0  0  0  0
    1.3439   66.2899   83.6382 C   0  0  0  0  0  0  0  0  0  0  0  0
    2.1265   67.1047   84.4701 C   0  0  0  0  0  0  0  0  0  0  0  0
    2.8027   68.2122   83.9444 C   0  0  0  0  0  0  0  0  0  0  0  0
    2.7013   68.5116   82.5878 C   0  0  0  0  0  0  0  0  0  0  0  0
    3.5337   69.8730   81.9471 Cl  0  0  0  0  0  0  0  0  0  0  0  0
    1.9289   67.7133   81.7489 C   0  0  0  0  0  0  0  0  0  0  0  0
    1.2527   66.6066   82.2724 C   0  0  0  0  0  0  0  0  0  0  0  0
   -1.8247   61.4233   83.1200 C   0  0  0  0  0  0  0  0  0  0  0  0
   -2.9580   60.6088   83.0718 C   0  0  0  0  0  0  0  0  0  0  0  0
   -3.3976   60.0829   81.8579 C   0  0  0  0  0  0  0  0  0  0  0  0
   -2.6940   60.3611   80.6846 C   0  0  0  0  0  0  0  0  0  0  0  0
   -1.5410   61.1603   80.7144 C   0  0  0  0  0  0  0  0  0  0  0  0
   -1.1114   61.6803   81.9446 C   0  0  0  0  0  0  0  0  0  0  0  0
   -0.8083   61.4375   79.4828 C   0  0  0  0  0  0  0  0  0  0  0  0
   -0.8662   60.6609   78.3817 N   0  0  0  0  0  0  0  0  0  0  0  0
   -0.0196   61.3087   77.4782 O   0  0  0  0  0  0  0  0  0  0  0  0
    0.4502   62.3935   78.1348 C   0  0  0  0  0  0  0  0  0  0  0  0
    1.2817   63.1745   77.4812 O   0  0  0  0  0  0  0  0  0  0  0  0
    0.0182   62.5368   79.3537 N   0  0  0  0  0  0  0  0  0  0  0  0
    1.3596   62.7497   76.6125 H   0  0  0  0  0  0  0  0  0  0  0  0
  1  2  1  0  0  0
  2  3  1  0  0  0
  3  4  2  0  0  0
  4  8  1  0  0  0
  8  9  1  0  0  0
  9 10  2  0  0  0
 10 11  1  0  0  0
 11 12  1  0  0  0
 11 13  2  0  0  0
 13 14  1  0  0  0
  4  5  1  0  0  0
  5  6  1  0  0  0
  6  7  2  0  0  0
  7 15  1  0  0  0
 15 16  1  0  0  0
 16 17  2  0  0  0
 17 18  1  0  0  0
 18 19  2  0  0  0
 19 21  1  0  0  0
 21 22  2  0  0  0
 22 23  1  0  0  0
 23 24  1  0  0  0
 24 25  1  0  0  0
 24 26  2  0  0  0
 19 20  1  0  0  0
  6  2  1  0  0  0
 20 15  2  0  0  0
 14  8  2  0  0  0
 26 21  1  0  0  0
 25 27  1  0  0  0
M  END
> <minimizedAffinity>
-10.06254

$$$$



 27 30  0  0  0  0  0  0  0  0999 V2000
    0.6438   62.1527   80.2311 C   0  0  0  0  0  0  0  0  0  0  0  0
    0.2833   63.0423   81.3140 N   0  0  0  0  0  0  0  0  0  0  0  0
    0.2187   62.5133   82.5794 N   0  0  0  0  0  0  0  0  0  0  0  0
    0.0535   63.4822   83.4338 C   0  0  0  0  0  0  0  0  0  0  0  0
   -0.0118   65.1088   82.7663 S   0  0  0  0  0  0  0  0  0  0  0  0
    0.2496   64.4122   81.1689 C   0  0  0  0  0  0  0  0  0  0  0  0
    0.3913   65.0696   80.0596 N   0  0  0  0  0  0  0  0  0  0  0  0
   -0.0689   63.2534   84.8969 C   0  0  0  0  0  0  0  0  0  0  0  0
   -0.7459   62.1535   85.4449 C   0  0  0  0  0  0  0  0  0  0  0  0
   -0.8280   61.9917   86.8332 C   0  0  0  0  0  0  0  0  0  0  0  0
   -0.2357   62.9256   87.6802 C   0  0  0  0  0  0  0  0  0  0  0  0
   -0.3394   62.7225   89.3845 Cl  0  0  0  0  0  0  0  0  0  0  0  0
    0.4396   64.0225   87.1524 C   0  0  0  0  0  0  0  0  0  0  0  0
    0.5224   64.1856   85.7659 C   0  0  0  0  0  0  0  0  0  0  0  0
    0.3412   66.4685   80.0506 C   0  0  0  0  0  0  0  0  0  0  0  0
   -0.8663   67.1256   79.8045 C   0  0  0  0  0  0  0  0  0  0  0  0
   -0.9170   68.5182   79.7690 C   0  0  0  0  0  0  0  0  0  0  0  0
    0.2481   69.2613   79.9679 C   0  0  0  0  0  0  0  0  0  0  0  0
    1.4752   68.6201   80.1960 C   0  0  0  0  0  0  0  0  0  0  0  0
    1.5089   67.2179   80.2270 C   0  0  0  0  0  0  0  0  0  0  0  0
    2.6886   69.4069   80.3940 C   0  0  0  0  0  0  0  0  0  0  0  0
    3.4138   69.3983   81.5311 N   0  0  0  0  0  0  0  0  0  0  0  0
    4.4600   70.2841   81.2598 O   0  0  0  0  0  0  0  0  0  0  0  0
    4.2457   70.7237   79.9991 C   0  0  0  0  0  0  0  0  0  0  0  0
    5.1123   71.5832   79.5101 O   0  0  0  0  0  0  0  0  0  0  0  0
    3.1914   70.2378   79.4117 N   0  0  0  0  0  0  0  0  0  0  0  0
    5.7506   71.6999   80.2312 H   0  0  0  0  0  0  0  0  0  0  0  0
  1  2  1  0  0  0
  2  3  1  0  0  0
  3  4  2  0  0  0
  4  8  1  0  0  0
  8  9  1  0  0  0
  9 10  2  0  0  0
 10 11  1  0  0  0
 11 12  1  0  0  0
 11 13  2  0  0  0
 13 14  1  0  0  0
  4  5  1  0  0  0
  5  6  1  0  0  0
  6  7  2  0  0  0
  7 15  1  0  0  0
 15 16  1  0  0  0
 16 17  2  0  0  0
 17 18  1  0  0  0
 18 19  2  0  0  0
 19 21  1  0  0  0
 21 22  2  0  0  0
 22 23  1  0  0  0
 23 24  1  0  0  0
 24 25  1  0  0  0
 24 26  2  0  0  0
 19 20  1  0  0  0
  6  2  1  0  0  0
 20 15  2  0  0  0
 14  8  2  0  0  0
 26 21  1  0  0  0
 25 27  1  0  0  0
M  END
> <minimizedAffinity>
-9.99317

$$$$



 27 30  0  0  0  0  0  0  0  0999 V2000
    5.6467   67.7147   84.2328 C   0  0  0  0  0  0  0  0  0  0  0  0
    4.2830   68.1104   83.9535 N   0  0  0  0  0  0  0  0  0  0  0  0
    4.0871   69.2838   83.2679 N   0  0  0  0  0  0  0  0  0  0  0  0
    2.8259   69.3873   82.9606 C   0  0  0  0  0  0  0  0  0  0  0  0
    1.7889   68.0566   83.4604 S   0  0  0  0  0  0  0  0  0  0  0  0
    3.2138   67.2574   84.1207 C   0  0  0  0  0  0  0  0  0  0  0  0
    3.2507   66.0781   84.6598 N   0  0  0  0  0  0  0  0  0  0  0  0
    2.2696   70.5514   82.2232 C   0  0  0  0  0  0  0  0  0  0  0  0
    3.0688   71.5825   81.7071 C   0  0  0  0  0  0  0  0  0  0  0  0
    2.4862   72.6548   81.0207 C   0  0  0  0  0  0  0  0  0  0  0  0
    1.1050   72.7031   80.8463 C   0  0  0  0  0  0  0  0  0  0  0  0
    0.3944   74.0221   80.0027 Cl  0  0  0  0  0  0  0  0  0  0  0  0
    0.2980   71.6879   81.3523 C   0  0  0  0  0  0  0  0  0  0  0  0
    0.8784   70.6162   82.0382 C   0  0  0  0  0  0  0  0  0  0  0  0
    2.0869   65.3074   84.7647 C   0  0  0  0  0  0  0  0  0  0  0  0
    1.3011   65.0663   83.6356 C   0  0  0  0  0  0  0  0  0  0  0  0
    0.1276   64.3210   83.7389 C   0  0  0  0  0  0  0  0  0  0  0  0
   -0.2721   63.8228   84.9804 C   0  0  0  0  0  0  0  0  0  0  0  0
    0.4923   64.0713   86.1306 C   0  0  0  0  0  0  0  0  0  0  0  0
    1.6696   64.8245   86.0093 C   0  0  0  0  0  0  0  0  0  0  0  0
    0.0603   63.5529   87.4249 C   0  0  0  0  0  0  0  0  0  0  0  0
   -1.1940   63.6771   87.9046 N   0  0  0  0  0  0  0  0  0  0  0  0
   -1.1345   63.0417   89.1478 O   0  0  0  0  0  0  0  0  0  0  0  0
    0.1413   62.6118   89.2749 C   0  0  0  0  0  0  0  0  0  0  0  0
    0.4496   61.9735   90.3822 O   0  0  0  0  0  0  0  0  0  0  0  0
    0.9237   62.8861   88.2723 N   0  0  0  0  0  0  0  0  0  0  0  0
   -0.3836   61.9612   90.8789 H   0  0  0  0  0  0  0  0  0  0  0  0
  1  2  1  0  0  0
  2  3  1  0  0  0
  3  4  2  0  0  0
  4  8  1  0  0  0
  8  9  1  0  0  0
  9 10  2  0  0  0
 10 11  1  0  0  0
 11 12  1  0  0  0
 11 13  2  0  0  0
 13 14  1  0  0  0
  4  5  1  0  0  0
  5  6  1  0  0  0
  6  7  2  0  0  0
  7 15  1  0  0  0
 15 16  1  0  0  0
 16 17  2  0  0  0
 17 18  1  0  0  0
 18 19  2  0  0  0
 19 21  1  0  0  0
 21 22  2  0  0  0
 22 23  1  0  0  0
 23 24  1  0  0  0
 24 25  1  0  0  0
 24 26  2  0  0  0
 19 20  1  0  0  0
  6  2  1  0  0  0
 20 15  2  0  0  0
 14  8  2  0  0  0
 26 21  1  0  0  0
 25 27  1  0  0  0
M  END
> <minimizedAffinity>
-9.95038

$$$$
