
     RDKit          3D

 76 80  0  0  0  0  0  0  0  0999 V2000
   -4.0270    3.2696    0.8129 C   0  0  0  0  0  0  0  0  0  0  0  0
   -4.1938    3.9280   -0.5500 C   0  0  0  0  0  0  0  0  0  0  0  0
   -3.7225    3.0468   -1.7090 C   0  0  0  0  0  0  0  0  0  0  0  0
   -4.5834    1.8531   -1.9402 C   0  0  0  0  0  0  0  0  0  0  0  0
   -5.7192    1.9471   -2.6586 N   0  0  0  0  0  0  0  0  0  0  0  0
   -6.2191    0.6861   -2.6509 N   0  0  0  0  0  0  0  0  0  0  0  0
   -7.4589    0.3989   -3.3309 C   0  0  0  0  0  0  0  0  0  0  0  0
   -5.4422   -0.1909   -1.9619 C   0  0  0  0  0  0  0  0  0  0  0  0
   -5.5889   -1.5753   -1.7055 C   0  0  0  0  0  0  0  0  0  0  0  0
   -6.5040   -2.2871   -2.1021 O   0  0  0  0  0  0  0  0  0  0  0  0
   -4.5519   -2.0521   -0.9367 N   0  0  0  0  0  0  0  0  0  0  0  0
   -3.4845   -1.2831   -0.4850 C   0  0  0  0  0  0  0  0  0  0  0  0
   -2.4388   -1.9856    0.3435 C   0  0  0  0  0  0  0  0  0  0  0  0
   -1.4845   -1.1634    0.9730 C   0  0  0  0  0  0  0  0  0  0  0  0
   -0.4638   -1.7277    1.7371 C   0  0  0  0  0  0  0  0  0  0  0  0
    0.7353   -0.6939    2.5414 S   0  0  0  0  0  0  0  0  0  0  0  0
    0.3819    0.6918    2.3210 O   0  0  0  0  0  0  0  0  0  0  0  0
    0.9188   -1.2201    3.8773 O   0  0  0  0  0  0  0  0  0  0  0  0
    2.1493   -1.0114    1.6470 N   0  0  0  0  0  0  0  0  0  0  0  0
    2.1402   -0.5433    0.2233 C   0  0  0  0  0  0  0  0  0  0  0  0
    3.0518    0.6806    0.0185 C   0  0  0  0  0  0  0  0  0  0  0  0
    4.4753    0.3843    0.2811 N   0  0  0  0  0  0  0  0  0  0  0  0
    5.3381    1.5842    0.3956 C   0  0  0  0  0  0  0  0  0  0  0  0
    5.0019    2.6903   -0.6349 C   0  0  0  0  0  0  0  0  0  0  0  0
    5.9507    3.8843   -0.5367 C   0  0  0  0  0  0  0  0  0  0  0  0
    7.4052    3.4632   -0.6883 C   0  0  0  0  0  0  0  0  0  0  0  0
    7.7672    2.3737    0.3109 C   0  0  0  0  0  0  0  0  0  0  0  0
    6.8209    1.1785    0.2102 C   0  0  0  0  0  0  0  0  0  0  0  0
    4.6117   -0.5476    1.4275 C   0  0  0  0  0  0  0  0  0  0  0  0
    3.3956   -0.6096    2.3727 C   0  0  0  0  0  0  0  0  0  0  0  0
   -0.3857   -3.1079    1.9033 C   0  0  0  0  0  0  0  0  0  0  0  0
   -1.3317   -3.9327    1.2902 C   0  0  0  0  0  0  0  0  0  0  0  0
   -2.3650   -3.3900    0.5108 C   0  0  0  0  0  0  0  0  0  0  0  0
   -3.3151   -4.1513   -0.1205 O   0  0  0  0  0  0  0  0  0  0  0  0
   -3.3551   -5.5664    0.0794 C   0  0  0  0  0  0  0  0  0  0  0  0
   -2.4655   -6.2782   -0.9244 C   0  0  0  0  0  0  0  0  0  0  0  0
   -3.3533   -0.0080   -0.7356 N   0  0  0  0  0  0  0  0  0  0  0  0
   -4.3858    0.5342   -1.5011 C   0  0  0  0  0  0  0  0  0  0  0  0
   -4.6748    2.3942    0.9174 H   0  0  0  0  0  0  0  0  0  0  0  0
   -4.2936    3.9758    1.6057 H   0  0  0  0  0  0  0  0  0  0  0  0
   -2.9909    2.9553    0.9741 H   0  0  0  0  0  0  0  0  0  0  0  0
   -5.2436    4.2131   -0.6882 H   0  0  0  0  0  0  0  0  0  0  0  0
   -3.6078    4.8550   -0.5583 H   0  0  0  0  0  0  0  0  0  0  0  0
   -3.7081    3.6521   -2.6246 H   0  0  0  0  0  0  0  0  0  0  0  0
   -2.6857    2.7320   -1.5374 H   0  0  0  0  0  0  0  0  0  0  0  0
   -8.1752    0.0187   -2.5985 H   0  0  0  0  0  0  0  0  0  0  0  0
   -7.8459    1.3144   -3.7861 H   0  0  0  0  0  0  0  0  0  0  0  0
   -7.2635   -0.3458   -4.1062 H   0  0  0  0  0  0  0  0  0  0  0  0
   -4.5783   -3.0414   -0.7277 H   0  0  0  0  0  0  0  0  0  0  0  0
   -1.5371   -0.0804    0.8669 H   0  0  0  0  0  0  0  0  0  0  0  0
    2.4720   -1.3785   -0.4058 H   0  0  0  0  0  0  0  0  0  0  0  0
    1.1280   -0.2934   -0.1086 H   0  0  0  0  0  0  0  0  0  0  0  0
    2.7009    1.4912    0.6703 H   0  0  0  0  0  0  0  0  0  0  0  0
    2.9387    1.0090   -1.0208 H   0  0  0  0  0  0  0  0  0  0  0  0
    5.2081    2.0192    1.3965 H   0  0  0  0  0  0  0  0  0  0  0  0
    5.0460    2.2788   -1.6518 H   0  0  0  0  0  0  0  0  0  0  0  0
    3.9842    3.0672   -0.4830 H   0  0  0  0  0  0  0  0  0  0  0  0
    5.8115    4.3811    0.4314 H   0  0  0  0  0  0  0  0  0  0  0  0
    5.6983    4.6181   -1.3105 H   0  0  0  0  0  0  0  0  0  0  0  0
    7.5770    3.0977   -1.7082 H   0  0  0  0  0  0  0  0  0  0  0  0
    8.0594    4.3304   -0.5447 H   0  0  0  0  0  0  0  0  0  0  0  0
    7.7324    2.7813    1.3287 H   0  0  0  0  0  0  0  0  0  0  0  0
    8.7969    2.0425    0.1348 H   0  0  0  0  0  0  0  0  0  0  0  0
    6.9518    0.6998   -0.7697 H   0  0  0  0  0  0  0  0  0  0  0  0
    7.1334    0.4431    0.9586 H   0  0  0  0  0  0  0  0  0  0  0  0
    5.4951   -0.3306    2.0367 H   0  0  0  0  0  0  0  0  0  0  0  0
    4.7739   -1.5482    1.0066 H   0  0  0  0  0  0  0  0  0  0  0  0
    3.5932   -1.3523    3.1538 H   0  0  0  0  0  0  0  0  0  0  0  0
    3.2598    0.3672    2.8529 H   0  0  0  0  0  0  0  0  0  0  0  0
    0.4074   -3.5456    2.5075 H   0  0  0  0  0  0  0  0  0  0  0  0
   -1.2214   -5.0020    1.4405 H   0  0  0  0  0  0  0  0  0  0  0  0
   -4.3918   -5.8712   -0.1041 H   0  0  0  0  0  0  0  0  0  0  0  0
   -3.1410   -5.8518    1.1147 H   0  0  0  0  0  0  0  0  0  0  0  0
   -2.5550   -7.3631   -0.8186 H   0  0  0  0  0  0  0  0  0  0  0  0
   -1.4147   -6.0017   -0.7975 H   0  0  0  0  0  0  0  0  0  0  0  0
   -2.7441   -6.0005   -1.9464 H   0  0  0  0  0  0  0  0  0  0  0  0
  1  2  1  0
  2  3  1  0
  3  4  1  0
  4  5  2  0
  5  6  1  0
  6  7  1  0
  6  8  1  0
  8  9  1  0
  9 10  2  0
  9 11  1  0
 11 12  1  0
 12 13  1  0
 13 14  1  0
 14 15  2  0
 15 16  1  0
 16 17  2  0
 16 18  2  0
 16 19  1  0
 19 20  1  0
 20 21  1  0
 21 22  1  0
 22 23  1  0
 23 24  1  0
 24 25  1  0
 25 26  1  0
 26 27  1  0
 27 28  1  0
 22 29  1  0
 29 30  1  0
 15 31  1  0
 31 32  2  0
 32 33  1  0
 33 34  1  0
 34 35  1  0
 35 36  1  0
 12 37  2  0
 37 38  1  0
 38  4  1  0
 38  8  2  0
 33 13  2  0
 30 19  1  0
 28 23  1  0
  1 39  1  0
  1 40  1  0
  1 41  1  0
  2 42  1  0
  2 43  1  0
  3 44  1  0
  3 45  1  0
  7 46  1  0
  7 47  1  0
  7 48  1  0
 11 49  1  0
 14 50  1  0
 20 51  1  0
 20 52  1  0
 21 53  1  0
 21 54  1  0
 23 55  1  0
 24 56  1  0
 24 57  1  0
 25 58  1  0
 25 59  1  0
 26 60  1  0
 26 61  1  0
 27 62  1  0
 27 63  1  0
 28 64  1  0
 28 65  1  0
 29 66  1  0
 29 67  1  0
 30 68  1  0
 30 69  1  0
 31 70  1  0
 32 71  1  0
 35 72  1  0
 35 73  1  0
 36 74  1  0
 36 75  1  0
 36 76  1  0
M  END
$$$$
