
     RDKit          3D

 55 59  0  0  0  0  0  0  0  0999 V2000
   -2.9867    5.5700    0.4995 C   0  0  0  0  0  0  0  0  0  0  0  0
   -3.5055    4.1627    0.7349 C   0  0  0  0  0  0  0  0  0  0  0  0
   -2.4466    3.2358    0.9605 O   0  0  0  0  0  0  0  0  0  0  0  0
   -1.7278    2.8986   -0.2234 C   0  0  0  0  0  0  0  0  0  0  0  0
   -0.8272    1.7302    0.0806 C   0  0  0  0  0  0  0  0  0  0  0  0
    0.4330    1.8625    0.3798 N   0  0  0  0  0  0  0  0  0  0  0  0
    1.1500    0.7017    0.6749 C   0  0  0  0  0  0  0  0  0  0  0  0
    2.6105    0.8901    1.0105 C   0  0  0  0  0  0  0  0  0  0  0  0
    3.1141    2.0146    1.0005 O   0  0  0  0  0  0  0  0  0  0  0  0
    3.3255   -0.2561    1.3205 N   0  0  0  0  0  0  0  0  0  0  0  0
    4.7572   -0.1564    1.5893 C   0  0  0  0  0  0  0  0  0  0  0  0
    5.5855   -0.3593    0.3410 C   0  0  0  0  0  0  0  0  0  0  0  0
    5.9472    0.7338   -0.4594 C   0  0  0  0  0  0  0  0  0  0  0  0
    6.6989    0.5435   -1.6199 C   0  0  0  0  0  0  0  0  0  0  0  0
    7.0903   -0.7403   -1.9956 C   0  0  0  0  0  0  0  0  0  0  0  0
    6.7257   -1.8359   -1.2150 C   0  0  0  0  0  0  0  0  0  0  0  0
    5.9735   -1.6476   -0.0544 C   0  0  0  0  0  0  0  0  0  0  0  0
    2.7919   -1.5164    1.3356 N   0  0  0  0  0  0  0  0  0  0  0  0
    1.5407   -1.6582    1.0364 C   0  0  0  0  0  0  0  0  0  0  0  0
    1.0249   -3.0783    1.0756 C   0  0  0  0  0  0  0  0  0  0  0  0
    0.6219   -0.5432    0.6728 C   0  0  0  0  0  0  0  0  0  0  0  0
   -0.7548   -0.6934    0.3248 C   0  0  0  0  0  0  0  0  0  0  0  0
   -1.6898   -1.6933    0.1678 C   0  0  0  0  0  0  0  0  0  0  0  0
   -2.8983   -1.0541   -0.2328 C   0  0  0  0  0  0  0  0  0  0  0  0
   -4.1969   -1.6696   -0.5321 C   0  0  0  0  0  0  0  0  0  0  0  0
   -4.3169   -3.0510   -0.7458 C   0  0  0  0  0  0  0  0  0  0  0  0
   -5.5614   -3.6244   -1.0267 C   0  0  0  0  0  0  0  0  0  0  0  0
   -6.7002   -2.8255   -1.0979 C   0  0  0  0  0  0  0  0  0  0  0  0
   -6.5976   -1.4525   -0.8909 C   0  0  0  0  0  0  0  0  0  0  0  0
   -5.3545   -0.8789   -0.6109 C   0  0  0  0  0  0  0  0  0  0  0  0
   -2.7148    0.2716   -0.3203 N   0  0  0  0  0  0  0  0  0  0  0  0
   -1.4327    0.4737    0.0418 N   0  0  0  0  0  0  0  0  0  0  0  0
   -2.3016    5.8681    1.2997 H   0  0  0  0  0  0  0  0  0  0  0  0
   -2.4327    5.6366   -0.4416 H   0  0  0  0  0  0  0  0  0  0  0  0
   -3.8149    6.2835    0.4575 H   0  0  0  0  0  0  0  0  0  0  0  0
   -4.1254    4.1605    1.6375 H   0  0  0  0  0  0  0  0  0  0  0  0
   -4.1385    3.8272   -0.0943 H   0  0  0  0  0  0  0  0  0  0  0  0
   -2.4060    2.6685   -1.0518 H   0  0  0  0  0  0  0  0  0  0  0  0
   -1.0982    3.7458   -0.5160 H   0  0  0  0  0  0  0  0  0  0  0  0
    5.0234   -0.9059    2.3454 H   0  0  0  0  0  0  0  0  0  0  0  0
    4.9881    0.8193    2.0338 H   0  0  0  0  0  0  0  0  0  0  0  0
    5.6368    1.7407   -0.1836 H   0  0  0  0  0  0  0  0  0  0  0  0
    6.9743    1.3983   -2.2320 H   0  0  0  0  0  0  0  0  0  0  0  0
    7.6743   -0.8870   -2.9001 H   0  0  0  0  0  0  0  0  0  0  0  0
    7.0231   -2.8380   -1.5119 H   0  0  0  0  0  0  0  0  0  0  0  0
    5.6819   -2.5108    0.5402 H   0  0  0  0  0  0  0  0  0  0  0  0
    1.8217   -3.7641    1.3825 H   0  0  0  0  0  0  0  0  0  0  0  0
    0.2139   -3.1627    1.8033 H   0  0  0  0  0  0  0  0  0  0  0  0
    0.6889   -3.3808    0.0805 H   0  0  0  0  0  0  0  0  0  0  0  0
   -1.5523   -2.7535    0.3149 H   0  0  0  0  0  0  0  0  0  0  0  0
   -3.4495   -3.7036   -0.7088 H   0  0  0  0  0  0  0  0  0  0  0  0
   -5.6405   -4.6960   -1.1925 H   0  0  0  0  0  0  0  0  0  0  0  0
   -7.6669   -3.2720   -1.3166 H   0  0  0  0  0  0  0  0  0  0  0  0
   -7.4831   -0.8246   -0.9463 H   0  0  0  0  0  0  0  0  0  0  0  0
   -5.2960    0.1961   -0.4499 H   0  0  0  0  0  0  0  0  0  0  0  0
  1  2  1  0
  2  3  1  0
  3  4  1  0
  4  5  1  0
  5  6  2  0
  6  7  1  0
  7  8  1  0
  8  9  2  0
  8 10  1  0
 10 11  1  0
 11 12  1  0
 12 13  2  0
 13 14  1  0
 14 15  2  0
 15 16  1  0
 16 17  2  0
 10 18  1  0
 18 19  2  0
 19 20  1  0
 19 21  1  0
 21 22  1  0
 22 23  2  0
 23 24  1  0
 24 25  1  0
 25 26  2  0
 26 27  1  0
 27 28  2  0
 28 29  1  0
 29 30  2  0
 24 31  2  0
 31 32  1  0
 32  5  1  0
 21  7  2  0
 32 22  1  0
 17 12  1  0
 30 25  1  0
  1 33  1  0
  1 34  1  0
  1 35  1  0
  2 36  1  0
  2 37  1  0
  4 38  1  0
  4 39  1  0
 11 40  1  0
 11 41  1  0
 13 42  1  0
 14 43  1  0
 15 44  1  0
 16 45  1  0
 17 46  1  0
 20 47  1  0
 20 48  1  0
 20 49  1  0
 23 50  1  0
 26 51  1  0
 27 52  1  0
 28 53  1  0
 29 54  1  0
 30 55  1  0
M  END
$$$$
