
     RDKit          3D

 45 49  0  0  0  0  0  0  0  0999 V2000
    4.8947    1.3523    1.1789 C   0  0  0  0  0  0  0  0  0  0  0  0
    4.6550    1.0676   -0.2953 C   0  0  0  0  0  0  0  0  0  0  0  0
    3.3398    0.5069   -0.5210 N   0  0  0  0  0  0  0  0  0  0  0  0
    3.0416   -0.8302   -0.4673 C   0  0  0  0  0  0  0  0  0  0  0  0
    3.8163   -1.7462   -0.2331 O   0  0  0  0  0  0  0  0  0  0  0  0
    1.5854   -0.9886   -0.8552 C   0  0  1  0  0  0  0  0  0  0  0  0
    0.7799   -1.9979   -0.0448 C   0  0  0  0  0  0  0  0  0  0  0  0
   -0.6638   -1.7425   -0.3342 C   0  0  0  0  0  0  0  0  0  0  0  0
   -1.1009   -0.4948   -0.7526 C   0  0  0  0  0  0  0  0  0  0  0  0
   -2.4504   -0.5796   -0.9752 N   0  0  0  0  0  0  0  0  0  0  0  0
   -2.8953   -1.8523   -0.6862 C   0  0  0  0  0  0  0  0  0  0  0  0
   -4.1865   -2.3889   -0.7558 C   0  0  0  0  0  0  0  0  0  0  0  0
   -4.3509   -3.7316   -0.4023 C   0  0  0  0  0  0  0  0  0  0  0  0
   -3.2662   -4.5055    0.0036 C   0  0  0  0  0  0  0  0  0  0  0  0
   -1.9809   -3.9555    0.0683 C   0  0  0  0  0  0  0  0  0  0  0  0
   -1.7896   -2.6046   -0.2805 C   0  0  0  0  0  0  0  0  0  0  0  0
   -0.2732    0.7559   -0.9473 C   0  0  1  0  0  0  0  0  0  0  0  0
   -0.7712    1.8688   -0.0334 C   0  0  0  0  0  0  0  0  0  0  0  0
   -0.4796    1.8292    1.3472 C   0  0  0  0  0  0  0  0  0  0  0  0
   -0.9293    2.8306    2.2099 C   0  0  0  0  0  0  0  0  0  0  0  0
   -1.6886    3.8815    1.7080 C   0  0  0  0  0  0  0  0  0  0  0  0
   -2.2474    5.1148    2.7693 Cl  0  0  0  0  0  0  0  0  0  0  0  0
   -2.0121    3.9342    0.3558 C   0  0  0  0  0  0  0  0  0  0  0  0
   -1.5625    2.9300   -0.5082 C   0  0  0  0  0  0  0  0  0  0  0  0
   -2.0635    3.0344   -2.1601 Cl  0  0  0  0  0  0  0  0  0  0  0  0
    1.1240    0.3839   -0.6817 N   0  0  0  0  0  0  0  0  0  0  0  0
    2.2018    1.2537   -0.6891 C   0  0  0  0  0  0  0  0  0  0  0  0
    2.1436    2.4675   -0.7979 O   0  0  0  0  0  0  0  0  0  0  0  0
    5.8933    1.7741    1.3281 H   0  0  0  0  0  0  0  0  0  0  0  0
    4.8162    0.4365    1.7739 H   0  0  0  0  0  0  0  0  0  0  0  0
    4.1594    2.0654    1.5663 H   0  0  0  0  0  0  0  0  0  0  0  0
    5.4072    0.3594   -0.6591 H   0  0  0  0  0  0  0  0  0  0  0  0
    4.7463    1.9967   -0.8679 H   0  0  0  0  0  0  0  0  0  0  0  0
    1.5467   -1.2179   -1.9291 H   0  0  0  0  0  0  0  0  0  0  0  0
    0.9632   -1.8739    1.0293 H   0  0  0  0  0  0  0  0  0  0  0  0
    1.0661   -3.0199   -0.3149 H   0  0  0  0  0  0  0  0  0  0  0  0
   -3.0451    0.1763   -1.2889 H   0  0  0  0  0  0  0  0  0  0  0  0
   -5.0345   -1.7905   -1.0722 H   0  0  0  0  0  0  0  0  0  0  0  0
   -5.3420   -4.1778   -0.4457 H   0  0  0  0  0  0  0  0  0  0  0  0
   -3.4176   -5.5478    0.2736 H   0  0  0  0  0  0  0  0  0  0  0  0
   -1.1428   -4.5680    0.3867 H   0  0  0  0  0  0  0  0  0  0  0  0
   -0.2944    1.0492   -2.0015 H   0  0  0  0  0  0  0  0  0  0  0  0
    0.1077    1.0095    1.7583 H   0  0  0  0  0  0  0  0  0  0  0  0
   -0.6830    2.7821    3.2675 H   0  0  0  0  0  0  0  0  0  0  0  0
   -2.6171    4.7533   -0.0243 H   0  0  0  0  0  0  0  0  0  0  0  0
  1  2  1  0
  2  3  1  0
  3  4  1  0
  4  5  2  0
  4  6  1  0
  6  7  1  0
  7  8  1  0
  8  9  2  0
  9 10  1  0
 10 11  1  0
 11 12  2  0
 12 13  1  0
 13 14  2  0
 14 15  1  0
 15 16  2  0
  9 17  1  0
 17 18  1  0
 18 19  1  0
 19 20  2  0
 20 21  1  0
 21 22  1  0
 21 23  2  0
 23 24  1  0
 24 25  1  0
 17 26  1  0
 26 27  1  0
 27 28  2  0
 27  3  1  0
 26  6  1  0
 16  8  1  0
 24 18  2  0
 16 11  1  0
  1 29  1  0
  1 30  1  0
  1 31  1  0
  2 32  1  0
  2 33  1  0
  6 34  1  6
  7 35  1  0
  7 36  1  0
 10 37  1  0
 12 38  1  0
 13 39  1  0
 14 40  1  0
 15 41  1  0
 17 42  1  6
 19 43  1  0
 20 44  1  0
 23 45  1  0
M  END
$$$$
