
     RDKit          3D

 59 62  0  0  0  0  0  0  0  0999 V2000
   -6.0451    0.4237   -2.5420 C   0  0  0  0  0  0  0  0  0  0  0  0
   -5.9703   -0.0325   -1.0738 C   0  0  0  0  0  0  0  0  0  0  0  0
   -7.2830    0.3999   -0.3965 C   0  0  0  0  0  0  0  0  0  0  0  0
   -4.7683    0.5032   -0.3743 N   0  0  0  0  0  0  0  0  0  0  0  0
   -3.5183    0.1158   -1.0553 C   0  0  0  0  0  0  0  0  0  0  0  0
   -2.2772    0.6887   -0.3707 C   0  0  0  0  0  0  0  0  0  0  0  0
   -2.2175    0.2610    1.0949 C   0  0  0  0  0  0  0  0  0  0  0  0
   -1.0994    0.9107    1.8088 N   0  0  0  0  0  0  0  0  0  0  0  0
    0.1635    0.3775    1.4971 C   0  0  0  0  0  0  0  0  0  0  0  0
    0.9269    1.1754    0.7341 N   0  0  0  0  0  0  0  0  0  0  0  0
    2.1251    0.7135    0.3542 C   0  0  0  0  0  0  0  0  0  0  0  0
    2.8594    1.5859   -0.4465 N   0  0  0  0  0  0  0  0  0  0  0  0
    4.1556    1.5617   -0.9710 C   0  0  0  0  0  0  0  0  0  0  0  0
    4.5558    2.6125   -1.8161 C   0  0  0  0  0  0  0  0  0  0  0  0
    5.8236    2.6391   -2.4077 C   0  0  0  0  0  0  0  0  0  0  0  0
    6.7180    1.6000   -2.1775 C   0  0  0  0  0  0  0  0  0  0  0  0
    6.3280    0.5427   -1.3567 C   0  0  0  0  0  0  0  0  0  0  0  0
    7.4392   -0.8057   -1.0663 S   0  0  0  0  0  0  0  0  0  0  0  0
    6.7951   -1.9930   -2.0752 N   0  0  0  0  0  0  0  0  0  0  0  0
    7.2439   -1.2835    0.2827 O   0  0  0  0  0  0  0  0  0  0  0  0
    8.7404   -0.4550   -1.5846 O   0  0  0  0  0  0  0  0  0  0  0  0
    5.0643    0.5235   -0.7516 C   0  0  0  0  0  0  0  0  0  0  0  0
    2.5904   -0.4962    0.6841 N   0  0  0  0  0  0  0  0  0  0  0  0
    1.8463   -1.2668    1.4830 C   0  0  0  0  0  0  0  0  0  0  0  0
    2.3456   -2.5035    1.8766 C   0  0  0  0  0  0  0  0  0  0  0  0
    1.6340   -3.3516    2.7305 C   0  0  0  0  0  0  0  0  0  0  0  0
    0.3943   -2.9586    3.2151 C   0  0  0  0  0  0  0  0  0  0  0  0
   -0.1260   -1.7254    2.8317 C   0  0  0  0  0  0  0  0  0  0  0  0
    0.5896   -0.8773    1.9479 C   0  0  0  0  0  0  0  0  0  0  0  0
   -3.5200    0.6626    1.7818 C   0  0  0  0  0  0  0  0  0  0  0  0
   -4.7286    0.0914    1.0421 C   0  0  0  0  0  0  0  0  0  0  0  0
   -5.2626   -0.0366   -3.1529 H   0  0  0  0  0  0  0  0  0  0  0  0
   -5.9575    1.5127   -2.6252 H   0  0  0  0  0  0  0  0  0  0  0  0
   -6.9990    0.1304   -2.9951 H   0  0  0  0  0  0  0  0  0  0  0  0
   -5.9362   -1.1303   -1.0665 H   0  0  0  0  0  0  0  0  0  0  0  0
   -7.3218    1.4864   -0.2608 H   0  0  0  0  0  0  0  0  0  0  0  0
   -7.4158   -0.0781    0.5789 H   0  0  0  0  0  0  0  0  0  0  0  0
   -8.1499    0.1081   -1.0004 H   0  0  0  0  0  0  0  0  0  0  0  0
   -3.4353   -0.9773   -1.1137 H   0  0  0  0  0  0  0  0  0  0  0  0
   -3.5025    0.5013   -2.0795 H   0  0  0  0  0  0  0  0  0  0  0  0
   -1.3841    0.3463   -0.9069 H   0  0  0  0  0  0  0  0  0  0  0  0
   -2.2870    1.7841   -0.4498 H   0  0  0  0  0  0  0  0  0  0  0  0
   -2.1316   -0.8316    1.1447 H   0  0  0  0  0  0  0  0  0  0  0  0
   -1.0346    1.8817    1.4975 H   0  0  0  0  0  0  0  0  0  0  0  0
    2.3414    2.4477   -0.5427 H   0  0  0  0  0  0  0  0  0  0  0  0
    3.8730    3.4345   -2.0232 H   0  0  0  0  0  0  0  0  0  0  0  0
    6.1069    3.4709   -3.0482 H   0  0  0  0  0  0  0  0  0  0  0  0
    7.7037    1.6193   -2.6376 H   0  0  0  0  0  0  0  0  0  0  0  0
    6.0736   -1.6339   -2.6998 H   0  0  0  0  0  0  0  0  0  0  0  0
    6.4464   -2.7581   -1.4953 H   0  0  0  0  0  0  0  0  0  0  0  0
    4.8091   -0.3090   -0.1026 H   0  0  0  0  0  0  0  0  0  0  0  0
    3.3260   -2.8120    1.5197 H   0  0  0  0  0  0  0  0  0  0  0  0
    2.0601   -4.3076    3.0242 H   0  0  0  0  0  0  0  0  0  0  0  0
   -0.1595   -3.6005    3.8950 H   0  0  0  0  0  0  0  0  0  0  0  0
   -1.0843   -1.4052    3.2349 H   0  0  0  0  0  0  0  0  0  0  0  0
   -3.5226    0.3039    2.8187 H   0  0  0  0  0  0  0  0  0  0  0  0
   -3.6031    1.7569    1.8323 H   0  0  0  0  0  0  0  0  0  0  0  0
   -5.6107    0.4597    1.5753 H   0  0  0  0  0  0  0  0  0  0  0  0
   -4.7276   -1.0034    1.1241 H   0  0  0  0  0  0  0  0  0  0  0  0
  1  2  1  0
  2  3  1  0
  2  4  1  0
  4  5  1  0
  5  6  1  0
  6  7  1  0
  7  8  1  0
  8  9  1  0
  9 10  1  0
 10 11  2  0
 11 12  1  0
 12 13  1  0
 13 14  1  0
 14 15  2  0
 15 16  1  0
 16 17  2  0
 17 18  1  0
 18 19  1  0
 18 20  2  0
 18 21  2  0
 17 22  1  0
 11 23  1  0
 23 24  2  0
 24 25  1  0
 25 26  2  0
 26 27  1  0
 27 28  2  0
 28 29  1  0
  7 30  1  0
 30 31  1  0
 31  4  1  0
 29  9  2  0
 22 13  2  0
 29 24  1  0
  1 32  1  0
  1 33  1  0
  1 34  1  0
  2 35  1  0
  3 36  1  0
  3 37  1  0
  3 38  1  0
  5 39  1  0
  5 40  1  0
  6 41  1  0
  6 42  1  0
  7 43  1  0
  8 44  1  0
 12 45  1  0
 14 46  1  0
 15 47  1  0
 16 48  1  0
 19 49  1  0
 19 50  1  0
 22 51  1  0
 25 52  1  0
 26 53  1  0
 27 54  1  0
 28 55  1  0
 30 56  1  0
 30 57  1  0
 31 58  1  0
 31 59  1  0
M  END
$$$$
