


 32 36  0  0  0  0  0  0  0  0999 V2000
   -1.6819   61.9149   83.4994 C   0  0  0  0  0  0  0  0  0  0  0  0
   -2.3121   60.7320   83.3045 N   0  0  0  0  0  0  0  0  0  0  0  0
   -2.3768   60.2714   82.0473 C   0  0  0  0  0  0  0  0  0  0  0  0
   -3.0105   59.0680   81.9137 O   0  0  0  0  0  0  0  0  0  0  0  0
   -1.8401   60.9844   80.9807 C   0  0  0  0  0  0  0  0  0  0  0  0
   -1.7745   60.7430   79.6317 N   0  0  0  0  0  0  0  0  0  0  0  0
   -1.1339   61.7793   79.1339 C   0  0  0  0  0  0  0  0  0  0  0  0
   -0.7590   62.0516   77.7897 C   0  0  0  0  0  0  0  0  0  0  0  0
   -0.0781   63.1725   77.4990 C   0  0  0  0  0  0  0  0  0  0  0  0
    0.2804   64.1260   78.5309 C   0  0  0  0  0  0  0  0  0  0  0  0
   -0.0859   63.9125   79.8151 C   0  0  0  0  0  0  0  0  0  0  0  0
   -0.7832   62.7190   80.1149 N   0  0  0  0  0  0  0  0  0  0  0  0
   -1.2362   62.1886   81.3123 C   0  0  0  0  0  0  0  0  0  0  0  0
   -1.1242   62.7019   82.5532 N   0  0  0  0  0  0  0  0  0  0  0  0
   -3.2416   58.8855   82.8400 H   0  0  0  0  0  0  0  0  0  0  0  0
   -0.6342   63.2390   85.3706 C   0  0  0  0  0  0  0  0  0  0  0  0
   -0.6744   63.7459   86.6755 C   0  0  0  0  0  0  0  0  0  0  0  0
   -1.7446   63.4365   87.5130 C   0  0  0  0  0  0  0  0  0  0  0  0
   -2.7824   62.6363   87.0443 C   0  0  0  0  0  0  0  0  0  0  0  0
   -2.7504   62.1506   85.7344 C   0  0  0  0  0  0  0  0  0  0  0  0
   -1.6791   62.4450   84.8677 C   0  0  0  0  0  0  0  0  0  0  0  0
    0.3981   63.6093   84.5433 O   0  0  0  0  0  0  0  0  0  0  0  0
    2.0310   65.3478   84.6085 C   0  0  0  0  0  0  0  0  0  0  0  0
    0.5493   65.0331   84.5129 C   0  0  0  0  0  0  0  0  0  0  0  0
    0.2875   64.8868   80.9064 C   0  0  0  0  0  0  0  0  0  0  0  0
    0.6588   66.2181   80.4146 N   0  0  0  0  0  0  0  0  0  0  0  0
   -0.5100   67.1206   80.4685 C   0  0  0  0  0  0  0  0  0  0  0  0
   -0.1009   68.5956   80.2893 C   0  0  0  0  0  0  0  0  0  0  0  0
    0.7298   69.0934   81.4057 N   0  0  0  0  0  0  0  0  0  0  0  0
    1.5798   70.1931   80.9577 C   0  0  0  0  0  0  0  0  0  0  0  0
    1.5148   68.0064   82.0214 C   0  0  0  0  0  0  0  0  0  0  0  0
    1.8296   66.8130   81.0881 C   0  0  0  0  0  0  0  0  0  0  0  0
 23 24  1  0  0  0
 24 22  1  0  0  0
 22 16  1  0  0  0
 16 17  2  0  0  0
 17 18  1  0  0  0
 18 19  2  0  0  0
 19 20  1  0  0  0
 20 21  2  0  0  0
 21  1  1  0  0  0
  1  2  2  0  0  0
  2  3  1  0  0  0
  3  4  1  0  0  0
  3  5  2  0  0  0
  5  6  1  0  0  0
  6  7  2  0  0  0
  7  8  1  0  0  0
  8  9  2  0  0  0
  9 10  1  0  0  0
 10 11  2  0  0  0
 11 25  1  0  0  0
 25 26  1  0  0  0
 26 27  1  0  0  0
 27 28  1  0  0  0
 28 29  1  0  0  0
 29 30  1  0  0  0
 29 31  1  0  0  0
 31 32  1  0  0  0
 11 12  1  0  0  0
 12 13  1  0  0  0
 13 14  2  0  0  0
 21 16  1  0  0  0
 14  1  1  0  0  0
 13  5  1  0  0  0
 12  7  1  0  0  0
 32 26  1  0  0  0
  4 15  1  0  0  0
M  END
> <minimizedAffinity>
-10.49919

$$$$



 32 36  0  0  0  0  0  0  0  0999 V2000
   -0.9679   62.3196   83.2379 C   0  0  0  0  0  0  0  0  0  0  0  0
   -1.9471   61.4937   83.6775 N   0  0  0  0  0  0  0  0  0  0  0  0
   -2.5706   60.7395   82.7612 C   0  0  0  0  0  0  0  0  0  0  0  0
   -3.5381   59.9159   83.2643 O   0  0  0  0  0  0  0  0  0  0  0  0
   -2.2447   60.8136   81.4113 C   0  0  0  0  0  0  0  0  0  0  0  0
   -2.7183   60.1682   80.2970 N   0  0  0  0  0  0  0  0  0  0  0  0
   -2.0096   60.6526   79.2994 C   0  0  0  0  0  0  0  0  0  0  0  0
   -2.0533   60.3272   77.9160 C   0  0  0  0  0  0  0  0  0  0  0  0
   -1.2131   60.9315   77.0596 C   0  0  0  0  0  0  0  0  0  0  0  0
   -0.2584   61.9238   77.5139 C   0  0  0  0  0  0  0  0  0  0  0  0
   -0.2100   62.2782   78.8180 C   0  0  0  0  0  0  0  0  0  0  0  0
   -1.0834   61.6207   79.7155 N   0  0  0  0  0  0  0  0  0  0  0  0
   -1.2358   61.7102   81.0900 C   0  0  0  0  0  0  0  0  0  0  0  0
   -0.5602   62.4858   81.9605 N   0  0  0  0  0  0  0  0  0  0  0  0
   -3.4822   60.1336   84.2100 H   0  0  0  0  0  0  0  0  0  0  0  0
   -0.3162   62.8802   85.6072 C   0  0  0  0  0  0  0  0  0  0  0  0
    0.3097   63.7266   86.5308 C   0  0  0  0  0  0  0  0  0  0  0  0
    0.8902   64.9197   86.1042 C   0  0  0  0  0  0  0  0  0  0  0  0
    0.8618   65.2604   84.7551 C   0  0  0  0  0  0  0  0  0  0  0  0
    0.2564   64.4029   83.8327 C   0  0  0  0  0  0  0  0  0  0  0  0
   -0.3411   63.1925   84.2372 C   0  0  0  0  0  0  0  0  0  0  0  0
   -0.8250   61.6802   86.0411 O   0  0  0  0  0  0  0  0  0  0  0  0
   -2.7903   62.5110   87.1089 C   0  0  0  0  0  0  0  0  0  0  0  0
   -1.4557   61.8194   87.3192 C   0  0  0  0  0  0  0  0  0  0  0  0
    0.7844   63.3006   79.3135 C   0  0  0  0  0  0  0  0  0  0  0  0
    0.3509   64.6901   79.1308 N   0  0  0  0  0  0  0  0  0  0  0  0
   -0.3891   65.1494   80.3246 C   0  0  0  0  0  0  0  0  0  0  0  0
   -0.5690   66.6800   80.3306 C   0  0  0  0  0  0  0  0  0  0  0  0
    0.7142   67.4014   80.4618 N   0  0  0  0  0  0  0  0  0  0  0  0
    0.6143   68.7314   79.8672 C   0  0  0  0  0  0  0  0  0  0  0  0
    1.8312   66.6252   79.8903 C   0  0  0  0  0  0  0  0  0  0  0  0
    1.4354   65.6264   78.7767 C   0  0  0  0  0  0  0  0  0  0  0  0
 23 24  1  0  0  0
 24 22  1  0  0  0
 22 16  1  0  0  0
 16 17  2  0  0  0
 17 18  1  0  0  0
 18 19  2  0  0  0
 19 20  1  0  0  0
 20 21  2  0  0  0
 21  1  1  0  0  0
  1  2  2  0  0  0
  2  3  1  0  0  0
  3  4  1  0  0  0
  3  5  2  0  0  0
  5  6  1  0  0  0
  6  7  2  0  0  0
  7  8  1  0  0  0
  8  9  2  0  0  0
  9 10  1  0  0  0
 10 11  2  0  0  0
 11 25  1  0  0  0
 25 26  1  0  0  0
 26 27  1  0  0  0
 27 28  1  0  0  0
 28 29  1  0  0  0
 29 30  1  0  0  0
 29 31  1  0  0  0
 31 32  1  0  0  0
 11 12  1  0  0  0
 12 13  1  0  0  0
 13 14  2  0  0  0
 21 16  1  0  0  0
 14  1  1  0  0  0
 13  5  1  0  0  0
 12  7  1  0  0  0
 32 26  1  0  0  0
  4 15  1  0  0  0
M  END
> <minimizedAffinity>
-10.46164

$$$$



 32 36  0  0  0  0  0  0  0  0999 V2000
   -2.1833   61.9944   80.8167 C   0  0  0  0  0  0  0  0  0  0  0  0
   -2.8514   60.9811   81.4176 N   0  0  0  0  0  0  0  0  0  0  0  0
   -2.7323   60.8719   82.7483 C   0  0  0  0  0  0  0  0  0  0  0  0
   -3.4396   59.8413   83.3007 O   0  0  0  0  0  0  0  0  0  0  0  0
   -1.9399   61.7465   83.4839 C   0  0  0  0  0  0  0  0  0  0  0  0
   -1.6534   61.8505   84.8216 N   0  0  0  0  0  0  0  0  0  0  0  0
   -0.8481   62.8872   84.9150 C   0  0  0  0  0  0  0  0  0  0  0  0
   -0.2550   63.4721   86.0673 C   0  0  0  0  0  0  0  0  0  0  0  0
    0.5265   64.5572   85.9400 C   0  0  0  0  0  0  0  0  0  0  0  0
    0.7902   65.1483   84.6424 C   0  0  0  0  0  0  0  0  0  0  0  0
    0.2659   64.6001   83.5229 C   0  0  0  0  0  0  0  0  0  0  0  0
   -0.5733   63.4710   83.6692 N   0  0  0  0  0  0  0  0  0  0  0  0
   -1.2957   62.7301   82.7474 C   0  0  0  0  0  0  0  0  0  0  0  0
   -1.3831   62.9046   81.4141 N   0  0  0  0  0  0  0  0  0  0  0  0
   -3.8546   59.4652   82.5063 H   0  0  0  0  0  0  0  0  0  0  0  0
   -1.1427   62.3243   78.5450 C   0  0  0  0  0  0  0  0  0  0  0  0
   -1.2505   62.3609   77.1492 C   0  0  0  0  0  0  0  0  0  0  0  0
   -2.4890   62.1722   76.5385 C   0  0  0  0  0  0  0  0  0  0  0  0
   -3.6162   61.9301   77.3181 C   0  0  0  0  0  0  0  0  0  0  0  0
   -3.5014   61.8717   78.7095 C   0  0  0  0  0  0  0  0  0  0  0  0
   -2.2623   62.0623   79.3530 C   0  0  0  0  0  0  0  0  0  0  0  0
    0.0981   62.4494   79.1211 O   0  0  0  0  0  0  0  0  0  0  0  0
    0.9963   64.5921   78.5780 C   0  0  0  0  0  0  0  0  0  0  0  0
    1.0115   63.1126   78.2397 C   0  0  0  0  0  0  0  0  0  0  0  0
    0.5187   65.2068   82.1636 C   0  0  0  0  0  0  0  0  0  0  0  0
    0.7846   66.6491   82.1954 N   0  0  0  0  0  0  0  0  0  0  0  0
    2.2341   66.8923   82.3485 C   0  0  0  0  0  0  0  0  0  0  0  0
    2.6014   68.3590   82.0503 C   0  0  0  0  0  0  0  0  0  0  0  0
    2.3707   68.7254   80.6372 N   0  0  0  0  0  0  0  0  0  0  0  0
    2.1256   70.1599   80.5160 C   0  0  0  0  0  0  0  0  0  0  0  0
    1.2802   67.9283   80.0435 C   0  0  0  0  0  0  0  0  0  0  0  0
    0.2315   67.3973   81.0498 C   0  0  0  0  0  0  0  0  0  0  0  0
 23 24  1  0  0  0
 24 22  1  0  0  0
 22 16  1  0  0  0
 16 17  2  0  0  0
 17 18  1  0  0  0
 18 19  2  0  0  0
 19 20  1  0  0  0
 20 21  2  0  0  0
 21  1  1  0  0  0
  1  2  2  0  0  0
  2  3  1  0  0  0
  3  4  1  0  0  0
  3  5  2  0  0  0
  5  6  1  0  0  0
  6  7  2  0  0  0
  7  8  1  0  0  0
  8  9  2  0  0  0
  9 10  1  0  0  0
 10 11  2  0  0  0
 11 25  1  0  0  0
 25 26  1  0  0  0
 26 27  1  0  0  0
 27 28  1  0  0  0
 28 29  1  0  0  0
 29 30  1  0  0  0
 29 31  1  0  0  0
 31 32  1  0  0  0
 11 12  1  0  0  0
 12 13  1  0  0  0
 13 14  2  0  0  0
 21 16  1  0  0  0
 14  1  1  0  0  0
 13  5  1  0  0  0
 12  7  1  0  0  0
 32 26  1  0  0  0
  4 15  1  0  0  0
M  END
> <minimizedAffinity>
-10.35099

$$$$



 32 36  0  0  0  0  0  0  0  0999 V2000
   -1.1779   61.8830   81.4222 C   0  0  0  0  0  0  0  0  0  0  0  0
   -2.1723   61.0159   81.7283 N   0  0  0  0  0  0  0  0  0  0  0  0
   -2.5588   60.9537   83.0103 C   0  0  0  0  0  0  0  0  0  0  0  0
   -3.5746   60.0733   83.2568 O   0  0  0  0  0  0  0  0  0  0  0  0
   -1.9531   61.7289   83.9933 C   0  0  0  0  0  0  0  0  0  0  0  0
   -2.1538   61.8514   85.3449 N   0  0  0  0  0  0  0  0  0  0  0  0
   -1.2790   62.7536   85.7359 C   0  0  0  0  0  0  0  0  0  0  0  0
   -1.0533   63.2940   87.0315 C   0  0  0  0  0  0  0  0  0  0  0  0
   -0.1133   64.2372   87.2087 C   0  0  0  0  0  0  0  0  0  0  0  0
    0.6914   64.7169   86.1019 C   0  0  0  0  0  0  0  0  0  0  0  0
    0.5230   64.2035   84.8622 C   0  0  0  0  0  0  0  0  0  0  0  0
   -0.4840   63.2270   84.6813 N   0  0  0  0  0  0  0  0  0  0  0  0
   -0.9368   62.5639   83.5518 C   0  0  0  0  0  0  0  0  0  0  0  0
   -0.5095   62.6854   82.2796 N   0  0  0  0  0  0  0  0  0  0  0  0
   -3.7315   59.7285   82.3616 H   0  0  0  0  0  0  0  0  0  0  0  0
   -1.2387   61.0319   79.0507 C   0  0  0  0  0  0  0  0  0  0  0  0
   -0.7864   61.0821   77.7262 C   0  0  0  0  0  0  0  0  0  0  0  0
    0.2267   61.9692   77.3666 C   0  0  0  0  0  0  0  0  0  0  0  0
    0.7764   62.8177   78.3231 C   0  0  0  0  0  0  0  0  0  0  0  0
    0.3071   62.7811   79.6388 C   0  0  0  0  0  0  0  0  0  0  0  0
   -0.7134   61.8917   80.0303 C   0  0  0  0  0  0  0  0  0  0  0  0
   -2.2813   60.1954   79.3676 O   0  0  0  0  0  0  0  0  0  0  0  0
   -4.0541   61.6963   78.8224 C   0  0  0  0  0  0  0  0  0  0  0  0
   -3.3825   60.3813   78.4712 C   0  0  0  0  0  0  0  0  0  0  0  0
    1.3423   64.6975   83.6942 C   0  0  0  0  0  0  0  0  0  0  0  0
    0.9045   65.9941   83.1657 N   0  0  0  0  0  0  0  0  0  0  0  0
    1.9274   67.0239   83.4431 C   0  0  0  0  0  0  0  0  0  0  0  0
    1.6810   68.3075   82.6266 C   0  0  0  0  0  0  0  0  0  0  0  0
    1.8390   68.0940   81.1727 N   0  0  0  0  0  0  0  0  0  0  0  0
    1.0417   69.0628   80.4256 C   0  0  0  0  0  0  0  0  0  0  0  0
    1.5165   66.7053   80.7925 C   0  0  0  0  0  0  0  0  0  0  0  0
    0.5316   65.9769   81.7379 C   0  0  0  0  0  0  0  0  0  0  0  0
 23 24  1  0  0  0
 24 22  1  0  0  0
 22 16  1  0  0  0
 16 17  2  0  0  0
 17 18  1  0  0  0
 18 19  2  0  0  0
 19 20  1  0  0  0
 20 21  2  0  0  0
 21  1  1  0  0  0
  1  2  2  0  0  0
  2  3  1  0  0  0
  3  4  1  0  0  0
  3  5  2  0  0  0
  5  6  1  0  0  0
  6  7  2  0  0  0
  7  8  1  0  0  0
  8  9  2  0  0  0
  9 10  1  0  0  0
 10 11  2  0  0  0
 11 25  1  0  0  0
 25 26  1  0  0  0
 26 27  1  0  0  0
 27 28  1  0  0  0
 28 29  1  0  0  0
 29 30  1  0  0  0
 29 31  1  0  0  0
 31 32  1  0  0  0
 11 12  1  0  0  0
 12 13  1  0  0  0
 13 14  2  0  0  0
 21 16  1  0  0  0
 14  1  1  0  0  0
 13  5  1  0  0  0
 12  7  1  0  0  0
 32 26  1  0  0  0
  4 15  1  0  0  0
M  END
> <minimizedAffinity>
-10.12297

$$$$



 32 36  0  0  0  0  0  0  0  0999 V2000
    0.3067   64.6931   83.3435 C   0  0  0  0  0  0  0  0  0  0  0  0
   -0.2724   64.1080   82.2681 N   0  0  0  0  0  0  0  0  0  0  0  0
   -0.1196   64.7155   81.0829 C   0  0  0  0  0  0  0  0  0  0  0  0
   -0.7124   64.0724   80.0328 O   0  0  0  0  0  0  0  0  0  0  0  0
    0.5848   65.9082   80.9600 C   0  0  0  0  0  0  0  0  0  0  0  0
    0.8800   66.7153   79.8905 N   0  0  0  0  0  0  0  0  0  0  0  0
    1.5880   67.7021   80.3973 C   0  0  0  0  0  0  0  0  0  0  0  0
    2.1833   68.8170   79.7459 C   0  0  0  0  0  0  0  0  0  0  0  0
    2.8952   69.7063   80.4578 C   0  0  0  0  0  0  0  0  0  0  0  0
    3.0664   69.5611   81.8904 C   0  0  0  0  0  0  0  0  0  0  0  0
    2.4893   68.5287   82.5461 C   0  0  0  0  0  0  0  0  0  0  0  0
    1.7602   67.5857   81.7848 N   0  0  0  0  0  0  0  0  0  0  0  0
    1.1148   66.4117   82.1392 C   0  0  0  0  0  0  0  0  0  0  0  0
    1.0109   65.8462   83.3579 N   0  0  0  0  0  0  0  0  0  0  0  0
   -1.0959   63.3044   80.4888 H   0  0  0  0  0  0  0  0  0  0  0  0
   -0.6367   62.8552   84.7872 C   0  0  0  0  0  0  0  0  0  0  0  0
   -0.8224   62.2675   86.0447 C   0  0  0  0  0  0  0  0  0  0  0  0
   -0.3316   62.8944   87.1887 C   0  0  0  0  0  0  0  0  0  0  0  0
    0.3586   64.0978   87.0772 C   0  0  0  0  0  0  0  0  0  0  0  0
    0.5619   64.6702   85.8188 C   0  0  0  0  0  0  0  0  0  0  0  0
    0.0736   64.0596   84.6464 C   0  0  0  0  0  0  0  0  0  0  0  0
   -1.0731   62.1876   83.6686 O   0  0  0  0  0  0  0  0  0  0  0  0
   -2.7245   60.7478   82.7237 C   0  0  0  0  0  0  0  0  0  0  0  0
   -2.4271   61.7483   83.8257 C   0  0  0  0  0  0  0  0  0  0  0  0
    2.6649   68.3529   84.0353 C   0  0  0  0  0  0  0  0  0  0  0  0
    4.0159   67.9401   84.4309 N   0  0  0  0  0  0  0  0  0  0  0  0
    4.2925   68.3770   85.8152 C   0  0  0  0  0  0  0  0  0  0  0  0
    5.5438   67.6867   86.3922 C   0  0  0  0  0  0  0  0  0  0  0  0
    5.3632   66.2290   86.5550 N   0  0  0  0  0  0  0  0  0  0  0  0
    6.6524   65.5457   86.4949 C   0  0  0  0  0  0  0  0  0  0  0  0
    4.4076   65.6896   85.5686 C   0  0  0  0  0  0  0  0  0  0  0  0
    4.2901   66.5005   84.2560 C   0  0  0  0  0  0  0  0  0  0  0  0
 23 24  1  0  0  0
 24 22  1  0  0  0
 22 16  1  0  0  0
 16 17  2  0  0  0
 17 18  1  0  0  0
 18 19  2  0  0  0
 19 20  1  0  0  0
 20 21  2  0  0  0
 21  1  1  0  0  0
  1  2  2  0  0  0
  2  3  1  0  0  0
  3  4  1  0  0  0
  3  5  2  0  0  0
  5  6  1  0  0  0
  6  7  2  0  0  0
  7  8  1  0  0  0
  8  9  2  0  0  0
  9 10  1  0  0  0
 10 11  2  0  0  0
 11 25  1  0  0  0
 25 26  1  0  0  0
 26 27  1  0  0  0
 27 28  1  0  0  0
 28 29  1  0  0  0
 29 30  1  0  0  0
 29 31  1  0  0  0
 31 32  1  0  0  0
 11 12  1  0  0  0
 12 13  1  0  0  0
 13 14  2  0  0  0
 21 16  1  0  0  0
 14  1  1  0  0  0
 13  5  1  0  0  0
 12  7  1  0  0  0
 32 26  1  0  0  0
  4 15  1  0  0  0
M  END
> <minimizedAffinity>
-9.88291

$$$$



 32 36  0  0  0  0  0  0  0  0999 V2000
   -1.2421   62.2359   81.4036 C   0  0  0  0  0  0  0  0  0  0  0  0
   -2.1988   61.3095   81.6504 N   0  0  0  0  0  0  0  0  0  0  0  0
   -2.5475   61.1139   82.9299 C   0  0  0  0  0  0  0  0  0  0  0  0
   -3.5268   60.1791   83.1166 O   0  0  0  0  0  0  0  0  0  0  0  0
   -1.9406   61.8144   83.9666 C   0  0  0  0  0  0  0  0  0  0  0  0
   -2.1079   61.8026   85.3283 N   0  0  0  0  0  0  0  0  0  0  0  0
   -1.2526   62.6944   85.7814 C   0  0  0  0  0  0  0  0  0  0  0  0
   -1.0091   63.1186   87.1165 C   0  0  0  0  0  0  0  0  0  0  0  0
   -0.0959   64.0735   87.3591 C   0  0  0  0  0  0  0  0  0  0  0  0
    0.6619   64.6828   86.2834 C   0  0  0  0  0  0  0  0  0  0  0  0
    0.4762   64.2823   85.0052 C   0  0  0  0  0  0  0  0  0  0  0  0
   -0.5029   63.2921   84.7573 N   0  0  0  0  0  0  0  0  0  0  0  0
   -0.9647   62.7223   83.5815 C   0  0  0  0  0  0  0  0  0  0  0  0
   -0.5770   62.9775   82.3164 N   0  0  0  0  0  0  0  0  0  0  0  0
   -3.6969   59.9144   82.1969 H   0  0  0  0  0  0  0  0  0  0  0  0
   -0.4853   63.6385   79.4510 C   0  0  0  0  0  0  0  0  0  0  0  0
   -0.0627   63.7473   78.1204 C   0  0  0  0  0  0  0  0  0  0  0  0
    0.0007   62.6137   77.3120 C   0  0  0  0  0  0  0  0  0  0  0  0
   -0.3407   61.3700   77.8349 C   0  0  0  0  0  0  0  0  0  0  0  0
   -0.7404   61.2613   79.1695 C   0  0  0  0  0  0  0  0  0  0  0  0
   -0.8167   62.3914   80.0079 C   0  0  0  0  0  0  0  0  0  0  0  0
   -0.4787   64.7587   80.2462 O   0  0  0  0  0  0  0  0  0  0  0  0
   -0.7546   67.0945   79.8447 C   0  0  0  0  0  0  0  0  0  0  0  0
    0.1020   65.8741   79.5609 C   0  0  0  0  0  0  0  0  0  0  0  0
    1.2464   64.9120   83.8694 C   0  0  0  0  0  0  0  0  0  0  0  0
    1.5402   66.3357   84.0665 N   0  0  0  0  0  0  0  0  0  0  0  0
    2.9627   66.5129   84.4252 C   0  0  0  0  0  0  0  0  0  0  0  0
    3.4007   67.9861   84.3115 C   0  0  0  0  0  0  0  0  0  0  0  0
    3.3654   68.4826   82.9199 N   0  0  0  0  0  0  0  0  0  0  0  0
    3.1725   69.9299   82.8998 C   0  0  0  0  0  0  0  0  0  0  0  0
    2.3430   67.7796   82.1214 C   0  0  0  0  0  0  0  0  0  0  0  0
    1.1595   67.2002   82.9325 C   0  0  0  0  0  0  0  0  0  0  0  0
 23 24  1  0  0  0
 24 22  1  0  0  0
 22 16  1  0  0  0
 16 17  2  0  0  0
 17 18  1  0  0  0
 18 19  2  0  0  0
 19 20  1  0  0  0
 20 21  2  0  0  0
 21  1  1  0  0  0
  1  2  2  0  0  0
  2  3  1  0  0  0
  3  4  1  0  0  0
  3  5  2  0  0  0
  5  6  1  0  0  0
  6  7  2  0  0  0
  7  8  1  0  0  0
  8  9  2  0  0  0
  9 10  1  0  0  0
 10 11  2  0  0  0
 11 25  1  0  0  0
 25 26  1  0  0  0
 26 27  1  0  0  0
 27 28  1  0  0  0
 28 29  1  0  0  0
 29 30  1  0  0  0
 29 31  1  0  0  0
 31 32  1  0  0  0
 11 12  1  0  0  0
 12 13  1  0  0  0
 13 14  2  0  0  0
 21 16  1  0  0  0
 14  1  1  0  0  0
 13  5  1  0  0  0
 12  7  1  0  0  0
 32 26  1  0  0  0
  4 15  1  0  0  0
M  END
> <minimizedAffinity>
-9.85703

$$$$



 32 36  0  0  0  0  0  0  0  0999 V2000
    0.6968   66.5054   80.9292 C   0  0  0  0  0  0  0  0  0  0  0  0
    0.9659   66.4064   79.6055 N   0  0  0  0  0  0  0  0  0  0  0  0
    0.6753   65.2432   79.0059 C   0  0  0  0  0  0  0  0  0  0  0  0
    0.9543   65.2066   77.6686 O   0  0  0  0  0  0  0  0  0  0  0  0
    0.1399   64.1719   79.7128 C   0  0  0  0  0  0  0  0  0  0  0  0
   -0.2376   62.9044   79.3477 N   0  0  0  0  0  0  0  0  0  0  0  0
   -0.6841   62.3526   80.4560 C   0  0  0  0  0  0  0  0  0  0  0  0
   -1.2275   61.0557   80.6665 C   0  0  0  0  0  0  0  0  0  0  0  0
   -1.6521   60.6986   81.8899 C   0  0  0  0  0  0  0  0  0  0  0  0
   -1.5613   61.6089   83.0150 C   0  0  0  0  0  0  0  0  0  0  0  0
   -1.0230   62.8393   82.8563 C   0  0  0  0  0  0  0  0  0  0  0  0
   -0.5990   63.2142   81.5600 N   0  0  0  0  0  0  0  0  0  0  0  0
   -0.0732   64.3969   81.0652 C   0  0  0  0  0  0  0  0  0  0  0  0
    0.1824   65.5431   81.7261 N   0  0  0  0  0  0  0  0  0  0  0  0
    1.3042   66.1038   77.5359 H   0  0  0  0  0  0  0  0  0  0  0  0
    2.0905   67.8155   82.5704 C   0  0  0  0  0  0  0  0  0  0  0  0
    2.4495   69.0308   83.1664 C   0  0  0  0  0  0  0  0  0  0  0  0
    1.7819   70.2039   82.8190 C   0  0  0  0  0  0  0  0  0  0  0  0
    0.7688   70.1682   81.8654 C   0  0  0  0  0  0  0  0  0  0  0  0
    0.4282   68.9577   81.2560 C   0  0  0  0  0  0  0  0  0  0  0  0
    1.0843   67.7564   81.5910 C   0  0  0  0  0  0  0  0  0  0  0  0
    2.8048   66.6840   82.8814 O   0  0  0  0  0  0  0  0  0  0  0  0
    4.5346   66.3054   84.4807 C   0  0  0  0  0  0  0  0  0  0  0  0
    3.0592   66.6052   84.2885 C   0  0  0  0  0  0  0  0  0  0  0  0
   -0.9300   63.8064   84.0119 C   0  0  0  0  0  0  0  0  0  0  0  0
   -0.2124   63.2758   85.1762 N   0  0  0  0  0  0  0  0  0  0  0  0
    0.6511   64.3243   85.7582 C   0  0  0  0  0  0  0  0  0  0  0  0
    1.1585   63.9327   87.1597 C   0  0  0  0  0  0  0  0  0  0  0  0
    0.0677   63.8398   88.1525 N   0  0  0  0  0  0  0  0  0  0  0  0
    0.4324   62.9196   89.2261 C   0  0  0  0  0  0  0  0  0  0  0  0
   -1.2105   63.4659   87.5172 C   0  0  0  0  0  0  0  0  0  0  0  0
   -1.0800   62.6630   86.2009 C   0  0  0  0  0  0  0  0  0  0  0  0
 23 24  1  0  0  0
 24 22  1  0  0  0
 22 16  1  0  0  0
 16 17  2  0  0  0
 17 18  1  0  0  0
 18 19  2  0  0  0
 19 20  1  0  0  0
 20 21  2  0  0  0
 21  1  1  0  0  0
  1  2  2  0  0  0
  2  3  1  0  0  0
  3  4  1  0  0  0
  3  5  2  0  0  0
  5  6  1  0  0  0
  6  7  2  0  0  0
  7  8  1  0  0  0
  8  9  2  0  0  0
  9 10  1  0  0  0
 10 11  2  0  0  0
 11 25  1  0  0  0
 25 26  1  0  0  0
 26 27  1  0  0  0
 27 28  1  0  0  0
 28 29  1  0  0  0
 29 30  1  0  0  0
 29 31  1  0  0  0
 31 32  1  0  0  0
 11 12  1  0  0  0
 12 13  1  0  0  0
 13 14  2  0  0  0
 21 16  1  0  0  0
 14  1  1  0  0  0
 13  5  1  0  0  0
 12  7  1  0  0  0
 32 26  1  0  0  0
  4 15  1  0  0  0
M  END
> <minimizedAffinity>
-9.76347

$$$$



 32 36  0  0  0  0  0  0  0  0999 V2000
    0.5409   65.1808   82.6627 C   0  0  0  0  0  0  0  0  0  0  0  0
    0.0416   64.8119   81.4589 N   0  0  0  0  0  0  0  0  0  0  0  0
    0.3163   65.6033   80.4124 C   0  0  0  0  0  0  0  0  0  0  0  0
   -0.2005   65.1736   79.2224 O   0  0  0  0  0  0  0  0  0  0  0  0
    1.0639   66.7673   80.5545 C   0  0  0  0  0  0  0  0  0  0  0  0
    1.4760   67.7294   79.6675 N   0  0  0  0  0  0  0  0  0  0  0  0
    2.1655   68.5843   80.3927 C   0  0  0  0  0  0  0  0  0  0  0  0
    2.8488   69.7656   79.9935 C   0  0  0  0  0  0  0  0  0  0  0  0
    3.5212   70.4895   80.9036 C   0  0  0  0  0  0  0  0  0  0  0  0
    3.5611   70.0972   82.2990 C   0  0  0  0  0  0  0  0  0  0  0  0
    2.8981   68.9955   82.7180 C   0  0  0  0  0  0  0  0  0  0  0  0
    2.2113   68.2277   81.7488 N   0  0  0  0  0  0  0  0  0  0  0  0
    1.5025   67.0405   81.8421 C   0  0  0  0  0  0  0  0  0  0  0  0
    1.2749   66.2825   82.9327 N   0  0  0  0  0  0  0  0  0  0  0  0
   -0.6453   64.3575   79.5067 H   0  0  0  0  0  0  0  0  0  0  0  0
   -0.5026   63.1237   83.6785 C   0  0  0  0  0  0  0  0  0  0  0  0
   -0.8174   62.3435   84.7980 C   0  0  0  0  0  0  0  0  0  0  0  0
   -0.4918   62.7922   86.0768 C   0  0  0  0  0  0  0  0  0  0  0  0
    0.1625   64.0098   86.2381 C   0  0  0  0  0  0  0  0  0  0  0  0
    0.4955   64.7755   85.1175 C   0  0  0  0  0  0  0  0  0  0  0  0
    0.1751   64.3474   83.8137 C   0  0  0  0  0  0  0  0  0  0  0  0
   -0.7759   62.6319   82.4252 O   0  0  0  0  0  0  0  0  0  0  0  0
    0.8425   61.3235   81.2583 C   0  0  0  0  0  0  0  0  0  0  0  0
   -0.2825   61.2957   82.2767 C   0  0  0  0  0  0  0  0  0  0  0  0
    2.9365   68.5632   84.1640 C   0  0  0  0  0  0  0  0  0  0  0  0
    4.2338   68.0276   84.5912 N   0  0  0  0  0  0  0  0  0  0  0  0
    4.4724   68.3553   86.0122 C   0  0  0  0  0  0  0  0  0  0  0  0
    5.6417   67.5396   86.5973 C   0  0  0  0  0  0  0  0  0  0  0  0
    5.3503   66.0919   86.6554 N   0  0  0  0  0  0  0  0  0  0  0  0
    6.5891   65.3202   86.6077 C   0  0  0  0  0  0  0  0  0  0  0  0
    4.4084   65.6875   85.5942 C   0  0  0  0  0  0  0  0  0  0  0  0
    4.4133   66.5854   84.3340 C   0  0  0  0  0  0  0  0  0  0  0  0
 23 24  1  0  0  0
 24 22  1  0  0  0
 22 16  1  0  0  0
 16 17  2  0  0  0
 17 18  1  0  0  0
 18 19  2  0  0  0
 19 20  1  0  0  0
 20 21  2  0  0  0
 21  1  1  0  0  0
  1  2  2  0  0  0
  2  3  1  0  0  0
  3  4  1  0  0  0
  3  5  2  0  0  0
  5  6  1  0  0  0
  6  7  2  0  0  0
  7  8  1  0  0  0
  8  9  2  0  0  0
  9 10  1  0  0  0
 10 11  2  0  0  0
 11 25  1  0  0  0
 25 26  1  0  0  0
 26 27  1  0  0  0
 27 28  1  0  0  0
 28 29  1  0  0  0
 29 30  1  0  0  0
 29 31  1  0  0  0
 31 32  1  0  0  0
 11 12  1  0  0  0
 12 13  1  0  0  0
 13 14  2  0  0  0
 21 16  1  0  0  0
 14  1  1  0  0  0
 13  5  1  0  0  0
 12  7  1  0  0  0
 32 26  1  0  0  0
  4 15  1  0  0  0
M  END
> <minimizedAffinity>
-9.75154

$$$$



 32 36  0  0  0  0  0  0  0  0999 V2000
    1.2077   68.4882   80.9741 C   0  0  0  0  0  0  0  0  0  0  0  0
    0.5333   68.1301   79.8555 N   0  0  0  0  0  0  0  0  0  0  0  0
   -0.1038   66.9508   79.8746 C   0  0  0  0  0  0  0  0  0  0  0  0
   -0.7786   66.6495   78.7250 O   0  0  0  0  0  0  0  0  0  0  0  0
   -0.0598   66.1158   80.9858 C   0  0  0  0  0  0  0  0  0  0  0  0
   -0.6092   64.8882   81.2567 N   0  0  0  0  0  0  0  0  0  0  0  0
   -0.2230   64.6087   82.4835 C   0  0  0  0  0  0  0  0  0  0  0  0
   -0.5173   63.4746   83.2890 C   0  0  0  0  0  0  0  0  0  0  0  0
   -0.0348   63.3993   84.5404 C   0  0  0  0  0  0  0  0  0  0  0  0
    0.7945   64.4526   85.0933 C   0  0  0  0  0  0  0  0  0  0  0  0
    1.1179   65.5313   84.3445 C   0  0  0  0  0  0  0  0  0  0  0  0
    0.5871   65.6120   83.0360 N   0  0  0  0  0  0  0  0  0  0  0  0
    0.6782   66.5916   82.0600 C   0  0  0  0  0  0  0  0  0  0  0  0
    1.3292   67.7703   82.1122 N   0  0  0  0  0  0  0  0  0  0  0  0
   -0.5860   67.4404   78.1938 H   0  0  0  0  0  0  0  0  0  0  0  0
    1.3874   70.9876   81.2446 C   0  0  0  0  0  0  0  0  0  0  0  0
    2.1416   72.1667   81.2003 C   0  0  0  0  0  0  0  0  0  0  0  0
    3.4738   72.1296   80.7925 C   0  0  0  0  0  0  0  0  0  0  0  0
    4.0586   70.9153   80.4455 C   0  0  0  0  0  0  0  0  0  0  0  0
    3.3099   69.7373   80.5125 C   0  0  0  0  0  0  0  0  0  0  0  0
    1.9604   69.7466   80.9180 C   0  0  0  0  0  0  0  0  0  0  0  0
    0.0961   71.0395   81.7104 O   0  0  0  0  0  0  0  0  0  0  0  0
   -1.4032   72.3278   80.3743 C   0  0  0  0  0  0  0  0  0  0  0  0
   -0.4544   72.3528   81.5587 C   0  0  0  0  0  0  0  0  0  0  0  0
    1.9701   66.6443   84.9051 C   0  0  0  0  0  0  0  0  0  0  0  0
    3.3777   66.5800   84.4967 N   0  0  0  0  0  0  0  0  0  0  0  0
    3.9677   67.9349   84.5024 C   0  0  0  0  0  0  0  0  0  0  0  0
    5.5055   67.8880   84.4141 C   0  0  0  0  0  0  0  0  0  0  0  0
    6.1237   67.2732   85.6074 N   0  0  0  0  0  0  0  0  0  0  0  0
    7.4195   66.6918   85.2680 C   0  0  0  0  0  0  0  0  0  0  0  0
    5.2240   66.2855   86.2336 C   0  0  0  0  0  0  0  0  0  0  0  0
    4.1972   65.6329   85.2775 C   0  0  0  0  0  0  0  0  0  0  0  0
 23 24  1  0  0  0
 24 22  1  0  0  0
 22 16  1  0  0  0
 16 17  2  0  0  0
 17 18  1  0  0  0
 18 19  2  0  0  0
 19 20  1  0  0  0
 20 21  2  0  0  0
 21  1  1  0  0  0
  1  2  2  0  0  0
  2  3  1  0  0  0
  3  4  1  0  0  0
  3  5  2  0  0  0
  5  6  1  0  0  0
  6  7  2  0  0  0
  7  8  1  0  0  0
  8  9  2  0  0  0
  9 10  1  0  0  0
 10 11  2  0  0  0
 11 25  1  0  0  0
 25 26  1  0  0  0
 26 27  1  0  0  0
 27 28  1  0  0  0
 28 29  1  0  0  0
 29 30  1  0  0  0
 29 31  1  0  0  0
 31 32  1  0  0  0
 11 12  1  0  0  0
 12 13  1  0  0  0
 13 14  2  0  0  0
 21 16  1  0  0  0
 14  1  1  0  0  0
 13  5  1  0  0  0
 12  7  1  0  0  0
 32 26  1  0  0  0
  4 15  1  0  0  0
M  END
> <minimizedAffinity>
-9.44314

$$$$
