


 35 38  0  0  0  0  0  0  0  0999 V2000
   -0.1134   63.1387   85.2135 C   0  0  0  0  0  0  0  0  0  0  0  0
    0.5119   64.0759   86.0449 C   0  0  0  0  0  0  0  0  0  0  0  0
    1.0771   65.2426   85.5168 C   0  0  0  0  0  0  0  0  0  0  0  0
    1.0383   65.5112   84.1440 C   0  0  0  0  0  0  0  0  0  0  0  0
    0.4147   64.5658   83.3150 C   0  0  0  0  0  0  0  0  0  0  0  0
   -0.1626   63.3830   83.8252 C   0  0  0  0  0  0  0  0  0  0  0  0
   -0.8036   62.4579   82.8205 C   0  0  0  0  0  0  0  0  0  0  0  0
   -0.4314   62.5085   81.5688 N   0  0  0  0  0  0  0  0  0  0  0  0
   -1.0932   61.6035   80.7379 C   0  0  0  0  0  0  0  0  0  0  0  0
   -0.9507   61.3758   79.3595 C   0  0  0  0  0  0  0  0  0  0  0  0
   -1.7867   60.4017   78.9515 N   0  0  0  0  0  0  0  0  0  0  0  0
   -2.4407   60.0343   80.0815 N   0  0  0  0  0  0  0  0  0  0  0  0
   -3.4366   58.9913   80.0304 C   0  0  0  0  0  0  0  0  0  0  0  0
   -2.0473   60.7365   81.1768 C   0  0  0  0  0  0  0  0  0  0  0  0
   -2.4604   60.6749   82.5292 C   0  0  0  0  0  0  0  0  0  0  0  0
   -3.3153   59.9259   82.9867 O   0  0  0  0  0  0  0  0  0  0  0  0
   -1.7726   61.5825   83.3011 N   0  0  0  0  0  0  0  0  0  0  0  0
   -2.0226   61.6037   84.2811 H   0  0  0  0  0  0  0  0  0  0  0  0
   -0.0393   62.0536   78.3984 C   0  0  0  0  0  0  0  0  0  0  0  0
   -0.1385   61.4697   76.9975 C   0  0  0  0  0  0  0  0  0  0  0  0
    1.6289   66.7393   83.5904 C   0  0  0  0  0  0  0  0  0  0  0  0
    2.4873   67.5518   84.3449 C   0  0  0  0  0  0  0  0  0  0  0  0
    3.0308   68.7115   83.7922 C   0  0  0  0  0  0  0  0  0  0  0  0
    2.6991   69.0320   82.4838 C   0  0  0  0  0  0  0  0  0  0  0  0
    1.8696   68.2818   81.7099 N   0  0  0  0  0  0  0  0  0  0  0  0
    1.3641   67.1618   82.2838 C   0  0  0  0  0  0  0  0  0  0  0  0
    3.2547   70.2688   81.8573 C   0  0  0  0  0  0  0  0  0  0  0  0
    3.2763   71.3519   82.4355 O   0  0  0  0  0  0  0  0  0  0  0  0
    3.7068   70.1014   80.5705 N   0  0  0  0  0  0  0  0  0  0  0  0
    4.0317   71.2744   79.8552 O   0  0  0  0  0  0  0  0  0  0  0  0
    3.4772   69.2607   80.0449 H   0  0  0  0  0  0  0  0  0  0  0  0
    3.8981   71.9733   80.5313 H   0  0  0  0  0  0  0  0  0  0  0  0
   -0.6833   61.9818   85.6810 O   0  0  0  0  0  0  0  0  0  0  0  0
   -2.7263   62.5802   86.7473 C   0  0  0  0  0  0  0  0  0  0  0  0
   -1.3340   62.0106   86.9534 C   0  0  0  0  0  0  0  0  0  0  0  0
 34 35  1  0  0  0
 35 33  1  0  0  0
 33  1  1  0  0  0
  1  2  1  0  0  0
  2  3  2  0  0  0
  3  4  1  0  0  0
  4 21  1  0  0  0
 21 22  2  0  0  0
 22 23  1  0  0  0
 23 24  2  0  0  0
 24 27  1  0  0  0
 27 28  2  0  0  0
 27 29  1  0  0  0
 29 30  1  0  0  0
 24 25  1  0  0  0
 25 26  2  0  0  0
  4  5  2  0  0  0
  5  6  1  0  0  0
  6  7  1  0  0  0
  7  8  2  0  0  0
  8  9  1  0  0  0
  9 10  1  0  0  0
 10 19  1  0  0  0
 19 20  1  0  0  0
 10 11  2  0  0  0
 11 12  1  0  0  0
 12 13  1  0  0  0
 12 14  1  0  0  0
 14 15  1  0  0  0
 15 16  2  0  0  0
 15 17  1  0  0  0
  6  1  2  0  0  0
 17  7  1  0  0  0
 26 21  1  0  0  0
 14  9  2  0  0  0
 29 31  1  0  0  0
 30 32  1  0  0  0
 17 18  1  0  0  0
M  END
> <minimizedAffinity>
-10.95108

$$$$



 35 38  0  0  0  0  0  0  0  0999 V2000
   -0.3971   63.7320   86.3064 C   0  0  0  0  0  0  0  0  0  0  0  0
   -1.4779   62.8418   86.3126 C   0  0  0  0  0  0  0  0  0  0  0  0
   -2.0129   62.3509   85.1158 C   0  0  0  0  0  0  0  0  0  0  0  0
   -1.4890   62.7328   83.8757 C   0  0  0  0  0  0  0  0  0  0  0  0
   -0.4090   63.6293   83.8755 C   0  0  0  0  0  0  0  0  0  0  0  0
    0.1472   64.1365   85.0697 C   0  0  0  0  0  0  0  0  0  0  0  0
    1.3082   65.0886   84.9214 C   0  0  0  0  0  0  0  0  0  0  0  0
    1.1994   66.1184   84.1243 N   0  0  0  0  0  0  0  0  0  0  0  0
    2.3365   66.9257   84.0739 C   0  0  0  0  0  0  0  0  0  0  0  0
    2.5756   68.1002   83.3421 C   0  0  0  0  0  0  0  0  0  0  0  0
    3.8148   68.5673   83.5879 N   0  0  0  0  0  0  0  0  0  0  0  0
    4.3333   67.6772   84.4702 N   0  0  0  0  0  0  0  0  0  0  0  0
    5.6746   67.8574   84.9709 C   0  0  0  0  0  0  0  0  0  0  0  0
    3.4699   66.6761   84.7863 C   0  0  0  0  0  0  0  0  0  0  0  0
    3.6002   65.5625   85.6502 C   0  0  0  0  0  0  0  0  0  0  0  0
    4.5913   65.2774   86.3116 O   0  0  0  0  0  0  0  0  0  0  0  0
    2.4504   64.8072   85.6646 N   0  0  0  0  0  0  0  0  0  0  0  0
    2.4726   63.9853   86.2541 H   0  0  0  0  0  0  0  0  0  0  0  0
    1.6628   68.8097   82.4056 C   0  0  0  0  0  0  0  0  0  0  0  0
    1.4758   68.0558   81.0980 C   0  0  0  0  0  0  0  0  0  0  0  0
   -2.0491   62.2135   82.6187 C   0  0  0  0  0  0  0  0  0  0  0  0
   -2.8848   61.0878   82.5914 C   0  0  0  0  0  0  0  0  0  0  0  0
   -3.3997   60.6182   81.3830 C   0  0  0  0  0  0  0  0  0  0  0  0
   -3.0627   61.2948   80.2197 C   0  0  0  0  0  0  0  0  0  0  0  0
   -2.2543   62.3882   80.1895 N   0  0  0  0  0  0  0  0  0  0  0  0
   -1.7764   62.8135   81.3853 C   0  0  0  0  0  0  0  0  0  0  0  0
   -3.5878   60.8201   78.9045 C   0  0  0  0  0  0  0  0  0  0  0  0
   -3.6844   59.6292   78.6207 O   0  0  0  0  0  0  0  0  0  0  0  0
   -3.9203   61.8247   78.0280 N   0  0  0  0  0  0  0  0  0  0  0  0
   -4.2064   61.4389   76.7005 O   0  0  0  0  0  0  0  0  0  0  0  0
   -3.6265   62.7835   78.2018 H   0  0  0  0  0  0  0  0  0  0  0  0
   -4.1486   60.4604   76.7519 H   0  0  0  0  0  0  0  0  0  0  0  0
    0.1641   64.2403   87.4503 O   0  0  0  0  0  0  0  0  0  0  0  0
    0.5880   62.6000   89.1231 C   0  0  0  0  0  0  0  0  0  0  0  0
   -0.3053   63.7564   88.7107 C   0  0  0  0  0  0  0  0  0  0  0  0
 34 35  1  0  0  0
 35 33  1  0  0  0
 33  1  1  0  0  0
  1  2  1  0  0  0
  2  3  2  0  0  0
  3  4  1  0  0  0
  4 21  1  0  0  0
 21 22  2  0  0  0
 22 23  1  0  0  0
 23 24  2  0  0  0
 24 27  1  0  0  0
 27 28  2  0  0  0
 27 29  1  0  0  0
 29 30  1  0  0  0
 24 25  1  0  0  0
 25 26  2  0  0  0
  4  5  2  0  0  0
  5  6  1  0  0  0
  6  7  1  0  0  0
  7  8  2  0  0  0
  8  9  1  0  0  0
  9 10  1  0  0  0
 10 19  1  0  0  0
 19 20  1  0  0  0
 10 11  2  0  0  0
 11 12  1  0  0  0
 12 13  1  0  0  0
 12 14  1  0  0  0
 14 15  1  0  0  0
 15 16  2  0  0  0
 15 17  1  0  0  0
  6  1  2  0  0  0
 17  7  1  0  0  0
 26 21  1  0  0  0
 14  9  2  0  0  0
 29 31  1  0  0  0
 30 32  1  0  0  0
 17 18  1  0  0  0
M  END
> <minimizedAffinity>
-10.79027

$$$$



 35 38  0  0  0  0  0  0  0  0999 V2000
   -0.0556   63.7374   85.5930 C   0  0  0  0  0  0  0  0  0  0  0  0
   -0.9019   62.6265   85.6936 C   0  0  0  0  0  0  0  0  0  0  0  0
   -1.3424   61.9513   84.5493 C   0  0  0  0  0  0  0  0  0  0  0  0
   -0.9548   62.3627   83.2691 C   0  0  0  0  0  0  0  0  0  0  0  0
   -0.1105   63.4798   83.1742 C   0  0  0  0  0  0  0  0  0  0  0  0
    0.3468   64.1757   84.3141 C   0  0  0  0  0  0  0  0  0  0  0  0
    1.2531   65.3558   84.0650 C   0  0  0  0  0  0  0  0  0  0  0  0
    2.3664   65.4672   84.7402 N   0  0  0  0  0  0  0  0  0  0  0  0
    3.1198   66.5972   84.4193 C   0  0  0  0  0  0  0  0  0  0  0  0
    4.3532   67.0324   84.9304 C   0  0  0  0  0  0  0  0  0  0  0  0
    4.7321   68.1816   84.3387 N   0  0  0  0  0  0  0  0  0  0  0  0
    3.7290   68.4488   83.4658 N   0  0  0  0  0  0  0  0  0  0  0  0
    3.7907   69.6285   82.6370 C   0  0  0  0  0  0  0  0  0  0  0  0
    2.7418   67.5148   83.4867 C   0  0  0  0  0  0  0  0  0  0  0  0
    1.5371   67.4061   82.7517 C   0  0  0  0  0  0  0  0  0  0  0  0
    1.1361   68.1976   81.9068 O   0  0  0  0  0  0  0  0  0  0  0  0
    0.8399   66.2737   83.1043 N   0  0  0  0  0  0  0  0  0  0  0  0
   -0.0406   66.1336   82.6261 H   0  0  0  0  0  0  0  0  0  0  0  0
    5.2015   66.3929   85.9721 C   0  0  0  0  0  0  0  0  0  0  0  0
    5.9401   65.1716   85.4467 C   0  0  0  0  0  0  0  0  0  0  0  0
   -1.4148   61.6502   82.0674 C   0  0  0  0  0  0  0  0  0  0  0  0
   -2.5863   60.8796   82.0681 C   0  0  0  0  0  0  0  0  0  0  0  0
   -2.9960   60.2143   80.9126 C   0  0  0  0  0  0  0  0  0  0  0  0
   -2.2155   60.3390   79.7725 C   0  0  0  0  0  0  0  0  0  0  0  0
   -1.0697   61.0699   79.7183 N   0  0  0  0  0  0  0  0  0  0  0  0
   -0.7075   61.7024   80.8621 C   0  0  0  0  0  0  0  0  0  0  0  0
   -2.6159   59.6371   78.5164 C   0  0  0  0  0  0  0  0  0  0  0  0
   -1.9015   58.8027   77.9673 O   0  0  0  0  0  0  0  0  0  0  0  0
   -3.8319   60.0271   78.0091 N   0  0  0  0  0  0  0  0  0  0  0  0
   -4.1562   59.5659   76.7148 O   0  0  0  0  0  0  0  0  0  0  0  0
   -4.2940   60.8652   78.3552 H   0  0  0  0  0  0  0  0  0  0  0  0
   -3.3937   58.9846   76.5047 H   0  0  0  0  0  0  0  0  0  0  0  0
    0.4049   64.4321   86.6825 O   0  0  0  0  0  0  0  0  0  0  0  0
    0.2499   63.3812   88.8133 C   0  0  0  0  0  0  0  0  0  0  0  0
    1.1748   63.7297   87.6608 C   0  0  0  0  0  0  0  0  0  0  0  0
 34 35  1  0  0  0
 35 33  1  0  0  0
 33  1  1  0  0  0
  1  2  1  0  0  0
  2  3  2  0  0  0
  3  4  1  0  0  0
  4 21  1  0  0  0
 21 22  2  0  0  0
 22 23  1  0  0  0
 23 24  2  0  0  0
 24 27  1  0  0  0
 27 28  2  0  0  0
 27 29  1  0  0  0
 29 30  1  0  0  0
 24 25  1  0  0  0
 25 26  2  0  0  0
  4  5  2  0  0  0
  5  6  1  0  0  0
  6  7  1  0  0  0
  7  8  2  0  0  0
  8  9  1  0  0  0
  9 10  1  0  0  0
 10 19  1  0  0  0
 19 20  1  0  0  0
 10 11  2  0  0  0
 11 12  1  0  0  0
 12 13  1  0  0  0
 12 14  1  0  0  0
 14 15  1  0  0  0
 15 16  2  0  0  0
 15 17  1  0  0  0
  6  1  2  0  0  0
 17  7  1  0  0  0
 26 21  1  0  0  0
 14  9  2  0  0  0
 29 31  1  0  0  0
 30 32  1  0  0  0
 17 18  1  0  0  0
M  END
> <minimizedAffinity>
-10.78359

$$$$



 35 38  0  0  0  0  0  0  0  0999 V2000
    3.8351   66.4294   84.4487 C   0  0  0  0  0  0  0  0  0  0  0  0
    4.5409   67.5415   83.9740 C   0  0  0  0  0  0  0  0  0  0  0  0
    3.8687   68.6414   83.4282 C   0  0  0  0  0  0  0  0  0  0  0  0
    2.4726   68.6669   83.3369 C   0  0  0  0  0  0  0  0  0  0  0  0
    1.7706   67.5472   83.8097 C   0  0  0  0  0  0  0  0  0  0  0  0
    2.4271   66.4275   84.3646 C   0  0  0  0  0  0  0  0  0  0  0  0
    1.5477   65.2963   84.8372 C   0  0  0  0  0  0  0  0  0  0  0  0
    0.7962   64.6616   83.9769 N   0  0  0  0  0  0  0  0  0  0  0  0
    0.0317   63.6350   84.5327 C   0  0  0  0  0  0  0  0  0  0  0  0
   -0.8720   62.7519   83.9200 C   0  0  0  0  0  0  0  0  0  0  0  0
   -1.3963   61.9057   84.8274 N   0  0  0  0  0  0  0  0  0  0  0  0
   -0.8127   62.2726   85.9955 N   0  0  0  0  0  0  0  0  0  0  0  0
   -1.1388   61.5726   87.2145 C   0  0  0  0  0  0  0  0  0  0  0  0
    0.0541   63.3102   85.8550 C   0  0  0  0  0  0  0  0  0  0  0  0
    0.8616   63.9923   86.7962 C   0  0  0  0  0  0  0  0  0  0  0  0
    0.9227   63.7558   87.9968 O   0  0  0  0  0  0  0  0  0  0  0  0
    1.5956   64.9874   86.1931 N   0  0  0  0  0  0  0  0  0  0  0  0
    2.1910   65.5273   86.8074 H   0  0  0  0  0  0  0  0  0  0  0  0
   -1.2642   62.6750   82.4868 C   0  0  0  0  0  0  0  0  0  0  0  0
   -2.4626   63.5553   82.1673 C   0  0  0  0  0  0  0  0  0  0  0  0
    1.7667   69.8247   82.7670 C   0  0  0  0  0  0  0  0  0  0  0  0
    0.7455   69.6738   81.8180 C   0  0  0  0  0  0  0  0  0  0  0  0
    0.0954   70.7916   81.2948 C   0  0  0  0  0  0  0  0  0  0  0  0
    0.4868   72.0458   81.7400 C   0  0  0  0  0  0  0  0  0  0  0  0
    1.4725   72.2484   82.6550 N   0  0  0  0  0  0  0  0  0  0  0  0
    2.0779   71.1360   83.1401 C   0  0  0  0  0  0  0  0  0  0  0  0
   -0.1798   73.2683   81.1996 C   0  0  0  0  0  0  0  0  0  0  0  0
   -0.6321   73.3269   80.0594 O   0  0  0  0  0  0  0  0  0  0  0  0
   -0.2137   74.3305   82.0706 N   0  0  0  0  0  0  0  0  0  0  0  0
   -0.6259   75.5723   81.5403 O   0  0  0  0  0  0  0  0  0  0  0  0
    0.3556   74.3283   82.9142 H   0  0  0  0  0  0  0  0  0  0  0  0
   -0.8614   75.3356   80.6173 H   0  0  0  0  0  0  0  0  0  0  0  0
    4.4458   65.3284   84.9933 O   0  0  0  0  0  0  0  0  0  0  0  0
    5.1718   65.2941   87.2605 C   0  0  0  0  0  0  0  0  0  0  0  0
    5.5939   65.5278   85.8210 C   0  0  0  0  0  0  0  0  0  0  0  0
 34 35  1  0  0  0
 35 33  1  0  0  0
 33  1  1  0  0  0
  1  2  1  0  0  0
  2  3  2  0  0  0
  3  4  1  0  0  0
  4 21  1  0  0  0
 21 22  2  0  0  0
 22 23  1  0  0  0
 23 24  2  0  0  0
 24 27  1  0  0  0
 27 28  2  0  0  0
 27 29  1  0  0  0
 29 30  1  0  0  0
 24 25  1  0  0  0
 25 26  2  0  0  0
  4  5  2  0  0  0
  5  6  1  0  0  0
  6  7  1  0  0  0
  7  8  2  0  0  0
  8  9  1  0  0  0
  9 10  1  0  0  0
 10 19  1  0  0  0
 19 20  1  0  0  0
 10 11  2  0  0  0
 11 12  1  0  0  0
 12 13  1  0  0  0
 12 14  1  0  0  0
 14 15  1  0  0  0
 15 16  2  0  0  0
 15 17  1  0  0  0
  6  1  2  0  0  0
 17  7  1  0  0  0
 26 21  1  0  0  0
 14  9  2  0  0  0
 29 31  1  0  0  0
 30 32  1  0  0  0
 17 18  1  0  0  0
M  END
> <minimizedAffinity>
-10.58232

$$$$



 35 38  0  0  0  0  0  0  0  0999 V2000
    3.8207   66.2921   84.6775 C   0  0  0  0  0  0  0  0  0  0  0  0
    4.5731   67.3751   84.2070 C   0  0  0  0  0  0  0  0  0  0  0  0
    3.9577   68.4499   83.5547 C   0  0  0  0  0  0  0  0  0  0  0  0
    2.5738   68.4785   83.3494 C   0  0  0  0  0  0  0  0  0  0  0  0
    1.8252   67.3879   83.8186 C   0  0  0  0  0  0  0  0  0  0  0  0
    2.4241   66.2938   84.4798 C   0  0  0  0  0  0  0  0  0  0  0  0
    1.4987   65.1925   84.9349 C   0  0  0  0  0  0  0  0  0  0  0  0
    0.7479   64.5786   84.0591 N   0  0  0  0  0  0  0  0  0  0  0  0
   -0.0614   63.5786   84.6000 C   0  0  0  0  0  0  0  0  0  0  0  0
   -0.9780   62.7221   83.9689 C   0  0  0  0  0  0  0  0  0  0  0  0
   -1.5497   61.8963   84.8663 N   0  0  0  0  0  0  0  0  0  0  0  0
   -0.9823   62.2490   86.0467 N   0  0  0  0  0  0  0  0  0  0  0  0
   -1.3586   61.5642   87.2598 C   0  0  0  0  0  0  0  0  0  0  0  0
   -0.0802   63.2582   85.9234 C   0  0  0  0  0  0  0  0  0  0  0  0
    0.7262   63.9182   86.8813 C   0  0  0  0  0  0  0  0  0  0  0  0
    0.7519   63.6843   88.0837 O   0  0  0  0  0  0  0  0  0  0  0  0
    1.5052   64.8874   86.2925 N   0  0  0  0  0  0  0  0  0  0  0  0
    2.1028   65.4106   86.9190 H   0  0  0  0  0  0  0  0  0  0  0  0
   -1.3388   62.6522   82.5271 C   0  0  0  0  0  0  0  0  0  0  0  0
   -2.5251   63.5401   82.1843 C   0  0  0  0  0  0  0  0  0  0  0  0
    1.9273   69.6101   82.6675 C   0  0  0  0  0  0  0  0  0  0  0  0
    2.3331   70.9344   82.8864 C   0  0  0  0  0  0  0  0  0  0  0  0
    1.6993   71.9867   82.2255 C   0  0  0  0  0  0  0  0  0  0  0  0
    0.6650   71.6843   81.3519 C   0  0  0  0  0  0  0  0  0  0  0  0
    0.2299   70.4193   81.1062 N   0  0  0  0  0  0  0  0  0  0  0  0
    0.8735   69.4251   81.7670 C   0  0  0  0  0  0  0  0  0  0  0  0
   -0.0439   72.7828   80.6296 C   0  0  0  0  0  0  0  0  0  0  0  0
   -1.2361   72.7244   80.3412 O   0  0  0  0  0  0  0  0  0  0  0  0
    0.7553   73.8462   80.2852 N   0  0  0  0  0  0  0  0  0  0  0  0
    0.1953   74.8032   79.4113 O   0  0  0  0  0  0  0  0  0  0  0  0
    1.7689   73.7723   80.3382 H   0  0  0  0  0  0  0  0  0  0  0  0
   -0.7231   74.4738   79.3042 H   0  0  0  0  0  0  0  0  0  0  0  0
    4.3749   65.2164   85.3237 O   0  0  0  0  0  0  0  0  0  0  0  0
    5.4280   65.5071   87.4391 C   0  0  0  0  0  0  0  0  0  0  0  0
    5.6527   65.3800   85.9430 C   0  0  0  0  0  0  0  0  0  0  0  0
 34 35  1  0  0  0
 35 33  1  0  0  0
 33  1  1  0  0  0
  1  2  1  0  0  0
  2  3  2  0  0  0
  3  4  1  0  0  0
  4 21  1  0  0  0
 21 22  2  0  0  0
 22 23  1  0  0  0
 23 24  2  0  0  0
 24 27  1  0  0  0
 27 28  2  0  0  0
 27 29  1  0  0  0
 29 30  1  0  0  0
 24 25  1  0  0  0
 25 26  2  0  0  0
  4  5  2  0  0  0
  5  6  1  0  0  0
  6  7  1  0  0  0
  7  8  2  0  0  0
  8  9  1  0  0  0
  9 10  1  0  0  0
 10 19  1  0  0  0
 19 20  1  0  0  0
 10 11  2  0  0  0
 11 12  1  0  0  0
 12 13  1  0  0  0
 12 14  1  0  0  0
 14 15  1  0  0  0
 15 16  2  0  0  0
 15 17  1  0  0  0
  6  1  2  0  0  0
 17  7  1  0  0  0
 26 21  1  0  0  0
 14  9  2  0  0  0
 29 31  1  0  0  0
 30 32  1  0  0  0
 17 18  1  0  0  0
M  END
> <minimizedAffinity>
-10.21888

$$$$



 35 38  0  0  0  0  0  0  0  0999 V2000
    0.6625   65.6021   80.6294 C   0  0  0  0  0  0  0  0  0  0  0  0
    0.2926   64.2767   80.8882 C   0  0  0  0  0  0  0  0  0  0  0  0
    0.1055   63.8246   82.1997 C   0  0  0  0  0  0  0  0  0  0  0  0
    0.2827   64.6783   83.2942 C   0  0  0  0  0  0  0  0  0  0  0  0
    0.6584   66.0044   83.0290 C   0  0  0  0  0  0  0  0  0  0  0  0
    0.8518   66.4825   81.7150 C   0  0  0  0  0  0  0  0  0  0  0  0
    1.2502   67.9311   81.5765 C   0  0  0  0  0  0  0  0  0  0  0  0
    0.3250   68.8433   81.4364 N   0  0  0  0  0  0  0  0  0  0  0  0
    0.8167   70.1442   81.3213 C   0  0  0  0  0  0  0  0  0  0  0  0
    0.1269   71.3574   81.1652 C   0  0  0  0  0  0  0  0  0  0  0  0
    0.9911   72.3883   81.0976 N   0  0  0  0  0  0  0  0  0  0  0  0
    2.2099   71.8043   81.2119 N   0  0  0  0  0  0  0  0  0  0  0  0
    3.4029   72.6156   81.1821 C   0  0  0  0  0  0  0  0  0  0  0  0
    2.1426   70.4537   81.3495 C   0  0  0  0  0  0  0  0  0  0  0  0
    3.1534   69.4740   81.4977 C   0  0  0  0  0  0  0  0  0  0  0  0
    4.3602   69.6839   81.5236 O   0  0  0  0  0  0  0  0  0  0  0  0
    2.6120   68.2144   81.6120 N   0  0  0  0  0  0  0  0  0  0  0  0
    3.2768   67.4583   81.7109 H   0  0  0  0  0  0  0  0  0  0  0  0
   -1.3411   71.5833   81.0776 C   0  0  0  0  0  0  0  0  0  0  0  0
   -1.7116   72.5526   79.9657 C   0  0  0  0  0  0  0  0  0  0  0  0
    0.0820   64.2036   84.6718 C   0  0  0  0  0  0  0  0  0  0  0  0
   -0.7410   63.1062   84.9629 C   0  0  0  0  0  0  0  0  0  0  0  0
   -0.9125   62.6804   86.2801 C   0  0  0  0  0  0  0  0  0  0  0  0
   -0.2483   63.3702   87.2839 C   0  0  0  0  0  0  0  0  0  0  0  0
    0.5579   64.4419   87.0573 N   0  0  0  0  0  0  0  0  0  0  0  0
    0.6996   64.8225   85.7633 C   0  0  0  0  0  0  0  0  0  0  0  0
   -0.4107   62.9501   88.7080 C   0  0  0  0  0  0  0  0  0  0  0  0
   -1.2952   63.3967   89.4335 O   0  0  0  0  0  0  0  0  0  0  0  0
    0.5307   62.0508   89.1473 N   0  0  0  0  0  0  0  0  0  0  0  0
    0.5620   61.7930   90.5350 O   0  0  0  0  0  0  0  0  0  0  0  0
    1.3703   61.8700   88.6013 H   0  0  0  0  0  0  0  0  0  0  0  0
   -0.1988   62.3205   90.8612 H   0  0  0  0  0  0  0  0  0  0  0  0
    0.8565   66.0945   79.3638 O   0  0  0  0  0  0  0  0  0  0  0  0
   -0.3798   65.0360   77.6261 C   0  0  0  0  0  0  0  0  0  0  0  0
    0.9820   65.1654   78.2849 C   0  0  0  0  0  0  0  0  0  0  0  0
 34 35  1  0  0  0
 35 33  1  0  0  0
 33  1  1  0  0  0
  1  2  1  0  0  0
  2  3  2  0  0  0
  3  4  1  0  0  0
  4 21  1  0  0  0
 21 22  2  0  0  0
 22 23  1  0  0  0
 23 24  2  0  0  0
 24 27  1  0  0  0
 27 28  2  0  0  0
 27 29  1  0  0  0
 29 30  1  0  0  0
 24 25  1  0  0  0
 25 26  2  0  0  0
  4  5  2  0  0  0
  5  6  1  0  0  0
  6  7  1  0  0  0
  7  8  2  0  0  0
  8  9  1  0  0  0
  9 10  1  0  0  0
 10 19  1  0  0  0
 19 20  1  0  0  0
 10 11  2  0  0  0
 11 12  1  0  0  0
 12 13  1  0  0  0
 12 14  1  0  0  0
 14 15  1  0  0  0
 15 16  2  0  0  0
 15 17  1  0  0  0
  6  1  2  0  0  0
 17  7  1  0  0  0
 26 21  1  0  0  0
 14  9  2  0  0  0
 29 31  1  0  0  0
 30 32  1  0  0  0
 17 18  1  0  0  0
M  END
> <minimizedAffinity>
-9.95821

$$$$



 35 38  0  0  0  0  0  0  0  0999 V2000
    0.3294   63.7770   83.6571 C   0  0  0  0  0  0  0  0  0  0  0  0
    0.7524   64.6754   84.6442 C   0  0  0  0  0  0  0  0  0  0  0  0
    1.1788   65.9657   84.3081 C   0  0  0  0  0  0  0  0  0  0  0  0
    1.1985   66.4005   82.9782 C   0  0  0  0  0  0  0  0  0  0  0  0
    0.7782   65.4940   81.9925 C   0  0  0  0  0  0  0  0  0  0  0  0
    0.3435   64.1885   82.3080 C   0  0  0  0  0  0  0  0  0  0  0  0
   -0.0845   63.3220   81.1494 C   0  0  0  0  0  0  0  0  0  0  0  0
   -1.1060   62.5189   81.2882 N   0  0  0  0  0  0  0  0  0  0  0  0
   -1.4064   61.7728   80.1479 C   0  0  0  0  0  0  0  0  0  0  0  0
   -2.4224   60.8278   79.9315 C   0  0  0  0  0  0  0  0  0  0  0  0
   -2.3582   60.3421   78.6769 N   0  0  0  0  0  0  0  0  0  0  0  0
   -1.3018   60.9906   78.1264 N   0  0  0  0  0  0  0  0  0  0  0  0
   -0.9236   60.7210   76.7602 C   0  0  0  0  0  0  0  0  0  0  0  0
   -0.7056   61.8609   78.9836 C   0  0  0  0  0  0  0  0  0  0  0  0
    0.4040   62.7247   78.8227 C   0  0  0  0  0  0  0  0  0  0  0  0
    1.0798   62.8462   77.8080 O   0  0  0  0  0  0  0  0  0  0  0  0
    0.6501   63.4376   79.9733 N   0  0  0  0  0  0  0  0  0  0  0  0
    1.4383   64.0708   79.9372 H   0  0  0  0  0  0  0  0  0  0  0  0
   -3.4690   60.3598   80.8800 C   0  0  0  0  0  0  0  0  0  0  0  0
   -2.8823   59.6003   82.0598 C   0  0  0  0  0  0  0  0  0  0  0  0
    1.6428   67.7578   82.6262 C   0  0  0  0  0  0  0  0  0  0  0  0
    1.1983   68.4024   81.4629 C   0  0  0  0  0  0  0  0  0  0  0  0
    1.6388   69.6898   81.1554 C   0  0  0  0  0  0  0  0  0  0  0  0
    2.5217   70.3069   82.0296 C   0  0  0  0  0  0  0  0  0  0  0  0
    2.9864   69.7261   83.1683 N   0  0  0  0  0  0  0  0  0  0  0  0
    2.5326   68.4755   83.4316 C   0  0  0  0  0  0  0  0  0  0  0  0
    3.0222   71.6826   81.7333 C   0  0  0  0  0  0  0  0  0  0  0  0
    3.2596   72.5050   82.6138 O   0  0  0  0  0  0  0  0  0  0  0  0
    3.1615   71.9619   80.3951 N   0  0  0  0  0  0  0  0  0  0  0  0
    3.4130   73.3079   80.0513 O   0  0  0  0  0  0  0  0  0  0  0  0
    2.7533   71.3498   79.6920 H   0  0  0  0  0  0  0  0  0  0  0  0
    3.4903   73.7357   80.9313 H   0  0  0  0  0  0  0  0  0  0  0  0
   -0.0987   62.5035   83.9340 O   0  0  0  0  0  0  0  0  0  0  0  0
   -2.3486   62.4000   84.7059 C   0  0  0  0  0  0  0  0  0  0  0  0
   -0.8881   62.2917   85.1066 C   0  0  0  0  0  0  0  0  0  0  0  0
 34 35  1  0  0  0
 35 33  1  0  0  0
 33  1  1  0  0  0
  1  2  1  0  0  0
  2  3  2  0  0  0
  3  4  1  0  0  0
  4 21  1  0  0  0
 21 22  2  0  0  0
 22 23  1  0  0  0
 23 24  2  0  0  0
 24 27  1  0  0  0
 27 28  2  0  0  0
 27 29  1  0  0  0
 29 30  1  0  0  0
 24 25  1  0  0  0
 25 26  2  0  0  0
  4  5  2  0  0  0
  5  6  1  0  0  0
  6  7  1  0  0  0
  7  8  2  0  0  0
  8  9  1  0  0  0
  9 10  1  0  0  0
 10 19  1  0  0  0
 19 20  1  0  0  0
 10 11  2  0  0  0
 11 12  1  0  0  0
 12 13  1  0  0  0
 12 14  1  0  0  0
 14 15  1  0  0  0
 15 16  2  0  0  0
 15 17  1  0  0  0
  6  1  2  0  0  0
 17  7  1  0  0  0
 26 21  1  0  0  0
 14  9  2  0  0  0
 29 31  1  0  0  0
 30 32  1  0  0  0
 17 18  1  0  0  0
M  END
> <minimizedAffinity>
-9.85242

$$$$



 35 38  0  0  0  0  0  0  0  0999 V2000
    3.5984   66.3519   84.6697 C   0  0  0  0  0  0  0  0  0  0  0  0
    4.4373   67.4658   84.5439 C   0  0  0  0  0  0  0  0  0  0  0  0
    4.0091   68.6172   83.8727 C   0  0  0  0  0  0  0  0  0  0  0  0
    2.7326   68.6941   83.3046 C   0  0  0  0  0  0  0  0  0  0  0  0
    1.8979   67.5726   83.4294 C   0  0  0  0  0  0  0  0  0  0  0  0
    2.3079   66.4014   84.1024 C   0  0  0  0  0  0  0  0  0  0  0  0
    1.3070   65.2743   84.1647 C   0  0  0  0  0  0  0  0  0  0  0  0
    0.7972   64.9281   85.3171 N   0  0  0  0  0  0  0  0  0  0  0  0
   -0.1176   63.8767   85.2456 C   0  0  0  0  0  0  0  0  0  0  0  0
   -0.8549   63.2533   86.2653 C   0  0  0  0  0  0  0  0  0  0  0  0
   -1.6300   62.2751   85.7591 N   0  0  0  0  0  0  0  0  0  0  0  0
   -1.3656   62.3005   84.4290 N   0  0  0  0  0  0  0  0  0  0  0  0
   -2.0285   61.3723   83.5451 C   0  0  0  0  0  0  0  0  0  0  0  0
   -0.4601   63.2537   84.0841 C   0  0  0  0  0  0  0  0  0  0  0  0
    0.0876   63.6181   82.8309 C   0  0  0  0  0  0  0  0  0  0  0  0
   -0.1714   63.0955   81.7534 O   0  0  0  0  0  0  0  0  0  0  0  0
    0.9762   64.6604   82.9606 N   0  0  0  0  0  0  0  0  0  0  0  0
    1.4176   64.9699   82.1046 H   0  0  0  0  0  0  0  0  0  0  0  0
   -0.8559   63.5526   87.7228 C   0  0  0  0  0  0  0  0  0  0  0  0
    0.2949   62.8771   88.4526 C   0  0  0  0  0  0  0  0  0  0  0  0
    2.2819   69.9057   82.6030 C   0  0  0  0  0  0  0  0  0  0  0  0
    1.0617   69.9497   81.9135 C   0  0  0  0  0  0  0  0  0  0  0  0
    0.6622   71.1135   81.2563 C   0  0  0  0  0  0  0  0  0  0  0  0
    1.5022   72.2164   81.3071 C   0  0  0  0  0  0  0  0  0  0  0  0
    2.6965   72.2264   81.9578 N   0  0  0  0  0  0  0  0  0  0  0  0
    3.0470   71.0762   82.5852 C   0  0  0  0  0  0  0  0  0  0  0  0
    1.1141   73.4796   80.6110 C   0  0  0  0  0  0  0  0  0  0  0  0
    0.0366   74.0369   80.8020 O   0  0  0  0  0  0  0  0  0  0  0  0
    2.0464   73.9460   79.7158 N   0  0  0  0  0  0  0  0  0  0  0  0
    1.6413   75.0022   78.8712 O   0  0  0  0  0  0  0  0  0  0  0  0
    2.8201   73.3559   79.4176 H   0  0  0  0  0  0  0  0  0  0  0  0
    0.7374   75.1963   79.2008 H   0  0  0  0  0  0  0  0  0  0  0  0
    3.9693   65.2015   85.3184 O   0  0  0  0  0  0  0  0  0  0  0  0
    5.0657   65.1833   87.4316 C   0  0  0  0  0  0  0  0  0  0  0  0
    5.2618   65.1506   85.9264 C   0  0  0  0  0  0  0  0  0  0  0  0
 34 35  1  0  0  0
 35 33  1  0  0  0
 33  1  1  0  0  0
  1  2  1  0  0  0
  2  3  2  0  0  0
  3  4  1  0  0  0
  4 21  1  0  0  0
 21 22  2  0  0  0
 22 23  1  0  0  0
 23 24  2  0  0  0
 24 27  1  0  0  0
 27 28  2  0  0  0
 27 29  1  0  0  0
 29 30  1  0  0  0
 24 25  1  0  0  0
 25 26  2  0  0  0
  4  5  2  0  0  0
  5  6  1  0  0  0
  6  7  1  0  0  0
  7  8  2  0  0  0
  8  9  1  0  0  0
  9 10  1  0  0  0
 10 19  1  0  0  0
 19 20  1  0  0  0
 10 11  2  0  0  0
 11 12  1  0  0  0
 12 13  1  0  0  0
 12 14  1  0  0  0
 14 15  1  0  0  0
 15 16  2  0  0  0
 15 17  1  0  0  0
  6  1  2  0  0  0
 17  7  1  0  0  0
 26 21  1  0  0  0
 14  9  2  0  0  0
 29 31  1  0  0  0
 30 32  1  0  0  0
 17 18  1  0  0  0
M  END
> <minimizedAffinity>
-9.73322

$$$$



 35 38  0  0  0  0  0  0  0  0999 V2000
    2.3128   67.0126   84.0439 C   0  0  0  0  0  0  0  0  0  0  0  0
    2.0363   65.7144   84.4897 C   0  0  0  0  0  0  0  0  0  0  0  0
    1.1906   64.8686   83.7625 C   0  0  0  0  0  0  0  0  0  0  0  0
    0.5928   65.2901   82.5696 C   0  0  0  0  0  0  0  0  0  0  0  0
    0.8696   66.5941   82.1303 C   0  0  0  0  0  0  0  0  0  0  0  0
    1.7197   67.4642   82.8465 C   0  0  0  0  0  0  0  0  0  0  0  0
    1.9323   68.8362   82.2560 C   0  0  0  0  0  0  0  0  0  0  0  0
    0.9104   69.6352   82.0980 N   0  0  0  0  0  0  0  0  0  0  0  0
    1.2337   70.8756   81.5464 C   0  0  0  0  0  0  0  0  0  0  0  0
    0.4071   71.9697   81.2435 C   0  0  0  0  0  0  0  0  0  0  0  0
    1.1301   72.9795   80.7222 N   0  0  0  0  0  0  0  0  0  0  0  0
    2.3994   72.5017   80.7062 N   0  0  0  0  0  0  0  0  0  0  0  0
    3.4725   73.3248   80.2031 C   0  0  0  0  0  0  0  0  0  0  0  0
    2.4990   71.2379   81.1966 C   0  0  0  0  0  0  0  0  0  0  0  0
    3.6127   70.3799   81.3604 C   0  0  0  0  0  0  0  0  0  0  0  0
    4.7717   70.6406   81.0606 O   0  0  0  0  0  0  0  0  0  0  0  0
    3.2368   69.1768   81.9118 N   0  0  0  0  0  0  0  0  0  0  0  0
    3.9810   68.5055   82.0495 H   0  0  0  0  0  0  0  0  0  0  0  0
   -1.0630   72.0998   81.4321 C   0  0  0  0  0  0  0  0  0  0  0  0
   -1.7927   72.3633   80.1240 C   0  0  0  0  0  0  0  0  0  0  0  0
   -0.2925   64.3994   81.8039 C   0  0  0  0  0  0  0  0  0  0  0  0
   -1.3987   63.7713   82.3940 C   0  0  0  0  0  0  0  0  0  0  0  0
   -2.2193   62.9307   81.6418 C   0  0  0  0  0  0  0  0  0  0  0  0
   -1.9097   62.7383   80.3032 C   0  0  0  0  0  0  0  0  0  0  0  0
   -0.8479   63.3194   79.6829 N   0  0  0  0  0  0  0  0  0  0  0  0
   -0.0767   64.1306   80.4486 C   0  0  0  0  0  0  0  0  0  0  0  0
   -2.7594   61.8405   79.4649 C   0  0  0  0  0  0  0  0  0  0  0  0
   -2.6517   61.7775   78.2432 O   0  0  0  0  0  0  0  0  0  0  0  0
   -3.6926   61.1186   80.1693 N   0  0  0  0  0  0  0  0  0  0  0  0
   -4.6647   60.4297   79.4120 O   0  0  0  0  0  0  0  0  0  0  0  0
   -3.9067   61.3514   81.1366 H   0  0  0  0  0  0  0  0  0  0  0  0
   -4.3729   60.6050   78.4914 H   0  0  0  0  0  0  0  0  0  0  0  0
    3.1349   67.8793   84.7182 O   0  0  0  0  0  0  0  0  0  0  0  0
    5.0042   67.8917   86.1927 C   0  0  0  0  0  0  0  0  0  0  0  0
    4.5309   67.5794   84.7843 C   0  0  0  0  0  0  0  0  0  0  0  0
 34 35  1  0  0  0
 35 33  1  0  0  0
 33  1  1  0  0  0
  1  2  1  0  0  0
  2  3  2  0  0  0
  3  4  1  0  0  0
  4 21  1  0  0  0
 21 22  2  0  0  0
 22 23  1  0  0  0
 23 24  2  0  0  0
 24 27  1  0  0  0
 27 28  2  0  0  0
 27 29  1  0  0  0
 29 30  1  0  0  0
 24 25  1  0  0  0
 25 26  2  0  0  0
  4  5  2  0  0  0
  5  6  1  0  0  0
  6  7  1  0  0  0
  7  8  2  0  0  0
  8  9  1  0  0  0
  9 10  1  0  0  0
 10 19  1  0  0  0
 19 20  1  0  0  0
 10 11  2  0  0  0
 11 12  1  0  0  0
 12 13  1  0  0  0
 12 14  1  0  0  0
 14 15  1  0  0  0
 15 16  2  0  0  0
 15 17  1  0  0  0
  6  1  2  0  0  0
 17  7  1  0  0  0
 26 21  1  0  0  0
 14  9  2  0  0  0
 29 31  1  0  0  0
 30 32  1  0  0  0
 17 18  1  0  0  0
M  END
> <minimizedAffinity>
-9.52797

$$$$
