


 43 47  0  0  0  0  0  0  0  0999 V2000
    2.4514   66.7279   83.7829 C   0  0  0  0  0  0  0  0  0  0  0  0
    2.1570   67.6771   82.7931 C   0  0  0  0  0  0  0  0  0  0  0  0
    2.9758   68.7955   82.6518 C   0  0  0  0  0  0  0  0  0  0  0  0
    4.0481   68.9600   83.5057 C   0  0  0  0  0  0  0  0  0  0  0  0
    4.3625   68.0664   84.4726 N   0  0  0  0  0  0  0  0  0  0  0  0
    3.5599   66.9798   84.5972 C   0  0  0  0  0  0  0  0  0  0  0  0
    0.1507   62.7614   82.0837 C   0  0  0  0  0  0  0  0  0  0  0  0
    0.5564   63.6840   83.0112 C   0  0  0  0  0  0  0  0  0  0  0  0
    1.3768   64.7942   82.8170 N   0  0  0  0  0  0  0  0  0  0  0  0
    1.5760   65.5125   83.8882 C   0  0  0  0  0  0  0  0  0  0  0  0
    1.0258   65.2162   85.1347 N   0  0  0  0  0  0  0  0  0  0  0  0
    0.2310   64.1194   85.4153 C   0  0  0  0  0  0  0  0  0  0  0  0
   -0.1880   63.8826   86.5443 O   0  0  0  0  0  0  0  0  0  0  0  0
   -0.0106   63.3206   84.2343 C   0  0  0  0  0  0  0  0  0  0  0  0
   -0.7447   62.2050   84.1226 N   0  0  0  0  0  0  0  0  0  0  0  0
   -0.6376   61.8831   82.8027 N   0  0  0  0  0  0  0  0  0  0  0  0
    1.2191   65.8018   85.9417 H   0  0  0  0  0  0  0  0  0  0  0  0
   -0.2988   63.7369   79.8345 C   0  0  0  0  0  0  0  0  0  0  0  0
    0.4355   62.6635   80.6244 C   0  0  0  0  0  0  0  0  0  0  0  0
   -1.3037   60.6762   82.3290 C   0  0  0  0  0  0  0  0  0  0  0  0
   -2.2326   60.9682   81.1809 C   0  0  0  0  0  0  0  0  0  0  0  0
   -3.3483   61.7870   81.3556 C   0  0  0  0  0  0  0  0  0  0  0  0
   -4.1846   62.0291   80.2698 C   0  0  0  0  0  0  0  0  0  0  0  0
   -3.8933   61.4473   79.0427 C   0  0  0  0  0  0  0  0  0  0  0  0
   -2.7721   60.6412   78.9515 C   0  0  0  0  0  0  0  0  0  0  0  0
   -1.9410   60.3873   79.9868 N   0  0  0  0  0  0  0  0  0  0  0  0
    2.6571   70.0350   81.4466 S   0  0  0  0  0  0  0  0  0  0  0  0
    3.7387   70.9955   81.4728 O   0  0  0  0  0  0  0  0  0  0  0  0
    2.2882   69.3530   80.2250 O   0  0  0  0  0  0  0  0  0  0  0  0
    1.2705   70.8060   82.0615 N   0  0  0  0  0  0  0  0  0  0  0  0
    1.4487   72.2289   82.5063 C   0  0  0  0  0  0  0  0  0  0  0  0
    0.8568   73.2213   81.4888 C   0  0  0  0  0  0  0  0  0  0  0  0
   -0.6047   73.0706   81.3101 N   0  0  0  0  0  0  0  0  0  0  0  0
   -1.0242   71.6646   81.5006 C   0  0  0  0  0  0  0  0  0  0  0  0
    0.0650   70.6242   81.1853 C   0  0  0  0  0  0  0  0  0  0  0  0
   -1.0588   73.5995   80.0156 C   0  0  0  0  0  0  0  0  0  0  0  0
   -2.2474   72.8336   79.4432 C   0  0  0  0  0  0  0  0  0  0  0  0
    3.8701   66.0568   85.5649 O   0  0  0  0  0  0  0  0  0  0  0  0
    5.2205   66.0432   86.0568 C   0  0  0  0  0  0  0  0  0  0  0  0
    5.2530   65.5613   87.5076 C   0  0  0  0  0  0  0  0  0  0  0  0
    5.9826   65.0692   85.1415 C   0  0  0  0  0  0  0  0  0  0  0  0
    6.9334   65.8001   84.3585 O   0  0  0  0  0  0  0  0  0  0  0  0
    8.1552   66.0030   85.0555 C   0  0  0  0  0  0  0  0  0  0  0  0
 18 19  1  0  0  0
 19  7  1  0  0  0
  7  8  2  0  0  0
  8  9  1  0  0  0
  9 10  2  0  0  0
 10  1  1  0  0  0
  1  2  1  0  0  0
  2  3  2  0  0  0
  3 27  1  0  0  0
 27 28  2  0  0  0
 27 29  2  0  0  0
 27 30  1  0  0  0
 30 31  1  0  0  0
 31 32  1  0  0  0
 32 33  1  0  0  0
 33 36  1  0  0  0
 36 37  1  0  0  0
 33 34  1  0  0  0
 34 35  1  0  0  0
  3  4  1  0  0  0
  4  5  2  0  0  0
  5  6  1  0  0  0
  6 38  1  0  0  0
 38 39  1  0  0  0
 39 40  1  0  0  0
 39 41  1  0  0  0
 41 42  1  0  0  0
 42 43  1  0  0  0
 10 11  1  0  0  0
 11 12  1  0  0  0
 12 13  2  0  0  0
 12 14  1  0  0  0
 14 15  2  0  0  0
 15 16  1  0  0  0
 16 20  1  0  0  0
 20 21  1  0  0  0
 21 22  2  0  0  0
 22 23  1  0  0  0
 23 24  2  0  0  0
 24 25  1  0  0  0
 25 26  2  0  0  0
 16  7  1  0  0  0
 26 21  1  0  0  0
 14  8  1  0  0  0
  6  1  2  0  0  0
 35 30  1  0  0  0
 11 17  1  0  0  0
M  END
> <minimizedAffinity>
-9.61296

$$$$



 43 47  0  0  0  0  0  0  0  0999 V2000
    2.2121   66.7691   83.7059 C   0  0  0  0  0  0  0  0  0  0  0  0
    1.7633   67.7927   82.8584 C   0  0  0  0  0  0  0  0  0  0  0  0
    2.5232   68.9527   82.7237 C   0  0  0  0  0  0  0  0  0  0  0  0
    3.6922   69.0822   83.4464 C   0  0  0  0  0  0  0  0  0  0  0  0
    4.1564   68.1170   84.2741 N   0  0  0  0  0  0  0  0  0  0  0  0
    3.4094   66.9908   84.3934 C   0  0  0  0  0  0  0  0  0  0  0  0
    0.0313   62.7539   81.9637 C   0  0  0  0  0  0  0  0  0  0  0  0
    0.4269   63.6670   82.9048 C   0  0  0  0  0  0  0  0  0  0  0  0
    1.1913   64.8177   82.7176 N   0  0  0  0  0  0  0  0  0  0  0  0
    1.3944   65.5136   83.8028 C   0  0  0  0  0  0  0  0  0  0  0  0
    0.8990   65.1581   85.0568 N   0  0  0  0  0  0  0  0  0  0  0  0
    0.1624   64.0195   85.3298 C   0  0  0  0  0  0  0  0  0  0  0  0
   -0.2084   63.7326   86.4640 O   0  0  0  0  0  0  0  0  0  0  0  0
   -0.0831   63.2444   84.1339 C   0  0  0  0  0  0  0  0  0  0  0  0
   -0.7712   62.1009   84.0125 N   0  0  0  0  0  0  0  0  0  0  0  0
   -0.6939   61.8215   82.6809 N   0  0  0  0  0  0  0  0  0  0  0  0
    1.0933   65.7286   85.8742 H   0  0  0  0  0  0  0  0  0  0  0  0
   -0.4708   63.8227   79.7686 C   0  0  0  0  0  0  0  0  0  0  0  0
    0.2717   62.7100   80.4938 C   0  0  0  0  0  0  0  0  0  0  0  0
   -1.3222   60.6000   82.1930 C   0  0  0  0  0  0  0  0  0  0  0  0
   -2.2466   60.8740   81.0369 C   0  0  0  0  0  0  0  0  0  0  0  0
   -3.4173   61.6107   81.2178 C   0  0  0  0  0  0  0  0  0  0  0  0
   -4.2472   61.8386   80.1240 C   0  0  0  0  0  0  0  0  0  0  0  0
   -3.8949   61.3243   78.8828 C   0  0  0  0  0  0  0  0  0  0  0  0
   -2.7212   60.5976   78.7860 C   0  0  0  0  0  0  0  0  0  0  0  0
   -1.8946   60.3595   79.8287 N   0  0  0  0  0  0  0  0  0  0  0  0
    2.0134   70.2839   81.6949 S   0  0  0  0  0  0  0  0  0  0  0  0
    2.3815   69.9808   80.3290 O   0  0  0  0  0  0  0  0  0  0  0  0
    0.6466   70.5962   82.0524 O   0  0  0  0  0  0  0  0  0  0  0  0
    3.0036   71.5635   82.2219 N   0  0  0  0  0  0  0  0  0  0  0  0
    3.7566   72.2996   81.1516 C   0  0  0  0  0  0  0  0  0  0  0  0
    3.1201   73.6680   80.8470 C   0  0  0  0  0  0  0  0  0  0  0  0
    3.1328   74.5878   82.0064 N   0  0  0  0  0  0  0  0  0  0  0  0
    3.0283   73.8430   83.2806 C   0  0  0  0  0  0  0  0  0  0  0  0
    2.3026   72.4902   83.1726 C   0  0  0  0  0  0  0  0  0  0  0  0
    2.0950   75.6237   81.8992 C   0  0  0  0  0  0  0  0  0  0  0  0
    1.9947   76.4976   83.1455 C   0  0  0  0  0  0  0  0  0  0  0  0
    3.8703   65.9961   85.2197 O   0  0  0  0  0  0  0  0  0  0  0  0
    5.1827   66.1595   85.7826 C   0  0  0  0  0  0  0  0  0  0  0  0
    5.1910   65.7217   87.2477 C   0  0  0  0  0  0  0  0  0  0  0  0
    6.1067   65.2627   84.9403 C   0  0  0  0  0  0  0  0  0  0  0  0
    6.9859   66.0847   84.1639 O   0  0  0  0  0  0  0  0  0  0  0  0
    8.1582   66.4410   84.8841 C   0  0  0  0  0  0  0  0  0  0  0  0
 18 19  1  0  0  0
 19  7  1  0  0  0
  7  8  2  0  0  0
  8  9  1  0  0  0
  9 10  2  0  0  0
 10  1  1  0  0  0
  1  2  1  0  0  0
  2  3  2  0  0  0
  3 27  1  0  0  0
 27 28  2  0  0  0
 27 29  2  0  0  0
 27 30  1  0  0  0
 30 31  1  0  0  0
 31 32  1  0  0  0
 32 33  1  0  0  0
 33 36  1  0  0  0
 36 37  1  0  0  0
 33 34  1  0  0  0
 34 35  1  0  0  0
  3  4  1  0  0  0
  4  5  2  0  0  0
  5  6  1  0  0  0
  6 38  1  0  0  0
 38 39  1  0  0  0
 39 40  1  0  0  0
 39 41  1  0  0  0
 41 42  1  0  0  0
 42 43  1  0  0  0
 10 11  1  0  0  0
 11 12  1  0  0  0
 12 13  2  0  0  0
 12 14  1  0  0  0
 14 15  2  0  0  0
 15 16  1  0  0  0
 16 20  1  0  0  0
 20 21  1  0  0  0
 21 22  2  0  0  0
 22 23  1  0  0  0
 23 24  2  0  0  0
 24 25  1  0  0  0
 25 26  2  0  0  0
 16  7  1  0  0  0
 26 21  1  0  0  0
 14  8  1  0  0  0
  6  1  2  0  0  0
 35 30  1  0  0  0
 11 17  1  0  0  0
M  END
> <minimizedAffinity>
-9.30015

$$$$



 43 47  0  0  0  0  0  0  0  0999 V2000
   -1.5367   62.5365   82.7578 C   0  0  0  0  0  0  0  0  0  0  0  0
   -1.9104   62.1808   81.4535 C   0  0  0  0  0  0  0  0  0  0  0  0
   -2.7640   61.0973   81.2572 C   0  0  0  0  0  0  0  0  0  0  0  0
   -3.2066   60.3792   82.3501 C   0  0  0  0  0  0  0  0  0  0  0  0
   -2.8668   60.6918   83.6225 N   0  0  0  0  0  0  0  0  0  0  0  0
   -2.0384   61.7513   83.8005 C   0  0  0  0  0  0  0  0  0  0  0  0
    0.9595   66.4761   81.2876 C   0  0  0  0  0  0  0  0  0  0  0  0
    0.4693   65.5501   82.1697 C   0  0  0  0  0  0  0  0  0  0  0  0
   -0.3566   64.4598   81.9005 N   0  0  0  0  0  0  0  0  0  0  0  0
   -0.6474   63.7319   82.9439 C   0  0  0  0  0  0  0  0  0  0  0  0
   -0.1834   64.0003   84.2311 N   0  0  0  0  0  0  0  0  0  0  0  0
    0.6105   65.0766   84.5844 C   0  0  0  0  0  0  0  0  0  0  0  0
    0.9510   65.2897   85.7441 O   0  0  0  0  0  0  0  0  0  0  0  0
    0.9530   65.8856   83.4358 C   0  0  0  0  0  0  0  0  0  0  0  0
    1.7152   66.9870   83.3938 N   0  0  0  0  0  0  0  0  0  0  0  0
    1.7107   67.3283   82.0745 N   0  0  0  0  0  0  0  0  0  0  0  0
   -0.4464   63.4084   85.0134 H   0  0  0  0  0  0  0  0  0  0  0  0
    1.9808   66.0444   79.0553 C   0  0  0  0  0  0  0  0  0  0  0  0
    0.7835   66.5991   79.8131 C   0  0  0  0  0  0  0  0  0  0  0  0
    2.4333   68.5272   81.6679 C   0  0  0  0  0  0  0  0  0  0  0  0
    1.5736   69.7581   81.7767 C   0  0  0  0  0  0  0  0  0  0  0  0
    0.2911   69.7840   81.2283 C   0  0  0  0  0  0  0  0  0  0  0  0
   -0.4704   70.9429   81.3468 C   0  0  0  0  0  0  0  0  0  0  0  0
    0.0642   72.0453   82.0012 C   0  0  0  0  0  0  0  0  0  0  0  0
    1.3465   71.9436   82.5116 C   0  0  0  0  0  0  0  0  0  0  0  0
    2.1104   70.8329   82.4130 N   0  0  0  0  0  0  0  0  0  0  0  0
   -3.2591   60.5827   79.6508 S   0  0  0  0  0  0  0  0  0  0  0  0
   -3.6650   59.1955   79.7134 O   0  0  0  0  0  0  0  0  0  0  0  0
   -4.1468   61.6020   79.1344 O   0  0  0  0  0  0  0  0  0  0  0  0
   -1.8043   60.6532   78.7712 N   0  0  0  0  0  0  0  0  0  0  0  0
   -1.9382   60.7013   77.2764 C   0  0  0  0  0  0  0  0  0  0  0  0
   -1.6786   62.1161   76.7274 C   0  0  0  0  0  0  0  0  0  0  0  0
   -0.3052   62.6007   76.9909 N   0  0  0  0  0  0  0  0  0  0  0  0
    0.2228   62.0477   78.2576 C   0  0  0  0  0  0  0  0  0  0  0  0
   -0.8543   61.6899   79.2970 C   0  0  0  0  0  0  0  0  0  0  0  0
   -0.2249   64.0685   76.9668 C   0  0  0  0  0  0  0  0  0  0  0  0
   -1.4835   64.7249   76.4084 C   0  0  0  0  0  0  0  0  0  0  0  0
   -1.6921   62.0903   85.0849 O   0  0  0  0  0  0  0  0  0  0  0  0
   -2.7603   62.3212   86.0184 C   0  0  0  0  0  0  0  0  0  0  0  0
   -3.0509   61.0511   86.8187 C   0  0  0  0  0  0  0  0  0  0  0  0
   -2.2635   63.4465   86.9427 C   0  0  0  0  0  0  0  0  0  0  0  0
   -2.0481   62.9198   88.2570 O   0  0  0  0  0  0  0  0  0  0  0  0
   -0.7575   63.2431   88.7567 C   0  0  0  0  0  0  0  0  0  0  0  0
 18 19  1  0  0  0
 19  7  1  0  0  0
  7  8  2  0  0  0
  8  9  1  0  0  0
  9 10  2  0  0  0
 10  1  1  0  0  0
  1  2  1  0  0  0
  2  3  2  0  0  0
  3 27  1  0  0  0
 27 28  2  0  0  0
 27 29  2  0  0  0
 27 30  1  0  0  0
 30 31  1  0  0  0
 31 32  1  0  0  0
 32 33  1  0  0  0
 33 36  1  0  0  0
 36 37  1  0  0  0
 33 34  1  0  0  0
 34 35  1  0  0  0
  3  4  1  0  0  0
  4  5  2  0  0  0
  5  6  1  0  0  0
  6 38  1  0  0  0
 38 39  1  0  0  0
 39 40  1  0  0  0
 39 41  1  0  0  0
 41 42  1  0  0  0
 42 43  1  0  0  0
 10 11  1  0  0  0
 11 12  1  0  0  0
 12 13  2  0  0  0
 12 14  1  0  0  0
 14 15  2  0  0  0
 15 16  1  0  0  0
 16 20  1  0  0  0
 20 21  1  0  0  0
 21 22  2  0  0  0
 22 23  1  0  0  0
 23 24  2  0  0  0
 24 25  1  0  0  0
 25 26  2  0  0  0
 16  7  1  0  0  0
 26 21  1  0  0  0
 14  8  1  0  0  0
  6  1  2  0  0  0
 35 30  1  0  0  0
 11 17  1  0  0  0
M  END
> <minimizedAffinity>
-9.27881

$$$$



 43 47  0  0  0  0  0  0  0  0999 V2000
    0.2673   64.3994   83.7460 C   0  0  0  0  0  0  0  0  0  0  0  0
   -0.3015   63.7541   82.6382 C   0  0  0  0  0  0  0  0  0  0  0  0
   -1.2143   62.7212   82.8414 C   0  0  0  0  0  0  0  0  0  0  0  0
   -1.5230   62.3366   84.1308 C   0  0  0  0  0  0  0  0  0  0  0  0
   -0.9939   62.9347   85.2238 N   0  0  0  0  0  0  0  0  0  0  0  0
   -0.1096   63.9415   85.0124 C   0  0  0  0  0  0  0  0  0  0  0  0
    1.9966   68.2897   81.3402 C   0  0  0  0  0  0  0  0  0  0  0  0
    1.9384   67.3380   82.3235 C   0  0  0  0  0  0  0  0  0  0  0  0
    1.0093   66.3090   82.4695 N   0  0  0  0  0  0  0  0  0  0  0  0
    1.2181   65.5350   83.4993 C   0  0  0  0  0  0  0  0  0  0  0  0
    2.2748   65.7015   84.3937 N   0  0  0  0  0  0  0  0  0  0  0  0
    3.2165   66.7131   84.3362 C   0  0  0  0  0  0  0  0  0  0  0  0
    4.0992   66.8384   85.1797 O   0  0  0  0  0  0  0  0  0  0  0  0
    3.0067   67.5716   83.1917 C   0  0  0  0  0  0  0  0  0  0  0  0
    3.7279   68.6338   82.8074 N   0  0  0  0  0  0  0  0  0  0  0  0
    3.0986   69.0539   81.6740 N   0  0  0  0  0  0  0  0  0  0  0  0
    2.3888   65.0774   85.1869 H   0  0  0  0  0  0  0  0  0  0  0  0
   -0.0419   69.4311   80.4718 C   0  0  0  0  0  0  0  0  0  0  0  0
    1.1261   68.5101   80.1511 C   0  0  0  0  0  0  0  0  0  0  0  0
    3.6129   70.2372   80.9956 C   0  0  0  0  0  0  0  0  0  0  0  0
    2.8733   71.4811   81.4103 C   0  0  0  0  0  0  0  0  0  0  0  0
    2.8073   71.8587   82.7516 C   0  0  0  0  0  0  0  0  0  0  0  0
    2.1101   73.0136   83.0940 C   0  0  0  0  0  0  0  0  0  0  0  0
    1.4935   73.7580   82.0966 C   0  0  0  0  0  0  0  0  0  0  0  0
    1.5984   73.3136   80.7903 C   0  0  0  0  0  0  0  0  0  0  0  0
    2.2680   72.1973   80.4260 N   0  0  0  0  0  0  0  0  0  0  0  0
   -1.9522   61.8553   81.5013 S   0  0  0  0  0  0  0  0  0  0  0  0
   -1.9919   60.4461   81.8263 O   0  0  0  0  0  0  0  0  0  0  0  0
   -3.1535   62.5767   81.1409 O   0  0  0  0  0  0  0  0  0  0  0  0
   -0.8158   62.0625   80.2519 N   0  0  0  0  0  0  0  0  0  0  0  0
   -0.8119   61.0094   79.1816 C   0  0  0  0  0  0  0  0  0  0  0  0
   -1.4804   61.5105   77.8883 C   0  0  0  0  0  0  0  0  0  0  0  0
   -0.7778   62.6607   77.2770 N   0  0  0  0  0  0  0  0  0  0  0  0
   -0.1360   63.5047   78.3089 C   0  0  0  0  0  0  0  0  0  0  0  0
   -0.8149   63.4543   79.6890 C   0  0  0  0  0  0  0  0  0  0  0  0
   -1.6641   63.4492   76.4084 C   0  0  0  0  0  0  0  0  0  0  0  0
   -1.3339   64.9385   76.4152 C   0  0  0  0  0  0  0  0  0  0  0  0
    0.4286   64.5677   86.1091 O   0  0  0  0  0  0  0  0  0  0  0  0
    0.8888   63.7346   87.1863 C   0  0  0  0  0  0  0  0  0  0  0  0
    2.3411   64.0662   87.5316 C   0  0  0  0  0  0  0  0  0  0  0  0
   -0.0389   64.0465   88.3735 C   0  0  0  0  0  0  0  0  0  0  0  0
    0.4129   63.3306   89.5287 O   0  0  0  0  0  0  0  0  0  0  0  0
    0.2483   61.9263   89.3845 C   0  0  0  0  0  0  0  0  0  0  0  0
 18 19  1  0  0  0
 19  7  1  0  0  0
  7  8  2  0  0  0
  8  9  1  0  0  0
  9 10  2  0  0  0
 10  1  1  0  0  0
  1  2  1  0  0  0
  2  3  2  0  0  0
  3 27  1  0  0  0
 27 28  2  0  0  0
 27 29  2  0  0  0
 27 30  1  0  0  0
 30 31  1  0  0  0
 31 32  1  0  0  0
 32 33  1  0  0  0
 33 36  1  0  0  0
 36 37  1  0  0  0
 33 34  1  0  0  0
 34 35  1  0  0  0
  3  4  1  0  0  0
  4  5  2  0  0  0
  5  6  1  0  0  0
  6 38  1  0  0  0
 38 39  1  0  0  0
 39 40  1  0  0  0
 39 41  1  0  0  0
 41 42  1  0  0  0
 42 43  1  0  0  0
 10 11  1  0  0  0
 11 12  1  0  0  0
 12 13  2  0  0  0
 12 14  1  0  0  0
 14 15  2  0  0  0
 15 16  1  0  0  0
 16 20  1  0  0  0
 20 21  1  0  0  0
 21 22  2  0  0  0
 22 23  1  0  0  0
 23 24  2  0  0  0
 24 25  1  0  0  0
 25 26  2  0  0  0
 16  7  1  0  0  0
 26 21  1  0  0  0
 14  8  1  0  0  0
  6  1  2  0  0  0
 35 30  1  0  0  0
 11 17  1  0  0  0
M  END
> <minimizedAffinity>
-9.13450

$$$$



 43 47  0  0  0  0  0  0  0  0999 V2000
   -0.3448   64.8013   81.2116 C   0  0  0  0  0  0  0  0  0  0  0  0
   -0.4564   64.1683   82.4582 C   0  0  0  0  0  0  0  0  0  0  0  0
   -0.8325   62.8280   82.5145 C   0  0  0  0  0  0  0  0  0  0  0  0
   -1.1119   62.1549   81.3420 C   0  0  0  0  0  0  0  0  0  0  0  0
   -1.0162   62.7323   80.1214 N   0  0  0  0  0  0  0  0  0  0  0  0
   -0.6451   64.0365   80.0800 C   0  0  0  0  0  0  0  0  0  0  0  0
    2.4709   68.6001   82.4580 C   0  0  0  0  0  0  0  0  0  0  0  0
    1.4672   67.9342   81.8061 C   0  0  0  0  0  0  0  0  0  0  0  0
    1.1237   66.5868   81.9060 N   0  0  0  0  0  0  0  0  0  0  0  0
    0.1001   66.2350   81.1769 C   0  0  0  0  0  0  0  0  0  0  0  0
   -0.6084   67.1137   80.3583 N   0  0  0  0  0  0  0  0  0  0  0  0
   -0.3114   68.4530   80.1805 C   0  0  0  0  0  0  0  0  0  0  0  0
   -0.9422   69.1696   79.4092 O   0  0  0  0  0  0  0  0  0  0  0  0
    0.8128   68.8617   80.9931 C   0  0  0  0  0  0  0  0  0  0  0  0
    1.3657   70.0783   81.0936 N   0  0  0  0  0  0  0  0  0  0  0  0
    2.3714   69.8985   81.9954 N   0  0  0  0  0  0  0  0  0  0  0  0
   -1.3931   66.7886   79.8016 H   0  0  0  0  0  0  0  0  0  0  0  0
    2.9901   68.3389   84.8818 C   0  0  0  0  0  0  0  0  0  0  0  0
    3.4679   68.1168   83.4543 C   0  0  0  0  0  0  0  0  0  0  0  0
    3.2186   71.0387   82.3229 C   0  0  0  0  0  0  0  0  0  0  0  0
    2.5771   72.3407   81.9233 C   0  0  0  0  0  0  0  0  0  0  0  0
    2.9996   73.0245   80.7831 C   0  0  0  0  0  0  0  0  0  0  0  0
    2.3835   74.2273   80.4504 C   0  0  0  0  0  0  0  0  0  0  0  0
    1.3695   74.7204   81.2614 C   0  0  0  0  0  0  0  0  0  0  0  0
    1.0122   73.9872   82.3794 C   0  0  0  0  0  0  0  0  0  0  0  0
    1.5908   72.8167   82.7288 N   0  0  0  0  0  0  0  0  0  0  0  0
   -1.0109   61.9756   84.0416 S   0  0  0  0  0  0  0  0  0  0  0  0
   -2.2774   61.2763   84.0364 O   0  0  0  0  0  0  0  0  0  0  0  0
    0.2320   61.2757   84.2837 O   0  0  0  0  0  0  0  0  0  0  0  0
   -1.1303   63.2463   85.1668 N   0  0  0  0  0  0  0  0  0  0  0  0
   -2.1478   63.0697   86.2568 C   0  0  0  0  0  0  0  0  0  0  0  0
   -1.4868   62.7002   87.5974 C   0  0  0  0  0  0  0  0  0  0  0  0
   -0.5775   63.7504   88.1079 N   0  0  0  0  0  0  0  0  0  0  0  0
    0.0606   64.4909   86.9972 C   0  0  0  0  0  0  0  0  0  0  0  0
    0.2050   63.6872   85.6928 C   0  0  0  0  0  0  0  0  0  0  0  0
    0.4215   63.2084   89.0405 C   0  0  0  0  0  0  0  0  0  0  0  0
    0.2588   61.7113   89.2838 C   0  0  0  0  0  0  0  0  0  0  0  0
   -0.5316   64.6358   78.8501 O   0  0  0  0  0  0  0  0  0  0  0  0
   -0.8827   63.8516   77.6979 C   0  0  0  0  0  0  0  0  0  0  0  0
   -1.2765   64.7627   76.5347 C   0  0  0  0  0  0  0  0  0  0  0  0
    0.3779   63.0400   77.3522 C   0  0  0  0  0  0  0  0  0  0  0  0
    0.0277   61.9797   76.4553 O   0  0  0  0  0  0  0  0  0  0  0  0
   -0.4832   60.8457   77.1430 C   0  0  0  0  0  0  0  0  0  0  0  0
 18 19  1  0  0  0
 19  7  1  0  0  0
  7  8  2  0  0  0
  8  9  1  0  0  0
  9 10  2  0  0  0
 10  1  1  0  0  0
  1  2  1  0  0  0
  2  3  2  0  0  0
  3 27  1  0  0  0
 27 28  2  0  0  0
 27 29  2  0  0  0
 27 30  1  0  0  0
 30 31  1  0  0  0
 31 32  1  0  0  0
 32 33  1  0  0  0
 33 36  1  0  0  0
 36 37  1  0  0  0
 33 34  1  0  0  0
 34 35  1  0  0  0
  3  4  1  0  0  0
  4  5  2  0  0  0
  5  6  1  0  0  0
  6 38  1  0  0  0
 38 39  1  0  0  0
 39 40  1  0  0  0
 39 41  1  0  0  0
 41 42  1  0  0  0
 42 43  1  0  0  0
 10 11  1  0  0  0
 11 12  1  0  0  0
 12 13  2  0  0  0
 12 14  1  0  0  0
 14 15  2  0  0  0
 15 16  1  0  0  0
 16 20  1  0  0  0
 20 21  1  0  0  0
 21 22  2  0  0  0
 22 23  1  0  0  0
 23 24  2  0  0  0
 24 25  1  0  0  0
 25 26  2  0  0  0
 16  7  1  0  0  0
 26 21  1  0  0  0
 14  8  1  0  0  0
  6  1  2  0  0  0
 35 30  1  0  0  0
 11 17  1  0  0  0
M  END
> <minimizedAffinity>
-8.65225

$$$$



 43 47  0  0  0  0  0  0  0  0999 V2000
    1.8342   67.4360   82.8049 C   0  0  0  0  0  0  0  0  0  0  0  0
    0.9092   66.5520   82.2304 C   0  0  0  0  0  0  0  0  0  0  0  0
    0.6733   65.3192   82.8353 C   0  0  0  0  0  0  0  0  0  0  0  0
    1.3735   64.9816   83.9762 C   0  0  0  0  0  0  0  0  0  0  0  0
    2.2740   65.8077   84.5584 N   0  0  0  0  0  0  0  0  0  0  0  0
    2.4915   67.0066   83.9620 C   0  0  0  0  0  0  0  0  0  0  0  0
    0.4659   71.8619   81.2387 C   0  0  0  0  0  0  0  0  0  0  0  0
    1.3161   70.8141   81.4736 C   0  0  0  0  0  0  0  0  0  0  0  0
    1.0295   69.5960   82.0881 N   0  0  0  0  0  0  0  0  0  0  0  0
    2.0407   68.7737   82.1549 C   0  0  0  0  0  0  0  0  0  0  0  0
    3.3116   69.0647   81.6604 N   0  0  0  0  0  0  0  0  0  0  0  0
    3.6830   70.2585   81.0685 C   0  0  0  0  0  0  0  0  0  0  0  0
    4.8309   70.4771   80.6932 O   0  0  0  0  0  0  0  0  0  0  0  0
    2.5690   71.1756   80.9744 C   0  0  0  0  0  0  0  0  0  0  0  0
    2.5500   72.4074   80.4470 N   0  0  0  0  0  0  0  0  0  0  0  0
    1.2576   72.8062   80.6134 N   0  0  0  0  0  0  0  0  0  0  0  0
    4.0696   68.3941   81.7456 H   0  0  0  0  0  0  0  0  0  0  0  0
   -1.8053   72.2177   80.2754 C   0  0  0  0  0  0  0  0  0  0  0  0
   -0.9844   72.0206   81.5414 C   0  0  0  0  0  0  0  0  0  0  0  0
    0.8841   74.1437   80.1700 C   0  0  0  0  0  0  0  0  0  0  0  0
    0.8516   75.1201   81.3154 C   0  0  0  0  0  0  0  0  0  0  0  0
   -0.3590   75.6316   81.7833 C   0  0  0  0  0  0  0  0  0  0  0  0
   -0.3458   76.5353   82.8417 C   0  0  0  0  0  0  0  0  0  0  0  0
    0.8685   76.9101   83.4022 C   0  0  0  0  0  0  0  0  0  0  0  0
    2.0267   76.3642   82.8772 C   0  0  0  0  0  0  0  0  0  0  0  0
    2.0467   75.4848   81.8509 N   0  0  0  0  0  0  0  0  0  0  0  0
   -0.4573   64.1539   82.1615 S   0  0  0  0  0  0  0  0  0  0  0  0
   -0.7566   63.1618   83.1711 O   0  0  0  0  0  0  0  0  0  0  0  0
   -1.5093   64.9090   81.5158 O   0  0  0  0  0  0  0  0  0  0  0  0
    0.4667   63.3934   80.9519 N   0  0  0  0  0  0  0  0  0  0  0  0
    0.3802   61.8954   80.8989 C   0  0  0  0  0  0  0  0  0  0  0  0
   -0.5023   61.4176   79.7313 C   0  0  0  0  0  0  0  0  0  0  0  0
    0.0273   61.8040   78.4044 N   0  0  0  0  0  0  0  0  0  0  0  0
    0.7589   63.0881   78.4742 C   0  0  0  0  0  0  0  0  0  0  0  0
    0.2954   64.0273   79.6018 C   0  0  0  0  0  0  0  0  0  0  0  0
   -1.0261   61.8371   77.3792 C   0  0  0  0  0  0  0  0  0  0  0  0
   -2.4126   62.1009   77.9581 C   0  0  0  0  0  0  0  0  0  0  0  0
    3.3930   67.8623   84.5447 O   0  0  0  0  0  0  0  0  0  0  0  0
    4.6589   67.3142   84.9485 C   0  0  0  0  0  0  0  0  0  0  0  0
    5.7504   67.7068   83.9521 C   0  0  0  0  0  0  0  0  0  0  0  0
    4.9447   67.9159   86.3354 C   0  0  0  0  0  0  0  0  0  0  0  0
    5.5433   66.9183   87.1707 O   0  0  0  0  0  0  0  0  0  0  0  0
    5.1492   65.6044   86.7989 C   0  0  0  0  0  0  0  0  0  0  0  0
 18 19  1  0  0  0
 19  7  1  0  0  0
  7  8  2  0  0  0
  8  9  1  0  0  0
  9 10  2  0  0  0
 10  1  1  0  0  0
  1  2  1  0  0  0
  2  3  2  0  0  0
  3 27  1  0  0  0
 27 28  2  0  0  0
 27 29  2  0  0  0
 27 30  1  0  0  0
 30 31  1  0  0  0
 31 32  1  0  0  0
 32 33  1  0  0  0
 33 36  1  0  0  0
 36 37  1  0  0  0
 33 34  1  0  0  0
 34 35  1  0  0  0
  3  4  1  0  0  0
  4  5  2  0  0  0
  5  6  1  0  0  0
  6 38  1  0  0  0
 38 39  1  0  0  0
 39 40  1  0  0  0
 39 41  1  0  0  0
 41 42  1  0  0  0
 42 43  1  0  0  0
 10 11  1  0  0  0
 11 12  1  0  0  0
 12 13  2  0  0  0
 12 14  1  0  0  0
 14 15  2  0  0  0
 15 16  1  0  0  0
 16 20  1  0  0  0
 20 21  1  0  0  0
 21 22  2  0  0  0
 22 23  1  0  0  0
 23 24  2  0  0  0
 24 25  1  0  0  0
 25 26  2  0  0  0
 16  7  1  0  0  0
 26 21  1  0  0  0
 14  8  1  0  0  0
  6  1  2  0  0  0
 35 30  1  0  0  0
 11 17  1  0  0  0
M  END
> <minimizedAffinity>
-8.59496

$$$$



 43 47  0  0  0  0  0  0  0  0999 V2000
    1.4752   67.8251   81.9412 C   0  0  0  0  0  0  0  0  0  0  0  0
    0.9940   69.0823   81.5471 C   0  0  0  0  0  0  0  0  0  0  0  0
    1.5345   70.2323   82.1186 C   0  0  0  0  0  0  0  0  0  0  0  0
    2.5174   70.1108   83.0803 C   0  0  0  0  0  0  0  0  0  0  0  0
    3.0058   68.9155   83.4865 N   0  0  0  0  0  0  0  0  0  0  0  0
    2.4741   67.8037   82.9195 C   0  0  0  0  0  0  0  0  0  0  0  0
   -1.0975   63.6697   81.7769 C   0  0  0  0  0  0  0  0  0  0  0  0
   -0.3229   64.6934   81.2996 C   0  0  0  0  0  0  0  0  0  0  0  0
    0.1688   65.7960   81.9967 N   0  0  0  0  0  0  0  0  0  0  0  0
    0.9030   66.6037   81.2814 C   0  0  0  0  0  0  0  0  0  0  0  0
    1.1874   66.4032   79.9311 N   0  0  0  0  0  0  0  0  0  0  0  0
    0.7126   65.3553   79.1631 C   0  0  0  0  0  0  0  0  0  0  0  0
    0.9577   65.2546   77.9648 O   0  0  0  0  0  0  0  0  0  0  0  0
   -0.0919   64.4433   79.9455 C   0  0  0  0  0  0  0  0  0  0  0  0
   -0.6953   63.3157   79.5451 N   0  0  0  0  0  0  0  0  0  0  0  0
   -1.2984   62.8567   80.6776 N   0  0  0  0  0  0  0  0  0  0  0  0
    1.7567   67.0671   79.4148 H   0  0  0  0  0  0  0  0  0  0  0  0
   -0.6656   62.5750   83.9741 C   0  0  0  0  0  0  0  0  0  0  0  0
   -1.6287   63.4119   83.1450 C   0  0  0  0  0  0  0  0  0  0  0  0
   -2.0888   61.6348   80.5935 C   0  0  0  0  0  0  0  0  0  0  0  0
   -2.3569   61.2434   79.1648 C   0  0  0  0  0  0  0  0  0  0  0  0
   -3.3192   61.9139   78.4094 C   0  0  0  0  0  0  0  0  0  0  0  0
   -3.5398   61.5188   77.0933 C   0  0  0  0  0  0  0  0  0  0  0  0
   -2.8033   60.4660   76.5656 C   0  0  0  0  0  0  0  0  0  0  0  0
   -1.8723   59.8468   77.3809 C   0  0  0  0  0  0  0  0  0  0  0  0
   -1.6349   60.2071   78.6619 N   0  0  0  0  0  0  0  0  0  0  0  0
    0.9679   71.8395   81.6872 S   0  0  0  0  0  0  0  0  0  0  0  0
   -0.2764   71.7122   80.9602 O   0  0  0  0  0  0  0  0  0  0  0  0
    1.0612   72.6554   82.8785 O   0  0  0  0  0  0  0  0  0  0  0  0
    2.1531   72.3708   80.5880 N   0  0  0  0  0  0  0  0  0  0  0  0
    2.0501   73.8024   80.1468 C   0  0  0  0  0  0  0  0  0  0  0  0
    3.1038   74.6875   80.8373 C   0  0  0  0  0  0  0  0  0  0  0  0
    4.4945   74.3000   80.5116 N   0  0  0  0  0  0  0  0  0  0  0  0
    4.6015   72.8437   80.2733 C   0  0  0  0  0  0  0  0  0  0  0  0
    3.5457   71.9968   81.0058 C   0  0  0  0  0  0  0  0  0  0  0  0
    5.4467   74.7514   81.5368 C   0  0  0  0  0  0  0  0  0  0  0  0
    4.7766   75.0876   82.8653 C   0  0  0  0  0  0  0  0  0  0  0  0
    2.9650   66.5828   83.3107 O   0  0  0  0  0  0  0  0  0  0  0  0
    2.9015   66.2625   84.7105 C   0  0  0  0  0  0  0  0  0  0  0  0
    1.8203   65.2121   84.9670 C   0  0  0  0  0  0  0  0  0  0  0  0
    4.2926   65.7124   85.0707 C   0  0  0  0  0  0  0  0  0  0  0  0
    4.9422   66.6182   85.9700 O   0  0  0  0  0  0  0  0  0  0  0  0
    5.8292   67.4983   85.2928 C   0  0  0  0  0  0  0  0  0  0  0  0
 18 19  1  0  0  0
 19  7  1  0  0  0
  7  8  2  0  0  0
  8  9  1  0  0  0
  9 10  2  0  0  0
 10  1  1  0  0  0
  1  2  1  0  0  0
  2  3  2  0  0  0
  3 27  1  0  0  0
 27 28  2  0  0  0
 27 29  2  0  0  0
 27 30  1  0  0  0
 30 31  1  0  0  0
 31 32  1  0  0  0
 32 33  1  0  0  0
 33 36  1  0  0  0
 36 37  1  0  0  0
 33 34  1  0  0  0
 34 35  1  0  0  0
  3  4  1  0  0  0
  4  5  2  0  0  0
  5  6  1  0  0  0
  6 38  1  0  0  0
 38 39  1  0  0  0
 39 40  1  0  0  0
 39 41  1  0  0  0
 41 42  1  0  0  0
 42 43  1  0  0  0
 10 11  1  0  0  0
 11 12  1  0  0  0
 12 13  2  0  0  0
 12 14  1  0  0  0
 14 15  2  0  0  0
 15 16  1  0  0  0
 16 20  1  0  0  0
 20 21  1  0  0  0
 21 22  2  0  0  0
 22 23  1  0  0  0
 23 24  2  0  0  0
 24 25  1  0  0  0
 25 26  2  0  0  0
 16  7  1  0  0  0
 26 21  1  0  0  0
 14  8  1  0  0  0
  6  1  2  0  0  0
 35 30  1  0  0  0
 11 17  1  0  0  0
M  END
> <minimizedAffinity>
-8.45212

$$$$



 43 47  0  0  0  0  0  0  0  0999 V2000
   -0.6619   63.9708   83.0124 C   0  0  0  0  0  0  0  0  0  0  0  0
   -1.2898   63.1307   82.0811 C   0  0  0  0  0  0  0  0  0  0  0  0
   -1.9525   61.9889   82.5265 C   0  0  0  0  0  0  0  0  0  0  0  0
   -1.9575   61.6936   83.8751 C   0  0  0  0  0  0  0  0  0  0  0  0
   -1.3621   62.4794   84.8026 N   0  0  0  0  0  0  0  0  0  0  0  0
   -0.7237   63.5901   84.3565 C   0  0  0  0  0  0  0  0  0  0  0  0
    2.5466   67.6567   83.1944 C   0  0  0  0  0  0  0  0  0  0  0  0
    1.5426   66.8827   82.6760 C   0  0  0  0  0  0  0  0  0  0  0  0
    0.9737   65.7335   83.2230 N   0  0  0  0  0  0  0  0  0  0  0  0
    0.0116   65.2151   82.5098 C   0  0  0  0  0  0  0  0  0  0  0  0
   -0.4298   65.7469   81.2987 N   0  0  0  0  0  0  0  0  0  0  0  0
    0.1025   66.8614   80.6759 C   0  0  0  0  0  0  0  0  0  0  0  0
   -0.2958   67.2578   79.5847 O   0  0  0  0  0  0  0  0  0  0  0  0
    1.1612   67.4558   81.4612 C   0  0  0  0  0  0  0  0  0  0  0  0
    1.8870   68.5479   81.1848 N   0  0  0  0  0  0  0  0  0  0  0  0
    2.7221   68.6560   82.2562 N   0  0  0  0  0  0  0  0  0  0  0  0
   -1.1768   65.3001   80.7754 H   0  0  0  0  0  0  0  0  0  0  0  0
    4.3676   66.4368   84.3813 C   0  0  0  0  0  0  0  0  0  0  0  0
    3.3112   67.5286   84.4669 C   0  0  0  0  0  0  0  0  0  0  0  0
    3.6933   69.7430   82.2691 C   0  0  0  0  0  0  0  0  0  0  0  0
    3.0445   71.0714   81.9849 C   0  0  0  0  0  0  0  0  0  0  0  0
    3.4786   71.8653   80.9232 C   0  0  0  0  0  0  0  0  0  0  0  0
    2.8552   73.0888   80.6964 C   0  0  0  0  0  0  0  0  0  0  0  0
    1.8223   73.4924   81.5328 C   0  0  0  0  0  0  0  0  0  0  0  0
    1.4543   72.6520   82.5688 C   0  0  0  0  0  0  0  0  0  0  0  0
    2.0397   71.4587   82.8147 N   0  0  0  0  0  0  0  0  0  0  0  0
   -2.7450   60.8808   81.4155 S   0  0  0  0  0  0  0  0  0  0  0  0
   -2.8736   59.5919   82.0600 O   0  0  0  0  0  0  0  0  0  0  0  0
   -3.8986   61.5707   80.8800 O   0  0  0  0  0  0  0  0  0  0  0  0
   -1.5991   60.7194   80.1681 N   0  0  0  0  0  0  0  0  0  0  0  0
   -2.0979   60.9782   78.7758 C   0  0  0  0  0  0  0  0  0  0  0  0
   -1.6366   62.3507   78.2522 C   0  0  0  0  0  0  0  0  0  0  0  0
   -0.1653   62.4692   78.1453 N   0  0  0  0  0  0  0  0  0  0  0  0
    0.5128   61.6597   79.1816 C   0  0  0  0  0  0  0  0  0  0  0  0
   -0.3132   61.4370   80.4608 C   0  0  0  0  0  0  0  0  0  0  0  0
    0.2783   63.8706   78.1780 C   0  0  0  0  0  0  0  0  0  0  0  0
   -0.5056   64.7659   77.2236 C   0  0  0  0  0  0  0  0  0  0  0  0
   -0.1239   64.4053   85.2840 O   0  0  0  0  0  0  0  0  0  0  0  0
    0.5740   63.7708   86.3686 C   0  0  0  0  0  0  0  0  0  0  0  0
    1.9659   64.3816   86.5348 C   0  0  0  0  0  0  0  0  0  0  0  0
   -0.2866   64.0269   87.6180 C   0  0  0  0  0  0  0  0  0  0  0  0
    0.4653   63.6881   88.7890 O   0  0  0  0  0  0  0  0  0  0  0  0
    0.2698   62.3345   89.1757 C   0  0  0  0  0  0  0  0  0  0  0  0
 18 19  1  0  0  0
 19  7  1  0  0  0
  7  8  2  0  0  0
  8  9  1  0  0  0
  9 10  2  0  0  0
 10  1  1  0  0  0
  1  2  1  0  0  0
  2  3  2  0  0  0
  3 27  1  0  0  0
 27 28  2  0  0  0
 27 29  2  0  0  0
 27 30  1  0  0  0
 30 31  1  0  0  0
 31 32  1  0  0  0
 32 33  1  0  0  0
 33 36  1  0  0  0
 36 37  1  0  0  0
 33 34  1  0  0  0
 34 35  1  0  0  0
  3  4  1  0  0  0
  4  5  2  0  0  0
  5  6  1  0  0  0
  6 38  1  0  0  0
 38 39  1  0  0  0
 39 40  1  0  0  0
 39 41  1  0  0  0
 41 42  1  0  0  0
 42 43  1  0  0  0
 10 11  1  0  0  0
 11 12  1  0  0  0
 12 13  2  0  0  0
 12 14  1  0  0  0
 14 15  2  0  0  0
 15 16  1  0  0  0
 16 20  1  0  0  0
 20 21  1  0  0  0
 21 22  2  0  0  0
 22 23  1  0  0  0
 23 24  2  0  0  0
 24 25  1  0  0  0
 25 26  2  0  0  0
 16  7  1  0  0  0
 26 21  1  0  0  0
 14  8  1  0  0  0
  6  1  2  0  0  0
 35 30  1  0  0  0
 11 17  1  0  0  0
M  END
> <minimizedAffinity>
-8.39720

$$$$



 43 47  0  0  0  0  0  0  0  0999 V2000
    2.1151   67.5135   82.0503 C   0  0  0  0  0  0  0  0  0  0  0  0
    2.0120   68.8126   81.5316 C   0  0  0  0  0  0  0  0  0  0  0  0
    2.7524   69.8416   82.1098 C   0  0  0  0  0  0  0  0  0  0  0  0
    3.5556   69.5667   83.1985 C   0  0  0  0  0  0  0  0  0  0  0  0
    3.6797   68.3266   83.7268 N   0  0  0  0  0  0  0  0  0  0  0  0
    2.9567   67.3328   83.1523 C   0  0  0  0  0  0  0  0  0  0  0  0
   -0.9665   63.7191   81.9122 C   0  0  0  0  0  0  0  0  0  0  0  0
   -0.1143   64.6707   81.4181 C   0  0  0  0  0  0  0  0  0  0  0  0
    0.5729   65.6579   82.1226 N   0  0  0  0  0  0  0  0  0  0  0  0
    1.3368   66.4158   81.3842 C   0  0  0  0  0  0  0  0  0  0  0  0
    1.4722   66.2709   80.0040 N   0  0  0  0  0  0  0  0  0  0  0  0
    0.8022   65.3403   79.2303 C   0  0  0  0  0  0  0  0  0  0  0  0
    0.9250   65.2890   78.0102 O   0  0  0  0  0  0  0  0  0  0  0  0
   -0.0382   64.4832   80.0365 C   0  0  0  0  0  0  0  0  0  0  0  0
   -0.8125   63.4653   79.6362 N   0  0  0  0  0  0  0  0  0  0  0  0
   -1.3657   63.0098   80.7954 N   0  0  0  0  0  0  0  0  0  0  0  0
    2.0726   66.8933   79.4715 H   0  0  0  0  0  0  0  0  0  0  0  0
   -0.4811   62.4414   83.9965 C   0  0  0  0  0  0  0  0  0  0  0  0
   -1.4021   63.4388   83.3093 C   0  0  0  0  0  0  0  0  0  0  0  0
   -2.3085   61.9004   80.7225 C   0  0  0  0  0  0  0  0  0  0  0  0
   -2.4245   61.3607   79.3220 C   0  0  0  0  0  0  0  0  0  0  0  0
   -3.3474   61.8976   78.4241 C   0  0  0  0  0  0  0  0  0  0  0  0
   -3.4262   61.3675   77.1396 C   0  0  0  0  0  0  0  0  0  0  0  0
   -2.5911   60.3163   76.7841 C   0  0  0  0  0  0  0  0  0  0  0  0
   -1.7074   59.8340   77.7336 C   0  0  0  0  0  0  0  0  0  0  0  0
   -1.6069   60.3272   78.9881 N   0  0  0  0  0  0  0  0  0  0  0  0
    2.6587   71.4967   81.5249 S   0  0  0  0  0  0  0  0  0  0  0  0
    3.4839   72.3335   82.3687 O   0  0  0  0  0  0  0  0  0  0  0  0
    2.8539   71.4513   80.0920 O   0  0  0  0  0  0  0  0  0  0  0  0
    1.0349   71.9074   81.8248 N   0  0  0  0  0  0  0  0  0  0  0  0
    0.7653   73.3519   82.1336 C   0  0  0  0  0  0  0  0  0  0  0  0
    0.1371   74.0825   80.9328 C   0  0  0  0  0  0  0  0  0  0  0  0
   -1.1819   73.5359   80.5430 N   0  0  0  0  0  0  0  0  0  0  0  0
   -1.2612   72.0843   80.8178 C   0  0  0  0  0  0  0  0  0  0  0  0
    0.0934   71.3543   80.7944 C   0  0  0  0  0  0  0  0  0  0  0  0
   -1.5123   73.8399   79.1430 C   0  0  0  0  0  0  0  0  0  0  0  0
   -2.9063   73.3663   78.7436 C   0  0  0  0  0  0  0  0  0  0  0  0
    3.0787   66.0662   83.6675 O   0  0  0  0  0  0  0  0  0  0  0  0
    3.0303   65.9267   85.0972 C   0  0  0  0  0  0  0  0  0  0  0  0
    1.8550   65.0375   85.5051 C   0  0  0  0  0  0  0  0  0  0  0  0
    4.3680   65.2780   85.4935 C   0  0  0  0  0  0  0  0  0  0  0  0
    4.8275   65.8521   86.7224 O   0  0  0  0  0  0  0  0  0  0  0  0
    5.5631   67.0495   86.5100 C   0  0  0  0  0  0  0  0  0  0  0  0
 18 19  1  0  0  0
 19  7  1  0  0  0
  7  8  2  0  0  0
  8  9  1  0  0  0
  9 10  2  0  0  0
 10  1  1  0  0  0
  1  2  1  0  0  0
  2  3  2  0  0  0
  3 27  1  0  0  0
 27 28  2  0  0  0
 27 29  2  0  0  0
 27 30  1  0  0  0
 30 31  1  0  0  0
 31 32  1  0  0  0
 32 33  1  0  0  0
 33 36  1  0  0  0
 36 37  1  0  0  0
 33 34  1  0  0  0
 34 35  1  0  0  0
  3  4  1  0  0  0
  4  5  2  0  0  0
  5  6  1  0  0  0
  6 38  1  0  0  0
 38 39  1  0  0  0
 39 40  1  0  0  0
 39 41  1  0  0  0
 41 42  1  0  0  0
 42 43  1  0  0  0
 10 11  1  0  0  0
 11 12  1  0  0  0
 12 13  2  0  0  0
 12 14  1  0  0  0
 14 15  2  0  0  0
 15 16  1  0  0  0
 16 20  1  0  0  0
 20 21  1  0  0  0
 21 22  2  0  0  0
 22 23  1  0  0  0
 23 24  2  0  0  0
 24 25  1  0  0  0
 25 26  2  0  0  0
 16  7  1  0  0  0
 26 21  1  0  0  0
 14  8  1  0  0  0
  6  1  2  0  0  0
 35 30  1  0  0  0
 11 17  1  0  0  0
M  END
> <minimizedAffinity>
-8.35373

$$$$
