
     RDKit          3D

 63 65  0  0  0  0  0  0  0  0999 V2000
   -2.4297    6.5612    1.4455 C   0  0  0  0  0  0  0  0  0  0  0  0
   -2.4603    5.1373    0.9205 C   0  0  0  0  0  0  0  0  0  0  0  0
   -1.2719    4.3212    1.4206 C   0  0  0  0  0  0  0  0  0  0  0  0
   -1.3918    3.0052    0.8742 O   0  0  0  0  0  0  0  0  0  0  0  0
   -0.4318    2.0756    1.1865 C   0  0  0  0  0  0  0  0  0  0  0  0
    0.6672    2.3558    2.0151 C   0  0  0  0  0  0  0  0  0  0  0  0
    1.6199    1.3744    2.2996 C   0  0  0  0  0  0  0  0  0  0  0  0
    1.4751    0.1013    1.7560 C   0  0  0  0  0  0  0  0  0  0  0  0
    2.6772   -1.1584    2.0982 S   0  0  0  0  0  0  0  0  0  0  0  0
    1.9778   -2.2461    2.7456 O   0  0  0  0  0  0  0  0  0  0  0  0
    3.8309   -0.5319    2.7102 O   0  0  0  0  0  0  0  0  0  0  0  0
    3.1471   -1.6649    0.5440 N   0  0  0  0  0  0  0  0  0  0  0  0
    3.8816   -0.6536   -0.2841 C   0  0  0  0  0  0  0  0  0  0  0  0
    5.3835   -0.9782   -0.3686 C   0  0  0  0  0  0  0  0  0  0  0  0
    5.6563   -2.2710   -1.0316 N   0  0  0  0  0  0  0  0  0  0  0  0
    6.9703   -2.7779   -0.6425 C   0  0  0  0  0  0  0  0  0  0  0  0
    4.5851   -3.2540   -0.7658 C   0  0  0  0  0  0  0  0  0  0  0  0
    3.8030   -3.0128    0.5381 C   0  0  0  0  0  0  0  0  0  0  0  0
    0.3898   -0.2018    0.9324 C   0  0  0  0  0  0  0  0  0  0  0  0
   -0.5725    0.7798    0.6355 C   0  0  0  0  0  0  0  0  0  0  0  0
   -1.6978    0.3638   -0.2692 C   0  0  0  0  0  0  0  0  0  0  0  0
   -1.7045   -0.8101   -0.8168 N   0  0  0  0  0  0  0  0  0  0  0  0
   -2.7566   -1.1636   -1.6347 C   0  0  0  0  0  0  0  0  0  0  0  0
   -2.6244   -2.5733   -2.1805 C   0  0  0  0  0  0  0  0  0  0  0  0
   -2.8829   -3.6239   -1.1076 C   0  0  0  0  0  0  0  0  0  0  0  0
   -3.7913   -0.3467   -1.9232 C   0  0  0  0  0  0  0  0  0  0  0  0
   -4.9636   -0.6362   -2.8217 C   0  0  0  0  0  0  0  0  0  0  0  0
   -6.1643   -1.1533   -2.0421 C   0  0  0  0  0  0  0  0  0  0  0  0
   -3.7701    1.0008   -1.2974 C   0  0  0  0  0  0  0  0  0  0  0  0
   -4.6503    1.8341   -1.4880 O   0  0  0  0  0  0  0  0  0  0  0  0
   -2.7067    1.2585   -0.4909 N   0  0  0  0  0  0  0  0  0  0  0  0
   -1.5218    7.0796    1.1210 H   0  0  0  0  0  0  0  0  0  0  0  0
   -3.2927    7.1218    1.0728 H   0  0  0  0  0  0  0  0  0  0  0  0
   -2.4617    6.5763    2.5396 H   0  0  0  0  0  0  0  0  0  0  0  0
   -2.4656    5.1442   -0.1761 H   0  0  0  0  0  0  0  0  0  0  0  0
   -3.3946    4.6487    1.2226 H   0  0  0  0  0  0  0  0  0  0  0  0
   -0.3397    4.7862    1.0786 H   0  0  0  0  0  0  0  0  0  0  0  0
   -1.2947    4.2767    2.5158 H   0  0  0  0  0  0  0  0  0  0  0  0
    0.8150    3.3348    2.4614 H   0  0  0  0  0  0  0  0  0  0  0  0
    2.4625    1.6115    2.9465 H   0  0  0  0  0  0  0  0  0  0  0  0
    3.7517    0.3567    0.1170 H   0  0  0  0  0  0  0  0  0  0  0  0
    3.4317   -0.6463   -1.2844 H   0  0  0  0  0  0  0  0  0  0  0  0
    5.7947   -0.9699    0.6498 H   0  0  0  0  0  0  0  0  0  0  0  0
    5.8914   -0.1853   -0.9295 H   0  0  0  0  0  0  0  0  0  0  0  0
    7.7494   -2.0415   -0.8693 H   0  0  0  0  0  0  0  0  0  0  0  0
    7.2170   -3.6808   -1.2119 H   0  0  0  0  0  0  0  0  0  0  0  0
    7.0216   -3.0189    0.4254 H   0  0  0  0  0  0  0  0  0  0  0  0
    3.8797   -3.1958   -1.6051 H   0  0  0  0  0  0  0  0  0  0  0  0
    4.9747   -4.2794   -0.7796 H   0  0  0  0  0  0  0  0  0  0  0  0
    4.4826   -3.1094    1.3933 H   0  0  0  0  0  0  0  0  0  0  0  0
    3.0211   -3.7748    0.6309 H   0  0  0  0  0  0  0  0  0  0  0  0
    0.2967   -1.2079    0.5246 H   0  0  0  0  0  0  0  0  0  0  0  0
   -3.2983   -2.7611   -3.0200 H   0  0  0  0  0  0  0  0  0  0  0  0
   -1.6112   -2.7067   -2.5808 H   0  0  0  0  0  0  0  0  0  0  0  0
   -3.8934   -3.5292   -0.6965 H   0  0  0  0  0  0  0  0  0  0  0  0
   -2.7835   -4.6279   -1.5327 H   0  0  0  0  0  0  0  0  0  0  0  0
   -2.1686   -3.5380   -0.2819 H   0  0  0  0  0  0  0  0  0  0  0  0
   -5.2502    0.2695   -3.3704 H   0  0  0  0  0  0  0  0  0  0  0  0
   -4.7024   -1.3579   -3.6014 H   0  0  0  0  0  0  0  0  0  0  0  0
   -6.4989   -0.4269   -1.2940 H   0  0  0  0  0  0  0  0  0  0  0  0
   -7.0006   -1.3444   -2.7222 H   0  0  0  0  0  0  0  0  0  0  0  0
   -5.9290   -2.0903   -1.5268 H   0  0  0  0  0  0  0  0  0  0  0  0
   -2.6771    2.1752   -0.0647 H   0  0  0  0  0  0  0  0  0  0  0  0
  1  2  1  0
  2  3  1  0
  3  4  1  0
  4  5  1  0
  5  6  1  0
  6  7  2  0
  7  8  1  0
  8  9  1  0
  9 10  2  0
  9 11  2  0
  9 12  1  0
 12 13  1  0
 13 14  1  0
 14 15  1  0
 15 16  1  0
 15 17  1  0
 17 18  1  0
  8 19  2  0
 19 20  1  0
 20 21  1  0
 21 22  2  0
 22 23  1  0
 23 24  1  0
 24 25  1  0
 23 26  2  0
 26 27  1  0
 27 28  1  0
 26 29  1  0
 29 30  2  0
 29 31  1  0
 20  5  2  0
 31 21  1  0
 18 12  1  0
  1 32  1  0
  1 33  1  0
  1 34  1  0
  2 35  1  0
  2 36  1  0
  3 37  1  0
  3 38  1  0
  6 39  1  0
  7 40  1  0
 13 41  1  0
 13 42  1  0
 14 43  1  0
 14 44  1  0
 16 45  1  0
 16 46  1  0
 16 47  1  0
 17 48  1  0
 17 49  1  0
 18 50  1  0
 18 51  1  0
 19 52  1  0
 24 53  1  0
 24 54  1  0
 25 55  1  0
 25 56  1  0
 25 57  1  0
 27 58  1  0
 27 59  1  0
 28 60  1  0
 28 61  1  0
 28 62  1  0
 31 63  1  0
M  END
$$$$
