
     RDKit          3D

 48 52  0  0  0  0  0  0  0  0999 V2000
   -6.8707   -2.0766    1.2522 C   0  0  0  0  0  0  0  0  0  0  0  0
   -5.5056   -2.2371    0.6104 C   0  0  0  0  0  0  0  0  0  0  0  0
   -4.9203   -0.9481    0.3671 O   0  0  0  0  0  0  0  0  0  0  0  0
   -5.2556   -0.3533   -0.8133 C   0  0  0  0  0  0  0  0  0  0  0  0
   -5.9980   -0.8418   -1.6565 O   0  0  0  0  0  0  0  0  0  0  0  0
   -4.5911    0.9766   -0.9690 C   0  0  0  0  0  0  0  0  0  0  0  0
   -4.8314    1.8991    0.2257 C   0  0  0  0  0  0  0  0  0  0  0  0
   -5.9089    2.2713    0.6592 O   0  0  0  0  0  0  0  0  0  0  0  0
   -3.5958    2.2564    0.7489 N   0  0  0  0  0  0  0  0  0  0  0  0
   -2.5710    1.6518    0.0478 C   0  0  0  0  0  0  0  0  0  0  0  0
   -1.2748    1.7912    0.3066 N   0  0  0  0  0  0  0  0  0  0  0  0
   -0.4922    1.0938   -0.5522 C   0  0  0  0  0  0  0  0  0  0  0  0
    0.9675    1.1616   -0.3683 C   0  0  0  0  0  0  0  0  0  0  0  0
    1.8240    0.5462   -1.2131 N   0  0  0  0  0  0  0  0  0  0  0  0
    3.0508    0.8119   -0.7083 N   0  0  0  0  0  0  0  0  0  0  0  0
    4.2390    0.2937   -1.3696 C   0  0  0  0  0  0  0  0  0  0  0  0
    4.6286   -1.0584   -0.8353 C   0  0  0  0  0  0  0  0  0  0  0  0
    3.8326   -2.1906   -1.0711 C   0  0  0  0  0  0  0  0  0  0  0  0
    4.2057   -3.4382   -0.5646 C   0  0  0  0  0  0  0  0  0  0  0  0
    5.3775   -3.5706    0.1798 C   0  0  0  0  0  0  0  0  0  0  0  0
    6.1773   -2.4544    0.4166 C   0  0  0  0  0  0  0  0  0  0  0  0
    5.7996   -1.2138   -0.0903 C   0  0  0  0  0  0  0  0  0  0  0  0
    6.5938   -0.1586    0.1384 F   0  0  0  0  0  0  0  0  0  0  0  0
    3.0260    1.6077    0.4009 C   0  0  0  0  0  0  0  0  0  0  0  0
    4.0909    2.0569    1.0953 N   0  0  0  0  0  0  0  0  0  0  0  0
    3.7504    2.8149    2.1601 C   0  0  0  0  0  0  0  0  0  0  0  0
    2.4548    3.1331    2.5420 C   0  0  0  0  0  0  0  0  0  0  0  0
    1.3871    2.6474    1.7854 C   0  0  0  0  0  0  0  0  0  0  0  0
    1.6848    1.8508    0.6640 C   0  0  0  0  0  0  0  0  0  0  0  0
   -0.9654    0.3264   -1.5836 N   0  0  0  0  0  0  0  0  0  0  0  0
   -2.3069    0.2182   -1.8068 N   0  0  0  0  0  0  0  0  0  0  0  0
   -3.0961    0.8873   -0.9683 C   0  0  0  0  0  0  0  0  0  0  0  0
   -6.7967   -1.4825    2.1691 H   0  0  0  0  0  0  0  0  0  0  0  0
   -7.3015   -3.0515    1.4968 H   0  0  0  0  0  0  0  0  0  0  0  0
   -7.5588   -1.5477    0.5853 H   0  0  0  0  0  0  0  0  0  0  0  0
   -5.5602   -2.8302   -0.3096 H   0  0  0  0  0  0  0  0  0  0  0  0
   -4.8362   -2.7672    1.2958 H   0  0  0  0  0  0  0  0  0  0  0  0
   -4.9404    1.4804   -1.8758 H   0  0  0  0  0  0  0  0  0  0  0  0
   -3.4630    2.8581    1.5471 H   0  0  0  0  0  0  0  0  0  0  0  0
    4.0252    0.2290   -2.4434 H   0  0  0  0  0  0  0  0  0  0  0  0
    5.0391    1.0323   -1.2495 H   0  0  0  0  0  0  0  0  0  0  0  0
    2.9110   -2.1039   -1.6461 H   0  0  0  0  0  0  0  0  0  0  0  0
    3.5782   -4.3069   -0.7506 H   0  0  0  0  0  0  0  0  0  0  0  0
    5.6662   -4.5416    0.5738 H   0  0  0  0  0  0  0  0  0  0  0  0
    7.0935   -2.5410    0.9920 H   0  0  0  0  0  0  0  0  0  0  0  0
    4.5954    3.1844    2.7374 H   0  0  0  0  0  0  0  0  0  0  0  0
    2.2774    3.7510    3.4160 H   0  0  0  0  0  0  0  0  0  0  0  0
    0.3641    2.8823    2.0606 H   0  0  0  0  0  0  0  0  0  0  0  0
  1  2  1  0
  2  3  1  0
  3  4  1  0
  4  5  2  0
  4  6  1  0
  6  7  1  0
  7  8  2  0
  7  9  1  0
  9 10  1  0
 10 11  1  0
 11 12  2  0
 12 13  1  0
 13 14  2  0
 14 15  1  0
 15 16  1  0
 16 17  1  0
 17 18  2  0
 18 19  1  0
 19 20  2  0
 20 21  1  0
 21 22  2  0
 22 23  1  0
 15 24  1  0
 24 25  1  0
 25 26  2  0
 26 27  1  0
 27 28  2  0
 28 29  1  0
 12 30  1  0
 30 31  2  0
 31 32  1  0
 32  6  1  0
 32 10  2  0
 29 13  1  0
 22 17  1  0
 29 24  2  0
  1 33  1  0
  1 34  1  0
  1 35  1  0
  2 36  1  0
  2 37  1  0
  6 38  1  0
  9 39  1  0
 16 40  1  0
 16 41  1  0
 18 42  1  0
 19 43  1  0
 20 44  1  0
 21 45  1  0
 26 46  1  0
 27 47  1  0
 28 48  1  0
M  END
$$$$
