
     RDKit          3D

 66 72  0  0  0  0  0  0  0  0999 V2000
   -2.5378   -2.8472   -4.0723 C   0  0  0  0  0  0  0  0  0  0  0  0
   -2.2954   -1.3447   -4.0529 C   0  0  0  0  0  0  0  0  0  0  0  0
   -1.3286   -0.9677   -3.0301 N   0  0  0  0  0  0  0  0  0  0  0  0
    0.0402   -0.9837   -3.3776 C   0  0  0  0  0  0  0  0  0  0  0  0
    0.4460   -1.2690   -4.5033 O   0  0  0  0  0  0  0  0  0  0  0  0
    0.9478   -0.6579   -2.2735 C   0  0  0  0  0  0  0  0  0  0  0  0
    2.3174   -0.6533   -2.2799 N   0  0  0  0  0  0  0  0  0  0  0  0
    2.6817   -0.3276   -1.0508 C   0  0  0  0  0  0  0  0  0  0  0  0
    4.1106   -0.2482   -0.5898 C   0  0  0  0  0  0  0  0  0  0  0  0
    4.6131    1.1584   -0.3489 C   0  0  0  0  0  0  0  0  0  0  0  0
    5.2872    1.4732    0.8410 C   0  0  0  0  0  0  0  0  0  0  0  0
    5.7622    2.7663    1.0659 C   0  0  0  0  0  0  0  0  0  0  0  0
    5.5798    3.7547    0.1007 C   0  0  0  0  0  0  0  0  0  0  0  0
    4.9293    3.4501   -1.0932 C   0  0  0  0  0  0  0  0  0  0  0  0
    4.4538    2.1580   -1.3205 C   0  0  0  0  0  0  0  0  0  0  0  0
    1.5690   -0.0957   -0.2456 N   0  0  0  0  0  0  0  0  0  0  0  0
    1.6191    0.3890    1.1246 C   0  0  0  0  0  0  0  0  0  0  0  0
    1.9743   -0.6696    2.1426 C   0  0  0  0  0  0  0  0  0  0  0  0
    1.6058   -2.0168    2.0039 C   0  0  0  0  0  0  0  0  0  0  0  0
    1.9334   -2.9503    2.9897 C   0  0  0  0  0  0  0  0  0  0  0  0
    2.6210   -2.5498    4.1324 C   0  0  0  0  0  0  0  0  0  0  0  0
    2.9793   -1.2143    4.2938 C   0  0  0  0  0  0  0  0  0  0  0  0
    2.6537   -0.2800    3.3092 C   0  0  0  0  0  0  0  0  0  0  0  0
    0.4658   -0.3356   -1.0240 C   0  0  0  0  0  0  0  0  0  0  0  0
   -0.8591   -0.3065   -0.7657 N   0  0  0  0  0  0  0  0  0  0  0  0
   -1.5390   -0.2788    0.5075 C   0  0  0  0  0  0  0  0  0  0  0  0
   -3.0187   -0.3926    0.0586 C   0  0  0  0  0  0  0  0  0  0  0  0
   -3.8127   -1.4255    0.8867 C   0  0  0  0  0  0  0  0  0  0  0  0
   -5.2821   -0.9827    0.8391 C   0  0  0  0  0  0  0  0  0  0  0  0
   -5.1351    0.5026    0.7275 C   0  0  0  0  0  0  0  0  0  0  0  0
   -6.0972    1.4700    0.9648 C   0  0  0  0  0  0  0  0  0  0  0  0
   -5.7632    2.8064    0.7381 C   0  0  0  0  0  0  0  0  0  0  0  0
   -4.4896    3.1541    0.2630 C   0  0  0  0  0  0  0  0  0  0  0  0
   -3.5297    2.1705    0.0142 C   0  0  0  0  0  0  0  0  0  0  0  0
   -3.8581    0.8453    0.2632 C   0  0  0  0  0  0  0  0  0  0  0  0
   -3.0125   -0.8037   -1.3805 N   0  0  0  0  0  0  0  0  0  0  0  0
   -1.7620   -0.6899   -1.7379 C   0  0  0  0  0  0  0  0  0  0  0  0
   -1.6113   -3.3933   -4.2774 H   0  0  0  0  0  0  0  0  0  0  0  0
   -3.2653   -3.1045   -4.8481 H   0  0  0  0  0  0  0  0  0  0  0  0
   -2.9251   -3.1982   -3.1103 H   0  0  0  0  0  0  0  0  0  0  0  0
   -1.9320   -1.0227   -5.0353 H   0  0  0  0  0  0  0  0  0  0  0  0
   -3.2422   -0.8229   -3.8746 H   0  0  0  0  0  0  0  0  0  0  0  0
    4.7565   -0.7084   -1.3488 H   0  0  0  0  0  0  0  0  0  0  0  0
    4.2293   -0.8590    0.3126 H   0  0  0  0  0  0  0  0  0  0  0  0
    5.4503    0.7112    1.6005 H   0  0  0  0  0  0  0  0  0  0  0  0
    6.2835    3.0012    1.9903 H   0  0  0  0  0  0  0  0  0  0  0  0
    5.9549    4.7602    0.2730 H   0  0  0  0  0  0  0  0  0  0  0  0
    4.7982    4.2160   -1.8534 H   0  0  0  0  0  0  0  0  0  0  0  0
    3.9592    1.9317   -2.2648 H   0  0  0  0  0  0  0  0  0  0  0  0
    2.3451    1.2070    1.1461 H   0  0  0  0  0  0  0  0  0  0  0  0
    0.6624    0.8408    1.3833 H   0  0  0  0  0  0  0  0  0  0  0  0
    1.0676   -2.3666    1.1251 H   0  0  0  0  0  0  0  0  0  0  0  0
    1.6517   -3.9932    2.8642 H   0  0  0  0  0  0  0  0  0  0  0  0
    2.8751   -3.2786    4.8980 H   0  0  0  0  0  0  0  0  0  0  0  0
    3.5109   -0.8997    5.1886 H   0  0  0  0  0  0  0  0  0  0  0  0
    2.9391    0.7600    3.4602 H   0  0  0  0  0  0  0  0  0  0  0  0
   -1.2394   -1.1404    1.1137 H   0  0  0  0  0  0  0  0  0  0  0  0
   -1.3591    0.6424    1.0668 H   0  0  0  0  0  0  0  0  0  0  0  0
   -3.4785   -1.4023    1.9339 H   0  0  0  0  0  0  0  0  0  0  0  0
   -3.6886   -2.4530    0.5276 H   0  0  0  0  0  0  0  0  0  0  0  0
   -5.7891   -1.3796   -0.0464 H   0  0  0  0  0  0  0  0  0  0  0  0
   -5.8180   -1.2832    1.7438 H   0  0  0  0  0  0  0  0  0  0  0  0
   -7.0908    1.2000    1.3079 H   0  0  0  0  0  0  0  0  0  0  0  0
   -6.5021    3.5844    0.9143 H   0  0  0  0  0  0  0  0  0  0  0  0
   -4.2547    4.1985    0.0722 H   0  0  0  0  0  0  0  0  0  0  0  0
   -2.5574    2.4445   -0.3829 H   0  0  0  0  0  0  0  0  0  0  0  0
  1  2  1  0
  2  3  1  0
  3  4  1  0
  4  5  2  0
  4  6  1  0
  6  7  1  0
  7  8  2  0
  8  9  1  0
  9 10  1  0
 10 11  2  0
 11 12  1  0
 12 13  2  0
 13 14  1  0
 14 15  2  0
  8 16  1  0
 16 17  1  0
 17 18  1  0
 18 19  2  0
 19 20  1  0
 20 21  2  0
 21 22  1  0
 22 23  2  0
 16 24  1  0
 24 25  1  0
 25 26  1  0
 26 27  1  0
 27 28  1  0
 28 29  1  0
 29 30  1  0
 30 31  2  0
 31 32  1  0
 32 33  2  0
 33 34  1  0
 34 35  2  0
 27 36  1  0
 36 37  2  0
 37  3  1  0
 24  6  2  0
 37 25  1  0
 15 10  1  0
 23 18  1  0
 35 27  1  0
 35 30  1  0
  1 38  1  0
  1 39  1  0
  1 40  1  0
  2 41  1  0
  2 42  1  0
  9 43  1  0
  9 44  1  0
 11 45  1  0
 12 46  1  0
 13 47  1  0
 14 48  1  0
 15 49  1  0
 17 50  1  0
 17 51  1  0
 19 52  1  0
 20 53  1  0
 21 54  1  0
 22 55  1  0
 23 56  1  0
 26 57  1  0
 26 58  1  0
 28 59  1  0
 28 60  1  0
 29 61  1  0
 29 62  1  0
 31 63  1  0
 32 64  1  0
 33 65  1  0
 34 66  1  0
M  END
$$$$
