


 39 42  0  0  0  0  0  0  0  0999 V2000
    0.7374   65.2618   82.3184 C   0  0  0  0  0  0  0  0  0  0  0  0
    0.5768   64.6208   81.0738 C   0  0  0  0  0  0  0  0  0  0  0  0
    1.0098   65.2092   79.8751 C   0  0  0  0  0  0  0  0  0  0  0  0
    1.6181   66.4670   79.9405 C   0  0  0  0  0  0  0  0  0  0  0  0
    1.7810   67.1222   81.1655 C   0  0  0  0  0  0  0  0  0  0  0  0
    1.3503   66.5322   82.3616 C   0  0  0  0  0  0  0  0  0  0  0  0
   -2.1282   62.1152   84.8637 C   0  0  0  0  0  0  0  0  0  0  0  0
   -2.1347   61.7637   86.1643 N   0  0  0  0  0  0  0  0  0  0  0  0
   -1.1232   62.4875   86.7056 N   0  0  0  0  0  0  0  0  0  0  0  0
   -0.8227   62.3653   88.1115 C   0  0  0  0  0  0  0  0  0  0  0  0
   -0.4893   63.2781   85.7998 C   0  0  0  0  0  0  0  0  0  0  0  0
    0.5976   64.1748   85.9342 C   0  0  0  0  0  0  0  0  0  0  0  0
    1.2130   64.4085   86.9679 O   0  0  0  0  0  0  0  0  0  0  0  0
    0.9015   64.7719   84.7327 N   0  0  0  0  0  0  0  0  0  0  0  0
    0.2447   64.5159   83.5326 C   0  0  0  0  0  0  0  0  0  0  0  0
   -0.7562   63.6835   83.4192 N   0  0  0  0  0  0  0  0  0  0  0  0
   -1.1175   63.0570   84.6121 C   0  0  0  0  0  0  0  0  0  0  0  0
    1.6839   65.4128   84.7440 H   0  0  0  0  0  0  0  0  0  0  0  0
   -3.1082   61.5299   83.9064 C   0  0  0  0  0  0  0  0  0  0  0  0
   -2.8643   59.5577   82.3117 C   0  0  0  0  0  0  0  0  0  0  0  0
   -2.4679   60.9942   82.6235 C   0  0  0  0  0  0  0  0  0  0  0  0
    0.8655   64.5011   78.5402 C   0  0  0  0  0  0  0  0  0  0  0  0
    0.4543   65.4160   77.5251 O   0  0  0  0  0  0  0  0  0  0  0  0
   -0.0320   64.9071   76.8552 H   0  0  0  0  0  0  0  0  0  0  0  0
   -0.0831   63.3145   78.5901 C   0  0  0  0  0  0  0  0  0  0  0  0
   -1.3715   63.4125   78.0416 C   0  0  0  0  0  0  0  0  0  0  0  0
   -2.2504   62.3246   78.0824 C   0  0  0  0  0  0  0  0  0  0  0  0
   -1.8478   61.1183   78.6685 C   0  0  0  0  0  0  0  0  0  0  0  0
   -0.5705   61.0165   79.2297 C   0  0  0  0  0  0  0  0  0  0  0  0
    0.3060   62.1032   79.1856 C   0  0  0  0  0  0  0  0  0  0  0  0
   -2.7476   59.9362   78.7391 C   0  0  0  0  0  0  0  0  0  0  0  0
   -2.3361   58.8029   78.5043 O   0  0  0  0  0  0  0  0  0  0  0  0
   -4.0732   60.1843   79.0288 N   0  0  0  0  0  0  0  0  0  0  0  0
   -4.9253   59.0620   78.8722 O   0  0  0  0  0  0  0  0  0  0  0  0
   -4.4978   61.0830   78.8282 H   0  0  0  0  0  0  0  0  0  0  0  0
   -4.2890   58.3474   78.6438 H   0  0  0  0  0  0  0  0  0  0  0  0
    1.4905   67.1327   83.5880 O   0  0  0  0  0  0  0  0  0  0  0  0
    2.6849   67.8727   83.8476 C   0  0  0  0  0  0  0  0  0  0  0  0
    3.7502   66.8880   84.2953 C   0  0  0  0  0  0  0  0  0  0  0  0
 20 21  1  0  0  0
 21 19  1  0  0  0
 19  7  1  0  0  0
  7  8  2  0  0  0
  8  9  1  0  0  0
  9 10  1  0  0  0
  9 11  1  0  0  0
 11 12  1  0  0  0
 12 13  2  0  0  0
 12 14  1  0  0  0
 14 15  1  0  0  0
 15  1  1  0  0  0
  1  2  1  0  0  0
  2  3  2  0  0  0
  3 22  1  0  0  0
 22 23  1  0  0  0
 22 25  1  0  0  0
 25 26  1  0  0  0
 26 27  2  0  0  0
 27 28  1  0  0  0
 28 31  1  0  0  0
 31 32  2  0  0  0
 31 33  1  0  0  0
 33 34  1  0  0  0
 28 29  2  0  0  0
 29 30  1  0  0  0
  3  4  1  0  0  0
  4  5  2  0  0  0
  5  6  1  0  0  0
  6 37  1  0  0  0
 37 38  1  0  0  0
 38 39  1  0  0  0
 15 16  2  0  0  0
 16 17  1  0  0  0
 17  7  1  0  0  0
 17 11  2  0  0  0
  6  1  2  0  0  0
 30 25  2  0  0  0
 14 18  1  0  0  0
 23 24  1  0  0  0
 33 35  1  0  0  0
 34 36  1  0  0  0
M  END
> <minimizedAffinity>
-10.89101

$$$$



 39 42  0  0  0  0  0  0  0  0999 V2000
    1.3181   65.7944   83.6470 C   0  0  0  0  0  0  0  0  0  0  0  0
    0.6624   65.7234   82.4017 C   0  0  0  0  0  0  0  0  0  0  0  0
    1.0378   66.5336   81.3185 C   0  0  0  0  0  0  0  0  0  0  0  0
    2.0976   67.4280   81.5008 C   0  0  0  0  0  0  0  0  0  0  0  0
    2.7571   67.5177   82.7310 C   0  0  0  0  0  0  0  0  0  0  0  0
    2.3825   66.7064   83.8107 C   0  0  0  0  0  0  0  0  0  0  0  0
   -1.6414   62.3904   85.7074 C   0  0  0  0  0  0  0  0  0  0  0  0
   -1.6145   61.7958   86.9160 N   0  0  0  0  0  0  0  0  0  0  0  0
   -0.5328   62.3408   87.5266 N   0  0  0  0  0  0  0  0  0  0  0  0
   -0.1796   61.9323   88.8647 C   0  0  0  0  0  0  0  0  0  0  0  0
    0.1132   63.2524   86.7528 C   0  0  0  0  0  0  0  0  0  0  0  0
    1.2640   64.0407   86.9931 C   0  0  0  0  0  0  0  0  0  0  0  0
    1.9390   64.0341   88.0159 O   0  0  0  0  0  0  0  0  0  0  0  0
    1.5548   64.8393   85.9114 N   0  0  0  0  0  0  0  0  0  0  0  0
    0.8296   64.8587   84.7236 C   0  0  0  0  0  0  0  0  0  0  0  0
   -0.2302   64.1242   84.5112 N   0  0  0  0  0  0  0  0  0  0  0  0
   -0.5805   63.3018   85.5822 C   0  0  0  0  0  0  0  0  0  0  0  0
    2.3791   65.4189   85.9998 H   0  0  0  0  0  0  0  0  0  0  0  0
   -2.7006   62.0594   84.7134 C   0  0  0  0  0  0  0  0  0  0  0  0
   -2.8606   60.5130   82.6948 C   0  0  0  0  0  0  0  0  0  0  0  0
   -2.1532   61.7025   83.3293 C   0  0  0  0  0  0  0  0  0  0  0  0
    0.3512   66.4306   79.9686 C   0  0  0  0  0  0  0  0  0  0  0  0
   -0.8652   67.1769   79.9625 O   0  0  0  0  0  0  0  0  0  0  0  0
   -1.4577   66.7612   79.3142 H   0  0  0  0  0  0  0  0  0  0  0  0
    0.0873   64.9970   79.5376 C   0  0  0  0  0  0  0  0  0  0  0  0
    0.7720   64.4479   78.4422 C   0  0  0  0  0  0  0  0  0  0  0  0
    0.5358   63.1289   78.0398 C   0  0  0  0  0  0  0  0  0  0  0  0
   -0.3868   62.3373   78.7348 C   0  0  0  0  0  0  0  0  0  0  0  0
   -1.0836   62.8811   79.8190 C   0  0  0  0  0  0  0  0  0  0  0  0
   -0.8443   64.1974   80.2204 C   0  0  0  0  0  0  0  0  0  0  0  0
   -0.6745   60.9319   78.3424 C   0  0  0  0  0  0  0  0  0  0  0  0
   -1.4550   60.2343   78.9849 O   0  0  0  0  0  0  0  0  0  0  0  0
    0.0180   60.4389   77.2560 N   0  0  0  0  0  0  0  0  0  0  0  0
   -0.1265   59.0428   77.0557 O   0  0  0  0  0  0  0  0  0  0  0  0
    0.9139   60.8265   76.9813 H   0  0  0  0  0  0  0  0  0  0  0  0
   -0.7733   58.7977   77.7551 H   0  0  0  0  0  0  0  0  0  0  0  0
    3.0001   66.7545   85.0356 O   0  0  0  0  0  0  0  0  0  0  0  0
    4.4156   66.9456   85.0738 C   0  0  0  0  0  0  0  0  0  0  0  0
    5.0644   65.5759   85.1620 C   0  0  0  0  0  0  0  0  0  0  0  0
 20 21  1  0  0  0
 21 19  1  0  0  0
 19  7  1  0  0  0
  7  8  2  0  0  0
  8  9  1  0  0  0
  9 10  1  0  0  0
  9 11  1  0  0  0
 11 12  1  0  0  0
 12 13  2  0  0  0
 12 14  1  0  0  0
 14 15  1  0  0  0
 15  1  1  0  0  0
  1  2  1  0  0  0
  2  3  2  0  0  0
  3 22  1  0  0  0
 22 23  1  0  0  0
 22 25  1  0  0  0
 25 26  1  0  0  0
 26 27  2  0  0  0
 27 28  1  0  0  0
 28 31  1  0  0  0
 31 32  2  0  0  0
 31 33  1  0  0  0
 33 34  1  0  0  0
 28 29  2  0  0  0
 29 30  1  0  0  0
  3  4  1  0  0  0
  4  5  2  0  0  0
  5  6  1  0  0  0
  6 37  1  0  0  0
 37 38  1  0  0  0
 38 39  1  0  0  0
 15 16  2  0  0  0
 16 17  1  0  0  0
 17  7  1  0  0  0
 17 11  2  0  0  0
  6  1  2  0  0  0
 30 25  2  0  0  0
 14 18  1  0  0  0
 23 24  1  0  0  0
 33 35  1  0  0  0
 34 36  1  0  0  0
M  END
> <minimizedAffinity>
-10.66817

$$$$



 39 42  0  0  0  0  0  0  0  0999 V2000
    2.0102   65.7838   84.5276 C   0  0  0  0  0  0  0  0  0  0  0  0
    1.5870   66.5157   83.4002 C   0  0  0  0  0  0  0  0  0  0  0  0
    2.4361   67.4178   82.7400 C   0  0  0  0  0  0  0  0  0  0  0  0
    3.7364   67.5777   83.2297 C   0  0  0  0  0  0  0  0  0  0  0  0
    4.1733   66.8649   84.3511 C   0  0  0  0  0  0  0  0  0  0  0  0
    3.3251   65.9629   85.0076 C   0  0  0  0  0  0  0  0  0  0  0  0
   -1.5854   62.3687   84.5360 C   0  0  0  0  0  0  0  0  0  0  0  0
   -2.2348   61.7562   85.5451 N   0  0  0  0  0  0  0  0  0  0  0  0
   -1.6784   62.2854   86.6633 N   0  0  0  0  0  0  0  0  0  0  0  0
   -2.1295   61.8552   87.9646 C   0  0  0  0  0  0  0  0  0  0  0  0
   -0.7135   63.2042   86.3950 C   0  0  0  0  0  0  0  0  0  0  0  0
    0.1059   63.9817   87.2481 C   0  0  0  0  0  0  0  0  0  0  0  0
    0.0965   63.9558   88.4732 O   0  0  0  0  0  0  0  0  0  0  0  0
    0.9477   64.7942   86.5245 N   0  0  0  0  0  0  0  0  0  0  0  0
    1.0073   64.8355   85.1346 C   0  0  0  0  0  0  0  0  0  0  0  0
    0.2478   64.1109   84.3563 N   0  0  0  0  0  0  0  0  0  0  0  0
   -0.6374   63.2751   85.0373 C   0  0  0  0  0  0  0  0  0  0  0  0
    1.5812   65.3672   87.0663 H   0  0  0  0  0  0  0  0  0  0  0  0
   -1.9102   62.0589   83.1154 C   0  0  0  0  0  0  0  0  0  0  0  0
   -1.3258   63.5638   81.1441 C   0  0  0  0  0  0  0  0  0  0  0  0
   -2.2902   63.2907   82.2901 C   0  0  0  0  0  0  0  0  0  0  0  0
    1.9876   68.1794   81.5058 C   0  0  0  0  0  0  0  0  0  0  0  0
    1.0793   69.2221   81.8583 O   0  0  0  0  0  0  0  0  0  0  0  0
    0.5051   69.3789   81.0902 H   0  0  0  0  0  0  0  0  0  0  0  0
    1.3711   67.2866   80.4412 C   0  0  0  0  0  0  0  0  0  0  0  0
   -0.0080   67.3370   80.1844 C   0  0  0  0  0  0  0  0  0  0  0  0
   -0.5831   66.5195   79.2055 C   0  0  0  0  0  0  0  0  0  0  0  0
    0.2179   65.6428   78.4635 C   0  0  0  0  0  0  0  0  0  0  0  0
    1.5910   65.5763   78.7224 C   0  0  0  0  0  0  0  0  0  0  0  0
    2.1632   66.3953   79.6986 C   0  0  0  0  0  0  0  0  0  0  0  0
   -0.3480   64.7518   77.4157 C   0  0  0  0  0  0  0  0  0  0  0  0
   -1.3306   65.0817   76.7565 O   0  0  0  0  0  0  0  0  0  0  0  0
    0.2529   63.5199   77.2606 N   0  0  0  0  0  0  0  0  0  0  0  0
   -0.4500   62.6301   76.4096 O   0  0  0  0  0  0  0  0  0  0  0  0
    0.7631   63.0825   78.0199 H   0  0  0  0  0  0  0  0  0  0  0  0
   -1.1929   63.1902   76.0901 H   0  0  0  0  0  0  0  0  0  0  0  0
    3.7076   65.2381   86.1087 O   0  0  0  0  0  0  0  0  0  0  0  0
    5.1039   65.0386   86.3371 C   0  0  0  0  0  0  0  0  0  0  0  0
    5.4233   65.5573   87.7277 C   0  0  0  0  0  0  0  0  0  0  0  0
 20 21  1  0  0  0
 21 19  1  0  0  0
 19  7  1  0  0  0
  7  8  2  0  0  0
  8  9  1  0  0  0
  9 10  1  0  0  0
  9 11  1  0  0  0
 11 12  1  0  0  0
 12 13  2  0  0  0
 12 14  1  0  0  0
 14 15  1  0  0  0
 15  1  1  0  0  0
  1  2  1  0  0  0
  2  3  2  0  0  0
  3 22  1  0  0  0
 22 23  1  0  0  0
 22 25  1  0  0  0
 25 26  1  0  0  0
 26 27  2  0  0  0
 27 28  1  0  0  0
 28 31  1  0  0  0
 31 32  2  0  0  0
 31 33  1  0  0  0
 33 34  1  0  0  0
 28 29  2  0  0  0
 29 30  1  0  0  0
  3  4  1  0  0  0
  4  5  2  0  0  0
  5  6  1  0  0  0
  6 37  1  0  0  0
 37 38  1  0  0  0
 38 39  1  0  0  0
 15 16  2  0  0  0
 16 17  1  0  0  0
 17  7  1  0  0  0
 17 11  2  0  0  0
  6  1  2  0  0  0
 30 25  2  0  0  0
 14 18  1  0  0  0
 23 24  1  0  0  0
 33 35  1  0  0  0
 34 36  1  0  0  0
M  END
> <minimizedAffinity>
-10.61771

$$$$



 39 42  0  0  0  0  0  0  0  0999 V2000
    0.4571   64.9523   80.9958 C   0  0  0  0  0  0  0  0  0  0  0  0
    0.7845   65.8384   82.0414 C   0  0  0  0  0  0  0  0  0  0  0  0
    1.5251   67.0095   81.8166 C   0  0  0  0  0  0  0  0  0  0  0  0
    1.9376   67.2877   80.5094 C   0  0  0  0  0  0  0  0  0  0  0  0
    1.6279   66.4176   79.4591 C   0  0  0  0  0  0  0  0  0  0  0  0
    0.8864   65.2499   79.6848 C   0  0  0  0  0  0  0  0  0  0  0  0
   -2.2242   62.0119   83.9548 C   0  0  0  0  0  0  0  0  0  0  0  0
   -2.8212   60.8247   83.7330 N   0  0  0  0  0  0  0  0  0  0  0  0
   -2.5356   60.5505   82.4356 N   0  0  0  0  0  0  0  0  0  0  0  0
   -3.0248   59.3344   81.8323 C   0  0  0  0  0  0  0  0  0  0  0  0
   -1.7830   61.5130   81.8404 C   0  0  0  0  0  0  0  0  0  0  0  0
   -1.2719   61.6260   80.5252 C   0  0  0  0  0  0  0  0  0  0  0  0
   -1.4378   60.8191   79.6179 O   0  0  0  0  0  0  0  0  0  0  0  0
   -0.5478   62.7854   80.3708 N   0  0  0  0  0  0  0  0  0  0  0  0
   -0.3568   63.7385   81.3668 C   0  0  0  0  0  0  0  0  0  0  0  0
   -0.8358   63.6254   82.5774 N   0  0  0  0  0  0  0  0  0  0  0  0
   -1.5698   62.4595   82.7959 C   0  0  0  0  0  0  0  0  0  0  0  0
   -0.1665   62.9477   79.4481 H   0  0  0  0  0  0  0  0  0  0  0  0
   -2.3026   62.6722   85.2880 C   0  0  0  0  0  0  0  0  0  0  0  0
   -0.0986   63.6425   86.1206 C   0  0  0  0  0  0  0  0  0  0  0  0
   -1.0571   62.4600   86.1521 C   0  0  0  0  0  0  0  0  0  0  0  0
    1.8471   67.9787   82.9398 C   0  0  0  0  0  0  0  0  0  0  0  0
    2.2432   69.2455   82.4155 O   0  0  0  0  0  0  0  0  0  0  0  0
    2.8308   69.6595   83.0694 H   0  0  0  0  0  0  0  0  0  0  0  0
    2.9045   67.4558   83.8985 C   0  0  0  0  0  0  0  0  0  0  0  0
    3.9490   68.2901   84.3265 C   0  0  0  0  0  0  0  0  0  0  0  0
    4.9256   67.8169   85.2097 C   0  0  0  0  0  0  0  0  0  0  0  0
    4.8657   66.5004   85.6830 C   0  0  0  0  0  0  0  0  0  0  0  0
    3.8359   65.6581   85.2507 C   0  0  0  0  0  0  0  0  0  0  0  0
    2.8607   66.1336   84.3708 C   0  0  0  0  0  0  0  0  0  0  0  0
    5.8824   65.9513   86.6194 C   0  0  0  0  0  0  0  0  0  0  0  0
    7.0244   65.6952   86.2468 O   0  0  0  0  0  0  0  0  0  0  0  0
    5.4624   65.6964   87.9083 N   0  0  0  0  0  0  0  0  0  0  0  0
    6.3972   64.9781   88.6960 O   0  0  0  0  0  0  0  0  0  0  0  0
    4.4872   65.5157   88.1194 H   0  0  0  0  0  0  0  0  0  0  0  0
    7.1681   64.9047   88.0894 H   0  0  0  0  0  0  0  0  0  0  0  0
    0.5544   64.3668   78.6878 O   0  0  0  0  0  0  0  0  0  0  0  0
   -0.1564   64.8631   77.5520 C   0  0  0  0  0  0  0  0  0  0  0  0
   -0.7859   63.6756   76.8459 C   0  0  0  0  0  0  0  0  0  0  0  0
 20 21  1  0  0  0
 21 19  1  0  0  0
 19  7  1  0  0  0
  7  8  2  0  0  0
  8  9  1  0  0  0
  9 10  1  0  0  0
  9 11  1  0  0  0
 11 12  1  0  0  0
 12 13  2  0  0  0
 12 14  1  0  0  0
 14 15  1  0  0  0
 15  1  1  0  0  0
  1  2  1  0  0  0
  2  3  2  0  0  0
  3 22  1  0  0  0
 22 23  1  0  0  0
 22 25  1  0  0  0
 25 26  1  0  0  0
 26 27  2  0  0  0
 27 28  1  0  0  0
 28 31  1  0  0  0
 31 32  2  0  0  0
 31 33  1  0  0  0
 33 34  1  0  0  0
 28 29  2  0  0  0
 29 30  1  0  0  0
  3  4  1  0  0  0
  4  5  2  0  0  0
  5  6  1  0  0  0
  6 37  1  0  0  0
 37 38  1  0  0  0
 38 39  1  0  0  0
 15 16  2  0  0  0
 16 17  1  0  0  0
 17  7  1  0  0  0
 17 11  2  0  0  0
  6  1  2  0  0  0
 30 25  2  0  0  0
 14 18  1  0  0  0
 23 24  1  0  0  0
 33 35  1  0  0  0
 34 36  1  0  0  0
M  END
> <minimizedAffinity>
-10.59442

$$$$



 39 42  0  0  0  0  0  0  0  0999 V2000
   -0.4827   64.3753   80.7421 C   0  0  0  0  0  0  0  0  0  0  0  0
   -0.9272   63.4501   81.7075 C   0  0  0  0  0  0  0  0  0  0  0  0
   -1.5329   62.2359   81.3476 C   0  0  0  0  0  0  0  0  0  0  0  0
   -1.6874   61.9546   79.9863 C   0  0  0  0  0  0  0  0  0  0  0  0
   -1.2583   62.8628   79.0129 C   0  0  0  0  0  0  0  0  0  0  0  0
   -0.6516   64.0735   79.3739 C   0  0  0  0  0  0  0  0  0  0  0  0
    2.5028   67.0951   83.6198 C   0  0  0  0  0  0  0  0  0  0  0  0
    2.7383   68.4209   83.6636 N   0  0  0  0  0  0  0  0  0  0  0  0
    1.9428   68.9285   82.6891 N   0  0  0  0  0  0  0  0  0  0  0  0
    1.9325   70.3488   82.4354 C   0  0  0  0  0  0  0  0  0  0  0  0
    1.2185   67.9772   82.0428 C   0  0  0  0  0  0  0  0  0  0  0  0
    0.2847   68.0669   80.9828 C   0  0  0  0  0  0  0  0  0  0  0  0
   -0.0556   69.0954   80.4098 O   0  0  0  0  0  0  0  0  0  0  0  0
   -0.2120   66.8277   80.6512 N   0  0  0  0  0  0  0  0  0  0  0  0
    0.1662   65.6343   81.2592 C   0  0  0  0  0  0  0  0  0  0  0  0
    1.0318   65.5626   82.2355 N   0  0  0  0  0  0  0  0  0  0  0  0
    1.5602   66.7940   82.6235 C   0  0  0  0  0  0  0  0  0  0  0  0
   -0.8722   66.8076   79.8851 H   0  0  0  0  0  0  0  0  0  0  0  0
    3.1962   66.1620   84.5514 C   0  0  0  0  0  0  0  0  0  0  0  0
    5.4231   65.3155   85.4551 C   0  0  0  0  0  0  0  0  0  0  0  0
    4.7153   66.3466   84.5868 C   0  0  0  0  0  0  0  0  0  0  0  0
   -1.9800   61.2267   82.3898 C   0  0  0  0  0  0  0  0  0  0  0  0
   -3.3586   60.9005   82.2179 O   0  0  0  0  0  0  0  0  0  0  0  0
   -3.7056   60.6390   83.0871 H   0  0  0  0  0  0  0  0  0  0  0  0
   -1.7250   61.6849   83.8165 C   0  0  0  0  0  0  0  0  0  0  0  0
   -2.8000   61.9677   84.6738 C   0  0  0  0  0  0  0  0  0  0  0  0
   -2.5739   62.3889   85.9887 C   0  0  0  0  0  0  0  0  0  0  0  0
   -1.2649   62.5265   86.4667 C   0  0  0  0  0  0  0  0  0  0  0  0
   -0.1879   62.2600   85.6149 C   0  0  0  0  0  0  0  0  0  0  0  0
   -0.4161   61.8373   84.3032 C   0  0  0  0  0  0  0  0  0  0  0  0
   -0.9747   62.9746   87.8548 C   0  0  0  0  0  0  0  0  0  0  0  0
   -1.8775   63.2340   88.6463 O   0  0  0  0  0  0  0  0  0  0  0  0
    0.3543   63.1338   88.1883 N   0  0  0  0  0  0  0  0  0  0  0  0
    0.5712   63.7645   89.4394 O   0  0  0  0  0  0  0  0  0  0  0  0
    1.0571   63.3190   87.4812 H   0  0  0  0  0  0  0  0  0  0  0  0
   -0.3451   63.8692   89.7817 H   0  0  0  0  0  0  0  0  0  0  0  0
   -0.2110   64.9951   78.4571 O   0  0  0  0  0  0  0  0  0  0  0  0
   -0.2790   64.6574   77.0704 C   0  0  0  0  0  0  0  0  0  0  0  0
   -1.5456   65.2754   76.5059 C   0  0  0  0  0  0  0  0  0  0  0  0
 20 21  1  0  0  0
 21 19  1  0  0  0
 19  7  1  0  0  0
  7  8  2  0  0  0
  8  9  1  0  0  0
  9 10  1  0  0  0
  9 11  1  0  0  0
 11 12  1  0  0  0
 12 13  2  0  0  0
 12 14  1  0  0  0
 14 15  1  0  0  0
 15  1  1  0  0  0
  1  2  1  0  0  0
  2  3  2  0  0  0
  3 22  1  0  0  0
 22 23  1  0  0  0
 22 25  1  0  0  0
 25 26  1  0  0  0
 26 27  2  0  0  0
 27 28  1  0  0  0
 28 31  1  0  0  0
 31 32  2  0  0  0
 31 33  1  0  0  0
 33 34  1  0  0  0
 28 29  2  0  0  0
 29 30  1  0  0  0
  3  4  1  0  0  0
  4  5  2  0  0  0
  5  6  1  0  0  0
  6 37  1  0  0  0
 37 38  1  0  0  0
 38 39  1  0  0  0
 15 16  2  0  0  0
 16 17  1  0  0  0
 17  7  1  0  0  0
 17 11  2  0  0  0
  6  1  2  0  0  0
 30 25  2  0  0  0
 14 18  1  0  0  0
 23 24  1  0  0  0
 33 35  1  0  0  0
 34 36  1  0  0  0
M  END
> <minimizedAffinity>
-10.39604

$$$$



 39 42  0  0  0  0  0  0  0  0999 V2000
    0.0340   63.8932   83.2011 C   0  0  0  0  0  0  0  0  0  0  0  0
    0.8483   64.8644   82.5851 C   0  0  0  0  0  0  0  0  0  0  0  0
    1.5336   65.8379   83.3289 C   0  0  0  0  0  0  0  0  0  0  0  0
    1.3928   65.8240   84.7204 C   0  0  0  0  0  0  0  0  0  0  0  0
    0.5843   64.8720   85.3501 C   0  0  0  0  0  0  0  0  0  0  0  0
   -0.0972   63.8993   84.6061 C   0  0  0  0  0  0  0  0  0  0  0  0
   -0.7950   61.4510   78.9656 C   0  0  0  0  0  0  0  0  0  0  0  0
   -1.6715   60.4772   78.6515 N   0  0  0  0  0  0  0  0  0  0  0  0
   -2.3492   60.2599   79.8063 N   0  0  0  0  0  0  0  0  0  0  0  0
   -3.3883   59.2600   79.8539 C   0  0  0  0  0  0  0  0  0  0  0  0
   -1.9361   61.0588   80.8253 C   0  0  0  0  0  0  0  0  0  0  0  0
   -2.3623   61.1597   82.1713 C   0  0  0  0  0  0  0  0  0  0  0  0
   -3.2398   60.4870   82.6997 O   0  0  0  0  0  0  0  0  0  0  0  0
   -1.6537   62.1264   82.8464 N   0  0  0  0  0  0  0  0  0  0  0  0
   -0.6340   62.8938   82.2910 C   0  0  0  0  0  0  0  0  0  0  0  0
   -0.2464   62.7903   81.0473 N   0  0  0  0  0  0  0  0  0  0  0  0
   -0.9411   61.8319   80.3092 C   0  0  0  0  0  0  0  0  0  0  0  0
   -1.8878   62.2435   83.8234 H   0  0  0  0  0  0  0  0  0  0  0  0
    0.1536   61.9858   77.9489 C   0  0  0  0  0  0  0  0  0  0  0  0
    0.1795   64.5313   77.8397 C   0  0  0  0  0  0  0  0  0  0  0  0
   -0.3553   63.2404   77.2350 C   0  0  0  0  0  0  0  0  0  0  0  0
    2.4364   66.8616   82.6646 C   0  0  0  0  0  0  0  0  0  0  0  0
    3.5710   67.1414   83.4838 O   0  0  0  0  0  0  0  0  0  0  0  0
    3.8619   68.0454   83.2779 H   0  0  0  0  0  0  0  0  0  0  0  0
    1.7181   68.1527   82.3074 C   0  0  0  0  0  0  0  0  0  0  0  0
    0.6731   68.1475   81.3702 C   0  0  0  0  0  0  0  0  0  0  0  0
    0.0061   69.3313   81.0367 C   0  0  0  0  0  0  0  0  0  0  0  0
    0.3728   70.5387   81.6438 C   0  0  0  0  0  0  0  0  0  0  0  0
    1.4221   70.5552   82.5685 C   0  0  0  0  0  0  0  0  0  0  0  0
    2.0850   69.3716   82.9016 C   0  0  0  0  0  0  0  0  0  0  0  0
   -0.3038   71.8227   81.3189 C   0  0  0  0  0  0  0  0  0  0  0  0
   -1.0650   71.9211   80.3600 O   0  0  0  0  0  0  0  0  0  0  0  0
    0.0080   72.9050   82.1153 N   0  0  0  0  0  0  0  0  0  0  0  0
   -0.4891   74.1440   81.6381 O   0  0  0  0  0  0  0  0  0  0  0  0
    0.8877   72.9545   82.6174 H   0  0  0  0  0  0  0  0  0  0  0  0
   -1.0084   73.8701   80.8488 H   0  0  0  0  0  0  0  0  0  0  0  0
   -0.8991   62.9427   85.1772 O   0  0  0  0  0  0  0  0  0  0  0  0
   -1.2085   63.0594   86.5672 C   0  0  0  0  0  0  0  0  0  0  0  0
   -2.7048   62.8581   86.7259 C   0  0  0  0  0  0  0  0  0  0  0  0
 20 21  1  0  0  0
 21 19  1  0  0  0
 19  7  1  0  0  0
  7  8  2  0  0  0
  8  9  1  0  0  0
  9 10  1  0  0  0
  9 11  1  0  0  0
 11 12  1  0  0  0
 12 13  2  0  0  0
 12 14  1  0  0  0
 14 15  1  0  0  0
 15  1  1  0  0  0
  1  2  1  0  0  0
  2  3  2  0  0  0
  3 22  1  0  0  0
 22 23  1  0  0  0
 22 25  1  0  0  0
 25 26  1  0  0  0
 26 27  2  0  0  0
 27 28  1  0  0  0
 28 31  1  0  0  0
 31 32  2  0  0  0
 31 33  1  0  0  0
 33 34  1  0  0  0
 28 29  2  0  0  0
 29 30  1  0  0  0
  3  4  1  0  0  0
  4  5  2  0  0  0
  5  6  1  0  0  0
  6 37  1  0  0  0
 37 38  1  0  0  0
 38 39  1  0  0  0
 15 16  2  0  0  0
 16 17  1  0  0  0
 17  7  1  0  0  0
 17 11  2  0  0  0
  6  1  2  0  0  0
 30 25  2  0  0  0
 14 18  1  0  0  0
 23 24  1  0  0  0
 33 35  1  0  0  0
 34 36  1  0  0  0
M  END
> <minimizedAffinity>
-10.33236

$$$$



 39 42  0  0  0  0  0  0  0  0999 V2000
   -0.4949   63.7051   85.5969 C   0  0  0  0  0  0  0  0  0  0  0  0
   -1.1808   63.0971   84.5265 C   0  0  0  0  0  0  0  0  0  0  0  0
   -2.3150   62.2958   84.7320 C   0  0  0  0  0  0  0  0  0  0  0  0
   -2.7621   62.1108   86.0443 C   0  0  0  0  0  0  0  0  0  0  0  0
   -2.0914   62.7008   87.1206 C   0  0  0  0  0  0  0  0  0  0  0  0
   -0.9606   63.5025   86.9135 C   0  0  0  0  0  0  0  0  0  0  0  0
    2.0997   67.0255   82.9826 C   0  0  0  0  0  0  0  0  0  0  0  0
    3.3515   67.5006   83.1319 N   0  0  0  0  0  0  0  0  0  0  0  0
    3.8206   66.8525   84.2273 N   0  0  0  0  0  0  0  0  0  0  0  0
    5.1576   67.1156   84.7018 C   0  0  0  0  0  0  0  0  0  0  0  0
    2.9172   65.9909   84.7646 C   0  0  0  0  0  0  0  0  0  0  0  0
    2.9910   65.1329   85.8880 C   0  0  0  0  0  0  0  0  0  0  0  0
    3.9525   65.0122   86.6382 O   0  0  0  0  0  0  0  0  0  0  0  0
    1.8210   64.4288   86.0540 N   0  0  0  0  0  0  0  0  0  0  0  0
    0.6986   64.5548   85.2406 C   0  0  0  0  0  0  0  0  0  0  0  0
    0.6403   65.3526   84.2072 N   0  0  0  0  0  0  0  0  0  0  0  0
    1.8066   66.0840   83.9823 C   0  0  0  0  0  0  0  0  0  0  0  0
    1.7894   63.8075   86.8515 H   0  0  0  0  0  0  0  0  0  0  0  0
    1.2286   67.4964   81.8694 C   0  0  0  0  0  0  0  0  0  0  0  0
   -0.3105   65.8171   80.7278 C   0  0  0  0  0  0  0  0  0  0  0  0
    1.0638   66.4722   80.7439 C   0  0  0  0  0  0  0  0  0  0  0  0
   -3.0710   61.6699   83.5740 C   0  0  0  0  0  0  0  0  0  0  0  0
   -3.4176   60.3174   83.8694 O   0  0  0  0  0  0  0  0  0  0  0  0
   -3.4821   59.8429   83.0239 H   0  0  0  0  0  0  0  0  0  0  0  0
   -2.3160   61.7405   82.2567 C   0  0  0  0  0  0  0  0  0  0  0  0
   -2.7706   62.5731   81.2220 C   0  0  0  0  0  0  0  0  0  0  0  0
   -2.0808   62.6446   80.0068 C   0  0  0  0  0  0  0  0  0  0  0  0
   -0.9195   61.8866   79.8129 C   0  0  0  0  0  0  0  0  0  0  0  0
   -0.4673   61.0439   80.8337 C   0  0  0  0  0  0  0  0  0  0  0  0
   -1.1563   60.9760   82.0469 C   0  0  0  0  0  0  0  0  0  0  0  0
   -0.1548   61.9264   78.5379 C   0  0  0  0  0  0  0  0  0  0  0  0
    0.4601   62.9314   78.1907 O   0  0  0  0  0  0  0  0  0  0  0  0
   -0.2158   60.7995   77.7447 N   0  0  0  0  0  0  0  0  0  0  0  0
    0.3447   60.9635   76.4528 O   0  0  0  0  0  0  0  0  0  0  0  0
   -0.9984   60.1570   77.8001 H   0  0  0  0  0  0  0  0  0  0  0  0
    0.7043   61.8781   76.4961 H   0  0  0  0  0  0  0  0  0  0  0  0
   -0.2704   64.1055   87.9353 O   0  0  0  0  0  0  0  0  0  0  0  0
   -0.3047   63.4971   89.2278 C   0  0  0  0  0  0  0  0  0  0  0  0
    0.5287   62.2297   89.1641 C   0  0  0  0  0  0  0  0  0  0  0  0
 20 21  1  0  0  0
 21 19  1  0  0  0
 19  7  1  0  0  0
  7  8  2  0  0  0
  8  9  1  0  0  0
  9 10  1  0  0  0
  9 11  1  0  0  0
 11 12  1  0  0  0
 12 13  2  0  0  0
 12 14  1  0  0  0
 14 15  1  0  0  0
 15  1  1  0  0  0
  1  2  1  0  0  0
  2  3  2  0  0  0
  3 22  1  0  0  0
 22 23  1  0  0  0
 22 25  1  0  0  0
 25 26  1  0  0  0
 26 27  2  0  0  0
 27 28  1  0  0  0
 28 31  1  0  0  0
 31 32  2  0  0  0
 31 33  1  0  0  0
 33 34  1  0  0  0
 28 29  2  0  0  0
 29 30  1  0  0  0
  3  4  1  0  0  0
  4  5  2  0  0  0
  5  6  1  0  0  0
  6 37  1  0  0  0
 37 38  1  0  0  0
 38 39  1  0  0  0
 15 16  2  0  0  0
 16 17  1  0  0  0
 17  7  1  0  0  0
 17 11  2  0  0  0
  6  1  2  0  0  0
 30 25  2  0  0  0
 14 18  1  0  0  0
 23 24  1  0  0  0
 33 35  1  0  0  0
 34 36  1  0  0  0
M  END
> <minimizedAffinity>
-10.11823

$$$$



 39 42  0  0  0  0  0  0  0  0999 V2000
   -0.7757   63.0684   81.6981 C   0  0  0  0  0  0  0  0  0  0  0  0
   -0.3936   64.2426   81.0189 C   0  0  0  0  0  0  0  0  0  0  0  0
   -0.3794   64.3173   79.6172 C   0  0  0  0  0  0  0  0  0  0  0  0
   -0.7616   63.1835   78.8929 C   0  0  0  0  0  0  0  0  0  0  0  0
   -1.1382   62.0068   79.5485 C   0  0  0  0  0  0  0  0  0  0  0  0
   -1.1542   61.9346   80.9480 C   0  0  0  0  0  0  0  0  0  0  0  0
    0.9607   64.2632   86.1868 C   0  0  0  0  0  0  0  0  0  0  0  0
    0.4862   64.0180   87.4237 N   0  0  0  0  0  0  0  0  0  0  0  0
   -0.6587   63.3241   87.2050 N   0  0  0  0  0  0  0  0  0  0  0  0
   -1.4588   62.8848   88.3225 C   0  0  0  0  0  0  0  0  0  0  0  0
   -0.9162   63.1224   85.8858 C   0  0  0  0  0  0  0  0  0  0  0  0
   -1.9811   62.4624   85.2272 C   0  0  0  0  0  0  0  0  0  0  0  0
   -2.9377   61.9225   85.7704 O   0  0  0  0  0  0  0  0  0  0  0  0
   -1.8212   62.5003   83.8614 N   0  0  0  0  0  0  0  0  0  0  0  0
   -0.7642   63.1237   83.2048 C   0  0  0  0  0  0  0  0  0  0  0  0
    0.2128   63.7330   83.8230 N   0  0  0  0  0  0  0  0  0  0  0  0
    0.1095   63.7147   85.2140 C   0  0  0  0  0  0  0  0  0  0  0  0
   -2.5560   62.0657   83.3190 H   0  0  0  0  0  0  0  0  0  0  0  0
    2.2298   65.0177   85.9882 C   0  0  0  0  0  0  0  0  0  0  0  0
    3.6387   66.3804   84.3602 C   0  0  0  0  0  0  0  0  0  0  0  0
    2.2529   65.8528   84.7057 C   0  0  0  0  0  0  0  0  0  0  0  0
    0.0005   65.5942   78.8894 C   0  0  0  0  0  0  0  0  0  0  0  0
    0.9841   65.3319   77.8894 O   0  0  0  0  0  0  0  0  0  0  0  0
    1.4991   66.1469   77.7677 H   0  0  0  0  0  0  0  0  0  0  0  0
    0.4821   66.6948   79.8207 C   0  0  0  0  0  0  0  0  0  0  0  0
   -0.3765   67.7449   80.1819 C   0  0  0  0  0  0  0  0  0  0  0  0
    0.0587   68.7611   81.0394 C   0  0  0  0  0  0  0  0  0  0  0  0
    1.3609   68.7363   81.5538 C   0  0  0  0  0  0  0  0  0  0  0  0
    2.2274   67.7009   81.1880 C   0  0  0  0  0  0  0  0  0  0  0  0
    1.7899   66.6861   80.3336 C   0  0  0  0  0  0  0  0  0  0  0  0
    1.8699   69.7957   82.4651 C   0  0  0  0  0  0  0  0  0  0  0  0
    2.6809   69.5424   83.3521 O   0  0  0  0  0  0  0  0  0  0  0  0
    1.3459   71.0605   82.2968 N   0  0  0  0  0  0  0  0  0  0  0  0
    1.6961   71.9786   83.3189 O   0  0  0  0  0  0  0  0  0  0  0  0
    0.4321   71.2020   81.8806 H   0  0  0  0  0  0  0  0  0  0  0  0
    2.3086   71.4472   83.8756 H   0  0  0  0  0  0  0  0  0  0  0  0
   -1.5189   60.8050   81.6374 O   0  0  0  0  0  0  0  0  0  0  0  0
   -2.6939   60.1067   81.2211 C   0  0  0  0  0  0  0  0  0  0  0  0
   -3.8418   61.1002   81.2089 C   0  0  0  0  0  0  0  0  0  0  0  0
 20 21  1  0  0  0
 21 19  1  0  0  0
 19  7  1  0  0  0
  7  8  2  0  0  0
  8  9  1  0  0  0
  9 10  1  0  0  0
  9 11  1  0  0  0
 11 12  1  0  0  0
 12 13  2  0  0  0
 12 14  1  0  0  0
 14 15  1  0  0  0
 15  1  1  0  0  0
  1  2  1  0  0  0
  2  3  2  0  0  0
  3 22  1  0  0  0
 22 23  1  0  0  0
 22 25  1  0  0  0
 25 26  1  0  0  0
 26 27  2  0  0  0
 27 28  1  0  0  0
 28 31  1  0  0  0
 31 32  2  0  0  0
 31 33  1  0  0  0
 33 34  1  0  0  0
 28 29  2  0  0  0
 29 30  1  0  0  0
  3  4  1  0  0  0
  4  5  2  0  0  0
  5  6  1  0  0  0
  6 37  1  0  0  0
 37 38  1  0  0  0
 38 39  1  0  0  0
 15 16  2  0  0  0
 16 17  1  0  0  0
 17  7  1  0  0  0
 17 11  2  0  0  0
  6  1  2  0  0  0
 30 25  2  0  0  0
 14 18  1  0  0  0
 23 24  1  0  0  0
 33 35  1  0  0  0
 34 36  1  0  0  0
M  END
> <minimizedAffinity>
-10.11773

$$$$



 39 42  0  0  0  0  0  0  0  0999 V2000
    1.7425   66.5551   83.7441 C   0  0  0  0  0  0  0  0  0  0  0  0
    1.0998   67.2128   82.6763 C   0  0  0  0  0  0  0  0  0  0  0  0
    1.7006   68.2831   81.9950 C   0  0  0  0  0  0  0  0  0  0  0  0
    2.9752   68.6908   82.4018 C   0  0  0  0  0  0  0  0  0  0  0  0
    3.6270   68.0548   83.4635 C   0  0  0  0  0  0  0  0  0  0  0  0
    3.0267   66.9848   84.1409 C   0  0  0  0  0  0  0  0  0  0  0  0
   -1.1497   62.5289   83.8717 C   0  0  0  0  0  0  0  0  0  0  0  0
   -1.5700   61.7617   84.8964 N   0  0  0  0  0  0  0  0  0  0  0  0
   -1.0083   62.3363   85.9893 N   0  0  0  0  0  0  0  0  0  0  0  0
   -1.2380   61.7724   87.2973 C   0  0  0  0  0  0  0  0  0  0  0  0
   -0.2597   63.4307   85.6908 C   0  0  0  0  0  0  0  0  0  0  0  0
    0.4868   64.3100   86.5113 C   0  0  0  0  0  0  0  0  0  0  0  0
    0.6074   64.2290   87.7282 O   0  0  0  0  0  0  0  0  0  0  0  0
    1.0879   65.2970   85.7651 N   0  0  0  0  0  0  0  0  0  0  0  0
    0.9968   65.4098   84.3809 C   0  0  0  0  0  0  0  0  0  0  0  0
    0.3068   64.5903   83.6324 N   0  0  0  0  0  0  0  0  0  0  0  0
   -0.3369   63.5742   84.3389 C   0  0  0  0  0  0  0  0  0  0  0  0
    1.6582   65.9543   86.2807 H   0  0  0  0  0  0  0  0  0  0  0  0
   -1.5558   62.2264   82.4706 C   0  0  0  0  0  0  0  0  0  0  0  0
    0.7229   61.3603   81.7292 C   0  0  0  0  0  0  0  0  0  0  0  0
   -0.7688   61.0757   81.8385 C   0  0  0  0  0  0  0  0  0  0  0  0
    1.0195   68.9672   80.8236 C   0  0  0  0  0  0  0  0  0  0  0  0
    1.7119   68.6925   79.6063 O   0  0  0  0  0  0  0  0  0  0  0  0
    1.5499   69.4388   79.0054 H   0  0  0  0  0  0  0  0  0  0  0  0
    0.8671   70.4679   81.0113 C   0  0  0  0  0  0  0  0  0  0  0  0
   -0.3119   70.9985   81.5578 C   0  0  0  0  0  0  0  0  0  0  0  0
   -0.4597   72.3785   81.7350 C   0  0  0  0  0  0  0  0  0  0  0  0
    0.5765   73.2479   81.3726 C   0  0  0  0  0  0  0  0  0  0  0  0
    1.7493   72.7286   80.8146 C   0  0  0  0  0  0  0  0  0  0  0  0
    1.8955   71.3502   80.6409 C   0  0  0  0  0  0  0  0  0  0  0  0
    0.4644   74.7216   81.5382 C   0  0  0  0  0  0  0  0  0  0  0  0
    1.1844   75.4935   80.9101 O   0  0  0  0  0  0  0  0  0  0  0  0
   -0.4491   75.1719   82.4686 N   0  0  0  0  0  0  0  0  0  0  0  0
   -0.3662   76.5601   82.7443 O   0  0  0  0  0  0  0  0  0  0  0  0
   -0.7385   74.5910   83.2478 H   0  0  0  0  0  0  0  0  0  0  0  0
    0.3247   76.8576   82.1105 H   0  0  0  0  0  0  0  0  0  0  0  0
    3.6263   66.3266   85.1856 O   0  0  0  0  0  0  0  0  0  0  0  0
    5.0056   66.5896   85.4501 C   0  0  0  0  0  0  0  0  0  0  0  0
    5.7477   65.2665   85.3914 C   0  0  0  0  0  0  0  0  0  0  0  0
 20 21  1  0  0  0
 21 19  1  0  0  0
 19  7  1  0  0  0
  7  8  2  0  0  0
  8  9  1  0  0  0
  9 10  1  0  0  0
  9 11  1  0  0  0
 11 12  1  0  0  0
 12 13  2  0  0  0
 12 14  1  0  0  0
 14 15  1  0  0  0
 15  1  1  0  0  0
  1  2  1  0  0  0
  2  3  2  0  0  0
  3 22  1  0  0  0
 22 23  1  0  0  0
 22 25  1  0  0  0
 25 26  1  0  0  0
 26 27  2  0  0  0
 27 28  1  0  0  0
 28 31  1  0  0  0
 31 32  2  0  0  0
 31 33  1  0  0  0
 33 34  1  0  0  0
 28 29  2  0  0  0
 29 30  1  0  0  0
  3  4  1  0  0  0
  4  5  2  0  0  0
  5  6  1  0  0  0
  6 37  1  0  0  0
 37 38  1  0  0  0
 38 39  1  0  0  0
 15 16  2  0  0  0
 16 17  1  0  0  0
 17  7  1  0  0  0
 17 11  2  0  0  0
  6  1  2  0  0  0
 30 25  2  0  0  0
 14 18  1  0  0  0
 23 24  1  0  0  0
 33 35  1  0  0  0
 34 36  1  0  0  0
M  END
> <minimizedAffinity>
-10.11684

$$$$
