
     RDKit          3D

 46 49  0  0  0  0  0  0  0  0999 V2000
    6.1434   -1.9003    0.9991 C   0  0  0  0  0  0  0  0  0  0  0  0
    5.4509   -0.7063    0.5383 N   0  0  0  0  0  0  0  0  0  0  0  0
    6.0559    0.5650    0.9068 C   0  0  0  0  0  0  0  0  0  0  0  0
    4.0958   -0.7645    0.2734 C   0  0  0  0  0  0  0  0  0  0  0  0
    3.3130    0.2498    0.1014 N   0  0  0  0  0  0  0  0  0  0  0  0
    2.0220   -0.0655   -0.1406 C   0  0  0  0  0  0  0  0  0  0  0  0
    1.3828   -1.2216   -0.1521 N   0  0  0  0  0  0  0  0  0  0  0  0
    0.0767   -0.9208   -0.4572 C   0  0  0  0  0  0  0  0  0  0  0  0
   -1.0531   -1.8090   -0.6010 C   0  0  0  0  0  0  0  0  0  0  0  0
   -0.9588   -3.0268   -0.4692 O   0  0  0  0  0  0  0  0  0  0  0  0
   -2.2489   -1.1349   -0.9121 N   0  0  0  0  0  0  0  0  0  0  0  0
   -3.4437   -1.9541   -1.0457 C   0  0  0  0  0  0  0  0  0  0  0  0
   -4.2108   -1.9804    0.2479 C   0  0  0  0  0  0  0  0  0  0  0  0
   -5.0923   -3.1573    0.5829 C   0  0  0  0  0  0  0  0  0  0  0  0
   -3.8286   -2.9211    1.3629 C   0  0  0  0  0  0  0  0  0  0  0  0
   -2.4057    0.2569   -1.0879 C   0  0  0  0  0  0  0  0  0  0  0  0
   -3.5050    0.7561   -1.3467 O   0  0  0  0  0  0  0  0  0  0  0  0
   -1.2591    1.0611   -0.9523 N   0  0  0  0  0  0  0  0  0  0  0  0
   -1.3932    2.5069   -1.1028 C   0  0  0  0  0  0  0  0  0  0  0  0
   -1.7399    3.1441    0.2107 C   0  0  0  0  0  0  0  0  0  0  0  0
   -0.6774    3.6458    1.1569 C   0  0  0  0  0  0  0  0  0  0  0  0
   -1.5363    4.6255    0.4069 C   0  0  0  0  0  0  0  0  0  0  0  0
   -0.0806    0.4235   -0.6338 C   0  0  0  0  0  0  0  0  0  0  0  0
    1.1521    0.9616   -0.4321 N   0  0  0  0  0  0  0  0  0  0  0  0
    5.9285   -2.0804    2.0574 H   0  0  0  0  0  0  0  0  0  0  0  0
    7.2269   -1.8000    0.8758 H   0  0  0  0  0  0  0  0  0  0  0  0
    5.8321   -2.7796    0.4250 H   0  0  0  0  0  0  0  0  0  0  0  0
    5.7430    1.3624    0.2242 H   0  0  0  0  0  0  0  0  0  0  0  0
    7.1487    0.5114    0.8576 H   0  0  0  0  0  0  0  0  0  0  0  0
    5.7698    0.8426    1.9266 H   0  0  0  0  0  0  0  0  0  0  0  0
    3.7332   -1.8101    0.2173 H   0  0  0  0  0  0  0  0  0  0  0  0
   -4.0866   -1.5433   -1.8329 H   0  0  0  0  0  0  0  0  0  0  0  0
   -3.1742   -2.9691   -1.3598 H   0  0  0  0  0  0  0  0  0  0  0  0
   -4.5845   -0.9979    0.5182 H   0  0  0  0  0  0  0  0  0  0  0  0
   -6.0373   -2.9591    1.0763 H   0  0  0  0  0  0  0  0  0  0  0  0
   -5.1158   -4.0050   -0.0929 H   0  0  0  0  0  0  0  0  0  0  0  0
   -3.0054   -3.6111    1.2101 H   0  0  0  0  0  0  0  0  0  0  0  0
   -3.9175   -2.5618    2.3819 H   0  0  0  0  0  0  0  0  0  0  0  0
   -2.1860    2.7269   -1.8269 H   0  0  0  0  0  0  0  0  0  0  0  0
   -0.4642    2.9135   -1.5194 H   0  0  0  0  0  0  0  0  0  0  0  0
   -2.6445    2.7205    0.6367 H   0  0  0  0  0  0  0  0  0  0  0  0
   -0.8543    3.5246    2.2205 H   0  0  0  0  0  0  0  0  0  0  0  0
    0.3662    3.5830    0.8768 H   0  0  0  0  0  0  0  0  0  0  0  0
   -2.2911    5.1699    0.9642 H   0  0  0  0  0  0  0  0  0  0  0  0
   -1.0766    5.2010   -0.3885 H   0  0  0  0  0  0  0  0  0  0  0  0
    1.4304    1.9280   -0.4787 H   0  0  0  0  0  0  0  0  0  0  0  0
  1  2  1  0
  2  3  1  0
  2  4  1  0
  4  5  2  0
  5  6  1  0
  6  7  2  0
  7  8  1  0
  8  9  1  0
  9 10  2  0
  9 11  1  0
 11 12  1  0
 12 13  1  0
 13 14  1  0
 14 15  1  0
 11 16  1  0
 16 17  2  0
 16 18  1  0
 18 19  1  0
 19 20  1  0
 20 21  1  0
 21 22  1  0
 18 23  1  0
 23 24  1  0
 24  6  1  0
 23  8  2  0
 15 13  1  0
 22 20  1  0
  1 25  1  0
  1 26  1  0
  1 27  1  0
  3 28  1  0
  3 29  1  0
  3 30  1  0
  4 31  1  0
 12 32  1  0
 12 33  1  0
 13 34  1  0
 14 35  1  0
 14 36  1  0
 15 37  1  0
 15 38  1  0
 19 39  1  0
 19 40  1  0
 20 41  1  0
 21 42  1  0
 21 43  1  0
 22 44  1  0
 22 45  1  0
 24 46  1  0
M  END
$$$$
