
     RDKit          3D

 72 74  0  0  0  0  0  0  0  0999 V2000
   -1.5605    4.2728   -1.5067 C   0  0  0  0  0  0  0  0  0  0  0  0
   -0.7327    3.7579   -2.6765 C   0  0  0  0  0  0  0  0  0  0  0  0
   -1.1626    2.3603   -3.1188 C   0  0  0  0  0  0  0  0  0  0  0  0
   -1.0635    1.4172   -2.0497 O   0  0  0  0  0  0  0  0  0  0  0  0
    0.1163    0.7480   -1.8314 C   0  0  0  0  0  0  0  0  0  0  0  0
    1.2962    0.9866   -2.5506 C   0  0  0  0  0  0  0  0  0  0  0  0
    2.4613    0.2654   -2.2747 C   0  0  0  0  0  0  0  0  0  0  0  0
    2.4552   -0.7012   -1.2711 C   0  0  0  0  0  0  0  0  0  0  0  0
    3.9231   -1.6578   -0.9438 S   0  0  0  0  0  0  0  0  0  0  0  0
    3.4977   -3.0121   -0.6660 O   0  0  0  0  0  0  0  0  0  0  0  0
    4.8573   -1.3765   -2.0139 O   0  0  0  0  0  0  0  0  0  0  0  0
    4.5351   -0.9738    0.4851 N   0  0  0  0  0  0  0  0  0  0  0  0
    3.7731   -1.2013    1.7257 C   0  0  0  0  0  0  0  0  0  0  0  0
    5.1588    0.3709    0.3986 C   0  0  0  0  0  0  0  0  0  0  0  0
    6.6658    0.3118    0.0546 C   0  0  0  0  0  0  0  0  0  0  0  0
    7.6128   -0.2790    1.0172 N   0  0  0  0  0  0  0  0  0  0  0  0
    7.5407    0.3155    2.3450 C   0  0  0  0  0  0  0  0  0  0  0  0
    7.5242   -1.7349    1.0804 C   0  0  0  0  0  0  0  0  0  0  0  0
    1.2854   -0.9661   -0.5591 C   0  0  0  0  0  0  0  0  0  0  0  0
    0.1116   -0.2324   -0.8088 C   0  0  0  0  0  0  0  0  0  0  0  0
   -1.0604   -0.5273    0.0320 C   0  0  0  0  0  0  0  0  0  0  0  0
   -1.0830   -1.3364    1.0821 N   0  0  0  0  0  0  0  0  0  0  0  0
   -2.3739   -1.3035    1.5544 C   0  0  0  0  0  0  0  0  0  0  0  0
   -2.9474   -1.9914    2.6875 C   0  0  0  0  0  0  0  0  0  0  0  0
   -2.2891   -2.7111    3.4345 O   0  0  0  0  0  0  0  0  0  0  0  0
   -4.3191   -1.7305    2.8510 N   0  0  0  0  0  0  0  0  0  0  0  0
   -4.9789   -2.3710    3.9715 C   0  0  0  0  0  0  0  0  0  0  0  0
   -5.0948   -0.8190    2.1041 C   0  0  0  0  0  0  0  0  0  0  0  0
   -6.2634   -0.5697    2.4138 O   0  0  0  0  0  0  0  0  0  0  0  0
   -4.4812   -0.1981    0.9970 N   0  0  0  0  0  0  0  0  0  0  0  0
   -5.2615    0.7317    0.1773 C   0  0  0  0  0  0  0  0  0  0  0  0
   -5.9902    0.1041   -1.0313 C   0  0  0  0  0  0  0  0  0  0  0  0
   -7.0138   -0.9575   -0.6304 C   0  0  0  0  0  0  0  0  0  0  0  0
   -5.0328   -0.4575   -2.0820 C   0  0  0  0  0  0  0  0  0  0  0  0
   -3.1445   -0.4710    0.7949 C   0  0  0  0  0  0  0  0  0  0  0  0
   -2.3109    0.0257   -0.1582 N   0  0  0  0  0  0  0  0  0  0  0  0
   -2.6249    4.2981   -1.7609 H   0  0  0  0  0  0  0  0  0  0  0  0
   -1.4332    3.6427   -0.6207 H   0  0  0  0  0  0  0  0  0  0  0  0
   -1.2501    5.2890   -1.2438 H   0  0  0  0  0  0  0  0  0  0  0  0
    0.3204    3.7559   -2.3763 H   0  0  0  0  0  0  0  0  0  0  0  0
   -0.8320    4.4487   -3.5211 H   0  0  0  0  0  0  0  0  0  0  0  0
   -2.2220    2.3914   -3.4008 H   0  0  0  0  0  0  0  0  0  0  0  0
   -0.6332    2.0273   -4.0181 H   0  0  0  0  0  0  0  0  0  0  0  0
    1.3531    1.7320   -3.3372 H   0  0  0  0  0  0  0  0  0  0  0  0
    3.3622    0.4599   -2.8540 H   0  0  0  0  0  0  0  0  0  0  0  0
    3.3690   -2.2160    1.7686 H   0  0  0  0  0  0  0  0  0  0  0  0
    2.9579   -0.4791    1.8231 H   0  0  0  0  0  0  0  0  0  0  0  0
    4.4367   -1.0918    2.5892 H   0  0  0  0  0  0  0  0  0  0  0  0
    4.6455    0.9702   -0.3616 H   0  0  0  0  0  0  0  0  0  0  0  0
    5.0148    0.9196    1.3367 H   0  0  0  0  0  0  0  0  0  0  0  0
    6.9912    1.3478   -0.1110 H   0  0  0  0  0  0  0  0  0  0  0  0
    6.8076   -0.1754   -0.9168 H   0  0  0  0  0  0  0  0  0  0  0  0
    6.6060    0.0800    2.8637 H   0  0  0  0  0  0  0  0  0  0  0  0
    8.3695   -0.0408    2.9672 H   0  0  0  0  0  0  0  0  0  0  0  0
    7.6397    1.4051    2.2878 H   0  0  0  0  0  0  0  0  0  0  0  0
    7.5645   -2.1764    0.0786 H   0  0  0  0  0  0  0  0  0  0  0  0
    8.3830   -2.1369    1.6301 H   0  0  0  0  0  0  0  0  0  0  0  0
    6.6191   -2.0880    1.5821 H   0  0  0  0  0  0  0  0  0  0  0  0
    1.2778   -1.7492    0.1994 H   0  0  0  0  0  0  0  0  0  0  0  0
   -5.9952   -2.6684    3.6938 H   0  0  0  0  0  0  0  0  0  0  0  0
   -5.0371   -1.6512    4.7943 H   0  0  0  0  0  0  0  0  0  0  0  0
   -4.4389   -3.2585    4.3123 H   0  0  0  0  0  0  0  0  0  0  0  0
   -4.5962    1.5328   -0.1681 H   0  0  0  0  0  0  0  0  0  0  0  0
   -6.0054    1.2217    0.8179 H   0  0  0  0  0  0  0  0  0  0  0  0
   -6.5467    0.9196   -1.5131 H   0  0  0  0  0  0  0  0  0  0  0  0
   -7.5852   -1.2893   -1.5043 H   0  0  0  0  0  0  0  0  0  0  0  0
   -6.5340   -1.8403   -0.1961 H   0  0  0  0  0  0  0  0  0  0  0  0
   -7.7281   -0.5566    0.0957 H   0  0  0  0  0  0  0  0  0  0  0  0
   -4.3119    0.3023   -2.4001 H   0  0  0  0  0  0  0  0  0  0  0  0
   -5.5858   -0.7770   -2.9722 H   0  0  0  0  0  0  0  0  0  0  0  0
   -4.4833   -1.3268   -1.7081 H   0  0  0  0  0  0  0  0  0  0  0  0
   -2.5249    0.6885   -0.8899 H   0  0  0  0  0  0  0  0  0  0  0  0
  1  2  1  0
  2  3  1  0
  3  4  1  0
  4  5  1  0
  5  6  1  0
  6  7  2  0
  7  8  1  0
  8  9  1  0
  9 10  2  0
  9 11  2  0
  9 12  1  0
 12 13  1  0
 12 14  1  0
 14 15  1  0
 15 16  1  0
 16 17  1  0
 16 18  1  0
  8 19  2  0
 19 20  1  0
 20 21  1  0
 21 22  2  0
 22 23  1  0
 23 24  1  0
 24 25  2  0
 24 26  1  0
 26 27  1  0
 26 28  1  0
 28 29  2  0
 28 30  1  0
 30 31  1  0
 31 32  1  0
 32 33  1  0
 32 34  1  0
 30 35  1  0
 35 36  1  0
 20  5  2  0
 36 21  1  0
 35 23  2  0
  1 37  1  0
  1 38  1  0
  1 39  1  0
  2 40  1  0
  2 41  1  0
  3 42  1  0
  3 43  1  0
  6 44  1  0
  7 45  1  0
 13 46  1  0
 13 47  1  0
 13 48  1  0
 14 49  1  0
 14 50  1  0
 15 51  1  0
 15 52  1  0
 17 53  1  0
 17 54  1  0
 17 55  1  0
 18 56  1  0
 18 57  1  0
 18 58  1  0
 19 59  1  0
 27 60  1  0
 27 61  1  0
 27 62  1  0
 31 63  1  0
 31 64  1  0
 32 65  1  0
 33 66  1  0
 33 67  1  0
 33 68  1  0
 34 69  1  0
 34 70  1  0
 34 71  1  0
 36 72  1  0
M  END
$$$$
