


 41 44  0  0  0  0  0  0  0  0999 V2000
    2.1992   66.9756   83.8170 C   0  0  0  0  0  0  0  0  0  0  0  0
    1.6384   67.8991   82.9237 C   0  0  0  0  0  0  0  0  0  0  0  0
    2.4133   68.9699   82.4713 C   0  0  0  0  0  0  0  0  0  0  0  0
    3.7241   69.1410   82.9241 C   0  0  0  0  0  0  0  0  0  0  0  0
    4.2775   68.2161   83.8139 C   0  0  0  0  0  0  0  0  0  0  0  0
    3.5161   67.1376   84.2783 C   0  0  0  0  0  0  0  0  0  0  0  0
   -1.1677   63.5164   83.4091 C   0  0  0  0  0  0  0  0  0  0  0  0
   -1.6173   62.5340   84.2929 C   0  0  0  0  0  0  0  0  0  0  0  0
   -0.9133   62.7389   85.5326 C   0  0  0  0  0  0  0  0  0  0  0  0
   -1.0559   61.9609   86.7969 C   0  0  0  0  0  0  0  0  0  0  0  0
   -0.0493   63.8016   85.3302 C   0  0  0  0  0  0  0  0  0  0  0  0
    0.8996   64.4372   86.1899 C   0  0  0  0  0  0  0  0  0  0  0  0
    1.1292   64.1353   87.3574 O   0  0  0  0  0  0  0  0  0  0  0  0
    1.5781   65.4642   85.5897 N   0  0  0  0  0  0  0  0  0  0  0  0
    1.3579   65.8487   84.2858 C   0  0  0  0  0  0  0  0  0  0  0  0
    0.5010   65.2799   83.4986 N   0  0  0  0  0  0  0  0  0  0  0  0
   -0.1999   64.2564   84.0515 N   0  0  0  0  0  0  0  0  0  0  0  0
    2.2295   65.9500   86.1863 H   0  0  0  0  0  0  0  0  0  0  0  0
   -2.6080   61.4956   84.0440 C   0  0  0  0  0  0  0  0  0  0  0  0
   -2.4280   60.5967   83.1312 N   0  0  0  0  0  0  0  0  0  0  0  0
   -3.5300   59.7316   83.1116 O   0  0  0  0  0  0  0  0  0  0  0  0
   -3.2884   59.1058   82.4031 H   0  0  0  0  0  0  0  0  0  0  0  0
   -1.5486   63.8380   81.9919 C   0  0  0  0  0  0  0  0  0  0  0  0
    0.1007   63.9701   80.0411 C   0  0  0  0  0  0  0  0  0  0  0  0
   -0.7115   63.0718   80.9621 C   0  0  0  0  0  0  0  0  0  0  0  0
    1.6945   70.1791   81.3759 S   0  0  0  0  0  0  0  0  0  0  0  0
    0.3003   70.3115   81.7400 O   0  0  0  0  0  0  0  0  0  0  0  0
    2.0889   69.8208   80.0305 O   0  0  0  0  0  0  0  0  0  0  0  0
    2.5009   71.6155   81.8041 N   0  0  0  0  0  0  0  0  0  0  0  0
    1.8220   72.5038   82.7735 C   0  0  0  0  0  0  0  0  0  0  0  0
    2.8514   73.4348   83.4089 C   0  0  0  0  0  0  0  0  0  0  0  0
    3.6183   74.2457   82.3490 C   0  0  0  0  0  0  0  0  0  0  0  0
    4.2285   73.2904   81.3111 C   0  0  0  0  0  0  0  0  0  0  0  0
    3.1745   72.3569   80.7154 C   0  0  0  0  0  0  0  0  0  0  0  0
    4.6801   75.1263   83.0373 C   0  0  0  0  0  0  0  0  0  0  0  0
    4.1259   76.2192   83.9467 C   0  0  0  0  0  0  0  0  0  0  0  0
    4.5026   75.9932   85.2966 O   0  0  0  0  0  0  0  0  0  0  0  0
    3.8964   75.3310   85.6671 H   0  0  0  0  0  0  0  0  0  0  0  0
    4.0276   66.1782   85.1084 O   0  0  0  0  0  0  0  0  0  0  0  0
    5.0650   66.5829   86.0074 C   0  0  0  0  0  0  0  0  0  0  0  0
    5.5732   65.4402   86.8736 C   0  0  0  0  0  0  0  0  0  0  0  0
 24 25  1  0  0  0
 25 23  1  0  0  0
 23  7  1  0  0  0
  7  8  2  0  0  0
  8 19  1  0  0  0
 19 20  2  0  0  0
 20 21  1  0  0  0
  8  9  1  0  0  0
  9 10  1  0  0  0
  9 11  2  0  0  0
 11 12  1  0  0  0
 12 13  2  0  0  0
 12 14  1  0  0  0
 14 15  1  0  0  0
 15  1  1  0  0  0
  1  2  1  0  0  0
  2  3  2  0  0  0
  3 26  1  0  0  0
 26 27  2  0  0  0
 26 28  2  0  0  0
 26 29  1  0  0  0
 29 30  1  0  0  0
 30 31  1  0  0  0
 31 32  1  0  0  0
 32 35  1  0  0  0
 35 36  1  0  0  0
 36 37  1  0  0  0
 32 33  1  0  0  0
 33 34  1  0  0  0
  3  4  1  0  0  0
  4  5  2  0  0  0
  5  6  1  0  0  0
  6 39  1  0  0  0
 39 40  1  0  0  0
 40 41  1  0  0  0
 15 16  2  0  0  0
 16 17  1  0  0  0
 17  7  1  0  0  0
 17 11  1  0  0  0
  6  1  2  0  0  0
 34 29  1  0  0  0
 21 22  1  0  0  0
 14 18  1  0  0  0
 37 38  1  0  0  0
M  END
> <minimizedAffinity>
-10.50504

$$$$



 41 44  0  0  0  0  0  0  0  0999 V2000
    2.2846   66.9479   83.9095 C   0  0  0  0  0  0  0  0  0  0  0  0
    1.7020   68.0022   83.1925 C   0  0  0  0  0  0  0  0  0  0  0  0
    2.5009   69.0709   82.7782 C   0  0  0  0  0  0  0  0  0  0  0  0
    3.8605   69.1088   83.0982 C   0  0  0  0  0  0  0  0  0  0  0  0
    4.4353   68.0539   83.8124 C   0  0  0  0  0  0  0  0  0  0  0  0
    3.6506   66.9753   84.2362 C   0  0  0  0  0  0  0  0  0  0  0  0
   -1.1299   63.5531   83.3752 C   0  0  0  0  0  0  0  0  0  0  0  0
   -1.6101   62.5606   84.2312 C   0  0  0  0  0  0  0  0  0  0  0  0
   -0.9239   62.7289   85.4863 C   0  0  0  0  0  0  0  0  0  0  0  0
   -1.1003   61.9279   86.7318 C   0  0  0  0  0  0  0  0  0  0  0  0
   -0.0397   63.7812   85.3200 C   0  0  0  0  0  0  0  0  0  0  0  0
    0.9046   64.3836   86.2081 C   0  0  0  0  0  0  0  0  0  0  0  0
    1.1096   64.0546   87.3729 O   0  0  0  0  0  0  0  0  0  0  0  0
    1.6096   65.4113   85.6405 N   0  0  0  0  0  0  0  0  0  0  0  0
    1.4176   65.8256   84.3412 C   0  0  0  0  0  0  0  0  0  0  0  0
    0.5651   65.2870   83.5284 N   0  0  0  0  0  0  0  0  0  0  0  0
   -0.1614   64.2641   84.0486 N   0  0  0  0  0  0  0  0  0  0  0  0
    2.2585   65.8742   86.2576 H   0  0  0  0  0  0  0  0  0  0  0  0
   -2.6129   61.5438   83.9447 C   0  0  0  0  0  0  0  0  0  0  0  0
   -2.3799   60.5831   83.1102 N   0  0  0  0  0  0  0  0  0  0  0  0
   -3.5091   59.7575   83.0297 O   0  0  0  0  0  0  0  0  0  0  0  0
   -3.2241   59.0801   82.3880 H   0  0  0  0  0  0  0  0  0  0  0  0
   -1.4816   63.9095   81.9588 C   0  0  0  0  0  0  0  0  0  0  0  0
   -1.6624   62.3348   79.9510 C   0  0  0  0  0  0  0  0  0  0  0  0
   -0.7414   63.0508   80.9277 C   0  0  0  0  0  0  0  0  0  0  0  0
    1.7611   70.4418   81.9109 S   0  0  0  0  0  0  0  0  0  0  0  0
    1.1777   71.3141   82.9072 O   0  0  0  0  0  0  0  0  0  0  0  0
    0.9634   69.8856   80.8393 O   0  0  0  0  0  0  0  0  0  0  0  0
    3.1023   71.2324   81.2231 N   0  0  0  0  0  0  0  0  0  0  0  0
    3.0658   72.7114   81.1892 C   0  0  0  0  0  0  0  0  0  0  0  0
    4.4863   73.2459   81.0268 C   0  0  0  0  0  0  0  0  0  0  0  0
    5.1713   72.6743   79.7725 C   0  0  0  0  0  0  0  0  0  0  0  0
    5.1043   71.1391   79.8031 C   0  0  0  0  0  0  0  0  0  0  0  0
    3.6715   70.6407   79.9924 C   0  0  0  0  0  0  0  0  0  0  0  0
    6.6176   73.2008   79.6855 C   0  0  0  0  0  0  0  0  0  0  0  0
    7.3537   72.8639   78.3921 C   0  0  0  0  0  0  0  0  0  0  0  0
    8.3174   71.8445   78.6093 O   0  0  0  0  0  0  0  0  0  0  0  0
    9.1082   72.2599   78.9905 H   0  0  0  0  0  0  0  0  0  0  0  0
    4.1751   65.8958   84.8924 O   0  0  0  0  0  0  0  0  0  0  0  0
    5.0952   66.1655   85.9548 C   0  0  0  0  0  0  0  0  0  0  0  0
    5.0447   65.1193   87.0581 C   0  0  0  0  0  0  0  0  0  0  0  0
 24 25  1  0  0  0
 25 23  1  0  0  0
 23  7  1  0  0  0
  7  8  2  0  0  0
  8 19  1  0  0  0
 19 20  2  0  0  0
 20 21  1  0  0  0
  8  9  1  0  0  0
  9 10  1  0  0  0
  9 11  2  0  0  0
 11 12  1  0  0  0
 12 13  2  0  0  0
 12 14  1  0  0  0
 14 15  1  0  0  0
 15  1  1  0  0  0
  1  2  1  0  0  0
  2  3  2  0  0  0
  3 26  1  0  0  0
 26 27  2  0  0  0
 26 28  2  0  0  0
 26 29  1  0  0  0
 29 30  1  0  0  0
 30 31  1  0  0  0
 31 32  1  0  0  0
 32 35  1  0  0  0
 35 36  1  0  0  0
 36 37  1  0  0  0
 32 33  1  0  0  0
 33 34  1  0  0  0
  3  4  1  0  0  0
  4  5  2  0  0  0
  5  6  1  0  0  0
  6 39  1  0  0  0
 39 40  1  0  0  0
 40 41  1  0  0  0
 15 16  2  0  0  0
 16 17  1  0  0  0
 17  7  1  0  0  0
 17 11  1  0  0  0
  6  1  2  0  0  0
 34 29  1  0  0  0
 21 22  1  0  0  0
 14 18  1  0  0  0
 37 38  1  0  0  0
M  END
> <minimizedAffinity>
-10.49631

$$$$



 41 44  0  0  0  0  0  0  0  0999 V2000
    3.0512   66.3217   84.6932 C   0  0  0  0  0  0  0  0  0  0  0  0
    2.7579   67.3905   83.8348 C   0  0  0  0  0  0  0  0  0  0  0  0
    3.7611   68.3109   83.5214 C   0  0  0  0  0  0  0  0  0  0  0  0
    5.0369   68.1900   84.0782 C   0  0  0  0  0  0  0  0  0  0  0  0
    5.3232   67.1214   84.9324 C   0  0  0  0  0  0  0  0  0  0  0  0
    4.3306   66.1901   85.2582 C   0  0  0  0  0  0  0  0  0  0  0  0
   -0.7609   63.4894   83.7373 C   0  0  0  0  0  0  0  0  0  0  0  0
   -1.4953   62.6040   84.5279 C   0  0  0  0  0  0  0  0  0  0  0  0
   -0.9546   62.6923   85.8599 C   0  0  0  0  0  0  0  0  0  0  0  0
   -1.4102   61.9578   87.0752 C   0  0  0  0  0  0  0  0  0  0  0  0
    0.0983   63.5898   85.8048 C   0  0  0  0  0  0  0  0  0  0  0  0
    1.0064   64.0580   86.8044 C   0  0  0  0  0  0  0  0  0  0  0  0
    1.0088   63.7282   87.9868 O   0  0  0  0  0  0  0  0  0  0  0  0
    1.9302   64.9498   86.3284 N   0  0  0  0  0  0  0  0  0  0  0  0
    1.9709   65.3587   85.0139 C   0  0  0  0  0  0  0  0  0  0  0  0
    1.1533   64.9408   84.1005 N   0  0  0  0  0  0  0  0  0  0  0  0
    0.2151   64.0561   84.5267 N   0  0  0  0  0  0  0  0  0  0  0  0
    2.5611   65.3201   87.0219 H   0  0  0  0  0  0  0  0  0  0  0  0
   -2.6017   61.7495   84.1188 C   0  0  0  0  0  0  0  0  0  0  0  0
   -2.4067   60.6914   83.4004 N   0  0  0  0  0  0  0  0  0  0  0  0
   -3.6364   60.0648   83.1583 O   0  0  0  0  0  0  0  0  0  0  0  0
   -3.3728   59.2934   82.6223 H   0  0  0  0  0  0  0  0  0  0  0  0
   -0.8710   63.8632   82.2864 C   0  0  0  0  0  0  0  0  0  0  0  0
    0.7540   61.9321   81.8700 C   0  0  0  0  0  0  0  0  0  0  0  0
   -0.4255   62.7380   81.3464 C   0  0  0  0  0  0  0  0  0  0  0  0
    3.3858   69.7029   82.4724 S   0  0  0  0  0  0  0  0  0  0  0  0
    4.5327   69.9152   81.6160 O   0  0  0  0  0  0  0  0  0  0  0  0
    2.8817   70.7555   83.3279 O   0  0  0  0  0  0  0  0  0  0  0  0
    2.0995   69.1299   81.5164 N   0  0  0  0  0  0  0  0  0  0  0  0
    2.4307   68.6730   80.1483 C   0  0  0  0  0  0  0  0  0  0  0  0
    1.3190   67.7586   79.6405 C   0  0  0  0  0  0  0  0  0  0  0  0
   -0.0542   68.4529   79.6814 C   0  0  0  0  0  0  0  0  0  0  0  0
   -0.3166   68.9933   81.0960 C   0  0  0  0  0  0  0  0  0  0  0  0
    0.8279   69.8832   81.5812 C   0  0  0  0  0  0  0  0  0  0  0  0
   -1.1462   67.4712   79.2121 C   0  0  0  0  0  0  0  0  0  0  0  0
   -0.6901   66.0245   79.0463 C   0  0  0  0  0  0  0  0  0  0  0  0
   -0.8013   65.6110   77.6929 O   0  0  0  0  0  0  0  0  0  0  0  0
   -1.7286   65.3723   77.5306 H   0  0  0  0  0  0  0  0  0  0  0  0
    4.5742   65.0998   86.0476 O   0  0  0  0  0  0  0  0  0  0  0  0
    5.7732   65.1181   86.8287 C   0  0  0  0  0  0  0  0  0  0  0  0
    5.5215   65.4722   88.2866 C   0  0  0  0  0  0  0  0  0  0  0  0
 24 25  1  0  0  0
 25 23  1  0  0  0
 23  7  1  0  0  0
  7  8  2  0  0  0
  8 19  1  0  0  0
 19 20  2  0  0  0
 20 21  1  0  0  0
  8  9  1  0  0  0
  9 10  1  0  0  0
  9 11  2  0  0  0
 11 12  1  0  0  0
 12 13  2  0  0  0
 12 14  1  0  0  0
 14 15  1  0  0  0
 15  1  1  0  0  0
  1  2  1  0  0  0
  2  3  2  0  0  0
  3 26  1  0  0  0
 26 27  2  0  0  0
 26 28  2  0  0  0
 26 29  1  0  0  0
 29 30  1  0  0  0
 30 31  1  0  0  0
 31 32  1  0  0  0
 32 35  1  0  0  0
 35 36  1  0  0  0
 36 37  1  0  0  0
 32 33  1  0  0  0
 33 34  1  0  0  0
  3  4  1  0  0  0
  4  5  2  0  0  0
  5  6  1  0  0  0
  6 39  1  0  0  0
 39 40  1  0  0  0
 40 41  1  0  0  0
 15 16  2  0  0  0
 16 17  1  0  0  0
 17  7  1  0  0  0
 17 11  1  0  0  0
  6  1  2  0  0  0
 34 29  1  0  0  0
 21 22  1  0  0  0
 14 18  1  0  0  0
 37 38  1  0  0  0
M  END
> <minimizedAffinity>
-10.26291

$$$$



 41 44  0  0  0  0  0  0  0  0999 V2000
   -0.0353   63.5574   83.8789 C   0  0  0  0  0  0  0  0  0  0  0  0
    0.7360   64.6076   83.3617 C   0  0  0  0  0  0  0  0  0  0  0  0
    1.3548   65.4990   84.2416 C   0  0  0  0  0  0  0  0  0  0  0  0
    1.1858   65.3685   85.6225 C   0  0  0  0  0  0  0  0  0  0  0  0
    0.4164   64.3186   86.1316 C   0  0  0  0  0  0  0  0  0  0  0  0
   -0.2115   63.4163   85.2654 C   0  0  0  0  0  0  0  0  0  0  0  0
   -0.6755   61.3372   79.6210 C   0  0  0  0  0  0  0  0  0  0  0  0
   -1.5563   60.3370   79.2060 C   0  0  0  0  0  0  0  0  0  0  0  0
   -2.4139   60.0493   80.3269 C   0  0  0  0  0  0  0  0  0  0  0  0
   -3.5356   59.0682   80.3834 C   0  0  0  0  0  0  0  0  0  0  0  0
   -1.9897   60.8537   81.3709 C   0  0  0  0  0  0  0  0  0  0  0  0
   -2.4484   60.9898   82.7179 C   0  0  0  0  0  0  0  0  0  0  0  0
   -3.3807   60.3746   83.2270 O   0  0  0  0  0  0  0  0  0  0  0  0
   -1.7358   61.9035   83.4477 N   0  0  0  0  0  0  0  0  0  0  0  0
   -0.6847   62.6250   82.9269 C   0  0  0  0  0  0  0  0  0  0  0  0
   -0.2613   62.5095   81.7083 N   0  0  0  0  0  0  0  0  0  0  0  0
   -0.9406   61.6160   80.9435 N   0  0  0  0  0  0  0  0  0  0  0  0
   -2.0617   62.0417   84.3916 H   0  0  0  0  0  0  0  0  0  0  0  0
   -1.6257   59.6944   77.9007 C   0  0  0  0  0  0  0  0  0  0  0  0
   -1.4861   58.4148   77.7707 N   0  0  0  0  0  0  0  0  0  0  0  0
   -1.5986   58.0734   76.4164 O   0  0  0  0  0  0  0  0  0  0  0  0
   -1.4830   57.1049   76.4376 H   0  0  0  0  0  0  0  0  0  0  0  0
    0.4192   62.0698   78.8987 C   0  0  0  0  0  0  0  0  0  0  0  0
   -0.5828   63.2225   76.8467 C   0  0  0  0  0  0  0  0  0  0  0  0
   -0.0589   63.3812   78.2663 C   0  0  0  0  0  0  0  0  0  0  0  0
    2.2952   66.8685   83.5944 S   0  0  0  0  0  0  0  0  0  0  0  0
    1.6956   68.0808   84.1087 O   0  0  0  0  0  0  0  0  0  0  0  0
    2.4423   66.6480   82.1718 O   0  0  0  0  0  0  0  0  0  0  0  0
    3.8192   66.6701   84.3258 N   0  0  0  0  0  0  0  0  0  0  0  0
    3.9502   65.5832   85.3216 C   0  0  0  0  0  0  0  0  0  0  0  0
    5.4254   65.2274   85.4865 C   0  0  0  0  0  0  0  0  0  0  0  0
    6.2673   66.4536   85.8827 C   0  0  0  0  0  0  0  0  0  0  0  0
    6.0298   67.5893   84.8747 C   0  0  0  0  0  0  0  0  0  0  0  0
    4.5414   67.9007   84.7163 C   0  0  0  0  0  0  0  0  0  0  0  0
    7.7527   66.0531   85.9820 C   0  0  0  0  0  0  0  0  0  0  0  0
    8.5564   66.2183   84.6955 C   0  0  0  0  0  0  0  0  0  0  0  0
    8.3612   65.1092   83.8312 O   0  0  0  0  0  0  0  0  0  0  0  0
    8.9365   64.3892   84.1377 H   0  0  0  0  0  0  0  0  0  0  0  0
   -0.9317   62.3438   85.7148 O   0  0  0  0  0  0  0  0  0  0  0  0
   -1.4831   62.4374   87.0320 C   0  0  0  0  0  0  0  0  0  0  0  0
   -2.9145   62.9525   87.0366 C   0  0  0  0  0  0  0  0  0  0  0  0
 24 25  1  0  0  0
 25 23  1  0  0  0
 23  7  1  0  0  0
  7  8  2  0  0  0
  8 19  1  0  0  0
 19 20  2  0  0  0
 20 21  1  0  0  0
  8  9  1  0  0  0
  9 10  1  0  0  0
  9 11  2  0  0  0
 11 12  1  0  0  0
 12 13  2  0  0  0
 12 14  1  0  0  0
 14 15  1  0  0  0
 15  1  1  0  0  0
  1  2  1  0  0  0
  2  3  2  0  0  0
  3 26  1  0  0  0
 26 27  2  0  0  0
 26 28  2  0  0  0
 26 29  1  0  0  0
 29 30  1  0  0  0
 30 31  1  0  0  0
 31 32  1  0  0  0
 32 35  1  0  0  0
 35 36  1  0  0  0
 36 37  1  0  0  0
 32 33  1  0  0  0
 33 34  1  0  0  0
  3  4  1  0  0  0
  4  5  2  0  0  0
  5  6  1  0  0  0
  6 39  1  0  0  0
 39 40  1  0  0  0
 40 41  1  0  0  0
 15 16  2  0  0  0
 16 17  1  0  0  0
 17  7  1  0  0  0
 17 11  1  0  0  0
  6  1  2  0  0  0
 34 29  1  0  0  0
 21 22  1  0  0  0
 14 18  1  0  0  0
 37 38  1  0  0  0
M  END
> <minimizedAffinity>
-9.99074

$$$$



 41 44  0  0  0  0  0  0  0  0999 V2000
    2.2845   67.2304   83.2377 C   0  0  0  0  0  0  0  0  0  0  0  0
    1.8692   67.9485   82.1076 C   0  0  0  0  0  0  0  0  0  0  0  0
    2.6167   69.0507   81.6851 C   0  0  0  0  0  0  0  0  0  0  0  0
    3.7499   69.4561   82.3948 C   0  0  0  0  0  0  0  0  0  0  0  0
    4.1592   68.7352   83.5200 C   0  0  0  0  0  0  0  0  0  0  0  0
    3.4226   67.6289   83.9583 C   0  0  0  0  0  0  0  0  0  0  0  0
   -0.4591   63.2879   82.6072 C   0  0  0  0  0  0  0  0  0  0  0  0
   -1.0198   62.3798   83.5068 C   0  0  0  0  0  0  0  0  0  0  0  0
   -0.6985   62.8542   84.8283 C   0  0  0  0  0  0  0  0  0  0  0  0
   -1.0888   62.2437   86.1317 C   0  0  0  0  0  0  0  0  0  0  0  0
    0.0687   63.9954   84.6673 C   0  0  0  0  0  0  0  0  0  0  0  0
    0.6797   64.8758   85.6132 C   0  0  0  0  0  0  0  0  0  0  0  0
    0.6204   64.7737   86.8351 O   0  0  0  0  0  0  0  0  0  0  0  0
    1.3792   65.9002   85.0331 N   0  0  0  0  0  0  0  0  0  0  0  0
    1.4750   66.0661   83.6694 C   0  0  0  0  0  0  0  0  0  0  0  0
    0.9256   65.2746   82.8039 N   0  0  0  0  0  0  0  0  0  0  0  0
    0.2168   64.2438   83.3328 N   0  0  0  0  0  0  0  0  0  0  0  0
    1.7916   66.5540   85.6802 H   0  0  0  0  0  0  0  0  0  0  0  0
   -1.7905   61.1820   83.2019 C   0  0  0  0  0  0  0  0  0  0  0  0
   -2.9891   61.0166   83.6597 N   0  0  0  0  0  0  0  0  0  0  0  0
   -3.4888   59.7867   83.2116 O   0  0  0  0  0  0  0  0  0  0  0  0
   -4.3808   59.7701   83.6066 H   0  0  0  0  0  0  0  0  0  0  0  0
   -0.4802   63.3528   81.1065 C   0  0  0  0  0  0  0  0  0  0  0  0
    0.5990   62.4669   78.9631 C   0  0  0  0  0  0  0  0  0  0  0  0
    0.3636   62.2542   80.4512 C   0  0  0  0  0  0  0  0  0  0  0  0
    2.0694   70.0023   80.2802 S   0  0  0  0  0  0  0  0  0  0  0  0
    0.8007   69.4501   79.8569 O   0  0  0  0  0  0  0  0  0  0  0  0
    3.1894   70.0965   79.3689 O   0  0  0  0  0  0  0  0  0  0  0  0
    1.7900   71.5445   80.9440 N   0  0  0  0  0  0  0  0  0  0  0  0
    2.9768   72.3900   81.2021 C   0  0  0  0  0  0  0  0  0  0  0  0
    2.5421   73.8497   81.3027 C   0  0  0  0  0  0  0  0  0  0  0  0
    1.4657   74.0513   82.3843 C   0  0  0  0  0  0  0  0  0  0  0  0
    0.2943   73.0891   82.1313 C   0  0  0  0  0  0  0  0  0  0  0  0
    0.7696   71.6411   82.0108 C   0  0  0  0  0  0  0  0  0  0  0  0
    1.0229   75.5278   82.4071 C   0  0  0  0  0  0  0  0  0  0  0  0
   -0.4696   75.7608   82.1916 C   0  0  0  0  0  0  0  0  0  0  0  0
   -1.0800   76.2567   83.3734 O   0  0  0  0  0  0  0  0  0  0  0  0
   -1.2486   75.5011   83.9599 H   0  0  0  0  0  0  0  0  0  0  0  0
    3.8098   66.8608   85.0220 O   0  0  0  0  0  0  0  0  0  0  0  0
    5.0344   67.2188   85.6702 C   0  0  0  0  0  0  0  0  0  0  0  0
    5.7551   66.0214   86.2713 C   0  0  0  0  0  0  0  0  0  0  0  0
 24 25  1  0  0  0
 25 23  1  0  0  0
 23  7  1  0  0  0
  7  8  2  0  0  0
  8 19  1  0  0  0
 19 20  2  0  0  0
 20 21  1  0  0  0
  8  9  1  0  0  0
  9 10  1  0  0  0
  9 11  2  0  0  0
 11 12  1  0  0  0
 12 13  2  0  0  0
 12 14  1  0  0  0
 14 15  1  0  0  0
 15  1  1  0  0  0
  1  2  1  0  0  0
  2  3  2  0  0  0
  3 26  1  0  0  0
 26 27  2  0  0  0
 26 28  2  0  0  0
 26 29  1  0  0  0
 29 30  1  0  0  0
 30 31  1  0  0  0
 31 32  1  0  0  0
 32 35  1  0  0  0
 35 36  1  0  0  0
 36 37  1  0  0  0
 32 33  1  0  0  0
 33 34  1  0  0  0
  3  4  1  0  0  0
  4  5  2  0  0  0
  5  6  1  0  0  0
  6 39  1  0  0  0
 39 40  1  0  0  0
 40 41  1  0  0  0
 15 16  2  0  0  0
 16 17  1  0  0  0
 17  7  1  0  0  0
 17 11  1  0  0  0
  6  1  2  0  0  0
 34 29  1  0  0  0
 21 22  1  0  0  0
 14 18  1  0  0  0
 37 38  1  0  0  0
M  END
> <minimizedAffinity>
-9.75176

$$$$



 41 44  0  0  0  0  0  0  0  0999 V2000
    0.0505   63.9809   84.9311 C   0  0  0  0  0  0  0  0  0  0  0  0
   -0.5341   63.3450   83.8269 C   0  0  0  0  0  0  0  0  0  0  0  0
   -1.5667   62.4271   84.0343 C   0  0  0  0  0  0  0  0  0  0  0  0
   -1.9961   62.1193   85.3279 C   0  0  0  0  0  0  0  0  0  0  0  0
   -1.4098   62.7577   86.4243 C   0  0  0  0  0  0  0  0  0  0  0  0
   -0.3738   63.6795   86.2359 C   0  0  0  0  0  0  0  0  0  0  0  0
    4.5345   65.7658   85.3503 C   0  0  0  0  0  0  0  0  0  0  0  0
    5.1616   66.8746   84.7795 C   0  0  0  0  0  0  0  0  0  0  0  0
    4.1640   67.5565   83.9958 C   0  0  0  0  0  0  0  0  0  0  0  0
    4.3309   68.8106   83.2063 C   0  0  0  0  0  0  0  0  0  0  0  0
    3.0004   66.8130   84.0962 C   0  0  0  0  0  0  0  0  0  0  0  0
    1.7018   66.9912   83.5260 C   0  0  0  0  0  0  0  0  0  0  0  0
    1.3570   67.9145   82.7942 O   0  0  0  0  0  0  0  0  0  0  0  0
    0.8153   66.0048   83.8673 N   0  0  0  0  0  0  0  0  0  0  0  0
    1.1461   64.9494   84.6878 C   0  0  0  0  0  0  0  0  0  0  0  0
    2.3191   64.7784   85.2095 N   0  0  0  0  0  0  0  0  0  0  0  0
    3.2327   65.7352   84.9018 N   0  0  0  0  0  0  0  0  0  0  0  0
   -0.1172   66.1263   83.5042 H   0  0  0  0  0  0  0  0  0  0  0  0
    6.5487   67.2921   84.9323 C   0  0  0  0  0  0  0  0  0  0  0  0
    7.5266   66.5352   84.5523 N   0  0  0  0  0  0  0  0  0  0  0  0
    8.7409   67.1828   84.8156 O   0  0  0  0  0  0  0  0  0  0  0  0
    9.3946   66.5349   84.4919 H   0  0  0  0  0  0  0  0  0  0  0  0
    5.0375   64.7020   86.2843 C   0  0  0  0  0  0  0  0  0  0  0  0
    5.8419   65.5036   88.5764 C   0  0  0  0  0  0  0  0  0  0  0  0
    4.6789   64.9775   87.7485 C   0  0  0  0  0  0  0  0  0  0  0  0
   -2.2823   61.5739   82.6419 S   0  0  0  0  0  0  0  0  0  0  0  0
   -3.6106   62.1134   82.4456 O   0  0  0  0  0  0  0  0  0  0  0  0
   -2.0703   60.1586   82.8565 O   0  0  0  0  0  0  0  0  0  0  0  0
   -1.3030   62.0692   81.3409 N   0  0  0  0  0  0  0  0  0  0  0  0
   -1.9932   62.4654   80.0933 C   0  0  0  0  0  0  0  0  0  0  0  0
   -1.0558   63.3279   79.2521 C   0  0  0  0  0  0  0  0  0  0  0  0
    0.2699   62.6052   78.9529 C   0  0  0  0  0  0  0  0  0  0  0  0
    0.9059   62.1294   80.2686 C   0  0  0  0  0  0  0  0  0  0  0  0
   -0.0690   61.2911   81.0957 C   0  0  0  0  0  0  0  0  0  0  0  0
    1.1995   63.5372   78.1505 C   0  0  0  0  0  0  0  0  0  0  0  0
    0.8294   65.0169   78.1944 C   0  0  0  0  0  0  0  0  0  0  0  0
    1.9932   65.8279   78.2490 O   0  0  0  0  0  0  0  0  0  0  0  0
    2.3013   65.8433   79.1699 H   0  0  0  0  0  0  0  0  0  0  0  0
    0.1969   64.3679   87.2711 O   0  0  0  0  0  0  0  0  0  0  0  0
    1.0877   63.6402   88.1224 C   0  0  0  0  0  0  0  0  0  0  0  0
    0.3642   62.8974   89.2355 C   0  0  0  0  0  0  0  0  0  0  0  0
 24 25  1  0  0  0
 25 23  1  0  0  0
 23  7  1  0  0  0
  7  8  2  0  0  0
  8 19  1  0  0  0
 19 20  2  0  0  0
 20 21  1  0  0  0
  8  9  1  0  0  0
  9 10  1  0  0  0
  9 11  2  0  0  0
 11 12  1  0  0  0
 12 13  2  0  0  0
 12 14  1  0  0  0
 14 15  1  0  0  0
 15  1  1  0  0  0
  1  2  1  0  0  0
  2  3  2  0  0  0
  3 26  1  0  0  0
 26 27  2  0  0  0
 26 28  2  0  0  0
 26 29  1  0  0  0
 29 30  1  0  0  0
 30 31  1  0  0  0
 31 32  1  0  0  0
 32 35  1  0  0  0
 35 36  1  0  0  0
 36 37  1  0  0  0
 32 33  1  0  0  0
 33 34  1  0  0  0
  3  4  1  0  0  0
  4  5  2  0  0  0
  5  6  1  0  0  0
  6 39  1  0  0  0
 39 40  1  0  0  0
 40 41  1  0  0  0
 15 16  2  0  0  0
 16 17  1  0  0  0
 17  7  1  0  0  0
 17 11  1  0  0  0
  6  1  2  0  0  0
 34 29  1  0  0  0
 21 22  1  0  0  0
 14 18  1  0  0  0
 37 38  1  0  0  0
M  END
> <minimizedAffinity>
-9.72434

$$$$



 41 44  0  0  0  0  0  0  0  0999 V2000
    2.1384   67.0483   83.2414 C   0  0  0  0  0  0  0  0  0  0  0  0
    1.6901   67.9977   82.3124 C   0  0  0  0  0  0  0  0  0  0  0  0
    2.4462   69.1524   82.0959 C   0  0  0  0  0  0  0  0  0  0  0  0
    3.6218   69.3787   82.8165 C   0  0  0  0  0  0  0  0  0  0  0  0
    4.0637   68.4276   83.7404 C   0  0  0  0  0  0  0  0  0  0  0  0
    3.3191   67.2652   83.9709 C   0  0  0  0  0  0  0  0  0  0  0  0
   -0.2544   63.7476   85.8583 C   0  0  0  0  0  0  0  0  0  0  0  0
   -1.0231   62.6398   85.4974 C   0  0  0  0  0  0  0  0  0  0  0  0
   -0.9584   62.5409   84.0620 C   0  0  0  0  0  0  0  0  0  0  0  0
   -1.5972   61.5106   83.1934 C   0  0  0  0  0  0  0  0  0  0  0  0
   -0.1929   63.6075   83.6224 C   0  0  0  0  0  0  0  0  0  0  0  0
    0.1956   64.0274   82.3124 C   0  0  0  0  0  0  0  0  0  0  0  0
   -0.0962   63.4668   81.2601 O   0  0  0  0  0  0  0  0  0  0  0  0
    0.9578   65.1651   82.3073 N   0  0  0  0  0  0  0  0  0  0  0  0
    1.3190   65.8319   83.4568 C   0  0  0  0  0  0  0  0  0  0  0  0
    0.9725   65.4602   84.6481 N   0  0  0  0  0  0  0  0  0  0  0  0
    0.2174   64.3326   84.7042 N   0  0  0  0  0  0  0  0  0  0  0  0
    1.2724   65.4626   81.3969 H   0  0  0  0  0  0  0  0  0  0  0  0
   -1.7537   61.7363   86.3758 C   0  0  0  0  0  0  0  0  0  0  0  0
   -3.0470   61.7057   86.3870 N   0  0  0  0  0  0  0  0  0  0  0  0
   -3.4782   60.7515   87.3179 O   0  0  0  0  0  0  0  0  0  0  0  0
   -4.4489   60.8113   87.2401 H   0  0  0  0  0  0  0  0  0  0  0  0
    0.0855   64.3366   87.1979 C   0  0  0  0  0  0  0  0  0  0  0  0
    0.4143   62.7189   89.1520 C   0  0  0  0  0  0  0  0  0  0  0  0
    1.0631   63.4697   87.9985 C   0  0  0  0  0  0  0  0  0  0  0  0
    1.8595   70.3908   80.9553 S   0  0  0  0  0  0  0  0  0  0  0  0
    0.4208   70.4554   81.0961 O   0  0  0  0  0  0  0  0  0  0  0  0
    2.4778   70.1166   79.6760 O   0  0  0  0  0  0  0  0  0  0  0  0
    2.5255   71.8304   81.5725 N   0  0  0  0  0  0  0  0  0  0  0  0
    1.6538   72.6579   82.4359 C   0  0  0  0  0  0  0  0  0  0  0  0
    2.5199   73.5905   83.2785 C   0  0  0  0  0  0  0  0  0  0  0  0
    3.4341   74.4664   82.4032 C   0  0  0  0  0  0  0  0  0  0  0  0
    4.2528   73.5728   81.4578 C   0  0  0  0  0  0  0  0  0  0  0  0
    3.3554   72.6355   80.6496 C   0  0  0  0  0  0  0  0  0  0  0  0
    4.3245   75.3473   83.3019 C   0  0  0  0  0  0  0  0  0  0  0  0
    3.6170   75.9766   84.4985 C   0  0  0  0  0  0  0  0  0  0  0  0
    4.5018   76.0999   85.6018 O   0  0  0  0  0  0  0  0  0  0  0  0
    4.5495   75.2356   86.0421 H   0  0  0  0  0  0  0  0  0  0  0  0
    3.7348   66.2817   84.8258 O   0  0  0  0  0  0  0  0  0  0  0  0
    4.9242   66.5363   85.5798 C   0  0  0  0  0  0  0  0  0  0  0  0
    5.2553   65.4162   86.5546 C   0  0  0  0  0  0  0  0  0  0  0  0
 24 25  1  0  0  0
 25 23  1  0  0  0
 23  7  1  0  0  0
  7  8  2  0  0  0
  8 19  1  0  0  0
 19 20  2  0  0  0
 20 21  1  0  0  0
  8  9  1  0  0  0
  9 10  1  0  0  0
  9 11  2  0  0  0
 11 12  1  0  0  0
 12 13  2  0  0  0
 12 14  1  0  0  0
 14 15  1  0  0  0
 15  1  1  0  0  0
  1  2  1  0  0  0
  2  3  2  0  0  0
  3 26  1  0  0  0
 26 27  2  0  0  0
 26 28  2  0  0  0
 26 29  1  0  0  0
 29 30  1  0  0  0
 30 31  1  0  0  0
 31 32  1  0  0  0
 32 35  1  0  0  0
 35 36  1  0  0  0
 36 37  1  0  0  0
 32 33  1  0  0  0
 33 34  1  0  0  0
  3  4  1  0  0  0
  4  5  2  0  0  0
  5  6  1  0  0  0
  6 39  1  0  0  0
 39 40  1  0  0  0
 40 41  1  0  0  0
 15 16  2  0  0  0
 16 17  1  0  0  0
 17  7  1  0  0  0
 17 11  1  0  0  0
  6  1  2  0  0  0
 34 29  1  0  0  0
 21 22  1  0  0  0
 14 18  1  0  0  0
 37 38  1  0  0  0
M  END
> <minimizedAffinity>
-9.58812

$$$$



 41 44  0  0  0  0  0  0  0  0999 V2000
    2.2858   67.1223   83.4700 C   0  0  0  0  0  0  0  0  0  0  0  0
    1.7494   68.2401   82.8157 C   0  0  0  0  0  0  0  0  0  0  0  0
    2.5228   69.3971   82.6934 C   0  0  0  0  0  0  0  0  0  0  0  0
    3.8066   69.4560   83.2417 C   0  0  0  0  0  0  0  0  0  0  0  0
    4.3359   68.3377   83.8919 C   0  0  0  0  0  0  0  0  0  0  0  0
    3.5756   67.1703   84.0245 C   0  0  0  0  0  0  0  0  0  0  0  0
   -0.2650   63.7370   85.8157 C   0  0  0  0  0  0  0  0  0  0  0  0
   -1.0232   62.6539   85.3683 C   0  0  0  0  0  0  0  0  0  0  0  0
   -0.8860   62.6163   83.9351 C   0  0  0  0  0  0  0  0  0  0  0  0
   -1.4878   61.6311   82.9910 C   0  0  0  0  0  0  0  0  0  0  0  0
   -0.0902   63.6928   83.5818 C   0  0  0  0  0  0  0  0  0  0  0  0
    0.3684   64.1647   82.3128 C   0  0  0  0  0  0  0  0  0  0  0  0
    0.1262   63.6530   81.2236 O   0  0  0  0  0  0  0  0  0  0  0  0
    1.1392   65.2935   82.3959 N   0  0  0  0  0  0  0  0  0  0  0  0
    1.4465   65.9063   83.5903 C   0  0  0  0  0  0  0  0  0  0  0  0
    1.0364   65.4873   84.7452 N   0  0  0  0  0  0  0  0  0  0  0  0
    0.2702   64.3663   84.7136 N   0  0  0  0  0  0  0  0  0  0  0  0
    1.5024   65.6266   81.5166 H   0  0  0  0  0  0  0  0  0  0  0  0
   -1.8053   61.7210   86.1682 C   0  0  0  0  0  0  0  0  0  0  0  0
   -2.8701   62.1003   86.7975 N   0  0  0  0  0  0  0  0  0  0  0  0
   -3.4179   61.0057   87.4793 O   0  0  0  0  0  0  0  0  0  0  0  0
   -4.2017   61.3998   87.9063 H   0  0  0  0  0  0  0  0  0  0  0  0
    0.0107   64.2642   87.1952 C   0  0  0  0  0  0  0  0  0  0  0  0
    0.3600   62.5439   89.0559 C   0  0  0  0  0  0  0  0  0  0  0  0
    1.0058   63.3985   87.9753 C   0  0  0  0  0  0  0  0  0  0  0  0
    1.8323   70.8417   81.9091 S   0  0  0  0  0  0  0  0  0  0  0  0
    1.3291   71.7000   82.9597 O   0  0  0  0  0  0  0  0  0  0  0  0
    0.9721   70.3757   80.8429 O   0  0  0  0  0  0  0  0  0  0  0  0
    3.1925   71.5886   81.2099 N   0  0  0  0  0  0  0  0  0  0  0  0
    3.1691   73.0645   81.1053 C   0  0  0  0  0  0  0  0  0  0  0  0
    4.5968   73.5800   80.9444 C   0  0  0  0  0  0  0  0  0  0  0  0
    5.2998   72.9443   79.7316 C   0  0  0  0  0  0  0  0  0  0  0  0
    5.2193   71.4129   79.8336 C   0  0  0  0  0  0  0  0  0  0  0  0
    3.7791   70.9349   80.0194 C   0  0  0  0  0  0  0  0  0  0  0  0
    6.7519   73.4551   79.6469 C   0  0  0  0  0  0  0  0  0  0  0  0
    7.5087   73.0517   78.3848 C   0  0  0  0  0  0  0  0  0  0  0  0
    8.3106   71.9044   78.6209 O   0  0  0  0  0  0  0  0  0  0  0  0
    9.1273   72.1976   79.0571 H   0  0  0  0  0  0  0  0  0  0  0  0
    4.0665   66.0337   84.6061 O   0  0  0  0  0  0  0  0  0  0  0  0
    5.4082   66.0848   85.1014 C   0  0  0  0  0  0  0  0  0  0  0  0
    5.4731   66.2090   86.6162 C   0  0  0  0  0  0  0  0  0  0  0  0
 24 25  1  0  0  0
 25 23  1  0  0  0
 23  7  1  0  0  0
  7  8  2  0  0  0
  8 19  1  0  0  0
 19 20  2  0  0  0
 20 21  1  0  0  0
  8  9  1  0  0  0
  9 10  1  0  0  0
  9 11  2  0  0  0
 11 12  1  0  0  0
 12 13  2  0  0  0
 12 14  1  0  0  0
 14 15  1  0  0  0
 15  1  1  0  0  0
  1  2  1  0  0  0
  2  3  2  0  0  0
  3 26  1  0  0  0
 26 27  2  0  0  0
 26 28  2  0  0  0
 26 29  1  0  0  0
 29 30  1  0  0  0
 30 31  1  0  0  0
 31 32  1  0  0  0
 32 35  1  0  0  0
 35 36  1  0  0  0
 36 37  1  0  0  0
 32 33  1  0  0  0
 33 34  1  0  0  0
  3  4  1  0  0  0
  4  5  2  0  0  0
  5  6  1  0  0  0
  6 39  1  0  0  0
 39 40  1  0  0  0
 40 41  1  0  0  0
 15 16  2  0  0  0
 16 17  1  0  0  0
 17  7  1  0  0  0
 17 11  1  0  0  0
  6  1  2  0  0  0
 34 29  1  0  0  0
 21 22  1  0  0  0
 14 18  1  0  0  0
 37 38  1  0  0  0
M  END
> <minimizedAffinity>
-9.54806

$$$$



 41 44  0  0  0  0  0  0  0  0999 V2000
    0.4030   65.5916   81.9246 C   0  0  0  0  0  0  0  0  0  0  0  0
    0.3990   66.6300   80.9827 C   0  0  0  0  0  0  0  0  0  0  0  0
    1.0537   67.8273   81.2824 C   0  0  0  0  0  0  0  0  0  0  0  0
    1.6816   68.0050   82.5179 C   0  0  0  0  0  0  0  0  0  0  0  0
    1.6828   66.9654   83.4520 C   0  0  0  0  0  0  0  0  0  0  0  0
    1.0316   65.7592   83.1696 C   0  0  0  0  0  0  0  0  0  0  0  0
   -0.8857   61.8840   79.0853 C   0  0  0  0  0  0  0  0  0  0  0  0
   -1.6691   60.7521   79.3160 C   0  0  0  0  0  0  0  0  0  0  0  0
   -2.1724   60.8640   80.6608 C   0  0  0  0  0  0  0  0  0  0  0  0
   -3.0753   59.9153   81.3741 C   0  0  0  0  0  0  0  0  0  0  0  0
   -1.6424   62.0284   81.1899 C   0  0  0  0  0  0  0  0  0  0  0  0
   -1.7768   62.6405   82.4746 C   0  0  0  0  0  0  0  0  0  0  0  0
   -2.4474   62.2129   83.4097 O   0  0  0  0  0  0  0  0  0  0  0  0
   -1.0643   63.8029   82.6031 N   0  0  0  0  0  0  0  0  0  0  0  0
   -0.2999   64.3310   81.5865 C   0  0  0  0  0  0  0  0  0  0  0  0
   -0.1713   63.7848   80.4192 N   0  0  0  0  0  0  0  0  0  0  0  0
   -0.8637   62.6298   80.2430 N   0  0  0  0  0  0  0  0  0  0  0  0
   -1.1697   64.2711   83.4896 H   0  0  0  0  0  0  0  0  0  0  0  0
   -1.9489   59.6579   78.3961 C   0  0  0  0  0  0  0  0  0  0  0  0
   -1.0067   59.0951   77.7112 N   0  0  0  0  0  0  0  0  0  0  0  0
   -1.5565   58.0805   76.9165 O   0  0  0  0  0  0  0  0  0  0  0  0
   -0.7708   57.7304   76.4561 H   0  0  0  0  0  0  0  0  0  0  0  0
   -0.1301   62.3483   77.8727 C   0  0  0  0  0  0  0  0  0  0  0  0
   -0.7026   64.6420   76.8956 C   0  0  0  0  0  0  0  0  0  0  0  0
   -1.0010   63.1501   76.8996 C   0  0  0  0  0  0  0  0  0  0  0  0
    1.0112   69.1730   80.1137 S   0  0  0  0  0  0  0  0  0  0  0  0
   -0.3755   69.3919   79.7629 O   0  0  0  0  0  0  0  0  0  0  0  0
    2.0062   68.8887   79.1023 O   0  0  0  0  0  0  0  0  0  0  0  0
    1.5491   70.5002   81.0336 N   0  0  0  0  0  0  0  0  0  0  0  0
    0.5965   71.6166   81.2232 C   0  0  0  0  0  0  0  0  0  0  0  0
    1.0239   72.4424   82.4337 C   0  0  0  0  0  0  0  0  0  0  0  0
    2.4677   72.9569   82.2924 C   0  0  0  0  0  0  0  0  0  0  0  0
    3.4094   71.7769   82.0042 C   0  0  0  0  0  0  0  0  0  0  0  0
    2.9367   70.9584   80.8026 C   0  0  0  0  0  0  0  0  0  0  0  0
    2.8678   73.7355   83.5614 C   0  0  0  0  0  0  0  0  0  0  0  0
    3.4546   75.1221   83.3136 C   0  0  0  0  0  0  0  0  0  0  0  0
    4.8675   75.1052   83.4504 O   0  0  0  0  0  0  0  0  0  0  0  0
    5.0745   75.1504   84.3982 H   0  0  0  0  0  0  0  0  0  0  0  0
    1.0479   64.6948   84.0286 O   0  0  0  0  0  0  0  0  0  0  0  0
    0.8656   64.9793   85.4192 C   0  0  0  0  0  0  0  0  0  0  0  0
    0.0916   63.8906   86.1471 C   0  0  0  0  0  0  0  0  0  0  0  0
 24 25  1  0  0  0
 25 23  1  0  0  0
 23  7  1  0  0  0
  7  8  2  0  0  0
  8 19  1  0  0  0
 19 20  2  0  0  0
 20 21  1  0  0  0
  8  9  1  0  0  0
  9 10  1  0  0  0
  9 11  2  0  0  0
 11 12  1  0  0  0
 12 13  2  0  0  0
 12 14  1  0  0  0
 14 15  1  0  0  0
 15  1  1  0  0  0
  1  2  1  0  0  0
  2  3  2  0  0  0
  3 26  1  0  0  0
 26 27  2  0  0  0
 26 28  2  0  0  0
 26 29  1  0  0  0
 29 30  1  0  0  0
 30 31  1  0  0  0
 31 32  1  0  0  0
 32 35  1  0  0  0
 35 36  1  0  0  0
 36 37  1  0  0  0
 32 33  1  0  0  0
 33 34  1  0  0  0
  3  4  1  0  0  0
  4  5  2  0  0  0
  5  6  1  0  0  0
  6 39  1  0  0  0
 39 40  1  0  0  0
 40 41  1  0  0  0
 15 16  2  0  0  0
 16 17  1  0  0  0
 17  7  1  0  0  0
 17 11  1  0  0  0
  6  1  2  0  0  0
 34 29  1  0  0  0
 21 22  1  0  0  0
 14 18  1  0  0  0
 37 38  1  0  0  0
M  END
> <minimizedAffinity>
-9.45141

$$$$
