
     RDKit          3D

 48 50  0  0  0  0  0  0  0  0999 V2000
   -2.9857    5.2210    0.1549 C   0  0  0  0  0  0  0  0  0  0  0  0
   -1.9318    4.1329    0.2522 C   0  0  0  0  0  0  0  0  0  0  0  0
   -2.5015    2.7578   -0.0834 C   0  0  0  0  0  0  0  0  0  0  0  0
   -1.4379    1.8092    0.0371 O   0  0  0  0  0  0  0  0  0  0  0  0
   -1.7007    0.4956   -0.2552 C   0  0  0  0  0  0  0  0  0  0  0  0
   -2.9663    0.0255   -0.6072 C   0  0  0  0  0  0  0  0  0  0  0  0
   -3.1770   -1.3305   -0.8988 C   0  0  0  0  0  0  0  0  0  0  0  0
   -2.1451   -2.2776   -0.8627 C   0  0  0  0  0  0  0  0  0  0  0  0
   -2.3712   -3.6303   -1.1380 N   0  0  0  0  0  0  0  0  0  0  0  0
   -3.5661   -4.0092   -1.8919 C   0  0  0  0  0  0  0  0  0  0  0  0
   -1.2305   -4.5367   -1.2690 C   0  0  0  0  0  0  0  0  0  0  0  0
   -0.8835   -1.7848   -0.4877 C   0  0  0  0  0  0  0  0  0  0  0  0
   -0.6386   -0.4238   -0.1889 C   0  0  0  0  0  0  0  0  0  0  0  0
    0.7747   -0.0569    0.1847 C   0  0  0  0  0  0  0  0  0  0  0  0
    1.7262   -0.9549    0.1481 N   0  0  0  0  0  0  0  0  0  0  0  0
    2.9456   -0.4846    0.5107 C   0  0  0  0  0  0  0  0  0  0  0  0
    3.2726    0.7913    0.8959 C   0  0  0  0  0  0  0  0  0  0  0  0
    4.6523    0.7751    1.1669 C   0  0  0  0  0  0  0  0  0  0  0  0
    5.5055    1.8994    1.6184 C   0  0  0  0  0  0  0  0  0  0  0  0
    5.1724   -0.4475    0.9646 N   0  0  0  0  0  0  0  0  0  0  0  0
    4.1117   -1.1934    0.5671 N   0  0  0  0  0  0  0  0  0  0  0  0
    4.3049   -2.5873    0.2584 C   0  0  0  0  0  0  0  0  0  0  0  0
    2.2375    1.7794    0.9363 C   0  0  0  0  0  0  0  0  0  0  0  0
    2.4033    2.9506    1.2568 O   0  0  0  0  0  0  0  0  0  0  0  0
    1.0103    1.2639    0.5668 N   0  0  0  0  0  0  0  0  0  0  0  0
   -2.5498    6.1945    0.4004 H   0  0  0  0  0  0  0  0  0  0  0  0
   -3.8095    5.0325    0.8506 H   0  0  0  0  0  0  0  0  0  0  0  0
   -3.3973    5.2788   -0.8578 H   0  0  0  0  0  0  0  0  0  0  0  0
   -1.5047    4.1170    1.2622 H   0  0  0  0  0  0  0  0  0  0  0  0
   -1.0981    4.3599   -0.4233 H   0  0  0  0  0  0  0  0  0  0  0  0
   -3.3036    2.5129    0.6227 H   0  0  0  0  0  0  0  0  0  0  0  0
   -2.8875    2.7630   -1.1098 H   0  0  0  0  0  0  0  0  0  0  0  0
   -3.8299    0.6805   -0.6627 H   0  0  0  0  0  0  0  0  0  0  0  0
   -4.1927   -1.6238   -1.1486 H   0  0  0  0  0  0  0  0  0  0  0  0
   -3.5940   -5.0884   -2.0807 H   0  0  0  0  0  0  0  0  0  0  0  0
   -3.5947   -3.5045   -2.8640 H   0  0  0  0  0  0  0  0  0  0  0  0
   -4.4778   -3.7792   -1.3305 H   0  0  0  0  0  0  0  0  0  0  0  0
   -1.5607   -5.5659   -1.4499 H   0  0  0  0  0  0  0  0  0  0  0  0
   -0.6421   -4.5701   -0.3456 H   0  0  0  0  0  0  0  0  0  0  0  0
   -0.5884   -4.2425   -2.1065 H   0  0  0  0  0  0  0  0  0  0  0  0
   -0.0433   -2.4699   -0.4195 H   0  0  0  0  0  0  0  0  0  0  0  0
    5.1465    2.2902    2.5759 H   0  0  0  0  0  0  0  0  0  0  0  0
    5.4866    2.7113    0.8845 H   0  0  0  0  0  0  0  0  0  0  0  0
    6.5466    1.5872    1.7501 H   0  0  0  0  0  0  0  0  0  0  0  0
    4.6925   -3.0866    1.1501 H   0  0  0  0  0  0  0  0  0  0  0  0
    5.0223   -2.6612   -0.5629 H   0  0  0  0  0  0  0  0  0  0  0  0
    3.3566   -3.0418   -0.0369 H   0  0  0  0  0  0  0  0  0  0  0  0
    0.2420    1.9216    0.5707 H   0  0  0  0  0  0  0  0  0  0  0  0
  1  2  1  0
  2  3  1  0
  3  4  1  0
  4  5  1  0
  5  6  1  0
  6  7  2  0
  7  8  1  0
  8  9  1  0
  9 10  1  0
  9 11  1  0
  8 12  2  0
 12 13  1  0
 13 14  1  0
 14 15  2  0
 15 16  1  0
 16 17  2  0
 17 18  1  0
 18 19  1  0
 18 20  2  0
 20 21  1  0
 21 22  1  0
 17 23  1  0
 23 24  2  0
 23 25  1  0
 13  5  2  0
 25 14  1  0
 21 16  1  0
  1 26  1  0
  1 27  1  0
  1 28  1  0
  2 29  1  0
  2 30  1  0
  3 31  1  0
  3 32  1  0
  6 33  1  0
  7 34  1  0
 10 35  1  0
 10 36  1  0
 10 37  1  0
 11 38  1  0
 11 39  1  0
 11 40  1  0
 12 41  1  0
 19 42  1  0
 19 43  1  0
 19 44  1  0
 22 45  1  0
 22 46  1  0
 22 47  1  0
 25 48  1  0
M  END
$$$$
