
     RDKit          3D

 59 61  0  0  0  0  0  0  0  0999 V2000
    6.5389   -1.6551   -0.4934 C   0  0  0  0  0  0  0  0  0  0  0  0
    5.2672   -2.2512   -0.2856 O   0  0  0  0  0  0  0  0  0  0  0  0
    4.1638   -1.4357   -0.3219 C   0  0  0  0  0  0  0  0  0  0  0  0
    4.2002   -0.0620   -0.5741 C   0  0  0  0  0  0  0  0  0  0  0  0
    3.0246    0.7109   -0.5973 C   0  0  0  0  0  0  0  0  0  0  0  0
    3.0989    2.0829   -0.8646 C   0  0  0  0  0  0  0  0  0  0  0  0
    1.9546    2.8932   -0.9103 C   0  0  0  0  0  0  0  0  0  0  0  0
    2.1308    4.3634   -1.2070 C   0  0  0  0  0  0  0  0  0  0  0  0
    2.1101    5.1174   -0.0015 O   0  0  0  0  0  0  0  0  0  0  0  0
    0.6890    2.3241   -0.6463 C   0  0  0  0  0  0  0  0  0  0  0  0
   -0.5487    3.1963   -0.6794 C   0  0  0  0  0  0  0  0  0  0  0  0
   -0.9792    3.3242   -2.0282 O   0  0  0  0  0  0  0  0  0  0  0  0
    0.5899    0.9257   -0.3922 C   0  0  0  0  0  0  0  0  0  0  0  0
   -0.7372    0.3078   -0.1787 C   0  0  0  0  0  0  0  0  0  0  0  0
   -1.2223    0.0831    1.1191 C   0  0  0  0  0  0  0  0  0  0  0  0
   -2.4711   -0.5045    1.3171 C   0  0  0  0  0  0  0  0  0  0  0  0
   -3.0159   -0.7756    2.5931 N   0  0  0  0  0  0  0  0  0  0  0  0
   -2.4841   -0.4807    3.8298 C   0  0  0  0  0  0  0  0  0  0  0  0
   -3.3597   -0.9552    4.9625 C   0  0  0  0  0  0  0  0  0  0  0  0
   -1.4418    0.1244    4.0548 O   0  0  0  0  0  0  0  0  0  0  0  0
   -3.2566   -0.8599    0.1995 C   0  0  0  0  0  0  0  0  0  0  0  0
   -4.4726   -1.4448    0.4973 O   0  0  0  0  0  0  0  0  0  0  0  0
   -5.5728   -0.8883   -0.2211 C   0  0  0  0  0  0  0  0  0  0  0  0
   -2.7737   -0.6723   -1.1084 C   0  0  0  0  0  0  0  0  0  0  0  0
   -3.5626   -1.1096   -2.1395 O   0  0  0  0  0  0  0  0  0  0  0  0
   -3.0442   -1.0029   -3.4599 C   0  0  0  0  0  0  0  0  0  0  0  0
   -1.5212   -0.0752   -1.2812 C   0  0  0  0  0  0  0  0  0  0  0  0
    1.7697    0.1108   -0.3628 C   0  0  0  0  0  0  0  0  0  0  0  0
    1.7578   -1.2859   -0.1138 C   0  0  0  0  0  0  0  0  0  0  0  0
    2.9285   -2.0548   -0.0859 C   0  0  0  0  0  0  0  0  0  0  0  0
    2.9638   -3.4071    0.1508 O   0  0  0  0  0  0  0  0  0  0  0  0
    1.7528   -4.0403    0.5391 C   0  0  0  0  0  0  0  0  0  0  0  0
    7.2942   -2.4433   -0.4173 H   0  0  0  0  0  0  0  0  0  0  0  0
    6.6123   -1.2211   -1.4960 H   0  0  0  0  0  0  0  0  0  0  0  0
    6.7578   -0.9102    0.2786 H   0  0  0  0  0  0  0  0  0  0  0  0
    5.1465    0.4356   -0.7617 H   0  0  0  0  0  0  0  0  0  0  0  0
    4.0719    2.5376   -1.0507 H   0  0  0  0  0  0  0  0  0  0  0  0
    3.0894    4.5487   -1.7040 H   0  0  0  0  0  0  0  0  0  0  0  0
    1.3550    4.7382   -1.8814 H   0  0  0  0  0  0  0  0  0  0  0  0
    2.3250    4.5115    0.7288 H   0  0  0  0  0  0  0  0  0  0  0  0
   -0.3467    4.1912   -0.2709 H   0  0  0  0  0  0  0  0  0  0  0  0
   -1.3685    2.7900   -0.0806 H   0  0  0  0  0  0  0  0  0  0  0  0
   -1.7620    3.8997   -2.0093 H   0  0  0  0  0  0  0  0  0  0  0  0
   -0.5958    0.3697    1.9591 H   0  0  0  0  0  0  0  0  0  0  0  0
   -3.9186   -1.2404    2.5557 H   0  0  0  0  0  0  0  0  0  0  0  0
   -4.0564   -0.1589    5.2370 H   0  0  0  0  0  0  0  0  0  0  0  0
   -2.7324   -1.2058    5.8228 H   0  0  0  0  0  0  0  0  0  0  0  0
   -3.9214   -1.8510    4.6823 H   0  0  0  0  0  0  0  0  0  0  0  0
   -6.4530   -0.9485    0.4267 H   0  0  0  0  0  0  0  0  0  0  0  0
   -5.7818   -1.4845   -1.1139 H   0  0  0  0  0  0  0  0  0  0  0  0
   -5.4237    0.1666   -0.4787 H   0  0  0  0  0  0  0  0  0  0  0  0
   -2.1193   -1.5786   -3.5705 H   0  0  0  0  0  0  0  0  0  0  0  0
   -3.7844   -1.4297   -4.1436 H   0  0  0  0  0  0  0  0  0  0  0  0
   -2.8980    0.0449   -3.7416 H   0  0  0  0  0  0  0  0  0  0  0  0
   -1.1136    0.1087   -2.2721 H   0  0  0  0  0  0  0  0  0  0  0  0
    0.8025   -1.7706    0.0582 H   0  0  0  0  0  0  0  0  0  0  0  0
    1.3424   -3.5910    1.4497 H   0  0  0  0  0  0  0  0  0  0  0  0
    1.0222   -4.0242   -0.2762 H   0  0  0  0  0  0  0  0  0  0  0  0
    1.9796   -5.0879    0.7597 H   0  0  0  0  0  0  0  0  0  0  0  0
  1  2  1  0
  2  3  1  0
  3  4  1  0
  4  5  2  0
  5  6  1  0
  6  7  2  0
  7  8  1  0
  8  9  1  0
  7 10  1  0
 10 11  1  0
 11 12  1  0
 10 13  2  0
 13 14  1  0
 14 15  2  0
 15 16  1  0
 16 17  1  0
 17 18  1  0
 18 19  1  0
 18 20  2  0
 16 21  2  0
 21 22  1  0
 22 23  1  0
 21 24  1  0
 24 25  1  0
 25 26  1  0
 24 27  2  0
 13 28  1  0
 28 29  2  0
 29 30  1  0
 30 31  1  0
 31 32  1  0
 30  3  2  0
 28  5  1  0
 27 14  1  0
  1 33  1  0
  1 34  1  0
  1 35  1  0
  4 36  1  0
  6 37  1  0
  8 38  1  0
  8 39  1  0
  9 40  1  0
 11 41  1  0
 11 42  1  0
 12 43  1  0
 15 44  1  0
 17 45  1  0
 19 46  1  0
 19 47  1  0
 19 48  1  0
 23 49  1  0
 23 50  1  0
 23 51  1  0
 26 52  1  0
 26 53  1  0
 26 54  1  0
 27 55  1  0
 29 56  1  0
 32 57  1  0
 32 58  1  0
 32 59  1  0
M  END
$$$$
