


 32 36  0  0  0  0  0  0  0  0999 V2000
   -1.1784   62.9887   83.2778 C   0  0  0  0  0  0  0  0  0  0  0  0
   -0.4571   63.7923   84.0052 N   0  0  0  0  0  0  0  0  0  0  0  0
    0.3519   64.7135   83.3378 C   0  0  0  0  0  0  0  0  0  0  0  0
    1.1697   65.6351   84.2114 C   0  0  0  0  0  0  0  0  0  0  0  0
    1.0933   65.5634   85.4391 O   0  0  0  0  0  0  0  0  0  0  0  0
    1.9878   66.5419   83.5561 N   0  0  0  0  0  0  0  0  0  0  0  0
    2.0888   66.6447   82.1950 N   0  0  0  0  0  0  0  0  0  0  0  0
    1.3732   65.8523   81.4636 C   0  0  0  0  0  0  0  0  0  0  0  0
    1.5396   66.0256   79.9714 C   0  0  0  0  0  0  0  0  0  0  0  0
    0.4360   64.8219   81.9925 C   0  0  0  0  0  0  0  0  0  0  0  0
   -0.3695   63.9560   81.1924 C   0  0  0  0  0  0  0  0  0  0  0  0
   -0.6372   63.7100   79.8633 C   0  0  0  0  0  0  0  0  0  0  0  0
   -1.6083   62.6681   79.8350 C   0  0  0  0  0  0  0  0  0  0  0  0
   -1.9238   62.2942   81.0838 N   0  0  0  0  0  0  0  0  0  0  0  0
   -1.1541   63.0575   81.8844 N   0  0  0  0  0  0  0  0  0  0  0  0
   -2.2323   62.0376   78.6654 C   0  0  0  0  0  0  0  0  0  0  0  0
   -2.5421   62.7797   77.5158 C   0  0  0  0  0  0  0  0  0  0  0  0
   -3.1334   62.1650   76.4072 C   0  0  0  0  0  0  0  0  0  0  0  0
   -3.4225   60.8027   76.4336 C   0  0  0  0  0  0  0  0  0  0  0  0
   -3.1236   60.0527   77.5679 C   0  0  0  0  0  0  0  0  0  0  0  0
   -2.5335   60.6663   78.6760 C   0  0  0  0  0  0  0  0  0  0  0  0
   -2.0677   61.9235   83.8635 C   0  0  0  0  0  0  0  0  0  0  0  0
   -1.7731   61.8019   85.2529 O   0  0  0  0  0  0  0  0  0  0  0  0
   -2.3842   62.9886   87.2952 C   0  0  0  0  0  0  0  0  0  0  0  0
   -2.8560   62.1850   86.0966 C   0  0  0  0  0  0  0  0  0  0  0  0
    2.7555   67.5080   84.3367 C   0  0  0  0  0  0  0  0  0  0  0  0
    4.1562   67.0193   84.6276 C   0  0  0  0  0  0  0  0  0  0  0  0
    5.2690   67.8001   84.2835 C   0  0  0  0  0  0  0  0  0  0  0  0
    6.5621   67.3410   84.5386 C   0  0  0  0  0  0  0  0  0  0  0  0
    6.7563   66.0954   85.1330 C   0  0  0  0  0  0  0  0  0  0  0  0
    5.6583   65.3047   85.4675 C   0  0  0  0  0  0  0  0  0  0  0  0
    4.3644   65.7619   85.2127 C   0  0  0  0  0  0  0  0  0  0  0  0
 24 25  1  0  0  0
 25 23  1  0  0  0
 23 22  1  0  0  0
 22  1  1  0  0  0
  1  2  2  0  0  0
  2  3  1  0  0  0
  3  4  1  0  0  0
  4  5  2  0  0  0
  4  6  1  0  0  0
  6 26  1  0  0  0
 26 27  1  0  0  0
 27 28  2  0  0  0
 28 29  1  0  0  0
 29 30  2  0  0  0
 30 31  1  0  0  0
 31 32  2  0  0  0
  6  7  1  0  0  0
  7  8  2  0  0  0
  8  9  1  0  0  0
  8 10  1  0  0  0
 10 11  1  0  0  0
 11 12  2  0  0  0
 12 13  1  0  0  0
 13 16  1  0  0  0
 16 17  2  0  0  0
 17 18  1  0  0  0
 18 19  2  0  0  0
 19 20  1  0  0  0
 20 21  2  0  0  0
 13 14  2  0  0  0
 14 15  1  0  0  0
 15  1  1  0  0  0
 10  3  2  0  0  0
 15 11  1  0  0  0
 32 27  1  0  0  0
 21 16  1  0  0  0
M  END
> <minimizedAffinity>
-10.46314

$$$$



 32 36  0  0  0  0  0  0  0  0999 V2000
   -0.6159   62.5548   85.2066 C   0  0  0  0  0  0  0  0  0  0  0  0
   -1.4667   61.8167   84.5535 N   0  0  0  0  0  0  0  0  0  0  0  0
   -1.6332   62.0774   83.1922 C   0  0  0  0  0  0  0  0  0  0  0  0
   -2.6218   61.1984   82.4634 C   0  0  0  0  0  0  0  0  0  0  0  0
   -3.2194   60.3015   83.0606 O   0  0  0  0  0  0  0  0  0  0  0  0
   -2.8048   61.4616   81.1150 N   0  0  0  0  0  0  0  0  0  0  0  0
   -2.1520   62.4485   80.4272 N   0  0  0  0  0  0  0  0  0  0  0  0
   -1.3020   63.1853   81.0673 C   0  0  0  0  0  0  0  0  0  0  0  0
   -0.6226   64.2529   80.2409 C   0  0  0  0  0  0  0  0  0  0  0  0
   -0.9738   63.0435   82.5136 C   0  0  0  0  0  0  0  0  0  0  0  0
   -0.0249   63.8408   83.2228 C   0  0  0  0  0  0  0  0  0  0  0  0
    0.8596   64.8705   82.9856 C   0  0  0  0  0  0  0  0  0  0  0  0
    1.5087   65.1362   84.2256 C   0  0  0  0  0  0  0  0  0  0  0  0
    1.0485   64.3098   85.1764 N   0  0  0  0  0  0  0  0  0  0  0  0
    0.1121   63.5577   84.5655 N   0  0  0  0  0  0  0  0  0  0  0  0
    2.5411   66.1386   84.5153 C   0  0  0  0  0  0  0  0  0  0  0  0
    3.7886   65.7695   85.0405 C   0  0  0  0  0  0  0  0  0  0  0  0
    4.7644   66.7352   85.3085 C   0  0  0  0  0  0  0  0  0  0  0  0
    4.5059   68.0804   85.0557 C   0  0  0  0  0  0  0  0  0  0  0  0
    3.2719   68.4634   84.5370 C   0  0  0  0  0  0  0  0  0  0  0  0
    2.2964   67.4992   84.2697 C   0  0  0  0  0  0  0  0  0  0  0  0
   -0.3634   62.4077   86.6842 C   0  0  0  0  0  0  0  0  0  0  0  0
   -1.3286   63.1857   87.3878 O   0  0  0  0  0  0  0  0  0  0  0  0
    0.2909   62.6988   89.1464 C   0  0  0  0  0  0  0  0  0  0  0  0
   -1.0511   63.3071   88.7805 C   0  0  0  0  0  0  0  0  0  0  0  0
   -3.6951   60.6084   80.3331 C   0  0  0  0  0  0  0  0  0  0  0  0
   -3.1403   60.3175   78.9572 C   0  0  0  0  0  0  0  0  0  0  0  0
   -2.0368   59.4668   78.7993 C   0  0  0  0  0  0  0  0  0  0  0  0
   -1.5159   59.2111   77.5299 C   0  0  0  0  0  0  0  0  0  0  0  0
   -2.0875   59.8078   76.4075 C   0  0  0  0  0  0  0  0  0  0  0  0
   -3.1765   60.6654   76.5532 C   0  0  0  0  0  0  0  0  0  0  0  0
   -3.6984   60.9227   77.8219 C   0  0  0  0  0  0  0  0  0  0  0  0
 24 25  1  0  0  0
 25 23  1  0  0  0
 23 22  1  0  0  0
 22  1  1  0  0  0
  1  2  2  0  0  0
  2  3  1  0  0  0
  3  4  1  0  0  0
  4  5  2  0  0  0
  4  6  1  0  0  0
  6 26  1  0  0  0
 26 27  1  0  0  0
 27 28  2  0  0  0
 28 29  1  0  0  0
 29 30  2  0  0  0
 30 31  1  0  0  0
 31 32  2  0  0  0
  6  7  1  0  0  0
  7  8  2  0  0  0
  8  9  1  0  0  0
  8 10  1  0  0  0
 10 11  1  0  0  0
 11 12  2  0  0  0
 12 13  1  0  0  0
 13 16  1  0  0  0
 16 17  2  0  0  0
 17 18  1  0  0  0
 18 19  2  0  0  0
 19 20  1  0  0  0
 20 21  2  0  0  0
 13 14  2  0  0  0
 14 15  1  0  0  0
 15  1  1  0  0  0
 10  3  2  0  0  0
 15 11  1  0  0  0
 32 27  1  0  0  0
 21 16  1  0  0  0
M  END
> <minimizedAffinity>
-10.21963

$$$$



 32 36  0  0  0  0  0  0  0  0999 V2000
    0.1442   65.1514   81.6246 C   0  0  0  0  0  0  0  0  0  0  0  0
    0.6515   66.0811   80.8674 N   0  0  0  0  0  0  0  0  0  0  0  0
    1.4576   67.0420   81.4802 C   0  0  0  0  0  0  0  0  0  0  0  0
    2.0357   68.1014   80.5720 C   0  0  0  0  0  0  0  0  0  0  0  0
    1.8033   68.0822   79.3621 O   0  0  0  0  0  0  0  0  0  0  0  0
    2.8241   69.0686   81.1755 N   0  0  0  0  0  0  0  0  0  0  0  0
    3.1007   69.1111   82.5153 N   0  0  0  0  0  0  0  0  0  0  0  0
    2.6034   68.1892   83.2755 C   0  0  0  0  0  0  0  0  0  0  0  0
    2.9526   68.3041   84.7415 C   0  0  0  0  0  0  0  0  0  0  0  0
    1.7410   67.0704   82.8021 C   0  0  0  0  0  0  0  0  0  0  0  0
    1.2030   66.0402   83.6316 C   0  0  0  0  0  0  0  0  0  0  0  0
    1.2207   65.6455   84.9517 C   0  0  0  0  0  0  0  0  0  0  0  0
    0.4365   64.4585   85.0268 C   0  0  0  0  0  0  0  0  0  0  0  0
   -0.0371   64.1381   83.8136 N   0  0  0  0  0  0  0  0  0  0  0  0
    0.4098   65.1097   82.9938 N   0  0  0  0  0  0  0  0  0  0  0  0
    0.1394   63.6378   86.2070 C   0  0  0  0  0  0  0  0  0  0  0  0
   -0.7473   62.5529   86.1360 C   0  0  0  0  0  0  0  0  0  0  0  0
   -1.0184   61.7773   87.2680 C   0  0  0  0  0  0  0  0  0  0  0  0
   -0.4080   62.0760   88.4838 C   0  0  0  0  0  0  0  0  0  0  0  0
    0.4724   63.1511   88.5716 C   0  0  0  0  0  0  0  0  0  0  0  0
    0.7432   63.9268   87.4413 C   0  0  0  0  0  0  0  0  0  0  0  0
   -0.7708   64.0742   81.1039 C   0  0  0  0  0  0  0  0  0  0  0  0
    0.0234   63.0699   80.4774 O   0  0  0  0  0  0  0  0  0  0  0  0
    0.9837   61.3259   81.8878 C   0  0  0  0  0  0  0  0  0  0  0  0
   -0.1806   61.7675   81.0191 C   0  0  0  0  0  0  0  0  0  0  0  0
    3.4699   70.0842   80.3489 C   0  0  0  0  0  0  0  0  0  0  0  0
    2.9639   71.4749   80.6580 C   0  0  0  0  0  0  0  0  0  0  0  0
    1.5876   71.7285   80.7477 C   0  0  0  0  0  0  0  0  0  0  0  0
    1.1212   73.0159   81.0179 C   0  0  0  0  0  0  0  0  0  0  0  0
    2.0240   74.0630   81.1940 C   0  0  0  0  0  0  0  0  0  0  0  0
    3.3938   73.8257   81.0942 C   0  0  0  0  0  0  0  0  0  0  0  0
    3.8621   72.5390   80.8235 C   0  0  0  0  0  0  0  0  0  0  0  0
 24 25  1  0  0  0
 25 23  1  0  0  0
 23 22  1  0  0  0
 22  1  1  0  0  0
  1  2  2  0  0  0
  2  3  1  0  0  0
  3  4  1  0  0  0
  4  5  2  0  0  0
  4  6  1  0  0  0
  6 26  1  0  0  0
 26 27  1  0  0  0
 27 28  2  0  0  0
 28 29  1  0  0  0
 29 30  2  0  0  0
 30 31  1  0  0  0
 31 32  2  0  0  0
  6  7  1  0  0  0
  7  8  2  0  0  0
  8  9  1  0  0  0
  8 10  1  0  0  0
 10 11  1  0  0  0
 11 12  2  0  0  0
 12 13  1  0  0  0
 13 16  1  0  0  0
 16 17  2  0  0  0
 17 18  1  0  0  0
 18 19  2  0  0  0
 19 20  1  0  0  0
 20 21  2  0  0  0
 13 14  2  0  0  0
 14 15  1  0  0  0
 15  1  1  0  0  0
 10  3  2  0  0  0
 15 11  1  0  0  0
 32 27  1  0  0  0
 21 16  1  0  0  0
M  END
> <minimizedAffinity>
-10.10556

$$$$



 32 36  0  0  0  0  0  0  0  0999 V2000
    0.4639   64.6852   84.7854 C   0  0  0  0  0  0  0  0  0  0  0  0
    1.1564   65.7871   84.8235 N   0  0  0  0  0  0  0  0  0  0  0  0
    1.4665   66.3950   83.6058 C   0  0  0  0  0  0  0  0  0  0  0  0
    2.2643   67.6749   83.6863 C   0  0  0  0  0  0  0  0  0  0  0  0
    2.5938   68.1383   84.7795 O   0  0  0  0  0  0  0  0  0  0  0  0
    2.5901   68.2762   82.4807 N   0  0  0  0  0  0  0  0  0  0  0  0
    2.2341   67.7849   81.2539 N   0  0  0  0  0  0  0  0  0  0  0  0
    1.5428   66.6917   81.2061 C   0  0  0  0  0  0  0  0  0  0  0  0
    1.1888   66.2124   79.8171 C   0  0  0  0  0  0  0  0  0  0  0  0
    1.0985   65.9141   82.3967 C   0  0  0  0  0  0  0  0  0  0  0  0
    0.3213   64.7170   82.3528 C   0  0  0  0  0  0  0  0  0  0  0  0
   -0.2782   63.8938   81.4246 C   0  0  0  0  0  0  0  0  0  0  0  0
   -0.9243   62.8602   82.1619 C   0  0  0  0  0  0  0  0  0  0  0  0
   -0.7339   63.0404   83.4773 N   0  0  0  0  0  0  0  0  0  0  0  0
    0.0356   64.1423   83.5734 N   0  0  0  0  0  0  0  0  0  0  0  0
   -1.7073   61.7297   81.6485 C   0  0  0  0  0  0  0  0  0  0  0  0
   -1.9219   61.5566   80.2729 C   0  0  0  0  0  0  0  0  0  0  0  0
   -2.6673   60.4726   79.7976 C   0  0  0  0  0  0  0  0  0  0  0  0
   -3.2072   59.5493   80.6898 C   0  0  0  0  0  0  0  0  0  0  0  0
   -3.0055   59.7083   82.0583 C   0  0  0  0  0  0  0  0  0  0  0  0
   -2.2616   60.7914   82.5338 C   0  0  0  0  0  0  0  0  0  0  0  0
    0.0897   63.9054   86.0185 C   0  0  0  0  0  0  0  0  0  0  0  0
    0.9413   64.3123   87.0868 O   0  0  0  0  0  0  0  0  0  0  0  0
   -0.5839   63.2214   88.6477 C   0  0  0  0  0  0  0  0  0  0  0  0
    0.8553   63.4682   88.2319 C   0  0  0  0  0  0  0  0  0  0  0  0
    3.3021   69.5510   82.4854 C   0  0  0  0  0  0  0  0  0  0  0  0
    2.3595   70.7288   82.3870 C   0  0  0  0  0  0  0  0  0  0  0  0
    1.0439   70.5526   81.9350 C   0  0  0  0  0  0  0  0  0  0  0  0
    0.1793   71.6432   81.8299 C   0  0  0  0  0  0  0  0  0  0  0  0
    0.6223   72.9206   82.1684 C   0  0  0  0  0  0  0  0  0  0  0  0
    1.9318   73.1101   82.6066 C   0  0  0  0  0  0  0  0  0  0  0  0
    2.7980   72.0207   82.7117 C   0  0  0  0  0  0  0  0  0  0  0  0
 24 25  1  0  0  0
 25 23  1  0  0  0
 23 22  1  0  0  0
 22  1  1  0  0  0
  1  2  2  0  0  0
  2  3  1  0  0  0
  3  4  1  0  0  0
  4  5  2  0  0  0
  4  6  1  0  0  0
  6 26  1  0  0  0
 26 27  1  0  0  0
 27 28  2  0  0  0
 28 29  1  0  0  0
 29 30  2  0  0  0
 30 31  1  0  0  0
 31 32  2  0  0  0
  6  7  1  0  0  0
  7  8  2  0  0  0
  8  9  1  0  0  0
  8 10  1  0  0  0
 10 11  1  0  0  0
 11 12  2  0  0  0
 12 13  1  0  0  0
 13 16  1  0  0  0
 16 17  2  0  0  0
 17 18  1  0  0  0
 18 19  2  0  0  0
 19 20  1  0  0  0
 20 21  2  0  0  0
 13 14  2  0  0  0
 14 15  1  0  0  0
 15  1  1  0  0  0
 10  3  2  0  0  0
 15 11  1  0  0  0
 32 27  1  0  0  0
 21 16  1  0  0  0
M  END
> <minimizedAffinity>
-9.93175

$$$$



 32 36  0  0  0  0  0  0  0  0999 V2000
   -0.8364   63.3850   83.0191 C   0  0  0  0  0  0  0  0  0  0  0  0
   -0.1618   64.3329   83.6036 N   0  0  0  0  0  0  0  0  0  0  0  0
    0.5549   65.2102   82.7878 C   0  0  0  0  0  0  0  0  0  0  0  0
    1.3201   66.3020   83.4973 C   0  0  0  0  0  0  0  0  0  0  0  0
    1.2813   66.3959   84.7253 O   0  0  0  0  0  0  0  0  0  0  0  0
    2.0474   67.1674   82.6953 N   0  0  0  0  0  0  0  0  0  0  0  0
    2.1048   67.0877   81.3301 N   0  0  0  0  0  0  0  0  0  0  0  0
    1.4349   66.1506   80.7400 C   0  0  0  0  0  0  0  0  0  0  0  0
    1.5487   66.1271   79.2331 C   0  0  0  0  0  0  0  0  0  0  0  0
    0.5955   65.1369   81.4381 C   0  0  0  0  0  0  0  0  0  0  0  0
   -0.1600   64.1110   80.7934 C   0  0  0  0  0  0  0  0  0  0  0  0
   -0.4417   63.6639   79.5208 C   0  0  0  0  0  0  0  0  0  0  0  0
   -1.3285   62.5590   79.6702 C   0  0  0  0  0  0  0  0  0  0  0  0
   -1.5814   62.3396   80.9689 N   0  0  0  0  0  0  0  0  0  0  0  0
   -0.8535   63.2614   81.6294 N   0  0  0  0  0  0  0  0  0  0  0  0
   -1.9310   61.7279   78.6209 C   0  0  0  0  0  0  0  0  0  0  0  0
   -2.9634   62.2171   77.8064 C   0  0  0  0  0  0  0  0  0  0  0  0
   -3.5258   61.4150   76.8080 C   0  0  0  0  0  0  0  0  0  0  0  0
   -3.0645   60.1155   76.6114 C   0  0  0  0  0  0  0  0  0  0  0  0
   -2.0424   59.6142   77.4130 C   0  0  0  0  0  0  0  0  0  0  0  0
   -1.4806   60.4147   78.4111 C   0  0  0  0  0  0  0  0  0  0  0  0
   -1.6239   62.3483   83.7765 C   0  0  0  0  0  0  0  0  0  0  0  0
   -0.8048   61.8336   84.8235 O   0  0  0  0  0  0  0  0  0  0  0  0
   -2.7033   62.6863   86.0969 C   0  0  0  0  0  0  0  0  0  0  0  0
   -1.2778   62.1645   86.1266 C   0  0  0  0  0  0  0  0  0  0  0  0
    2.7567   68.2867   83.3084 C   0  0  0  0  0  0  0  0  0  0  0  0
    2.6929   69.5348   82.4578 C   0  0  0  0  0  0  0  0  0  0  0  0
    1.5175   70.2972   82.3986 C   0  0  0  0  0  0  0  0  0  0  0  0
    1.4548   71.4408   81.6008 C   0  0  0  0  0  0  0  0  0  0  0  0
    2.5625   71.8296   80.8496 C   0  0  0  0  0  0  0  0  0  0  0  0
    3.7321   71.0725   80.8903 C   0  0  0  0  0  0  0  0  0  0  0  0
    3.7964   69.9283   81.6870 C   0  0  0  0  0  0  0  0  0  0  0  0
 24 25  1  0  0  0
 25 23  1  0  0  0
 23 22  1  0  0  0
 22  1  1  0  0  0
  1  2  2  0  0  0
  2  3  1  0  0  0
  3  4  1  0  0  0
  4  5  2  0  0  0
  4  6  1  0  0  0
  6 26  1  0  0  0
 26 27  1  0  0  0
 27 28  2  0  0  0
 28 29  1  0  0  0
 29 30  2  0  0  0
 30 31  1  0  0  0
 31 32  2  0  0  0
  6  7  1  0  0  0
  7  8  2  0  0  0
  8  9  1  0  0  0
  8 10  1  0  0  0
 10 11  1  0  0  0
 11 12  2  0  0  0
 12 13  1  0  0  0
 13 16  1  0  0  0
 16 17  2  0  0  0
 17 18  1  0  0  0
 18 19  2  0  0  0
 19 20  1  0  0  0
 20 21  2  0  0  0
 13 14  2  0  0  0
 14 15  1  0  0  0
 15  1  1  0  0  0
 10  3  2  0  0  0
 15 11  1  0  0  0
 32 27  1  0  0  0
 21 16  1  0  0  0
M  END
> <minimizedAffinity>
-9.70234

$$$$



 32 36  0  0  0  0  0  0  0  0999 V2000
    0.6119   65.2882   79.5901 C   0  0  0  0  0  0  0  0  0  0  0  0
    1.2795   66.2705   80.1237 N   0  0  0  0  0  0  0  0  0  0  0  0
    1.3596   66.3128   81.5167 C   0  0  0  0  0  0  0  0  0  0  0  0
    2.1472   67.4607   82.1024 C   0  0  0  0  0  0  0  0  0  0  0  0
    2.6890   68.2870   81.3661 O   0  0  0  0  0  0  0  0  0  0  0  0
    2.2178   67.5188   83.4854 N   0  0  0  0  0  0  0  0  0  0  0  0
    1.6288   66.6130   84.3255 N   0  0  0  0  0  0  0  0  0  0  0  0
    0.9658   65.6313   83.8042 C   0  0  0  0  0  0  0  0  0  0  0  0
    0.3445   64.6741   84.7952 C   0  0  0  0  0  0  0  0  0  0  0  0
    0.7892   65.4061   82.3421 C   0  0  0  0  0  0  0  0  0  0  0  0
    0.0740   64.3164   81.7592 C   0  0  0  0  0  0  0  0  0  0  0  0
   -0.6213   63.1935   82.1520 C   0  0  0  0  0  0  0  0  0  0  0  0
   -1.0499   62.5476   80.9567 C   0  0  0  0  0  0  0  0  0  0  0  0
   -0.6366   63.2372   79.8831 N   0  0  0  0  0  0  0  0  0  0  0  0
    0.0130   64.3075   80.3815 N   0  0  0  0  0  0  0  0  0  0  0  0
   -1.8260   61.3091   80.8200 C   0  0  0  0  0  0  0  0  0  0  0  0
   -2.2195   60.5677   81.9441 C   0  0  0  0  0  0  0  0  0  0  0  0
   -2.9619   59.3911   81.7991 C   0  0  0  0  0  0  0  0  0  0  0  0
   -3.3194   58.9409   80.5303 C   0  0  0  0  0  0  0  0  0  0  0  0
   -2.9344   59.6639   79.4044 C   0  0  0  0  0  0  0  0  0  0  0  0
   -2.1922   60.8391   79.5486 C   0  0  0  0  0  0  0  0  0  0  0  0
    0.4144   65.1388   78.1044 C   0  0  0  0  0  0  0  0  0  0  0  0
   -0.8747   65.6445   77.7662 O   0  0  0  0  0  0  0  0  0  0  0  0
   -1.0944   63.5532   76.5290 C   0  0  0  0  0  0  0  0  0  0  0  0
   -1.4385   65.0297   76.6106 C   0  0  0  0  0  0  0  0  0  0  0  0
    3.0183   68.5631   84.1184 C   0  0  0  0  0  0  0  0  0  0  0  0
    4.2892   68.0151   84.7266 C   0  0  0  0  0  0  0  0  0  0  0  0
    4.4858   68.0461   86.1146 C   0  0  0  0  0  0  0  0  0  0  0  0
    5.6661   67.5539   86.6737 C   0  0  0  0  0  0  0  0  0  0  0  0
    6.6638   67.0329   85.8517 C   0  0  0  0  0  0  0  0  0  0  0  0
    6.4853   67.0087   84.4696 C   0  0  0  0  0  0  0  0  0  0  0  0
    5.3058   67.5010   83.9087 C   0  0  0  0  0  0  0  0  0  0  0  0
 24 25  1  0  0  0
 25 23  1  0  0  0
 23 22  1  0  0  0
 22  1  1  0  0  0
  1  2  2  0  0  0
  2  3  1  0  0  0
  3  4  1  0  0  0
  4  5  2  0  0  0
  4  6  1  0  0  0
  6 26  1  0  0  0
 26 27  1  0  0  0
 27 28  2  0  0  0
 28 29  1  0  0  0
 29 30  2  0  0  0
 30 31  1  0  0  0
 31 32  2  0  0  0
  6  7  1  0  0  0
  7  8  2  0  0  0
  8  9  1  0  0  0
  8 10  1  0  0  0
 10 11  1  0  0  0
 11 12  2  0  0  0
 12 13  1  0  0  0
 13 16  1  0  0  0
 16 17  2  0  0  0
 17 18  1  0  0  0
 18 19  2  0  0  0
 19 20  1  0  0  0
 20 21  2  0  0  0
 13 14  2  0  0  0
 14 15  1  0  0  0
 15  1  1  0  0  0
 10  3  2  0  0  0
 15 11  1  0  0  0
 32 27  1  0  0  0
 21 16  1  0  0  0
M  END
> <minimizedAffinity>
-9.67018

$$$$



 32 36  0  0  0  0  0  0  0  0999 V2000
    0.8572   65.1078   83.6908 C   0  0  0  0  0  0  0  0  0  0  0  0
    0.4066   63.9417   83.3272 N   0  0  0  0  0  0  0  0  0  0  0  0
    0.2313   63.7167   81.9607 C   0  0  0  0  0  0  0  0  0  0  0  0
   -0.2858   62.3515   81.5730 C   0  0  0  0  0  0  0  0  0  0  0  0
   -0.5153   61.5021   82.4355 O   0  0  0  0  0  0  0  0  0  0  0  0
   -0.4778   62.1258   80.2191 N   0  0  0  0  0  0  0  0  0  0  0  0
   -0.2277   63.0499   79.2409 N   0  0  0  0  0  0  0  0  0  0  0  0
    0.2236   64.2109   79.5925 C   0  0  0  0  0  0  0  0  0  0  0  0
    0.4745   65.1764   78.4572 C   0  0  0  0  0  0  0  0  0  0  0  0
    0.4952   64.6277   80.9968 C   0  0  0  0  0  0  0  0  0  0  0  0
    1.0092   65.9002   81.3913 C   0  0  0  0  0  0  0  0  0  0  0  0
    1.4283   67.0811   80.8182 C   0  0  0  0  0  0  0  0  0  0  0  0
    1.8457   67.9219   81.8898 C   0  0  0  0  0  0  0  0  0  0  0  0
    1.6935   67.2889   83.0623 N   0  0  0  0  0  0  0  0  0  0  0  0
    1.1673   66.0888   82.7482 N   0  0  0  0  0  0  0  0  0  0  0  0
    2.3802   69.2873   81.8196 C   0  0  0  0  0  0  0  0  0  0  0  0
    3.2482   69.6782   80.7890 C   0  0  0  0  0  0  0  0  0  0  0  0
    3.7471   70.9837   80.7327 C   0  0  0  0  0  0  0  0  0  0  0  0
    3.3855   71.9138   81.7045 C   0  0  0  0  0  0  0  0  0  0  0  0
    2.5271   71.5410   82.7353 C   0  0  0  0  0  0  0  0  0  0  0  0
    2.0289   70.2367   82.7926 C   0  0  0  0  0  0  0  0  0  0  0  0
    1.0597   65.4991   85.1311 C   0  0  0  0  0  0  0  0  0  0  0  0
    0.2563   64.6507   85.9477 O   0  0  0  0  0  0  0  0  0  0  0  0
    0.0545   63.5426   88.1119 C   0  0  0  0  0  0  0  0  0  0  0  0
    0.9783   64.0454   87.0170 C   0  0  0  0  0  0  0  0  0  0  0  0
   -0.9117   60.8068   79.7673 C   0  0  0  0  0  0  0  0  0  0  0  0
   -1.8527   60.8912   78.5871 C   0  0  0  0  0  0  0  0  0  0  0  0
   -2.9147   61.8069   78.5868 C   0  0  0  0  0  0  0  0  0  0  0  0
   -3.7919   61.8733   77.5033 C   0  0  0  0  0  0  0  0  0  0  0  0
   -3.6212   61.0215   76.4135 C   0  0  0  0  0  0  0  0  0  0  0  0
   -2.5770   60.0983   76.4081 C   0  0  0  0  0  0  0  0  0  0  0  0
   -1.6991   60.0300   77.4910 C   0  0  0  0  0  0  0  0  0  0  0  0
 24 25  1  0  0  0
 25 23  1  0  0  0
 23 22  1  0  0  0
 22  1  1  0  0  0
  1  2  2  0  0  0
  2  3  1  0  0  0
  3  4  1  0  0  0
  4  5  2  0  0  0
  4  6  1  0  0  0
  6 26  1  0  0  0
 26 27  1  0  0  0
 27 28  2  0  0  0
 28 29  1  0  0  0
 29 30  2  0  0  0
 30 31  1  0  0  0
 31 32  2  0  0  0
  6  7  1  0  0  0
  7  8  2  0  0  0
  8  9  1  0  0  0
  8 10  1  0  0  0
 10 11  1  0  0  0
 11 12  2  0  0  0
 12 13  1  0  0  0
 13 16  1  0  0  0
 16 17  2  0  0  0
 17 18  1  0  0  0
 18 19  2  0  0  0
 19 20  1  0  0  0
 20 21  2  0  0  0
 13 14  2  0  0  0
 14 15  1  0  0  0
 15  1  1  0  0  0
 10  3  2  0  0  0
 15 11  1  0  0  0
 32 27  1  0  0  0
 21 16  1  0  0  0
M  END
> <minimizedAffinity>
-9.35289

$$$$



 32 36  0  0  0  0  0  0  0  0999 V2000
    0.7387   65.5382   79.6881 C   0  0  0  0  0  0  0  0  0  0  0  0
    0.3068   64.4504   80.2584 N   0  0  0  0  0  0  0  0  0  0  0  0
    0.3725   64.3839   81.6512 C   0  0  0  0  0  0  0  0  0  0  0  0
   -0.1432   63.1115   82.2807 C   0  0  0  0  0  0  0  0  0  0  0  0
   -0.6036   62.2092   81.5793 O   0  0  0  0  0  0  0  0  0  0  0  0
   -0.0664   63.0312   83.6623 N   0  0  0  0  0  0  0  0  0  0  0  0
    0.4367   64.0193   84.4646 N   0  0  0  0  0  0  0  0  0  0  0  0
    0.8654   65.1058   83.9070 C   0  0  0  0  0  0  0  0  0  0  0  0
    1.4061   66.1489   84.8576 C   0  0  0  0  0  0  0  0  0  0  0  0
    0.8558   65.3697   82.4407 C   0  0  0  0  0  0  0  0  0  0  0  0
    1.3109   66.5721   81.8194 C   0  0  0  0  0  0  0  0  0  0  0  0
    1.8367   67.7960   82.1718 C   0  0  0  0  0  0  0  0  0  0  0  0
    2.0276   68.5161   80.9575 C   0  0  0  0  0  0  0  0  0  0  0  0
    1.6363   67.7733   79.9115 N   0  0  0  0  0  0  0  0  0  0  0  0
    1.2338   66.6023   80.4429 N   0  0  0  0  0  0  0  0  0  0  0  0
    2.5604   69.8721   80.7781 C   0  0  0  0  0  0  0  0  0  0  0  0
    3.9057   70.0883   80.4438 C   0  0  0  0  0  0  0  0  0  0  0  0
    4.3990   71.3860   80.2726 C   0  0  0  0  0  0  0  0  0  0  0  0
    3.5552   72.4825   80.4335 C   0  0  0  0  0  0  0  0  0  0  0  0
    2.2182   72.2850   80.7679 C   0  0  0  0  0  0  0  0  0  0  0  0
    1.7249   70.9889   80.9397 C   0  0  0  0  0  0  0  0  0  0  0  0
    0.7604   65.7314   78.1945 C   0  0  0  0  0  0  0  0  0  0  0  0
    0.2506   64.5515   77.5783 O   0  0  0  0  0  0  0  0  0  0  0  0
   -1.7435   63.5677   76.5739 C   0  0  0  0  0  0  0  0  0  0  0  0
   -0.8632   64.7957   76.7232 C   0  0  0  0  0  0  0  0  0  0  0  0
   -0.6080   61.8583   84.3427 C   0  0  0  0  0  0  0  0  0  0  0  0
   -1.1399   62.1937   85.7175 C   0  0  0  0  0  0  0  0  0  0  0  0
   -2.4275   62.7270   85.8726 C   0  0  0  0  0  0  0  0  0  0  0  0
   -2.9116   63.0507   87.1410 C   0  0  0  0  0  0  0  0  0  0  0  0
   -2.1124   62.8514   88.2653 C   0  0  0  0  0  0  0  0  0  0  0  0
   -0.8261   62.3341   88.1224 C   0  0  0  0  0  0  0  0  0  0  0  0
   -0.3399   62.0104   86.8547 C   0  0  0  0  0  0  0  0  0  0  0  0
 24 25  1  0  0  0
 25 23  1  0  0  0
 23 22  1  0  0  0
 22  1  1  0  0  0
  1  2  2  0  0  0
  2  3  1  0  0  0
  3  4  1  0  0  0
  4  5  2  0  0  0
  4  6  1  0  0  0
  6 26  1  0  0  0
 26 27  1  0  0  0
 27 28  2  0  0  0
 28 29  1  0  0  0
 29 30  2  0  0  0
 30 31  1  0  0  0
 31 32  2  0  0  0
  6  7  1  0  0  0
  7  8  2  0  0  0
  8  9  1  0  0  0
  8 10  1  0  0  0
 10 11  1  0  0  0
 11 12  2  0  0  0
 12 13  1  0  0  0
 13 16  1  0  0  0
 16 17  2  0  0  0
 17 18  1  0  0  0
 18 19  2  0  0  0
 19 20  1  0  0  0
 20 21  2  0  0  0
 13 14  2  0  0  0
 14 15  1  0  0  0
 15  1  1  0  0  0
 10  3  2  0  0  0
 15 11  1  0  0  0
 32 27  1  0  0  0
 21 16  1  0  0  0
M  END
> <minimizedAffinity>
-9.21989

$$$$



 32 36  0  0  0  0  0  0  0  0999 V2000
    2.9453   66.6691   84.0098 C   0  0  0  0  0  0  0  0  0  0  0  0
    2.2052   65.5994   84.0661 N   0  0  0  0  0  0  0  0  0  0  0  0
    1.1839   65.4726   83.1230 C   0  0  0  0  0  0  0  0  0  0  0  0
    0.3493   64.2169   83.2121 C   0  0  0  0  0  0  0  0  0  0  0  0
    0.5911   63.3653   84.0691 O   0  0  0  0  0  0  0  0  0  0  0  0
   -0.6772   64.0912   82.2893 N   0  0  0  0  0  0  0  0  0  0  0  0
   -0.9648   65.0197   81.3257 N   0  0  0  0  0  0  0  0  0  0  0  0
   -0.2325   66.0849   81.2599 C   0  0  0  0  0  0  0  0  0  0  0  0
   -0.6119   67.0624   80.1714 C   0  0  0  0  0  0  0  0  0  0  0  0
    0.9139   66.3855   82.1626 C   0  0  0  0  0  0  0  0  0  0  0  0
    1.7370   67.5498   82.0854 C   0  0  0  0  0  0  0  0  0  0  0  0
    1.8691   68.6871   81.3188 C   0  0  0  0  0  0  0  0  0  0  0  0
    2.9800   69.4033   81.8504 C   0  0  0  0  0  0  0  0  0  0  0  0
    3.5059   68.7385   82.8897 N   0  0  0  0  0  0  0  0  0  0  0  0
    2.7340   67.6434   83.0336 N   0  0  0  0  0  0  0  0  0  0  0  0
    3.5415   70.6805   81.3940 C   0  0  0  0  0  0  0  0  0  0  0  0
    3.1928   71.8917   82.0101 C   0  0  0  0  0  0  0  0  0  0  0  0
    3.7384   73.1010   81.5669 C   0  0  0  0  0  0  0  0  0  0  0  0
    4.6379   73.1151   80.5035 C   0  0  0  0  0  0  0  0  0  0  0  0
    4.9922   71.9219   79.8796 C   0  0  0  0  0  0  0  0  0  0  0  0
    4.4470   70.7135   80.3214 C   0  0  0  0  0  0  0  0  0  0  0  0
    4.0575   66.9525   84.9851 C   0  0  0  0  0  0  0  0  0  0  0  0
    5.1408   66.0693   84.7051 O   0  0  0  0  0  0  0  0  0  0  0  0
    7.5640   65.7854   84.6857 C   0  0  0  0  0  0  0  0  0  0  0  0
    6.3897   66.7378   84.5476 C   0  0  0  0  0  0  0  0  0  0  0  0
   -1.4814   62.8726   82.2741 C   0  0  0  0  0  0  0  0  0  0  0  0
   -1.5715   62.2681   80.8914 C   0  0  0  0  0  0  0  0  0  0  0  0
   -2.8098   62.1525   80.2438 C   0  0  0  0  0  0  0  0  0  0  0  0
   -2.8937   61.5802   78.9736 C   0  0  0  0  0  0  0  0  0  0  0  0
   -1.7434   61.1117   78.3414 C   0  0  0  0  0  0  0  0  0  0  0  0
   -0.5087   61.2093   78.9807 C   0  0  0  0  0  0  0  0  0  0  0  0
   -0.4228   61.7808   80.2512 C   0  0  0  0  0  0  0  0  0  0  0  0
 24 25  1  0  0  0
 25 23  1  0  0  0
 23 22  1  0  0  0
 22  1  1  0  0  0
  1  2  2  0  0  0
  2  3  1  0  0  0
  3  4  1  0  0  0
  4  5  2  0  0  0
  4  6  1  0  0  0
  6 26  1  0  0  0
 26 27  1  0  0  0
 27 28  2  0  0  0
 28 29  1  0  0  0
 29 30  2  0  0  0
 30 31  1  0  0  0
 31 32  2  0  0  0
  6  7  1  0  0  0
  7  8  2  0  0  0
  8  9  1  0  0  0
  8 10  1  0  0  0
 10 11  1  0  0  0
 11 12  2  0  0  0
 12 13  1  0  0  0
 13 16  1  0  0  0
 16 17  2  0  0  0
 17 18  1  0  0  0
 18 19  2  0  0  0
 19 20  1  0  0  0
 20 21  2  0  0  0
 13 14  2  0  0  0
 14 15  1  0  0  0
 15  1  1  0  0  0
 10  3  2  0  0  0
 15 11  1  0  0  0
 32 27  1  0  0  0
 21 16  1  0  0  0
M  END
> <minimizedAffinity>
-9.09985

$$$$
