
     RDKit          3D

 56 57  0  0  0  0  0  0  0  0999 V2000
    4.8064   -1.5522    3.1672 C   0  0  0  0  0  0  0  0  0  0  0  0
    4.5939   -0.1164    2.7112 C   0  0  0  0  0  0  0  0  0  0  0  0
    3.9999   -0.0475    1.3204 C   0  0  0  0  0  0  0  0  0  0  0  0
    4.8650    0.0972    0.2178 C   0  0  0  0  0  0  0  0  0  0  0  0
    4.3621    0.1534   -1.0872 C   0  0  0  0  0  0  0  0  0  0  0  0
    5.2669    0.3098   -2.2646 C   0  0  0  0  0  0  0  0  0  0  0  0
    6.7547    0.4029   -2.0521 C   0  0  0  0  0  0  0  0  0  0  0  0
    4.7777    0.3601   -3.3940 O   0  0  0  0  0  0  0  0  0  0  0  0
    2.9772    0.0606   -1.2754 C   0  0  0  0  0  0  0  0  0  0  0  0
    2.3850    0.1102   -2.5109 O   0  0  0  0  0  0  0  0  0  0  0  0
    2.1091   -0.0909   -0.1918 C   0  0  0  0  0  0  0  0  0  0  0  0
    2.6111   -0.1546    1.1091 C   0  0  0  0  0  0  0  0  0  0  0  0
    1.8517   -0.2996    2.2393 O   0  0  0  0  0  0  0  0  0  0  0  0
    0.4553   -0.5838    2.1062 C   0  0  0  0  0  0  0  0  0  0  0  0
   -0.3960    0.6530    1.9081 C   0  0  0  0  0  0  0  0  0  0  0  0
   -0.0847    1.8464    2.5616 C   0  0  0  0  0  0  0  0  0  0  0  0
   -0.8968    2.9618    2.3697 C   0  0  0  0  0  0  0  0  0  0  0  0
   -2.0070    2.8614    1.5407 C   0  0  0  0  0  0  0  0  0  0  0  0
   -2.2616    1.6374    0.9397 C   0  0  0  0  0  0  0  0  0  0  0  0
   -3.4553    1.4789    0.0461 C   0  0  0  0  0  0  0  0  0  0  0  0
   -4.1847    2.4242   -0.2284 O   0  0  0  0  0  0  0  0  0  0  0  0
   -3.6410    0.1987   -0.4322 N   0  0  0  0  0  0  0  0  0  0  0  0
   -4.5738   -0.0931   -1.5195 C   0  0  0  0  0  0  0  0  0  0  0  0
   -3.7602   -0.0182   -2.8134 C   0  0  0  0  0  0  0  0  0  0  0  0
   -2.6193   -0.4258   -2.9763 O   0  0  0  0  0  0  0  0  0  0  0  0
   -4.4360    0.5355   -3.8406 O   0  0  0  0  0  0  0  0  0  0  0  0
   -5.2070   -1.4899   -1.3458 C   0  0  0  0  0  0  0  0  0  0  0  0
   -5.9435   -1.6011   -0.0048 C   0  0  0  0  0  0  0  0  0  0  0  0
   -6.1863   -1.8166   -2.4786 C   0  0  0  0  0  0  0  0  0  0  0  0
   -1.4846    0.5284    1.1070 N   0  0  0  0  0  0  0  0  0  0  0  0
    3.8618   -2.1049    3.2044 H   0  0  0  0  0  0  0  0  0  0  0  0
    5.4812   -2.0869    2.4901 H   0  0  0  0  0  0  0  0  0  0  0  0
    5.2475   -1.5691    4.1688 H   0  0  0  0  0  0  0  0  0  0  0  0
    5.5530    0.4162    2.7295 H   0  0  0  0  0  0  0  0  0  0  0  0
    3.9511    0.4152    3.4229 H   0  0  0  0  0  0  0  0  0  0  0  0
    5.9331    0.1632    0.4071 H   0  0  0  0  0  0  0  0  0  0  0  0
    6.9975    1.2829   -1.4510 H   0  0  0  0  0  0  0  0  0  0  0  0
    7.2495    0.5088   -3.0227 H   0  0  0  0  0  0  0  0  0  0  0  0
    7.1283   -0.5095   -1.5803 H   0  0  0  0  0  0  0  0  0  0  0  0
    3.0926    0.2170   -3.1864 H   0  0  0  0  0  0  0  0  0  0  0  0
    1.0466   -0.1473   -0.4086 H   0  0  0  0  0  0  0  0  0  0  0  0
    0.1414   -1.0423    3.0516 H   0  0  0  0  0  0  0  0  0  0  0  0
    0.2705   -1.3371    1.3306 H   0  0  0  0  0  0  0  0  0  0  0  0
    0.7873    1.9132    3.2065 H   0  0  0  0  0  0  0  0  0  0  0  0
   -0.6635    3.9019    2.8621 H   0  0  0  0  0  0  0  0  0  0  0  0
   -2.6582    3.7125    1.3700 H   0  0  0  0  0  0  0  0  0  0  0  0
   -2.8411   -0.4191   -0.3034 H   0  0  0  0  0  0  0  0  0  0  0  0
   -5.3448    0.6860   -1.5421 H   0  0  0  0  0  0  0  0  0  0  0  0
   -3.7843    0.5435   -4.5726 H   0  0  0  0  0  0  0  0  0  0  0  0
   -4.4145   -2.2503   -1.3575 H   0  0  0  0  0  0  0  0  0  0  0  0
   -5.2580   -1.4749    0.8393 H   0  0  0  0  0  0  0  0  0  0  0  0
   -6.7299   -0.8430    0.0786 H   0  0  0  0  0  0  0  0  0  0  0  0
   -6.4109   -2.5861    0.1016 H   0  0  0  0  0  0  0  0  0  0  0  0
   -6.9733   -1.0585   -2.5535 H   0  0  0  0  0  0  0  0  0  0  0  0
   -6.6667   -2.7865   -2.3098 H   0  0  0  0  0  0  0  0  0  0  0  0
   -5.6745   -1.8754   -3.4441 H   0  0  0  0  0  0  0  0  0  0  0  0
  1  2  1  0
  2  3  1  0
  3  4  1  0
  4  5  2  0
  5  6  1  0
  6  7  1  0
  6  8  2  0
  5  9  1  0
  9 10  1  0
  9 11  2  0
 11 12  1  0
 12 13  1  0
 13 14  1  0
 14 15  1  0
 15 16  2  0
 16 17  1  0
 17 18  2  0
 18 19  1  0
 19 20  1  0
 20 21  2  0
 20 22  1  0
 22 23  1  0
 23 24  1  0
 24 25  2  0
 24 26  1  0
 23 27  1  0
 27 28  1  0
 27 29  1  0
 19 30  2  0
 12  3  2  0
 30 15  1  0
  1 31  1  0
  1 32  1  0
  1 33  1  0
  2 34  1  0
  2 35  1  0
  4 36  1  0
  7 37  1  0
  7 38  1  0
  7 39  1  0
 10 40  1  0
 11 41  1  0
 14 42  1  0
 14 43  1  0
 16 44  1  0
 17 45  1  0
 18 46  1  0
 22 47  1  0
 23 48  1  0
 26 49  1  0
 27 50  1  0
 28 51  1  0
 28 52  1  0
 28 53  1  0
 29 54  1  0
 29 55  1  0
 29 56  1  0
M  END
$$$$
