


 22 24  0  0  0  0  0  0  0  0999 V2000
    1.2437   65.2585   84.7771 C   0  0  0  0  0  0  0  0  0  0  0  0
    0.6467   64.4909   83.9034 N   0  0  0  0  0  0  0  0  0  0  0  0
   -0.2065   63.5400   84.4647 C   0  0  0  0  0  0  0  0  0  0  0  0
   -0.9998   62.5635   83.8425 C   0  0  0  0  0  0  0  0  0  0  0  0
   -1.1396   62.2836   82.3966 C   0  0  0  0  0  0  0  0  0  0  0  0
   -1.6770   61.8467   84.7595 N   0  0  0  0  0  0  0  0  0  0  0  0
   -1.2965   62.3867   85.9446 N   0  0  0  0  0  0  0  0  0  0  0  0
   -1.8300   61.8634   87.1789 C   0  0  0  0  0  0  0  0  0  0  0  0
   -0.4116   63.4087   85.8045 C   0  0  0  0  0  0  0  0  0  0  0  0
    0.2287   64.2335   86.7601 C   0  0  0  0  0  0  0  0  0  0  0  0
    0.0881   64.1673   87.9756 O   0  0  0  0  0  0  0  0  0  0  0  0
    1.0551   65.1494   86.1519 N   0  0  0  0  0  0  0  0  0  0  0  0
    1.5496   65.7767   86.7725 H   0  0  0  0  0  0  0  0  0  0  0  0
    3.5475   66.4329   84.7030 C   0  0  0  0  0  0  0  0  0  0  0  0
    4.3345   67.4778   84.1938 C   0  0  0  0  0  0  0  0  0  0  0  0
    3.7990   68.4117   83.3037 C   0  0  0  0  0  0  0  0  0  0  0  0
    2.4712   68.3158   82.9096 C   0  0  0  0  0  0  0  0  0  0  0  0
    1.6760   67.2838   83.4062 C   0  0  0  0  0  0  0  0  0  0  0  0
    2.1949   66.3311   84.3047 C   0  0  0  0  0  0  0  0  0  0  0  0
    4.0284   65.4916   85.5796 O   0  0  0  0  0  0  0  0  0  0  0  0
    5.8860   65.4287   87.0675 C   0  0  0  0  0  0  0  0  0  0  0  0
    5.4386   65.2647   85.6258 C   0  0  0  0  0  0  0  0  0  0  0  0
 21 22  1  0  0  0
 22 20  1  0  0  0
 20 14  1  0  0  0
 14 15  2  0  0  0
 15 16  1  0  0  0
 16 17  2  0  0  0
 17 18  1  0  0  0
 18 19  2  0  0  0
 19  1  1  0  0  0
  1  2  2  0  0  0
  2  3  1  0  0  0
  3  4  1  0  0  0
  4  5  1  0  0  0
  4  6  2  0  0  0
  6  7  1  0  0  0
  7  8  1  0  0  0
  7  9  1  0  0  0
  9 10  1  0  0  0
 10 11  2  0  0  0
 10 12  1  0  0  0
 19 14  1  0  0  0
 12  1  1  0  0  0
  9  3  2  0  0  0
 12 13  1  0  0  0
M  END
> <minimizedAffinity>
-8.58659

$$$$



 22 24  0  0  0  0  0  0  0  0999 V2000
   -0.7780   62.4922   82.9195 C   0  0  0  0  0  0  0  0  0  0  0  0
   -0.3504   62.5448   81.6853 N   0  0  0  0  0  0  0  0  0  0  0  0
   -0.9930   61.6602   80.8182 C   0  0  0  0  0  0  0  0  0  0  0  0
   -0.7980   61.4445   79.4450 C   0  0  0  0  0  0  0  0  0  0  0  0
    0.1619   62.1152   78.5410 C   0  0  0  0  0  0  0  0  0  0  0  0
   -1.6346   60.4922   78.9904 N   0  0  0  0  0  0  0  0  0  0  0  0
   -2.3423   60.1255   80.0884 N   0  0  0  0  0  0  0  0  0  0  0  0
   -3.3558   59.1039   79.9839 C   0  0  0  0  0  0  0  0  0  0  0  0
   -1.9820   60.8086   81.2068 C   0  0  0  0  0  0  0  0  0  0  0  0
   -2.4534   60.7423   82.5398 C   0  0  0  0  0  0  0  0  0  0  0  0
   -3.3371   60.0009   82.9532 O   0  0  0  0  0  0  0  0  0  0  0  0
   -1.7863   61.6335   83.3476 N   0  0  0  0  0  0  0  0  0  0  0  0
   -2.0691   61.6443   84.3188 H   0  0  0  0  0  0  0  0  0  0  0  0
   -0.1213   63.1068   85.3450 C   0  0  0  0  0  0  0  0  0  0  0  0
    0.4744   64.0301   86.2187 C   0  0  0  0  0  0  0  0  0  0  0  0
    1.0178   65.2243   85.7397 C   0  0  0  0  0  0  0  0  0  0  0  0
    0.9744   65.5138   84.3826 C   0  0  0  0  0  0  0  0  0  0  0  0
    0.3863   64.6074   83.5013 C   0  0  0  0  0  0  0  0  0  0  0  0
   -0.1679   63.3972   83.9622 C   0  0  0  0  0  0  0  0  0  0  0  0
   -0.6686   61.9206   85.7681 O   0  0  0  0  0  0  0  0  0  0  0  0
   -2.6889   62.4221   86.9234 C   0  0  0  0  0  0  0  0  0  0  0  0
   -1.2785   61.8767   87.0597 C   0  0  0  0  0  0  0  0  0  0  0  0
 21 22  1  0  0  0
 22 20  1  0  0  0
 20 14  1  0  0  0
 14 15  2  0  0  0
 15 16  1  0  0  0
 16 17  2  0  0  0
 17 18  1  0  0  0
 18 19  2  0  0  0
 19  1  1  0  0  0
  1  2  2  0  0  0
  2  3  1  0  0  0
  3  4  1  0  0  0
  4  5  1  0  0  0
  4  6  2  0  0  0
  6  7  1  0  0  0
  7  8  1  0  0  0
  7  9  1  0  0  0
  9 10  1  0  0  0
 10 11  2  0  0  0
 10 12  1  0  0  0
 19 14  1  0  0  0
 12  1  1  0  0  0
  9  3  2  0  0  0
 12 13  1  0  0  0
M  END
> <minimizedAffinity>
-8.58015

$$$$



 22 24  0  0  0  0  0  0  0  0999 V2000
   -1.6798   62.3047   83.7829 C   0  0  0  0  0  0  0  0  0  0  0  0
   -1.2255   63.1018   82.8517 N   0  0  0  0  0  0  0  0  0  0  0  0
   -1.3675   62.6071   81.5547 C   0  0  0  0  0  0  0  0  0  0  0  0
   -0.9994   63.1800   80.3274 C   0  0  0  0  0  0  0  0  0  0  0  0
   -0.3503   64.4873   80.0862 C   0  0  0  0  0  0  0  0  0  0  0  0
   -1.3182   62.3616   79.3066 N   0  0  0  0  0  0  0  0  0  0  0  0
   -1.8824   61.2863   79.9118 N   0  0  0  0  0  0  0  0  0  0  0  0
   -2.3574   60.1795   79.1174 C   0  0  0  0  0  0  0  0  0  0  0  0
   -1.9284   61.4004   81.2654 C   0  0  0  0  0  0  0  0  0  0  0  0
   -2.4237   60.5287   82.2645 C   0  0  0  0  0  0  0  0  0  0  0  0
   -2.9380   59.4333   82.0717 O   0  0  0  0  0  0  0  0  0  0  0  0
   -2.2579   61.0662   83.5197 N   0  0  0  0  0  0  0  0  0  0  0  0
   -2.5891   60.4989   84.2889 H   0  0  0  0  0  0  0  0  0  0  0  0
   -0.5107   63.4423   85.7908 C   0  0  0  0  0  0  0  0  0  0  0  0
   -0.5401   63.7689   87.1557 C   0  0  0  0  0  0  0  0  0  0  0  0
   -1.6154   63.3884   87.9619 C   0  0  0  0  0  0  0  0  0  0  0  0
   -2.6760   62.6769   87.4175 C   0  0  0  0  0  0  0  0  0  0  0  0
   -2.6623   62.3446   86.0635 C   0  0  0  0  0  0  0  0  0  0  0  0
   -1.5885   62.7179   85.2318 C   0  0  0  0  0  0  0  0  0  0  0  0
    0.5234   63.7938   84.9585 O   0  0  0  0  0  0  0  0  0  0  0  0
    1.0656   65.6838   83.6161 C   0  0  0  0  0  0  0  0  0  0  0  0
    1.0276   65.1291   85.0290 C   0  0  0  0  0  0  0  0  0  0  0  0
 21 22  1  0  0  0
 22 20  1  0  0  0
 20 14  1  0  0  0
 14 15  2  0  0  0
 15 16  1  0  0  0
 16 17  2  0  0  0
 17 18  1  0  0  0
 18 19  2  0  0  0
 19  1  1  0  0  0
  1  2  2  0  0  0
  2  3  1  0  0  0
  3  4  1  0  0  0
  4  5  1  0  0  0
  4  6  2  0  0  0
  6  7  1  0  0  0
  7  8  1  0  0  0
  7  9  1  0  0  0
  9 10  1  0  0  0
 10 11  2  0  0  0
 10 12  1  0  0  0
 19 14  1  0  0  0
 12  1  1  0  0  0
  9  3  2  0  0  0
 12 13  1  0  0  0
M  END
> <minimizedAffinity>
-8.24166

$$$$



 22 24  0  0  0  0  0  0  0  0999 V2000
    0.7815   64.7987   84.7616 C   0  0  0  0  0  0  0  0  0  0  0  0
   -0.3340   64.1175   84.7420 N   0  0  0  0  0  0  0  0  0  0  0  0
   -0.5710   63.3731   85.8983 C   0  0  0  0  0  0  0  0  0  0  0  0
   -1.6495   62.5362   86.2248 C   0  0  0  0  0  0  0  0  0  0  0  0
   -2.8416   62.2195   85.4081 C   0  0  0  0  0  0  0  0  0  0  0  0
   -1.4839   62.0050   87.4511 N   0  0  0  0  0  0  0  0  0  0  0  0
   -0.3018   62.5187   87.8747 N   0  0  0  0  0  0  0  0  0  0  0  0
    0.2125   62.1651   89.1756 C   0  0  0  0  0  0  0  0  0  0  0  0
    0.2755   63.3468   86.9646 C   0  0  0  0  0  0  0  0  0  0  0  0
    1.4860   64.0798   86.9976 C   0  0  0  0  0  0  0  0  0  0  0  0
    2.2891   64.0992   87.9230 O   0  0  0  0  0  0  0  0  0  0  0  0
    1.6671   64.7926   85.8354 N   0  0  0  0  0  0  0  0  0  0  0  0
    2.5138   65.3437   85.7843 H   0  0  0  0  0  0  0  0  0  0  0  0
    2.1366   66.6707   83.5988 C   0  0  0  0  0  0  0  0  0  0  0  0
    2.4020   67.3939   82.4254 C   0  0  0  0  0  0  0  0  0  0  0  0
    1.7170   67.1158   81.2403 C   0  0  0  0  0  0  0  0  0  0  0  0
    0.7579   66.1124   81.2098 C   0  0  0  0  0  0  0  0  0  0  0  0
    0.4823   65.3847   82.3667 C   0  0  0  0  0  0  0  0  0  0  0  0
    1.1608   65.6481   83.5728 C   0  0  0  0  0  0  0  0  0  0  0  0
    2.7833   66.9072   84.7869 O   0  0  0  0  0  0  0  0  0  0  0  0
    4.9571   65.9441   84.9090 C   0  0  0  0  0  0  0  0  0  0  0  0
    4.1738   67.2349   84.7495 C   0  0  0  0  0  0  0  0  0  0  0  0
 21 22  1  0  0  0
 22 20  1  0  0  0
 20 14  1  0  0  0
 14 15  2  0  0  0
 15 16  1  0  0  0
 16 17  2  0  0  0
 17 18  1  0  0  0
 18 19  2  0  0  0
 19  1  1  0  0  0
  1  2  2  0  0  0
  2  3  1  0  0  0
  3  4  1  0  0  0
  4  5  1  0  0  0
  4  6  2  0  0  0
  6  7  1  0  0  0
  7  8  1  0  0  0
  7  9  1  0  0  0
  9 10  1  0  0  0
 10 11  2  0  0  0
 10 12  1  0  0  0
 19 14  1  0  0  0
 12  1  1  0  0  0
  9  3  2  0  0  0
 12 13  1  0  0  0
M  END
> <minimizedAffinity>
-8.19651

$$$$



 22 24  0  0  0  0  0  0  0  0999 V2000
   -1.3832   62.2526   83.5582 C   0  0  0  0  0  0  0  0  0  0  0  0
   -2.4754   62.2207   82.8405 N   0  0  0  0  0  0  0  0  0  0  0  0
   -2.2768   61.8435   81.5118 C   0  0  0  0  0  0  0  0  0  0  0  0
   -3.2045   61.7023   80.4679 C   0  0  0  0  0  0  0  0  0  0  0  0
   -4.6669   61.9223   80.5077 C   0  0  0  0  0  0  0  0  0  0  0  0
   -2.5886   61.3166   79.3342 N   0  0  0  0  0  0  0  0  0  0  0  0
   -1.2817   61.2219   79.6864 N   0  0  0  0  0  0  0  0  0  0  0  0
   -0.2989   60.8243   78.7077 C   0  0  0  0  0  0  0  0  0  0  0  0
   -1.0579   61.5321   80.9906 C   0  0  0  0  0  0  0  0  0  0  0  0
    0.1315   61.5630   81.7573 C   0  0  0  0  0  0  0  0  0  0  0  0
    1.2558   61.2952   81.3502 O   0  0  0  0  0  0  0  0  0  0  0  0
   -0.1236   61.9402   83.0552 N   0  0  0  0  0  0  0  0  0  0  0  0
    0.6809   61.9855   83.6667 H   0  0  0  0  0  0  0  0  0  0  0  0
   -0.4764   63.4131   85.6851 C   0  0  0  0  0  0  0  0  0  0  0  0
   -0.6559   63.7145   87.0442 C   0  0  0  0  0  0  0  0  0  0  0  0
   -1.7837   63.2667   87.7360 C   0  0  0  0  0  0  0  0  0  0  0  0
   -2.7479   62.5122   87.0812 C   0  0  0  0  0  0  0  0  0  0  0  0
   -2.5847   62.2041   85.7312 C   0  0  0  0  0  0  0  0  0  0  0  0
   -1.4555   62.6450   85.0139 C   0  0  0  0  0  0  0  0  0  0  0  0
    0.6145   63.8303   84.9629 O   0  0  0  0  0  0  0  0  0  0  0  0
    0.7976   65.5178   83.2935 C   0  0  0  0  0  0  0  0  0  0  0  0
    0.8143   65.2341   84.7850 C   0  0  0  0  0  0  0  0  0  0  0  0
 21 22  1  0  0  0
 22 20  1  0  0  0
 20 14  1  0  0  0
 14 15  2  0  0  0
 15 16  1  0  0  0
 16 17  2  0  0  0
 17 18  1  0  0  0
 18 19  2  0  0  0
 19  1  1  0  0  0
  1  2  2  0  0  0
  2  3  1  0  0  0
  3  4  1  0  0  0
  4  5  1  0  0  0
  4  6  2  0  0  0
  6  7  1  0  0  0
  7  8  1  0  0  0
  7  9  1  0  0  0
  9 10  1  0  0  0
 10 11  2  0  0  0
 10 12  1  0  0  0
 19 14  1  0  0  0
 12  1  1  0  0  0
  9  3  2  0  0  0
 12 13  1  0  0  0
M  END
> <minimizedAffinity>
-8.10180

$$$$



 22 24  0  0  0  0  0  0  0  0999 V2000
    0.7991   64.8254   84.8790 C   0  0  0  0  0  0  0  0  0  0  0  0
   -0.3155   64.1440   84.8321 N   0  0  0  0  0  0  0  0  0  0  0  0
   -0.5593   63.3660   85.9646 C   0  0  0  0  0  0  0  0  0  0  0  0
   -1.6390   62.5188   86.2593 C   0  0  0  0  0  0  0  0  0  0  0  0
   -2.8252   62.2249   85.4257 C   0  0  0  0  0  0  0  0  0  0  0  0
   -1.4810   61.9523   87.4707 N   0  0  0  0  0  0  0  0  0  0  0  0
   -0.3024   62.4546   87.9170 N   0  0  0  0  0  0  0  0  0  0  0  0
    0.2036   62.0638   89.2105 C   0  0  0  0  0  0  0  0  0  0  0  0
    0.2801   63.3094   87.0353 C   0  0  0  0  0  0  0  0  0  0  0  0
    1.4894   64.0423   87.0979 C   0  0  0  0  0  0  0  0  0  0  0  0
    2.2862   64.0356   88.0288 O   0  0  0  0  0  0  0  0  0  0  0  0
    1.6775   64.7889   85.9581 N   0  0  0  0  0  0  0  0  0  0  0  0
    2.5239   65.3421   85.9288 H   0  0  0  0  0  0  0  0  0  0  0  0
    0.9670   65.3862   82.3591 C   0  0  0  0  0  0  0  0  0  0  0  0
    1.3715   66.2924   81.3663 C   0  0  0  0  0  0  0  0  0  0  0  0
    1.9832   67.5017   81.7044 C   0  0  0  0  0  0  0  0  0  0  0  0
    2.1997   67.8235   83.0375 C   0  0  0  0  0  0  0  0  0  0  0  0
    1.8039   66.9344   84.0359 C   0  0  0  0  0  0  0  0  0  0  0  0
    1.1853   65.7094   83.7180 C   0  0  0  0  0  0  0  0  0  0  0  0
    0.3623   64.1861   82.0766 O   0  0  0  0  0  0  0  0  0  0  0  0
   -1.9303   63.5858   81.8497 C   0  0  0  0  0  0  0  0  0  0  0  0
   -0.7213   64.1746   81.1449 C   0  0  0  0  0  0  0  0  0  0  0  0
 21 22  1  0  0  0
 22 20  1  0  0  0
 20 14  1  0  0  0
 14 15  2  0  0  0
 15 16  1  0  0  0
 16 17  2  0  0  0
 17 18  1  0  0  0
 18 19  2  0  0  0
 19  1  1  0  0  0
  1  2  2  0  0  0
  2  3  1  0  0  0
  3  4  1  0  0  0
  4  5  1  0  0  0
  4  6  2  0  0  0
  6  7  1  0  0  0
  7  8  1  0  0  0
  7  9  1  0  0  0
  9 10  1  0  0  0
 10 11  2  0  0  0
 10 12  1  0  0  0
 19 14  1  0  0  0
 12  1  1  0  0  0
  9  3  2  0  0  0
 12 13  1  0  0  0
M  END
> <minimizedAffinity>
-8.00503

$$$$



 22 24  0  0  0  0  0  0  0  0999 V2000
   -0.3524   63.6525   80.9572 C   0  0  0  0  0  0  0  0  0  0  0  0
   -1.5409   63.1083   80.9630 N   0  0  0  0  0  0  0  0  0  0  0  0
   -1.8852   62.4715   79.7700 C   0  0  0  0  0  0  0  0  0  0  0  0
   -3.0614   61.7902   79.4202 C   0  0  0  0  0  0  0  0  0  0  0  0
   -4.2686   61.5660   80.2454 C   0  0  0  0  0  0  0  0  0  0  0  0
   -2.9819   61.3215   78.1602 N   0  0  0  0  0  0  0  0  0  0  0  0
   -1.7542   61.7173   77.7396 N   0  0  0  0  0  0  0  0  0  0  0  0
   -1.3084   61.3880   76.4074 C   0  0  0  0  0  0  0  0  0  0  0  0
   -1.0664   62.4123   78.6836 C   0  0  0  0  0  0  0  0  0  0  0  0
    0.2223   62.9975   78.6651 C   0  0  0  0  0  0  0  0  0  0  0  0
    1.0059   62.9801   77.7231 O   0  0  0  0  0  0  0  0  0  0  0  0
    0.5075   63.6093   79.8635 N   0  0  0  0  0  0  0  0  0  0  0  0
    1.4147   64.0521   79.9270 H   0  0  0  0  0  0  0  0  0  0  0  0
    0.8843   65.5800   82.1606 C   0  0  0  0  0  0  0  0  0  0  0  0
    1.2936   66.1574   83.3728 C   0  0  0  0  0  0  0  0  0  0  0  0
    0.9815   65.5578   84.5951 C   0  0  0  0  0  0  0  0  0  0  0  0
    0.2567   64.3739   84.6247 C   0  0  0  0  0  0  0  0  0  0  0  0
   -0.1573   63.7874   83.4295 C   0  0  0  0  0  0  0  0  0  0  0  0
    0.1462   64.3745   82.1855 C   0  0  0  0  0  0  0  0  0  0  0  0
    1.1668   66.1314   80.9351 O   0  0  0  0  0  0  0  0  0  0  0  0
   -0.7199   67.3695   80.1765 C   0  0  0  0  0  0  0  0  0  0  0  0
    0.7138   67.4602   80.6678 C   0  0  0  0  0  0  0  0  0  0  0  0
 21 22  1  0  0  0
 22 20  1  0  0  0
 20 14  1  0  0  0
 14 15  2  0  0  0
 15 16  1  0  0  0
 16 17  2  0  0  0
 17 18  1  0  0  0
 18 19  2  0  0  0
 19  1  1  0  0  0
  1  2  2  0  0  0
  2  3  1  0  0  0
  3  4  1  0  0  0
  4  5  1  0  0  0
  4  6  2  0  0  0
  6  7  1  0  0  0
  7  8  1  0  0  0
  7  9  1  0  0  0
  9 10  1  0  0  0
 10 11  2  0  0  0
 10 12  1  0  0  0
 19 14  1  0  0  0
 12  1  1  0  0  0
  9  3  2  0  0  0
 12 13  1  0  0  0
M  END
> <minimizedAffinity>
-7.92761

$$$$



 22 24  0  0  0  0  0  0  0  0999 V2000
    0.0431   64.1820   82.8896 C   0  0  0  0  0  0  0  0  0  0  0  0
   -0.6866   63.9340   83.9455 N   0  0  0  0  0  0  0  0  0  0  0  0
   -1.4812   62.7920   83.8375 C   0  0  0  0  0  0  0  0  0  0  0  0
   -2.3769   62.2281   84.7594 C   0  0  0  0  0  0  0  0  0  0  0  0
   -2.7180   62.7102   86.1157 C   0  0  0  0  0  0  0  0  0  0  0  0
   -2.9430   61.1164   84.2523 N   0  0  0  0  0  0  0  0  0  0  0  0
   -2.3918   61.0010   83.0179 N   0  0  0  0  0  0  0  0  0  0  0  0
   -2.7675   59.9026   82.1611 C   0  0  0  0  0  0  0  0  0  0  0  0
   -1.5070   61.9932   82.7350 C   0  0  0  0  0  0  0  0  0  0  0  0
   -0.7218   62.2511   81.5859 C   0  0  0  0  0  0  0  0  0  0  0  0
   -0.6988   61.5741   80.5647 O   0  0  0  0  0  0  0  0  0  0  0  0
    0.0390   63.3853   81.7482 N   0  0  0  0  0  0  0  0  0  0  0  0
    0.6291   63.6354   80.9657 H   0  0  0  0  0  0  0  0  0  0  0  0
    1.1613   66.2151   81.7458 C   0  0  0  0  0  0  0  0  0  0  0  0
    2.0310   67.3116   81.8543 C   0  0  0  0  0  0  0  0  0  0  0  0
    2.6854   67.5927   83.0557 C   0  0  0  0  0  0  0  0  0  0  0  0
    2.4811   66.7838   84.1655 C   0  0  0  0  0  0  0  0  0  0  0  0
    1.6204   65.6907   84.0745 C   0  0  0  0  0  0  0  0  0  0  0  0
    0.9500   65.3884   82.8731 C   0  0  0  0  0  0  0  0  0  0  0  0
    0.4958   65.8985   80.5871 O   0  0  0  0  0  0  0  0  0  0  0  0
    0.9292   64.7149   78.5674 C   0  0  0  0  0  0  0  0  0  0  0  0
    1.2066   65.9858   79.3505 C   0  0  0  0  0  0  0  0  0  0  0  0
 21 22  1  0  0  0
 22 20  1  0  0  0
 20 14  1  0  0  0
 14 15  2  0  0  0
 15 16  1  0  0  0
 16 17  2  0  0  0
 17 18  1  0  0  0
 18 19  2  0  0  0
 19  1  1  0  0  0
  1  2  2  0  0  0
  2  3  1  0  0  0
  3  4  1  0  0  0
  4  5  1  0  0  0
  4  6  2  0  0  0
  6  7  1  0  0  0
  7  8  1  0  0  0
  7  9  1  0  0  0
  9 10  1  0  0  0
 10 11  2  0  0  0
 10 12  1  0  0  0
 19 14  1  0  0  0
 12  1  1  0  0  0
  9  3  2  0  0  0
 12 13  1  0  0  0
M  END
> <minimizedAffinity>
-7.92486

$$$$



 22 24  0  0  0  0  0  0  0  0999 V2000
   -1.5436   62.4322   83.6497 C   0  0  0  0  0  0  0  0  0  0  0  0
   -0.6087   63.3215   83.8595 N   0  0  0  0  0  0  0  0  0  0  0  0
   -0.3878   63.6135   85.2060 C   0  0  0  0  0  0  0  0  0  0  0  0
    0.5227   64.5039   85.7964 C   0  0  0  0  0  0  0  0  0  0  0  0
    1.5065   65.3834   85.1277 C   0  0  0  0  0  0  0  0  0  0  0  0
    0.4075   64.4808   87.1379 N   0  0  0  0  0  0  0  0  0  0  0  0
   -0.5754   63.5742   87.3675 N   0  0  0  0  0  0  0  0  0  0  0  0
   -0.9816   63.2791   88.7202 C   0  0  0  0  0  0  0  0  0  0  0  0
   -1.0770   63.0322   86.2264 C   0  0  0  0  0  0  0  0  0  0  0  0
   -2.0912   62.0683   86.0121 C   0  0  0  0  0  0  0  0  0  0  0  0
   -2.7467   61.5092   86.8834 O   0  0  0  0  0  0  0  0  0  0  0  0
   -2.2654   61.8203   84.6705 N   0  0  0  0  0  0  0  0  0  0  0  0
   -2.9763   61.1396   84.4372 H   0  0  0  0  0  0  0  0  0  0  0  0
   -1.0655   61.2114   81.4195 C   0  0  0  0  0  0  0  0  0  0  0  0
   -1.4917   60.8990   80.1191 C   0  0  0  0  0  0  0  0  0  0  0  0
   -2.7079   61.3787   79.6276 C   0  0  0  0  0  0  0  0  0  0  0  0
   -3.5156   62.1766   80.4267 C   0  0  0  0  0  0  0  0  0  0  0  0
   -3.1068   62.4962   81.7209 C   0  0  0  0  0  0  0  0  0  0  0  0
   -1.8844   62.0236   82.2371 C   0  0  0  0  0  0  0  0  0  0  0  0
    0.1209   60.7640   81.9468 O   0  0  0  0  0  0  0  0  0  0  0  0
    2.4792   60.4405   81.9046 C   0  0  0  0  0  0  0  0  0  0  0  0
    1.3374   61.3405   81.4671 C   0  0  0  0  0  0  0  0  0  0  0  0
 21 22  1  0  0  0
 22 20  1  0  0  0
 20 14  1  0  0  0
 14 15  2  0  0  0
 15 16  1  0  0  0
 16 17  2  0  0  0
 17 18  1  0  0  0
 18 19  2  0  0  0
 19  1  1  0  0  0
  1  2  2  0  0  0
  2  3  1  0  0  0
  3  4  1  0  0  0
  4  5  1  0  0  0
  4  6  2  0  0  0
  6  7  1  0  0  0
  7  8  1  0  0  0
  7  9  1  0  0  0
  9 10  1  0  0  0
 10 11  2  0  0  0
 10 12  1  0  0  0
 19 14  1  0  0  0
 12  1  1  0  0  0
  9  3  2  0  0  0
 12 13  1  0  0  0
M  END
> <minimizedAffinity>
-7.91490

$$$$
