


 42 46  0  0  0  0  0  0  0  0999 V2000
   -0.2143   63.5400   84.8007 C   0  0  0  0  0  0  0  0  0  0  0  0
    0.4921   64.4507   85.5991 C   0  0  0  0  0  0  0  0  0  0  0  0
    1.3032   65.4328   85.0235 C   0  0  0  0  0  0  0  0  0  0  0  0
    1.4267   65.5284   83.6370 C   0  0  0  0  0  0  0  0  0  0  0  0
    0.7188   64.6240   82.8350 C   0  0  0  0  0  0  0  0  0  0  0  0
   -0.1090   63.6306   83.3956 C   0  0  0  0  0  0  0  0  0  0  0  0
   -0.8280   62.7235   82.4282 C   0  0  0  0  0  0  0  0  0  0  0  0
   -0.8054   62.9922   81.1493 N   0  0  0  0  0  0  0  0  0  0  0  0
   -1.5093   62.0817   80.3606 C   0  0  0  0  0  0  0  0  0  0  0  0
   -1.6978   62.0523   78.9691 C   0  0  0  0  0  0  0  0  0  0  0  0
   -2.4464   60.9900   78.6142 N   0  0  0  0  0  0  0  0  0  0  0  0
   -2.7173   60.3716   79.7910 N   0  0  0  0  0  0  0  0  0  0  0  0
   -3.5059   59.1635   79.8051 C   0  0  0  0  0  0  0  0  0  0  0  0
   -2.1684   61.0014   80.8630 C   0  0  0  0  0  0  0  0  0  0  0  0
   -2.1971   60.6982   82.2452 C   0  0  0  0  0  0  0  0  0  0  0  0
   -2.7607   59.7391   82.7589 O   0  0  0  0  0  0  0  0  0  0  0  0
   -1.4960   61.6311   82.9733 N   0  0  0  0  0  0  0  0  0  0  0  0
   -1.4597   61.4728   83.9717 H   0  0  0  0  0  0  0  0  0  0  0  0
   -1.1875   63.0053   77.9466 C   0  0  0  0  0  0  0  0  0  0  0  0
    0.2994   62.8252   77.6810 C   0  0  0  0  0  0  0  0  0  0  0  0
   -1.0261   62.5627   85.3205 O   0  0  0  0  0  0  0  0  0  0  0  0
   -2.7607   62.9498   86.9054 C   0  0  0  0  0  0  0  0  0  0  0  0
   -1.2969   62.5877   86.7241 C   0  0  0  0  0  0  0  0  0  0  0  0
    2.2943   66.5948   83.0115 C   0  0  0  0  0  0  0  0  0  0  0  0
    1.5693   67.9402   82.8171 C   0  0  0  0  0  0  0  0  0  0  0  0
    0.8992   68.0436   81.4363 C   0  0  0  0  0  0  0  0  0  0  0  0
    0.2554   69.4152   81.2298 C   0  0  0  0  0  0  0  0  0  0  0  0
    1.2612   70.4705   81.4200 N   0  0  0  0  0  0  0  0  0  0  0  0
    1.8945   70.4558   82.7503 C   0  0  0  0  0  0  0  0  0  0  0  0
    2.5630   69.1012   82.9879 C   0  0  0  0  0  0  0  0  0  0  0  0
    0.9307   71.7642   80.9810 C   0  0  0  0  0  0  0  0  0  0  0  0
   -0.4244   72.1116   80.8385 C   0  0  0  0  0  0  0  0  0  0  0  0
   -0.8222   73.3852   80.4127 C   0  0  0  0  0  0  0  0  0  0  0  0
    0.1415   74.3499   80.1111 C   0  0  0  0  0  0  0  0  0  0  0  0
    1.4937   74.0328   80.2700 C   0  0  0  0  0  0  0  0  0  0  0  0
    1.8797   72.7561   80.6993 C   0  0  0  0  0  0  0  0  0  0  0  0
   -0.2170   75.7180   79.6485 C   0  0  0  0  0  0  0  0  0  0  0  0
    0.6451   76.5534   79.3867 O   0  0  0  0  0  0  0  0  0  0  0  0
   -1.5591   75.9835   79.4713 N   0  0  0  0  0  0  0  0  0  0  0  0
   -1.8321   77.2150   78.8236 O   0  0  0  0  0  0  0  0  0  0  0  0
   -2.2304   75.2431   79.3015 H   0  0  0  0  0  0  0  0  0  0  0  0
   -0.9345   77.6075   78.7367 H   0  0  0  0  0  0  0  0  0  0  0  0
 22 23  1  0  0  0
 23 21  1  0  0  0
 21  1  1  0  0  0
  1  2  1  0  0  0
  2  3  2  0  0  0
  3  4  1  0  0  0
  4 24  1  0  0  0
 24 25  1  0  0  0
 25 26  1  0  0  0
 26 27  1  0  0  0
 27 28  1  0  0  0
 28 31  1  0  0  0
 31 32  1  0  0  0
 32 33  2  0  0  0
 33 34  1  0  0  0
 34 37  1  0  0  0
 37 38  2  0  0  0
 37 39  1  0  0  0
 39 40  1  0  0  0
 34 35  2  0  0  0
 35 36  1  0  0  0
 28 29  1  0  0  0
 29 30  1  0  0  0
  4  5  2  0  0  0
  5  6  1  0  0  0
  6  7  1  0  0  0
  7  8  2  0  0  0
  8  9  1  0  0  0
  9 10  1  0  0  0
 10 19  1  0  0  0
 19 20  1  0  0  0
 10 11  2  0  0  0
 11 12  1  0  0  0
 12 13  1  0  0  0
 12 14  1  0  0  0
 14 15  1  0  0  0
 15 16  2  0  0  0
 15 17  1  0  0  0
  6  1  2  0  0  0
 17  7  1  0  0  0
 30 25  1  0  0  0
 14  9  2  0  0  0
 36 31  2  0  0  0
 39 41  1  0  0  0
 40 42  1  0  0  0
 17 18  1  0  0  0
M  END
> <minimizedAffinity>
-10.64213

$$$$



 42 46  0  0  0  0  0  0  0  0999 V2000
    0.1186   63.9381   84.3919 C   0  0  0  0  0  0  0  0  0  0  0  0
    0.7747   64.9607   85.0918 C   0  0  0  0  0  0  0  0  0  0  0  0
    1.4128   66.0021   84.4121 C   0  0  0  0  0  0  0  0  0  0  0  0
    1.4095   66.0466   83.0176 C   0  0  0  0  0  0  0  0  0  0  0  0
    0.7509   65.0300   82.3140 C   0  0  0  0  0  0  0  0  0  0  0  0
    0.0965   63.9747   82.9807 C   0  0  0  0  0  0  0  0  0  0  0  0
   -0.5864   62.9464   82.1135 C   0  0  0  0  0  0  0  0  0  0  0  0
   -0.2211   62.8050   80.8666 N   0  0  0  0  0  0  0  0  0  0  0  0
   -0.9297   61.8255   80.1700 C   0  0  0  0  0  0  0  0  0  0  0  0
   -0.8100   61.4046   78.8354 C   0  0  0  0  0  0  0  0  0  0  0  0
   -1.6918   60.4223   78.5670 N   0  0  0  0  0  0  0  0  0  0  0  0
   -2.3524   60.2450   79.7387 N   0  0  0  0  0  0  0  0  0  0  0  0
   -3.3875   59.2448   79.8380 C   0  0  0  0  0  0  0  0  0  0  0  0
   -1.9190   61.0729   80.7256 C   0  0  0  0  0  0  0  0  0  0  0  0
   -2.3209   61.2144   82.0752 C   0  0  0  0  0  0  0  0  0  0  0  0
   -3.1936   60.5632   82.6372 O   0  0  0  0  0  0  0  0  0  0  0  0
   -1.5964   62.1969   82.7092 N   0  0  0  0  0  0  0  0  0  0  0  0
   -1.8183   62.3467   83.6846 H   0  0  0  0  0  0  0  0  0  0  0  0
    0.1224   61.9037   77.7887 C   0  0  0  0  0  0  0  0  0  0  0  0
   -0.3107   63.2479   77.2234 C   0  0  0  0  0  0  0  0  0  0  0  0
   -0.5253   62.8988   85.0160 O   0  0  0  0  0  0  0  0  0  0  0  0
   -2.5947   62.7730   86.1874 C   0  0  0  0  0  0  0  0  0  0  0  0
   -1.1259   63.1456   86.2897 C   0  0  0  0  0  0  0  0  0  0  0  0
    2.0893   67.1759   82.2802 C   0  0  0  0  0  0  0  0  0  0  0  0
    1.3810   68.5336   82.4486 C   0  0  0  0  0  0  0  0  0  0  0  0
    0.5055   68.8855   81.2337 C   0  0  0  0  0  0  0  0  0  0  0  0
   -0.1239   70.2712   81.3821 C   0  0  0  0  0  0  0  0  0  0  0  0
    0.9285   71.2753   81.5957 N   0  0  0  0  0  0  0  0  0  0  0  0
    1.7622   71.0197   82.7835 C   0  0  0  0  0  0  0  0  0  0  0  0
    2.4213   69.6451   82.6643 C   0  0  0  0  0  0  0  0  0  0  0  0
    0.5696   72.6270   81.4546 C   0  0  0  0  0  0  0  0  0  0  0  0
    1.1726   73.5844   82.2895 C   0  0  0  0  0  0  0  0  0  0  0  0
    0.8655   74.9477   82.1961 C   0  0  0  0  0  0  0  0  0  0  0  0
   -0.0687   75.3871   81.2556 C   0  0  0  0  0  0  0  0  0  0  0  0
   -0.6612   74.4545   80.3992 C   0  0  0  0  0  0  0  0  0  0  0  0
   -0.3442   73.0934   80.5000 C   0  0  0  0  0  0  0  0  0  0  0  0
   -0.4419   76.8203   81.1116 C   0  0  0  0  0  0  0  0  0  0  0  0
    0.2119   77.5861   80.4074 O   0  0  0  0  0  0  0  0  0  0  0  0
   -1.5886   77.2331   81.7581 N   0  0  0  0  0  0  0  0  0  0  0  0
   -2.0183   78.5393   81.4120 O   0  0  0  0  0  0  0  0  0  0  0  0
   -2.3259   76.5817   82.0023 H   0  0  0  0  0  0  0  0  0  0  0  0
   -1.2940   78.8467   80.8219 H   0  0  0  0  0  0  0  0  0  0  0  0
 22 23  1  0  0  0
 23 21  1  0  0  0
 21  1  1  0  0  0
  1  2  1  0  0  0
  2  3  2  0  0  0
  3  4  1  0  0  0
  4 24  1  0  0  0
 24 25  1  0  0  0
 25 26  1  0  0  0
 26 27  1  0  0  0
 27 28  1  0  0  0
 28 31  1  0  0  0
 31 32  1  0  0  0
 32 33  2  0  0  0
 33 34  1  0  0  0
 34 37  1  0  0  0
 37 38  2  0  0  0
 37 39  1  0  0  0
 39 40  1  0  0  0
 34 35  2  0  0  0
 35 36  1  0  0  0
 28 29  1  0  0  0
 29 30  1  0  0  0
  4  5  2  0  0  0
  5  6  1  0  0  0
  6  7  1  0  0  0
  7  8  2  0  0  0
  8  9  1  0  0  0
  9 10  1  0  0  0
 10 19  1  0  0  0
 19 20  1  0  0  0
 10 11  2  0  0  0
 11 12  1  0  0  0
 12 13  1  0  0  0
 12 14  1  0  0  0
 14 15  1  0  0  0
 15 16  2  0  0  0
 15 17  1  0  0  0
  6  1  2  0  0  0
 17  7  1  0  0  0
 30 25  1  0  0  0
 14  9  2  0  0  0
 36 31  2  0  0  0
 39 41  1  0  0  0
 40 42  1  0  0  0
 17 18  1  0  0  0
M  END
> <minimizedAffinity>
-10.53631

$$$$



 42 46  0  0  0  0  0  0  0  0999 V2000
    0.7984   71.7563   81.5418 C   0  0  0  0  0  0  0  0  0  0  0  0
   -0.1855   70.7602   81.4671 C   0  0  0  0  0  0  0  0  0  0  0  0
    0.0943   69.5148   80.8974 C   0  0  0  0  0  0  0  0  0  0  0  0
    1.3636   69.2355   80.3899 C   0  0  0  0  0  0  0  0  0  0  0  0
    2.3514   70.2257   80.4670 C   0  0  0  0  0  0  0  0  0  0  0  0
    2.0912   71.4855   81.0431 C   0  0  0  0  0  0  0  0  0  0  0  0
    3.2388   72.4639   81.0779 C   0  0  0  0  0  0  0  0  0  0  0  0
    4.0825   72.5086   80.0806 N   0  0  0  0  0  0  0  0  0  0  0  0
    5.0999   73.4511   80.2333 C   0  0  0  0  0  0  0  0  0  0  0  0
    6.1653   73.7735   79.3768 C   0  0  0  0  0  0  0  0  0  0  0  0
    6.9219   74.7528   79.9089 N   0  0  0  0  0  0  0  0  0  0  0  0
    6.3190   75.0269   81.0929 N   0  0  0  0  0  0  0  0  0  0  0  0
    6.8547   76.0534   81.9536 C   0  0  0  0  0  0  0  0  0  0  0  0
    5.2187   74.2621   81.3205 C   0  0  0  0  0  0  0  0  0  0  0  0
    4.3097   74.2254   82.4047 C   0  0  0  0  0  0  0  0  0  0  0  0
    4.3541   74.9332   83.4039 O   0  0  0  0  0  0  0  0  0  0  0  0
    3.3355   73.2752   82.2045 N   0  0  0  0  0  0  0  0  0  0  0  0
    2.6384   73.1997   82.9336 H   0  0  0  0  0  0  0  0  0  0  0  0
    6.4990   73.1816   78.0530 C   0  0  0  0  0  0  0  0  0  0  0  0
    7.5465   72.0838   78.1592 C   0  0  0  0  0  0  0  0  0  0  0  0
    0.5714   72.9914   82.0964 O   0  0  0  0  0  0  0  0  0  0  0  0
   -0.0531   74.2311   80.1616 C   0  0  0  0  0  0  0  0  0  0  0  0
   -0.4802   73.7919   81.5513 C   0  0  0  0  0  0  0  0  0  0  0  0
    1.6722   67.8874   79.7829 C   0  0  0  0  0  0  0  0  0  0  0  0
    1.6987   66.7418   80.8126 C   0  0  0  0  0  0  0  0  0  0  0  0
    0.3785   65.9525   80.8359 C   0  0  0  0  0  0  0  0  0  0  0  0
    0.3927   64.8733   81.9191 C   0  0  0  0  0  0  0  0  0  0  0  0
    0.6775   65.4838   83.2259 N   0  0  0  0  0  0  0  0  0  0  0  0
    1.9617   66.2044   83.2785 C   0  0  0  0  0  0  0  0  0  0  0  0
    1.9793   67.3040   82.2160 C   0  0  0  0  0  0  0  0  0  0  0  0
    0.4362   64.7033   84.3697 C   0  0  0  0  0  0  0  0  0  0  0  0
    0.9859   65.1059   85.5997 C   0  0  0  0  0  0  0  0  0  0  0  0
    0.7780   64.3780   86.7781 C   0  0  0  0  0  0  0  0  0  0  0  0
    0.0093   63.2125   86.7489 C   0  0  0  0  0  0  0  0  0  0  0  0
   -0.5669   62.8083   85.5411 C   0  0  0  0  0  0  0  0  0  0  0  0
   -0.3543   63.5461   84.3690 C   0  0  0  0  0  0  0  0  0  0  0  0
   -0.2428   62.3927   87.9649 C   0  0  0  0  0  0  0  0  0  0  0  0
   -0.9040   61.3583   87.9158 O   0  0  0  0  0  0  0  0  0  0  0  0
    0.3499   62.8175   89.1360 N   0  0  0  0  0  0  0  0  0  0  0  0
    0.2635   61.8909   90.2058 O   0  0  0  0  0  0  0  0  0  0  0  0
    1.1772   63.4033   89.1319 H   0  0  0  0  0  0  0  0  0  0  0  0
   -0.2971   61.1805   89.8207 H   0  0  0  0  0  0  0  0  0  0  0  0
 22 23  1  0  0  0
 23 21  1  0  0  0
 21  1  1  0  0  0
  1  2  1  0  0  0
  2  3  2  0  0  0
  3  4  1  0  0  0
  4 24  1  0  0  0
 24 25  1  0  0  0
 25 26  1  0  0  0
 26 27  1  0  0  0
 27 28  1  0  0  0
 28 31  1  0  0  0
 31 32  1  0  0  0
 32 33  2  0  0  0
 33 34  1  0  0  0
 34 37  1  0  0  0
 37 38  2  0  0  0
 37 39  1  0  0  0
 39 40  1  0  0  0
 34 35  2  0  0  0
 35 36  1  0  0  0
 28 29  1  0  0  0
 29 30  1  0  0  0
  4  5  2  0  0  0
  5  6  1  0  0  0
  6  7  1  0  0  0
  7  8  2  0  0  0
  8  9  1  0  0  0
  9 10  1  0  0  0
 10 19  1  0  0  0
 19 20  1  0  0  0
 10 11  2  0  0  0
 11 12  1  0  0  0
 12 13  1  0  0  0
 12 14  1  0  0  0
 14 15  1  0  0  0
 15 16  2  0  0  0
 15 17  1  0  0  0
  6  1  2  0  0  0
 17  7  1  0  0  0
 30 25  1  0  0  0
 14  9  2  0  0  0
 36 31  2  0  0  0
 39 41  1  0  0  0
 40 42  1  0  0  0
 17 18  1  0  0  0
M  END
> <minimizedAffinity>
-10.52885

$$$$



 42 46  0  0  0  0  0  0  0  0999 V2000
    1.3521   72.0418   81.1218 C   0  0  0  0  0  0  0  0  0  0  0  0
    0.3280   71.1442   81.4555 C   0  0  0  0  0  0  0  0  0  0  0  0
    0.6170   69.8230   81.8087 C   0  0  0  0  0  0  0  0  0  0  0  0
    1.9357   69.3683   81.8375 C   0  0  0  0  0  0  0  0  0  0  0  0
    2.9628   70.2628   81.5099 C   0  0  0  0  0  0  0  0  0  0  0  0
    2.6928   71.6004   81.1571 C   0  0  0  0  0  0  0  0  0  0  0  0
    3.8834   72.4692   80.8361 C   0  0  0  0  0  0  0  0  0  0  0  0
    4.7678   72.0602   79.9651 N   0  0  0  0  0  0  0  0  0  0  0  0
    5.8220   72.9505   79.7584 C   0  0  0  0  0  0  0  0  0  0  0  0
    6.9353   72.8469   78.9084 C   0  0  0  0  0  0  0  0  0  0  0  0
    7.7156   73.9399   79.0135 N   0  0  0  0  0  0  0  0  0  0  0  0
    7.0791   74.7107   79.9308 N   0  0  0  0  0  0  0  0  0  0  0  0
    7.6280   75.9929   80.2999 C   0  0  0  0  0  0  0  0  0  0  0  0
    5.9353   74.1460   80.4001 C   0  0  0  0  0  0  0  0  0  0  0  0
    4.9826   74.6012   81.3425 C   0  0  0  0  0  0  0  0  0  0  0  0
    5.0203   75.6677   81.9447 O   0  0  0  0  0  0  0  0  0  0  0  0
    3.9731   73.6824   81.5121 N   0  0  0  0  0  0  0  0  0  0  0  0
    3.2443   73.9449   82.1627 H   0  0  0  0  0  0  0  0  0  0  0  0
    7.2935   71.7362   77.9853 C   0  0  0  0  0  0  0  0  0  0  0  0
    6.2828   71.5720   76.8604 C   0  0  0  0  0  0  0  0  0  0  0  0
    1.1169   73.3487   80.7738 O   0  0  0  0  0  0  0  0  0  0  0  0
    0.7946   75.1474   82.3006 C   0  0  0  0  0  0  0  0  0  0  0  0
    0.1062   74.0648   81.4877 C   0  0  0  0  0  0  0  0  0  0  0  0
    2.2523   67.9442   82.2285 C   0  0  0  0  0  0  0  0  0  0  0  0
    1.1248   66.9498   81.8915 C   0  0  0  0  0  0  0  0  0  0  0  0
    1.1141   65.7411   82.8431 C   0  0  0  0  0  0  0  0  0  0  0  0
    0.0424   64.7261   82.4438 C   0  0  0  0  0  0  0  0  0  0  0  0
    0.2462   64.3104   81.0484 N   0  0  0  0  0  0  0  0  0  0  0  0
    0.2064   65.4239   80.0842 C   0  0  0  0  0  0  0  0  0  0  0  0
    1.2767   66.4552   80.4436 C   0  0  0  0  0  0  0  0  0  0  0  0
   -0.4499   63.1724   80.6054 C   0  0  0  0  0  0  0  0  0  0  0  0
   -1.8096   63.0322   80.9353 C   0  0  0  0  0  0  0  0  0  0  0  0
   -2.5629   61.9270   80.5196 C   0  0  0  0  0  0  0  0  0  0  0  0
   -1.9613   60.9220   79.7590 C   0  0  0  0  0  0  0  0  0  0  0  0
   -0.6170   61.0544   79.3992 C   0  0  0  0  0  0  0  0  0  0  0  0
    0.1260   62.1659   79.8186 C   0  0  0  0  0  0  0  0  0  0  0  0
   -2.7059   59.7211   79.2926 C   0  0  0  0  0  0  0  0  0  0  0  0
   -2.3613   59.1021   78.2886 O   0  0  0  0  0  0  0  0  0  0  0  0
   -3.7636   59.3023   80.0730 N   0  0  0  0  0  0  0  0  0  0  0  0
   -4.2949   58.0387   79.7105 O   0  0  0  0  0  0  0  0  0  0  0  0
   -3.8229   59.5341   81.0581 H   0  0  0  0  0  0  0  0  0  0  0  0
   -3.7805   57.8216   78.9008 H   0  0  0  0  0  0  0  0  0  0  0  0
 22 23  1  0  0  0
 23 21  1  0  0  0
 21  1  1  0  0  0
  1  2  1  0  0  0
  2  3  2  0  0  0
  3  4  1  0  0  0
  4 24  1  0  0  0
 24 25  1  0  0  0
 25 26  1  0  0  0
 26 27  1  0  0  0
 27 28  1  0  0  0
 28 31  1  0  0  0
 31 32  1  0  0  0
 32 33  2  0  0  0
 33 34  1  0  0  0
 34 37  1  0  0  0
 37 38  2  0  0  0
 37 39  1  0  0  0
 39 40  1  0  0  0
 34 35  2  0  0  0
 35 36  1  0  0  0
 28 29  1  0  0  0
 29 30  1  0  0  0
  4  5  2  0  0  0
  5  6  1  0  0  0
  6  7  1  0  0  0
  7  8  2  0  0  0
  8  9  1  0  0  0
  9 10  1  0  0  0
 10 19  1  0  0  0
 19 20  1  0  0  0
 10 11  2  0  0  0
 11 12  1  0  0  0
 12 13  1  0  0  0
 12 14  1  0  0  0
 14 15  1  0  0  0
 15 16  2  0  0  0
 15 17  1  0  0  0
  6  1  2  0  0  0
 17  7  1  0  0  0
 30 25  1  0  0  0
 14  9  2  0  0  0
 36 31  2  0  0  0
 39 41  1  0  0  0
 40 42  1  0  0  0
 17 18  1  0  0  0
M  END
> <minimizedAffinity>
-10.42796

$$$$



 42 46  0  0  0  0  0  0  0  0999 V2000
    0.8264   72.2740   81.7916 C   0  0  0  0  0  0  0  0  0  0  0  0
   -0.0749   71.2133   81.6234 C   0  0  0  0  0  0  0  0  0  0  0  0
    0.3776   69.8948   81.5209 C   0  0  0  0  0  0  0  0  0  0  0  0
    1.7410   69.6054   81.5851 C   0  0  0  0  0  0  0  0  0  0  0  0
    2.6451   70.6612   81.7584 C   0  0  0  0  0  0  0  0  0  0  0  0
    2.2086   71.9967   81.8699 C   0  0  0  0  0  0  0  0  0  0  0  0
    3.2769   73.0438   82.0648 C   0  0  0  0  0  0  0  0  0  0  0  0
    4.2167   73.1854   81.1677 N   0  0  0  0  0  0  0  0  0  0  0  0
    5.1456   74.1833   81.4642 C   0  0  0  0  0  0  0  0  0  0  0  0
    6.2716   74.6098   80.7410 C   0  0  0  0  0  0  0  0  0  0  0  0
    6.8990   75.6113   81.3875 N   0  0  0  0  0  0  0  0  0  0  0  0
    6.1564   75.7948   82.5080 N   0  0  0  0  0  0  0  0  0  0  0  0
    6.5266   76.8151   83.4586 C   0  0  0  0  0  0  0  0  0  0  0  0
    5.0928   74.9523   82.5866 C   0  0  0  0  0  0  0  0  0  0  0  0
    4.0784   74.8108   83.5633 C   0  0  0  0  0  0  0  0  0  0  0  0
    3.9681   75.4760   84.5864 O   0  0  0  0  0  0  0  0  0  0  0  0
    3.1978   73.8100   83.2240 N   0  0  0  0  0  0  0  0  0  0  0  0
    2.4340   73.6587   83.8697 H   0  0  0  0  0  0  0  0  0  0  0  0
    6.7834   74.0983   79.4409 C   0  0  0  0  0  0  0  0  0  0  0  0
    7.4149   72.7206   79.5710 C   0  0  0  0  0  0  0  0  0  0  0  0
    0.4285   73.5832   81.9018 O   0  0  0  0  0  0  0  0  0  0  0  0
    0.6501   74.5501   79.7371 C   0  0  0  0  0  0  0  0  0  0  0  0
   -0.3271   74.1505   80.8288 C   0  0  0  0  0  0  0  0  0  0  0  0
    2.2327   68.1808   81.4850 C   0  0  0  0  0  0  0  0  0  0  0  0
    1.1221   67.1707   81.1387 C   0  0  0  0  0  0  0  0  0  0  0  0
    0.9059   66.1397   82.2597 C   0  0  0  0  0  0  0  0  0  0  0  0
   -0.1411   65.0975   81.8649 C   0  0  0  0  0  0  0  0  0  0  0  0
    0.2529   64.4487   80.6059 N   0  0  0  0  0  0  0  0  0  0  0  0
    0.4165   65.3849   79.4799 C   0  0  0  0  0  0  0  0  0  0  0  0
    1.4690   66.4365   79.8330 C   0  0  0  0  0  0  0  0  0  0  0  0
   -0.4227   63.2691   80.2483 C   0  0  0  0  0  0  0  0  0  0  0  0
   -1.6758   62.9980   80.8259 C   0  0  0  0  0  0  0  0  0  0  0  0
   -2.4047   61.8451   80.5077 C   0  0  0  0  0  0  0  0  0  0  0  0
   -1.8850   60.9236   79.5961 C   0  0  0  0  0  0  0  0  0  0  0  0
   -0.6522   61.1865   78.9917 C   0  0  0  0  0  0  0  0  0  0  0  0
    0.0668   62.3446   79.3158 C   0  0  0  0  0  0  0  0  0  0  0  0
   -2.6077   59.6778   79.2217 C   0  0  0  0  0  0  0  0  0  0  0  0
   -2.2038   58.9482   78.3193 O   0  0  0  0  0  0  0  0  0  0  0  0
   -3.7171   59.3516   79.9740 N   0  0  0  0  0  0  0  0  0  0  0  0
   -4.2341   58.0553   79.7236 O   0  0  0  0  0  0  0  0  0  0  0  0
   -3.8381   59.6943   80.9203 H   0  0  0  0  0  0  0  0  0  0  0  0
   -3.6702   57.7469   78.9792 H   0  0  0  0  0  0  0  0  0  0  0  0
 22 23  1  0  0  0
 23 21  1  0  0  0
 21  1  1  0  0  0
  1  2  1  0  0  0
  2  3  2  0  0  0
  3  4  1  0  0  0
  4 24  1  0  0  0
 24 25  1  0  0  0
 25 26  1  0  0  0
 26 27  1  0  0  0
 27 28  1  0  0  0
 28 31  1  0  0  0
 31 32  1  0  0  0
 32 33  2  0  0  0
 33 34  1  0  0  0
 34 37  1  0  0  0
 37 38  2  0  0  0
 37 39  1  0  0  0
 39 40  1  0  0  0
 34 35  2  0  0  0
 35 36  1  0  0  0
 28 29  1  0  0  0
 29 30  1  0  0  0
  4  5  2  0  0  0
  5  6  1  0  0  0
  6  7  1  0  0  0
  7  8  2  0  0  0
  8  9  1  0  0  0
  9 10  1  0  0  0
 10 19  1  0  0  0
 19 20  1  0  0  0
 10 11  2  0  0  0
 11 12  1  0  0  0
 12 13  1  0  0  0
 12 14  1  0  0  0
 14 15  1  0  0  0
 15 16  2  0  0  0
 15 17  1  0  0  0
  6  1  2  0  0  0
 17  7  1  0  0  0
 30 25  1  0  0  0
 14  9  2  0  0  0
 36 31  2  0  0  0
 39 41  1  0  0  0
 40 42  1  0  0  0
 17 18  1  0  0  0
M  END
> <minimizedAffinity>
-10.26143

$$$$



 42 46  0  0  0  0  0  0  0  0999 V2000
    1.9105   71.8515   80.8566 C   0  0  0  0  0  0  0  0  0  0  0  0
    0.8331   71.1907   81.4636 C   0  0  0  0  0  0  0  0  0  0  0  0
    0.9801   69.9003   81.9804 C   0  0  0  0  0  0  0  0  0  0  0  0
    2.2071   69.2405   81.9034 C   0  0  0  0  0  0  0  0  0  0  0  0
    3.2879   69.8985   81.3025 C   0  0  0  0  0  0  0  0  0  0  0  0
    3.1618   71.2018   80.7810 C   0  0  0  0  0  0  0  0  0  0  0  0
    4.3998   71.8084   80.1685 C   0  0  0  0  0  0  0  0  0  0  0  0
    4.9006   72.9058   80.6718 N   0  0  0  0  0  0  0  0  0  0  0  0
    6.0419   73.3678   80.0156 C   0  0  0  0  0  0  0  0  0  0  0  0
    6.8357   74.4969   80.2758 C   0  0  0  0  0  0  0  0  0  0  0  0
    7.8542   74.5731   79.3974 N   0  0  0  0  0  0  0  0  0  0  0  0
    7.6804   73.4904   78.5985 N   0  0  0  0  0  0  0  0  0  0  0  0
    8.6082   73.2312   77.5244 C   0  0  0  0  0  0  0  0  0  0  0  0
    6.5990   72.7422   78.9424 C   0  0  0  0  0  0  0  0  0  0  0  0
    6.0681   71.5520   78.3906 C   0  0  0  0  0  0  0  0  0  0  0  0
    6.5264   70.9357   77.4358 O   0  0  0  0  0  0  0  0  0  0  0  0
    4.9423   71.1482   79.0700 N   0  0  0  0  0  0  0  0  0  0  0  0
    4.5130   70.2934   78.7410 H   0  0  0  0  0  0  0  0  0  0  0  0
    6.6650   75.5215   81.3411 C   0  0  0  0  0  0  0  0  0  0  0  0
    7.6060   75.2961   82.5148 C   0  0  0  0  0  0  0  0  0  0  0  0
    1.8148   73.1196   80.3399 O   0  0  0  0  0  0  0  0  0  0  0  0
    2.0057   74.3798   82.3513 C   0  0  0  0  0  0  0  0  0  0  0  0
    1.1539   74.1177   81.1216 C   0  0  0  0  0  0  0  0  0  0  0  0
    2.3721   67.8501   82.4698 C   0  0  0  0  0  0  0  0  0  0  0  0
    1.2307   66.8902   82.0835 C   0  0  0  0  0  0  0  0  0  0  0  0
    1.1410   65.6838   83.0338 C   0  0  0  0  0  0  0  0  0  0  0  0
    0.0573   64.7015   82.5876 C   0  0  0  0  0  0  0  0  0  0  0  0
    0.3097   64.2777   81.2027 N   0  0  0  0  0  0  0  0  0  0  0  0
    0.3467   65.3905   80.2375 C   0  0  0  0  0  0  0  0  0  0  0  0
    1.4311   66.3891   80.6437 C   0  0  0  0  0  0  0  0  0  0  0  0
   -0.4006   63.1609   80.7295 C   0  0  0  0  0  0  0  0  0  0  0  0
   -1.7606   63.0263   81.0603 C   0  0  0  0  0  0  0  0  0  0  0  0
   -2.5277   61.9421   80.6156 C   0  0  0  0  0  0  0  0  0  0  0  0
   -1.9402   60.9530   79.8238 C   0  0  0  0  0  0  0  0  0  0  0  0
   -0.5957   61.0808   79.4629 C   0  0  0  0  0  0  0  0  0  0  0  0
    0.1611   62.1714   79.9115 C   0  0  0  0  0  0  0  0  0  0  0  0
   -2.6999   59.7745   79.3256 C   0  0  0  0  0  0  0  0  0  0  0  0
   -2.4079   59.2236   78.2669 O   0  0  0  0  0  0  0  0  0  0  0  0
   -3.7076   59.2951   80.1367 N   0  0  0  0  0  0  0  0  0  0  0  0
   -4.2478   58.0501   79.7259 O   0  0  0  0  0  0  0  0  0  0  0  0
   -3.7124   59.4643   81.1362 H   0  0  0  0  0  0  0  0  0  0  0  0
   -3.7787   57.8902   78.8764 H   0  0  0  0  0  0  0  0  0  0  0  0
 22 23  1  0  0  0
 23 21  1  0  0  0
 21  1  1  0  0  0
  1  2  1  0  0  0
  2  3  2  0  0  0
  3  4  1  0  0  0
  4 24  1  0  0  0
 24 25  1  0  0  0
 25 26  1  0  0  0
 26 27  1  0  0  0
 27 28  1  0  0  0
 28 31  1  0  0  0
 31 32  1  0  0  0
 32 33  2  0  0  0
 33 34  1  0  0  0
 34 37  1  0  0  0
 37 38  2  0  0  0
 37 39  1  0  0  0
 39 40  1  0  0  0
 34 35  2  0  0  0
 35 36  1  0  0  0
 28 29  1  0  0  0
 29 30  1  0  0  0
  4  5  2  0  0  0
  5  6  1  0  0  0
  6  7  1  0  0  0
  7  8  2  0  0  0
  8  9  1  0  0  0
  9 10  1  0  0  0
 10 19  1  0  0  0
 19 20  1  0  0  0
 10 11  2  0  0  0
 11 12  1  0  0  0
 12 13  1  0  0  0
 12 14  1  0  0  0
 14 15  1  0  0  0
 15 16  2  0  0  0
 15 17  1  0  0  0
  6  1  2  0  0  0
 17  7  1  0  0  0
 30 25  1  0  0  0
 14  9  2  0  0  0
 36 31  2  0  0  0
 39 41  1  0  0  0
 40 42  1  0  0  0
 17 18  1  0  0  0
M  END
> <minimizedAffinity>
-10.19119

$$$$



 42 46  0  0  0  0  0  0  0  0999 V2000
    0.4894   64.0187   82.3641 C   0  0  0  0  0  0  0  0  0  0  0  0
    0.8934   65.1515   83.0848 C   0  0  0  0  0  0  0  0  0  0  0  0
    0.9225   66.4131   82.4840 C   0  0  0  0  0  0  0  0  0  0  0  0
    0.5478   66.5725   81.1495 C   0  0  0  0  0  0  0  0  0  0  0  0
    0.1384   65.4446   80.4267 C   0  0  0  0  0  0  0  0  0  0  0  0
    0.0963   64.1650   81.0159 C   0  0  0  0  0  0  0  0  0  0  0  0
   -0.3726   63.0309   80.1385 C   0  0  0  0  0  0  0  0  0  0  0  0
   -1.3094   62.2259   80.5657 N   0  0  0  0  0  0  0  0  0  0  0  0
   -1.6520   61.2171   79.6648 C   0  0  0  0  0  0  0  0  0  0  0  0
   -2.6019   60.1892   79.7818 C   0  0  0  0  0  0  0  0  0  0  0  0
   -2.6155   59.4273   78.6709 N   0  0  0  0  0  0  0  0  0  0  0  0
   -1.6708   59.9894   77.8758 N   0  0  0  0  0  0  0  0  0  0  0  0
   -1.4067   59.4366   76.5696 C   0  0  0  0  0  0  0  0  0  0  0  0
   -1.0709   61.0694   78.4424 C   0  0  0  0  0  0  0  0  0  0  0  0
   -0.0582   61.9365   77.9675 C   0  0  0  0  0  0  0  0  0  0  0  0
    0.4959   61.8650   76.8769 O   0  0  0  0  0  0  0  0  0  0  0  0
    0.2443   62.9038   78.8974 N   0  0  0  0  0  0  0  0  0  0  0  0
    0.9523   63.5720   78.6226 H   0  0  0  0  0  0  0  0  0  0  0  0
   -3.5121   59.8969   80.9220 C   0  0  0  0  0  0  0  0  0  0  0  0
   -2.7518   59.5755   82.1997 C   0  0  0  0  0  0  0  0  0  0  0  0
    0.4402   62.7614   82.9130 O   0  0  0  0  0  0  0  0  0  0  0  0
   -1.5976   62.6289   84.1378 C   0  0  0  0  0  0  0  0  0  0  0  0
   -0.0821   62.6240   84.2367 C   0  0  0  0  0  0  0  0  0  0  0  0
    0.5684   67.9360   80.5000 C   0  0  0  0  0  0  0  0  0  0  0  0
    1.1383   69.0410   81.4098 C   0  0  0  0  0  0  0  0  0  0  0  0
    0.3660   70.3639   81.2687 C   0  0  0  0  0  0  0  0  0  0  0  0
    0.9953   71.4704   82.1160 C   0  0  0  0  0  0  0  0  0  0  0  0
    2.4104   71.6321   81.7517 N   0  0  0  0  0  0  0  0  0  0  0  0
    3.2127   70.4084   81.9247 C   0  0  0  0  0  0  0  0  0  0  0  0
    2.6208   69.2803   81.0791 C   0  0  0  0  0  0  0  0  0  0  0  0
    3.0658   72.7898   82.2055 C   0  0  0  0  0  0  0  0  0  0  0  0
    4.0473   73.3824   81.3914 C   0  0  0  0  0  0  0  0  0  0  0  0
    4.7325   74.5404   81.7803 C   0  0  0  0  0  0  0  0  0  0  0  0
    4.4498   75.1349   83.0119 C   0  0  0  0  0  0  0  0  0  0  0  0
    3.4599   74.5758   83.8253 C   0  0  0  0  0  0  0  0  0  0  0  0
    2.7789   73.4186   83.4245 C   0  0  0  0  0  0  0  0  0  0  0  0
    5.1472   76.3616   83.4842 C   0  0  0  0  0  0  0  0  0  0  0  0
    5.6682   77.1473   82.6961 O   0  0  0  0  0  0  0  0  0  0  0  0
    5.1294   76.6042   84.8422 N   0  0  0  0  0  0  0  0  0  0  0  0
    5.6093   77.8853   85.2147 O   0  0  0  0  0  0  0  0  0  0  0  0
    4.4112   76.2157   85.4430 H   0  0  0  0  0  0  0  0  0  0  0  0
    5.9149   78.2510   84.3543 H   0  0  0  0  0  0  0  0  0  0  0  0
 22 23  1  0  0  0
 23 21  1  0  0  0
 21  1  1  0  0  0
  1  2  1  0  0  0
  2  3  2  0  0  0
  3  4  1  0  0  0
  4 24  1  0  0  0
 24 25  1  0  0  0
 25 26  1  0  0  0
 26 27  1  0  0  0
 27 28  1  0  0  0
 28 31  1  0  0  0
 31 32  1  0  0  0
 32 33  2  0  0  0
 33 34  1  0  0  0
 34 37  1  0  0  0
 37 38  2  0  0  0
 37 39  1  0  0  0
 39 40  1  0  0  0
 34 35  2  0  0  0
 35 36  1  0  0  0
 28 29  1  0  0  0
 29 30  1  0  0  0
  4  5  2  0  0  0
  5  6  1  0  0  0
  6  7  1  0  0  0
  7  8  2  0  0  0
  8  9  1  0  0  0
  9 10  1  0  0  0
 10 19  1  0  0  0
 19 20  1  0  0  0
 10 11  2  0  0  0
 11 12  1  0  0  0
 12 13  1  0  0  0
 12 14  1  0  0  0
 14 15  1  0  0  0
 15 16  2  0  0  0
 15 17  1  0  0  0
  6  1  2  0  0  0
 17  7  1  0  0  0
 30 25  1  0  0  0
 14  9  2  0  0  0
 36 31  2  0  0  0
 39 41  1  0  0  0
 40 42  1  0  0  0
 17 18  1  0  0  0
M  END
> <minimizedAffinity>
-10.16135

$$$$



 42 46  0  0  0  0  0  0  0  0999 V2000
    3.3349   71.5424   80.7362 C   0  0  0  0  0  0  0  0  0  0  0  0
    4.0523   70.3490   80.9003 C   0  0  0  0  0  0  0  0  0  0  0  0
    3.5416   69.3041   81.6755 C   0  0  0  0  0  0  0  0  0  0  0  0
    2.3019   69.4268   82.3040 C   0  0  0  0  0  0  0  0  0  0  0  0
    1.5790   70.6152   82.1388 C   0  0  0  0  0  0  0  0  0  0  0  0
    2.0737   71.6780   81.3564 C   0  0  0  0  0  0  0  0  0  0  0  0
    1.1981   72.9014   81.2454 C   0  0  0  0  0  0  0  0  0  0  0  0
    0.2705   72.9529   80.3260 N   0  0  0  0  0  0  0  0  0  0  0  0
   -0.4684   74.1364   80.3240 C   0  0  0  0  0  0  0  0  0  0  0  0
   -1.5281   74.5355   79.4931 C   0  0  0  0  0  0  0  0  0  0  0  0
   -1.9631   75.7635   79.8360 N   0  0  0  0  0  0  0  0  0  0  0  0
   -1.1661   76.1155   80.8760 N   0  0  0  0  0  0  0  0  0  0  0  0
   -1.3489   77.3915   81.5241 C   0  0  0  0  0  0  0  0  0  0  0  0
   -0.2550   75.1593   81.1969 C   0  0  0  0  0  0  0  0  0  0  0  0
    0.7438   75.1138   82.1986 C   0  0  0  0  0  0  0  0  0  0  0  0
    0.9790   75.9928   83.0193 O   0  0  0  0  0  0  0  0  0  0  0  0
    1.4444   73.9312   82.1485 N   0  0  0  0  0  0  0  0  0  0  0  0
    2.1686   73.8193   82.8459 H   0  0  0  0  0  0  0  0  0  0  0  0
   -2.1552   73.7868   78.3706 C   0  0  0  0  0  0  0  0  0  0  0  0
   -3.0534   72.6603   78.8586 C   0  0  0  0  0  0  0  0  0  0  0  0
    3.7937   72.5929   79.9810 O   0  0  0  0  0  0  0  0  0  0  0  0
    5.9485   73.5158   79.5622 C   0  0  0  0  0  0  0  0  0  0  0  0
    4.7944   73.4431   80.5466 C   0  0  0  0  0  0  0  0  0  0  0  0
    1.7425   68.2958   83.1340 C   0  0  0  0  0  0  0  0  0  0  0  0
    1.4007   67.0399   82.3097 C   0  0  0  0  0  0  0  0  0  0  0  0
    0.2781   67.3025   81.2913 C   0  0  0  0  0  0  0  0  0  0  0  0
   -0.1039   66.0264   80.5404 C   0  0  0  0  0  0  0  0  0  0  0  0
   -0.4824   64.9789   81.5001 N   0  0  0  0  0  0  0  0  0  0  0  0
    0.5799   64.6439   82.4647 C   0  0  0  0  0  0  0  0  0  0  0  0
    0.9793   65.8958   83.2466 C   0  0  0  0  0  0  0  0  0  0  0  0
   -1.1436   63.8469   80.9930 C   0  0  0  0  0  0  0  0  0  0  0  0
   -2.1927   63.2785   81.7370 C   0  0  0  0  0  0  0  0  0  0  0  0
   -2.8973   62.1552   81.2859 C   0  0  0  0  0  0  0  0  0  0  0  0
   -2.5584   61.5656   80.0661 C   0  0  0  0  0  0  0  0  0  0  0  0
   -1.5349   62.1302   79.2993 C   0  0  0  0  0  0  0  0  0  0  0  0
   -0.8388   63.2557   79.7596 C   0  0  0  0  0  0  0  0  0  0  0  0
   -3.2647   60.3681   79.5356 C   0  0  0  0  0  0  0  0  0  0  0  0
   -3.4901   60.2354   78.3351 O   0  0  0  0  0  0  0  0  0  0  0  0
   -3.6007   59.3888   80.4474 N   0  0  0  0  0  0  0  0  0  0  0  0
   -4.0670   58.1824   79.8661 O   0  0  0  0  0  0  0  0  0  0  0  0
   -3.1053   59.2868   81.3259 H   0  0  0  0  0  0  0  0  0  0  0  0
   -4.0974   58.4107   78.9099 H   0  0  0  0  0  0  0  0  0  0  0  0
 22 23  1  0  0  0
 23 21  1  0  0  0
 21  1  1  0  0  0
  1  2  1  0  0  0
  2  3  2  0  0  0
  3  4  1  0  0  0
  4 24  1  0  0  0
 24 25  1  0  0  0
 25 26  1  0  0  0
 26 27  1  0  0  0
 27 28  1  0  0  0
 28 31  1  0  0  0
 31 32  1  0  0  0
 32 33  2  0  0  0
 33 34  1  0  0  0
 34 37  1  0  0  0
 37 38  2  0  0  0
 37 39  1  0  0  0
 39 40  1  0  0  0
 34 35  2  0  0  0
 35 36  1  0  0  0
 28 29  1  0  0  0
 29 30  1  0  0  0
  4  5  2  0  0  0
  5  6  1  0  0  0
  6  7  1  0  0  0
  7  8  2  0  0  0
  8  9  1  0  0  0
  9 10  1  0  0  0
 10 19  1  0  0  0
 19 20  1  0  0  0
 10 11  2  0  0  0
 11 12  1  0  0  0
 12 13  1  0  0  0
 12 14  1  0  0  0
 14 15  1  0  0  0
 15 16  2  0  0  0
 15 17  1  0  0  0
  6  1  2  0  0  0
 17  7  1  0  0  0
 30 25  1  0  0  0
 14  9  2  0  0  0
 36 31  2  0  0  0
 39 41  1  0  0  0
 40 42  1  0  0  0
 17 18  1  0  0  0
M  END
> <minimizedAffinity>
-10.10814

$$$$



 42 46  0  0  0  0  0  0  0  0999 V2000
   -0.9491   61.7569   80.0497 C   0  0  0  0  0  0  0  0  0  0  0  0
   -0.6051   61.9078   78.6989 C   0  0  0  0  0  0  0  0  0  0  0  0
    0.0765   63.0438   78.2533 C   0  0  0  0  0  0  0  0  0  0  0  0
    0.4310   64.0549   79.1470 C   0  0  0  0  0  0  0  0  0  0  0  0
    0.0941   63.9063   80.4985 C   0  0  0  0  0  0  0  0  0  0  0  0
   -0.5876   62.7658   80.9688 C   0  0  0  0  0  0  0  0  0  0  0  0
   -0.8844   62.7163   82.4470 C   0  0  0  0  0  0  0  0  0  0  0  0
   -0.1446   63.4002   83.2796 N   0  0  0  0  0  0  0  0  0  0  0  0
   -0.5177   63.2689   84.6176 C   0  0  0  0  0  0  0  0  0  0  0  0
    0.0390   63.8490   85.7692 C   0  0  0  0  0  0  0  0  0  0  0  0
   -0.6324   63.4574   86.8694 N   0  0  0  0  0  0  0  0  0  0  0  0
   -1.5988   62.6352   86.3890 N   0  0  0  0  0  0  0  0  0  0  0  0
   -2.5387   62.0214   87.2953 C   0  0  0  0  0  0  0  0  0  0  0  0
   -1.5595   62.4993   85.0372 C   0  0  0  0  0  0  0  0  0  0  0  0
   -2.3697   61.7571   84.1451 C   0  0  0  0  0  0  0  0  0  0  0  0
   -3.3254   61.0562   84.4562 O   0  0  0  0  0  0  0  0  0  0  0  0
   -1.9522   61.9171   82.8443 N   0  0  0  0  0  0  0  0  0  0  0  0
   -2.4939   61.4262   82.1451 H   0  0  0  0  0  0  0  0  0  0  0  0
    1.1994   64.7750   85.8694 C   0  0  0  0  0  0  0  0  0  0  0  0
    1.1936   65.8283   84.7720 C   0  0  0  0  0  0  0  0  0  0  0  0
   -1.6135   60.6575   80.5338 O   0  0  0  0  0  0  0  0  0  0  0  0
   -3.8773   61.1762   80.0082 C   0  0  0  0  0  0  0  0  0  0  0  0
   -2.7480   60.1811   79.8059 C   0  0  0  0  0  0  0  0  0  0  0  0
    1.1765   65.2791   78.6707 C   0  0  0  0  0  0  0  0  0  0  0  0
    1.1302   66.4528   79.6676 C   0  0  0  0  0  0  0  0  0  0  0  0
   -0.2366   67.1588   79.6689 C   0  0  0  0  0  0  0  0  0  0  0  0
   -0.2381   68.3699   80.6025 C   0  0  0  0  0  0  0  0  0  0  0  0
    0.8430   69.2914   80.2236 N   0  0  0  0  0  0  0  0  0  0  0  0
    2.1844   68.6828   80.2627 C   0  0  0  0  0  0  0  0  0  0  0  0
    2.2289   67.4734   79.3280 C   0  0  0  0  0  0  0  0  0  0  0  0
    0.8090   70.5861   80.7697 C   0  0  0  0  0  0  0  0  0  0  0  0
    1.9993   71.3320   80.8333 C   0  0  0  0  0  0  0  0  0  0  0  0
    2.0334   72.6299   81.3585 C   0  0  0  0  0  0  0  0  0  0  0  0
    0.8615   73.2149   81.8429 C   0  0  0  0  0  0  0  0  0  0  0  0
   -0.3372   72.4999   81.7661 C   0  0  0  0  0  0  0  0  0  0  0  0
   -0.3597   71.2030   81.2361 C   0  0  0  0  0  0  0  0  0  0  0  0
    0.8338   74.5870   82.4181 C   0  0  0  0  0  0  0  0  0  0  0  0
    1.8662   75.1647   82.7500 O   0  0  0  0  0  0  0  0  0  0  0  0
   -0.3987   75.2007   82.5056 N   0  0  0  0  0  0  0  0  0  0  0  0
   -0.3455   76.5754   82.8491 O   0  0  0  0  0  0  0  0  0  0  0  0
   -1.1718   74.9298   81.9085 H   0  0  0  0  0  0  0  0  0  0  0  0
    0.6142   76.7108   83.0160 H   0  0  0  0  0  0  0  0  0  0  0  0
 22 23  1  0  0  0
 23 21  1  0  0  0
 21  1  1  0  0  0
  1  2  1  0  0  0
  2  3  2  0  0  0
  3  4  1  0  0  0
  4 24  1  0  0  0
 24 25  1  0  0  0
 25 26  1  0  0  0
 26 27  1  0  0  0
 27 28  1  0  0  0
 28 31  1  0  0  0
 31 32  1  0  0  0
 32 33  2  0  0  0
 33 34  1  0  0  0
 34 37  1  0  0  0
 37 38  2  0  0  0
 37 39  1  0  0  0
 39 40  1  0  0  0
 34 35  2  0  0  0
 35 36  1  0  0  0
 28 29  1  0  0  0
 29 30  1  0  0  0
  4  5  2  0  0  0
  5  6  1  0  0  0
  6  7  1  0  0  0
  7  8  2  0  0  0
  8  9  1  0  0  0
  9 10  1  0  0  0
 10 19  1  0  0  0
 19 20  1  0  0  0
 10 11  2  0  0  0
 11 12  1  0  0  0
 12 13  1  0  0  0
 12 14  1  0  0  0
 14 15  1  0  0  0
 15 16  2  0  0  0
 15 17  1  0  0  0
  6  1  2  0  0  0
 17  7  1  0  0  0
 30 25  1  0  0  0
 14  9  2  0  0  0
 36 31  2  0  0  0
 39 41  1  0  0  0
 40 42  1  0  0  0
 17 18  1  0  0  0
M  END
> <minimizedAffinity>
-10.10447

$$$$
