
     RDKit          3D

 51 53  0  0  0  0  0  0  0  0999 V2000
    3.6337   -0.8897   -4.0112 C   0  0  0  0  0  0  0  0  0  0  0  0
    2.4608   -0.0904   -4.0953 O   0  0  0  0  0  0  0  0  0  0  0  0
    1.8110    0.0868   -2.8392 C   0  0  0  0  0  0  0  0  0  0  0  0
    2.4636    1.1806   -1.9936 C   0  0  0  0  0  0  0  0  0  0  0  0
    1.6932    1.3500   -0.8003 O   0  0  0  0  0  0  0  0  0  0  0  0
    2.1350    2.2729    0.1211 C   0  0  0  0  0  0  0  0  0  0  0  0
    3.2734    3.0714   -0.0687 C   0  0  0  0  0  0  0  0  0  0  0  0
    3.6772    3.9856    0.9075 C   0  0  0  0  0  0  0  0  0  0  0  0
    2.9506    4.1149    2.0839 C   0  0  0  0  0  0  0  0  0  0  0  0
    1.8153    3.3312    2.2834 C   0  0  0  0  0  0  0  0  0  0  0  0
    1.3859    2.4049    1.3145 C   0  0  0  0  0  0  0  0  0  0  0  0
    0.1696    1.6279    1.6092 C   0  0  0  0  0  0  0  0  0  0  0  0
   -0.5382    1.6712    2.7306 N   0  0  0  0  0  0  0  0  0  0  0  0
   -1.5783    0.7896    2.5560 C   0  0  0  0  0  0  0  0  0  0  0  0
   -2.6473    0.4454    3.4657 C   0  0  0  0  0  0  0  0  0  0  0  0
   -2.7693    0.9565    4.5761 O   0  0  0  0  0  0  0  0  0  0  0  0
   -3.5227   -0.5238    2.9431 N   0  0  0  0  0  0  0  0  0  0  0  0
   -4.6306   -0.9419    3.7789 C   0  0  0  0  0  0  0  0  0  0  0  0
   -3.4576   -1.1122    1.6626 C   0  0  0  0  0  0  0  0  0  0  0  0
   -4.3005   -1.9332    1.2886 O   0  0  0  0  0  0  0  0  0  0  0  0
   -2.3942   -0.7264    0.8249 N   0  0  0  0  0  0  0  0  0  0  0  0
   -2.2888   -1.3317   -0.5020 C   0  0  0  0  0  0  0  0  0  0  0  0
   -1.6828   -2.7484   -0.4833 C   0  0  0  0  0  0  0  0  0  0  0  0
   -0.2325   -2.7531    0.0025 C   0  0  0  0  0  0  0  0  0  0  0  0
   -1.7612   -3.3609   -1.8833 C   0  0  0  0  0  0  0  0  0  0  0  0
   -1.5108    0.2054    1.3244 C   0  0  0  0  0  0  0  0  0  0  0  0
   -0.4105    0.7375    0.7279 N   0  0  0  0  0  0  0  0  0  0  0  0
    4.3963   -0.4023   -3.3980 H   0  0  0  0  0  0  0  0  0  0  0  0
    4.0343   -1.0165   -5.0208 H   0  0  0  0  0  0  0  0  0  0  0  0
    3.3972   -1.8782   -3.6057 H   0  0  0  0  0  0  0  0  0  0  0  0
    1.7578   -0.8604   -2.2892 H   0  0  0  0  0  0  0  0  0  0  0  0
    0.7731    0.3722   -3.0468 H   0  0  0  0  0  0  0  0  0  0  0  0
    2.4892    2.1118   -2.5725 H   0  0  0  0  0  0  0  0  0  0  0  0
    3.4886    0.8854   -1.7428 H   0  0  0  0  0  0  0  0  0  0  0  0
    3.8760    3.0130   -0.9693 H   0  0  0  0  0  0  0  0  0  0  0  0
    4.5615    4.5979    0.7471 H   0  0  0  0  0  0  0  0  0  0  0  0
    3.2608    4.8240    2.8471 H   0  0  0  0  0  0  0  0  0  0  0  0
    1.2526    3.4450    3.2100 H   0  0  0  0  0  0  0  0  0  0  0  0
   -4.6578   -2.0355    3.8270 H   0  0  0  0  0  0  0  0  0  0  0  0
   -4.5634   -0.5488    4.7963 H   0  0  0  0  0  0  0  0  0  0  0  0
   -5.5631   -0.5928    3.3234 H   0  0  0  0  0  0  0  0  0  0  0  0
   -1.7105   -0.6724   -1.1602 H   0  0  0  0  0  0  0  0  0  0  0  0
   -3.2999   -1.3771   -0.9266 H   0  0  0  0  0  0  0  0  0  0  0  0
   -2.2661   -3.3829    0.1952 H   0  0  0  0  0  0  0  0  0  0  0  0
    0.3933   -2.0932   -0.6064 H   0  0  0  0  0  0  0  0  0  0  0  0
   -0.1622   -2.4270    1.0447 H   0  0  0  0  0  0  0  0  0  0  0  0
    0.1910   -3.7619   -0.0502 H   0  0  0  0  0  0  0  0  0  0  0  0
   -1.1864   -2.7725   -2.6071 H   0  0  0  0  0  0  0  0  0  0  0  0
   -1.3647   -4.3818   -1.8852 H   0  0  0  0  0  0  0  0  0  0  0  0
   -2.7988   -3.4065   -2.2304 H   0  0  0  0  0  0  0  0  0  0  0  0
   -0.0422    0.5402   -0.1909 H   0  0  0  0  0  0  0  0  0  0  0  0
  1  2  1  0
  2  3  1  0
  3  4  1  0
  4  5  1  0
  5  6  1  0
  6  7  2  0
  7  8  1  0
  8  9  2  0
  9 10  1  0
 10 11  2  0
 11 12  1  0
 12 13  2  0
 13 14  1  0
 14 15  1  0
 15 16  2  0
 15 17  1  0
 17 18  1  0
 17 19  1  0
 19 20  2  0
 19 21  1  0
 21 22  1  0
 22 23  1  0
 23 24  1  0
 23 25  1  0
 21 26  1  0
 26 27  1  0
 11  6  1  0
 27 12  1  0
 26 14  2  0
  1 28  1  0
  1 29  1  0
  1 30  1  0
  3 31  1  0
  3 32  1  0
  4 33  1  0
  4 34  1  0
  7 35  1  0
  8 36  1  0
  9 37  1  0
 10 38  1  0
 18 39  1  0
 18 40  1  0
 18 41  1  0
 22 42  1  0
 22 43  1  0
 23 44  1  0
 24 45  1  0
 24 46  1  0
 24 47  1  0
 25 48  1  0
 25 49  1  0
 25 50  1  0
 27 51  1  0
M  END
$$$$
