


 37 43  0  0  0  0  0  0  0  0999 V2000
    2.4415   68.7945   82.0226 N   0  0  0  0  0  0  0  0  0  0  0  0
    1.3628   68.3302   81.2381 C   0  0  0  0  0  0  0  0  0  0  0  0
    0.8440   68.9972   80.3441 O   0  0  0  0  0  0  0  0  0  0  0  0
    0.8886   66.9899   81.5955 C   0  0  0  0  0  0  0  0  0  0  0  0
   -0.1703   66.3004   81.0673 N   0  0  0  0  0  0  0  0  0  0  0  0
   -0.2208   65.1564   81.7293 C   0  0  0  0  0  0  0  0  0  0  0  0
    0.8055   65.0774   82.6678 N   0  0  0  0  0  0  0  0  0  0  0  0
    1.4926   66.2621   82.5970 C   0  0  0  0  0  0  0  0  0  0  0  0
    2.5436   66.7520   83.2886 N   0  0  0  0  0  0  0  0  0  0  0  0
    3.1154   66.2854   84.5293 C   0  0  0  0  0  0  0  0  0  0  0  0
    4.1810   67.3794   84.7972 C   0  0  0  0  0  0  0  0  0  0  0  0
    4.1622   67.8819   86.2567 C   0  0  0  0  0  0  0  0  0  0  0  0
    5.5798   68.3878   86.5598 C   0  0  0  0  0  0  0  0  0  0  0  0
    6.4012   67.4947   85.6834 C   0  0  0  0  0  0  0  0  0  0  0  0
    7.7629   67.2536   85.7575 C   0  0  0  0  0  0  0  0  0  0  0  0
    8.3428   66.4269   84.7935 C   0  0  0  0  0  0  0  0  0  0  0  0
    7.5648   65.8725   83.7658 C   0  0  0  0  0  0  0  0  0  0  0  0
    6.1944   66.1317   83.6917 C   0  0  0  0  0  0  0  0  0  0  0  0
    5.6177   66.9349   84.6654 C   0  0  0  0  0  0  0  0  0  0  0  0
    3.8858   68.5184   83.8722 N   0  0  0  0  0  0  0  0  0  0  0  0
    2.9806   68.0422   83.0609 C   0  0  0  0  0  0  0  0  0  0  0  0
    3.9788   70.1714   80.6727 C   0  0  0  0  0  0  0  0  0  0  0  0
    2.9310   70.1446   81.7764 C   0  0  0  0  0  0  0  0  0  0  0  0
   -1.2685   64.1011   81.5071 C   0  0  0  0  0  0  0  0  0  0  0  0
   -0.9888   63.1772   80.3421 C   0  0  0  0  0  0  0  0  0  0  0  0
   -1.9850   62.3043   79.8784 C   0  0  0  0  0  0  0  0  0  0  0  0
   -1.7374   61.4561   78.7978 C   0  0  0  0  0  0  0  0  0  0  0  0
   -0.4977   61.4793   78.1619 C   0  0  0  0  0  0  0  0  0  0  0  0
    0.4932   62.3552   78.6003 C   0  0  0  0  0  0  0  0  0  0  0  0
    0.2480   63.2043   79.6802 C   0  0  0  0  0  0  0  0  0  0  0  0
    1.1021   63.9089   83.4811 C   0  0  0  0  0  0  0  0  0  0  0  0
    0.3025   63.8267   84.7606 C   0  0  0  0  0  0  0  0  0  0  0  0
    0.6924   64.4667   85.9473 C   0  0  0  0  0  0  0  0  0  0  0  0
   -0.0675   64.3337   87.1115 C   0  0  0  0  0  0  0  0  0  0  0  0
   -1.2185   63.5501   87.1106 C   0  0  0  0  0  0  0  0  0  0  0  0
   -1.6104   62.8947   85.9466 C   0  0  0  0  0  0  0  0  0  0  0  0
   -0.8528   63.0272   84.7818 C   0  0  0  0  0  0  0  0  0  0  0  0
 22 23  1  0  0  0
 23  1  1  0  0  0
  1  2  1  0  0  0
  2  3  2  0  0  0
  2  4  1  0  0  0
  4  5  1  0  0  0
  5  6  2  0  0  0
  6 24  1  0  0  0
 24 25  1  0  0  0
 25 26  2  0  0  0
 26 27  1  0  0  0
 27 28  2  0  0  0
 28 29  1  0  0  0
 29 30  2  0  0  0
  6  7  1  0  0  0
  7 31  1  0  0  0
 31 32  1  0  0  0
 32 33  2  0  0  0
 33 34  1  0  0  0
 34 35  2  0  0  0
 35 36  1  0  0  0
 36 37  2  0  0  0
  7  8  1  0  0  0
  8  9  1  0  0  0
  9 10  1  0  0  0
 10 11  1  0  0  0
 11 12  1  0  0  0
 12 13  1  0  0  0
 13 14  1  0  0  0
 14 15  2  0  0  0
 15 16  1  0  0  0
 16 17  2  0  0  0
 17 18  1  0  0  0
 18 19  2  0  0  0
 11 20  1  0  0  0
 20 21  2  0  0  0
 21  1  1  0  0  0
  8  4  2  0  0  0
 21  9  1  0  0  0
 30 25  1  0  0  0
 37 32  1  0  0  0
 19 11  1  0  0  0
 19 14  1  0  0  0
M  END
> <minimizedAffinity>
-10.49048

$$$$



 37 43  0  0  0  0  0  0  0  0999 V2000
    0.0552   66.1763   80.2253 N   0  0  0  0  0  0  0  0  0  0  0  0
    0.5973   66.9289   81.2904 C   0  0  0  0  0  0  0  0  0  0  0  0
    0.8065   68.1392   81.2218 O   0  0  0  0  0  0  0  0  0  0  0  0
    0.9195   66.1414   82.4841 C   0  0  0  0  0  0  0  0  0  0  0  0
    1.5099   66.5692   83.6436 N   0  0  0  0  0  0  0  0  0  0  0  0
    1.6201   65.4956   84.4083 C   0  0  0  0  0  0  0  0  0  0  0  0
    1.0883   64.3750   83.7747 N   0  0  0  0  0  0  0  0  0  0  0  0
    0.6686   64.7880   82.5362 C   0  0  0  0  0  0  0  0  0  0  0  0
    0.1168   64.1329   81.4925 N   0  0  0  0  0  0  0  0  0  0  0  0
    0.0435   62.7128   81.2437 C   0  0  0  0  0  0  0  0  0  0  0  0
   -0.5870   62.6897   79.8274 C   0  0  0  0  0  0  0  0  0  0  0  0
    0.1364   61.7175   78.8711 C   0  0  0  0  0  0  0  0  0  0  0  0
   -0.9013   61.2848   77.8254 C   0  0  0  0  0  0  0  0  0  0  0  0
   -2.1651   61.3515   78.6245 C   0  0  0  0  0  0  0  0  0  0  0  0
   -3.3882   60.7747   78.3261 C   0  0  0  0  0  0  0  0  0  0  0  0
   -4.4621   61.0169   79.1847 C   0  0  0  0  0  0  0  0  0  0  0  0
   -4.3060   61.8406   80.3098 C   0  0  0  0  0  0  0  0  0  0  0  0
   -3.0718   62.4286   80.5957 C   0  0  0  0  0  0  0  0  0  0  0  0
   -2.0010   62.1664   79.7527 C   0  0  0  0  0  0  0  0  0  0  0  0
   -0.5017   64.0817   79.2841 N   0  0  0  0  0  0  0  0  0  0  0  0
   -0.1272   64.7998   80.3080 C   0  0  0  0  0  0  0  0  0  0  0  0
   -1.5146   67.6856   79.0683 C   0  0  0  0  0  0  0  0  0  0  0  0
   -0.2320   66.8713   78.9773 C   0  0  0  0  0  0  0  0  0  0  0  0
    2.2611   65.4935   85.7684 C   0  0  0  0  0  0  0  0  0  0  0  0
    3.7726   65.5563   85.7478 C   0  0  0  0  0  0  0  0  0  0  0  0
    4.4406   66.1289   84.6545 C   0  0  0  0  0  0  0  0  0  0  0  0
    5.8345   66.1992   84.6331 C   0  0  0  0  0  0  0  0  0  0  0  0
    6.5748   65.7098   85.7074 C   0  0  0  0  0  0  0  0  0  0  0  0
    5.9227   65.1566   86.8075 C   0  0  0  0  0  0  0  0  0  0  0  0
    4.5293   65.0855   86.8314 C   0  0  0  0  0  0  0  0  0  0  0  0
    0.9494   63.0616   84.3834 C   0  0  0  0  0  0  0  0  0  0  0  0
   -0.3252   62.8779   85.1740 C   0  0  0  0  0  0  0  0  0  0  0  0
   -1.5358   62.4758   84.5886 C   0  0  0  0  0  0  0  0  0  0  0  0
   -2.6933   62.3502   85.3600 C   0  0  0  0  0  0  0  0  0  0  0  0
   -2.6613   62.6367   86.7223 C   0  0  0  0  0  0  0  0  0  0  0  0
   -1.4727   63.0531   87.3157 C   0  0  0  0  0  0  0  0  0  0  0  0
   -0.3146   63.1782   86.5466 C   0  0  0  0  0  0  0  0  0  0  0  0
 22 23  1  0  0  0
 23  1  1  0  0  0
  1  2  1  0  0  0
  2  3  2  0  0  0
  2  4  1  0  0  0
  4  5  1  0  0  0
  5  6  2  0  0  0
  6 24  1  0  0  0
 24 25  1  0  0  0
 25 26  2  0  0  0
 26 27  1  0  0  0
 27 28  2  0  0  0
 28 29  1  0  0  0
 29 30  2  0  0  0
  6  7  1  0  0  0
  7 31  1  0  0  0
 31 32  1  0  0  0
 32 33  2  0  0  0
 33 34  1  0  0  0
 34 35  2  0  0  0
 35 36  1  0  0  0
 36 37  2  0  0  0
  7  8  1  0  0  0
  8  9  1  0  0  0
  9 10  1  0  0  0
 10 11  1  0  0  0
 11 12  1  0  0  0
 12 13  1  0  0  0
 13 14  1  0  0  0
 14 15  2  0  0  0
 15 16  1  0  0  0
 16 17  2  0  0  0
 17 18  1  0  0  0
 18 19  2  0  0  0
 11 20  1  0  0  0
 20 21  2  0  0  0
 21  1  1  0  0  0
  8  4  2  0  0  0
 21  9  1  0  0  0
 30 25  1  0  0  0
 37 32  1  0  0  0
 19 11  1  0  0  0
 19 14  1  0  0  0
M  END
> <minimizedAffinity>
-10.31541

$$$$



 37 43  0  0  0  0  0  0  0  0999 V2000
    2.3674   68.4856   81.9916 N   0  0  0  0  0  0  0  0  0  0  0  0
    1.2800   67.9667   81.2549 C   0  0  0  0  0  0  0  0  0  0  0  0
    0.7400   68.5752   80.3321 O   0  0  0  0  0  0  0  0  0  0  0  0
    0.8242   66.6462   81.6994 C   0  0  0  0  0  0  0  0  0  0  0  0
   -0.2372   65.9179   81.2315 N   0  0  0  0  0  0  0  0  0  0  0  0
   -0.2659   64.8149   81.9609 C   0  0  0  0  0  0  0  0  0  0  0  0
    0.7767   64.8002   82.8844 N   0  0  0  0  0  0  0  0  0  0  0  0
    1.4516   65.9841   82.7316 C   0  0  0  0  0  0  0  0  0  0  0  0
    2.5095   66.5229   83.3746 N   0  0  0  0  0  0  0  0  0  0  0  0
    3.1065   66.1356   84.6306 C   0  0  0  0  0  0  0  0  0  0  0  0
    4.1664   67.2521   84.8146 C   0  0  0  0  0  0  0  0  0  0  0  0
    4.1676   67.8404   86.2419 C   0  0  0  0  0  0  0  0  0  0  0  0
    5.5854   68.3749   86.4898 C   0  0  0  0  0  0  0  0  0  0  0  0
    6.4001   67.4381   85.6538 C   0  0  0  0  0  0  0  0  0  0  0  0
    7.7649   67.2129   85.7183 C   0  0  0  0  0  0  0  0  0  0  0  0
    8.3361   66.3352   84.7950 C   0  0  0  0  0  0  0  0  0  0  0  0
    7.5460   65.7143   83.8158 C   0  0  0  0  0  0  0  0  0  0  0  0
    6.1722   65.9574   83.7502 C   0  0  0  0  0  0  0  0  0  0  0  0
    5.6046   66.8123   84.6845 C   0  0  0  0  0  0  0  0  0  0  0  0
    3.8452   68.3317   83.8290 N   0  0  0  0  0  0  0  0  0  0  0  0
    2.9308   67.8008   83.0632 C   0  0  0  0  0  0  0  0  0  0  0  0
    2.0646   70.8977   82.4052 C   0  0  0  0  0  0  0  0  0  0  0  0
    2.8403   69.8227   81.6574 C   0  0  0  0  0  0  0  0  0  0  0  0
   -1.3075   63.7398   81.8199 C   0  0  0  0  0  0  0  0  0  0  0  0
   -1.1625   62.8870   80.5786 C   0  0  0  0  0  0  0  0  0  0  0  0
    0.0980   62.7077   79.9885 C   0  0  0  0  0  0  0  0  0  0  0  0
    0.2409   61.9144   78.8489 C   0  0  0  0  0  0  0  0  0  0  0  0
   -0.8705   61.2829   78.2942 C   0  0  0  0  0  0  0  0  0  0  0  0
   -2.1243   61.4372   78.8819 C   0  0  0  0  0  0  0  0  0  0  0  0
   -2.2696   62.2295   80.0214 C   0  0  0  0  0  0  0  0  0  0  0  0
    1.0977   63.6846   83.7603 C   0  0  0  0  0  0  0  0  0  0  0  0
    0.2284   63.5961   84.9931 C   0  0  0  0  0  0  0  0  0  0  0  0
   -0.9552   62.8433   85.0406 C   0  0  0  0  0  0  0  0  0  0  0  0
   -1.7387   62.8195   86.1966 C   0  0  0  0  0  0  0  0  0  0  0  0
   -1.3586   63.5565   87.3153 C   0  0  0  0  0  0  0  0  0  0  0  0
   -0.1964   64.3219   87.2794 C   0  0  0  0  0  0  0  0  0  0  0  0
    0.5885   64.3462   86.1254 C   0  0  0  0  0  0  0  0  0  0  0  0
 22 23  1  0  0  0
 23  1  1  0  0  0
  1  2  1  0  0  0
  2  3  2  0  0  0
  2  4  1  0  0  0
  4  5  1  0  0  0
  5  6  2  0  0  0
  6 24  1  0  0  0
 24 25  1  0  0  0
 25 26  2  0  0  0
 26 27  1  0  0  0
 27 28  2  0  0  0
 28 29  1  0  0  0
 29 30  2  0  0  0
  6  7  1  0  0  0
  7 31  1  0  0  0
 31 32  1  0  0  0
 32 33  2  0  0  0
 33 34  1  0  0  0
 34 35  2  0  0  0
 35 36  1  0  0  0
 36 37  2  0  0  0
  7  8  1  0  0  0
  8  9  1  0  0  0
  9 10  1  0  0  0
 10 11  1  0  0  0
 11 12  1  0  0  0
 12 13  1  0  0  0
 13 14  1  0  0  0
 14 15  2  0  0  0
 15 16  1  0  0  0
 16 17  2  0  0  0
 17 18  1  0  0  0
 18 19  2  0  0  0
 11 20  1  0  0  0
 20 21  2  0  0  0
 21  1  1  0  0  0
  8  4  2  0  0  0
 21  9  1  0  0  0
 30 25  1  0  0  0
 37 32  1  0  0  0
 19 11  1  0  0  0
 19 14  1  0  0  0
M  END
> <minimizedAffinity>
-10.22782

$$$$



 37 43  0  0  0  0  0  0  0  0999 V2000
   -0.7103   63.0753   85.2254 N   0  0  0  0  0  0  0  0  0  0  0  0
    0.3246   63.7490   85.9108 C   0  0  0  0  0  0  0  0  0  0  0  0
    0.5737   63.5668   87.1016 O   0  0  0  0  0  0  0  0  0  0  0  0
    1.0661   64.7113   85.0904 C   0  0  0  0  0  0  0  0  0  0  0  0
    2.0719   65.5550   85.4807 N   0  0  0  0  0  0  0  0  0  0  0  0
    2.4000   66.2468   84.4021 C   0  0  0  0  0  0  0  0  0  0  0  0
    1.6387   65.8508   83.3049 N   0  0  0  0  0  0  0  0  0  0  0  0
    0.7702   64.8908   83.7571 C   0  0  0  0  0  0  0  0  0  0  0  0
   -0.2124   64.1893   83.1526 N   0  0  0  0  0  0  0  0  0  0  0  0
   -0.8534   64.4284   81.8814 C   0  0  0  0  0  0  0  0  0  0  0  0
   -1.9549   63.3372   81.8923 C   0  0  0  0  0  0  0  0  0  0  0  0
   -3.3331   63.8804   81.4578 C   0  0  0  0  0  0  0  0  0  0  0  0
   -4.1053   62.6881   80.8751 C   0  0  0  0  0  0  0  0  0  0  0  0
   -2.9887   61.8636   80.3150 C   0  0  0  0  0  0  0  0  0  0  0  0
   -3.0748   60.8352   79.3917 C   0  0  0  0  0  0  0  0  0  0  0  0
   -1.9065   60.1514   79.0505 C   0  0  0  0  0  0  0  0  0  0  0  0
   -0.6814   60.4886   79.6456 C   0  0  0  0  0  0  0  0  0  0  0  0
   -0.6063   61.5189   80.5856 C   0  0  0  0  0  0  0  0  0  0  0  0
   -1.7659   62.2115   80.9044 C   0  0  0  0  0  0  0  0  0  0  0  0
   -2.0424   62.8130   83.2914 N   0  0  0  0  0  0  0  0  0  0  0  0
   -1.0059   63.3332   83.8909 C   0  0  0  0  0  0  0  0  0  0  0  0
   -2.7049   62.8593   86.6592 C   0  0  0  0  0  0  0  0  0  0  0  0
   -1.5398   62.1490   85.9849 C   0  0  0  0  0  0  0  0  0  0  0  0
    3.4397   67.3326   84.3829 C   0  0  0  0  0  0  0  0  0  0  0  0
    4.8441   66.8597   84.6879 C   0  0  0  0  0  0  0  0  0  0  0  0
    5.9197   67.7593   84.6326 C   0  0  0  0  0  0  0  0  0  0  0  0
    7.2167   67.3324   84.9222 C   0  0  0  0  0  0  0  0  0  0  0  0
    7.4513   66.0066   85.2815 C   0  0  0  0  0  0  0  0  0  0  0  0
    6.3892   65.1081   85.3590 C   0  0  0  0  0  0  0  0  0  0  0  0
    5.0917   65.5326   85.0702 C   0  0  0  0  0  0  0  0  0  0  0  0
    1.8255   66.3309   81.9449 C   0  0  0  0  0  0  0  0  0  0  0  0
    1.1082   67.6259   81.6421 C   0  0  0  0  0  0  0  0  0  0  0  0
    0.0843   67.7267   80.6874 C   0  0  0  0  0  0  0  0  0  0  0  0
   -0.5260   68.9550   80.4240 C   0  0  0  0  0  0  0  0  0  0  0  0
   -0.1140   70.1007   81.0997 C   0  0  0  0  0  0  0  0  0  0  0  0
    0.9117   70.0216   82.0376 C   0  0  0  0  0  0  0  0  0  0  0  0
    1.5222   68.7947   82.3030 C   0  0  0  0  0  0  0  0  0  0  0  0
 22 23  1  0  0  0
 23  1  1  0  0  0
  1  2  1  0  0  0
  2  3  2  0  0  0
  2  4  1  0  0  0
  4  5  1  0  0  0
  5  6  2  0  0  0
  6 24  1  0  0  0
 24 25  1  0  0  0
 25 26  2  0  0  0
 26 27  1  0  0  0
 27 28  2  0  0  0
 28 29  1  0  0  0
 29 30  2  0  0  0
  6  7  1  0  0  0
  7 31  1  0  0  0
 31 32  1  0  0  0
 32 33  2  0  0  0
 33 34  1  0  0  0
 34 35  2  0  0  0
 35 36  1  0  0  0
 36 37  2  0  0  0
  7  8  1  0  0  0
  8  9  1  0  0  0
  9 10  1  0  0  0
 10 11  1  0  0  0
 11 12  1  0  0  0
 12 13  1  0  0  0
 13 14  1  0  0  0
 14 15  2  0  0  0
 15 16  1  0  0  0
 16 17  2  0  0  0
 17 18  1  0  0  0
 18 19  2  0  0  0
 11 20  1  0  0  0
 20 21  2  0  0  0
 21  1  1  0  0  0
  8  4  2  0  0  0
 21  9  1  0  0  0
 30 25  1  0  0  0
 37 32  1  0  0  0
 19 11  1  0  0  0
 19 14  1  0  0  0
M  END
> <minimizedAffinity>
-10.18506

$$$$



 37 43  0  0  0  0  0  0  0  0999 V2000
    3.5062   67.4494   84.2043 N   0  0  0  0  0  0  0  0  0  0  0  0
    3.0974   66.2327   84.7935 C   0  0  0  0  0  0  0  0  0  0  0  0
    3.6347   65.7535   85.7910 O   0  0  0  0  0  0  0  0  0  0  0  0
    1.9911   65.5668   84.0995 C   0  0  0  0  0  0  0  0  0  0  0  0
    1.4212   64.3552   84.3875 N   0  0  0  0  0  0  0  0  0  0  0  0
    0.4878   64.1694   83.4689 C   0  0  0  0  0  0  0  0  0  0  0  0
    0.4227   65.2540   82.5973 N   0  0  0  0  0  0  0  0  0  0  0  0
    1.4034   66.1293   82.9880 C   0  0  0  0  0  0  0  0  0  0  0  0
    1.8211   67.3142   82.4934 N   0  0  0  0  0  0  0  0  0  0  0  0
    1.5428   67.9154   81.2108 C   0  0  0  0  0  0  0  0  0  0  0  0
    2.4390   69.1791   81.2724 C   0  0  0  0  0  0  0  0  0  0  0  0
    3.2505   69.3954   79.9771 C   0  0  0  0  0  0  0  0  0  0  0  0
    3.5244   70.9033   79.8833 C   0  0  0  0  0  0  0  0  0  0  0  0
    2.3143   71.4619   80.5643 C   0  0  0  0  0  0  0  0  0  0  0  0
    1.8345   72.7599   80.5104 C   0  0  0  0  0  0  0  0  0  0  0  0
    0.7153   73.0851   81.2789 C   0  0  0  0  0  0  0  0  0  0  0  0
    0.1072   72.1226   82.0989 C   0  0  0  0  0  0  0  0  0  0  0  0
    0.6058   70.8192   82.1568 C   0  0  0  0  0  0  0  0  0  0  0  0
    1.7042   70.4940   81.3734 C   0  0  0  0  0  0  0  0  0  0  0  0
    3.3761   68.9993   82.4255 N   0  0  0  0  0  0  0  0  0  0  0  0
    2.9161   67.9477   83.0475 C   0  0  0  0  0  0  0  0  0  0  0  0
    5.9631   67.4868   84.4117 C   0  0  0  0  0  0  0  0  0  0  0  0
    4.6440   68.1431   84.7936 C   0  0  0  0  0  0  0  0  0  0  0  0
   -0.3647   62.9346   83.3732 C   0  0  0  0  0  0  0  0  0  0  0  0
   -1.0621   62.5544   84.6609 C   0  0  0  0  0  0  0  0  0  0  0  0
   -0.3119   62.1811   85.7865 C   0  0  0  0  0  0  0  0  0  0  0  0
   -0.9482   61.8385   86.9808 C   0  0  0  0  0  0  0  0  0  0  0  0
   -2.3385   61.8767   87.0669 C   0  0  0  0  0  0  0  0  0  0  0  0
   -3.0939   62.2644   85.9622 C   0  0  0  0  0  0  0  0  0  0  0  0
   -2.4601   62.6076   84.7673 C   0  0  0  0  0  0  0  0  0  0  0  0
   -0.5679   65.4187   81.5455 C   0  0  0  0  0  0  0  0  0  0  0  0
   -0.2121   64.7316   80.2476 C   0  0  0  0  0  0  0  0  0  0  0  0
    0.1163   63.3692   80.1697 C   0  0  0  0  0  0  0  0  0  0  0  0
    0.4674   62.7895   78.9486 C   0  0  0  0  0  0  0  0  0  0  0  0
    0.5083   63.5639   77.7920 C   0  0  0  0  0  0  0  0  0  0  0  0
    0.2020   64.9204   77.8544 C   0  0  0  0  0  0  0  0  0  0  0  0
   -0.1502   65.5014   79.0738 C   0  0  0  0  0  0  0  0  0  0  0  0
 22 23  1  0  0  0
 23  1  1  0  0  0
  1  2  1  0  0  0
  2  3  2  0  0  0
  2  4  1  0  0  0
  4  5  1  0  0  0
  5  6  2  0  0  0
  6 24  1  0  0  0
 24 25  1  0  0  0
 25 26  2  0  0  0
 26 27  1  0  0  0
 27 28  2  0  0  0
 28 29  1  0  0  0
 29 30  2  0  0  0
  6  7  1  0  0  0
  7 31  1  0  0  0
 31 32  1  0  0  0
 32 33  2  0  0  0
 33 34  1  0  0  0
 34 35  2  0  0  0
 35 36  1  0  0  0
 36 37  2  0  0  0
  7  8  1  0  0  0
  8  9  1  0  0  0
  9 10  1  0  0  0
 10 11  1  0  0  0
 11 12  1  0  0  0
 12 13  1  0  0  0
 13 14  1  0  0  0
 14 15  2  0  0  0
 15 16  1  0  0  0
 16 17  2  0  0  0
 17 18  1  0  0  0
 18 19  2  0  0  0
 11 20  1  0  0  0
 20 21  2  0  0  0
 21  1  1  0  0  0
  8  4  2  0  0  0
 21  9  1  0  0  0
 30 25  1  0  0  0
 37 32  1  0  0  0
 19 11  1  0  0  0
 19 14  1  0  0  0
M  END
> <minimizedAffinity>
-9.98577

$$$$



 37 43  0  0  0  0  0  0  0  0999 V2000
    0.1228   67.2822   80.2968 N   0  0  0  0  0  0  0  0  0  0  0  0
   -0.0307   65.9782   80.8170 C   0  0  0  0  0  0  0  0  0  0  0  0
   -0.6020   65.0737   80.2097 O   0  0  0  0  0  0  0  0  0  0  0  0
    0.5247   65.7945   82.1611 C   0  0  0  0  0  0  0  0  0  0  0  0
    0.4759   64.6753   82.9490 N   0  0  0  0  0  0  0  0  0  0  0  0
    1.0828   65.0031   84.0776 C   0  0  0  0  0  0  0  0  0  0  0  0
    1.5494   66.3147   84.0303 N   0  0  0  0  0  0  0  0  0  0  0  0
    1.1654   66.8232   82.8160 C   0  0  0  0  0  0  0  0  0  0  0  0
    1.3078   68.0397   82.2480 N   0  0  0  0  0  0  0  0  0  0  0  0
    1.6767   69.2939   82.8604 C   0  0  0  0  0  0  0  0  0  0  0  0
    1.5109   70.2695   81.6668 C   0  0  0  0  0  0  0  0  0  0  0  0
    0.7470   71.5544   82.0518 C   0  0  0  0  0  0  0  0  0  0  0  0
    1.2192   72.6471   81.0820 C   0  0  0  0  0  0  0  0  0  0  0  0
    2.6235   72.2071   80.8092 C   0  0  0  0  0  0  0  0  0  0  0  0
    3.6551   72.9534   80.2646 C   0  0  0  0  0  0  0  0  0  0  0  0
    4.8797   72.3233   80.0357 C   0  0  0  0  0  0  0  0  0  0  0  0
    5.0500   70.9628   80.3333 C   0  0  0  0  0  0  0  0  0  0  0  0
    3.9999   70.2147   80.8704 C   0  0  0  0  0  0  0  0  0  0  0  0
    2.7916   70.8507   81.1183 C   0  0  0  0  0  0  0  0  0  0  0  0
    0.7551   69.5385   80.6017 N   0  0  0  0  0  0  0  0  0  0  0  0
    0.7292   68.3027   81.0219 C   0  0  0  0  0  0  0  0  0  0  0  0
   -1.8463   68.1835   79.1173 C   0  0  0  0  0  0  0  0  0  0  0  0
   -0.4598   67.5681   78.9923 C   0  0  0  0  0  0  0  0  0  0  0  0
    1.2203   64.0816   85.2576 C   0  0  0  0  0  0  0  0  0  0  0  0
   -0.0925   63.6745   85.8899 C   0  0  0  0  0  0  0  0  0  0  0  0
   -1.0784   63.0364   85.1216 C   0  0  0  0  0  0  0  0  0  0  0  0
   -2.2880   62.6492   85.7004 C   0  0  0  0  0  0  0  0  0  0  0  0
   -2.5210   62.8841   87.0540 C   0  0  0  0  0  0  0  0  0  0  0  0
   -1.5426   63.4993   87.8322 C   0  0  0  0  0  0  0  0  0  0  0  0
   -0.3323   63.8870   87.2559 C   0  0  0  0  0  0  0  0  0  0  0  0
    2.3572   66.9488   85.0600 C   0  0  0  0  0  0  0  0  0  0  0  0
    3.8359   66.6571   84.9532 C   0  0  0  0  0  0  0  0  0  0  0  0
    4.4300   65.5109   85.5041 C   0  0  0  0  0  0  0  0  0  0  0  0
    5.8075   65.3038   85.4033 C   0  0  0  0  0  0  0  0  0  0  0  0
    6.6118   66.2433   84.7635 C   0  0  0  0  0  0  0  0  0  0  0  0
    6.0412   67.3939   84.2264 C   0  0  0  0  0  0  0  0  0  0  0  0
    4.6645   67.6022   84.3252 C   0  0  0  0  0  0  0  0  0  0  0  0
 22 23  1  0  0  0
 23  1  1  0  0  0
  1  2  1  0  0  0
  2  3  2  0  0  0
  2  4  1  0  0  0
  4  5  1  0  0  0
  5  6  2  0  0  0
  6 24  1  0  0  0
 24 25  1  0  0  0
 25 26  2  0  0  0
 26 27  1  0  0  0
 27 28  2  0  0  0
 28 29  1  0  0  0
 29 30  2  0  0  0
  6  7  1  0  0  0
  7 31  1  0  0  0
 31 32  1  0  0  0
 32 33  2  0  0  0
 33 34  1  0  0  0
 34 35  2  0  0  0
 35 36  1  0  0  0
 36 37  2  0  0  0
  7  8  1  0  0  0
  8  9  1  0  0  0
  9 10  1  0  0  0
 10 11  1  0  0  0
 11 12  1  0  0  0
 12 13  1  0  0  0
 13 14  1  0  0  0
 14 15  2  0  0  0
 15 16  1  0  0  0
 16 17  2  0  0  0
 17 18  1  0  0  0
 18 19  2  0  0  0
 11 20  1  0  0  0
 20 21  2  0  0  0
 21  1  1  0  0  0
  8  4  2  0  0  0
 21  9  1  0  0  0
 30 25  1  0  0  0
 37 32  1  0  0  0
 19 11  1  0  0  0
 19 14  1  0  0  0
M  END
> <minimizedAffinity>
-9.85738

$$$$



 37 43  0  0  0  0  0  0  0  0999 V2000
   -0.8478   63.7574   85.9537 N   0  0  0  0  0  0  0  0  0  0  0  0
   -1.7810   62.7929   85.5139 C   0  0  0  0  0  0  0  0  0  0  0  0
   -2.7457   62.4330   86.1871 O   0  0  0  0  0  0  0  0  0  0  0  0
   -1.4905   62.2297   84.1920 C   0  0  0  0  0  0  0  0  0  0  0  0
   -2.1661   61.2398   83.5291 N   0  0  0  0  0  0  0  0  0  0  0  0
   -1.5128   61.0565   82.3938 C   0  0  0  0  0  0  0  0  0  0  0  0
   -0.4320   61.9296   82.2936 N   0  0  0  0  0  0  0  0  0  0  0  0
   -0.4066   62.6559   83.4565 C   0  0  0  0  0  0  0  0  0  0  0  0
    0.4305   63.6076   83.9218 N   0  0  0  0  0  0  0  0  0  0  0  0
    1.7448   63.9748   83.4508 C   0  0  0  0  0  0  0  0  0  0  0  0
    2.1618   65.0223   84.5151 C   0  0  0  0  0  0  0  0  0  0  0  0
    3.5996   64.8032   85.0325 C   0  0  0  0  0  0  0  0  0  0  0  0
    4.1068   66.1753   85.4989 C   0  0  0  0  0  0  0  0  0  0  0  0
    3.3668   67.0893   84.5730 C   0  0  0  0  0  0  0  0  0  0  0  0
    3.6432   68.4169   84.2921 C   0  0  0  0  0  0  0  0  0  0  0  0
    2.7804   69.1073   83.4390 C   0  0  0  0  0  0  0  0  0  0  0  0
    1.6518   68.4732   82.8978 C   0  0  0  0  0  0  0  0  0  0  0  0
    1.3738   67.1375   83.1969 C   0  0  0  0  0  0  0  0  0  0  0  0
    2.2469   66.4482   84.0266 C   0  0  0  0  0  0  0  0  0  0  0  0
    1.1971   64.9027   85.6531 N   0  0  0  0  0  0  0  0  0  0  0  0
    0.2631   64.1132   85.1960 C   0  0  0  0  0  0  0  0  0  0  0  0
   -0.4433   63.4141   88.3619 C   0  0  0  0  0  0  0  0  0  0  0  0
   -1.0260   64.3195   87.2861 C   0  0  0  0  0  0  0  0  0  0  0  0
   -1.8820   60.0211   81.3680 C   0  0  0  0  0  0  0  0  0  0  0  0
   -2.3225   60.5887   80.0365 C   0  0  0  0  0  0  0  0  0  0  0  0
   -1.8724   60.0113   78.8393 C   0  0  0  0  0  0  0  0  0  0  0  0
   -2.2824   60.5234   77.6072 C   0  0  0  0  0  0  0  0  0  0  0  0
   -3.1548   61.6089   77.5578 C   0  0  0  0  0  0  0  0  0  0  0  0
   -3.6243   62.1788   78.7394 C   0  0  0  0  0  0  0  0  0  0  0  0
   -3.2161   61.6684   79.9723 C   0  0  0  0  0  0  0  0  0  0  0  0
    0.4226   62.0662   81.1249 C   0  0  0  0  0  0  0  0  0  0  0  0
    0.1188   63.2777   80.2746 C   0  0  0  0  0  0  0  0  0  0  0  0
   -0.2216   64.5262   80.8179 C   0  0  0  0  0  0  0  0  0  0  0  0
   -0.5230   65.6070   79.9863 C   0  0  0  0  0  0  0  0  0  0  0  0
   -0.5017   65.4530   78.6025 C   0  0  0  0  0  0  0  0  0  0  0  0
   -0.1826   64.2169   78.0472 C   0  0  0  0  0  0  0  0  0  0  0  0
    0.1200   63.1358   78.8767 C   0  0  0  0  0  0  0  0  0  0  0  0
 22 23  1  0  0  0
 23  1  1  0  0  0
  1  2  1  0  0  0
  2  3  2  0  0  0
  2  4  1  0  0  0
  4  5  1  0  0  0
  5  6  2  0  0  0
  6 24  1  0  0  0
 24 25  1  0  0  0
 25 26  2  0  0  0
 26 27  1  0  0  0
 27 28  2  0  0  0
 28 29  1  0  0  0
 29 30  2  0  0  0
  6  7  1  0  0  0
  7 31  1  0  0  0
 31 32  1  0  0  0
 32 33  2  0  0  0
 33 34  1  0  0  0
 34 35  2  0  0  0
 35 36  1  0  0  0
 36 37  2  0  0  0
  7  8  1  0  0  0
  8  9  1  0  0  0
  9 10  1  0  0  0
 10 11  1  0  0  0
 11 12  1  0  0  0
 12 13  1  0  0  0
 13 14  1  0  0  0
 14 15  2  0  0  0
 15 16  1  0  0  0
 16 17  2  0  0  0
 17 18  1  0  0  0
 18 19  2  0  0  0
 11 20  1  0  0  0
 20 21  2  0  0  0
 21  1  1  0  0  0
  8  4  2  0  0  0
 21  9  1  0  0  0
 30 25  1  0  0  0
 37 32  1  0  0  0
 19 11  1  0  0  0
 19 14  1  0  0  0
M  END
> <minimizedAffinity>
-9.61057

$$$$



 37 43  0  0  0  0  0  0  0  0999 V2000
    4.6155   66.0378   84.9958 N   0  0  0  0  0  0  0  0  0  0  0  0
    5.3371   67.0556   84.3340 C   0  0  0  0  0  0  0  0  0  0  0  0
    6.5407   67.2463   84.5024 O   0  0  0  0  0  0  0  0  0  0  0  0
    4.5253   67.8913   83.4444 C   0  0  0  0  0  0  0  0  0  0  0  0
    4.9196   68.9861   82.7221 N   0  0  0  0  0  0  0  0  0  0  0  0
    3.8339   69.4181   82.1022 C   0  0  0  0  0  0  0  0  0  0  0  0
    2.7389   68.6068   82.3903 N   0  0  0  0  0  0  0  0  0  0  0  0
    3.1802   67.6513   83.2694 C   0  0  0  0  0  0  0  0  0  0  0  0
    2.5561   66.6388   83.9083 N   0  0  0  0  0  0  0  0  0  0  0  0
    1.1422   66.4049   84.0821 C   0  0  0  0  0  0  0  0  0  0  0  0
    1.1567   65.1639   85.0114 C   0  0  0  0  0  0  0  0  0  0  0  0
    0.1729   65.2958   86.1937 C   0  0  0  0  0  0  0  0  0  0  0  0
   -0.2131   63.8660   86.5987 C   0  0  0  0  0  0  0  0  0  0  0  0
   -0.1148   63.1548   85.2854 C   0  0  0  0  0  0  0  0  0  0  0  0
   -0.6478   61.9223   84.9467 C   0  0  0  0  0  0  0  0  0  0  0  0
   -0.3811   61.4120   83.6750 C   0  0  0  0  0  0  0  0  0  0  0  0
    0.4235   62.1246   82.7731 C   0  0  0  0  0  0  0  0  0  0  0  0
    0.9675   63.3611   83.1281 C   0  0  0  0  0  0  0  0  0  0  0  0
    0.6806   63.8757   84.3847 C   0  0  0  0  0  0  0  0  0  0  0  0
    2.5516   65.0213   85.5349 N   0  0  0  0  0  0  0  0  0  0  0  0
    3.2448   65.8717   84.8273 C   0  0  0  0  0  0  0  0  0  0  0  0
    5.4214   65.8600   87.3195 C   0  0  0  0  0  0  0  0  0  0  0  0
    5.3343   65.2030   85.9493 C   0  0  0  0  0  0  0  0  0  0  0  0
    3.7946   70.6400   81.2270 C   0  0  0  0  0  0  0  0  0  0  0  0
    2.8347   71.7127   81.6929 C   0  0  0  0  0  0  0  0  0  0  0  0
    3.1198   72.4640   82.8433 C   0  0  0  0  0  0  0  0  0  0  0  0
    2.2437   73.4619   83.2735 C   0  0  0  0  0  0  0  0  0  0  0  0
    1.0807   73.7278   82.5534 C   0  0  0  0  0  0  0  0  0  0  0  0
    0.7958   73.0020   81.3986 C   0  0  0  0  0  0  0  0  0  0  0  0
    1.6703   72.0042   80.9663 C   0  0  0  0  0  0  0  0  0  0  0  0
    1.4236   68.7371   81.7839 C   0  0  0  0  0  0  0  0  0  0  0  0
    1.0710   67.6232   80.8258 C   0  0  0  0  0  0  0  0  0  0  0  0
   -0.1819   66.9905   80.8179 C   0  0  0  0  0  0  0  0  0  0  0  0
   -0.4464   65.9446   79.9311 C   0  0  0  0  0  0  0  0  0  0  0  0
    0.5392   65.5075   79.0500 C   0  0  0  0  0  0  0  0  0  0  0  0
    1.7929   66.1127   79.0562 C   0  0  0  0  0  0  0  0  0  0  0  0
    2.0589   67.1589   79.9411 C   0  0  0  0  0  0  0  0  0  0  0  0
 22 23  1  0  0  0
 23  1  1  0  0  0
  1  2  1  0  0  0
  2  3  2  0  0  0
  2  4  1  0  0  0
  4  5  1  0  0  0
  5  6  2  0  0  0
  6 24  1  0  0  0
 24 25  1  0  0  0
 25 26  2  0  0  0
 26 27  1  0  0  0
 27 28  2  0  0  0
 28 29  1  0  0  0
 29 30  2  0  0  0
  6  7  1  0  0  0
  7 31  1  0  0  0
 31 32  1  0  0  0
 32 33  2  0  0  0
 33 34  1  0  0  0
 34 35  2  0  0  0
 35 36  1  0  0  0
 36 37  2  0  0  0
  7  8  1  0  0  0
  8  9  1  0  0  0
  9 10  1  0  0  0
 10 11  1  0  0  0
 11 12  1  0  0  0
 12 13  1  0  0  0
 13 14  1  0  0  0
 14 15  2  0  0  0
 15 16  1  0  0  0
 16 17  2  0  0  0
 17 18  1  0  0  0
 18 19  2  0  0  0
 11 20  1  0  0  0
 20 21  2  0  0  0
 21  1  1  0  0  0
  8  4  2  0  0  0
 21  9  1  0  0  0
 30 25  1  0  0  0
 37 32  1  0  0  0
 19 11  1  0  0  0
 19 14  1  0  0  0
M  END
> <minimizedAffinity>
-9.47235

$$$$



 37 43  0  0  0  0  0  0  0  0999 V2000
    0.4463   65.2993   79.4654 N   0  0  0  0  0  0  0  0  0  0  0  0
    0.4060   63.9696   79.9397 C   0  0  0  0  0  0  0  0  0  0  0  0
    0.2946   62.9935   79.1994 O   0  0  0  0  0  0  0  0  0  0  0  0
    0.4798   63.8460   81.3986 C   0  0  0  0  0  0  0  0  0  0  0  0
    0.4009   62.7065   82.1543 N   0  0  0  0  0  0  0  0  0  0  0  0
    0.4865   63.1031   83.4132 C   0  0  0  0  0  0  0  0  0  0  0  0
    0.6443   64.4849   83.4912 N   0  0  0  0  0  0  0  0  0  0  0  0
    0.6109   64.9559   82.2038 C   0  0  0  0  0  0  0  0  0  0  0  0
    0.6767   66.2001   81.6836 N   0  0  0  0  0  0  0  0  0  0  0  0
    0.5263   67.4740   82.3460 C   0  0  0  0  0  0  0  0  0  0  0  0
    0.5832   68.4465   81.1397 C   0  0  0  0  0  0  0  0  0  0  0  0
   -0.5260   69.5190   81.1888 C   0  0  0  0  0  0  0  0  0  0  0  0
    0.0082   70.7317   80.4133 C   0  0  0  0  0  0  0  0  0  0  0  0
    1.4786   70.6153   80.6677 C   0  0  0  0  0  0  0  0  0  0  0  0
    2.4481   71.5895   80.4983 C   0  0  0  0  0  0  0  0  0  0  0  0
    3.7803   71.2472   80.7366 C   0  0  0  0  0  0  0  0  0  0  0  0
    4.1255   69.9420   81.1190 C   0  0  0  0  0  0  0  0  0  0  0  0
    3.1422   68.9625   81.2749 C   0  0  0  0  0  0  0  0  0  0  0  0
    1.8167   69.3131   81.0599 C   0  0  0  0  0  0  0  0  0  0  0  0
    0.4269   67.6217   79.9006 N   0  0  0  0  0  0  0  0  0  0  0  0
    0.5233   66.3906   80.3243 C   0  0  0  0  0  0  0  0  0  0  0  0
   -1.1011   65.2210   77.5469 C   0  0  0  0  0  0  0  0  0  0  0  0
    0.3118   65.5149   78.0307 C   0  0  0  0  0  0  0  0  0  0  0  0
    0.3968   62.1779   84.5949 C   0  0  0  0  0  0  0  0  0  0  0  0
   -0.6775   62.5433   85.5955 C   0  0  0  0  0  0  0  0  0  0  0  0
   -2.0323   62.4573   85.2399 C   0  0  0  0  0  0  0  0  0  0  0  0
   -3.0291   62.7834   86.1609 C   0  0  0  0  0  0  0  0  0  0  0  0
   -2.6842   63.1869   87.4493 C   0  0  0  0  0  0  0  0  0  0  0  0
   -1.3432   63.2577   87.8209 C   0  0  0  0  0  0  0  0  0  0  0  0
   -0.3448   62.9319   86.9020 C   0  0  0  0  0  0  0  0  0  0  0  0
    0.8814   65.2279   84.7186 C   0  0  0  0  0  0  0  0  0  0  0  0
    2.3398   65.4994   85.0055 C   0  0  0  0  0  0  0  0  0  0  0  0
    3.1357   66.3274   84.1987 C   0  0  0  0  0  0  0  0  0  0  0  0
    4.4875   66.5212   84.4913 C   0  0  0  0  0  0  0  0  0  0  0  0
    5.0659   65.8814   85.5845 C   0  0  0  0  0  0  0  0  0  0  0  0
    4.2950   65.0433   86.3853 C   0  0  0  0  0  0  0  0  0  0  0  0
    2.9435   64.8492   86.0951 C   0  0  0  0  0  0  0  0  0  0  0  0
 22 23  1  0  0  0
 23  1  1  0  0  0
  1  2  1  0  0  0
  2  3  2  0  0  0
  2  4  1  0  0  0
  4  5  1  0  0  0
  5  6  2  0  0  0
  6 24  1  0  0  0
 24 25  1  0  0  0
 25 26  2  0  0  0
 26 27  1  0  0  0
 27 28  2  0  0  0
 28 29  1  0  0  0
 29 30  2  0  0  0
  6  7  1  0  0  0
  7 31  1  0  0  0
 31 32  1  0  0  0
 32 33  2  0  0  0
 33 34  1  0  0  0
 34 35  2  0  0  0
 35 36  1  0  0  0
 36 37  2  0  0  0
  7  8  1  0  0  0
  8  9  1  0  0  0
  9 10  1  0  0  0
 10 11  1  0  0  0
 11 12  1  0  0  0
 12 13  1  0  0  0
 13 14  1  0  0  0
 14 15  2  0  0  0
 15 16  1  0  0  0
 16 17  2  0  0  0
 17 18  1  0  0  0
 18 19  2  0  0  0
 11 20  1  0  0  0
 20 21  2  0  0  0
 21  1  1  0  0  0
  8  4  2  0  0  0
 21  9  1  0  0  0
 30 25  1  0  0  0
 37 32  1  0  0  0
 19 11  1  0  0  0
 19 14  1  0  0  0
M  END
> <minimizedAffinity>
-9.46305

$$$$
