


 36 40  0  0  0  0  0  0  0  0999 V2000
    0.8153   64.6995   84.5673 C   0  0  0  0  0  0  0  0  0  0  0  0
    1.6328   65.8112   84.8245 C   0  0  0  0  0  0  0  0  0  0  0  0
    1.8344   66.7842   83.8461 C   0  0  0  0  0  0  0  0  0  0  0  0
    1.1963   66.6564   82.6148 C   0  0  0  0  0  0  0  0  0  0  0  0
    0.3714   65.5606   82.3500 C   0  0  0  0  0  0  0  0  0  0  0  0
    0.1553   64.5636   83.3252 C   0  0  0  0  0  0  0  0  0  0  0  0
   -0.7487   63.4423   83.0128 C   0  0  0  0  0  0  0  0  0  0  0  0
   -1.5291   62.9675   84.0100 N   0  0  0  0  0  0  0  0  0  0  0  0
   -2.3299   61.9278   83.7314 C   0  0  0  0  0  0  0  0  0  0  0  0
   -3.1048   61.5076   84.7750 O   0  0  0  0  0  0  0  0  0  0  0  0
   -2.3447   61.3387   82.4722 C   0  0  0  0  0  0  0  0  0  0  0  0
   -3.0429   60.2896   81.9287 N   0  0  0  0  0  0  0  0  0  0  0  0
   -2.6164   60.2036   80.6869 C   0  0  0  0  0  0  0  0  0  0  0  0
   -2.9885   59.3020   79.6577 C   0  0  0  0  0  0  0  0  0  0  0  0
   -2.4104   59.3976   78.4487 C   0  0  0  0  0  0  0  0  0  0  0  0
   -1.3996   60.4079   78.1503 C   0  0  0  0  0  0  0  0  0  0  0  0
   -0.7186   60.3691   76.4073 Br  0  0  0  0  0  0  0  0  0  0  0  0
   -1.0258   61.2833   79.1152 C   0  0  0  0  0  0  0  0  0  0  0  0
    0.0044   62.3668   78.9336 C   0  0  0  0  0  0  0  0  0  0  0  0
   -1.6488   61.1669   80.3835 N   0  0  0  0  0  0  0  0  0  0  0  0
   -1.4818   61.9022   81.5455 C   0  0  0  0  0  0  0  0  0  0  0  0
   -0.6577   62.9474   81.7564 N   0  0  0  0  0  0  0  0  0  0  0  0
   -2.8363   62.1395   85.4636 H   0  0  0  0  0  0  0  0  0  0  0  0
    1.4426   67.9086   81.3794 S   0  0  0  0  0  0  0  0  0  0  0  0
    2.1437   67.2810   80.2797 O   0  0  0  0  0  0  0  0  0  0  0  0
    0.1844   68.5906   81.1674 O   0  0  0  0  0  0  0  0  0  0  0  0
    2.5110   68.9807   82.1544 N   0  0  0  0  0  0  0  0  0  0  0  0
    1.9086   70.0338   83.0310 C   0  0  0  0  0  0  0  0  0  0  0  0
    1.4274   71.2659   82.2367 C   0  0  0  0  0  0  0  0  0  0  0  0
    2.4819   71.8331   81.3722 N   0  0  0  0  0  0  0  0  0  0  0  0
    1.9589   72.9552   80.5939 C   0  0  0  0  0  0  0  0  0  0  0  0
    3.0139   70.7852   80.4764 C   0  0  0  0  0  0  0  0  0  0  0  0
    3.5552   69.5800   81.2667 C   0  0  0  0  0  0  0  0  0  0  0  0
    0.5447   63.7735   85.5448 O   0  0  0  0  0  0  0  0  0  0  0  0
   -0.8213   63.6453   87.5712 C   0  0  0  0  0  0  0  0  0  0  0  0
    0.3705   64.2794   86.8722 C   0  0  0  0  0  0  0  0  0  0  0  0
 35 36  1  0  0  0
 36 34  1  0  0  0
 34  1  1  0  0  0
  1  2  1  0  0  0
  2  3  2  0  0  0
  3  4  1  0  0  0
  4 24  1  0  0  0
 24 25  2  0  0  0
 24 26  2  0  0  0
 24 27  1  0  0  0
 27 28  1  0  0  0
 28 29  1  0  0  0
 29 30  1  0  0  0
 30 31  1  0  0  0
 30 32  1  0  0  0
 32 33  1  0  0  0
  4  5  2  0  0  0
  5  6  1  0  0  0
  6  7  1  0  0  0
  7  8  2  0  0  0
  8  9  1  0  0  0
  9 10  1  0  0  0
  9 11  2  0  0  0
 11 12  1  0  0  0
 12 13  2  0  0  0
 13 14  1  0  0  0
 14 15  2  0  0  0
 15 16  1  0  0  0
 16 17  1  0  0  0
 16 18  2  0  0  0
 18 19  1  0  0  0
 18 20  1  0  0  0
 20 21  1  0  0  0
 21 22  2  0  0  0
  6  1  2  0  0  0
 22  7  1  0  0  0
 33 27  1  0  0  0
 21 11  1  0  0  0
 20 13  1  0  0  0
 10 23  1  0  0  0
M  END
> <minimizedAffinity>
-10.70913

$$$$



 36 40  0  0  0  0  0  0  0  0999 V2000
    3.3090   66.3831   84.5468 C   0  0  0  0  0  0  0  0  0  0  0  0
    4.1381   67.4792   84.2609 C   0  0  0  0  0  0  0  0  0  0  0  0
    3.7093   68.4856   83.3960 C   0  0  0  0  0  0  0  0  0  0  0  0
    2.4373   68.4067   82.8344 C   0  0  0  0  0  0  0  0  0  0  0  0
    1.5982   67.3268   83.1193 C   0  0  0  0  0  0  0  0  0  0  0  0
    2.0130   66.2967   83.9903 C   0  0  0  0  0  0  0  0  0  0  0  0
    1.0817   65.1936   84.2871 C   0  0  0  0  0  0  0  0  0  0  0  0
    0.9835   64.7824   85.5717 N   0  0  0  0  0  0  0  0  0  0  0  0
    0.1573   63.7589   85.8354 C   0  0  0  0  0  0  0  0  0  0  0  0
    0.0896   63.4039   87.1528 O   0  0  0  0  0  0  0  0  0  0  0  0
   -0.5569   63.1227   84.8264 C   0  0  0  0  0  0  0  0  0  0  0  0
   -1.4447   62.0763   84.8136 N   0  0  0  0  0  0  0  0  0  0  0  0
   -1.7796   61.9292   83.5496 C   0  0  0  0  0  0  0  0  0  0  0  0
   -2.6649   61.0011   82.9452 C   0  0  0  0  0  0  0  0  0  0  0  0
   -2.8545   61.0318   81.6155 C   0  0  0  0  0  0  0  0  0  0  0  0
   -2.1739   61.9972   80.7574 C   0  0  0  0  0  0  0  0  0  0  0  0
   -2.5749   61.8700   78.9336 Br  0  0  0  0  0  0  0  0  0  0  0  0
   -1.3229   62.8966   81.3088 C   0  0  0  0  0  0  0  0  0  0  0  0
   -0.5611   63.9390   80.5333 C   0  0  0  0  0  0  0  0  0  0  0  0
   -1.1380   62.8489   82.7136 N   0  0  0  0  0  0  0  0  0  0  0  0
   -0.3504   63.6225   83.5503 C   0  0  0  0  0  0  0  0  0  0  0  0
    0.4576   64.6482   83.2171 N   0  0  0  0  0  0  0  0  0  0  0  0
    0.6984   64.0529   87.5449 H   0  0  0  0  0  0  0  0  0  0  0  0
    1.8902   69.7010   81.7480 S   0  0  0  0  0  0  0  0  0  0  0  0
    2.3360   69.3481   80.4170 O   0  0  0  0  0  0  0  0  0  0  0  0
    0.4934   69.9618   82.0202 O   0  0  0  0  0  0  0  0  0  0  0  0
    2.8000   71.0346   82.2821 N   0  0  0  0  0  0  0  0  0  0  0  0
    2.0965   72.0488   83.1287 C   0  0  0  0  0  0  0  0  0  0  0  0
    1.2983   73.0714   82.2931 C   0  0  0  0  0  0  0  0  0  0  0  0
    2.1213   73.7241   81.2550 N   0  0  0  0  0  0  0  0  0  0  0  0
    1.3061   74.6332   80.4504 C   0  0  0  0  0  0  0  0  0  0  0  0
    2.7531   72.6996   80.3978 C   0  0  0  0  0  0  0  0  0  0  0  0
    3.6040   71.7142   81.2195 C   0  0  0  0  0  0  0  0  0  0  0  0
    3.6848   65.4243   85.4554 O   0  0  0  0  0  0  0  0  0  0  0  0
    5.4024   65.4182   87.1985 C   0  0  0  0  0  0  0  0  0  0  0  0
    5.0872   65.3066   85.7155 C   0  0  0  0  0  0  0  0  0  0  0  0
 35 36  1  0  0  0
 36 34  1  0  0  0
 34  1  1  0  0  0
  1  2  1  0  0  0
  2  3  2  0  0  0
  3  4  1  0  0  0
  4 24  1  0  0  0
 24 25  2  0  0  0
 24 26  2  0  0  0
 24 27  1  0  0  0
 27 28  1  0  0  0
 28 29  1  0  0  0
 29 30  1  0  0  0
 30 31  1  0  0  0
 30 32  1  0  0  0
 32 33  1  0  0  0
  4  5  2  0  0  0
  5  6  1  0  0  0
  6  7  1  0  0  0
  7  8  2  0  0  0
  8  9  1  0  0  0
  9 10  1  0  0  0
  9 11  2  0  0  0
 11 12  1  0  0  0
 12 13  2  0  0  0
 13 14  1  0  0  0
 14 15  2  0  0  0
 15 16  1  0  0  0
 16 17  1  0  0  0
 16 18  2  0  0  0
 18 19  1  0  0  0
 18 20  1  0  0  0
 20 21  1  0  0  0
 21 22  2  0  0  0
  6  1  2  0  0  0
 22  7  1  0  0  0
 33 27  1  0  0  0
 21 11  1  0  0  0
 20 13  1  0  0  0
 10 23  1  0  0  0
M  END
> <minimizedAffinity>
-10.51308

$$$$



 36 40  0  0  0  0  0  0  0  0999 V2000
   -1.0565   63.3580   83.6074 C   0  0  0  0  0  0  0  0  0  0  0  0
   -1.6846   62.1296   83.8666 C   0  0  0  0  0  0  0  0  0  0  0  0
   -2.3983   61.4731   82.8644 C   0  0  0  0  0  0  0  0  0  0  0  0
   -2.4632   62.0360   81.5922 C   0  0  0  0  0  0  0  0  0  0  0  0
   -1.8334   63.2524   81.3181 C   0  0  0  0  0  0  0  0  0  0  0  0
   -1.1076   63.9344   82.3181 C   0  0  0  0  0  0  0  0  0  0  0  0
   -0.4324   65.1985   81.9746 C   0  0  0  0  0  0  0  0  0  0  0  0
   -0.8813   65.8775   80.8945 N   0  0  0  0  0  0  0  0  0  0  0  0
   -0.2467   67.0129   80.5661 C   0  0  0  0  0  0  0  0  0  0  0  0
   -0.7593   67.6598   79.4776 O   0  0  0  0  0  0  0  0  0  0  0  0
    0.8490   67.4689   81.2904 C   0  0  0  0  0  0  0  0  0  0  0  0
    1.6668   68.5650   81.1757 N   0  0  0  0  0  0  0  0  0  0  0  0
    2.5365   68.4450   82.1558 C   0  0  0  0  0  0  0  0  0  0  0  0
    3.6165   69.2877   82.5219 C   0  0  0  0  0  0  0  0  0  0  0  0
    4.3880   68.9618   83.5723 C   0  0  0  0  0  0  0  0  0  0  0  0
    4.1540   67.7562   84.3617 C   0  0  0  0  0  0  0  0  0  0  0  0
    5.3434   67.4848   85.7812 Br  0  0  0  0  0  0  0  0  0  0  0  0
    3.1279   66.9331   84.0347 C   0  0  0  0  0  0  0  0  0  0  0  0
    2.7848   65.6625   84.7670 C   0  0  0  0  0  0  0  0  0  0  0  0
    2.3245   67.2957   82.9242 N   0  0  0  0  0  0  0  0  0  0  0  0
    1.2251   66.6706   82.3592 C   0  0  0  0  0  0  0  0  0  0  0  0
    0.6301   65.5253   82.7467 N   0  0  0  0  0  0  0  0  0  0  0  0
   -1.4963   67.0685   79.2482 H   0  0  0  0  0  0  0  0  0  0  0  0
   -3.3584   61.1857   80.3154 S   0  0  0  0  0  0  0  0  0  0  0  0
   -3.0725   59.7753   80.4704 O   0  0  0  0  0  0  0  0  0  0  0  0
   -4.7207   61.6731   80.3146 O   0  0  0  0  0  0  0  0  0  0  0  0
   -2.5898   61.7365   78.9021 N   0  0  0  0  0  0  0  0  0  0  0  0
   -3.3130   61.5372   77.6069 C   0  0  0  0  0  0  0  0  0  0  0  0
   -3.1161   60.1210   77.0268 C   0  0  0  0  0  0  0  0  0  0  0  0
   -1.6920   59.7497   76.9032 N   0  0  0  0  0  0  0  0  0  0  0  0
   -1.5600   58.3787   76.4117 C   0  0  0  0  0  0  0  0  0  0  0  0
   -1.0195   59.8977   78.2106 C   0  0  0  0  0  0  0  0  0  0  0  0
   -1.1576   61.3275   78.7644 C   0  0  0  0  0  0  0  0  0  0  0  0
   -0.2861   63.9785   84.5599 O   0  0  0  0  0  0  0  0  0  0  0  0
    0.5944   64.1514   86.8367 C   0  0  0  0  0  0  0  0  0  0  0  0
   -0.2120   63.3376   85.8374 C   0  0  0  0  0  0  0  0  0  0  0  0
 35 36  1  0  0  0
 36 34  1  0  0  0
 34  1  1  0  0  0
  1  2  1  0  0  0
  2  3  2  0  0  0
  3  4  1  0  0  0
  4 24  1  0  0  0
 24 25  2  0  0  0
 24 26  2  0  0  0
 24 27  1  0  0  0
 27 28  1  0  0  0
 28 29  1  0  0  0
 29 30  1  0  0  0
 30 31  1  0  0  0
 30 32  1  0  0  0
 32 33  1  0  0  0
  4  5  2  0  0  0
  5  6  1  0  0  0
  6  7  1  0  0  0
  7  8  2  0  0  0
  8  9  1  0  0  0
  9 10  1  0  0  0
  9 11  2  0  0  0
 11 12  1  0  0  0
 12 13  2  0  0  0
 13 14  1  0  0  0
 14 15  2  0  0  0
 15 16  1  0  0  0
 16 17  1  0  0  0
 16 18  2  0  0  0
 18 19  1  0  0  0
 18 20  1  0  0  0
 20 21  1  0  0  0
 21 22  2  0  0  0
  6  1  2  0  0  0
 22  7  1  0  0  0
 33 27  1  0  0  0
 21 11  1  0  0  0
 20 13  1  0  0  0
 10 23  1  0  0  0
M  END
> <minimizedAffinity>
-10.32789

$$$$



 36 40  0  0  0  0  0  0  0  0999 V2000
    0.2150   64.5181   84.1230 C   0  0  0  0  0  0  0  0  0  0  0  0
   -0.5693   63.3661   83.9548 C   0  0  0  0  0  0  0  0  0  0  0  0
   -0.7873   62.8365   82.6833 C   0  0  0  0  0  0  0  0  0  0  0  0
   -0.1986   63.4480   81.5791 C   0  0  0  0  0  0  0  0  0  0  0  0
    0.5931   64.5886   81.7341 C   0  0  0  0  0  0  0  0  0  0  0  0
    0.8250   65.1420   83.0114 C   0  0  0  0  0  0  0  0  0  0  0  0
    1.6933   66.3269   83.1300 C   0  0  0  0  0  0  0  0  0  0  0  0
    2.8671   66.1828   83.7861 N   0  0  0  0  0  0  0  0  0  0  0  0
    3.6428   67.2693   83.9185 C   0  0  0  0  0  0  0  0  0  0  0  0
    4.8215   67.0536   84.5743 O   0  0  0  0  0  0  0  0  0  0  0  0
    3.2498   68.5076   83.4234 C   0  0  0  0  0  0  0  0  0  0  0  0
    3.8294   69.7516   83.4234 N   0  0  0  0  0  0  0  0  0  0  0  0
    2.9660   70.5296   82.8062 C   0  0  0  0  0  0  0  0  0  0  0  0
    3.0356   71.9159   82.5167 C   0  0  0  0  0  0  0  0  0  0  0  0
    2.0200   72.5122   81.8705 C   0  0  0  0  0  0  0  0  0  0  0  0
    0.8308   71.7772   81.4495 C   0  0  0  0  0  0  0  0  0  0  0  0
   -0.4683   72.7944   80.5657 Br  0  0  0  0  0  0  0  0  0  0  0  0
    0.7382   70.4508   81.7123 C   0  0  0  0  0  0  0  0  0  0  0  0
   -0.4337   69.5841   81.3329 C   0  0  0  0  0  0  0  0  0  0  0  0
    1.8213   69.8400   82.3936 N   0  0  0  0  0  0  0  0  0  0  0  0
    2.0154   68.5281   82.7935 C   0  0  0  0  0  0  0  0  0  0  0  0
    1.1911   67.4760   82.6211 N   0  0  0  0  0  0  0  0  0  0  0  0
    4.7527   66.1012   84.7581 H   0  0  0  0  0  0  0  0  0  0  0  0
   -0.4651   62.7579   79.9644 S   0  0  0  0  0  0  0  0  0  0  0  0
   -0.7833   63.8615   79.0837 O   0  0  0  0  0  0  0  0  0  0  0  0
    0.6307   61.8610   79.6677 O   0  0  0  0  0  0  0  0  0  0  0  0
   -1.8721   61.8303   80.1917 N   0  0  0  0  0  0  0  0  0  0  0  0
   -1.7722   60.3595   79.9330 C   0  0  0  0  0  0  0  0  0  0  0  0
   -1.9171   60.0069   78.4379 C   0  0  0  0  0  0  0  0  0  0  0  0
   -3.1426   60.5705   77.8365 N   0  0  0  0  0  0  0  0  0  0  0  0
   -3.2006   60.2642   76.4077 C   0  0  0  0  0  0  0  0  0  0  0  0
   -3.1825   62.0314   78.0546 C   0  0  0  0  0  0  0  0  0  0  0  0
   -3.1034   62.3872   79.5503 C   0  0  0  0  0  0  0  0  0  0  0  0
    0.5028   65.0069   85.3737 O   0  0  0  0  0  0  0  0  0  0  0  0
   -0.1449   64.0531   87.5324 C   0  0  0  0  0  0  0  0  0  0  0  0
    0.8399   64.0407   86.3743 C   0  0  0  0  0  0  0  0  0  0  0  0
 35 36  1  0  0  0
 36 34  1  0  0  0
 34  1  1  0  0  0
  1  2  1  0  0  0
  2  3  2  0  0  0
  3  4  1  0  0  0
  4 24  1  0  0  0
 24 25  2  0  0  0
 24 26  2  0  0  0
 24 27  1  0  0  0
 27 28  1  0  0  0
 28 29  1  0  0  0
 29 30  1  0  0  0
 30 31  1  0  0  0
 30 32  1  0  0  0
 32 33  1  0  0  0
  4  5  2  0  0  0
  5  6  1  0  0  0
  6  7  1  0  0  0
  7  8  2  0  0  0
  8  9  1  0  0  0
  9 10  1  0  0  0
  9 11  2  0  0  0
 11 12  1  0  0  0
 12 13  2  0  0  0
 13 14  1  0  0  0
 14 15  2  0  0  0
 15 16  1  0  0  0
 16 17  1  0  0  0
 16 18  2  0  0  0
 18 19  1  0  0  0
 18 20  1  0  0  0
 20 21  1  0  0  0
 21 22  2  0  0  0
  6  1  2  0  0  0
 22  7  1  0  0  0
 33 27  1  0  0  0
 21 11  1  0  0  0
 20 13  1  0  0  0
 10 23  1  0  0  0
M  END
> <minimizedAffinity>
-10.21498

$$$$



 36 40  0  0  0  0  0  0  0  0999 V2000
   -1.1892   63.3898   86.1345 C   0  0  0  0  0  0  0  0  0  0  0  0
   -2.2851   62.5147   86.0713 C   0  0  0  0  0  0  0  0  0  0  0  0
   -2.5480   61.7910   84.9087 C   0  0  0  0  0  0  0  0  0  0  0  0
   -1.6974   61.9252   83.8141 C   0  0  0  0  0  0  0  0  0  0  0  0
   -0.5971   62.7843   83.8678 C   0  0  0  0  0  0  0  0  0  0  0  0
   -0.3139   63.5274   85.0337 C   0  0  0  0  0  0  0  0  0  0  0  0
    0.8762   64.3964   85.0558 C   0  0  0  0  0  0  0  0  0  0  0  0
    1.7626   64.2228   86.0623 N   0  0  0  0  0  0  0  0  0  0  0  0
    2.8304   65.0343   86.0972 C   0  0  0  0  0  0  0  0  0  0  0  0
    3.6958   64.7961   87.1269 O   0  0  0  0  0  0  0  0  0  0  0  0
    3.0134   66.0360   85.1505 C   0  0  0  0  0  0  0  0  0  0  0  0
    3.9852   66.9853   84.9562 N   0  0  0  0  0  0  0  0  0  0  0  0
    3.5998   67.6539   83.8904 C   0  0  0  0  0  0  0  0  0  0  0  0
    4.2158   68.7473   83.2305 C   0  0  0  0  0  0  0  0  0  0  0  0
    3.6328   69.2834   82.1454 C   0  0  0  0  0  0  0  0  0  0  0  0
    2.3716   68.7764   81.6127 C   0  0  0  0  0  0  0  0  0  0  0  0
    1.7281   69.6644   80.0959 Br  0  0  0  0  0  0  0  0  0  0  0  0
    1.7614   67.7313   82.2231 C   0  0  0  0  0  0  0  0  0  0  0  0
    0.4606   67.1197   81.7733 C   0  0  0  0  0  0  0  0  0  0  0  0
    2.3936   67.1787   83.3655 N   0  0  0  0  0  0  0  0  0  0  0  0
    2.0223   66.1261   84.1858 C   0  0  0  0  0  0  0  0  0  0  0  0
    0.9306   65.3421   84.0890 N   0  0  0  0  0  0  0  0  0  0  0  0
    3.2566   64.0444   87.5601 H   0  0  0  0  0  0  0  0  0  0  0  0
   -2.0274   60.9868   82.3427 S   0  0  0  0  0  0  0  0  0  0  0  0
   -0.7444   60.6446   81.7666 O   0  0  0  0  0  0  0  0  0  0  0  0
   -2.9952   59.9611   82.6661 O   0  0  0  0  0  0  0  0  0  0  0  0
   -2.7772   62.1354   81.3377 N   0  0  0  0  0  0  0  0  0  0  0  0
   -4.0802   61.7499   80.7102 C   0  0  0  0  0  0  0  0  0  0  0  0
   -3.8985   60.9125   79.4271 C   0  0  0  0  0  0  0  0  0  0  0  0
   -3.0070   61.5622   78.4451 N   0  0  0  0  0  0  0  0  0  0  0  0
   -2.8155   60.7019   77.2781 C   0  0  0  0  0  0  0  0  0  0  0  0
   -1.7080   61.8747   79.0763 C   0  0  0  0  0  0  0  0  0  0  0  0
   -1.8781   62.7645   80.3211 C   0  0  0  0  0  0  0  0  0  0  0  0
   -0.8718   64.0502   87.2960 O   0  0  0  0  0  0  0  0  0  0  0  0
    0.2965   62.7839   89.0339 C   0  0  0  0  0  0  0  0  0  0  0  0
   -1.0299   63.3133   88.5126 C   0  0  0  0  0  0  0  0  0  0  0  0
 35 36  1  0  0  0
 36 34  1  0  0  0
 34  1  1  0  0  0
  1  2  1  0  0  0
  2  3  2  0  0  0
  3  4  1  0  0  0
  4 24  1  0  0  0
 24 25  2  0  0  0
 24 26  2  0  0  0
 24 27  1  0  0  0
 27 28  1  0  0  0
 28 29  1  0  0  0
 29 30  1  0  0  0
 30 31  1  0  0  0
 30 32  1  0  0  0
 32 33  1  0  0  0
  4  5  2  0  0  0
  5  6  1  0  0  0
  6  7  1  0  0  0
  7  8  2  0  0  0
  8  9  1  0  0  0
  9 10  1  0  0  0
  9 11  2  0  0  0
 11 12  1  0  0  0
 12 13  2  0  0  0
 13 14  1  0  0  0
 14 15  2  0  0  0
 15 16  1  0  0  0
 16 17  1  0  0  0
 16 18  2  0  0  0
 18 19  1  0  0  0
 18 20  1  0  0  0
 20 21  1  0  0  0
 21 22  2  0  0  0
  6  1  2  0  0  0
 22  7  1  0  0  0
 33 27  1  0  0  0
 21 11  1  0  0  0
 20 13  1  0  0  0
 10 23  1  0  0  0
M  END
> <minimizedAffinity>
-10.21125

$$$$



 36 40  0  0  0  0  0  0  0  0999 V2000
    0.1546   64.0409   85.0735 C   0  0  0  0  0  0  0  0  0  0  0  0
   -0.6643   62.9007   85.0620 C   0  0  0  0  0  0  0  0  0  0  0  0
   -0.8686   62.1867   83.8817 C   0  0  0  0  0  0  0  0  0  0  0  0
   -0.2320   62.6011   82.7144 C   0  0  0  0  0  0  0  0  0  0  0  0
    0.5942   63.7275   82.7147 C   0  0  0  0  0  0  0  0  0  0  0  0
    0.8131   64.4656   83.8975 C   0  0  0  0  0  0  0  0  0  0  0  0
    1.7184   65.6279   83.8574 C   0  0  0  0  0  0  0  0  0  0  0  0
    2.8838   65.5407   84.5379 N   0  0  0  0  0  0  0  0  0  0  0  0
    3.6932   66.6105   84.5243 C   0  0  0  0  0  0  0  0  0  0  0  0
    4.8613   66.4521   85.2147 O   0  0  0  0  0  0  0  0  0  0  0  0
    3.3425   67.7789   83.8575 C   0  0  0  0  0  0  0  0  0  0  0  0
    3.9616   68.9921   83.6890 N   0  0  0  0  0  0  0  0  0  0  0  0
    3.1265   69.7024   82.9613 C   0  0  0  0  0  0  0  0  0  0  0  0
    3.2418   71.0318   82.4817 C   0  0  0  0  0  0  0  0  0  0  0  0
    2.2489   71.5630   81.7491 C   0  0  0  0  0  0  0  0  0  0  0  0
    1.0388   70.8137   81.4241 C   0  0  0  0  0  0  0  0  0  0  0  0
   -0.2228   71.7370   80.3949 Br  0  0  0  0  0  0  0  0  0  0  0  0
    0.9026   69.5406   81.8687 C   0  0  0  0  0  0  0  0  0  0  0  0
   -0.2947   68.6661   81.6034 C   0  0  0  0  0  0  0  0  0  0  0  0
    1.9622   68.9978   82.6386 N   0  0  0  0  0  0  0  0  0  0  0  0
    2.1124   67.7493   83.2196 C   0  0  0  0  0  0  0  0  0  0  0  0
    1.2557   66.7096   83.1883 N   0  0  0  0  0  0  0  0  0  0  0  0
    4.7612   65.5374   85.5291 H   0  0  0  0  0  0  0  0  0  0  0  0
   -0.4818   61.6765   81.2186 S   0  0  0  0  0  0  0  0  0  0  0  0
    0.7884   61.6489   80.5253 O   0  0  0  0  0  0  0  0  0  0  0  0
   -1.1739   60.4508   81.5529 O   0  0  0  0  0  0  0  0  0  0  0  0
   -1.5471   62.6745   80.3464 N   0  0  0  0  0  0  0  0  0  0  0  0
   -2.9994   62.3134   80.3716 C   0  0  0  0  0  0  0  0  0  0  0  0
   -3.3593   61.2215   79.3425 C   0  0  0  0  0  0  0  0  0  0  0  0
   -2.9197   61.5619   77.9743 N   0  0  0  0  0  0  0  0  0  0  0  0
   -3.2249   60.4699   77.0507 C   0  0  0  0  0  0  0  0  0  0  0  0
   -1.4710   61.8531   77.9706 C   0  0  0  0  0  0  0  0  0  0  0  0
   -1.1147   62.9871   78.9489 C   0  0  0  0  0  0  0  0  0  0  0  0
    0.4278   64.7093   86.2415 O   0  0  0  0  0  0  0  0  0  0  0  0
    0.9202   63.4205   88.2628 C   0  0  0  0  0  0  0  0  0  0  0  0
   -0.1258   64.1541   87.4389 C   0  0  0  0  0  0  0  0  0  0  0  0
 35 36  1  0  0  0
 36 34  1  0  0  0
 34  1  1  0  0  0
  1  2  1  0  0  0
  2  3  2  0  0  0
  3  4  1  0  0  0
  4 24  1  0  0  0
 24 25  2  0  0  0
 24 26  2  0  0  0
 24 27  1  0  0  0
 27 28  1  0  0  0
 28 29  1  0  0  0
 29 30  1  0  0  0
 30 31  1  0  0  0
 30 32  1  0  0  0
 32 33  1  0  0  0
  4  5  2  0  0  0
  5  6  1  0  0  0
  6  7  1  0  0  0
  7  8  2  0  0  0
  8  9  1  0  0  0
  9 10  1  0  0  0
  9 11  2  0  0  0
 11 12  1  0  0  0
 12 13  2  0  0  0
 13 14  1  0  0  0
 14 15  2  0  0  0
 15 16  1  0  0  0
 16 17  1  0  0  0
 16 18  2  0  0  0
 18 19  1  0  0  0
 18 20  1  0  0  0
 20 21  1  0  0  0
 21 22  2  0  0  0
  6  1  2  0  0  0
 22  7  1  0  0  0
 33 27  1  0  0  0
 21 11  1  0  0  0
 20 13  1  0  0  0
 10 23  1  0  0  0
M  END
> <minimizedAffinity>
-10.19543

$$$$



 36 40  0  0  0  0  0  0  0  0999 V2000
   -0.7183   63.5271   85.1847 C   0  0  0  0  0  0  0  0  0  0  0  0
   -1.6978   62.5235   85.2492 C   0  0  0  0  0  0  0  0  0  0  0  0
   -2.2356   61.9820   84.0820 C   0  0  0  0  0  0  0  0  0  0  0  0
   -1.7741   62.4292   82.8464 C   0  0  0  0  0  0  0  0  0  0  0  0
   -0.7920   63.4195   82.7684 C   0  0  0  0  0  0  0  0  0  0  0  0
   -0.2357   63.9824   83.9370 C   0  0  0  0  0  0  0  0  0  0  0  0
    0.8211   65.0012   83.8063 C   0  0  0  0  0  0  0  0  0  0  0  0
    0.7690   65.8272   82.7368 N   0  0  0  0  0  0  0  0  0  0  0  0
    1.7480   66.7348   82.6038 C   0  0  0  0  0  0  0  0  0  0  0  0
    1.6279   67.5495   81.5140 O   0  0  0  0  0  0  0  0  0  0  0  0
    2.7950   66.8133   83.5152 C   0  0  0  0  0  0  0  0  0  0  0  0
    3.9007   67.6199   83.6158 N   0  0  0  0  0  0  0  0  0  0  0  0
    4.5271   67.2058   84.6964 C   0  0  0  0  0  0  0  0  0  0  0  0
    5.7290   67.6728   85.2864 C   0  0  0  0  0  0  0  0  0  0  0  0
    6.1920   67.0886   86.4040 C   0  0  0  0  0  0  0  0  0  0  0  0
    5.4956   65.9757   87.0428 C   0  0  0  0  0  0  0  0  0  0  0  0
    6.3084   65.3039   88.5891 Br  0  0  0  0  0  0  0  0  0  0  0  0
    4.3439   65.5099   86.5008 C   0  0  0  0  0  0  0  0  0  0  0  0
    3.5352   64.3699   87.0619 C   0  0  0  0  0  0  0  0  0  0  0  0
    3.8712   66.1410   85.3225 N   0  0  0  0  0  0  0  0  0  0  0  0
    2.7460   65.8956   84.5527 C   0  0  0  0  0  0  0  0  0  0  0  0
    1.7918   64.9645   84.7487 N   0  0  0  0  0  0  0  0  0  0  0  0
    0.7997   67.2146   81.1300 H   0  0  0  0  0  0  0  0  0  0  0  0
   -2.4500   61.7223   81.3638 S   0  0  0  0  0  0  0  0  0  0  0  0
   -2.4284   60.2854   81.5363 O   0  0  0  0  0  0  0  0  0  0  0  0
   -3.6805   62.4158   81.0505 O   0  0  0  0  0  0  0  0  0  0  0  0
   -1.2858   62.1398   80.1969 N   0  0  0  0  0  0  0  0  0  0  0  0
   -1.7270   63.0289   79.0766 C   0  0  0  0  0  0  0  0  0  0  0  0
   -2.4240   62.2528   77.9397 C   0  0  0  0  0  0  0  0  0  0  0  0
   -1.6103   61.1277   77.4366 N   0  0  0  0  0  0  0  0  0  0  0  0
   -2.3397   60.3863   76.4085 C   0  0  0  0  0  0  0  0  0  0  0  0
   -1.2421   60.2351   78.5551 C   0  0  0  0  0  0  0  0  0  0  0  0
   -0.4886   60.9916   79.6643 C   0  0  0  0  0  0  0  0  0  0  0  0
   -0.1236   64.0154   86.3221 O   0  0  0  0  0  0  0  0  0  0  0  0
    0.2725   63.0418   88.5321 C   0  0  0  0  0  0  0  0  0  0  0  0
   -0.7306   63.6515   87.5661 C   0  0  0  0  0  0  0  0  0  0  0  0
 35 36  1  0  0  0
 36 34  1  0  0  0
 34  1  1  0  0  0
  1  2  1  0  0  0
  2  3  2  0  0  0
  3  4  1  0  0  0
  4 24  1  0  0  0
 24 25  2  0  0  0
 24 26  2  0  0  0
 24 27  1  0  0  0
 27 28  1  0  0  0
 28 29  1  0  0  0
 29 30  1  0  0  0
 30 31  1  0  0  0
 30 32  1  0  0  0
 32 33  1  0  0  0
  4  5  2  0  0  0
  5  6  1  0  0  0
  6  7  1  0  0  0
  7  8  2  0  0  0
  8  9  1  0  0  0
  9 10  1  0  0  0
  9 11  2  0  0  0
 11 12  1  0  0  0
 12 13  2  0  0  0
 13 14  1  0  0  0
 14 15  2  0  0  0
 15 16  1  0  0  0
 16 17  1  0  0  0
 16 18  2  0  0  0
 18 19  1  0  0  0
 18 20  1  0  0  0
 20 21  1  0  0  0
 21 22  2  0  0  0
  6  1  2  0  0  0
 22  7  1  0  0  0
 33 27  1  0  0  0
 21 11  1  0  0  0
 20 13  1  0  0  0
 10 23  1  0  0  0
M  END
> <minimizedAffinity>
-10.18026

$$$$



 36 40  0  0  0  0  0  0  0  0999 V2000
    0.6239   66.6134   81.6966 C   0  0  0  0  0  0  0  0  0  0  0  0
    1.4494   67.6915   81.3406 C   0  0  0  0  0  0  0  0  0  0  0  0
    2.5285   68.0541   82.1460 C   0  0  0  0  0  0  0  0  0  0  0  0
    2.7967   67.3200   83.2988 C   0  0  0  0  0  0  0  0  0  0  0  0
    1.9895   66.2382   83.6586 C   0  0  0  0  0  0  0  0  0  0  0  0
    0.8914   65.8555   82.8590 C   0  0  0  0  0  0  0  0  0  0  0  0
    0.0872   64.6877   83.2608 C   0  0  0  0  0  0  0  0  0  0  0  0
   -0.0266   64.4278   84.5830 N   0  0  0  0  0  0  0  0  0  0  0  0
   -0.7346   63.3475   84.9456 C   0  0  0  0  0  0  0  0  0  0  0  0
   -0.8268   63.1509   86.2943 O   0  0  0  0  0  0  0  0  0  0  0  0
   -1.3129   62.5069   84.0012 C   0  0  0  0  0  0  0  0  0  0  0  0
   -2.0650   61.3624   84.0905 N   0  0  0  0  0  0  0  0  0  0  0  0
   -2.3135   61.0202   82.8444 C   0  0  0  0  0  0  0  0  0  0  0  0
   -3.0468   59.9200   82.3323 C   0  0  0  0  0  0  0  0  0  0  0  0
   -3.1696   59.7632   81.0037 C   0  0  0  0  0  0  0  0  0  0  0  0
   -2.5680   60.6949   80.0541 C   0  0  0  0  0  0  0  0  0  0  0  0
   -2.8556   60.2953   78.2483 Br  0  0  0  0  0  0  0  0  0  0  0  0
   -1.8625   61.7560   80.5162 C   0  0  0  0  0  0  0  0  0  0  0  0
   -1.1941   62.7840   79.6417 C   0  0  0  0  0  0  0  0  0  0  0  0
   -1.7462   61.9046   81.9214 N   0  0  0  0  0  0  0  0  0  0  0  0
   -1.1030   62.8688   82.6799 C   0  0  0  0  0  0  0  0  0  0  0  0
   -0.4097   63.9404   82.2476 N   0  0  0  0  0  0  0  0  0  0  0  0
   -0.3226   63.9151   86.6218 H   0  0  0  0  0  0  0  0  0  0  0  0
    4.1836   67.7755   84.3106 S   0  0  0  0  0  0  0  0  0  0  0  0
    4.9785   68.7065   83.5385 O   0  0  0  0  0  0  0  0  0  0  0  0
    3.6905   68.1290   85.6241 O   0  0  0  0  0  0  0  0  0  0  0  0
    5.0411   66.3124   84.4344 N   0  0  0  0  0  0  0  0  0  0  0  0
    4.3548   65.1720   85.1191 C   0  0  0  0  0  0  0  0  0  0  0  0
    4.4742   65.2413   86.6559 C   0  0  0  0  0  0  0  0  0  0  0  0
    5.8726   65.3719   87.1127 N   0  0  0  0  0  0  0  0  0  0  0  0
    5.9270   65.4990   88.5685 C   0  0  0  0  0  0  0  0  0  0  0  0
    6.5043   66.5413   86.4671 C   0  0  0  0  0  0  0  0  0  0  0  0
    6.4456   66.4462   84.9317 C   0  0  0  0  0  0  0  0  0  0  0  0
   -0.3947   66.1955   80.8758 O   0  0  0  0  0  0  0  0  0  0  0  0
    0.9677   65.4906   78.9691 C   0  0  0  0  0  0  0  0  0  0  0  0
   -0.1837   66.3485   79.4686 C   0  0  0  0  0  0  0  0  0  0  0  0
 35 36  1  0  0  0
 36 34  1  0  0  0
 34  1  1  0  0  0
  1  2  1  0  0  0
  2  3  2  0  0  0
  3  4  1  0  0  0
  4 24  1  0  0  0
 24 25  2  0  0  0
 24 26  2  0  0  0
 24 27  1  0  0  0
 27 28  1  0  0  0
 28 29  1  0  0  0
 29 30  1  0  0  0
 30 31  1  0  0  0
 30 32  1  0  0  0
 32 33  1  0  0  0
  4  5  2  0  0  0
  5  6  1  0  0  0
  6  7  1  0  0  0
  7  8  2  0  0  0
  8  9  1  0  0  0
  9 10  1  0  0  0
  9 11  2  0  0  0
 11 12  1  0  0  0
 12 13  2  0  0  0
 13 14  1  0  0  0
 14 15  2  0  0  0
 15 16  1  0  0  0
 16 17  1  0  0  0
 16 18  2  0  0  0
 18 19  1  0  0  0
 18 20  1  0  0  0
 20 21  1  0  0  0
 21 22  2  0  0  0
  6  1  2  0  0  0
 22  7  1  0  0  0
 33 27  1  0  0  0
 21 11  1  0  0  0
 20 13  1  0  0  0
 10 23  1  0  0  0
M  END
> <minimizedAffinity>
-10.04774

$$$$



 36 40  0  0  0  0  0  0  0  0999 V2000
    3.3693   67.1229   83.6082 C   0  0  0  0  0  0  0  0  0  0  0  0
    4.2247   68.2349   83.6541 C   0  0  0  0  0  0  0  0  0  0  0  0
    3.9931   69.3414   82.8376 C   0  0  0  0  0  0  0  0  0  0  0  0
    2.8880   69.3449   81.9899 C   0  0  0  0  0  0  0  0  0  0  0  0
    2.0228   68.2491   81.9427 C   0  0  0  0  0  0  0  0  0  0  0  0
    2.2397   67.1185   82.7590 C   0  0  0  0  0  0  0  0  0  0  0  0
    1.2825   65.9995   82.6990 C   0  0  0  0  0  0  0  0  0  0  0  0
    0.7748   65.6708   81.4894 N   0  0  0  0  0  0  0  0  0  0  0  0
   -0.1186   64.6712   81.4410 C   0  0  0  0  0  0  0  0  0  0  0  0
   -0.5793   64.3766   80.1892 O   0  0  0  0  0  0  0  0  0  0  0  0
   -0.5310   64.0084   82.5915 C   0  0  0  0  0  0  0  0  0  0  0  0
   -1.4107   62.9815   82.8256 N   0  0  0  0  0  0  0  0  0  0  0  0
   -1.3816   62.7984   84.1284 C   0  0  0  0  0  0  0  0  0  0  0  0
   -2.0902   61.8702   84.9326 C   0  0  0  0  0  0  0  0  0  0  0  0
   -1.9044   61.8651   86.2630 C   0  0  0  0  0  0  0  0  0  0  0  0
   -0.9884   62.7920   86.9215 C   0  0  0  0  0  0  0  0  0  0  0  0
   -0.8765   62.6212   88.7821 Br  0  0  0  0  0  0  0  0  0  0  0  0
   -0.2974   63.6892   86.1769 C   0  0  0  0  0  0  0  0  0  0  0  0
    0.6731   64.6964   86.7356 C   0  0  0  0  0  0  0  0  0  0  0  0
   -0.5063   63.6772   84.7746 N   0  0  0  0  0  0  0  0  0  0  0  0
    0.0451   64.4555   83.7701 C   0  0  0  0  0  0  0  0  0  0  0  0
    0.9501   65.4468   83.8889 N   0  0  0  0  0  0  0  0  0  0  0  0
   -0.0793   65.0196   79.6581 H   0  0  0  0  0  0  0  0  0  0  0  0
    2.5884   70.7648   80.9659 S   0  0  0  0  0  0  0  0  0  0  0  0
    3.4075   70.6094   79.7828 O   0  0  0  0  0  0  0  0  0  0  0  0
    1.1580   70.9550   80.8611 O   0  0  0  0  0  0  0  0  0  0  0  0
    3.2317   72.0312   81.9009 N   0  0  0  0  0  0  0  0  0  0  0  0
    2.3514   72.6154   82.9611 C   0  0  0  0  0  0  0  0  0  0  0  0
    1.3732   73.6722   82.4072 C   0  0  0  0  0  0  0  0  0  0  0  0
    2.0563   74.7328   81.6394 N   0  0  0  0  0  0  0  0  0  0  0  0
    1.0826   75.6711   81.0823 C   0  0  0  0  0  0  0  0  0  0  0  0
    2.8680   74.1291   80.5623 C   0  0  0  0  0  0  0  0  0  0  0  0
    3.8910   73.1207   81.1161 C   0  0  0  0  0  0  0  0  0  0  0  0
    3.5384   66.0591   84.4600 O   0  0  0  0  0  0  0  0  0  0  0  0
    4.7551   65.1789   86.3923 C   0  0  0  0  0  0  0  0  0  0  0  0
    4.8253   65.9309   85.0729 C   0  0  0  0  0  0  0  0  0  0  0  0
 35 36  1  0  0  0
 36 34  1  0  0  0
 34  1  1  0  0  0
  1  2  1  0  0  0
  2  3  2  0  0  0
  3  4  1  0  0  0
  4 24  1  0  0  0
 24 25  2  0  0  0
 24 26  2  0  0  0
 24 27  1  0  0  0
 27 28  1  0  0  0
 28 29  1  0  0  0
 29 30  1  0  0  0
 30 31  1  0  0  0
 30 32  1  0  0  0
 32 33  1  0  0  0
  4  5  2  0  0  0
  5  6  1  0  0  0
  6  7  1  0  0  0
  7  8  2  0  0  0
  8  9  1  0  0  0
  9 10  1  0  0  0
  9 11  2  0  0  0
 11 12  1  0  0  0
 12 13  2  0  0  0
 13 14  1  0  0  0
 14 15  2  0  0  0
 15 16  1  0  0  0
 16 17  1  0  0  0
 16 18  2  0  0  0
 18 19  1  0  0  0
 18 20  1  0  0  0
 20 21  1  0  0  0
 21 22  2  0  0  0
  6  1  2  0  0  0
 22  7  1  0  0  0
 33 27  1  0  0  0
 21 11  1  0  0  0
 20 13  1  0  0  0
 10 23  1  0  0  0
M  END
> <minimizedAffinity>
-9.91155

$$$$
