


 34 37  0  0  0  0  0  0  0  0999 V2000
    1.2298   65.2787   84.0860 C   0  0  0  0  0  0  0  0  0  0  0  0
    2.4012   65.6784   84.6818 N   0  0  0  0  0  0  0  0  0  0  0  0
    3.0485   66.7566   84.1861 C   0  0  0  0  0  0  0  0  0  0  0  0
    4.2198   67.1527   84.7789 O   0  0  0  0  0  0  0  0  0  0  0  0
    2.4656   67.4208   83.0991 C   0  0  0  0  0  0  0  0  0  0  0  0
    2.8446   68.5212   82.4234 N   0  0  0  0  0  0  0  0  0  0  0  0
    1.9039   68.6583   81.4436 N   0  0  0  0  0  0  0  0  0  0  0  0
    0.8736   67.7414   81.5316 C   0  0  0  0  0  0  0  0  0  0  0  0
    1.2384   66.9280   82.5718 C   0  0  0  0  0  0  0  0  0  0  0  0
    0.5611   65.8595   83.0398 N   0  0  0  0  0  0  0  0  0  0  0  0
    4.5055   67.9143   84.2404 H   0  0  0  0  0  0  0  0  0  0  0  0
    0.2238   62.9758   83.9759 C   0  0  0  0  0  0  0  0  0  0  0  0
   -0.3997   61.8981   84.5215 N   0  0  0  0  0  0  0  0  0  0  0  0
   -0.7043   61.9557   85.8385 C   0  0  0  0  0  0  0  0  0  0  0  0
   -0.4310   63.0468   86.6463 C   0  0  0  0  0  0  0  0  0  0  0  0
    0.2040   64.1428   86.0563 C   0  0  0  0  0  0  0  0  0  0  0  0
    0.5549   64.1279   84.6930 C   0  0  0  0  0  0  0  0  0  0  0  0
   -0.7827   63.0863   88.0896 C   0  0  0  0  0  0  0  0  0  0  0  0
    0.3188   63.0065   89.1142 C   0  0  0  0  0  0  0  0  0  0  0  0
   -1.9605   63.1843   88.4264 O   0  0  0  0  0  0  0  0  0  0  0  0
    0.4599   62.9705   82.6165 O   0  0  0  0  0  0  0  0  0  0  0  0
    0.2247   61.7252   81.9560 C   0  0  0  0  0  0  0  0  0  0  0  0
    1.5257   61.1892   81.3593 C   0  0  0  0  0  0  0  0  0  0  0  0
    3.7302   59.9859   81.7999 C   0  0  0  0  0  0  0  0  0  0  0  0
    2.3865   60.4225   82.3623 C   0  0  0  0  0  0  0  0  0  0  0  0
   -0.3260   67.6963   80.6507 C   0  0  0  0  0  0  0  0  0  0  0  0
   -0.2666   66.5390   79.6653 C   0  0  0  0  0  0  0  0  0  0  0  0
    1.9933   69.8198   80.5567 C   0  0  0  0  0  0  0  0  0  0  0  0
    1.2598   71.0047   81.0932 C   0  0  0  0  0  0  0  0  0  0  0  0
   -0.0270   71.2631   80.9435 N   0  0  0  0  0  0  0  0  0  0  0  0
   -0.2595   72.4487   81.5852 C   0  0  0  0  0  0  0  0  0  0  0  0
    0.9017   72.9369   82.1295 C   0  0  0  0  0  0  0  0  0  0  0  0
    1.8627   72.0215   81.8026 N   0  0  0  0  0  0  0  0  0  0  0  0
    3.2609   72.1304   82.1430 C   0  0  0  0  0  0  0  0  0  0  0  0
 24 25  1  0  0  0
 25 23  1  0  0  0
 23 22  1  0  0  0
 22 21  1  0  0  0
 21 12  1  0  0  0
 12 13  1  0  0  0
 13 14  2  0  0  0
 14 15  1  0  0  0
 15 18  1  0  0  0
 18 19  1  0  0  0
 18 20  2  0  0  0
 15 16  2  0  0  0
 16 17  1  0  0  0
 17  1  1  0  0  0
  1  2  1  0  0  0
  2  3  2  0  0  0
  3  4  1  0  0  0
  3  5  1  0  0  0
  5  6  2  0  0  0
  6  7  1  0  0  0
  7 28  1  0  0  0
 28 29  1  0  0  0
 29 30  2  0  0  0
 30 31  1  0  0  0
 31 32  2  0  0  0
 32 33  1  0  0  0
 33 34  1  0  0  0
  7  8  1  0  0  0
  8 26  1  0  0  0
 26 27  1  0  0  0
  8  9  2  0  0  0
  9 10  1  0  0  0
 17 12  2  0  0  0
 10  1  2  0  0  0
  9  5  1  0  0  0
 33 29  1  0  0  0
  4 11  1  0  0  0
M  END
> <minimizedAffinity>
-9.34151

$$$$



 34 37  0  0  0  0  0  0  0  0999 V2000
    1.1777   65.6122   83.5379 C   0  0  0  0  0  0  0  0  0  0  0  0
    0.7096   65.1985   84.7613 N   0  0  0  0  0  0  0  0  0  0  0  0
    0.0040   64.0476   84.8328 C   0  0  0  0  0  0  0  0  0  0  0  0
   -0.4663   63.6373   86.0537 O   0  0  0  0  0  0  0  0  0  0  0  0
   -0.1872   63.3285   83.6459 C   0  0  0  0  0  0  0  0  0  0  0  0
   -0.8024   62.1556   83.4072 N   0  0  0  0  0  0  0  0  0  0  0  0
   -0.7042   61.9900   82.0556 N   0  0  0  0  0  0  0  0  0  0  0  0
    0.0460   62.9677   81.4301 C   0  0  0  0  0  0  0  0  0  0  0  0
    0.3583   63.8437   82.4360 C   0  0  0  0  0  0  0  0  0  0  0  0
    1.0698   64.9842   82.3242 N   0  0  0  0  0  0  0  0  0  0  0  0
   -0.9554   62.8182   85.8497 H   0  0  0  0  0  0  0  0  0  0  0  0
    3.2519   66.9292   84.0770 C   0  0  0  0  0  0  0  0  0  0  0  0
    4.0013   68.0634   84.0785 N   0  0  0  0  0  0  0  0  0  0  0  0
    3.4633   69.1660   83.5079 C   0  0  0  0  0  0  0  0  0  0  0  0
    2.1996   69.2033   82.9429 C   0  0  0  0  0  0  0  0  0  0  0  0
    1.4495   68.0245   82.9624 C   0  0  0  0  0  0  0  0  0  0  0  0
    1.9687   66.8461   83.5313 C   0  0  0  0  0  0  0  0  0  0  0  0
    1.6300   70.4307   82.3284 C   0  0  0  0  0  0  0  0  0  0  0  0
    1.0474   70.3525   80.9413 C   0  0  0  0  0  0  0  0  0  0  0  0
    1.6404   71.4868   82.9566 O   0  0  0  0  0  0  0  0  0  0  0  0
    3.7479   65.8219   84.7338 O   0  0  0  0  0  0  0  0  0  0  0  0
    4.7815   66.0828   85.6855 C   0  0  0  0  0  0  0  0  0  0  0  0
    6.0236   65.2547   85.3576 C   0  0  0  0  0  0  0  0  0  0  0  0
    8.3935   66.1308   85.0141 C   0  0  0  0  0  0  0  0  0  0  0  0
    7.0018   65.9659   84.4237 C   0  0  0  0  0  0  0  0  0  0  0  0
    0.3868   63.0063   79.9811 C   0  0  0  0  0  0  0  0  0  0  0  0
   -0.5040   63.9695   79.2114 C   0  0  0  0  0  0  0  0  0  0  0  0
   -1.2291   60.7549   81.4702 C   0  0  0  0  0  0  0  0  0  0  0  0
   -2.3857   61.0025   80.5587 C   0  0  0  0  0  0  0  0  0  0  0  0
   -3.5603   61.5005   80.9010 N   0  0  0  0  0  0  0  0  0  0  0  0
   -4.3101   61.5412   79.7575 C   0  0  0  0  0  0  0  0  0  0  0  0
   -3.5938   61.0505   78.6949 C   0  0  0  0  0  0  0  0  0  0  0  0
   -2.3788   60.6999   79.2137 N   0  0  0  0  0  0  0  0  0  0  0  0
   -1.2977   60.1063   78.4641 C   0  0  0  0  0  0  0  0  0  0  0  0
 24 25  1  0  0  0
 25 23  1  0  0  0
 23 22  1  0  0  0
 22 21  1  0  0  0
 21 12  1  0  0  0
 12 13  1  0  0  0
 13 14  2  0  0  0
 14 15  1  0  0  0
 15 18  1  0  0  0
 18 19  1  0  0  0
 18 20  2  0  0  0
 15 16  2  0  0  0
 16 17  1  0  0  0
 17  1  1  0  0  0
  1  2  1  0  0  0
  2  3  2  0  0  0
  3  4  1  0  0  0
  3  5  1  0  0  0
  5  6  2  0  0  0
  6  7  1  0  0  0
  7 28  1  0  0  0
 28 29  1  0  0  0
 29 30  2  0  0  0
 30 31  1  0  0  0
 31 32  2  0  0  0
 32 33  1  0  0  0
 33 34  1  0  0  0
  7  8  1  0  0  0
  8 26  1  0  0  0
 26 27  1  0  0  0
  8  9  2  0  0  0
  9 10  1  0  0  0
 17 12  2  0  0  0
 10  1  2  0  0  0
  9  5  1  0  0  0
 33 29  1  0  0  0
  4 11  1  0  0  0
M  END
> <minimizedAffinity>
-9.12174

$$$$



 34 37  0  0  0  0  0  0  0  0999 V2000
    0.5282   65.1433   83.5760 C   0  0  0  0  0  0  0  0  0  0  0  0
    0.0915   65.1905   82.2744 N   0  0  0  0  0  0  0  0  0  0  0  0
    0.5263   66.1926   81.4781 C   0  0  0  0  0  0  0  0  0  0  0  0
    0.0869   66.2412   80.1801 O   0  0  0  0  0  0  0  0  0  0  0  0
    1.4238   67.1166   82.0287 C   0  0  0  0  0  0  0  0  0  0  0  0
    2.0475   68.1796   81.4883 N   0  0  0  0  0  0  0  0  0  0  0  0
    2.7604   68.7161   82.5216 N   0  0  0  0  0  0  0  0  0  0  0  0
    2.6977   67.9714   83.6842 C   0  0  0  0  0  0  0  0  0  0  0  0
    1.8226   66.9603   83.3864 C   0  0  0  0  0  0  0  0  0  0  0  0
    1.4146   65.9739   84.2111 N   0  0  0  0  0  0  0  0  0  0  0  0
    0.5048   67.0479   79.8246 H   0  0  0  0  0  0  0  0  0  0  0  0
   -0.3174   62.7866   83.8178 C   0  0  0  0  0  0  0  0  0  0  0  0
   -0.7583   61.7256   84.5443 N   0  0  0  0  0  0  0  0  0  0  0  0
   -0.8301   61.8769   85.8868 C   0  0  0  0  0  0  0  0  0  0  0  0
   -0.4964   63.0459   86.5501 C   0  0  0  0  0  0  0  0  0  0  0  0
   -0.0533   64.1221   85.7767 C   0  0  0  0  0  0  0  0  0  0  0  0
    0.0529   64.0118   84.3773 C   0  0  0  0  0  0  0  0  0  0  0  0
   -0.5911   63.1873   88.0264 C   0  0  0  0  0  0  0  0  0  0  0  0
    0.6759   63.2487   88.8389 C   0  0  0  0  0  0  0  0  0  0  0  0
   -1.6953   63.2532   88.5618 O   0  0  0  0  0  0  0  0  0  0  0  0
   -0.3239   62.6798   82.4422 O   0  0  0  0  0  0  0  0  0  0  0  0
   -0.0591   61.3742   81.9251 C   0  0  0  0  0  0  0  0  0  0  0  0
    1.3857   61.2828   81.4346 C   0  0  0  0  0  0  0  0  0  0  0  0
    3.5486   59.9730   81.7628 C   0  0  0  0  0  0  0  0  0  0  0  0
    2.3215   60.5847   82.4204 C   0  0  0  0  0  0  0  0  0  0  0  0
    3.4311   68.2680   84.9457 C   0  0  0  0  0  0  0  0  0  0  0  0
    4.7779   67.5632   85.0013 C   0  0  0  0  0  0  0  0  0  0  0  0
    3.6170   69.8707   82.2449 C   0  0  0  0  0  0  0  0  0  0  0  0
    2.8498   71.1507   82.1937 C   0  0  0  0  0  0  0  0  0  0  0  0
    1.7473   71.4307   82.8654 N   0  0  0  0  0  0  0  0  0  0  0  0
    1.3883   72.7007   82.5054 C   0  0  0  0  0  0  0  0  0  0  0  0
    2.2740   73.2096   81.5892 C   0  0  0  0  0  0  0  0  0  0  0  0
    3.1909   72.2160   81.3878 N   0  0  0  0  0  0  0  0  0  0  0  0
    4.3063   72.2903   80.4750 C   0  0  0  0  0  0  0  0  0  0  0  0
 24 25  1  0  0  0
 25 23  1  0  0  0
 23 22  1  0  0  0
 22 21  1  0  0  0
 21 12  1  0  0  0
 12 13  1  0  0  0
 13 14  2  0  0  0
 14 15  1  0  0  0
 15 18  1  0  0  0
 18 19  1  0  0  0
 18 20  2  0  0  0
 15 16  2  0  0  0
 16 17  1  0  0  0
 17  1  1  0  0  0
  1  2  1  0  0  0
  2  3  2  0  0  0
  3  4  1  0  0  0
  3  5  1  0  0  0
  5  6  2  0  0  0
  6  7  1  0  0  0
  7 28  1  0  0  0
 28 29  1  0  0  0
 29 30  2  0  0  0
 30 31  1  0  0  0
 31 32  2  0  0  0
 32 33  1  0  0  0
 33 34  1  0  0  0
  7  8  1  0  0  0
  8 26  1  0  0  0
 26 27  1  0  0  0
  8  9  2  0  0  0
  9 10  1  0  0  0
 17 12  2  0  0  0
 10  1  2  0  0  0
  9  5  1  0  0  0
 33 29  1  0  0  0
  4 11  1  0  0  0
M  END
> <minimizedAffinity>
-9.09703

$$$$



 34 37  0  0  0  0  0  0  0  0999 V2000
    0.8249   66.1905   81.1372 C   0  0  0  0  0  0  0  0  0  0  0  0
    1.2852   66.0733   79.8482 N   0  0  0  0  0  0  0  0  0  0  0  0
    0.8229   65.0602   79.0818 C   0  0  0  0  0  0  0  0  0  0  0  0
    1.2857   64.9415   77.7966 O   0  0  0  0  0  0  0  0  0  0  0  0
   -0.1251   64.1981   79.6480 C   0  0  0  0  0  0  0  0  0  0  0  0
   -0.7838   63.1424   79.1355 N   0  0  0  0  0  0  0  0  0  0  0  0
   -1.5401   62.6782   80.1730 N   0  0  0  0  0  0  0  0  0  0  0  0
   -1.4681   63.4647   81.3071 C   0  0  0  0  0  0  0  0  0  0  0  0
   -0.5438   64.4247   80.9897 C   0  0  0  0  0  0  0  0  0  0  0  0
   -0.1096   65.4244   81.7844 N   0  0  0  0  0  0  0  0  0  0  0  0
    0.8400   64.1402   77.4634 H   0  0  0  0  0  0  0  0  0  0  0  0
    2.2686   67.1988   82.9334 C   0  0  0  0  0  0  0  0  0  0  0  0
    2.7531   68.2444   83.6544 N   0  0  0  0  0  0  0  0  0  0  0  0
    2.3000   69.4801   83.3410 C   0  0  0  0  0  0  0  0  0  0  0  0
    1.3692   69.7310   82.3468 C   0  0  0  0  0  0  0  0  0  0  0  0
    0.8835   68.6361   81.6272 C   0  0  0  0  0  0  0  0  0  0  0  0
    1.3332   67.3312   81.9045 C   0  0  0  0  0  0  0  0  0  0  0  0
    0.8833   71.0986   82.0275 C   0  0  0  0  0  0  0  0  0  0  0  0
   -0.1408   71.2758   80.9369 C   0  0  0  0  0  0  0  0  0  0  0  0
    1.3197   72.0612   82.6544 O   0  0  0  0  0  0  0  0  0  0  0  0
    2.6510   65.9246   83.2993 O   0  0  0  0  0  0  0  0  0  0  0  0
    2.4861   65.6061   84.6826 C   0  0  0  0  0  0  0  0  0  0  0  0
    1.0007   65.5464   85.0380 C   0  0  0  0  0  0  0  0  0  0  0  0
    0.4350   64.0533   87.0261 C   0  0  0  0  0  0  0  0  0  0  0  0
    0.5422   64.1685   85.5136 C   0  0  0  0  0  0  0  0  0  0  0  0
   -2.2390   63.2500   82.5628 C   0  0  0  0  0  0  0  0  0  0  0  0
   -1.7079   62.0705   83.3632 C   0  0  0  0  0  0  0  0  0  0  0  0
   -2.4407   61.5515   79.9224 C   0  0  0  0  0  0  0  0  0  0  0  0
   -2.8067   61.4237   78.4803 C   0  0  0  0  0  0  0  0  0  0  0  0
   -3.6664   62.1790   77.8205 N   0  0  0  0  0  0  0  0  0  0  0  0
   -3.6964   61.7002   76.5393 C   0  0  0  0  0  0  0  0  0  0  0  0
   -2.8525   60.6261   76.4073 C   0  0  0  0  0  0  0  0  0  0  0  0
   -2.3014   60.4498   77.6456 N   0  0  0  0  0  0  0  0  0  0  0  0
   -1.3645   59.4091   77.9951 C   0  0  0  0  0  0  0  0  0  0  0  0
 24 25  1  0  0  0
 25 23  1  0  0  0
 23 22  1  0  0  0
 22 21  1  0  0  0
 21 12  1  0  0  0
 12 13  1  0  0  0
 13 14  2  0  0  0
 14 15  1  0  0  0
 15 18  1  0  0  0
 18 19  1  0  0  0
 18 20  2  0  0  0
 15 16  2  0  0  0
 16 17  1  0  0  0
 17  1  1  0  0  0
  1  2  1  0  0  0
  2  3  2  0  0  0
  3  4  1  0  0  0
  3  5  1  0  0  0
  5  6  2  0  0  0
  6  7  1  0  0  0
  7 28  1  0  0  0
 28 29  1  0  0  0
 29 30  2  0  0  0
 30 31  1  0  0  0
 31 32  2  0  0  0
 32 33  1  0  0  0
 33 34  1  0  0  0
  7  8  1  0  0  0
  8 26  1  0  0  0
 26 27  1  0  0  0
  8  9  2  0  0  0
  9 10  1  0  0  0
 17 12  2  0  0  0
 10  1  2  0  0  0
  9  5  1  0  0  0
 33 29  1  0  0  0
  4 11  1  0  0  0
M  END
> <minimizedAffinity>
-9.04640

$$$$



 34 37  0  0  0  0  0  0  0  0999 V2000
    1.7972   66.2783   83.9618 C   0  0  0  0  0  0  0  0  0  0  0  0
    3.0349   66.3846   84.5482 N   0  0  0  0  0  0  0  0  0  0  0  0
    3.8564   67.3845   84.1574 C   0  0  0  0  0  0  0  0  0  0  0  0
    5.0932   67.4876   84.7404 O   0  0  0  0  0  0  0  0  0  0  0  0
    3.3799   68.2740   83.1857 C   0  0  0  0  0  0  0  0  0  0  0  0
    3.9377   69.3660   82.6312 N   0  0  0  0  0  0  0  0  0  0  0  0
    3.0160   69.7913   81.7184 N   0  0  0  0  0  0  0  0  0  0  0  0
    1.8382   69.0685   81.7415 C   0  0  0  0  0  0  0  0  0  0  0  0
    2.0720   68.0781   82.6586 C   0  0  0  0  0  0  0  0  0  0  0  0
    1.2221   67.0966   83.0244 N   0  0  0  0  0  0  0  0  0  0  0  0
    5.5006   68.2482   84.2854 H   0  0  0  0  0  0  0  0  0  0  0  0
    0.1539   64.4059   83.6135 C   0  0  0  0  0  0  0  0  0  0  0  0
   -0.6471   63.3990   84.0522 N   0  0  0  0  0  0  0  0  0  0  0  0
   -0.6705   63.1567   85.3830 C   0  0  0  0  0  0  0  0  0  0  0  0
    0.0582   63.8808   86.3117 C   0  0  0  0  0  0  0  0  0  0  0  0
    0.8672   64.9144   85.8324 C   0  0  0  0  0  0  0  0  0  0  0  0
    0.9379   65.1984   84.4554 C   0  0  0  0  0  0  0  0  0  0  0  0
    0.0088   63.5975   87.7697 C   0  0  0  0  0  0  0  0  0  0  0  0
   -1.2925   63.1544   88.3858 C   0  0  0  0  0  0  0  0  0  0  0  0
    1.0245   63.7263   88.4494 O   0  0  0  0  0  0  0  0  0  0  0  0
    0.1206   64.7251   82.2716 O   0  0  0  0  0  0  0  0  0  0  0  0
   -0.7188   63.8981   81.4632 C   0  0  0  0  0  0  0  0  0  0  0  0
    0.1311   62.9896   80.5752 C   0  0  0  0  0  0  0  0  0  0  0  0
    1.2555   61.1996   82.0012 C   0  0  0  0  0  0  0  0  0  0  0  0
    0.1371   61.5293   81.0250 C   0  0  0  0  0  0  0  0  0  0  0  0
    0.6310   69.3494   80.9163 C   0  0  0  0  0  0  0  0  0  0  0  0
   -0.2313   70.4462   81.5223 C   0  0  0  0  0  0  0  0  0  0  0  0
    3.2954   71.0212   80.9749 C   0  0  0  0  0  0  0  0  0  0  0  0
    3.2773   72.2321   81.8483 C   0  0  0  0  0  0  0  0  0  0  0  0
    2.5494   72.4016   82.9376 N   0  0  0  0  0  0  0  0  0  0  0  0
    2.8412   73.6534   83.4057 C   0  0  0  0  0  0  0  0  0  0  0  0
    3.7535   74.2721   82.5883 C   0  0  0  0  0  0  0  0  0  0  0  0
    4.0156   73.3688   81.5965 N   0  0  0  0  0  0  0  0  0  0  0  0
    4.9061   73.5954   80.4836 C   0  0  0  0  0  0  0  0  0  0  0  0
 24 25  1  0  0  0
 25 23  1  0  0  0
 23 22  1  0  0  0
 22 21  1  0  0  0
 21 12  1  0  0  0
 12 13  1  0  0  0
 13 14  2  0  0  0
 14 15  1  0  0  0
 15 18  1  0  0  0
 18 19  1  0  0  0
 18 20  2  0  0  0
 15 16  2  0  0  0
 16 17  1  0  0  0
 17  1  1  0  0  0
  1  2  1  0  0  0
  2  3  2  0  0  0
  3  4  1  0  0  0
  3  5  1  0  0  0
  5  6  2  0  0  0
  6  7  1  0  0  0
  7 28  1  0  0  0
 28 29  1  0  0  0
 29 30  2  0  0  0
 30 31  1  0  0  0
 31 32  2  0  0  0
 32 33  1  0  0  0
 33 34  1  0  0  0
  7  8  1  0  0  0
  8 26  1  0  0  0
 26 27  1  0  0  0
  8  9  2  0  0  0
  9 10  1  0  0  0
 17 12  2  0  0  0
 10  1  2  0  0  0
  9  5  1  0  0  0
 33 29  1  0  0  0
  4 11  1  0  0  0
M  END
> <minimizedAffinity>
-9.01016

$$$$



 34 37  0  0  0  0  0  0  0  0999 V2000
    1.1545   67.3400   81.3336 C   0  0  0  0  0  0  0  0  0  0  0  0
    1.4119   67.1265   80.0012 N   0  0  0  0  0  0  0  0  0  0  0  0
    1.1755   65.9013   79.4810 C   0  0  0  0  0  0  0  0  0  0  0  0
    1.4362   65.6879   78.1519 O   0  0  0  0  0  0  0  0  0  0  0  0
    0.6544   64.9222   80.3367 C   0  0  0  0  0  0  0  0  0  0  0  0
    0.2892   63.6470   80.1093 N   0  0  0  0  0  0  0  0  0  0  0  0
   -0.1018   63.1830   81.3323 N   0  0  0  0  0  0  0  0  0  0  0  0
   -0.0987   64.1503   82.3194 C   0  0  0  0  0  0  0  0  0  0  0  0
    0.4098   65.2601   81.6978 C   0  0  0  0  0  0  0  0  0  0  0  0
    0.6288   66.4698   82.2530 N   0  0  0  0  0  0  0  0  0  0  0  0
    1.2190   64.7457   78.0221 H   0  0  0  0  0  0  0  0  0  0  0  0
    2.4582   69.0231   82.6734 C   0  0  0  0  0  0  0  0  0  0  0  0
    2.6974   70.2768   83.1413 N   0  0  0  0  0  0  0  0  0  0  0  0
    1.8517   71.2586   82.7523 C   0  0  0  0  0  0  0  0  0  0  0  0
    0.7605   71.0535   81.9247 C   0  0  0  0  0  0  0  0  0  0  0  0
    0.5353   69.7532   81.4651 C   0  0  0  0  0  0  0  0  0  0  0  0
    1.3937   68.6985   81.8291 C   0  0  0  0  0  0  0  0  0  0  0  0
   -0.1569   72.1496   81.5181 C   0  0  0  0  0  0  0  0  0  0  0  0
   -1.1997   71.8788   80.4651 C   0  0  0  0  0  0  0  0  0  0  0  0
   -0.0544   73.2555   82.0439 O   0  0  0  0  0  0  0  0  0  0  0  0
    3.2561   67.9952   83.1319 O   0  0  0  0  0  0  0  0  0  0  0  0
    3.4942   67.9827   84.5410 C   0  0  0  0  0  0  0  0  0  0  0  0
    4.9797   67.7607   84.8243 C   0  0  0  0  0  0  0  0  0  0  0  0
    5.5501   66.4808   86.9546 C   0  0  0  0  0  0  0  0  0  0  0  0
    5.3362   67.8404   86.3080 C   0  0  0  0  0  0  0  0  0  0  0  0
   -0.5468   63.9565   83.7261 C   0  0  0  0  0  0  0  0  0  0  0  0
    0.5576   64.2686   84.7244 C   0  0  0  0  0  0  0  0  0  0  0  0
   -0.6280   61.8195   81.4187 C   0  0  0  0  0  0  0  0  0  0  0  0
   -1.9601   61.6793   80.7587 C   0  0  0  0  0  0  0  0  0  0  0  0
   -3.1219   62.0754   81.2469 N   0  0  0  0  0  0  0  0  0  0  0  0
   -4.0665   61.7380   80.3167 C   0  0  0  0  0  0  0  0  0  0  0  0
   -3.4828   61.1137   79.2430 C   0  0  0  0  0  0  0  0  0  0  0  0
   -2.1486   61.0696   79.5367 N   0  0  0  0  0  0  0  0  0  0  0  0
   -1.1354   60.4718   78.7006 C   0  0  0  0  0  0  0  0  0  0  0  0
 24 25  1  0  0  0
 25 23  1  0  0  0
 23 22  1  0  0  0
 22 21  1  0  0  0
 21 12  1  0  0  0
 12 13  1  0  0  0
 13 14  2  0  0  0
 14 15  1  0  0  0
 15 18  1  0  0  0
 18 19  1  0  0  0
 18 20  2  0  0  0
 15 16  2  0  0  0
 16 17  1  0  0  0
 17  1  1  0  0  0
  1  2  1  0  0  0
  2  3  2  0  0  0
  3  4  1  0  0  0
  3  5  1  0  0  0
  5  6  2  0  0  0
  6  7  1  0  0  0
  7 28  1  0  0  0
 28 29  1  0  0  0
 29 30  2  0  0  0
 30 31  1  0  0  0
 31 32  2  0  0  0
 32 33  1  0  0  0
 33 34  1  0  0  0
  7  8  1  0  0  0
  8 26  1  0  0  0
 26 27  1  0  0  0
  8  9  2  0  0  0
  9 10  1  0  0  0
 17 12  2  0  0  0
 10  1  2  0  0  0
  9  5  1  0  0  0
 33 29  1  0  0  0
  4 11  1  0  0  0
M  END
> <minimizedAffinity>
-8.98696

$$$$



 34 37  0  0  0  0  0  0  0  0999 V2000
   -0.6294   63.7513   82.9933 C   0  0  0  0  0  0  0  0  0  0  0  0
   -0.1177   64.1014   84.2191 N   0  0  0  0  0  0  0  0  0  0  0  0
    0.6740   65.1937   84.3059 C   0  0  0  0  0  0  0  0  0  0  0  0
    1.1876   65.5403   85.5291 O   0  0  0  0  0  0  0  0  0  0  0  0
    0.9060   65.9223   83.1321 C   0  0  0  0  0  0  0  0  0  0  0  0
    1.6057   67.0503   82.9104 N   0  0  0  0  0  0  0  0  0  0  0  0
    1.5054   67.2526   81.5641 N   0  0  0  0  0  0  0  0  0  0  0  0
    0.6762   66.3484   80.9276 C   0  0  0  0  0  0  0  0  0  0  0  0
    0.3095   65.4766   81.9187 C   0  0  0  0  0  0  0  0  0  0  0  0
   -0.4877   64.3959   81.7919 N   0  0  0  0  0  0  0  0  0  0  0  0
    1.7351   66.3243   85.3362 H   0  0  0  0  0  0  0  0  0  0  0  0
   -2.2169   62.1393   84.0928 C   0  0  0  0  0  0  0  0  0  0  0  0
   -3.0410   61.0582   84.0908 N   0  0  0  0  0  0  0  0  0  0  0  0
   -3.1830   60.3855   82.9256 C   0  0  0  0  0  0  0  0  0  0  0  0
   -2.5298   60.7272   81.7533 C   0  0  0  0  0  0  0  0  0  0  0  0
   -1.6834   61.8386   81.7872 C   0  0  0  0  0  0  0  0  0  0  0  0
   -1.5118   62.5812   82.9708 C   0  0  0  0  0  0  0  0  0  0  0  0
   -2.6988   59.9663   80.4880 C   0  0  0  0  0  0  0  0  0  0  0  0
   -2.0221   60.4647   79.2378 C   0  0  0  0  0  0  0  0  0  0  0  0
   -3.3832   58.9457   80.4785 O   0  0  0  0  0  0  0  0  0  0  0  0
   -1.9906   62.7816   85.2927 O   0  0  0  0  0  0  0  0  0  0  0  0
   -2.5977   62.1788   86.4373 C   0  0  0  0  0  0  0  0  0  0  0  0
   -2.3415   63.0293   87.6812 C   0  0  0  0  0  0  0  0  0  0  0  0
   -0.1059   62.9704   88.9060 C   0  0  0  0  0  0  0  0  0  0  0  0
   -0.9151   63.5705   87.7670 C   0  0  0  0  0  0  0  0  0  0  0  0
    0.3174   66.3677   79.4826 C   0  0  0  0  0  0  0  0  0  0  0  0
    1.1318   65.3648   78.6795 C   0  0  0  0  0  0  0  0  0  0  0  0
    2.1160   68.4570   80.9983 C   0  0  0  0  0  0  0  0  0  0  0  0
    1.2703   69.6717   81.1957 C   0  0  0  0  0  0  0  0  0  0  0  0
    0.1068   69.9181   80.6207 N   0  0  0  0  0  0  0  0  0  0  0  0
   -0.2993   71.1409   81.0803 C   0  0  0  0  0  0  0  0  0  0  0  0
    0.6312   71.6642   81.9425 C   0  0  0  0  0  0  0  0  0  0  0  0
    1.6290   70.7317   82.0008 N   0  0  0  0  0  0  0  0  0  0  0  0
    2.8429   70.8641   82.7702 C   0  0  0  0  0  0  0  0  0  0  0  0
 24 25  1  0  0  0
 25 23  1  0  0  0
 23 22  1  0  0  0
 22 21  1  0  0  0
 21 12  1  0  0  0
 12 13  1  0  0  0
 13 14  2  0  0  0
 14 15  1  0  0  0
 15 18  1  0  0  0
 18 19  1  0  0  0
 18 20  2  0  0  0
 15 16  2  0  0  0
 16 17  1  0  0  0
 17  1  1  0  0  0
  1  2  1  0  0  0
  2  3  2  0  0  0
  3  4  1  0  0  0
  3  5  1  0  0  0
  5  6  2  0  0  0
  6  7  1  0  0  0
  7 28  1  0  0  0
 28 29  1  0  0  0
 29 30  2  0  0  0
 30 31  1  0  0  0
 31 32  2  0  0  0
 32 33  1  0  0  0
 33 34  1  0  0  0
  7  8  1  0  0  0
  8 26  1  0  0  0
 26 27  1  0  0  0
  8  9  2  0  0  0
  9 10  1  0  0  0
 17 12  2  0  0  0
 10  1  2  0  0  0
  9  5  1  0  0  0
 33 29  1  0  0  0
  4 11  1  0  0  0
M  END
> <minimizedAffinity>
-8.98199

$$$$



 34 37  0  0  0  0  0  0  0  0999 V2000
    1.9377   66.1858   83.9024 C   0  0  0  0  0  0  0  0  0  0  0  0
    3.1441   66.3275   84.5440 N   0  0  0  0  0  0  0  0  0  0  0  0
    3.9452   67.3615   84.2026 C   0  0  0  0  0  0  0  0  0  0  0  0
    5.1509   67.5001   84.8409 O   0  0  0  0  0  0  0  0  0  0  0  0
    3.4797   68.2474   83.2224 C   0  0  0  0  0  0  0  0  0  0  0  0
    4.0212   69.3664   82.7070 N   0  0  0  0  0  0  0  0  0  0  0  0
    3.1254   69.7717   81.7600 N   0  0  0  0  0  0  0  0  0  0  0  0
    1.9746   69.0074   81.7219 C   0  0  0  0  0  0  0  0  0  0  0  0
    2.2039   68.0128   82.6357 C   0  0  0  0  0  0  0  0  0  0  0  0
    1.3749   66.9965   82.9511 N   0  0  0  0  0  0  0  0  0  0  0  0
    5.5500   68.2812   84.4139 H   0  0  0  0  0  0  0  0  0  0  0  0
    0.5941   64.1042   83.4680 C   0  0  0  0  0  0  0  0  0  0  0  0
   -0.1847   63.0607   83.8586 N   0  0  0  0  0  0  0  0  0  0  0  0
   -0.4746   62.9591   85.1763 C   0  0  0  0  0  0  0  0  0  0  0  0
   -0.0375   63.8590   86.1337 C   0  0  0  0  0  0  0  0  0  0  0  0
    0.7553   64.9256   85.7018 C   0  0  0  0  0  0  0  0  0  0  0  0
    1.0973   65.0691   84.3438 C   0  0  0  0  0  0  0  0  0  0  0  0
   -0.3765   63.7273   87.5746 C   0  0  0  0  0  0  0  0  0  0  0  0
   -1.7090   63.1413   87.9627 C   0  0  0  0  0  0  0  0  0  0  0  0
    0.4303   64.0947   88.4256 O   0  0  0  0  0  0  0  0  0  0  0  0
    0.8241   64.2736   82.1182 O   0  0  0  0  0  0  0  0  0  0  0  0
   -0.3396   64.2564   81.2888 C   0  0  0  0  0  0  0  0  0  0  0  0
   -0.3945   65.5186   80.4285 C   0  0  0  0  0  0  0  0  0  0  0  0
    1.7229   66.0174   79.0982 C   0  0  0  0  0  0  0  0  0  0  0  0
    0.3416   65.3814   79.0966 C   0  0  0  0  0  0  0  0  0  0  0  0
    0.7951   69.2570   80.8481 C   0  0  0  0  0  0  0  0  0  0  0  0
   -0.1639   70.2671   81.4595 C   0  0  0  0  0  0  0  0  0  0  0  0
    3.3924   71.0213   81.0453 C   0  0  0  0  0  0  0  0  0  0  0  0
    3.2723   72.2198   81.9279 C   0  0  0  0  0  0  0  0  0  0  0  0
    2.5109   72.3288   83.0018 N   0  0  0  0  0  0  0  0  0  0  0  0
    2.7061   73.5931   83.4864 C   0  0  0  0  0  0  0  0  0  0  0  0
    3.5915   74.2804   82.6947 C   0  0  0  0  0  0  0  0  0  0  0  0
    3.9365   73.4066   81.7019 N   0  0  0  0  0  0  0  0  0  0  0  0
    4.8334   73.7040   80.6110 C   0  0  0  0  0  0  0  0  0  0  0  0
 24 25  1  0  0  0
 25 23  1  0  0  0
 23 22  1  0  0  0
 22 21  1  0  0  0
 21 12  1  0  0  0
 12 13  1  0  0  0
 13 14  2  0  0  0
 14 15  1  0  0  0
 15 18  1  0  0  0
 18 19  1  0  0  0
 18 20  2  0  0  0
 15 16  2  0  0  0
 16 17  1  0  0  0
 17  1  1  0  0  0
  1  2  1  0  0  0
  2  3  2  0  0  0
  3  4  1  0  0  0
  3  5  1  0  0  0
  5  6  2  0  0  0
  6  7  1  0  0  0
  7 28  1  0  0  0
 28 29  1  0  0  0
 29 30  2  0  0  0
 30 31  1  0  0  0
 31 32  2  0  0  0
 32 33  1  0  0  0
 33 34  1  0  0  0
  7  8  1  0  0  0
  8 26  1  0  0  0
 26 27  1  0  0  0
  8  9  2  0  0  0
  9 10  1  0  0  0
 17 12  2  0  0  0
 10  1  2  0  0  0
  9  5  1  0  0  0
 33 29  1  0  0  0
  4 11  1  0  0  0
M  END
> <minimizedAffinity>
-8.95169

$$$$



 34 37  0  0  0  0  0  0  0  0999 V2000
   -0.7763   63.7424   81.2727 C   0  0  0  0  0  0  0  0  0  0  0  0
   -0.6884   64.0439   79.9354 N   0  0  0  0  0  0  0  0  0  0  0  0
    0.0212   65.1311   79.5587 C   0  0  0  0  0  0  0  0  0  0  0  0
    0.1053   65.4336   78.2240 O   0  0  0  0  0  0  0  0  0  0  0  0
    0.6496   65.8767   80.5646 C   0  0  0  0  0  0  0  0  0  0  0  0
    1.4377   66.9657   80.5021 N   0  0  0  0  0  0  0  0  0  0  0  0
    1.7103   67.2624   81.8065 N   0  0  0  0  0  0  0  0  0  0  0  0
    1.2084   66.3374   82.7022 C   0  0  0  0  0  0  0  0  0  0  0  0
    0.5047   65.4614   81.9186 C   0  0  0  0  0  0  0  0  0  0  0  0
   -0.1907   64.3827   82.3338 N   0  0  0  0  0  0  0  0  0  0  0  0
    0.6315   66.2549   78.2058 H   0  0  0  0  0  0  0  0  0  0  0  0
   -1.8270   62.1686   82.9300 C   0  0  0  0  0  0  0  0  0  0  0  0
   -2.5226   61.0503   83.2667 N   0  0  0  0  0  0  0  0  0  0  0  0
   -2.9487   60.2549   82.2586 C   0  0  0  0  0  0  0  0  0  0  0  0
   -2.7039   60.5091   80.9195 C   0  0  0  0  0  0  0  0  0  0  0  0
   -1.9802   61.6620   80.6040 C   0  0  0  0  0  0  0  0  0  0  0  0
   -1.5261   62.5303   81.6147 C   0  0  0  0  0  0  0  0  0  0  0  0
   -3.1782   59.6144   79.8319 C   0  0  0  0  0  0  0  0  0  0  0  0
   -3.2106   60.1338   78.4182 C   0  0  0  0  0  0  0  0  0  0  0  0
   -3.5344   58.4688   80.0982 O   0  0  0  0  0  0  0  0  0  0  0  0
   -1.3078   62.9419   83.9479 O   0  0  0  0  0  0  0  0  0  0  0  0
   -0.9340   62.2321   85.1305 C   0  0  0  0  0  0  0  0  0  0  0  0
   -0.3564   63.1967   86.1659 C   0  0  0  0  0  0  0  0  0  0  0  0
   -2.6627   63.0053   87.2365 C   0  0  0  0  0  0  0  0  0  0  0  0
   -1.1823   63.2808   87.4487 C   0  0  0  0  0  0  0  0  0  0  0  0
    1.4123   66.3579   84.1771 C   0  0  0  0  0  0  0  0  0  0  0  0
    2.7048   65.6665   84.5836 C   0  0  0  0  0  0  0  0  0  0  0  0
    2.6150   68.3788   82.0873 C   0  0  0  0  0  0  0  0  0  0  0  0
    2.0081   69.7020   81.7549 C   0  0  0  0  0  0  0  0  0  0  0  0
    0.8116   70.1284   82.1175 N   0  0  0  0  0  0  0  0  0  0  0  0
    0.6708   71.3809   81.5855 C   0  0  0  0  0  0  0  0  0  0  0  0
    1.7910   71.7299   80.8737 C   0  0  0  0  0  0  0  0  0  0  0  0
    2.6292   70.6551   80.9760 N   0  0  0  0  0  0  0  0  0  0  0  0
    3.9288   70.5558   80.3563 C   0  0  0  0  0  0  0  0  0  0  0  0
 24 25  1  0  0  0
 25 23  1  0  0  0
 23 22  1  0  0  0
 22 21  1  0  0  0
 21 12  1  0  0  0
 12 13  1  0  0  0
 13 14  2  0  0  0
 14 15  1  0  0  0
 15 18  1  0  0  0
 18 19  1  0  0  0
 18 20  2  0  0  0
 15 16  2  0  0  0
 16 17  1  0  0  0
 17  1  1  0  0  0
  1  2  1  0  0  0
  2  3  2  0  0  0
  3  4  1  0  0  0
  3  5  1  0  0  0
  5  6  2  0  0  0
  6  7  1  0  0  0
  7 28  1  0  0  0
 28 29  1  0  0  0
 29 30  2  0  0  0
 30 31  1  0  0  0
 31 32  2  0  0  0
 32 33  1  0  0  0
 33 34  1  0  0  0
  7  8  1  0  0  0
  8 26  1  0  0  0
 26 27  1  0  0  0
  8  9  2  0  0  0
  9 10  1  0  0  0
 17 12  2  0  0  0
 10  1  2  0  0  0
  9  5  1  0  0  0
 33 29  1  0  0  0
  4 11  1  0  0  0
M  END
> <minimizedAffinity>
-8.80911

$$$$
