
     RDKit          3D

 62 65  0  0  0  0  0  0  0  0999 V2000
   -2.3502    1.8933   -4.6716 C   0  0  0  0  0  0  0  0  0  0  0  0
   -1.9286    2.4622   -3.3238 C   0  0  0  0  0  0  0  0  0  0  0  0
   -3.1074    2.7045   -2.3780 C   0  0  0  0  0  0  0  0  0  0  0  0
   -3.7706    1.4525   -1.9173 C   0  0  0  0  0  0  0  0  0  0  0  0
   -4.9695    1.0821   -2.4077 N   0  0  0  0  0  0  0  0  0  0  0  0
   -5.2427   -0.0807   -1.7648 N   0  0  0  0  0  0  0  0  0  0  0  0
   -6.4697   -0.7866   -2.0441 C   0  0  0  0  0  0  0  0  0  0  0  0
   -4.2682   -0.4489   -0.8919 C   0  0  0  0  0  0  0  0  0  0  0  0
   -4.1500   -1.5688   -0.0343 C   0  0  0  0  0  0  0  0  0  0  0  0
   -4.9629   -2.4793    0.0750 O   0  0  0  0  0  0  0  0  0  0  0  0
   -2.9778   -1.5237    0.6842 N   0  0  0  0  0  0  0  0  0  0  0  0
   -2.0179   -0.5222    0.5716 C   0  0  0  0  0  0  0  0  0  0  0  0
   -0.7903   -0.6603    1.4361 C   0  0  0  0  0  0  0  0  0  0  0  0
    0.0704    0.4539    1.4954 C   0  0  0  0  0  0  0  0  0  0  0  0
    1.2512    0.4394    2.2544 C   0  0  0  0  0  0  0  0  0  0  0  0
    2.1929    1.6295    2.2891 C   0  0  0  0  0  0  0  0  0  0  0  0
    1.4768    2.8463    2.0813 O   0  0  0  0  0  0  0  0  0  0  0  0
    3.3361    1.5190    1.2934 C   0  0  0  0  0  0  0  0  0  0  0  0
    4.6511    1.3193    1.7421 C   0  0  0  0  0  0  0  0  0  0  0  0
    5.7088    1.2154    0.8322 C   0  0  0  0  0  0  0  0  0  0  0  0
    5.4628    1.3035   -0.5435 C   0  0  0  0  0  0  0  0  0  0  0  0
    6.5545    1.2030   -1.5485 C   0  0  0  0  0  0  0  0  0  0  0  0
    6.4326    1.6744   -2.6762 O   0  0  0  0  0  0  0  0  0  0  0  0
    7.6845    0.5099   -1.1671 N   0  0  0  0  0  0  0  0  0  0  0  0
    8.5981    0.2567   -2.2213 O   0  0  0  0  0  0  0  0  0  0  0  0
    4.1573    1.5162   -0.9986 C   0  0  0  0  0  0  0  0  0  0  0  0
    3.1026    1.6172   -0.0883 C   0  0  0  0  0  0  0  0  0  0  0  0
    1.5653   -0.7253    2.9623 C   0  0  0  0  0  0  0  0  0  0  0  0
    0.7208   -1.8395    2.9211 C   0  0  0  0  0  0  0  0  0  0  0  0
   -0.4565   -1.8242    2.1609 C   0  0  0  0  0  0  0  0  0  0  0  0
   -1.3155   -2.8922    2.0856 O   0  0  0  0  0  0  0  0  0  0  0  0
   -0.9221   -4.1226    2.6963 C   0  0  0  0  0  0  0  0  0  0  0  0
   -1.9908   -5.1551    2.3854 C   0  0  0  0  0  0  0  0  0  0  0  0
   -2.1359    0.5063   -0.2259 N   0  0  0  0  0  0  0  0  0  0  0  0
   -3.3147    0.5199   -0.9717 C   0  0  0  0  0  0  0  0  0  0  0  0
   -2.7876    0.8958   -4.5666 H   0  0  0  0  0  0  0  0  0  0  0  0
   -3.0835    2.5430   -5.1599 H   0  0  0  0  0  0  0  0  0  0  0  0
   -1.4810    1.8081   -5.3317 H   0  0  0  0  0  0  0  0  0  0  0  0
   -1.4179    3.4173   -3.4955 H   0  0  0  0  0  0  0  0  0  0  0  0
   -1.1967    1.7895   -2.8610 H   0  0  0  0  0  0  0  0  0  0  0  0
   -3.8390    3.3634   -2.8624 H   0  0  0  0  0  0  0  0  0  0  0  0
   -2.7433    3.2486   -1.4972 H   0  0  0  0  0  0  0  0  0  0  0  0
   -7.0414   -0.8671   -1.1163 H   0  0  0  0  0  0  0  0  0  0  0  0
   -6.2183   -1.7763   -2.4328 H   0  0  0  0  0  0  0  0  0  0  0  0
   -7.0481   -0.2326   -2.7881 H   0  0  0  0  0  0  0  0  0  0  0  0
   -2.8114   -2.3037    1.3063 H   0  0  0  0  0  0  0  0  0  0  0  0
   -0.1832    1.3588    0.9430 H   0  0  0  0  0  0  0  0  0  0  0  0
    2.6013    1.7100    3.3043 H   0  0  0  0  0  0  0  0  0  0  0  0
    2.0944    3.4824    1.6836 H   0  0  0  0  0  0  0  0  0  0  0  0
    4.8646    1.2522    2.8076 H   0  0  0  0  0  0  0  0  0  0  0  0
    6.7175    1.0934    1.2179 H   0  0  0  0  0  0  0  0  0  0  0  0
    7.6491   -0.1996   -0.4435 H   0  0  0  0  0  0  0  0  0  0  0  0
    8.1806    0.7284   -2.9768 H   0  0  0  0  0  0  0  0  0  0  0  0
    3.9539    1.5995   -2.0652 H   0  0  0  0  0  0  0  0  0  0  0  0
    2.0924    1.7742   -0.4655 H   0  0  0  0  0  0  0  0  0  0  0  0
    2.4755   -0.7763    3.5572 H   0  0  0  0  0  0  0  0  0  0  0  0
    1.0180   -2.7082    3.5003 H   0  0  0  0  0  0  0  0  0  0  0  0
   -0.8500   -3.9987    3.7826 H   0  0  0  0  0  0  0  0  0  0  0  0
    0.0355   -4.4640    2.2869 H   0  0  0  0  0  0  0  0  0  0  0  0
   -2.9642   -4.8291    2.7669 H   0  0  0  0  0  0  0  0  0  0  0  0
   -2.1000   -5.2826    1.3032 H   0  0  0  0  0  0  0  0  0  0  0  0
   -1.7414   -6.1216    2.8321 H   0  0  0  0  0  0  0  0  0  0  0  0
  1  2  1  0
  2  3  1  0
  3  4  1  0
  4  5  2  0
  5  6  1  0
  6  7  1  0
  6  8  1  0
  8  9  1  0
  9 10  2  0
  9 11  1  0
 11 12  1  0
 12 13  1  0
 13 14  1  0
 14 15  2  0
 15 16  1  0
 16 17  1  0
 16 18  1  0
 18 19  1  0
 19 20  2  0
 20 21  1  0
 21 22  1  0
 22 23  2  0
 22 24  1  0
 24 25  1  0
 21 26  2  0
 26 27  1  0
 15 28  1  0
 28 29  2  0
 29 30  1  0
 30 31  1  0
 31 32  1  0
 32 33  1  0
 12 34  2  0
 34 35  1  0
 35  4  1  0
 35  8  2  0
 30 13  2  0
 27 18  2  0
  1 36  1  0
  1 37  1  0
  1 38  1  0
  2 39  1  0
  2 40  1  0
  3 41  1  0
  3 42  1  0
  7 43  1  0
  7 44  1  0
  7 45  1  0
 11 46  1  0
 14 47  1  0
 16 48  1  0
 17 49  1  0
 19 50  1  0
 20 51  1  0
 24 52  1  0
 25 53  1  0
 26 54  1  0
 27 55  1  0
 28 56  1  0
 29 57  1  0
 32 58  1  0
 32 59  1  0
 33 60  1  0
 33 61  1  0
 33 62  1  0
M  END
$$$$
