
     RDKit          3D

 59 62  0  0  0  0  0  0  0  0999 V2000
   -6.1327    2.9124   -1.3251 C   0  0  0  0  0  0  0  0  0  0  0  0
   -4.6170    2.9820   -1.1991 C   0  0  0  0  0  0  0  0  0  0  0  0
   -3.9782    1.6285   -0.8818 C   0  0  0  0  0  0  0  0  0  0  0  0
   -4.2782    1.2328    0.4853 N   0  0  0  0  0  0  0  0  0  0  0  0
   -3.7626   -0.0170    0.8579 C   0  0  0  0  0  0  0  0  0  0  0  0
   -2.5833   -0.4702    0.3560 N   0  0  0  0  0  0  0  0  0  0  0  0
   -2.0851   -1.6675    0.7326 C   0  0  0  0  0  0  0  0  0  0  0  0
   -0.8788   -2.1375    0.2117 N   0  0  0  0  0  0  0  0  0  0  0  0
    0.1163   -1.5769   -0.5957 C   0  0  0  0  0  0  0  0  0  0  0  0
    0.1021   -0.2518   -1.0464 C   0  0  0  0  0  0  0  0  0  0  0  0
    1.1110    0.2462   -1.8792 C   0  0  0  0  0  0  0  0  0  0  0  0
    2.1631   -0.5839   -2.2640 C   0  0  0  0  0  0  0  0  0  0  0  0
    3.4316    0.0366   -3.3488 S   0  0  0  0  0  0  0  0  0  0  0  0
    2.8675    1.1448   -4.0906 O   0  0  0  0  0  0  0  0  0  0  0  0
    4.0098   -1.1018   -4.0327 O   0  0  0  0  0  0  0  0  0  0  0  0
    4.5956    0.6531   -2.2890 N   0  0  0  0  0  0  0  0  0  0  0  0
    4.2795    1.9341   -1.5990 C   0  0  0  0  0  0  0  0  0  0  0  0
    5.3890    2.2888   -0.5921 C   0  0  0  0  0  0  0  0  0  0  0  0
    5.5154    1.2976    0.4980 N   0  0  0  0  0  0  0  0  0  0  0  0
    6.8392    1.3765    1.1105 C   0  0  0  0  0  0  0  0  0  0  0  0
    5.1998   -0.0691    0.0361 C   0  0  0  0  0  0  0  0  0  0  0  0
    5.3884   -0.3081   -1.4740 C   0  0  0  0  0  0  0  0  0  0  0  0
    2.1829   -1.9191   -1.8624 C   0  0  0  0  0  0  0  0  0  0  0  0
    1.1673   -2.4035   -1.0316 C   0  0  0  0  0  0  0  0  0  0  0  0
   -2.6742   -2.5206    1.5954 N   0  0  0  0  0  0  0  0  0  0  0  0
   -3.8349   -2.0498    2.0708 C   0  0  0  0  0  0  0  0  0  0  0  0
   -4.4386   -0.8450    1.7672 C   0  0  0  0  0  0  0  0  0  0  0  0
   -5.6391   -0.7115    2.4382 N   0  0  0  0  0  0  0  0  0  0  0  0
   -5.7497   -1.8154    3.1482 C   0  0  0  0  0  0  0  0  0  0  0  0
   -4.6838   -2.6507    2.9569 N   0  0  0  0  0  0  0  0  0  0  0  0
   -4.4823   -3.9356    3.5715 C   0  0  0  0  0  0  0  0  0  0  0  0
   -6.4300    2.1825   -2.0848 H   0  0  0  0  0  0  0  0  0  0  0  0
   -6.5298    3.8888   -1.6208 H   0  0  0  0  0  0  0  0  0  0  0  0
   -6.6035    2.6350   -0.3775 H   0  0  0  0  0  0  0  0  0  0  0  0
   -4.2095    3.3461   -2.1497 H   0  0  0  0  0  0  0  0  0  0  0  0
   -4.3495    3.7174   -0.4310 H   0  0  0  0  0  0  0  0  0  0  0  0
   -2.8940    1.7324   -1.0105 H   0  0  0  0  0  0  0  0  0  0  0  0
   -4.3334    0.8727   -1.5934 H   0  0  0  0  0  0  0  0  0  0  0  0
   -5.2606    1.2732    0.7520 H   0  0  0  0  0  0  0  0  0  0  0  0
   -0.6893   -3.0472    0.6052 H   0  0  0  0  0  0  0  0  0  0  0  0
   -0.6940    0.4274   -0.7554 H   0  0  0  0  0  0  0  0  0  0  0  0
    1.0599    1.2781   -2.2196 H   0  0  0  0  0  0  0  0  0  0  0  0
    4.2134    2.7325   -2.3459 H   0  0  0  0  0  0  0  0  0  0  0  0
    3.3210    1.8674   -1.0754 H   0  0  0  0  0  0  0  0  0  0  0  0
    6.3345    2.3778   -1.1448 H   0  0  0  0  0  0  0  0  0  0  0  0
    5.1763    3.2696   -0.1517 H   0  0  0  0  0  0  0  0  0  0  0  0
    6.8965    0.7203    1.9860 H   0  0  0  0  0  0  0  0  0  0  0  0
    7.0386    2.3931    1.4673 H   0  0  0  0  0  0  0  0  0  0  0  0
    7.6350    1.0913    0.4131 H   0  0  0  0  0  0  0  0  0  0  0  0
    4.1458   -0.2522    0.2820 H   0  0  0  0  0  0  0  0  0  0  0  0
    5.7662   -0.8202    0.6006 H   0  0  0  0  0  0  0  0  0  0  0  0
    5.1246   -1.3439   -1.7066 H   0  0  0  0  0  0  0  0  0  0  0  0
    6.4441   -0.1875   -1.7455 H   0  0  0  0  0  0  0  0  0  0  0  0
    2.9698   -2.5910   -2.1966 H   0  0  0  0  0  0  0  0  0  0  0  0
    1.1969   -3.4496   -0.7338 H   0  0  0  0  0  0  0  0  0  0  0  0
   -6.5736   -2.0556    3.8086 H   0  0  0  0  0  0  0  0  0  0  0  0
   -5.3193   -4.1585    4.2381 H   0  0  0  0  0  0  0  0  0  0  0  0
   -3.5518   -3.9057    4.1440 H   0  0  0  0  0  0  0  0  0  0  0  0
   -4.4244   -4.6925    2.7850 H   0  0  0  0  0  0  0  0  0  0  0  0
  1  2  1  0
  2  3  1  0
  3  4  1  0
  4  5  1  0
  5  6  1  0
  6  7  2  0
  7  8  1  0
  8  9  1  0
  9 10  1  0
 10 11  2  0
 11 12  1  0
 12 13  1  0
 13 14  2  0
 13 15  2  0
 13 16  1  0
 16 17  1  0
 17 18  1  0
 18 19  1  0
 19 20  1  0
 19 21  1  0
 21 22  1  0
 12 23  2  0
 23 24  1  0
  7 25  1  0
 25 26  2  0
 26 27  1  0
 27 28  1  0
 28 29  2  0
 29 30  1  0
 30 31  1  0
 27  5  2  0
 24  9  2  0
 30 26  1  0
 22 16  1  0
  1 32  1  0
  1 33  1  0
  1 34  1  0
  2 35  1  0
  2 36  1  0
  3 37  1  0
  3 38  1  0
  4 39  1  0
  8 40  1  0
 10 41  1  0
 11 42  1  0
 17 43  1  0
 17 44  1  0
 18 45  1  0
 18 46  1  0
 20 47  1  0
 20 48  1  0
 20 49  1  0
 21 50  1  0
 21 51  1  0
 22 52  1  0
 22 53  1  0
 23 54  1  0
 24 55  1  0
 29 56  1  0
 31 57  1  0
 31 58  1  0
 31 59  1  0
M  END
$$$$
