


 33 37  0  0  0  0  0  0  0  0999 V2000
   -0.0825   63.5164   83.5031 C   0  0  0  0  0  0  0  0  0  0  0  0
    0.9909   64.3114   83.3012 N   0  0  0  0  0  0  0  0  0  0  0  0
    1.3254   64.7573   84.5332 N   0  0  0  0  0  0  0  0  0  0  0  0
    0.4880   64.3188   85.5194 C   0  0  0  0  0  0  0  0  0  0  0  0
    0.5586   64.6233   86.8328 N   0  0  0  0  0  0  0  0  0  0  0  0
   -0.4062   64.0190   87.5664 C   0  0  0  0  0  0  0  0  0  0  0  0
   -1.3833   63.1751   87.0633 C   0  0  0  0  0  0  0  0  0  0  0  0
   -2.2925   62.6303   87.8819 F   0  0  0  0  0  0  0  0  0  0  0  0
   -1.4211   62.8941   85.7021 C   0  0  0  0  0  0  0  0  0  0  0  0
   -0.4399   63.4955   84.8916 C   0  0  0  0  0  0  0  0  0  0  0  0
   -2.6237   60.7006   79.3579 C   0  0  0  0  0  0  0  0  0  0  0  0
   -3.8895   61.3896   78.8524 C   0  0  0  0  0  0  0  0  0  0  0  0
   -2.9643   59.5158   80.3041 C   0  0  0  0  0  0  0  0  0  0  0  0
   -3.6073   58.5132   80.0423 O   0  0  0  0  0  0  0  0  0  0  0  0
   -2.4295   59.7871   81.5545 N   0  0  0  0  0  0  0  0  0  0  0  0
   -1.8256   61.0251   81.5839 C   0  0  0  0  0  0  0  0  0  0  0  0
   -1.2525   61.5742   82.6512 N   0  0  0  0  0  0  0  0  0  0  0  0
   -0.7468   62.8047   82.3976 C   0  0  0  0  0  0  0  0  0  0  0  0
   -0.8063   63.4342   81.1836 N   0  0  0  0  0  0  0  0  0  0  0  0
   -1.4065   62.8259   80.1206 N   0  0  0  0  0  0  0  0  0  0  0  0
   -1.9147   61.6129   80.3442 C   0  0  0  0  0  0  0  0  0  0  0  0
   -2.5207   59.1789   82.3532 H   0  0  0  0  0  0  0  0  0  0  0  0
   -1.6146   60.3076   78.2576 C   0  0  0  0  0  0  0  0  0  0  0  0
   -0.8689   62.1055   76.5703 C   0  0  0  0  0  0  0  0  0  0  0  0
   -1.5578   61.0156   76.9268 C   0  0  0  0  0  0  0  0  0  0  0  0
    2.4638   65.6483   84.7017 C   0  0  0  0  0  0  0  0  0  0  0  0
    2.2939   66.9201   83.9152 C   0  0  0  0  0  0  0  0  0  0  0  0
    1.4451   66.9763   82.7984 C   0  0  0  0  0  0  0  0  0  0  0  0
    1.3029   68.1630   82.0749 C   0  0  0  0  0  0  0  0  0  0  0  0
    2.0036   69.3063   82.4586 C   0  0  0  0  0  0  0  0  0  0  0  0
    2.8462   69.2628   83.5674 C   0  0  0  0  0  0  0  0  0  0  0  0
    2.9840   68.0770   84.2838 C   0  0  0  0  0  0  0  0  0  0  0  0
    3.7902   68.0637   85.3544 F   0  0  0  0  0  0  0  0  0  0  0  0
 24 25  2  0  0  0
 25 23  1  0  0  0
 23 11  1  0  0  0
 11 12  1  0  0  0
 11 13  1  0  0  0
 13 14  2  0  0  0
 13 15  1  0  0  0
 15 16  1  0  0  0
 16 17  1  0  0  0
 17 18  2  0  0  0
 18  1  1  0  0  0
  1  2  2  0  0  0
  2  3  1  0  0  0
  3 26  1  0  0  0
 26 27  1  0  0  0
 27 28  2  0  0  0
 28 29  1  0  0  0
 29 30  2  0  0  0
 30 31  1  0  0  0
 31 32  2  0  0  0
 32 33  1  0  0  0
  3  4  1  0  0  0
  4  5  1  0  0  0
  5  6  2  0  0  0
  6  7  1  0  0  0
  7  8  1  0  0  0
  7  9  2  0  0  0
  9 10  1  0  0  0
 18 19  1  0  0  0
 19 20  2  0  0  0
 20 21  1  0  0  0
 21 11  1  0  0  0
 21 16  2  0  0  0
 10  1  1  0  0  0
 32 27  1  0  0  0
 10  4  2  0  0  0
 15 22  1  0  0  0
M  END
> <minimizedAffinity>
-11.10935

$$$$



 33 37  0  0  0  0  0  0  0  0999 V2000
    0.1263   64.2423   82.8520 C   0  0  0  0  0  0  0  0  0  0  0  0
    0.7468   65.4411   82.7977 N   0  0  0  0  0  0  0  0  0  0  0  0
    1.0528   65.7286   84.0830 N   0  0  0  0  0  0  0  0  0  0  0  0
    0.6189   64.7868   84.9722 C   0  0  0  0  0  0  0  0  0  0  0  0
    0.7554   64.8209   86.3150 N   0  0  0  0  0  0  0  0  0  0  0  0
    0.2354   63.7294   86.9254 C   0  0  0  0  0  0  0  0  0  0  0  0
   -0.3831   62.6705   86.2803 C   0  0  0  0  0  0  0  0  0  0  0  0
   -0.8641   61.6382   86.9848 F   0  0  0  0  0  0  0  0  0  0  0  0
   -0.5065   62.6808   84.8955 C   0  0  0  0  0  0  0  0  0  0  0  0
    0.0180   63.7921   84.2090 C   0  0  0  0  0  0  0  0  0  0  0  0
   -1.5859   61.6317   78.1805 C   0  0  0  0  0  0  0  0  0  0  0  0
   -2.1601   60.2416   78.4461 C   0  0  0  0  0  0  0  0  0  0  0  0
   -0.1332   61.5486   77.6347 C   0  0  0  0  0  0  0  0  0  0  0  0
    0.2485   61.0112   76.6086 O   0  0  0  0  0  0  0  0  0  0  0  0
    0.7097   62.1800   78.5370 N   0  0  0  0  0  0  0  0  0  0  0  0
    0.0185   62.6237   79.6431 C   0  0  0  0  0  0  0  0  0  0  0  0
    0.5604   63.2378   80.6911 N   0  0  0  0  0  0  0  0  0  0  0  0
   -0.3521   63.5545   81.6404 C   0  0  0  0  0  0  0  0  0  0  0  0
   -1.6909   63.2830   81.5527 N   0  0  0  0  0  0  0  0  0  0  0  0
   -2.1951   62.6499   80.4548 N   0  0  0  0  0  0  0  0  0  0  0  0
   -1.3165   62.3255   79.5049 C   0  0  0  0  0  0  0  0  0  0  0  0
    1.7083   62.2543   78.4218 H   0  0  0  0  0  0  0  0  0  0  0  0
   -2.4854   62.5544   77.3303 C   0  0  0  0  0  0  0  0  0  0  0  0
   -1.3374   64.7727   76.7008 C   0  0  0  0  0  0  0  0  0  0  0  0
   -1.9186   63.6041   76.4072 C   0  0  0  0  0  0  0  0  0  0  0  0
    1.7485   66.9651   84.4076 C   0  0  0  0  0  0  0  0  0  0  0  0
    3.2321   66.7489   84.5378 C   0  0  0  0  0  0  0  0  0  0  0  0
    3.7501   65.5425   85.0349 C   0  0  0  0  0  0  0  0  0  0  0  0
    5.1300   65.3596   85.1556 C   0  0  0  0  0  0  0  0  0  0  0  0
    6.0075   66.3765   84.7799 C   0  0  0  0  0  0  0  0  0  0  0  0
    5.5045   67.5767   84.2822 C   0  0  0  0  0  0  0  0  0  0  0  0
    4.1284   67.7530   84.1649 C   0  0  0  0  0  0  0  0  0  0  0  0
    3.6693   68.9113   83.6711 F   0  0  0  0  0  0  0  0  0  0  0  0
 24 25  2  0  0  0
 25 23  1  0  0  0
 23 11  1  0  0  0
 11 12  1  0  0  0
 11 13  1  0  0  0
 13 14  2  0  0  0
 13 15  1  0  0  0
 15 16  1  0  0  0
 16 17  1  0  0  0
 17 18  2  0  0  0
 18  1  1  0  0  0
  1  2  2  0  0  0
  2  3  1  0  0  0
  3 26  1  0  0  0
 26 27  1  0  0  0
 27 28  2  0  0  0
 28 29  1  0  0  0
 29 30  2  0  0  0
 30 31  1  0  0  0
 31 32  2  0  0  0
 32 33  1  0  0  0
  3  4  1  0  0  0
  4  5  1  0  0  0
  5  6  2  0  0  0
  6  7  1  0  0  0
  7  8  1  0  0  0
  7  9  2  0  0  0
  9 10  1  0  0  0
 18 19  1  0  0  0
 19 20  2  0  0  0
 20 21  1  0  0  0
 21 11  1  0  0  0
 21 16  2  0  0  0
 10  1  1  0  0  0
 32 27  1  0  0  0
 10  4  2  0  0  0
 15 22  1  0  0  0
M  END
> <minimizedAffinity>
-11.09012

$$$$



 33 37  0  0  0  0  0  0  0  0999 V2000
    0.1102   64.1580   82.4685 C   0  0  0  0  0  0  0  0  0  0  0  0
    0.5461   63.7728   83.6877 N   0  0  0  0  0  0  0  0  0  0  0  0
    1.1390   64.8727   84.2045 N   0  0  0  0  0  0  0  0  0  0  0  0
    1.1432   65.9420   83.3544 C   0  0  0  0  0  0  0  0  0  0  0  0
    1.6865   67.1559   83.5869 N   0  0  0  0  0  0  0  0  0  0  0  0
    1.5139   68.0167   82.5556 C   0  0  0  0  0  0  0  0  0  0  0  0
    0.8604   67.7235   81.3694 C   0  0  0  0  0  0  0  0  0  0  0  0
    0.7476   68.6535   80.4124 F   0  0  0  0  0  0  0  0  0  0  0  0
    0.3210   66.4575   81.1712 C   0  0  0  0  0  0  0  0  0  0  0  0
    0.4706   65.5220   82.2123 C   0  0  0  0  0  0  0  0  0  0  0  0
   -2.5834   60.6502   79.0030 C   0  0  0  0  0  0  0  0  0  0  0  0
   -3.2983   59.5158   79.7341 C   0  0  0  0  0  0  0  0  0  0  0  0
   -1.2473   60.1649   78.3751 C   0  0  0  0  0  0  0  0  0  0  0  0
   -1.0910   59.2978   77.5319 O   0  0  0  0  0  0  0  0  0  0  0  0
   -0.2075   60.8739   78.9575 N   0  0  0  0  0  0  0  0  0  0  0  0
   -0.6687   61.7291   79.9343 C   0  0  0  0  0  0  0  0  0  0  0  0
    0.0942   62.5156   80.6882 N   0  0  0  0  0  0  0  0  0  0  0  0
   -0.6236   63.2440   81.5762 C   0  0  0  0  0  0  0  0  0  0  0  0
   -1.9856   63.1936   81.7018 N   0  0  0  0  0  0  0  0  0  0  0  0
   -2.7213   62.3684   80.9029 N   0  0  0  0  0  0  0  0  0  0  0  0
   -2.0379   61.6382   80.0199 C   0  0  0  0  0  0  0  0  0  0  0  0
    0.7657   60.7389   78.7320 H   0  0  0  0  0  0  0  0  0  0  0  0
   -3.4598   61.4301   77.9994 C   0  0  0  0  0  0  0  0  0  0  0  0
   -2.1544   63.2757   76.7644 C   0  0  0  0  0  0  0  0  0  0  0  0
   -2.8755   62.1498   76.8095 C   0  0  0  0  0  0  0  0  0  0  0  0
    1.7262   64.8271   85.5353 C   0  0  0  0  0  0  0  0  0  0  0  0
    0.8192   64.1372   86.5183 C   0  0  0  0  0  0  0  0  0  0  0  0
   -0.5373   63.9216   86.2282 C   0  0  0  0  0  0  0  0  0  0  0  0
   -1.3679   63.2851   87.1540 C   0  0  0  0  0  0  0  0  0  0  0  0
   -0.8543   62.8551   88.3774 C   0  0  0  0  0  0  0  0  0  0  0  0
    0.4913   63.0610   88.6744 C   0  0  0  0  0  0  0  0  0  0  0  0
    1.3137   63.6964   87.7479 C   0  0  0  0  0  0  0  0  0  0  0  0
    2.6074   63.8711   88.0513 F   0  0  0  0  0  0  0  0  0  0  0  0
 24 25  2  0  0  0
 25 23  1  0  0  0
 23 11  1  0  0  0
 11 12  1  0  0  0
 11 13  1  0  0  0
 13 14  2  0  0  0
 13 15  1  0  0  0
 15 16  1  0  0  0
 16 17  1  0  0  0
 17 18  2  0  0  0
 18  1  1  0  0  0
  1  2  2  0  0  0
  2  3  1  0  0  0
  3 26  1  0  0  0
 26 27  1  0  0  0
 27 28  2  0  0  0
 28 29  1  0  0  0
 29 30  2  0  0  0
 30 31  1  0  0  0
 31 32  2  0  0  0
 32 33  1  0  0  0
  3  4  1  0  0  0
  4  5  1  0  0  0
  5  6  2  0  0  0
  6  7  1  0  0  0
  7  8  1  0  0  0
  7  9  2  0  0  0
  9 10  1  0  0  0
 18 19  1  0  0  0
 19 20  2  0  0  0
 20 21  1  0  0  0
 21 11  1  0  0  0
 21 16  2  0  0  0
 10  1  1  0  0  0
 32 27  1  0  0  0
 10  4  2  0  0  0
 15 22  1  0  0  0
M  END
> <minimizedAffinity>
-11.03822

$$$$



 33 37  0  0  0  0  0  0  0  0999 V2000
    1.9142   67.1420   82.8884 C   0  0  0  0  0  0  0  0  0  0  0  0
    3.1260   66.9934   83.4668 N   0  0  0  0  0  0  0  0  0  0  0  0
    3.6456   68.2413   83.5023 N   0  0  0  0  0  0  0  0  0  0  0  0
    2.8394   69.1857   82.9328 C   0  0  0  0  0  0  0  0  0  0  0  0
    3.1080   70.5020   82.7995 N   0  0  0  0  0  0  0  0  0  0  0  0
    2.1020   71.1876   82.2058 C   0  0  0  0  0  0  0  0  0  0  0  0
    0.9103   70.6362   81.7632 C   0  0  0  0  0  0  0  0  0  0  0  0
   -0.0190   71.4095   81.1871 F   0  0  0  0  0  0  0  0  0  0  0  0
    0.6792   69.2738   81.9162 C   0  0  0  0  0  0  0  0  0  0  0  0
    1.6922   68.5122   82.5287 C   0  0  0  0  0  0  0  0  0  0  0  0
   -1.5430   62.7636   82.2198 C   0  0  0  0  0  0  0  0  0  0  0  0
   -2.9567   63.1722   81.8111 C   0  0  0  0  0  0  0  0  0  0  0  0
   -1.4709   62.4119   83.7318 C   0  0  0  0  0  0  0  0  0  0  0  0
   -2.0762   61.5337   84.3230 O   0  0  0  0  0  0  0  0  0  0  0  0
   -0.5985   63.2981   84.3457 N   0  0  0  0  0  0  0  0  0  0  0  0
   -0.1223   64.2329   83.4527 C   0  0  0  0  0  0  0  0  0  0  0  0
    0.7058   65.2293   83.7536 N   0  0  0  0  0  0  0  0  0  0  0  0
    1.0016   66.0041   82.6828 C   0  0  0  0  0  0  0  0  0  0  0  0
    0.5144   65.8027   81.4196 N   0  0  0  0  0  0  0  0  0  0  0  0
   -0.3331   64.7648   81.1652 N   0  0  0  0  0  0  0  0  0  0  0  0
   -0.6420   63.9867   82.2039 C   0  0  0  0  0  0  0  0  0  0  0  0
   -0.3850   63.2910   85.3308 H   0  0  0  0  0  0  0  0  0  0  0  0
   -0.8969   61.6807   81.3291 C   0  0  0  0  0  0  0  0  0  0  0  0
    1.4571   61.0233   82.1425 C   0  0  0  0  0  0  0  0  0  0  0  0
    0.5979   61.5013   81.2354 C   0  0  0  0  0  0  0  0  0  0  0  0
    4.9632   68.4661   84.0780 C   0  0  0  0  0  0  0  0  0  0  0  0
    5.3629   67.3475   85.0021 C   0  0  0  0  0  0  0  0  0  0  0  0
    5.8747   66.1395   84.5023 C   0  0  0  0  0  0  0  0  0  0  0  0
    6.2354   65.1081   85.3730 C   0  0  0  0  0  0  0  0  0  0  0  0
    6.0916   65.2711   86.7507 C   0  0  0  0  0  0  0  0  0  0  0  0
    5.5878   66.4670   87.2579 C   0  0  0  0  0  0  0  0  0  0  0  0
    5.2296   67.4908   86.3849 C   0  0  0  0  0  0  0  0  0  0  0  0
    4.7597   68.6365   86.8975 F   0  0  0  0  0  0  0  0  0  0  0  0
 24 25  2  0  0  0
 25 23  1  0  0  0
 23 11  1  0  0  0
 11 12  1  0  0  0
 11 13  1  0  0  0
 13 14  2  0  0  0
 13 15  1  0  0  0
 15 16  1  0  0  0
 16 17  1  0  0  0
 17 18  2  0  0  0
 18  1  1  0  0  0
  1  2  2  0  0  0
  2  3  1  0  0  0
  3 26  1  0  0  0
 26 27  1  0  0  0
 27 28  2  0  0  0
 28 29  1  0  0  0
 29 30  2  0  0  0
 30 31  1  0  0  0
 31 32  2  0  0  0
 32 33  1  0  0  0
  3  4  1  0  0  0
  4  5  1  0  0  0
  5  6  2  0  0  0
  6  7  1  0  0  0
  7  8  1  0  0  0
  7  9  2  0  0  0
  9 10  1  0  0  0
 18 19  1  0  0  0
 19 20  2  0  0  0
 20 21  1  0  0  0
 21 11  1  0  0  0
 21 16  2  0  0  0
 10  1  1  0  0  0
 32 27  1  0  0  0
 10  4  2  0  0  0
 15 22  1  0  0  0
M  END
> <minimizedAffinity>
-10.98831

$$$$



 33 37  0  0  0  0  0  0  0  0999 V2000
    0.0409   64.0764   81.9035 C   0  0  0  0  0  0  0  0  0  0  0  0
    0.7332   65.0569   81.2836 N   0  0  0  0  0  0  0  0  0  0  0  0
    1.3247   65.7465   82.2851 N   0  0  0  0  0  0  0  0  0  0  0  0
    1.0105   65.2801   83.5300 C   0  0  0  0  0  0  0  0  0  0  0  0
    1.4279   65.7854   84.7104 N   0  0  0  0  0  0  0  0  0  0  0  0
    0.9590   65.0926   85.7755 C   0  0  0  0  0  0  0  0  0  0  0  0
    0.1334   63.9818   85.7069 C   0  0  0  0  0  0  0  0  0  0  0  0
   -0.2729   63.3718   86.8277 F   0  0  0  0  0  0  0  0  0  0  0  0
   -0.2764   63.4996   84.4689 C   0  0  0  0  0  0  0  0  0  0  0  0
    0.1827   64.1817   83.3265 C   0  0  0  0  0  0  0  0  0  0  0  0
   -2.8218   60.2273   78.9779 C   0  0  0  0  0  0  0  0  0  0  0  0
   -3.4807   59.1699   79.8613 C   0  0  0  0  0  0  0  0  0  0  0  0
   -1.5211   59.6857   78.3222 C   0  0  0  0  0  0  0  0  0  0  0  0
   -1.4073   58.7385   77.5625 O   0  0  0  0  0  0  0  0  0  0  0  0
   -0.4551   60.4536   78.7663 N   0  0  0  0  0  0  0  0  0  0  0  0
   -0.8651   61.4013   79.6783 C   0  0  0  0  0  0  0  0  0  0  0  0
   -0.0660   62.2626   80.3017 N   0  0  0  0  0  0  0  0  0  0  0  0
   -0.7363   63.0744   81.1538 C   0  0  0  0  0  0  0  0  0  0  0  0
   -2.0878   63.0321   81.3660 N   0  0  0  0  0  0  0  0  0  0  0  0
   -2.8620   62.1280   80.7002 N   0  0  0  0  0  0  0  0  0  0  0  0
   -2.2258   61.3148   79.8554 C   0  0  0  0  0  0  0  0  0  0  0  0
    0.5040   60.2999   78.4969 H   0  0  0  0  0  0  0  0  0  0  0  0
   -3.7642   60.8988   77.9559 C   0  0  0  0  0  0  0  0  0  0  0  0
   -2.7007   62.6611   76.4072 C   0  0  0  0  0  0  0  0  0  0  0  0
   -3.2629   61.4726   76.6541 C   0  0  0  0  0  0  0  0  0  0  0  0
    2.1729   66.8895   81.9813 C   0  0  0  0  0  0  0  0  0  0  0  0
    1.3614   68.0887   81.5711 C   0  0  0  0  0  0  0  0  0  0  0  0
    0.5218   68.0482   80.4467 C   0  0  0  0  0  0  0  0  0  0  0  0
   -0.2204   69.1721   80.0752 C   0  0  0  0  0  0  0  0  0  0  0  0
   -0.1349   70.3470   80.8219 C   0  0  0  0  0  0  0  0  0  0  0  0
    0.6928   70.3974   81.9416 C   0  0  0  0  0  0  0  0  0  0  0  0
    1.4302   69.2742   82.3063 C   0  0  0  0  0  0  0  0  0  0  0  0
    2.2091   69.3432   83.3948 F   0  0  0  0  0  0  0  0  0  0  0  0
 24 25  2  0  0  0
 25 23  1  0  0  0
 23 11  1  0  0  0
 11 12  1  0  0  0
 11 13  1  0  0  0
 13 14  2  0  0  0
 13 15  1  0  0  0
 15 16  1  0  0  0
 16 17  1  0  0  0
 17 18  2  0  0  0
 18  1  1  0  0  0
  1  2  2  0  0  0
  2  3  1  0  0  0
  3 26  1  0  0  0
 26 27  1  0  0  0
 27 28  2  0  0  0
 28 29  1  0  0  0
 29 30  2  0  0  0
 30 31  1  0  0  0
 31 32  2  0  0  0
 32 33  1  0  0  0
  3  4  1  0  0  0
  4  5  1  0  0  0
  5  6  2  0  0  0
  6  7  1  0  0  0
  7  8  1  0  0  0
  7  9  2  0  0  0
  9 10  1  0  0  0
 18 19  1  0  0  0
 19 20  2  0  0  0
 20 21  1  0  0  0
 21 11  1  0  0  0
 21 16  2  0  0  0
 10  1  1  0  0  0
 32 27  1  0  0  0
 10  4  2  0  0  0
 15 22  1  0  0  0
M  END
> <minimizedAffinity>
-10.94380

$$$$



 33 37  0  0  0  0  0  0  0  0999 V2000
   -0.5412   64.2507   81.6727 C   0  0  0  0  0  0  0  0  0  0  0  0
   -1.2038   63.8269   82.7710 N   0  0  0  0  0  0  0  0  0  0  0  0
   -1.5552   62.5517   82.4901 N   0  0  0  0  0  0  0  0  0  0  0  0
   -1.1853   62.1455   81.2395 C   0  0  0  0  0  0  0  0  0  0  0  0
   -1.4262   60.9417   80.6776 N   0  0  0  0  0  0  0  0  0  0  0  0
   -0.9179   60.8327   79.4270 C   0  0  0  0  0  0  0  0  0  0  0  0
   -0.2229   61.8264   78.7564 C   0  0  0  0  0  0  0  0  0  0  0  0
    0.2367   61.6108   77.5172 F   0  0  0  0  0  0  0  0  0  0  0  0
   -0.0032   63.0534   79.3723 C   0  0  0  0  0  0  0  0  0  0  0  0
   -0.5096   63.2214   80.6749 C   0  0  0  0  0  0  0  0  0  0  0  0
    1.7418   69.3786   81.4234 C   0  0  0  0  0  0  0  0  0  0  0  0
    2.3252   69.7097   80.0513 C   0  0  0  0  0  0  0  0  0  0  0  0
    2.8568   68.9857   82.4320 C   0  0  0  0  0  0  0  0  0  0  0  0
    3.7952   69.6672   82.8093 O   0  0  0  0  0  0  0  0  0  0  0  0
    2.6362   67.6790   82.8406 N   0  0  0  0  0  0  0  0  0  0  0  0
    1.5526   67.1271   82.1930 C   0  0  0  0  0  0  0  0  0  0  0  0
    1.1162   65.8809   82.3529 N   0  0  0  0  0  0  0  0  0  0  0  0
    0.0378   65.6022   81.5824 C   0  0  0  0  0  0  0  0  0  0  0  0
   -0.5556   66.4899   80.7260 N   0  0  0  0  0  0  0  0  0  0  0  0
   -0.0672   67.7571   80.5995 N   0  0  0  0  0  0  0  0  0  0  0  0
    0.9964   68.0571   81.3469 C   0  0  0  0  0  0  0  0  0  0  0  0
    3.2275   67.1808   83.4874 H   0  0  0  0  0  0  0  0  0  0  0  0
    0.7769   70.4410   81.9924 C   0  0  0  0  0  0  0  0  0  0  0  0
   -0.9868   72.2304   81.4243 C   0  0  0  0  0  0  0  0  0  0  0  0
   -0.1949   71.1959   81.1201 C   0  0  0  0  0  0  0  0  0  0  0  0
   -2.2901   61.7655   83.4699 C   0  0  0  0  0  0  0  0  0  0  0  0
   -1.9647   62.1882   84.8771 C   0  0  0  0  0  0  0  0  0  0  0  0
   -2.9610   62.6723   85.7395 C   0  0  0  0  0  0  0  0  0  0  0  0
   -2.6416   63.0667   87.0413 C   0  0  0  0  0  0  0  0  0  0  0  0
   -1.3263   62.9805   87.4972 C   0  0  0  0  0  0  0  0  0  0  0  0
   -0.3301   62.4985   86.6508 C   0  0  0  0  0  0  0  0  0  0  0  0
   -0.6547   62.1076   85.3546 C   0  0  0  0  0  0  0  0  0  0  0  0
    0.3187   61.6350   84.5638 F   0  0  0  0  0  0  0  0  0  0  0  0
 24 25  2  0  0  0
 25 23  1  0  0  0
 23 11  1  0  0  0
 11 12  1  0  0  0
 11 13  1  0  0  0
 13 14  2  0  0  0
 13 15  1  0  0  0
 15 16  1  0  0  0
 16 17  1  0  0  0
 17 18  2  0  0  0
 18  1  1  0  0  0
  1  2  2  0  0  0
  2  3  1  0  0  0
  3 26  1  0  0  0
 26 27  1  0  0  0
 27 28  2  0  0  0
 28 29  1  0  0  0
 29 30  2  0  0  0
 30 31  1  0  0  0
 31 32  2  0  0  0
 32 33  1  0  0  0
  3  4  1  0  0  0
  4  5  1  0  0  0
  5  6  2  0  0  0
  6  7  1  0  0  0
  7  8  1  0  0  0
  7  9  2  0  0  0
  9 10  1  0  0  0
 18 19  1  0  0  0
 19 20  2  0  0  0
 20 21  1  0  0  0
 21 11  1  0  0  0
 21 16  2  0  0  0
 10  1  1  0  0  0
 32 27  1  0  0  0
 10  4  2  0  0  0
 15 22  1  0  0  0
M  END
> <minimizedAffinity>
-10.90000

$$$$



 33 37  0  0  0  0  0  0  0  0999 V2000
    0.4358   64.5788   82.5646 C   0  0  0  0  0  0  0  0  0  0  0  0
    0.2129   63.5854   81.6766 N   0  0  0  0  0  0  0  0  0  0  0  0
   -0.1576   62.5263   82.4311 N   0  0  0  0  0  0  0  0  0  0  0  0
   -0.1430   62.7794   83.7734 C   0  0  0  0  0  0  0  0  0  0  0  0
   -0.4361   61.9082   84.7623 N   0  0  0  0  0  0  0  0  0  0  0  0
   -0.3484   62.4616   85.9953 C   0  0  0  0  0  0  0  0  0  0  0  0
    0.0050   63.7752   86.2594 C   0  0  0  0  0  0  0  0  0  0  0  0
    0.0613   64.2190   87.5217 F   0  0  0  0  0  0  0  0  0  0  0  0
    0.3044   64.6358   85.2092 C   0  0  0  0  0  0  0  0  0  0  0  0
    0.2282   64.1128   83.9046 C   0  0  0  0  0  0  0  0  0  0  0  0
    2.0009   69.7624   81.0641 C   0  0  0  0  0  0  0  0  0  0  0  0
    3.1419   69.7745   80.0489 C   0  0  0  0  0  0  0  0  0  0  0  0
    2.5153   70.0756   82.4967 C   0  0  0  0  0  0  0  0  0  0  0  0
    3.0731   71.0886   82.8840 O   0  0  0  0  0  0  0  0  0  0  0  0
    2.2608   68.9763   83.3028 N   0  0  0  0  0  0  0  0  0  0  0  0
    1.6958   67.9464   82.5829 C   0  0  0  0  0  0  0  0  0  0  0  0
    1.3695   66.7547   83.0753 N   0  0  0  0  0  0  0  0  0  0  0  0
    0.8406   65.9301   82.1401 C   0  0  0  0  0  0  0  0  0  0  0  0
    0.6522   66.2647   80.8263 N   0  0  0  0  0  0  0  0  0  0  0  0
    1.0050   67.5017   80.3727 N   0  0  0  0  0  0  0  0  0  0  0  0
    1.5302   68.3333   81.2740 C   0  0  0  0  0  0  0  0  0  0  0  0
    2.5092   68.9201   84.2781 H   0  0  0  0  0  0  0  0  0  0  0  0
    0.7763   70.6181   80.6750 C   0  0  0  0  0  0  0  0  0  0  0  0
   -1.1305   72.0396   81.6644 C   0  0  0  0  0  0  0  0  0  0  0  0
   -0.2895   70.9993   81.6720 C   0  0  0  0  0  0  0  0  0  0  0  0
   -0.4896   61.2595   81.7962 C   0  0  0  0  0  0  0  0  0  0  0  0
   -1.6615   61.3976   80.8621 C   0  0  0  0  0  0  0  0  0  0  0  0
   -2.9501   61.6701   81.3479 C   0  0  0  0  0  0  0  0  0  0  0  0
   -4.0290   61.7893   80.4683 C   0  0  0  0  0  0  0  0  0  0  0  0
   -3.8340   61.6402   79.0953 C   0  0  0  0  0  0  0  0  0  0  0  0
   -2.5588   61.3728   78.6019 C   0  0  0  0  0  0  0  0  0  0  0  0
   -1.4879   61.2547   79.4837 C   0  0  0  0  0  0  0  0  0  0  0  0
   -0.2686   61.0103   78.9838 F   0  0  0  0  0  0  0  0  0  0  0  0
 24 25  2  0  0  0
 25 23  1  0  0  0
 23 11  1  0  0  0
 11 12  1  0  0  0
 11 13  1  0  0  0
 13 14  2  0  0  0
 13 15  1  0  0  0
 15 16  1  0  0  0
 16 17  1  0  0  0
 17 18  2  0  0  0
 18  1  1  0  0  0
  1  2  2  0  0  0
  2  3  1  0  0  0
  3 26  1  0  0  0
 26 27  1  0  0  0
 27 28  2  0  0  0
 28 29  1  0  0  0
 29 30  2  0  0  0
 30 31  1  0  0  0
 31 32  2  0  0  0
 32 33  1  0  0  0
  3  4  1  0  0  0
  4  5  1  0  0  0
  5  6  2  0  0  0
  6  7  1  0  0  0
  7  8  1  0  0  0
  7  9  2  0  0  0
  9 10  1  0  0  0
 18 19  1  0  0  0
 19 20  2  0  0  0
 20 21  1  0  0  0
 21 11  1  0  0  0
 21 16  2  0  0  0
 10  1  1  0  0  0
 32 27  1  0  0  0
 10  4  2  0  0  0
 15 22  1  0  0  0
M  END
> <minimizedAffinity>
-10.83497

$$$$



 33 37  0  0  0  0  0  0  0  0999 V2000
    0.3733   64.7247   82.0171 C   0  0  0  0  0  0  0  0  0  0  0  0
    0.5588   64.1544   83.2276 N   0  0  0  0  0  0  0  0  0  0  0  0
    0.0595   62.9043   83.0990 N   0  0  0  0  0  0  0  0  0  0  0  0
   -0.4801   62.6549   81.8692 C   0  0  0  0  0  0  0  0  0  0  0  0
   -1.0732   61.5114   81.4648 N   0  0  0  0  0  0  0  0  0  0  0  0
   -1.4956   61.5631   80.1790 C   0  0  0  0  0  0  0  0  0  0  0  0
   -1.3583   62.6533   79.3349 C   0  0  0  0  0  0  0  0  0  0  0  0
   -1.8147   62.5958   78.0772 F   0  0  0  0  0  0  0  0  0  0  0  0
   -0.7456   63.8129   79.7964 C   0  0  0  0  0  0  0  0  0  0  0  0
   -0.2860   63.8144   81.1269 C   0  0  0  0  0  0  0  0  0  0  0  0
    2.0570   69.9937   81.0308 C   0  0  0  0  0  0  0  0  0  0  0  0
    3.2258   70.0768   80.0512 C   0  0  0  0  0  0  0  0  0  0  0  0
    2.5361   70.1684   82.4988 C   0  0  0  0  0  0  0  0  0  0  0  0
    3.0980   71.1328   82.9903 O   0  0  0  0  0  0  0  0  0  0  0  0
    2.2428   69.0059   83.1958 N   0  0  0  0  0  0  0  0  0  0  0  0
    1.6827   68.0547   82.3715 C   0  0  0  0  0  0  0  0  0  0  0  0
    1.3250   66.8295   82.7459 N   0  0  0  0  0  0  0  0  0  0  0  0
    0.8100   66.1013   81.7267 C   0  0  0  0  0  0  0  0  0  0  0  0
    0.6632   66.5554   80.4438 N   0  0  0  0  0  0  0  0  0  0  0  0
    1.0470   67.8217   80.1128 N   0  0  0  0  0  0  0  0  0  0  0  0
    1.5593   68.5600   81.0988 C   0  0  0  0  0  0  0  0  0  0  0  0
    2.4632   68.8583   84.1683 H   0  0  0  0  0  0  0  0  0  0  0  0
    0.8567   70.9021   80.6882 C   0  0  0  0  0  0  0  0  0  0  0  0
   -1.2561   72.0272   81.6398 C   0  0  0  0  0  0  0  0  0  0  0  0
   -0.3127   71.0788   81.6244 C   0  0  0  0  0  0  0  0  0  0  0  0
    0.0992   61.9842   84.2259 C   0  0  0  0  0  0  0  0  0  0  0  0
   -0.7332   62.4809   85.3771 C   0  0  0  0  0  0  0  0  0  0  0  0
   -0.1374   63.0663   86.5055 C   0  0  0  0  0  0  0  0  0  0  0  0
   -0.9236   63.5170   87.5689 C   0  0  0  0  0  0  0  0  0  0  0  0
   -2.3117   63.3907   87.5174 C   0  0  0  0  0  0  0  0  0  0  0  0
   -2.9138   62.8143   86.4010 C   0  0  0  0  0  0  0  0  0  0  0  0
   -2.1247   62.3666   85.3448 C   0  0  0  0  0  0  0  0  0  0  0  0
   -2.7280   61.8277   84.2763 F   0  0  0  0  0  0  0  0  0  0  0  0
 24 25  2  0  0  0
 25 23  1  0  0  0
 23 11  1  0  0  0
 11 12  1  0  0  0
 11 13  1  0  0  0
 13 14  2  0  0  0
 13 15  1  0  0  0
 15 16  1  0  0  0
 16 17  1  0  0  0
 17 18  2  0  0  0
 18  1  1  0  0  0
  1  2  2  0  0  0
  2  3  1  0  0  0
  3 26  1  0  0  0
 26 27  1  0  0  0
 27 28  2  0  0  0
 28 29  1  0  0  0
 29 30  2  0  0  0
 30 31  1  0  0  0
 31 32  2  0  0  0
 32 33  1  0  0  0
  3  4  1  0  0  0
  4  5  1  0  0  0
  5  6  2  0  0  0
  6  7  1  0  0  0
  7  8  1  0  0  0
  7  9  2  0  0  0
  9 10  1  0  0  0
 18 19  1  0  0  0
 19 20  2  0  0  0
 20 21  1  0  0  0
 21 11  1  0  0  0
 21 16  2  0  0  0
 10  1  1  0  0  0
 32 27  1  0  0  0
 10  4  2  0  0  0
 15 22  1  0  0  0
M  END
> <minimizedAffinity>
-10.71086

$$$$



 33 37  0  0  0  0  0  0  0  0999 V2000
    1.7167   66.7377   83.2429 C   0  0  0  0  0  0  0  0  0  0  0  0
    2.5551   66.6336   84.2970 N   0  0  0  0  0  0  0  0  0  0  0  0
    3.0549   67.8790   84.4634 N   0  0  0  0  0  0  0  0  0  0  0  0
    2.6082   68.7759   83.5350 C   0  0  0  0  0  0  0  0  0  0  0  0
    2.9568   70.0765   83.4361 N   0  0  0  0  0  0  0  0  0  0  0  0
    2.3306   70.7140   82.4184 C   0  0  0  0  0  0  0  0  0  0  0  0
    1.4258   70.1315   81.5455 C   0  0  0  0  0  0  0  0  0  0  0  0
    0.8644   70.8576   80.5703 F   0  0  0  0  0  0  0  0  0  0  0  0
    1.1007   68.7865   81.6815 C   0  0  0  0  0  0  0  0  0  0  0  0
    1.7223   68.0747   82.7247 C   0  0  0  0  0  0  0  0  0  0  0  0
   -1.2235   62.3928   81.2312 C   0  0  0  0  0  0  0  0  0  0  0  0
   -0.7214   61.0424   81.7380 C   0  0  0  0  0  0  0  0  0  0  0  0
   -0.7358   62.6696   79.7818 C   0  0  0  0  0  0  0  0  0  0  0  0
   -0.9700   62.0168   78.7786 O   0  0  0  0  0  0  0  0  0  0  0  0
    0.0625   63.8034   79.7981 N   0  0  0  0  0  0  0  0  0  0  0  0
    0.2198   64.2877   81.0782 C   0  0  0  0  0  0  0  0  0  0  0  0
    0.9554   65.3438   81.4141 N   0  0  0  0  0  0  0  0  0  0  0  0
    0.9397   65.5891   82.7459 C   0  0  0  0  0  0  0  0  0  0  0  0
    0.2492   64.8458   83.6649 N   0  0  0  0  0  0  0  0  0  0  0  0
   -0.4903   63.7712   83.2666 N   0  0  0  0  0  0  0  0  0  0  0  0
   -0.4905   63.5068   81.9590 C   0  0  0  0  0  0  0  0  0  0  0  0
    0.5140   64.1893   78.9837 H   0  0  0  0  0  0  0  0  0  0  0  0
   -2.7401   62.6267   81.3999 C   0  0  0  0  0  0  0  0  0  0  0  0
   -4.2973   61.4924   79.6899 C   0  0  0  0  0  0  0  0  0  0  0  0
   -3.7672   61.6367   80.9097 C   0  0  0  0  0  0  0  0  0  0  0  0
    4.0039   68.1465   85.5339 C   0  0  0  0  0  0  0  0  0  0  0  0
    5.2756   67.3616   85.3567 C   0  0  0  0  0  0  0  0  0  0  0  0
    6.0545   67.4918   84.1959 C   0  0  0  0  0  0  0  0  0  0  0  0
    7.2295   66.7514   84.0438 C   0  0  0  0  0  0  0  0  0  0  0  0
    7.6412   65.8754   85.0479 C   0  0  0  0  0  0  0  0  0  0  0  0
    6.8777   65.7407   86.2055 C   0  0  0  0  0  0  0  0  0  0  0  0
    5.7075   66.4809   86.3509 C   0  0  0  0  0  0  0  0  0  0  0  0
    4.9971   66.3439   87.4791 F   0  0  0  0  0  0  0  0  0  0  0  0
 24 25  2  0  0  0
 25 23  1  0  0  0
 23 11  1  0  0  0
 11 12  1  0  0  0
 11 13  1  0  0  0
 13 14  2  0  0  0
 13 15  1  0  0  0
 15 16  1  0  0  0
 16 17  1  0  0  0
 17 18  2  0  0  0
 18  1  1  0  0  0
  1  2  2  0  0  0
  2  3  1  0  0  0
  3 26  1  0  0  0
 26 27  1  0  0  0
 27 28  2  0  0  0
 28 29  1  0  0  0
 29 30  2  0  0  0
 30 31  1  0  0  0
 31 32  2  0  0  0
 32 33  1  0  0  0
  3  4  1  0  0  0
  4  5  1  0  0  0
  5  6  2  0  0  0
  6  7  1  0  0  0
  7  8  1  0  0  0
  7  9  2  0  0  0
  9 10  1  0  0  0
 18 19  1  0  0  0
 19 20  2  0  0  0
 20 21  1  0  0  0
 21 11  1  0  0  0
 21 16  2  0  0  0
 10  1  1  0  0  0
 32 27  1  0  0  0
 10  4  2  0  0  0
 15 22  1  0  0  0
M  END
> <minimizedAffinity>
-10.63119

$$$$
