


 35 38  0  0  0  0  0  0  0  0999 V2000
   -0.5267   61.7502   82.2903 N   0  0  0  0  0  0  0  0  0  0  0  0
    0.3917   61.5176   81.9417 H   0  0  0  0  0  0  0  0  0  0  0  0
    0.2829   64.2751   84.6428 C   0  0  0  0  0  0  0  0  0  0  0  0
    0.1137   63.6144   83.4844 N   0  0  0  0  0  0  0  0  0  0  0  0
   -0.3990   62.3786   83.5270 C   0  0  0  0  0  0  0  0  0  0  0  0
   -0.7314   61.7556   84.6616 N   0  0  0  0  0  0  0  0  0  0  0  0
   -0.5837   62.4133   85.8121 C   0  0  0  0  0  0  0  0  0  0  0  0
   -0.9495   61.7773   86.9928 C   0  0  0  0  0  0  0  0  0  0  0  0
   -0.8360   62.4049   88.2362 C   0  0  0  0  0  0  0  0  0  0  0  0
   -0.3499   63.7028   88.3094 C   0  0  0  0  0  0  0  0  0  0  0  0
    0.0262   64.3576   87.1386 C   0  0  0  0  0  0  0  0  0  0  0  0
   -0.0787   63.7134   85.8782 C   0  0  0  0  0  0  0  0  0  0  0  0
    0.8265   65.5823   84.6124 N   0  0  0  0  0  0  0  0  0  0  0  0
    0.6224   66.0270   85.5037 H   0  0  0  0  0  0  0  0  0  0  0  0
    2.2590   65.6470   84.2938 C   0  0  0  0  0  0  0  0  0  0  0  0
    2.5382   66.8803   83.4042 C   0  0  0  0  0  0  0  0  0  0  0  0
    1.6168   66.4645   81.1850 C   0  0  0  0  0  0  0  0  0  0  0  0
    1.4649   67.2000   82.4414 N   0  0  0  0  0  0  0  0  0  0  0  0
    1.4472   68.6407   82.1731 C   0  0  0  0  0  0  0  0  0  0  0  0
   -1.6113   61.5281   81.4357 C   0  0  0  0  0  0  0  0  0  0  0  0
   -2.8679   62.0461   81.7958 C   0  0  0  0  0  0  0  0  0  0  0  0
   -3.9813   61.9226   80.9567 C   0  0  0  0  0  0  0  0  0  0  0  0
   -3.8566   61.2840   79.7277 C   0  0  0  0  0  0  0  0  0  0  0  0
   -2.6156   60.7667   79.3582 C   0  0  0  0  0  0  0  0  0  0  0  0
   -1.5023   60.8878   80.1991 C   0  0  0  0  0  0  0  0  0  0  0  0
   -2.4256   59.9801   77.7809 S   0  0  0  0  0  0  0  0  0  0  0  0
   -1.4643   58.9119   77.9475 O   0  0  0  0  0  0  0  0  0  0  0  0
   -3.7451   59.7267   77.2375 O   0  0  0  0  0  0  0  0  0  0  0  0
   -1.7193   61.1879   76.8104 N   0  0  0  0  0  0  0  0  0  0  0  0
   -0.2216   61.2523   76.8267 C   0  0  0  0  0  0  0  0  0  0  0  0
    0.2826   62.4711   77.6192 C   0  0  0  0  0  0  0  0  0  0  0  0
   -0.1473   63.7601   77.0342 N   0  0  0  0  0  0  0  0  0  0  0  0
   -0.1041   64.8163   78.0428 C   0  0  0  0  0  0  0  0  0  0  0  0
   -1.4812   63.6511   76.4073 C   0  0  0  0  0  0  0  0  0  0  0  0
   -2.3671   62.5271   76.9740 C   0  0  0  0  0  0  0  0  0  0  0  0
 17 18  1  0  0  0
 18 19  1  0  0  0
 18 16  1  0  0  0
 16 15  1  0  0  0
 15 13  1  0  0  0
 13  3  1  0  0  0
  3  4  1  0  0  0
  4  5  2  0  0  0
  5  1  1  0  0  0
  1 20  1  0  0  0
 20 21  1  0  0  0
 21 22  2  0  0  0
 22 23  1  0  0  0
 23 24  2  0  0  0
 24 26  1  0  0  0
 26 27  2  0  0  0
 26 28  2  0  0  0
 26 29  1  0  0  0
 29 30  1  0  0  0
 30 31  1  0  0  0
 31 32  1  0  0  0
 32 33  1  0  0  0
 32 34  1  0  0  0
 34 35  1  0  0  0
 24 25  1  0  0  0
  5  6  1  0  0  0
  6  7  2  0  0  0
  7  8  1  0  0  0
  8  9  2  0  0  0
  9 10  1  0  0  0
 10 11  2  0  0  0
 11 12  1  0  0  0
 12  3  2  0  0  0
 25 20  2  0  0  0
 12  7  1  0  0  0
 35 29  1  0  0  0
 13 14  1  0  0  0
  1  2  1  0  0  0
M  END
> <minimizedAffinity>
-9.97049

$$$$



 35 38  0  0  0  0  0  0  0  0999 V2000
   -0.3693   61.9671   82.0433 N   0  0  0  0  0  0  0  0  0  0  0  0
    0.3074   61.2568   82.2812 H   0  0  0  0  0  0  0  0  0  0  0  0
    0.7091   64.5646   84.2008 C   0  0  0  0  0  0  0  0  0  0  0  0
    0.2580   63.3805   83.7521 N   0  0  0  0  0  0  0  0  0  0  0  0
    0.1209   63.2120   82.4313 C   0  0  0  0  0  0  0  0  0  0  0  0
    0.3867   64.1655   81.5335 N   0  0  0  0  0  0  0  0  0  0  0  0
    0.8527   65.3356   81.9715 C   0  0  0  0  0  0  0  0  0  0  0  0
    1.1520   66.3226   81.0394 C   0  0  0  0  0  0  0  0  0  0  0  0
    1.6555   67.5696   81.4192 C   0  0  0  0  0  0  0  0  0  0  0  0
    1.8728   67.8433   82.7625 C   0  0  0  0  0  0  0  0  0  0  0  0
    1.5760   66.8696   83.7138 C   0  0  0  0  0  0  0  0  0  0  0  0
    1.0532   65.6083   83.3262 C   0  0  0  0  0  0  0  0  0  0  0  0
    0.8566   64.7572   85.5958 N   0  0  0  0  0  0  0  0  0  0  0  0
    0.4875   65.6764   85.8257 H   0  0  0  0  0  0  0  0  0  0  0  0
    0.2522   63.7101   86.4301 C   0  0  0  0  0  0  0  0  0  0  0  0
    0.8548   63.7669   87.8528 C   0  0  0  0  0  0  0  0  0  0  0  0
    0.3055   62.1042   89.5499 C   0  0  0  0  0  0  0  0  0  0  0  0
   -0.0753   63.3748   88.9309 N   0  0  0  0  0  0  0  0  0  0  0  0
   -1.4395   63.2800   88.4039 C   0  0  0  0  0  0  0  0  0  0  0  0
   -1.4868   61.5651   81.3045 C   0  0  0  0  0  0  0  0  0  0  0  0
   -2.7662   61.8804   81.7955 C   0  0  0  0  0  0  0  0  0  0  0  0
   -3.9260   61.5713   81.0757 C   0  0  0  0  0  0  0  0  0  0  0  0
   -3.8283   60.9464   79.8371 C   0  0  0  0  0  0  0  0  0  0  0  0
   -2.5653   60.6292   79.3385 C   0  0  0  0  0  0  0  0  0  0  0  0
   -1.4050   60.9360   80.0601 C   0  0  0  0  0  0  0  0  0  0  0  0
   -2.4158   59.8646   77.7461 S   0  0  0  0  0  0  0  0  0  0  0  0
   -1.3307   58.9112   77.8285 O   0  0  0  0  0  0  0  0  0  0  0  0
   -3.7379   59.4635   77.3085 O   0  0  0  0  0  0  0  0  0  0  0  0
   -1.9291   61.1413   76.7299 N   0  0  0  0  0  0  0  0  0  0  0  0
   -0.4533   61.2747   76.5022 C   0  0  0  0  0  0  0  0  0  0  0  0
    0.1274   62.4835   77.2567 C   0  0  0  0  0  0  0  0  0  0  0  0
   -0.4443   63.7730   76.8112 N   0  0  0  0  0  0  0  0  0  0  0  0
   -0.2754   64.7896   77.8470 C   0  0  0  0  0  0  0  0  0  0  0  0
   -1.8587   63.6268   76.4082 C   0  0  0  0  0  0  0  0  0  0  0  0
   -2.5929   62.4413   77.0601 C   0  0  0  0  0  0  0  0  0  0  0  0
 17 18  1  0  0  0
 18 19  1  0  0  0
 18 16  1  0  0  0
 16 15  1  0  0  0
 15 13  1  0  0  0
 13  3  1  0  0  0
  3  4  1  0  0  0
  4  5  2  0  0  0
  5  1  1  0  0  0
  1 20  1  0  0  0
 20 21  1  0  0  0
 21 22  2  0  0  0
 22 23  1  0  0  0
 23 24  2  0  0  0
 24 26  1  0  0  0
 26 27  2  0  0  0
 26 28  2  0  0  0
 26 29  1  0  0  0
 29 30  1  0  0  0
 30 31  1  0  0  0
 31 32  1  0  0  0
 32 33  1  0  0  0
 32 34  1  0  0  0
 34 35  1  0  0  0
 24 25  1  0  0  0
  5  6  1  0  0  0
  6  7  2  0  0  0
  7  8  1  0  0  0
  8  9  2  0  0  0
  9 10  1  0  0  0
 10 11  2  0  0  0
 11 12  1  0  0  0
 12  3  2  0  0  0
 25 20  2  0  0  0
 12  7  1  0  0  0
 35 29  1  0  0  0
 13 14  1  0  0  0
  1  2  1  0  0  0
M  END
> <minimizedAffinity>
-9.77012

$$$$



 35 38  0  0  0  0  0  0  0  0999 V2000
   -0.5714   61.5756   82.2657 N   0  0  0  0  0  0  0  0  0  0  0  0
    0.3347   61.2534   81.9587 H   0  0  0  0  0  0  0  0  0  0  0  0
    0.2829   64.1895   84.5023 C   0  0  0  0  0  0  0  0  0  0  0  0
    0.0985   63.4816   83.3745 N   0  0  0  0  0  0  0  0  0  0  0  0
   -0.4284   62.2551   83.4733 C   0  0  0  0  0  0  0  0  0  0  0  0
   -0.7608   61.6855   84.6356 N   0  0  0  0  0  0  0  0  0  0  0  0
   -0.5980   62.3902   85.7559 C   0  0  0  0  0  0  0  0  0  0  0  0
   -0.9637   61.8101   86.9650 C   0  0  0  0  0  0  0  0  0  0  0  0
   -0.8348   62.4892   88.1795 C   0  0  0  0  0  0  0  0  0  0  0  0
   -0.3331   63.7832   88.1939 C   0  0  0  0  0  0  0  0  0  0  0  0
    0.0432   64.3824   86.9937 C   0  0  0  0  0  0  0  0  0  0  0  0
   -0.0773   63.6859   85.7629 C   0  0  0  0  0  0  0  0  0  0  0  0
    0.8416   65.4875   84.4124 N   0  0  0  0  0  0  0  0  0  0  0  0
    1.6935   65.5008   84.9673 H   0  0  0  0  0  0  0  0  0  0  0  0
    1.0834   65.9612   83.0431 C   0  0  0  0  0  0  0  0  0  0  0  0
    2.4790   66.6215   82.9606 C   0  0  0  0  0  0  0  0  0  0  0  0
    3.0486   68.4970   84.4113 C   0  0  0  0  0  0  0  0  0  0  0  0
    3.0390   67.0409   84.2612 N   0  0  0  0  0  0  0  0  0  0  0  0
    4.4000   66.5184   84.4110 C   0  0  0  0  0  0  0  0  0  0  0  0
   -1.6458   61.3960   81.3885 C   0  0  0  0  0  0  0  0  0  0  0  0
   -2.8927   61.9486   81.7308 C   0  0  0  0  0  0  0  0  0  0  0  0
   -3.9932   61.8683   80.8698 C   0  0  0  0  0  0  0  0  0  0  0  0
   -3.8647   61.2391   79.6362 C   0  0  0  0  0  0  0  0  0  0  0  0
   -2.6333   60.6878   79.2843 C   0  0  0  0  0  0  0  0  0  0  0  0
   -1.5330   60.7657   80.1471 C   0  0  0  0  0  0  0  0  0  0  0  0
   -2.4375   59.9123   77.7022 S   0  0  0  0  0  0  0  0  0  0  0  0
   -1.4930   58.8293   77.8694 O   0  0  0  0  0  0  0  0  0  0  0  0
   -3.7545   59.6822   77.1427 O   0  0  0  0  0  0  0  0  0  0  0  0
   -1.7040   61.1185   76.7499 N   0  0  0  0  0  0  0  0  0  0  0  0
   -0.2050   61.1259   76.7379 C   0  0  0  0  0  0  0  0  0  0  0  0
    0.3605   62.3029   77.5520 C   0  0  0  0  0  0  0  0  0  0  0  0
   -0.0308   63.6225   77.0099 N   0  0  0  0  0  0  0  0  0  0  0  0
    0.0719   64.6486   78.0450 C   0  0  0  0  0  0  0  0  0  0  0  0
   -1.3796   63.5809   76.4072 C   0  0  0  0  0  0  0  0  0  0  0  0
   -2.2969   62.4762   76.9617 C   0  0  0  0  0  0  0  0  0  0  0  0
 17 18  1  0  0  0
 18 19  1  0  0  0
 18 16  1  0  0  0
 16 15  1  0  0  0
 15 13  1  0  0  0
 13  3  1  0  0  0
  3  4  1  0  0  0
  4  5  2  0  0  0
  5  1  1  0  0  0
  1 20  1  0  0  0
 20 21  1  0  0  0
 21 22  2  0  0  0
 22 23  1  0  0  0
 23 24  2  0  0  0
 24 26  1  0  0  0
 26 27  2  0  0  0
 26 28  2  0  0  0
 26 29  1  0  0  0
 29 30  1  0  0  0
 30 31  1  0  0  0
 31 32  1  0  0  0
 32 33  1  0  0  0
 32 34  1  0  0  0
 34 35  1  0  0  0
 24 25  1  0  0  0
  5  6  1  0  0  0
  6  7  2  0  0  0
  7  8  1  0  0  0
  8  9  2  0  0  0
  9 10  1  0  0  0
 10 11  2  0  0  0
 11 12  1  0  0  0
 12  3  2  0  0  0
 25 20  2  0  0  0
 12  7  1  0  0  0
 35 29  1  0  0  0
 13 14  1  0  0  0
  1  2  1  0  0  0
M  END
> <minimizedAffinity>
-9.71602

$$$$



 35 38  0  0  0  0  0  0  0  0999 V2000
    0.9319   65.6926   84.6701 N   0  0  0  0  0  0  0  0  0  0  0  0
    0.3133   66.4461   84.9323 H   0  0  0  0  0  0  0  0  0  0  0  0
    3.6048   67.9008   83.9322 C   0  0  0  0  0  0  0  0  0  0  0  0
    2.3703   67.3800   84.0419 N   0  0  0  0  0  0  0  0  0  0  0  0
    2.2373   66.1749   84.6092 C   0  0  0  0  0  0  0  0  0  0  0  0
    3.2683   65.4496   85.0529 N   0  0  0  0  0  0  0  0  0  0  0  0
    4.4932   65.9692   84.9642 C   0  0  0  0  0  0  0  0  0  0  0  0
    5.5661   65.2278   85.4452 C   0  0  0  0  0  0  0  0  0  0  0  0
    6.8771   65.7092   85.3989 C   0  0  0  0  0  0  0  0  0  0  0  0
    7.1301   66.9648   84.8642 C   0  0  0  0  0  0  0  0  0  0  0  0
    6.0697   67.7233   84.3728 C   0  0  0  0  0  0  0  0  0  0  0  0
    4.7406   67.2268   84.4100 C   0  0  0  0  0  0  0  0  0  0  0  0
    3.7601   69.1738   83.3320 N   0  0  0  0  0  0  0  0  0  0  0  0
    4.6223   69.1628   82.7931 H   0  0  0  0  0  0  0  0  0  0  0  0
    2.6207   69.6140   82.5161 C   0  0  0  0  0  0  0  0  0  0  0  0
    2.9209   69.3551   81.0217 C   0  0  0  0  0  0  0  0  0  0  0  0
    0.5118   69.1038   80.7391 C   0  0  0  0  0  0  0  0  0  0  0  0
    1.8360   68.6758   80.2850 N   0  0  0  0  0  0  0  0  0  0  0  0
    1.9649   67.2234   80.4327 C   0  0  0  0  0  0  0  0  0  0  0  0
    0.3786   64.4111   84.5821 C   0  0  0  0  0  0  0  0  0  0  0  0
   -0.2475   63.8697   85.7187 C   0  0  0  0  0  0  0  0  0  0  0  0
   -0.8829   62.6231   85.6837 C   0  0  0  0  0  0  0  0  0  0  0  0
   -0.9147   61.8933   84.5004 C   0  0  0  0  0  0  0  0  0  0  0  0
   -0.2983   62.4195   83.3657 C   0  0  0  0  0  0  0  0  0  0  0  0
    0.3399   63.6655   83.4015 C   0  0  0  0  0  0  0  0  0  0  0  0
   -0.3572   61.5225   81.8378 S   0  0  0  0  0  0  0  0  0  0  0  0
    1.0044   61.1801   81.4888 O   0  0  0  0  0  0  0  0  0  0  0  0
   -1.3842   60.5057   81.9469 O   0  0  0  0  0  0  0  0  0  0  0  0
   -0.9229   62.6725   80.7165 N   0  0  0  0  0  0  0  0  0  0  0  0
   -2.2526   62.3803   80.0890 C   0  0  0  0  0  0  0  0  0  0  0  0
   -2.1007   61.9448   78.6210 C   0  0  0  0  0  0  0  0  0  0  0  0
   -1.4984   62.9911   77.7662 N   0  0  0  0  0  0  0  0  0  0  0  0
   -0.9136   62.3946   76.5674 C   0  0  0  0  0  0  0  0  0  0  0  0
   -0.5143   63.8004   78.5150 C   0  0  0  0  0  0  0  0  0  0  0  0
    0.1175   63.0867   79.7236 C   0  0  0  0  0  0  0  0  0  0  0  0
 17 18  1  0  0  0
 18 19  1  0  0  0
 18 16  1  0  0  0
 16 15  1  0  0  0
 15 13  1  0  0  0
 13  3  1  0  0  0
  3  4  1  0  0  0
  4  5  2  0  0  0
  5  1  1  0  0  0
  1 20  1  0  0  0
 20 21  1  0  0  0
 21 22  2  0  0  0
 22 23  1  0  0  0
 23 24  2  0  0  0
 24 26  1  0  0  0
 26 27  2  0  0  0
 26 28  2  0  0  0
 26 29  1  0  0  0
 29 30  1  0  0  0
 30 31  1  0  0  0
 31 32  1  0  0  0
 32 33  1  0  0  0
 32 34  1  0  0  0
 34 35  1  0  0  0
 24 25  1  0  0  0
  5  6  1  0  0  0
  6  7  2  0  0  0
  7  8  1  0  0  0
  8  9  2  0  0  0
  9 10  1  0  0  0
 10 11  2  0  0  0
 11 12  1  0  0  0
 12  3  2  0  0  0
 25 20  2  0  0  0
 12  7  1  0  0  0
 35 29  1  0  0  0
 13 14  1  0  0  0
  1  2  1  0  0  0
M  END
> <minimizedAffinity>
-9.61604

$$$$



 35 38  0  0  0  0  0  0  0  0999 V2000
    1.1086   65.5248   85.3341 N   0  0  0  0  0  0  0  0  0  0  0  0
    0.7308   66.0324   86.1207 H   0  0  0  0  0  0  0  0  0  0  0  0
    3.5903   67.7033   84.0456 C   0  0  0  0  0  0  0  0  0  0  0  0
    2.3983   67.1778   84.3774 N   0  0  0  0  0  0  0  0  0  0  0  0
    2.3790   66.0162   85.0423 C   0  0  0  0  0  0  0  0  0  0  0  0
    3.4809   65.3373   85.3752 N   0  0  0  0  0  0  0  0  0  0  0  0
    4.6665   65.8630   85.0655 C   0  0  0  0  0  0  0  0  0  0  0  0
    5.8159   65.1712   85.4300 C   0  0  0  0  0  0  0  0  0  0  0  0
    7.0940   65.6629   85.1519 C   0  0  0  0  0  0  0  0  0  0  0  0
    7.2356   66.8786   84.4974 C   0  0  0  0  0  0  0  0  0  0  0  0
    6.0968   67.5868   84.1197 C   0  0  0  0  0  0  0  0  0  0  0  0
    4.7998   67.0792   84.3925 C   0  0  0  0  0  0  0  0  0  0  0  0
    3.6253   68.9305   83.3401 N   0  0  0  0  0  0  0  0  0  0  0  0
    4.4581   68.9327   82.7568 H   0  0  0  0  0  0  0  0  0  0  0  0
    2.4183   69.2258   82.5567 C   0  0  0  0  0  0  0  0  0  0  0  0
    2.7134   69.0252   81.0523 C   0  0  0  0  0  0  0  0  0  0  0  0
    0.3594   68.6207   80.5602 C   0  0  0  0  0  0  0  0  0  0  0  0
    1.7366   68.1752   80.3419 N   0  0  0  0  0  0  0  0  0  0  0  0
    1.8808   66.7818   80.7724 C   0  0  0  0  0  0  0  0  0  0  0  0
    0.3708   64.4347   84.8613 C   0  0  0  0  0  0  0  0  0  0  0  0
    0.1350   63.3549   85.7305 C   0  0  0  0  0  0  0  0  0  0  0  0
   -0.6529   62.2630   85.3487 C   0  0  0  0  0  0  0  0  0  0  0  0
   -1.2336   62.2342   84.0854 C   0  0  0  0  0  0  0  0  0  0  0  0
   -1.0084   63.2994   83.2142 C   0  0  0  0  0  0  0  0  0  0  0  0
   -0.2177   64.3905   83.5953 C   0  0  0  0  0  0  0  0  0  0  0  0
   -1.7676   63.3001   81.6122 S   0  0  0  0  0  0  0  0  0  0  0  0
   -3.1370   63.7330   81.7869 O   0  0  0  0  0  0  0  0  0  0  0  0
   -0.8778   63.9740   80.6877 O   0  0  0  0  0  0  0  0  0  0  0  0
   -1.7795   61.6556   81.1708 N   0  0  0  0  0  0  0  0  0  0  0  0
   -0.6452   61.1993   80.3033 C   0  0  0  0  0  0  0  0  0  0  0  0
   -1.1065   60.9467   78.8572 C   0  0  0  0  0  0  0  0  0  0  0  0
   -2.1208   59.8751   78.7520 N   0  0  0  0  0  0  0  0  0  0  0  0
   -2.8815   60.0143   77.5123 C   0  0  0  0  0  0  0  0  0  0  0  0
   -3.0014   59.8460   79.9385 C   0  0  0  0  0  0  0  0  0  0  0  0
   -3.1156   61.1865   80.6865 C   0  0  0  0  0  0  0  0  0  0  0  0
 17 18  1  0  0  0
 18 19  1  0  0  0
 18 16  1  0  0  0
 16 15  1  0  0  0
 15 13  1  0  0  0
 13  3  1  0  0  0
  3  4  1  0  0  0
  4  5  2  0  0  0
  5  1  1  0  0  0
  1 20  1  0  0  0
 20 21  1  0  0  0
 21 22  2  0  0  0
 22 23  1  0  0  0
 23 24  2  0  0  0
 24 26  1  0  0  0
 26 27  2  0  0  0
 26 28  2  0  0  0
 26 29  1  0  0  0
 29 30  1  0  0  0
 30 31  1  0  0  0
 31 32  1  0  0  0
 32 33  1  0  0  0
 32 34  1  0  0  0
 34 35  1  0  0  0
 24 25  1  0  0  0
  5  6  1  0  0  0
  6  7  2  0  0  0
  7  8  1  0  0  0
  8  9  2  0  0  0
  9 10  1  0  0  0
 10 11  2  0  0  0
 11 12  1  0  0  0
 12  3  2  0  0  0
 25 20  2  0  0  0
 12  7  1  0  0  0
 35 29  1  0  0  0
 13 14  1  0  0  0
  1  2  1  0  0  0
M  END
> <minimizedAffinity>
-9.58264

$$$$



 35 38  0  0  0  0  0  0  0  0999 V2000
    0.6437   65.4752   84.5692 N   0  0  0  0  0  0  0  0  0  0  0  0
    0.0148   66.0188   85.1419 H   0  0  0  0  0  0  0  0  0  0  0  0
    3.1634   67.9503   84.2700 C   0  0  0  0  0  0  0  0  0  0  0  0
    1.9672   67.3372   84.2650 N   0  0  0  0  0  0  0  0  0  0  0  0
    1.9131   66.0469   84.6171 C   0  0  0  0  0  0  0  0  0  0  0  0
    2.9881   65.3271   84.9521 N   0  0  0  0  0  0  0  0  0  0  0  0
    4.1747   65.9348   84.9774 C   0  0  0  0  0  0  0  0  0  0  0  0
    5.2923   65.1956   85.3472 C   0  0  0  0  0  0  0  0  0  0  0  0
    6.5672   65.7643   85.4095 C   0  0  0  0  0  0  0  0  0  0  0  0
    6.7371   67.1067   85.1004 C   0  0  0  0  0  0  0  0  0  0  0  0
    5.6310   67.8653   84.7235 C   0  0  0  0  0  0  0  0  0  0  0  0
    4.3392   67.2821   84.6493 C   0  0  0  0  0  0  0  0  0  0  0  0
    3.2353   69.3144   83.8973 N   0  0  0  0  0  0  0  0  0  0  0  0
    4.1601   69.6580   84.1437 H   0  0  0  0  0  0  0  0  0  0  0  0
    2.9173   69.5866   82.4893 C   0  0  0  0  0  0  0  0  0  0  0  0
    1.7348   70.5792   82.4062 C   0  0  0  0  0  0  0  0  0  0  0  0
    0.7095   68.7927   81.1008 C   0  0  0  0  0  0  0  0  0  0  0  0
    0.4754   69.9949   81.9024 N   0  0  0  0  0  0  0  0  0  0  0  0
   -0.2524   70.9872   81.1065 C   0  0  0  0  0  0  0  0  0  0  0  0
    0.1485   64.2851   84.0265 C   0  0  0  0  0  0  0  0  0  0  0  0
   -0.5619   63.4082   84.8653 C   0  0  0  0  0  0  0  0  0  0  0  0
   -1.1451   62.2340   84.3753 C   0  0  0  0  0  0  0  0  0  0  0  0
   -1.0382   61.9169   83.0255 C   0  0  0  0  0  0  0  0  0  0  0  0
   -0.3371   62.7786   82.1829 C   0  0  0  0  0  0  0  0  0  0  0  0
    0.2488   63.9520   82.6737 C   0  0  0  0  0  0  0  0  0  0  0  0
   -0.2185   62.4121   80.4525 S   0  0  0  0  0  0  0  0  0  0  0  0
    0.0842   63.6519   79.7712 O   0  0  0  0  0  0  0  0  0  0  0  0
    0.6209   61.2414   80.2923 O   0  0  0  0  0  0  0  0  0  0  0  0
   -1.8000   61.9429   80.0303 N   0  0  0  0  0  0  0  0  0  0  0  0
   -2.0911   60.4740   80.1006 C   0  0  0  0  0  0  0  0  0  0  0  0
   -2.2019   59.8526   78.6972 C   0  0  0  0  0  0  0  0  0  0  0  0
   -3.3088   60.4220   77.8978 N   0  0  0  0  0  0  0  0  0  0  0  0
   -3.0710   60.2052   76.4726 C   0  0  0  0  0  0  0  0  0  0  0  0
   -3.5216   61.8508   78.2098 C   0  0  0  0  0  0  0  0  0  0  0  0
   -2.2836   62.5782   78.7644 C   0  0  0  0  0  0  0  0  0  0  0  0
 17 18  1  0  0  0
 18 19  1  0  0  0
 18 16  1  0  0  0
 16 15  1  0  0  0
 15 13  1  0  0  0
 13  3  1  0  0  0
  3  4  1  0  0  0
  4  5  2  0  0  0
  5  1  1  0  0  0
  1 20  1  0  0  0
 20 21  1  0  0  0
 21 22  2  0  0  0
 22 23  1  0  0  0
 23 24  2  0  0  0
 24 26  1  0  0  0
 26 27  2  0  0  0
 26 28  2  0  0  0
 26 29  1  0  0  0
 29 30  1  0  0  0
 30 31  1  0  0  0
 31 32  1  0  0  0
 32 33  1  0  0  0
 32 34  1  0  0  0
 34 35  1  0  0  0
 24 25  1  0  0  0
  5  6  1  0  0  0
  6  7  2  0  0  0
  7  8  1  0  0  0
  8  9  2  0  0  0
  9 10  1  0  0  0
 10 11  2  0  0  0
 11 12  1  0  0  0
 12  3  2  0  0  0
 25 20  2  0  0  0
 12  7  1  0  0  0
 35 29  1  0  0  0
 13 14  1  0  0  0
  1  2  1  0  0  0
M  END
> <minimizedAffinity>
-9.53878

$$$$



 35 38  0  0  0  0  0  0  0  0999 V2000
    0.8420   64.4561   84.9280 N   0  0  0  0  0  0  0  0  0  0  0  0
    1.4432   64.2563   85.7139 H   0  0  0  0  0  0  0  0  0  0  0  0
    2.7055   67.4197   84.3715 C   0  0  0  0  0  0  0  0  0  0  0  0
    2.2121   66.3091   84.9463 N   0  0  0  0  0  0  0  0  0  0  0  0
    1.3226   65.5806   84.2608 C   0  0  0  0  0  0  0  0  0  0  0  0
    0.8799   65.9094   83.0435 N   0  0  0  0  0  0  0  0  0  0  0  0
    1.3801   66.9994   82.4606 C   0  0  0  0  0  0  0  0  0  0  0  0
    0.9393   67.3325   81.1850 C   0  0  0  0  0  0  0  0  0  0  0  0
    1.4250   68.4519   80.5040 C   0  0  0  0  0  0  0  0  0  0  0  0
    2.3794   69.2613   81.1044 C   0  0  0  0  0  0  0  0  0  0  0  0
    2.8324   68.9479   82.3841 C   0  0  0  0  0  0  0  0  0  0  0  0
    2.3283   67.8173   83.0784 C   0  0  0  0  0  0  0  0  0  0  0  0
    3.6455   68.2009   85.0864 N   0  0  0  0  0  0  0  0  0  0  0  0
    3.3019   68.3122   86.0369 H   0  0  0  0  0  0  0  0  0  0  0  0
    5.0196   67.6821   85.0678 C   0  0  0  0  0  0  0  0  0  0  0  0
    5.5012   67.4348   86.5160 C   0  0  0  0  0  0  0  0  0  0  0  0
    5.6898   65.1484   85.6891 C   0  0  0  0  0  0  0  0  0  0  0  0
    6.0350   66.0802   86.7640 N   0  0  0  0  0  0  0  0  0  0  0  0
    5.5306   65.5707   88.0422 C   0  0  0  0  0  0  0  0  0  0  0  0
   -0.1679   63.5315   84.6430 C   0  0  0  0  0  0  0  0  0  0  0  0
   -1.2425   63.4114   85.5419 C   0  0  0  0  0  0  0  0  0  0  0  0
   -2.3221   62.5580   85.2866 C   0  0  0  0  0  0  0  0  0  0  0  0
   -2.3539   61.8111   84.1140 C   0  0  0  0  0  0  0  0  0  0  0  0
   -1.2949   61.9218   83.2137 C   0  0  0  0  0  0  0  0  0  0  0  0
   -0.2135   62.7736   83.4706 C   0  0  0  0  0  0  0  0  0  0  0  0
   -1.3319   61.0058   81.6964 S   0  0  0  0  0  0  0  0  0  0  0  0
    0.0405   60.7846   81.2956 O   0  0  0  0  0  0  0  0  0  0  0  0
   -2.2567   59.9011   81.8547 O   0  0  0  0  0  0  0  0  0  0  0  0
   -2.0439   62.0867   80.5900 N   0  0  0  0  0  0  0  0  0  0  0  0
   -3.5327   61.9912   80.4427 C   0  0  0  0  0  0  0  0  0  0  0  0
   -3.9273   61.3416   79.1047 C   0  0  0  0  0  0  0  0  0  0  0  0
   -3.4778   62.1189   77.9291 N   0  0  0  0  0  0  0  0  0  0  0  0
   -3.4061   61.2608   76.7487 C   0  0  0  0  0  0  0  0  0  0  0  0
   -2.1943   62.8028   78.1919 C   0  0  0  0  0  0  0  0  0  0  0  0
   -1.3258   62.1431   79.2781 C   0  0  0  0  0  0  0  0  0  0  0  0
 17 18  1  0  0  0
 18 19  1  0  0  0
 18 16  1  0  0  0
 16 15  1  0  0  0
 15 13  1  0  0  0
 13  3  1  0  0  0
  3  4  1  0  0  0
  4  5  2  0  0  0
  5  1  1  0  0  0
  1 20  1  0  0  0
 20 21  1  0  0  0
 21 22  2  0  0  0
 22 23  1  0  0  0
 23 24  2  0  0  0
 24 26  1  0  0  0
 26 27  2  0  0  0
 26 28  2  0  0  0
 26 29  1  0  0  0
 29 30  1  0  0  0
 30 31  1  0  0  0
 31 32  1  0  0  0
 32 33  1  0  0  0
 32 34  1  0  0  0
 34 35  1  0  0  0
 24 25  1  0  0  0
  5  6  1  0  0  0
  6  7  2  0  0  0
  7  8  1  0  0  0
  8  9  2  0  0  0
  9 10  1  0  0  0
 10 11  2  0  0  0
 11 12  1  0  0  0
 12  3  2  0  0  0
 25 20  2  0  0  0
 12  7  1  0  0  0
 35 29  1  0  0  0
 13 14  1  0  0  0
  1  2  1  0  0  0
M  END
> <minimizedAffinity>
-9.50035

$$$$



 35 38  0  0  0  0  0  0  0  0999 V2000
   -1.1856   62.3101   82.8563 N   0  0  0  0  0  0  0  0  0  0  0  0
   -1.9928   61.7121   82.9552 H   0  0  0  0  0  0  0  0  0  0  0  0
    0.4483   64.2409   85.3397 C   0  0  0  0  0  0  0  0  0  0  0  0
   -0.0279   63.8219   84.1544 N   0  0  0  0  0  0  0  0  0  0  0  0
   -0.7425   62.6906   84.1210 C   0  0  0  0  0  0  0  0  0  0  0  0
   -0.9899   61.9411   85.1994 N   0  0  0  0  0  0  0  0  0  0  0  0
   -0.5364   62.3616   86.3807 C   0  0  0  0  0  0  0  0  0  0  0  0
   -0.8108   61.5968   87.5085 C   0  0  0  0  0  0  0  0  0  0  0  0
   -0.3805   61.9774   88.7824 C   0  0  0  0  0  0  0  0  0  0  0  0
    0.3388   63.1536   88.9422 C   0  0  0  0  0  0  0  0  0  0  0  0
    0.6283   63.9335   87.8246 C   0  0  0  0  0  0  0  0  0  0  0  0
    0.2006   63.5382   86.5303 C   0  0  0  0  0  0  0  0  0  0  0  0
    1.2079   65.4348   85.3891 N   0  0  0  0  0  0  0  0  0  0  0  0
    1.6471   65.4889   86.3045 H   0  0  0  0  0  0  0  0  0  0  0  0
    2.1929   65.5841   84.3096 C   0  0  0  0  0  0  0  0  0  0  0  0
    3.4046   66.3971   84.8206 C   0  0  0  0  0  0  0  0  0  0  0  0
    4.8019   65.2253   86.4396 C   0  0  0  0  0  0  0  0  0  0  0  0
    4.6314   65.6034   85.0358 N   0  0  0  0  0  0  0  0  0  0  0  0
    5.8017   66.3591   84.5806 C   0  0  0  0  0  0  0  0  0  0  0  0
   -0.6654   62.4760   81.5686 C   0  0  0  0  0  0  0  0  0  0  0  0
   -0.5122   61.3401   80.7541 C   0  0  0  0  0  0  0  0  0  0  0  0
   -0.0638   61.4393   79.4319 C   0  0  0  0  0  0  0  0  0  0  0  0
    0.2316   62.6859   78.8910 C   0  0  0  0  0  0  0  0  0  0  0  0
    0.0829   63.8204   79.6880 C   0  0  0  0  0  0  0  0  0  0  0  0
   -0.3630   63.7208   81.0117 C   0  0  0  0  0  0  0  0  0  0  0  0
    0.4199   65.4225   79.0080 S   0  0  0  0  0  0  0  0  0  0  0  0
    1.7962   65.4182   78.5622 O   0  0  0  0  0  0  0  0  0  0  0  0
   -0.6613   65.7709   78.1079 O   0  0  0  0  0  0  0  0  0  0  0  0
    0.2961   66.4641   80.3494 N   0  0  0  0  0  0  0  0  0  0  0  0
   -0.7289   67.5529   80.2441 C   0  0  0  0  0  0  0  0  0  0  0  0
   -0.0723   68.9275   80.0269 C   0  0  0  0  0  0  0  0  0  0  0  0
    0.8019   69.3351   81.1486 N   0  0  0  0  0  0  0  0  0  0  0  0
    1.7671   70.3375   80.7033 C   0  0  0  0  0  0  0  0  0  0  0  0
    1.4651   68.1688   81.7684 C   0  0  0  0  0  0  0  0  0  0  0  0
    1.6235   66.9516   80.8396 C   0  0  0  0  0  0  0  0  0  0  0  0
 17 18  1  0  0  0
 18 19  1  0  0  0
 18 16  1  0  0  0
 16 15  1  0  0  0
 15 13  1  0  0  0
 13  3  1  0  0  0
  3  4  1  0  0  0
  4  5  2  0  0  0
  5  1  1  0  0  0
  1 20  1  0  0  0
 20 21  1  0  0  0
 21 22  2  0  0  0
 22 23  1  0  0  0
 23 24  2  0  0  0
 24 26  1  0  0  0
 26 27  2  0  0  0
 26 28  2  0  0  0
 26 29  1  0  0  0
 29 30  1  0  0  0
 30 31  1  0  0  0
 31 32  1  0  0  0
 32 33  1  0  0  0
 32 34  1  0  0  0
 34 35  1  0  0  0
 24 25  1  0  0  0
  5  6  1  0  0  0
  6  7  2  0  0  0
  7  8  1  0  0  0
  8  9  2  0  0  0
  9 10  1  0  0  0
 10 11  2  0  0  0
 11 12  1  0  0  0
 12  3  2  0  0  0
 25 20  2  0  0  0
 12  7  1  0  0  0
 35 29  1  0  0  0
 13 14  1  0  0  0
  1  2  1  0  0  0
M  END
> <minimizedAffinity>
-9.35333

$$$$



 35 38  0  0  0  0  0  0  0  0999 V2000
    1.3423   65.1005   83.2564 N   0  0  0  0  0  0  0  0  0  0  0  0
    1.9074   64.4526   82.7274 H   0  0  0  0  0  0  0  0  0  0  0  0
   -1.4640   63.0350   83.9069 C   0  0  0  0  0  0  0  0  0  0  0  0
   -0.5111   63.7309   83.2628 N   0  0  0  0  0  0  0  0  0  0  0  0
    0.3992   64.3870   83.9926 C   0  0  0  0  0  0  0  0  0  0  0  0
    0.3996   64.4070   85.3289 N   0  0  0  0  0  0  0  0  0  0  0  0
   -0.5317   63.7031   85.9732 C   0  0  0  0  0  0  0  0  0  0  0  0
   -0.5213   63.7028   87.3632 C   0  0  0  0  0  0  0  0  0  0  0  0
   -1.4561   62.9801   88.1092 C   0  0  0  0  0  0  0  0  0  0  0  0
   -2.4263   62.2322   87.4568 C   0  0  0  0  0  0  0  0  0  0  0  0
   -2.4574   62.2214   86.0640 C   0  0  0  0  0  0  0  0  0  0  0  0
   -1.5142   62.9661   85.3089 C   0  0  0  0  0  0  0  0  0  0  0  0
   -2.4347   62.3382   83.1472 N   0  0  0  0  0  0  0  0  0  0  0  0
   -2.7988   62.9759   82.4440 H   0  0  0  0  0  0  0  0  0  0  0  0
   -1.9625   61.0846   82.5445 C   0  0  0  0  0  0  0  0  0  0  0  0
   -3.1462   60.3548   81.8686 C   0  0  0  0  0  0  0  0  0  0  0  0
   -1.8520   60.7647   79.8428 C   0  0  0  0  0  0  0  0  0  0  0  0
   -3.1723   60.4582   80.3956 N   0  0  0  0  0  0  0  0  0  0  0  0
   -4.1325   61.4860   79.9839 C   0  0  0  0  0  0  0  0  0  0  0  0
    1.7177   66.4476   83.2296 C   0  0  0  0  0  0  0  0  0  0  0  0
    2.6198   66.9135   84.2023 C   0  0  0  0  0  0  0  0  0  0  0  0
    3.0929   68.2307   84.1946 C   0  0  0  0  0  0  0  0  0  0  0  0
    2.6789   69.1110   83.2008 C   0  0  0  0  0  0  0  0  0  0  0  0
    1.7851   68.6611   82.2297 C   0  0  0  0  0  0  0  0  0  0  0  0
    1.3097   67.3440   82.2391 C   0  0  0  0  0  0  0  0  0  0  0  0
    1.2717   69.7559   80.9333 S   0  0  0  0  0  0  0  0  0  0  0  0
    2.4611   70.1547   80.2126 O   0  0  0  0  0  0  0  0  0  0  0  0
    0.1444   69.1538   80.2497 O   0  0  0  0  0  0  0  0  0  0  0  0
    0.6714   71.1141   81.7666 N   0  0  0  0  0  0  0  0  0  0  0  0
   -0.7721   71.4442   81.5325 C   0  0  0  0  0  0  0  0  0  0  0  0
   -0.9294   72.6955   80.6508 C   0  0  0  0  0  0  0  0  0  0  0  0
   -0.3556   73.9126   81.2655 N   0  0  0  0  0  0  0  0  0  0  0  0
   -0.0641   74.9116   80.2399 C   0  0  0  0  0  0  0  0  0  0  0  0
    0.8357   73.5962   82.0808 C   0  0  0  0  0  0  0  0  0  0  0  0
    1.5702   72.3070   81.6712 C   0  0  0  0  0  0  0  0  0  0  0  0
 17 18  1  0  0  0
 18 19  1  0  0  0
 18 16  1  0  0  0
 16 15  1  0  0  0
 15 13  1  0  0  0
 13  3  1  0  0  0
  3  4  1  0  0  0
  4  5  2  0  0  0
  5  1  1  0  0  0
  1 20  1  0  0  0
 20 21  1  0  0  0
 21 22  2  0  0  0
 22 23  1  0  0  0
 23 24  2  0  0  0
 24 26  1  0  0  0
 26 27  2  0  0  0
 26 28  2  0  0  0
 26 29  1  0  0  0
 29 30  1  0  0  0
 30 31  1  0  0  0
 31 32  1  0  0  0
 32 33  1  0  0  0
 32 34  1  0  0  0
 34 35  1  0  0  0
 24 25  1  0  0  0
  5  6  1  0  0  0
  6  7  2  0  0  0
  7  8  1  0  0  0
  8  9  2  0  0  0
  9 10  1  0  0  0
 10 11  2  0  0  0
 11 12  1  0  0  0
 12  3  2  0  0  0
 25 20  2  0  0  0
 12  7  1  0  0  0
 35 29  1  0  0  0
 13 14  1  0  0  0
  1  2  1  0  0  0
M  END
> <minimizedAffinity>
-9.19098

$$$$
