
     RDKit          3D

 45 48  0  0  0  0  0  0  0  0999 V2000
    6.8908    1.5548    0.1176 C   0  0  0  0  0  0  0  0  0  0  0  0
    6.3151    0.2579    0.0395 O   0  0  0  0  0  0  0  0  0  0  0  0
    4.9634    0.1724   -0.1689 C   0  0  0  0  0  0  0  0  0  0  0  0
    4.1100    1.2720   -0.3007 C   0  0  0  0  0  0  0  0  0  0  0  0
    2.7385    1.0862   -0.5112 C   0  0  0  0  0  0  0  0  0  0  0  0
    2.1919   -0.2006   -0.5989 C   0  0  0  0  0  0  0  0  0  0  0  0
    0.7086   -0.3893   -0.8099 C   0  0  0  0  0  0  0  0  0  0  0  0
    0.0075   -0.0210    0.4272 N   0  0  0  0  0  0  0  0  0  0  0  0
   -1.3922   -0.2742    0.3285 C   0  0  0  0  0  0  0  0  0  0  0  0
   -2.2336    0.7593   -0.1239 C   0  0  0  0  0  0  0  0  0  0  0  0
   -3.5922    0.4789   -0.2529 C   0  0  0  0  0  0  0  0  0  0  0  0
   -4.1303   -0.7386   -0.0000 N   0  0  0  0  0  0  0  0  0  0  0  0
   -3.3277   -1.7262    0.4124 C   0  0  0  0  0  0  0  0  0  0  0  0
   -3.9050   -2.9644    0.6625 C   0  0  0  0  0  0  0  0  0  0  0  0
   -3.1528   -4.0592    1.0917 C   0  0  0  0  0  0  0  0  0  0  0  0
   -1.7878   -3.9101    1.2757 C   0  0  0  0  0  0  0  0  0  0  0  0
   -0.7469   -5.3775    1.8521 Br  0  0  0  0  0  0  0  0  0  0  0  0
   -1.1802   -2.6796    1.0345 C   0  0  0  0  0  0  0  0  0  0  0  0
   -1.9379   -1.5627    0.5968 C   0  0  0  0  0  0  0  0  0  0  0  0
   -4.5481    1.5358   -0.7383 C   0  0  0  0  0  0  0  0  0  0  0  0
   -3.9910    2.9425   -0.5398 C   0  0  0  0  0  0  0  0  0  0  0  0
   -2.6394    3.0342   -1.0920 N   0  0  0  0  0  0  0  0  0  0  0  0
   -1.7227    2.1631   -0.3401 C   0  0  0  0  0  0  0  0  0  0  0  0
    3.0432   -1.3034   -0.4604 C   0  0  0  0  0  0  0  0  0  0  0  0
    4.4142   -1.1173   -0.2497 C   0  0  0  0  0  0  0  0  0  0  0  0
    5.4015   -2.5297   -0.0904 Cl  0  0  0  0  0  0  0  0  0  0  0  0
    6.4876    2.1149    0.9677 H   0  0  0  0  0  0  0  0  0  0  0  0
    7.9662    1.4339    0.2795 H   0  0  0  0  0  0  0  0  0  0  0  0
    6.7554    2.1041   -0.8198 H   0  0  0  0  0  0  0  0  0  0  0  0
    4.4763    2.2917   -0.2407 H   0  0  0  0  0  0  0  0  0  0  0  0
    2.0897    1.9567   -0.5988 H   0  0  0  0  0  0  0  0  0  0  0  0
    0.3864    0.2374   -1.6505 H   0  0  0  0  0  0  0  0  0  0  0  0
    0.5050   -1.4307   -1.0892 H   0  0  0  0  0  0  0  0  0  0  0  0
    0.4003   -0.5426    1.2085 H   0  0  0  0  0  0  0  0  0  0  0  0
   -4.9772   -3.0798    0.5164 H   0  0  0  0  0  0  0  0  0  0  0  0
   -3.6448   -5.0105    1.2748 H   0  0  0  0  0  0  0  0  0  0  0  0
   -0.1087   -2.5926    1.1865 H   0  0  0  0  0  0  0  0  0  0  0  0
   -5.5028    1.4437   -0.2079 H   0  0  0  0  0  0  0  0  0  0  0  0
   -4.7409    1.3570   -1.8035 H   0  0  0  0  0  0  0  0  0  0  0  0
   -3.9873    3.2154    0.5233 H   0  0  0  0  0  0  0  0  0  0  0  0
   -4.6400    3.6615   -1.0518 H   0  0  0  0  0  0  0  0  0  0  0  0
   -2.3049    3.9940   -1.0204 H   0  0  0  0  0  0  0  0  0  0  0  0
   -1.5194    2.6134    0.6398 H   0  0  0  0  0  0  0  0  0  0  0  0
   -0.7820    2.1425   -0.8983 H   0  0  0  0  0  0  0  0  0  0  0  0
    2.6438   -2.3136   -0.5169 H   0  0  0  0  0  0  0  0  0  0  0  0
  1  2  1  0
  2  3  1  0
  3  4  1  0
  4  5  2  0
  5  6  1  0
  6  7  1  0
  7  8  1  0
  8  9  1  0
  9 10  2  0
 10 11  1  0
 11 12  2  0
 12 13  1  0
 13 14  2  0
 14 15  1  0
 15 16  2  0
 16 17  1  0
 16 18  1  0
 18 19  2  0
 11 20  1  0
 20 21  1  0
 21 22  1  0
 22 23  1  0
  6 24  2  0
 24 25  1  0
 25 26  1  0
 25  3  2  0
 19  9  1  0
 23 10  1  0
 19 13  1  0
  1 27  1  0
  1 28  1  0
  1 29  1  0
  4 30  1  0
  5 31  1  0
  7 32  1  0
  7 33  1  0
  8 34  1  0
 14 35  1  0
 15 36  1  0
 18 37  1  0
 20 38  1  0
 20 39  1  0
 21 40  1  0
 21 41  1  0
 22 42  1  0
 23 43  1  0
 23 44  1  0
 24 45  1  0
M  END
$$$$
