
     RDKit          3D

 60 62  0  0  0  0  0  0  0  0999 V2000
   -5.2578    0.8504   -4.4839 C   0  0  0  0  0  0  0  0  0  0  0  0
   -4.5656    0.3046   -3.2482 C   0  0  0  0  0  0  0  0  0  0  0  0
   -3.0470    0.4073   -3.3550 C   0  0  0  0  0  0  0  0  0  0  0  0
   -2.4925   -0.1283   -2.1506 O   0  0  0  0  0  0  0  0  0  0  0  0
   -1.1276   -0.1481   -2.0094 C   0  0  0  0  0  0  0  0  0  0  0  0
   -0.2474    0.3379   -2.9901 C   0  0  0  0  0  0  0  0  0  0  0  0
    1.1354    0.2999   -2.7952 C   0  0  0  0  0  0  0  0  0  0  0  0
    1.6464   -0.2304   -1.6140 C   0  0  0  0  0  0  0  0  0  0  0  0
    3.4013   -0.2820   -1.3422 S   0  0  0  0  0  0  0  0  0  0  0  0
    3.7484   -1.6727   -1.1494 O   0  0  0  0  0  0  0  0  0  0  0  0
    4.0341    0.5148   -2.3707 O   0  0  0  0  0  0  0  0  0  0  0  0
    3.5728    0.5351    0.1399 N   0  0  0  0  0  0  0  0  0  0  0  0
    3.2343    1.9910    0.1559 C   0  0  0  0  0  0  0  0  0  0  0  0
    4.4216    2.8843   -0.2640 C   0  0  0  0  0  0  0  0  0  0  0  0
    5.6912    2.6217    0.4426 N   0  0  0  0  0  0  0  0  0  0  0  0
    5.6669    3.1265    1.8133 C   0  0  0  0  0  0  0  0  0  0  0  0
    5.9924    1.1760    0.3898 C   0  0  0  0  0  0  0  0  0  0  0  0
    4.8483    0.2623    0.8682 C   0  0  0  0  0  0  0  0  0  0  0  0
    0.7917   -0.7236   -0.6268 C   0  0  0  0  0  0  0  0  0  0  0  0
   -0.6021   -0.6846   -0.8099 C   0  0  0  0  0  0  0  0  0  0  0  0
   -1.4420   -1.2227    0.3141 C   0  0  0  0  0  0  0  0  0  0  0  0
   -0.8960   -1.5842    1.4323 N   0  0  0  0  0  0  0  0  0  0  0  0
   -1.6986   -2.0789    2.4365 C   0  0  0  0  0  0  0  0  0  0  0  0
   -0.9234   -2.4522    3.6747 C   0  0  0  0  0  0  0  0  0  0  0  0
   -3.0380   -2.2012    2.3413 C   0  0  0  0  0  0  0  0  0  0  0  0
   -3.9706   -2.7674    3.3770 C   0  0  0  0  0  0  0  0  0  0  0  0
   -4.6022   -1.6786    4.2327 C   0  0  0  0  0  0  0  0  0  0  0  0
   -3.6568   -1.7698    1.0629 C   0  0  0  0  0  0  0  0  0  0  0  0
   -4.8670   -1.8108    0.8658 O   0  0  0  0  0  0  0  0  0  0  0  0
   -2.7918   -1.3175    0.1162 N   0  0  0  0  0  0  0  0  0  0  0  0
   -5.0139    1.9067   -4.6358 H   0  0  0  0  0  0  0  0  0  0  0  0
   -6.3438    0.7641   -4.3797 H   0  0  0  0  0  0  0  0  0  0  0  0
   -4.9573    0.2961   -5.3788 H   0  0  0  0  0  0  0  0  0  0  0  0
   -4.9087    0.8468   -2.3587 H   0  0  0  0  0  0  0  0  0  0  0  0
   -4.8528   -0.7422   -3.0917 H   0  0  0  0  0  0  0  0  0  0  0  0
   -2.7016   -0.1736   -4.2183 H   0  0  0  0  0  0  0  0  0  0  0  0
   -2.7590    1.4594   -3.4655 H   0  0  0  0  0  0  0  0  0  0  0  0
   -0.6049    0.7558   -3.9266 H   0  0  0  0  0  0  0  0  0  0  0  0
    1.8000    0.6791   -3.5694 H   0  0  0  0  0  0  0  0  0  0  0  0
    2.3736    2.1949   -0.4890 H   0  0  0  0  0  0  0  0  0  0  0  0
    2.9121    2.2445    1.1731 H   0  0  0  0  0  0  0  0  0  0  0  0
    4.6067    2.7595   -1.3370 H   0  0  0  0  0  0  0  0  0  0  0  0
    4.1396    3.9380   -0.1455 H   0  0  0  0  0  0  0  0  0  0  0  0
    6.6330    2.9537    2.3004 H   0  0  0  0  0  0  0  0  0  0  0  0
    5.5084    4.2108    1.8153 H   0  0  0  0  0  0  0  0  0  0  0  0
    4.8876    2.6700    2.4314 H   0  0  0  0  0  0  0  0  0  0  0  0
    6.2447    0.9207   -0.6472 H   0  0  0  0  0  0  0  0  0  0  0  0
    6.8974    0.9632    0.9721 H   0  0  0  0  0  0  0  0  0  0  0  0
    5.1393   -0.7878    0.7612 H   0  0  0  0  0  0  0  0  0  0  0  0
    4.6612    0.4075    1.9388 H   0  0  0  0  0  0  0  0  0  0  0  0
    1.2177   -1.1403    0.2854 H   0  0  0  0  0  0  0  0  0  0  0  0
   -0.3815   -3.3891    3.5095 H   0  0  0  0  0  0  0  0  0  0  0  0
   -1.5509   -2.5682    4.5618 H   0  0  0  0  0  0  0  0  0  0  0  0
   -0.1913   -1.6715    3.9112 H   0  0  0  0  0  0  0  0  0  0  0  0
   -3.4506   -3.4816    4.0248 H   0  0  0  0  0  0  0  0  0  0  0  0
   -4.7608   -3.3538    2.8920 H   0  0  0  0  0  0  0  0  0  0  0  0
   -3.8400   -1.1039    4.7695 H   0  0  0  0  0  0  0  0  0  0  0  0
   -5.1891   -0.9820    3.6250 H   0  0  0  0  0  0  0  0  0  0  0  0
   -5.2726   -2.1243    4.9745 H   0  0  0  0  0  0  0  0  0  0  0  0
   -3.2008   -1.0113   -0.7567 H   0  0  0  0  0  0  0  0  0  0  0  0
  1  2  1  0
  2  3  1  0
  3  4  1  0
  4  5  1  0
  5  6  1  0
  6  7  2  0
  7  8  1  0
  8  9  1  0
  9 10  2  0
  9 11  2  0
  9 12  1  0
 12 13  1  0
 13 14  1  0
 14 15  1  0
 15 16  1  0
 15 17  1  0
 17 18  1  0
  8 19  2  0
 19 20  1  0
 20 21  1  0
 21 22  2  0
 22 23  1  0
 23 24  1  0
 23 25  2  0
 25 26  1  0
 26 27  1  0
 25 28  1  0
 28 29  2  0
 28 30  1  0
 20  5  2  0
 30 21  1  0
 18 12  1  0
  1 31  1  0
  1 32  1  0
  1 33  1  0
  2 34  1  0
  2 35  1  0
  3 36  1  0
  3 37  1  0
  6 38  1  0
  7 39  1  0
 13 40  1  0
 13 41  1  0
 14 42  1  0
 14 43  1  0
 16 44  1  0
 16 45  1  0
 16 46  1  0
 17 47  1  0
 17 48  1  0
 18 49  1  0
 18 50  1  0
 19 51  1  0
 24 52  1  0
 24 53  1  0
 24 54  1  0
 26 55  1  0
 26 56  1  0
 27 57  1  0
 27 58  1  0
 27 59  1  0
 30 60  1  0
M  END
$$$$
