


 38 42  0  0  0  0  0  0  0  0999 V2000
    0.1655   64.0062   85.1482 C   0  0  0  0  0  0  0  0  0  0  0  0
   -0.5081   62.7922   85.3199 C   0  0  0  0  0  0  0  0  0  0  0  0
   -0.8173   62.0005   84.2119 C   0  0  0  0  0  0  0  0  0  0  0  0
   -0.4318   62.4185   82.9338 C   0  0  0  0  0  0  0  0  0  0  0  0
    0.2107   63.6441   82.7500 C   0  0  0  0  0  0  0  0  0  0  0  0
    0.5332   64.4276   83.8646 C   0  0  0  0  0  0  0  0  0  0  0  0
    1.3242   65.6619   83.6367 C   0  0  0  0  0  0  0  0  0  0  0  0
    0.7652   66.5841   82.7688 N   0  0  0  0  0  0  0  0  0  0  0  0
    1.4319   67.6646   82.5548 C   0  0  0  0  0  0  0  0  0  0  0  0
    0.9945   68.6415   81.7362 O   0  0  0  0  0  0  0  0  0  0  0  0
    2.6746   67.8978   83.1653 C   0  0  0  0  0  0  0  0  0  0  0  0
    3.5080   68.9030   83.0870 N   0  0  0  0  0  0  0  0  0  0  0  0
    4.5731   68.5758   83.9080 N   0  0  0  0  0  0  0  0  0  0  0  0
    4.3333   67.3917   84.4554 C   0  0  0  0  0  0  0  0  0  0  0  0
    3.1298   66.9277   83.9865 N   0  0  0  0  0  0  0  0  0  0  0  0
    2.4773   65.7707   84.2424 N   0  0  0  0  0  0  0  0  0  0  0  0
    1.6346   69.3761   81.6981 H   0  0  0  0  0  0  0  0  0  0  0  0
    5.1828   66.6204   85.4111 C   0  0  0  0  0  0  0  0  0  0  0  0
    5.9635   65.5081   84.6867 C   0  0  0  0  0  0  0  0  0  0  0  0
    7.4243   65.6964   85.0800 C   0  0  0  0  0  0  0  0  0  0  0  0
    7.5398   67.1848   85.3550 C   0  0  0  0  0  0  0  0  0  0  0  0
    6.2467   67.4919   86.0957 C   0  0  0  0  0  0  0  0  0  0  0  0
   -0.7980   61.4044   81.5180 S   0  0  0  0  0  0  0  0  0  0  0  0
   -1.6540   60.3336   81.9810 O   0  0  0  0  0  0  0  0  0  0  0  0
    0.4634   61.1239   80.8653 O   0  0  0  0  0  0  0  0  0  0  0  0
   -1.6904   62.4168   80.5160 N   0  0  0  0  0  0  0  0  0  0  0  0
   -1.0886   62.9966   79.2904 C   0  0  0  0  0  0  0  0  0  0  0  0
   -1.5714   62.2932   78.0075 C   0  0  0  0  0  0  0  0  0  0  0  0
   -3.0363   62.1828   77.9286 N   0  0  0  0  0  0  0  0  0  0  0  0
   -3.5869   61.5431   79.1346 C   0  0  0  0  0  0  0  0  0  0  0  0
   -3.1632   62.2651   80.4296 C   0  0  0  0  0  0  0  0  0  0  0  0
   -3.4953   61.5501   76.6813 C   0  0  0  0  0  0  0  0  0  0  0  0
   -3.1081   60.0817   76.4325 C   0  0  0  0  0  0  0  0  0  0  0  0
   -4.2392   59.2477   76.6683 O   0  0  0  0  0  0  0  0  0  0  0  0
   -3.9493   58.3293   76.5290 H   0  0  0  0  0  0  0  0  0  0  0  0
    0.5721   64.7052   86.2535 O   0  0  0  0  0  0  0  0  0  0  0  0
    1.0304   63.4985   88.2626 C   0  0  0  0  0  0  0  0  0  0  0  0
   -0.0428   64.1912   87.4431 C   0  0  0  0  0  0  0  0  0  0  0  0
 37 38  1  0  0  0
 38 36  1  0  0  0
 36  1  1  0  0  0
  1  2  1  0  0  0
  2  3  2  0  0  0
  3  4  1  0  0  0
  4 23  1  0  0  0
 23 24  2  0  0  0
 23 25  2  0  0  0
 23 26  1  0  0  0
 26 27  1  0  0  0
 27 28  1  0  0  0
 28 29  1  0  0  0
 29 32  1  0  0  0
 32 33  1  0  0  0
 33 34  1  0  0  0
 29 30  1  0  0  0
 30 31  1  0  0  0
  4  5  2  0  0  0
  5  6  1  0  0  0
  6  7  1  0  0  0
  7  8  1  0  0  0
  8  9  2  0  0  0
  9 10  1  0  0  0
  9 11  1  0  0  0
 11 12  2  0  0  0
 12 13  1  0  0  0
 13 14  2  0  0  0
 14 18  1  0  0  0
 18 19  1  0  0  0
 19 20  1  0  0  0
 20 21  1  0  0  0
 21 22  1  0  0  0
 14 15  1  0  0  0
 15 16  1  0  0  0
  6  1  2  0  0  0
 16  7  2  0  0  0
 31 26  1  0  0  0
 15 11  1  0  0  0
 22 18  1  0  0  0
 34 35  1  0  0  0
 10 17  1  0  0  0
M  END
> <minimizedAffinity>
-10.92615

$$$$



 38 42  0  0  0  0  0  0  0  0999 V2000
   -0.0816   63.9077   85.4913 C   0  0  0  0  0  0  0  0  0  0  0  0
   -0.9975   62.8504   85.4911 C   0  0  0  0  0  0  0  0  0  0  0  0
   -1.2089   62.1076   84.3276 C   0  0  0  0  0  0  0  0  0  0  0  0
   -0.4853   62.4141   83.1703 C   0  0  0  0  0  0  0  0  0  0  0  0
    0.4057   63.4886   83.1522 C   0  0  0  0  0  0  0  0  0  0  0  0
    0.6268   64.2208   84.3249 C   0  0  0  0  0  0  0  0  0  0  0  0
    1.6711   65.2743   84.2958 C   0  0  0  0  0  0  0  0  0  0  0  0
    2.8247   64.9989   85.0095 N   0  0  0  0  0  0  0  0  0  0  0  0
    3.7471   65.8972   84.9995 C   0  0  0  0  0  0  0  0  0  0  0  0
    4.9178   65.7479   85.6498 O   0  0  0  0  0  0  0  0  0  0  0  0
    3.5910   67.1070   84.3044 C   0  0  0  0  0  0  0  0  0  0  0  0
    4.3812   68.1404   84.1671 N   0  0  0  0  0  0  0  0  0  0  0  0
    3.6924   69.0400   83.3721 N   0  0  0  0  0  0  0  0  0  0  0  0
    2.5198   68.5078   83.0543 C   0  0  0  0  0  0  0  0  0  0  0  0
    2.4224   67.2750   83.6495 N   0  0  0  0  0  0  0  0  0  0  0  0
    1.4165   66.3707   83.6313 N   0  0  0  0  0  0  0  0  0  0  0  0
    5.4852   66.5317   85.5293 H   0  0  0  0  0  0  0  0  0  0  0  0
    1.4312   69.0912   82.2149 C   0  0  0  0  0  0  0  0  0  0  0  0
    1.4037   70.6265   82.3303 C   0  0  0  0  0  0  0  0  0  0  0  0
    1.4375   71.1554   80.9010 C   0  0  0  0  0  0  0  0  0  0  0  0
    2.1774   70.0774   80.1299 C   0  0  0  0  0  0  0  0  0  0  0  0
    1.6117   68.7936   80.7186 C   0  0  0  0  0  0  0  0  0  0  0  0
   -0.7282   61.4571   81.6896 S   0  0  0  0  0  0  0  0  0  0  0  0
   -1.5592   60.3295   82.0525 O   0  0  0  0  0  0  0  0  0  0  0  0
    0.5780   61.2629   81.0967 O   0  0  0  0  0  0  0  0  0  0  0  0
   -1.6094   62.4796   80.6879 N   0  0  0  0  0  0  0  0  0  0  0  0
   -1.0025   63.0497   79.4603 C   0  0  0  0  0  0  0  0  0  0  0  0
   -1.4970   62.3507   78.1794 C   0  0  0  0  0  0  0  0  0  0  0  0
   -2.9634   62.2593   78.1035 N   0  0  0  0  0  0  0  0  0  0  0  0
   -3.5199   61.6287   79.3117 C   0  0  0  0  0  0  0  0  0  0  0  0
   -3.0842   62.3470   80.6047 C   0  0  0  0  0  0  0  0  0  0  0  0
   -3.4332   61.6308   76.8581 C   0  0  0  0  0  0  0  0  0  0  0  0
   -3.0719   60.1550   76.6143 C   0  0  0  0  0  0  0  0  0  0  0  0
   -4.2474   59.3565   76.7199 O   0  0  0  0  0  0  0  0  0  0  0  0
   -3.9756   58.4315   76.5882 H   0  0  0  0  0  0  0  0  0  0  0  0
    0.2057   64.5407   86.6713 O   0  0  0  0  0  0  0  0  0  0  0  0
    0.7008   63.2292   88.6046 C   0  0  0  0  0  0  0  0  0  0  0  0
   -0.4034   63.8648   87.7801 C   0  0  0  0  0  0  0  0  0  0  0  0
 37 38  1  0  0  0
 38 36  1  0  0  0
 36  1  1  0  0  0
  1  2  1  0  0  0
  2  3  2  0  0  0
  3  4  1  0  0  0
  4 23  1  0  0  0
 23 24  2  0  0  0
 23 25  2  0  0  0
 23 26  1  0  0  0
 26 27  1  0  0  0
 27 28  1  0  0  0
 28 29  1  0  0  0
 29 32  1  0  0  0
 32 33  1  0  0  0
 33 34  1  0  0  0
 29 30  1  0  0  0
 30 31  1  0  0  0
  4  5  2  0  0  0
  5  6  1  0  0  0
  6  7  1  0  0  0
  7  8  1  0  0  0
  8  9  2  0  0  0
  9 10  1  0  0  0
  9 11  1  0  0  0
 11 12  2  0  0  0
 12 13  1  0  0  0
 13 14  2  0  0  0
 14 18  1  0  0  0
 18 19  1  0  0  0
 19 20  1  0  0  0
 20 21  1  0  0  0
 21 22  1  0  0  0
 14 15  1  0  0  0
 15 16  1  0  0  0
  6  1  2  0  0  0
 16  7  2  0  0  0
 31 26  1  0  0  0
 15 11  1  0  0  0
 22 18  1  0  0  0
 34 35  1  0  0  0
 10 17  1  0  0  0
M  END
> <minimizedAffinity>
-10.64984

$$$$



 38 42  0  0  0  0  0  0  0  0999 V2000
    3.0312   66.8495   83.8514 C   0  0  0  0  0  0  0  0  0  0  0  0
    3.6880   68.0727   83.6799 C   0  0  0  0  0  0  0  0  0  0  0  0
    3.1965   69.0093   82.7682 C   0  0  0  0  0  0  0  0  0  0  0  0
    2.0337   68.7255   82.0440 C   0  0  0  0  0  0  0  0  0  0  0  0
    1.3912   67.4941   82.1843 C   0  0  0  0  0  0  0  0  0  0  0  0
    1.8778   66.5641   83.1108 C   0  0  0  0  0  0  0  0  0  0  0  0
    1.0958   65.3204   83.3180 C   0  0  0  0  0  0  0  0  0  0  0  0
    0.8711   64.5545   82.1870 N   0  0  0  0  0  0  0  0  0  0  0  0
    0.1953   63.4693   82.3404 C   0  0  0  0  0  0  0  0  0  0  0  0
   -0.0863   62.6352   81.3203 O   0  0  0  0  0  0  0  0  0  0  0  0
   -0.3008   63.0803   83.5949 C   0  0  0  0  0  0  0  0  0  0  0  0
   -1.0019   62.0416   83.9698 N   0  0  0  0  0  0  0  0  0  0  0  0
   -1.2018   62.1918   85.3311 N   0  0  0  0  0  0  0  0  0  0  0  0
   -0.6044   63.3094   85.7227 C   0  0  0  0  0  0  0  0  0  0  0  0
   -0.0305   63.9062   84.6281 N   0  0  0  0  0  0  0  0  0  0  0  0
    0.6666   65.0609   84.5250 N   0  0  0  0  0  0  0  0  0  0  0  0
   -0.6082   61.8716   81.6292 H   0  0  0  0  0  0  0  0  0  0  0  0
   -0.5371   63.8959   87.0943 C   0  0  0  0  0  0  0  0  0  0  0  0
   -1.5924   63.2637   88.0206 C   0  0  0  0  0  0  0  0  0  0  0  0
   -0.8365   62.7926   89.2578 C   0  0  0  0  0  0  0  0  0  0  0  0
    0.5602   62.4967   88.7420 C   0  0  0  0  0  0  0  0  0  0  0  0
    0.8150   63.6476   87.7800 C   0  0  0  0  0  0  0  0  0  0  0  0
    1.3844   69.9230   80.8988 S   0  0  0  0  0  0  0  0  0  0  0  0
    0.3629   69.2506   80.1254 O   0  0  0  0  0  0  0  0  0  0  0  0
    2.5209   70.5463   80.2543 O   0  0  0  0  0  0  0  0  0  0  0  0
    0.6506   71.0690   81.8856 N   0  0  0  0  0  0  0  0  0  0  0  0
    1.4502   72.1349   82.5373 C   0  0  0  0  0  0  0  0  0  0  0  0
    1.2853   73.5016   81.8451 C   0  0  0  0  0  0  0  0  0  0  0  0
   -0.1226   73.8809   81.6493 N   0  0  0  0  0  0  0  0  0  0  0  0
   -0.8643   72.8245   80.9416 C   0  0  0  0  0  0  0  0  0  0  0  0
   -0.7607   71.4579   81.6483 C   0  0  0  0  0  0  0  0  0  0  0  0
   -0.2762   75.2066   81.0282 C   0  0  0  0  0  0  0  0  0  0  0  0
   -0.3384   76.4340   81.9543 C   0  0  0  0  0  0  0  0  0  0  0  0
   -0.9310   76.0608   83.1953 O   0  0  0  0  0  0  0  0  0  0  0  0
   -0.9787   76.8650   83.7409 H   0  0  0  0  0  0  0  0  0  0  0  0
    3.4527   65.9992   84.8388 O   0  0  0  0  0  0  0  0  0  0  0  0
    5.2612   65.1332   86.1356 C   0  0  0  0  0  0  0  0  0  0  0  0
    4.8783   66.0497   84.9883 C   0  0  0  0  0  0  0  0  0  0  0  0
 37 38  1  0  0  0
 38 36  1  0  0  0
 36  1  1  0  0  0
  1  2  1  0  0  0
  2  3  2  0  0  0
  3  4  1  0  0  0
  4 23  1  0  0  0
 23 24  2  0  0  0
 23 25  2  0  0  0
 23 26  1  0  0  0
 26 27  1  0  0  0
 27 28  1  0  0  0
 28 29  1  0  0  0
 29 32  1  0  0  0
 32 33  1  0  0  0
 33 34  1  0  0  0
 29 30  1  0  0  0
 30 31  1  0  0  0
  4  5  2  0  0  0
  5  6  1  0  0  0
  6  7  1  0  0  0
  7  8  1  0  0  0
  8  9  2  0  0  0
  9 10  1  0  0  0
  9 11  1  0  0  0
 11 12  2  0  0  0
 12 13  1  0  0  0
 13 14  2  0  0  0
 14 18  1  0  0  0
 18 19  1  0  0  0
 19 20  1  0  0  0
 20 21  1  0  0  0
 21 22  1  0  0  0
 14 15  1  0  0  0
 15 16  1  0  0  0
  6  1  2  0  0  0
 16  7  2  0  0  0
 31 26  1  0  0  0
 15 11  1  0  0  0
 22 18  1  0  0  0
 34 35  1  0  0  0
 10 17  1  0  0  0
M  END
> <minimizedAffinity>
-10.15366

$$$$



 38 42  0  0  0  0  0  0  0  0999 V2000
    1.5425   65.5855   84.4464 C   0  0  0  0  0  0  0  0  0  0  0  0
    1.2321   64.6353   85.4250 C   0  0  0  0  0  0  0  0  0  0  0  0
    0.2211   63.6995   85.1961 C   0  0  0  0  0  0  0  0  0  0  0  0
   -0.4638   63.7055   83.9764 C   0  0  0  0  0  0  0  0  0  0  0  0
   -0.1834   64.6711   83.0080 C   0  0  0  0  0  0  0  0  0  0  0  0
    0.8415   65.5975   83.2345 C   0  0  0  0  0  0  0  0  0  0  0  0
    1.1900   66.5267   82.1316 C   0  0  0  0  0  0  0  0  0  0  0  0
    1.3987   65.9419   80.8944 N   0  0  0  0  0  0  0  0  0  0  0  0
    1.7018   66.7272   79.9200 C   0  0  0  0  0  0  0  0  0  0  0  0
    1.9242   66.2830   78.6675 O   0  0  0  0  0  0  0  0  0  0  0  0
    1.8246   68.1140   80.1012 C   0  0  0  0  0  0  0  0  0  0  0  0
    2.1231   69.0776   79.2684 N   0  0  0  0  0  0  0  0  0  0  0  0
    2.0983   70.2432   80.0145 N   0  0  0  0  0  0  0  0  0  0  0  0
    1.7760   69.9356   81.2637 C   0  0  0  0  0  0  0  0  0  0  0  0
    1.6082   68.5763   81.3511 N   0  0  0  0  0  0  0  0  0  0  0  0
    1.2951   67.7988   82.4128 N   0  0  0  0  0  0  0  0  0  0  0  0
    2.1434   67.0219   78.0701 H   0  0  0  0  0  0  0  0  0  0  0  0
    1.6201   70.8486   82.4351 C   0  0  0  0  0  0  0  0  0  0  0  0
    2.9676   71.4819   82.8283 C   0  0  0  0  0  0  0  0  0  0  0  0
    2.7251   72.9860   82.8799 C   0  0  0  0  0  0  0  0  0  0  0  0
    1.6012   73.2094   81.8843 C   0  0  0  0  0  0  0  0  0  0  0  0
    0.6790   72.0281   82.1468 C   0  0  0  0  0  0  0  0  0  0  0  0
   -1.7360   62.5007   83.6645 S   0  0  0  0  0  0  0  0  0  0  0  0
   -2.7792   63.1767   82.9238 O   0  0  0  0  0  0  0  0  0  0  0  0
   -2.0169   61.8509   84.9272 O   0  0  0  0  0  0  0  0  0  0  0  0
   -0.9930   61.3808   82.6549 N   0  0  0  0  0  0  0  0  0  0  0  0
   -1.7833   60.6051   81.6680 C   0  0  0  0  0  0  0  0  0  0  0  0
   -1.6028   61.1254   80.2290 C   0  0  0  0  0  0  0  0  0  0  0  0
   -0.1907   61.2719   79.8433 N   0  0  0  0  0  0  0  0  0  0  0  0
    0.5420   62.1022   80.8133 C   0  0  0  0  0  0  0  0  0  0  0  0
    0.4228   61.5673   82.2547 C   0  0  0  0  0  0  0  0  0  0  0  0
   -0.0220   61.7268   78.4536 C   0  0  0  0  0  0  0  0  0  0  0  0
    0.2318   63.2250   78.2110 C   0  0  0  0  0  0  0  0  0  0  0  0
    1.5599   63.4077   77.7280 O   0  0  0  0  0  0  0  0  0  0  0  0
    1.6918   64.3650   77.6138 H   0  0  0  0  0  0  0  0  0  0  0  0
    2.6190   66.4106   84.6362 O   0  0  0  0  0  0  0  0  0  0  0  0
    5.0066   66.4554   84.6250 C   0  0  0  0  0  0  0  0  0  0  0  0
    3.7777   65.6631   85.0314 C   0  0  0  0  0  0  0  0  0  0  0  0
 37 38  1  0  0  0
 38 36  1  0  0  0
 36  1  1  0  0  0
  1  2  1  0  0  0
  2  3  2  0  0  0
  3  4  1  0  0  0
  4 23  1  0  0  0
 23 24  2  0  0  0
 23 25  2  0  0  0
 23 26  1  0  0  0
 26 27  1  0  0  0
 27 28  1  0  0  0
 28 29  1  0  0  0
 29 32  1  0  0  0
 32 33  1  0  0  0
 33 34  1  0  0  0
 29 30  1  0  0  0
 30 31  1  0  0  0
  4  5  2  0  0  0
  5  6  1  0  0  0
  6  7  1  0  0  0
  7  8  1  0  0  0
  8  9  2  0  0  0
  9 10  1  0  0  0
  9 11  1  0  0  0
 11 12  2  0  0  0
 12 13  1  0  0  0
 13 14  2  0  0  0
 14 18  1  0  0  0
 18 19  1  0  0  0
 19 20  1  0  0  0
 20 21  1  0  0  0
 21 22  1  0  0  0
 14 15  1  0  0  0
 15 16  1  0  0  0
  6  1  2  0  0  0
 16  7  2  0  0  0
 31 26  1  0  0  0
 15 11  1  0  0  0
 22 18  1  0  0  0
 34 35  1  0  0  0
 10 17  1  0  0  0
M  END
> <minimizedAffinity>
-10.09038

$$$$



 38 42  0  0  0  0  0  0  0  0999 V2000
   -0.0336   63.5851   85.1649 C   0  0  0  0  0  0  0  0  0  0  0  0
   -0.7765   62.4320   85.4396 C   0  0  0  0  0  0  0  0  0  0  0  0
   -1.5599   61.8496   84.4410 C   0  0  0  0  0  0  0  0  0  0  0  0
   -1.5807   62.4138   83.1610 C   0  0  0  0  0  0  0  0  0  0  0  0
   -0.8690   63.5832   82.8875 C   0  0  0  0  0  0  0  0  0  0  0  0
   -0.0724   64.1551   83.8867 C   0  0  0  0  0  0  0  0  0  0  0  0
    0.7632   65.3250   83.5198 C   0  0  0  0  0  0  0  0  0  0  0  0
    0.3236   66.0625   82.4340 N   0  0  0  0  0  0  0  0  0  0  0  0
    1.0311   67.0837   82.0957 C   0  0  0  0  0  0  0  0  0  0  0  0
    0.7078   67.8847   81.0615 O   0  0  0  0  0  0  0  0  0  0  0  0
    2.2014   67.4326   82.7886 C   0  0  0  0  0  0  0  0  0  0  0  0
    3.0577   68.4063   82.6160 N   0  0  0  0  0  0  0  0  0  0  0  0
    4.0169   68.2449   83.6006 N   0  0  0  0  0  0  0  0  0  0  0  0
    3.6940   67.1870   84.3325 C   0  0  0  0  0  0  0  0  0  0  0  0
    2.5422   66.6388   83.8261 N   0  0  0  0  0  0  0  0  0  0  0  0
    1.8426   65.5506   84.2214 N   0  0  0  0  0  0  0  0  0  0  0  0
    1.3623   68.6000   80.9576 H   0  0  0  0  0  0  0  0  0  0  0  0
    4.4152   66.6150   85.5084 C   0  0  0  0  0  0  0  0  0  0  0  0
    5.3789   65.4942   85.0770 C   0  0  0  0  0  0  0  0  0  0  0  0
    6.7353   65.8549   85.6719 C   0  0  0  0  0  0  0  0  0  0  0  0
    6.7053   67.3701   85.7580 C   0  0  0  0  0  0  0  0  0  0  0  0
    5.2873   67.6526   86.2316 C   0  0  0  0  0  0  0  0  0  0  0  0
   -2.5552   61.6643   81.8742 S   0  0  0  0  0  0  0  0  0  0  0  0
   -3.2474   62.7382   81.1950 O   0  0  0  0  0  0  0  0  0  0  0  0
   -3.2845   60.5718   82.4827 O   0  0  0  0  0  0  0  0  0  0  0  0
   -1.4114   61.0109   80.8301 N   0  0  0  0  0  0  0  0  0  0  0  0
   -1.8026   60.5154   79.4878 C   0  0  0  0  0  0  0  0  0  0  0  0
   -1.3991   61.4856   78.3609 C   0  0  0  0  0  0  0  0  0  0  0  0
    0.0126   61.8936   78.4314 N   0  0  0  0  0  0  0  0  0  0  0  0
    0.3426   62.4399   79.7579 C   0  0  0  0  0  0  0  0  0  0  0  0
   -0.0002   61.4616   80.8994 C   0  0  0  0  0  0  0  0  0  0  0  0
    0.4056   62.7852   77.3280 C   0  0  0  0  0  0  0  0  0  0  0  0
   -0.3047   64.1454   77.2122 C   0  0  0  0  0  0  0  0  0  0  0  0
    0.6033   65.1850   77.5662 O   0  0  0  0  0  0  0  0  0  0  0  0
    0.1124   66.0231   77.5083 H   0  0  0  0  0  0  0  0  0  0  0  0
    0.8256   64.0670   86.1163 O   0  0  0  0  0  0  0  0  0  0  0  0
    0.9206   63.3607   88.3955 C   0  0  0  0  0  0  0  0  0  0  0  0
    0.1671   64.2037   87.3833 C   0  0  0  0  0  0  0  0  0  0  0  0
 37 38  1  0  0  0
 38 36  1  0  0  0
 36  1  1  0  0  0
  1  2  1  0  0  0
  2  3  2  0  0  0
  3  4  1  0  0  0
  4 23  1  0  0  0
 23 24  2  0  0  0
 23 25  2  0  0  0
 23 26  1  0  0  0
 26 27  1  0  0  0
 27 28  1  0  0  0
 28 29  1  0  0  0
 29 32  1  0  0  0
 32 33  1  0  0  0
 33 34  1  0  0  0
 29 30  1  0  0  0
 30 31  1  0  0  0
  4  5  2  0  0  0
  5  6  1  0  0  0
  6  7  1  0  0  0
  7  8  1  0  0  0
  8  9  2  0  0  0
  9 10  1  0  0  0
  9 11  1  0  0  0
 11 12  2  0  0  0
 12 13  1  0  0  0
 13 14  2  0  0  0
 14 18  1  0  0  0
 18 19  1  0  0  0
 19 20  1  0  0  0
 20 21  1  0  0  0
 21 22  1  0  0  0
 14 15  1  0  0  0
 15 16  1  0  0  0
  6  1  2  0  0  0
 16  7  2  0  0  0
 31 26  1  0  0  0
 15 11  1  0  0  0
 22 18  1  0  0  0
 34 35  1  0  0  0
 10 17  1  0  0  0
M  END
> <minimizedAffinity>
-10.01389

$$$$



 38 42  0  0  0  0  0  0  0  0999 V2000
    0.9788   65.8942   80.8334 C   0  0  0  0  0  0  0  0  0  0  0  0
    1.7614   66.9559   80.3674 C   0  0  0  0  0  0  0  0  0  0  0  0
    2.4535   67.7647   81.2712 C   0  0  0  0  0  0  0  0  0  0  0  0
    2.3757   67.4944   82.6415 C   0  0  0  0  0  0  0  0  0  0  0  0
    1.5705   66.4580   83.1174 C   0  0  0  0  0  0  0  0  0  0  0  0
    0.8908   65.6395   82.2074 C   0  0  0  0  0  0  0  0  0  0  0  0
    0.1460   64.4752   82.7470 C   0  0  0  0  0  0  0  0  0  0  0  0
   -0.2374   63.5226   81.8189 N   0  0  0  0  0  0  0  0  0  0  0  0
   -0.8847   62.5015   82.2621 C   0  0  0  0  0  0  0  0  0  0  0  0
   -1.3088   61.5034   81.4624 O   0  0  0  0  0  0  0  0  0  0  0  0
   -1.1973   62.3605   83.6236 C   0  0  0  0  0  0  0  0  0  0  0  0
   -1.8381   61.4261   84.2774 N   0  0  0  0  0  0  0  0  0  0  0  0
   -1.8423   61.8268   85.6022 N   0  0  0  0  0  0  0  0  0  0  0  0
   -1.1950   62.9809   85.6941 C   0  0  0  0  0  0  0  0  0  0  0  0
   -0.7826   63.3532   84.4392 N   0  0  0  0  0  0  0  0  0  0  0  0
   -0.1070   64.4511   84.0291 N   0  0  0  0  0  0  0  0  0  0  0  0
   -1.7816   60.8228   81.9763 H   0  0  0  0  0  0  0  0  0  0  0  0
   -0.9331   63.8052   86.9115 C   0  0  0  0  0  0  0  0  0  0  0  0
   -1.6847   63.2451   88.1332 C   0  0  0  0  0  0  0  0  0  0  0  0
   -0.6384   63.0790   89.2295 C   0  0  0  0  0  0  0  0  0  0  0  0
    0.6527   62.8374   88.4688 C   0  0  0  0  0  0  0  0  0  0  0  0
    0.5502   63.8189   87.3108 C   0  0  0  0  0  0  0  0  0  0  0  0
    3.2746   68.5031   83.7997 S   0  0  0  0  0  0  0  0  0  0  0  0
    2.4121   68.6930   84.9459 O   0  0  0  0  0  0  0  0  0  0  0  0
    3.7922   69.6334   83.0581 O   0  0  0  0  0  0  0  0  0  0  0  0
    4.5736   67.5373   84.2531 N   0  0  0  0  0  0  0  0  0  0  0  0
    5.5108   67.9740   85.3168 C   0  0  0  0  0  0  0  0  0  0  0  0
    5.2724   67.2395   86.6500 C   0  0  0  0  0  0  0  0  0  0  0  0
    5.2189   65.7770   86.4994 N   0  0  0  0  0  0  0  0  0  0  0  0
    4.2306   65.3832   85.4820 C   0  0  0  0  0  0  0  0  0  0  0  0
    4.4836   66.0629   84.1212 C   0  0  0  0  0  0  0  0  0  0  0  0
    5.0354   65.0769   87.7811 C   0  0  0  0  0  0  0  0  0  0  0  0
    5.7885   65.6143   89.0107 C   0  0  0  0  0  0  0  0  0  0  0  0
    6.7268   64.6382   89.4548 O   0  0  0  0  0  0  0  0  0  0  0  0
    7.1613   65.0009   90.2464 H   0  0  0  0  0  0  0  0  0  0  0  0
    0.4119   65.0365   79.9287 O   0  0  0  0  0  0  0  0  0  0  0  0
   -0.0745   64.7604   77.6071 C   0  0  0  0  0  0  0  0  0  0  0  0
    0.9520   65.2417   78.6159 C   0  0  0  0  0  0  0  0  0  0  0  0
 37 38  1  0  0  0
 38 36  1  0  0  0
 36  1  1  0  0  0
  1  2  1  0  0  0
  2  3  2  0  0  0
  3  4  1  0  0  0
  4 23  1  0  0  0
 23 24  2  0  0  0
 23 25  2  0  0  0
 23 26  1  0  0  0
 26 27  1  0  0  0
 27 28  1  0  0  0
 28 29  1  0  0  0
 29 32  1  0  0  0
 32 33  1  0  0  0
 33 34  1  0  0  0
 29 30  1  0  0  0
 30 31  1  0  0  0
  4  5  2  0  0  0
  5  6  1  0  0  0
  6  7  1  0  0  0
  7  8  1  0  0  0
  8  9  2  0  0  0
  9 10  1  0  0  0
  9 11  1  0  0  0
 11 12  2  0  0  0
 12 13  1  0  0  0
 13 14  2  0  0  0
 14 18  1  0  0  0
 18 19  1  0  0  0
 19 20  1  0  0  0
 20 21  1  0  0  0
 21 22  1  0  0  0
 14 15  1  0  0  0
 15 16  1  0  0  0
  6  1  2  0  0  0
 16  7  2  0  0  0
 31 26  1  0  0  0
 15 11  1  0  0  0
 22 18  1  0  0  0
 34 35  1  0  0  0
 10 17  1  0  0  0
M  END
> <minimizedAffinity>
-9.94443

$$$$



 38 42  0  0  0  0  0  0  0  0999 V2000
    3.4259   67.3483   83.7874 C   0  0  0  0  0  0  0  0  0  0  0  0
    4.0617   68.5940   83.7582 C   0  0  0  0  0  0  0  0  0  0  0  0
    3.3875   69.7126   83.2641 C   0  0  0  0  0  0  0  0  0  0  0  0
    2.0677   69.5838   82.8184 C   0  0  0  0  0  0  0  0  0  0  0  0
    1.4373   68.3383   82.8127 C   0  0  0  0  0  0  0  0  0  0  0  0
    2.1109   67.2222   83.3236 C   0  0  0  0  0  0  0  0  0  0  0  0
    1.3626   65.9442   83.4134 C   0  0  0  0  0  0  0  0  0  0  0  0
    1.1463   65.2872   82.2144 N   0  0  0  0  0  0  0  0  0  0  0  0
    0.4997   64.1749   82.2654 C   0  0  0  0  0  0  0  0  0  0  0  0
    0.2293   63.4376   81.1704 O   0  0  0  0  0  0  0  0  0  0  0  0
    0.0258   63.6522   83.4792 C   0  0  0  0  0  0  0  0  0  0  0  0
   -0.6452   62.5638   83.7554 N   0  0  0  0  0  0  0  0  0  0  0  0
   -0.8357   62.5748   85.1263 N   0  0  0  0  0  0  0  0  0  0  0  0
   -0.2629   63.6639   85.6213 C   0  0  0  0  0  0  0  0  0  0  0  0
    0.2851   64.3797   84.5865 N   0  0  0  0  0  0  0  0  0  0  0  0
    0.9518   65.5568   84.5922 N   0  0  0  0  0  0  0  0  0  0  0  0
   -0.2701   62.6341   81.4067 H   0  0  0  0  0  0  0  0  0  0  0  0
   -0.1972   64.1149   87.0434 C   0  0  0  0  0  0  0  0  0  0  0  0
   -1.3812   63.5603   87.8568 C   0  0  0  0  0  0  0  0  0  0  0  0
   -0.7705   62.8828   89.0782 C   0  0  0  0  0  0  0  0  0  0  0  0
    0.6008   62.4385   88.6022 C   0  0  0  0  0  0  0  0  0  0  0  0
    1.0659   63.6205   87.7647 C   0  0  0  0  0  0  0  0  0  0  0  0
    1.1907   71.0083   82.2111 S   0  0  0  0  0  0  0  0  0  0  0  0
    1.4631   72.0907   83.1320 O   0  0  0  0  0  0  0  0  0  0  0  0
   -0.1656   70.5815   81.9394 O   0  0  0  0  0  0  0  0  0  0  0  0
    1.9359   71.3456   80.7426 N   0  0  0  0  0  0  0  0  0  0  0  0
    2.4108   72.7152   80.4279 C   0  0  0  0  0  0  0  0  0  0  0  0
    3.9405   72.8513   80.5517 C   0  0  0  0  0  0  0  0  0  0  0  0
    4.6721   71.8086   79.8155 N   0  0  0  0  0  0  0  0  0  0  0  0
    4.2167   70.4641   80.2049 C   0  0  0  0  0  0  0  0  0  0  0  0
    2.6944   70.2858   80.0348 C   0  0  0  0  0  0  0  0  0  0  0  0
    6.1330   71.9680   79.8996 C   0  0  0  0  0  0  0  0  0  0  0  0
    6.8832   72.4195   78.6341 C   0  0  0  0  0  0  0  0  0  0  0  0
    8.1790   71.8272   78.6155 O   0  0  0  0  0  0  0  0  0  0  0  0
    8.6309   72.1568   77.8193 H   0  0  0  0  0  0  0  0  0  0  0  0
    4.0552   66.2926   84.3916 O   0  0  0  0  0  0  0  0  0  0  0  0
    6.0610   65.4645   85.3884 C   0  0  0  0  0  0  0  0  0  0  0  0
    5.4726   66.5039   84.4522 C   0  0  0  0  0  0  0  0  0  0  0  0
 37 38  1  0  0  0
 38 36  1  0  0  0
 36  1  1  0  0  0
  1  2  1  0  0  0
  2  3  2  0  0  0
  3  4  1  0  0  0
  4 23  1  0  0  0
 23 24  2  0  0  0
 23 25  2  0  0  0
 23 26  1  0  0  0
 26 27  1  0  0  0
 27 28  1  0  0  0
 28 29  1  0  0  0
 29 32  1  0  0  0
 32 33  1  0  0  0
 33 34  1  0  0  0
 29 30  1  0  0  0
 30 31  1  0  0  0
  4  5  2  0  0  0
  5  6  1  0  0  0
  6  7  1  0  0  0
  7  8  1  0  0  0
  8  9  2  0  0  0
  9 10  1  0  0  0
  9 11  1  0  0  0
 11 12  2  0  0  0
 12 13  1  0  0  0
 13 14  2  0  0  0
 14 18  1  0  0  0
 18 19  1  0  0  0
 19 20  1  0  0  0
 20 21  1  0  0  0
 21 22  1  0  0  0
 14 15  1  0  0  0
 15 16  1  0  0  0
  6  1  2  0  0  0
 16  7  2  0  0  0
 31 26  1  0  0  0
 15 11  1  0  0  0
 22 18  1  0  0  0
 34 35  1  0  0  0
 10 17  1  0  0  0
M  END
> <minimizedAffinity>
-9.92935

$$$$



 38 42  0  0  0  0  0  0  0  0999 V2000
    3.1268   66.3215   84.3794 C   0  0  0  0  0  0  0  0  0  0  0  0
    3.8962   67.4142   83.9660 C   0  0  0  0  0  0  0  0  0  0  0  0
    3.3512   68.3677   83.1034 C   0  0  0  0  0  0  0  0  0  0  0  0
    2.0269   68.2341   82.6726 C   0  0  0  0  0  0  0  0  0  0  0  0
    1.2631   67.1294   83.0533 C   0  0  0  0  0  0  0  0  0  0  0  0
    1.8076   66.1840   83.9308 C   0  0  0  0  0  0  0  0  0  0  0  0
    0.9227   65.0927   84.4075 C   0  0  0  0  0  0  0  0  0  0  0  0
    0.8387   64.9417   85.7809 N   0  0  0  0  0  0  0  0  0  0  0  0
    0.0763   64.0017   86.2204 C   0  0  0  0  0  0  0  0  0  0  0  0
   -0.0947   63.7555   87.5340 O   0  0  0  0  0  0  0  0  0  0  0  0
   -0.6334   63.1597   85.3494 C   0  0  0  0  0  0  0  0  0  0  0  0
   -1.4442   62.1583   85.5749 N   0  0  0  0  0  0  0  0  0  0  0  0
   -1.8413   61.7054   84.3287 N   0  0  0  0  0  0  0  0  0  0  0  0
   -1.2618   62.4588   83.4036 C   0  0  0  0  0  0  0  0  0  0  0  0
   -0.4713   63.3903   84.0290 N   0  0  0  0  0  0  0  0  0  0  0  0
    0.3210   64.3565   83.5107 N   0  0  0  0  0  0  0  0  0  0  0  0
   -0.7031   63.0058   87.6712 H   0  0  0  0  0  0  0  0  0  0  0  0
   -1.3821   62.3637   81.9182 C   0  0  0  0  0  0  0  0  0  0  0  0
   -1.1729   60.9163   81.4360 C   0  0  0  0  0  0  0  0  0  0  0  0
   -2.3790   60.5860   80.5642 C   0  0  0  0  0  0  0  0  0  0  0  0
   -3.4869   61.4570   81.1280 C   0  0  0  0  0  0  0  0  0  0  0  0
   -2.7729   62.7710   81.4084 C   0  0  0  0  0  0  0  0  0  0  0  0
    1.3146   69.4575   81.5942 S   0  0  0  0  0  0  0  0  0  0  0  0
    2.3478   70.4361   81.3321 O   0  0  0  0  0  0  0  0  0  0  0  0
    0.0483   69.8456   82.1786 O   0  0  0  0  0  0  0  0  0  0  0  0
    0.9978   68.6111   80.1769 N   0  0  0  0  0  0  0  0  0  0  0  0
    2.0566   67.8073   79.5186 C   0  0  0  0  0  0  0  0  0  0  0  0
    1.8793   66.2948   79.7530 C   0  0  0  0  0  0  0  0  0  0  0  0
    0.5225   65.8195   79.4408 N   0  0  0  0  0  0  0  0  0  0  0  0
   -0.4940   66.6006   80.1644 C   0  0  0  0  0  0  0  0  0  0  0  0
   -0.3718   68.1147   79.8994 C   0  0  0  0  0  0  0  0  0  0  0  0
    0.3696   64.3669   79.6235 C   0  0  0  0  0  0  0  0  0  0  0  0
    0.6413   63.4555   78.4137 C   0  0  0  0  0  0  0  0  0  0  0  0
    0.9790   62.1492   78.8719 O   0  0  0  0  0  0  0  0  0  0  0  0
    1.1703   61.6119   78.0836 H   0  0  0  0  0  0  0  0  0  0  0  0
    3.6336   65.4682   85.3232 O   0  0  0  0  0  0  0  0  0  0  0  0
    5.2762   65.2303   87.0401 C   0  0  0  0  0  0  0  0  0  0  0  0
    4.9741   65.8326   85.6803 C   0  0  0  0  0  0  0  0  0  0  0  0
 37 38  1  0  0  0
 38 36  1  0  0  0
 36  1  1  0  0  0
  1  2  1  0  0  0
  2  3  2  0  0  0
  3  4  1  0  0  0
  4 23  1  0  0  0
 23 24  2  0  0  0
 23 25  2  0  0  0
 23 26  1  0  0  0
 26 27  1  0  0  0
 27 28  1  0  0  0
 28 29  1  0  0  0
 29 32  1  0  0  0
 32 33  1  0  0  0
 33 34  1  0  0  0
 29 30  1  0  0  0
 30 31  1  0  0  0
  4  5  2  0  0  0
  5  6  1  0  0  0
  6  7  1  0  0  0
  7  8  1  0  0  0
  8  9  2  0  0  0
  9 10  1  0  0  0
  9 11  1  0  0  0
 11 12  2  0  0  0
 12 13  1  0  0  0
 13 14  2  0  0  0
 14 18  1  0  0  0
 18 19  1  0  0  0
 19 20  1  0  0  0
 20 21  1  0  0  0
 21 22  1  0  0  0
 14 15  1  0  0  0
 15 16  1  0  0  0
  6  1  2  0  0  0
 16  7  2  0  0  0
 31 26  1  0  0  0
 15 11  1  0  0  0
 22 18  1  0  0  0
 34 35  1  0  0  0
 10 17  1  0  0  0
M  END
> <minimizedAffinity>
-9.88116

$$$$



 38 42  0  0  0  0  0  0  0  0999 V2000
    3.1723   66.5641   84.1138 C   0  0  0  0  0  0  0  0  0  0  0  0
    3.8453   67.7808   83.9603 C   0  0  0  0  0  0  0  0  0  0  0  0
    3.2989   68.7869   83.1608 C   0  0  0  0  0  0  0  0  0  0  0  0
    2.0667   68.5783   82.5322 C   0  0  0  0  0  0  0  0  0  0  0  0
    1.4048   67.3551   82.6528 C   0  0  0  0  0  0  0  0  0  0  0  0
    1.9478   66.3547   83.4679 C   0  0  0  0  0  0  0  0  0  0  0  0
    1.1529   65.1179   83.6673 C   0  0  0  0  0  0  0  0  0  0  0  0
    0.9549   64.3406   82.5392 N   0  0  0  0  0  0  0  0  0  0  0  0
    0.2685   63.2611   82.6859 C   0  0  0  0  0  0  0  0  0  0  0  0
    0.0101   62.4171   81.6678 O   0  0  0  0  0  0  0  0  0  0  0  0
   -0.2642   62.8892   83.9305 C   0  0  0  0  0  0  0  0  0  0  0  0
   -0.9817   61.8588   84.2975 N   0  0  0  0  0  0  0  0  0  0  0  0
   -1.2181   62.0256   85.6510 N   0  0  0  0  0  0  0  0  0  0  0  0
   -0.6250   63.1441   86.0464 C   0  0  0  0  0  0  0  0  0  0  0  0
   -0.0176   63.7252   84.9616 N   0  0  0  0  0  0  0  0  0  0  0  0
    0.6891   64.8746   84.8648 N   0  0  0  0  0  0  0  0  0  0  0  0
   -0.5247   61.6600   81.9707 H   0  0  0  0  0  0  0  0  0  0  0  0
   -0.5920   63.7457   87.4128 C   0  0  0  0  0  0  0  0  0  0  0  0
   -1.5684   63.0246   88.3604 C   0  0  0  0  0  0  0  0  0  0  0  0
   -0.7523   62.6371   89.5883 C   0  0  0  0  0  0  0  0  0  0  0  0
    0.6578   62.4697   89.0519 C   0  0  0  0  0  0  0  0  0  0  0  0
    0.7880   63.6315   88.0781 C   0  0  0  0  0  0  0  0  0  0  0  0
    1.3491   69.8637   81.5322 S   0  0  0  0  0  0  0  0  0  0  0  0
    2.3817   70.8555   81.3223 O   0  0  0  0  0  0  0  0  0  0  0  0
    0.0867   70.2173   82.1462 O   0  0  0  0  0  0  0  0  0  0  0  0
    1.0231   69.1028   80.0693 N   0  0  0  0  0  0  0  0  0  0  0  0
    2.0669   68.3090   79.3760 C   0  0  0  0  0  0  0  0  0  0  0  0
    1.8502   66.7910   79.5274 C   0  0  0  0  0  0  0  0  0  0  0  0
    0.4846   66.3676   79.1808 N   0  0  0  0  0  0  0  0  0  0  0  0
   -0.5181   67.1341   79.9384 C   0  0  0  0  0  0  0  0  0  0  0  0
   -0.3562   68.6568   79.7561 C   0  0  0  0  0  0  0  0  0  0  0  0
    0.2942   64.9117   79.2839 C   0  0  0  0  0  0  0  0  0  0  0  0
    0.0704   64.1197   77.9836 C   0  0  0  0  0  0  0  0  0  0  0  0
    1.2493   63.3836   77.6692 O   0  0  0  0  0  0  0  0  0  0  0  0
    1.0800   62.9204   76.8304 H   0  0  0  0  0  0  0  0  0  0  0  0
    3.6585   65.6406   85.0006 O   0  0  0  0  0  0  0  0  0  0  0  0
    5.5056   65.0254   86.3835 C   0  0  0  0  0  0  0  0  0  0  0  0
    5.0861   65.7297   85.1063 C   0  0  0  0  0  0  0  0  0  0  0  0
 37 38  1  0  0  0
 38 36  1  0  0  0
 36  1  1  0  0  0
  1  2  1  0  0  0
  2  3  2  0  0  0
  3  4  1  0  0  0
  4 23  1  0  0  0
 23 24  2  0  0  0
 23 25  2  0  0  0
 23 26  1  0  0  0
 26 27  1  0  0  0
 27 28  1  0  0  0
 28 29  1  0  0  0
 29 32  1  0  0  0
 32 33  1  0  0  0
 33 34  1  0  0  0
 29 30  1  0  0  0
 30 31  1  0  0  0
  4  5  2  0  0  0
  5  6  1  0  0  0
  6  7  1  0  0  0
  7  8  1  0  0  0
  8  9  2  0  0  0
  9 10  1  0  0  0
  9 11  1  0  0  0
 11 12  2  0  0  0
 12 13  1  0  0  0
 13 14  2  0  0  0
 14 18  1  0  0  0
 18 19  1  0  0  0
 19 20  1  0  0  0
 20 21  1  0  0  0
 21 22  1  0  0  0
 14 15  1  0  0  0
 15 16  1  0  0  0
  6  1  2  0  0  0
 16  7  2  0  0  0
 31 26  1  0  0  0
 15 11  1  0  0  0
 22 18  1  0  0  0
 34 35  1  0  0  0
 10 17  1  0  0  0
M  END
> <minimizedAffinity>
-9.86068

$$$$
