


 35 38  0  0  0  0  0  0  0  0999 V2000
    0.7112   65.5676   83.9321 C   0  0  0  0  0  0  0  0  0  0  0  0
    0.6062   65.5637   82.5888 N   0  0  0  0  0  0  0  0  0  0  0  0
    0.0194   64.5175   81.9276 N   0  0  0  0  0  0  0  0  0  0  0  0
   -0.4618   63.4512   82.6004 C   0  0  0  0  0  0  0  0  0  0  0  0
   -0.3382   63.3790   84.0055 C   0  0  0  0  0  0  0  0  0  0  0  0
   -0.7654   62.2587   84.7606 C   0  0  0  0  0  0  0  0  0  0  0  0
   -0.6226   62.2055   86.1482 C   0  0  0  0  0  0  0  0  0  0  0  0
   -0.0343   63.2702   86.8215 C   0  0  0  0  0  0  0  0  0  0  0  0
    0.4073   64.3827   86.0975 C   0  0  0  0  0  0  0  0  0  0  0  0
    0.2641   64.4631   84.6878 C   0  0  0  0  0  0  0  0  0  0  0  0
   -1.1159   62.4092   81.8847 N   0  0  0  0  0  0  0  0  0  0  0  0
   -2.5575   62.7181   81.7738 C   0  0  0  0  0  0  0  0  0  0  0  0
   -3.1928   62.0145   80.5712 C   0  0  0  0  0  0  0  0  0  0  0  0
   -2.5282   60.6647   80.2860 C   0  0  0  0  0  0  0  0  0  0  0  0
   -1.0172   60.8310   80.0410 C   0  0  0  0  0  0  0  0  0  0  0  0
   -0.4706   62.1498   80.5924 C   0  0  0  0  0  0  0  0  0  0  0  0
   -3.1927   59.9666   79.1112 C   0  0  0  0  0  0  0  0  0  0  0  0
   -4.5570   59.9835   79.1277 N   0  0  0  0  0  0  0  0  0  0  0  0
   -2.5875   59.4261   78.1935 O   0  0  0  0  0  0  0  0  0  0  0  0
   -5.0840   60.5853   79.7451 H   0  0  0  0  0  0  0  0  0  0  0  0
   -5.0293   59.5947   78.3212 H   0  0  0  0  0  0  0  0  0  0  0  0
    1.2965   66.6741   84.5887 N   0  0  0  0  0  0  0  0  0  0  0  0
    0.5583   67.2695   84.9538 H   0  0  0  0  0  0  0  0  0  0  0  0
    2.2244   67.4390   83.7634 C   0  0  0  0  0  0  0  0  0  0  0  0
    6.2424   66.7854   85.2701 C   0  0  0  0  0  0  0  0  0  0  0  0
    5.9744   67.8450   84.3971 C   0  0  0  0  0  0  0  0  0  0  0  0
    4.6792   68.0563   83.9078 C   0  0  0  0  0  0  0  0  0  0  0  0
    3.6271   67.2101   84.2786 C   0  0  0  0  0  0  0  0  0  0  0  0
    3.8929   66.1509   85.1571 C   0  0  0  0  0  0  0  0  0  0  0  0
    5.1861   65.9407   85.6463 C   0  0  0  0  0  0  0  0  0  0  0  0
    5.4341   64.6119   86.7262 Cl  0  0  0  0  0  0  0  0  0  0  0  0
    8.4462   65.9229   84.9371 C   0  0  0  0  0  0  0  0  0  0  0  0
    7.4764   66.5057   85.7966 O   0  0  0  0  0  0  0  0  0  0  0  0
    0.1247   63.2247   88.2453 C   0  0  0  0  0  0  0  0  0  0  0  0
    0.2605   63.1931   89.3973 N   0  0  0  0  0  0  0  0  0  0  0  0
 32 33  1  0  0  0
 33 25  1  0  0  0
 25 26  1  0  0  0
 26 27  2  0  0  0
 27 28  1  0  0  0
 28 24  1  0  0  0
 24 22  1  0  0  0
 22  1  1  0  0  0
  1  2  1  0  0  0
  2  3  2  0  0  0
  3  4  1  0  0  0
  4 11  1  0  0  0
 11 12  1  0  0  0
 12 13  1  0  0  0
 13 14  1  0  0  0
 14 17  1  0  0  0
 17 18  1  0  0  0
 17 19  2  0  0  0
 14 15  1  0  0  0
 15 16  1  0  0  0
  4  5  2  0  0  0
  5  6  1  0  0  0
  6  7  2  0  0  0
  7  8  1  0  0  0
  8 34  1  0  0  0
 34 35  3  0  0  0
  8  9  2  0  0  0
  9 10  1  0  0  0
 28 29  2  0  0  0
 29 30  1  0  0  0
 30 31  1  0  0  0
 30 25  2  0  0  0
 10  1  2  0  0  0
 16 11  1  0  0  0
 10  5  1  0  0  0
 22 23  1  0  0  0
 18 20  1  0  0  0
 18 21  1  0  0  0
M  END
> <minimizedAffinity>
-10.89040

$$$$



 35 38  0  0  0  0  0  0  0  0999 V2000
    0.7594   65.3184   83.9287 C   0  0  0  0  0  0  0  0  0  0  0  0
    0.5282   65.2492   82.6031 N   0  0  0  0  0  0  0  0  0  0  0  0
   -0.2702   64.2701   82.0740 N   0  0  0  0  0  0  0  0  0  0  0  0
   -0.8413   63.3359   82.8629 C   0  0  0  0  0  0  0  0  0  0  0  0
   -0.5974   63.3310   84.2541 C   0  0  0  0  0  0  0  0  0  0  0  0
   -1.1157   62.3401   85.1243 C   0  0  0  0  0  0  0  0  0  0  0  0
   -0.8517   62.3498   86.4950 C   0  0  0  0  0  0  0  0  0  0  0  0
   -0.0479   63.3477   87.0346 C   0  0  0  0  0  0  0  0  0  0  0  0
    0.4864   64.3304   86.1947 C   0  0  0  0  0  0  0  0  0  0  0  0
    0.2240   64.3463   84.8000 C   0  0  0  0  0  0  0  0  0  0  0  0
   -1.7105   62.3682   82.2849 N   0  0  0  0  0  0  0  0  0  0  0  0
   -2.3991   62.9599   81.1180 C   0  0  0  0  0  0  0  0  0  0  0  0
   -2.8549   61.8838   80.1286 C   0  0  0  0  0  0  0  0  0  0  0  0
   -3.2286   60.5798   80.8391 C   0  0  0  0  0  0  0  0  0  0  0  0
   -2.0486   60.0430   81.6700 C   0  0  0  0  0  0  0  0  0  0  0  0
   -1.0047   61.1187   81.9780 C   0  0  0  0  0  0  0  0  0  0  0  0
   -3.7095   59.5354   79.8457 C   0  0  0  0  0  0  0  0  0  0  0  0
   -4.3371   60.0359   78.7422 N   0  0  0  0  0  0  0  0  0  0  0  0
   -3.5574   58.3276   79.9816 O   0  0  0  0  0  0  0  0  0  0  0  0
   -4.3006   61.0151   78.4956 H   0  0  0  0  0  0  0  0  0  0  0  0
   -4.6009   59.3718   78.0252 H   0  0  0  0  0  0  0  0  0  0  0  0
    1.5650   66.3569   84.4489 N   0  0  0  0  0  0  0  0  0  0  0  0
    0.9720   67.1473   84.6861 H   0  0  0  0  0  0  0  0  0  0  0  0
    2.6555   66.7667   83.5714 C   0  0  0  0  0  0  0  0  0  0  0  0
    1.8078   70.7421   82.0485 C   0  0  0  0  0  0  0  0  0  0  0  0
    2.8156   70.5449   82.9983 C   0  0  0  0  0  0  0  0  0  0  0  0
    3.0892   69.2634   83.4928 C   0  0  0  0  0  0  0  0  0  0  0  0
    2.3580   68.1544   83.0505 C   0  0  0  0  0  0  0  0  0  0  0  0
    1.3511   68.3494   82.0953 C   0  0  0  0  0  0  0  0  0  0  0  0
    1.0788   69.6290   81.6009 C   0  0  0  0  0  0  0  0  0  0  0  0
   -0.1794   69.7884   80.4241 Cl  0  0  0  0  0  0  0  0  0  0  0  0
    1.3716   73.0663   82.3943 C   0  0  0  0  0  0  0  0  0  0  0  0
    1.4738   71.9578   81.5112 O   0  0  0  0  0  0  0  0  0  0  0  0
    0.2368   63.3646   88.4394 C   0  0  0  0  0  0  0  0  0  0  0  0
    0.4681   63.3871   89.5763 N   0  0  0  0  0  0  0  0  0  0  0  0
 32 33  1  0  0  0
 33 25  1  0  0  0
 25 26  1  0  0  0
 26 27  2  0  0  0
 27 28  1  0  0  0
 28 24  1  0  0  0
 24 22  1  0  0  0
 22  1  1  0  0  0
  1  2  1  0  0  0
  2  3  2  0  0  0
  3  4  1  0  0  0
  4 11  1  0  0  0
 11 12  1  0  0  0
 12 13  1  0  0  0
 13 14  1  0  0  0
 14 17  1  0  0  0
 17 18  1  0  0  0
 17 19  2  0  0  0
 14 15  1  0  0  0
 15 16  1  0  0  0
  4  5  2  0  0  0
  5  6  1  0  0  0
  6  7  2  0  0  0
  7  8  1  0  0  0
  8 34  1  0  0  0
 34 35  3  0  0  0
  8  9  2  0  0  0
  9 10  1  0  0  0
 28 29  2  0  0  0
 29 30  1  0  0  0
 30 31  1  0  0  0
 30 25  2  0  0  0
 10  1  2  0  0  0
 16 11  1  0  0  0
 10  5  1  0  0  0
 22 23  1  0  0  0
 18 20  1  0  0  0
 18 21  1  0  0  0
M  END
> <minimizedAffinity>
-10.47019

$$$$



 35 38  0  0  0  0  0  0  0  0999 V2000
    0.9497   65.5931   83.1479 C   0  0  0  0  0  0  0  0  0  0  0  0
    0.8800   65.4785   81.8072 N   0  0  0  0  0  0  0  0  0  0  0  0
    0.2466   64.4158   81.2195 N   0  0  0  0  0  0  0  0  0  0  0  0
   -0.3179   63.4430   81.9653 C   0  0  0  0  0  0  0  0  0  0  0  0
   -0.2359   63.4861   83.3746 C   0  0  0  0  0  0  0  0  0  0  0  0
   -0.7520   62.4635   84.2086 C   0  0  0  0  0  0  0  0  0  0  0  0
   -0.6492   62.5228   85.5996 C   0  0  0  0  0  0  0  0  0  0  0  0
   -0.0134   63.6049   86.1978 C   0  0  0  0  0  0  0  0  0  0  0  0
    0.5157   64.6216   85.3959 C   0  0  0  0  0  0  0  0  0  0  0  0
    0.4149   64.5874   83.9806 C   0  0  0  0  0  0  0  0  0  0  0  0
   -1.0168   62.3837   81.3208 N   0  0  0  0  0  0  0  0  0  0  0  0
   -2.4697   62.6542   81.3650 C   0  0  0  0  0  0  0  0  0  0  0  0
   -3.2107   61.9336   80.2353 C   0  0  0  0  0  0  0  0  0  0  0  0
   -2.5450   60.6018   79.8774 C   0  0  0  0  0  0  0  0  0  0  0  0
   -1.0736   60.8081   79.4732 C   0  0  0  0  0  0  0  0  0  0  0  0
   -0.5064   62.1411   79.9664 C   0  0  0  0  0  0  0  0  0  0  0  0
   -3.3123   59.8860   78.7784 C   0  0  0  0  0  0  0  0  0  0  0  0
   -4.6286   59.6533   79.0525 N   0  0  0  0  0  0  0  0  0  0  0  0
   -2.8272   59.5358   77.7095 O   0  0  0  0  0  0  0  0  0  0  0  0
   -5.1094   60.1006   79.8204 H   0  0  0  0  0  0  0  0  0  0  0  0
   -5.1856   59.2476   78.3110 H   0  0  0  0  0  0  0  0  0  0  0  0
    1.5856   66.7154   83.7259 N   0  0  0  0  0  0  0  0  0  0  0  0
    1.0095   67.5379   83.5698 H   0  0  0  0  0  0  0  0  0  0  0  0
    2.9499   66.9373   83.2605 C   0  0  0  0  0  0  0  0  0  0  0  0
    5.7101   65.7115   86.3782 C   0  0  0  0  0  0  0  0  0  0  0  0
    4.3698   65.3134   86.4189 C   0  0  0  0  0  0  0  0  0  0  0  0
    3.4769   65.7097   85.4153 C   0  0  0  0  0  0  0  0  0  0  0  0
    3.9055   66.5152   84.3533 C   0  0  0  0  0  0  0  0  0  0  0  0
    5.2492   66.9110   84.3083 C   0  0  0  0  0  0  0  0  0  0  0  0
    6.1408   66.5142   85.3100 C   0  0  0  0  0  0  0  0  0  0  0  0
    7.7831   67.0437   85.1843 Cl  0  0  0  0  0  0  0  0  0  0  0  0
    6.2120   65.1733   88.6519 C   0  0  0  0  0  0  0  0  0  0  0  0
    6.6506   65.3706   87.3149 O   0  0  0  0  0  0  0  0  0  0  0  0
    0.1051   63.6741   87.6246 C   0  0  0  0  0  0  0  0  0  0  0  0
    0.2098   63.7294   88.7790 N   0  0  0  0  0  0  0  0  0  0  0  0
 32 33  1  0  0  0
 33 25  1  0  0  0
 25 26  1  0  0  0
 26 27  2  0  0  0
 27 28  1  0  0  0
 28 24  1  0  0  0
 24 22  1  0  0  0
 22  1  1  0  0  0
  1  2  1  0  0  0
  2  3  2  0  0  0
  3  4  1  0  0  0
  4 11  1  0  0  0
 11 12  1  0  0  0
 12 13  1  0  0  0
 13 14  1  0  0  0
 14 17  1  0  0  0
 17 18  1  0  0  0
 17 19  2  0  0  0
 14 15  1  0  0  0
 15 16  1  0  0  0
  4  5  2  0  0  0
  5  6  1  0  0  0
  6  7  2  0  0  0
  7  8  1  0  0  0
  8 34  1  0  0  0
 34 35  3  0  0  0
  8  9  2  0  0  0
  9 10  1  0  0  0
 28 29  2  0  0  0
 29 30  1  0  0  0
 30 31  1  0  0  0
 30 25  2  0  0  0
 10  1  2  0  0  0
 16 11  1  0  0  0
 10  5  1  0  0  0
 22 23  1  0  0  0
 18 20  1  0  0  0
 18 21  1  0  0  0
M  END
> <minimizedAffinity>
-10.45796

$$$$



 35 38  0  0  0  0  0  0  0  0999 V2000
    0.9040   65.8137   82.9137 C   0  0  0  0  0  0  0  0  0  0  0  0
    0.7579   65.6998   81.5792 N   0  0  0  0  0  0  0  0  0  0  0  0
    0.1460   64.6070   81.0247 N   0  0  0  0  0  0  0  0  0  0  0  0
   -0.3195   63.6034   81.7974 C   0  0  0  0  0  0  0  0  0  0  0  0
   -0.1531   63.6463   83.1994 C   0  0  0  0  0  0  0  0  0  0  0  0
   -0.5624   62.5952   84.0569 C   0  0  0  0  0  0  0  0  0  0  0  0
   -0.3773   62.6555   85.4393 C   0  0  0  0  0  0  0  0  0  0  0  0
    0.2365   63.7678   86.0042 C   0  0  0  0  0  0  0  0  0  0  0  0
    0.6611   64.8135   85.1778 C   0  0  0  0  0  0  0  0  0  0  0  0
    0.4751   64.7785   83.7712 C   0  0  0  0  0  0  0  0  0  0  0  0
   -1.0003   62.5108   81.1903 N   0  0  0  0  0  0  0  0  0  0  0  0
   -2.4581   62.7537   81.2341 C   0  0  0  0  0  0  0  0  0  0  0  0
   -3.1901   61.9834   80.1315 C   0  0  0  0  0  0  0  0  0  0  0  0
   -2.4996   60.6545   79.8120 C   0  0  0  0  0  0  0  0  0  0  0  0
   -1.0347   60.8770   79.3934 C   0  0  0  0  0  0  0  0  0  0  0  0
   -0.4918   62.2358   79.8415 C   0  0  0  0  0  0  0  0  0  0  0  0
   -3.2579   59.8894   78.7402 C   0  0  0  0  0  0  0  0  0  0  0  0
   -4.5498   59.5837   79.0556 N   0  0  0  0  0  0  0  0  0  0  0  0
   -2.7863   59.5609   77.6584 O   0  0  0  0  0  0  0  0  0  0  0  0
   -5.0318   60.0076   79.8360 H   0  0  0  0  0  0  0  0  0  0  0  0
   -5.1050   59.1425   78.3333 H   0  0  0  0  0  0  0  0  0  0  0  0
    1.5146   66.9662   83.4587 N   0  0  0  0  0  0  0  0  0  0  0  0
    0.7966   67.5581   83.8672 H   0  0  0  0  0  0  0  0  0  0  0  0
    2.3333   67.7153   82.5124 C   0  0  0  0  0  0  0  0  0  0  0  0
    0.5492   71.6352   81.9711 C   0  0  0  0  0  0  0  0  0  0  0  0
   -0.0871   70.4908   81.4792 C   0  0  0  0  0  0  0  0  0  0  0  0
    0.4879   69.2252   81.6507 C   0  0  0  0  0  0  0  0  0  0  0  0
    1.7124   69.0793   82.3138 C   0  0  0  0  0  0  0  0  0  0  0  0
    2.3489   70.2245   82.8115 C   0  0  0  0  0  0  0  0  0  0  0  0
    1.7740   71.4879   82.6411 C   0  0  0  0  0  0  0  0  0  0  0  0
    2.6208   72.8530   83.2835 Cl  0  0  0  0  0  0  0  0  0  0  0  0
   -0.4550   73.3026   80.5844 C   0  0  0  0  0  0  0  0  0  0  0  0
    0.0595   72.9094   81.8491 O   0  0  0  0  0  0  0  0  0  0  0  0
    0.4391   63.8386   87.4215 C   0  0  0  0  0  0  0  0  0  0  0  0
    0.6000   63.8877   88.5696 N   0  0  0  0  0  0  0  0  0  0  0  0
 32 33  1  0  0  0
 33 25  1  0  0  0
 25 26  1  0  0  0
 26 27  2  0  0  0
 27 28  1  0  0  0
 28 24  1  0  0  0
 24 22  1  0  0  0
 22  1  1  0  0  0
  1  2  1  0  0  0
  2  3  2  0  0  0
  3  4  1  0  0  0
  4 11  1  0  0  0
 11 12  1  0  0  0
 12 13  1  0  0  0
 13 14  1  0  0  0
 14 17  1  0  0  0
 17 18  1  0  0  0
 17 19  2  0  0  0
 14 15  1  0  0  0
 15 16  1  0  0  0
  4  5  2  0  0  0
  5  6  1  0  0  0
  6  7  2  0  0  0
  7  8  1  0  0  0
  8 34  1  0  0  0
 34 35  3  0  0  0
  8  9  2  0  0  0
  9 10  1  0  0  0
 28 29  2  0  0  0
 29 30  1  0  0  0
 30 31  1  0  0  0
 30 25  2  0  0  0
 10  1  2  0  0  0
 16 11  1  0  0  0
 10  5  1  0  0  0
 22 23  1  0  0  0
 18 20  1  0  0  0
 18 21  1  0  0  0
M  END
> <minimizedAffinity>
-10.45459

$$$$



 35 38  0  0  0  0  0  0  0  0999 V2000
    0.9398   65.7801   82.8416 C   0  0  0  0  0  0  0  0  0  0  0  0
    0.7901   65.6659   81.5074 N   0  0  0  0  0  0  0  0  0  0  0  0
    0.1665   64.5785   80.9555 N   0  0  0  0  0  0  0  0  0  0  0  0
   -0.3076   63.5806   81.7304 C   0  0  0  0  0  0  0  0  0  0  0  0
   -0.1383   63.6238   83.1320 C   0  0  0  0  0  0  0  0  0  0  0  0
   -0.5565   62.5780   83.9917 C   0  0  0  0  0  0  0  0  0  0  0  0
   -0.3684   62.6382   85.3737 C   0  0  0  0  0  0  0  0  0  0  0  0
    0.2575   63.7451   85.9360 C   0  0  0  0  0  0  0  0  0  0  0  0
    0.6910   64.7854   85.1074 C   0  0  0  0  0  0  0  0  0  0  0  0
    0.5021   64.7504   83.7012 C   0  0  0  0  0  0  0  0  0  0  0  0
   -1.0003   62.4940   81.1260 N   0  0  0  0  0  0  0  0  0  0  0  0
   -2.4556   62.7503   81.1742 C   0  0  0  0  0  0  0  0  0  0  0  0
   -3.1981   61.9863   80.0743 C   0  0  0  0  0  0  0  0  0  0  0  0
   -2.5209   60.6509   79.7533 C   0  0  0  0  0  0  0  0  0  0  0  0
   -1.0553   60.8598   79.3301 C   0  0  0  0  0  0  0  0  0  0  0  0
   -0.4985   62.2137   79.7757 C   0  0  0  0  0  0  0  0  0  0  0  0
   -3.2895   59.8922   78.6843 C   0  0  0  0  0  0  0  0  0  0  0  0
   -4.5254   59.4558   79.0637 N   0  0  0  0  0  0  0  0  0  0  0  0
   -2.8725   59.6754   77.5531 O   0  0  0  0  0  0  0  0  0  0  0  0
   -4.9827   59.7857   79.9022 H   0  0  0  0  0  0  0  0  0  0  0  0
   -5.0935   59.0146   78.3514 H   0  0  0  0  0  0  0  0  0  0  0  0
    1.5627   66.9272   83.3839 N   0  0  0  0  0  0  0  0  0  0  0  0
    0.8454   67.5760   83.6956 H   0  0  0  0  0  0  0  0  0  0  0  0
    2.5030   67.5821   82.4816 C   0  0  0  0  0  0  0  0  0  0  0  0
    1.5686   71.8181   82.3247 C   0  0  0  0  0  0  0  0  0  0  0  0
    2.7866   71.3782   82.8533 C   0  0  0  0  0  0  0  0  0  0  0  0
    3.0893   70.0117   82.9071 C   0  0  0  0  0  0  0  0  0  0  0  0
    2.1784   69.0579   82.4371 C   0  0  0  0  0  0  0  0  0  0  0  0
    0.9595   69.4972   81.9027 C   0  0  0  0  0  0  0  0  0  0  0  0
    0.6581   70.8618   81.8481 C   0  0  0  0  0  0  0  0  0  0  0  0
   -0.8668   71.3249   81.1746 Cl  0  0  0  0  0  0  0  0  0  0  0  0
    2.0699   74.1126   82.7671 C   0  0  0  0  0  0  0  0  0  0  0  0
    1.1910   73.1323   82.2327 O   0  0  0  0  0  0  0  0  0  0  0  0
    0.4632   63.8158   87.3528 C   0  0  0  0  0  0  0  0  0  0  0  0
    0.6212   63.8747   88.5009 N   0  0  0  0  0  0  0  0  0  0  0  0
 32 33  1  0  0  0
 33 25  1  0  0  0
 25 26  1  0  0  0
 26 27  2  0  0  0
 27 28  1  0  0  0
 28 24  1  0  0  0
 24 22  1  0  0  0
 22  1  1  0  0  0
  1  2  1  0  0  0
  2  3  2  0  0  0
  3  4  1  0  0  0
  4 11  1  0  0  0
 11 12  1  0  0  0
 12 13  1  0  0  0
 13 14  1  0  0  0
 14 17  1  0  0  0
 17 18  1  0  0  0
 17 19  2  0  0  0
 14 15  1  0  0  0
 15 16  1  0  0  0
  4  5  2  0  0  0
  5  6  1  0  0  0
  6  7  2  0  0  0
  7  8  1  0  0  0
  8 34  1  0  0  0
 34 35  3  0  0  0
  8  9  2  0  0  0
  9 10  1  0  0  0
 28 29  2  0  0  0
 29 30  1  0  0  0
 30 31  1  0  0  0
 30 25  2  0  0  0
 10  1  2  0  0  0
 16 11  1  0  0  0
 10  5  1  0  0  0
 22 23  1  0  0  0
 18 20  1  0  0  0
 18 21  1  0  0  0
M  END
> <minimizedAffinity>
-10.27257

$$$$



 35 38  0  0  0  0  0  0  0  0999 V2000
    0.5640   64.9304   84.3201 C   0  0  0  0  0  0  0  0  0  0  0  0
   -0.2146   63.8522   84.5363 N   0  0  0  0  0  0  0  0  0  0  0  0
   -0.8767   63.2390   83.5059 N   0  0  0  0  0  0  0  0  0  0  0  0
   -0.7796   63.7030   82.2424 C   0  0  0  0  0  0  0  0  0  0  0  0
   -0.0150   64.8572   81.9630 C   0  0  0  0  0  0  0  0  0  0  0  0
    0.0734   65.4290   80.6696 C   0  0  0  0  0  0  0  0  0  0  0  0
    0.8270   66.5772   80.4197 C   0  0  0  0  0  0  0  0  0  0  0  0
    1.5059   67.1961   81.4633 C   0  0  0  0  0  0  0  0  0  0  0  0
    1.4245   66.6585   82.7521 C   0  0  0  0  0  0  0  0  0  0  0  0
    0.6725   65.4869   83.0280 C   0  0  0  0  0  0  0  0  0  0  0  0
   -1.4359   63.0064   81.1888 N   0  0  0  0  0  0  0  0  0  0  0  0
   -0.5212   61.9901   80.6263 C   0  0  0  0  0  0  0  0  0  0  0  0
   -1.2918   60.8516   79.9517 C   0  0  0  0  0  0  0  0  0  0  0  0
   -2.5995   61.3435   79.3248 C   0  0  0  0  0  0  0  0  0  0  0  0
   -3.5000   62.0169   80.3767 C   0  0  0  0  0  0  0  0  0  0  0  0
   -2.7267   62.4585   81.6213 C   0  0  0  0  0  0  0  0  0  0  0  0
   -3.3337   60.2078   78.6321 C   0  0  0  0  0  0  0  0  0  0  0  0
   -4.4717   59.7905   79.2588 N   0  0  0  0  0  0  0  0  0  0  0  0
   -2.9715   59.6848   77.5852 O   0  0  0  0  0  0  0  0  0  0  0  0
   -4.9090   60.3221   79.9984 H   0  0  0  0  0  0  0  0  0  0  0  0
   -5.0248   59.0885   78.7833 H   0  0  0  0  0  0  0  0  0  0  0  0
    1.2573   65.5251   85.3988 N   0  0  0  0  0  0  0  0  0  0  0  0
    1.6725   66.3974   85.0835 H   0  0  0  0  0  0  0  0  0  0  0  0
    2.2587   64.6630   86.0161 C   0  0  0  0  0  0  0  0  0  0  0  0
    6.1252   66.6128   85.7156 C   0  0  0  0  0  0  0  0  0  0  0  0
    5.9243   65.5694   86.6253 C   0  0  0  0  0  0  0  0  0  0  0  0
    4.6769   64.9404   86.7257 C   0  0  0  0  0  0  0  0  0  0  0  0
    3.6047   65.3449   85.9213 C   0  0  0  0  0  0  0  0  0  0  0  0
    3.8056   66.3869   85.0058 C   0  0  0  0  0  0  0  0  0  0  0  0
    5.0515   67.0141   84.9052 C   0  0  0  0  0  0  0  0  0  0  0  0
    5.2204   68.2925   83.7516 Cl  0  0  0  0  0  0  0  0  0  0  0  0
    8.3204   66.6575   84.7720 C   0  0  0  0  0  0  0  0  0  0  0  0
    7.3095   67.2824   85.5507 O   0  0  0  0  0  0  0  0  0  0  0  0
    2.2772   68.3799   81.2213 C   0  0  0  0  0  0  0  0  0  0  0  0
    2.8991   69.3414   81.0331 N   0  0  0  0  0  0  0  0  0  0  0  0
 32 33  1  0  0  0
 33 25  1  0  0  0
 25 26  1  0  0  0
 26 27  2  0  0  0
 27 28  1  0  0  0
 28 24  1  0  0  0
 24 22  1  0  0  0
 22  1  1  0  0  0
  1  2  1  0  0  0
  2  3  2  0  0  0
  3  4  1  0  0  0
  4 11  1  0  0  0
 11 12  1  0  0  0
 12 13  1  0  0  0
 13 14  1  0  0  0
 14 17  1  0  0  0
 17 18  1  0  0  0
 17 19  2  0  0  0
 14 15  1  0  0  0
 15 16  1  0  0  0
  4  5  2  0  0  0
  5  6  1  0  0  0
  6  7  2  0  0  0
  7  8  1  0  0  0
  8 34  1  0  0  0
 34 35  3  0  0  0
  8  9  2  0  0  0
  9 10  1  0  0  0
 28 29  2  0  0  0
 29 30  1  0  0  0
 30 31  1  0  0  0
 30 25  2  0  0  0
 10  1  2  0  0  0
 16 11  1  0  0  0
 10  5  1  0  0  0
 22 23  1  0  0  0
 18 20  1  0  0  0
 18 21  1  0  0  0
M  END
> <minimizedAffinity>
-9.97559

$$$$



 35 38  0  0  0  0  0  0  0  0999 V2000
   -0.8779   63.9029   82.4580 C   0  0  0  0  0  0  0  0  0  0  0  0
   -0.8945   64.4895   81.2451 N   0  0  0  0  0  0  0  0  0  0  0  0
   -0.1097   65.5791   80.9749 N   0  0  0  0  0  0  0  0  0  0  0  0
    0.6966   66.1073   81.9193 C   0  0  0  0  0  0  0  0  0  0  0  0
    0.7211   65.5629   83.2224 C   0  0  0  0  0  0  0  0  0  0  0  0
    1.4974   66.1119   84.2729 C   0  0  0  0  0  0  0  0  0  0  0  0
    1.4969   65.5627   85.5563 C   0  0  0  0  0  0  0  0  0  0  0  0
    0.7068   64.4519   85.8299 C   0  0  0  0  0  0  0  0  0  0  0  0
   -0.0785   63.8986   84.8131 C   0  0  0  0  0  0  0  0  0  0  0  0
   -0.0868   64.4340   83.4987 C   0  0  0  0  0  0  0  0  0  0  0  0
    1.5401   67.2042   81.5856 N   0  0  0  0  0  0  0  0  0  0  0  0
    1.8412   67.1709   80.1385 C   0  0  0  0  0  0  0  0  0  0  0  0
    2.2073   68.5600   79.6080 C   0  0  0  0  0  0  0  0  0  0  0  0
    2.9257   69.4016   80.6665 C   0  0  0  0  0  0  0  0  0  0  0  0
    2.0658   69.5495   81.9351 C   0  0  0  0  0  0  0  0  0  0  0  0
    0.9752   68.4809   82.0380 C   0  0  0  0  0  0  0  0  0  0  0  0
    3.3104   70.7632   80.1123 C   0  0  0  0  0  0  0  0  0  0  0  0
    2.4491   71.7754   80.4218 N   0  0  0  0  0  0  0  0  0  0  0  0
    4.3127   70.9811   79.4428 O   0  0  0  0  0  0  0  0  0  0  0  0
    1.7351   71.6815   81.1306 H   0  0  0  0  0  0  0  0  0  0  0  0
    2.7165   72.7080   80.1331 H   0  0  0  0  0  0  0  0  0  0  0  0
   -1.6778   62.7626   82.6989 N   0  0  0  0  0  0  0  0  0  0  0  0
   -2.0300   62.8018   83.6513 H   0  0  0  0  0  0  0  0  0  0  0  0
   -1.0059   61.4939   82.4421 C   0  0  0  0  0  0  0  0  0  0  0  0
   -2.3830   59.9772   78.6152 C   0  0  0  0  0  0  0  0  0  0  0  0
   -3.1418   59.7778   79.7733 C   0  0  0  0  0  0  0  0  0  0  0  0
   -2.6982   60.2642   81.0096 C   0  0  0  0  0  0  0  0  0  0  0  0
   -1.4854   60.9561   81.1130 C   0  0  0  0  0  0  0  0  0  0  0  0
   -0.7263   61.1611   79.9528 C   0  0  0  0  0  0  0  0  0  0  0  0
   -1.1700   60.6762   78.7184 C   0  0  0  0  0  0  0  0  0  0  0  0
   -0.1767   60.9691   77.3323 Cl  0  0  0  0  0  0  0  0  0  0  0  0
   -3.4939   60.4183   76.5456 C   0  0  0  0  0  0  0  0  0  0  0  0
   -2.7401   59.5375   77.3672 O   0  0  0  0  0  0  0  0  0  0  0  0
    0.6917   63.8829   87.1455 C   0  0  0  0  0  0  0  0  0  0  0  0
    0.6711   63.4204   88.2095 N   0  0  0  0  0  0  0  0  0  0  0  0
 32 33  1  0  0  0
 33 25  1  0  0  0
 25 26  1  0  0  0
 26 27  2  0  0  0
 27 28  1  0  0  0
 28 24  1  0  0  0
 24 22  1  0  0  0
 22  1  1  0  0  0
  1  2  1  0  0  0
  2  3  2  0  0  0
  3  4  1  0  0  0
  4 11  1  0  0  0
 11 12  1  0  0  0
 12 13  1  0  0  0
 13 14  1  0  0  0
 14 17  1  0  0  0
 17 18  1  0  0  0
 17 19  2  0  0  0
 14 15  1  0  0  0
 15 16  1  0  0  0
  4  5  2  0  0  0
  5  6  1  0  0  0
  6  7  2  0  0  0
  7  8  1  0  0  0
  8 34  1  0  0  0
 34 35  3  0  0  0
  8  9  2  0  0  0
  9 10  1  0  0  0
 28 29  2  0  0  0
 29 30  1  0  0  0
 30 31  1  0  0  0
 30 25  2  0  0  0
 10  1  2  0  0  0
 16 11  1  0  0  0
 10  5  1  0  0  0
 22 23  1  0  0  0
 18 20  1  0  0  0
 18 21  1  0  0  0
M  END
> <minimizedAffinity>
-9.82583

$$$$



 35 38  0  0  0  0  0  0  0  0999 V2000
    1.6946   65.9842   83.0184 C   0  0  0  0  0  0  0  0  0  0  0  0
    0.9918   66.7865   82.1951 N   0  0  0  0  0  0  0  0  0  0  0  0
    1.3284   68.1043   82.0333 N   0  0  0  0  0  0  0  0  0  0  0  0
    2.3683   68.6441   82.7030 C   0  0  0  0  0  0  0  0  0  0  0  0
    3.1126   67.8631   83.6145 C   0  0  0  0  0  0  0  0  0  0  0  0
    4.1730   68.3887   84.3937 C   0  0  0  0  0  0  0  0  0  0  0  0
    4.8875   67.5995   85.2967 C   0  0  0  0  0  0  0  0  0  0  0  0
    4.5519   66.2597   85.4561 C   0  0  0  0  0  0  0  0  0  0  0  0
    3.5006   65.7198   84.7077 C   0  0  0  0  0  0  0  0  0  0  0  0
    2.7665   66.5003   83.7770 C   0  0  0  0  0  0  0  0  0  0  0  0
    2.7238   70.0020   82.4666 N   0  0  0  0  0  0  0  0  0  0  0  0
    3.5381   70.0903   81.2358 C   0  0  0  0  0  0  0  0  0  0  0  0
    3.4530   71.4824   80.6036 C   0  0  0  0  0  0  0  0  0  0  0  0
    3.2821   72.5772   81.6605 C   0  0  0  0  0  0  0  0  0  0  0  0
    2.0284   72.3285   82.5191 C   0  0  0  0  0  0  0  0  0  0  0  0
    1.5462   70.8776   82.4548 C   0  0  0  0  0  0  0  0  0  0  0  0
    3.2329   73.9533   81.0178 C   0  0  0  0  0  0  0  0  0  0  0  0
    2.4451   74.0426   79.9072 N   0  0  0  0  0  0  0  0  0  0  0  0
    3.8313   74.9362   81.4377 O   0  0  0  0  0  0  0  0  0  0  0  0
    1.7840   73.3221   79.6525 H   0  0  0  0  0  0  0  0  0  0  0  0
    2.3299   74.9624   79.5006 H   0  0  0  0  0  0  0  0  0  0  0  0
    1.3408   64.6214   83.1436 N   0  0  0  0  0  0  0  0  0  0  0  0
    1.6484   64.1230   82.3132 H   0  0  0  0  0  0  0  0  0  0  0  0
   -0.0770   64.3908   83.3961 C   0  0  0  0  0  0  0  0  0  0  0  0
   -0.5949   63.2365   87.5483 C   0  0  0  0  0  0  0  0  0  0  0  0
    0.4557   64.0793   87.1708 C   0  0  0  0  0  0  0  0  0  0  0  0
    0.6261   64.4512   85.8313 C   0  0  0  0  0  0  0  0  0  0  0  0
   -0.2481   63.9845   84.8422 C   0  0  0  0  0  0  0  0  0  0  0  0
   -1.3042   63.1438   85.2194 C   0  0  0  0  0  0  0  0  0  0  0  0
   -1.4746   62.7735   86.5572 C   0  0  0  0  0  0  0  0  0  0  0  0
   -2.8017   61.7327   86.9434 Cl  0  0  0  0  0  0  0  0  0  0  0  0
    0.2130   62.1583   89.5223 C   0  0  0  0  0  0  0  0  0  0  0  0
   -0.8363   62.8233   88.8326 O   0  0  0  0  0  0  0  0  0  0  0  0
    5.2730   65.4405   86.3854 C   0  0  0  0  0  0  0  0  0  0  0  0
    5.8626   64.7837   87.1387 N   0  0  0  0  0  0  0  0  0  0  0  0
 32 33  1  0  0  0
 33 25  1  0  0  0
 25 26  1  0  0  0
 26 27  2  0  0  0
 27 28  1  0  0  0
 28 24  1  0  0  0
 24 22  1  0  0  0
 22  1  1  0  0  0
  1  2  1  0  0  0
  2  3  2  0  0  0
  3  4  1  0  0  0
  4 11  1  0  0  0
 11 12  1  0  0  0
 12 13  1  0  0  0
 13 14  1  0  0  0
 14 17  1  0  0  0
 17 18  1  0  0  0
 17 19  2  0  0  0
 14 15  1  0  0  0
 15 16  1  0  0  0
  4  5  2  0  0  0
  5  6  1  0  0  0
  6  7  2  0  0  0
  7  8  1  0  0  0
  8 34  1  0  0  0
 34 35  3  0  0  0
  8  9  2  0  0  0
  9 10  1  0  0  0
 28 29  2  0  0  0
 29 30  1  0  0  0
 30 31  1  0  0  0
 30 25  2  0  0  0
 10  1  2  0  0  0
 16 11  1  0  0  0
 10  5  1  0  0  0
 22 23  1  0  0  0
 18 20  1  0  0  0
 18 21  1  0  0  0
M  END
> <minimizedAffinity>
-9.58597

$$$$



 35 38  0  0  0  0  0  0  0  0999 V2000
    0.8645   67.3916   80.7013 C   0  0  0  0  0  0  0  0  0  0  0  0
    0.0142   66.7236   79.8975 N   0  0  0  0  0  0  0  0  0  0  0  0
   -0.4810   65.4973   80.2538 N   0  0  0  0  0  0  0  0  0  0  0  0
   -0.1233   64.9136   81.4168 C   0  0  0  0  0  0  0  0  0  0  0  0
    0.8005   65.5459   82.2779 C   0  0  0  0  0  0  0  0  0  0  0  0
    1.2632   64.9552   83.4799 C   0  0  0  0  0  0  0  0  0  0  0  0
    2.1856   65.5950   84.3098 C   0  0  0  0  0  0  0  0  0  0  0  0
    2.6831   66.8433   83.9532 C   0  0  0  0  0  0  0  0  0  0  0  0
    2.2516   67.4424   82.7651 C   0  0  0  0  0  0  0  0  0  0  0  0
    1.3077   66.8152   81.9106 C   0  0  0  0  0  0  0  0  0  0  0  0
   -0.7021   63.6650   81.7801 N   0  0  0  0  0  0  0  0  0  0  0  0
   -2.1497   63.8451   82.0208 C   0  0  0  0  0  0  0  0  0  0  0  0
   -2.9196   62.5359   81.8258 C   0  0  0  0  0  0  0  0  0  0  0  0
   -2.0781   61.3178   82.2171 C   0  0  0  0  0  0  0  0  0  0  0  0
   -0.7685   61.2656   81.4091 C   0  0  0  0  0  0  0  0  0  0  0  0
   -0.3966   62.6184   80.7978 C   0  0  0  0  0  0  0  0  0  0  0  0
   -2.8689   60.0312   82.0486 C   0  0  0  0  0  0  0  0  0  0  0  0
   -3.4054   59.5300   83.1989 N   0  0  0  0  0  0  0  0  0  0  0  0
   -3.0439   59.4602   80.9792 O   0  0  0  0  0  0  0  0  0  0  0  0
   -3.4587   60.0692   84.0517 H   0  0  0  0  0  0  0  0  0  0  0  0
   -4.0016   58.7169   83.1092 H   0  0  0  0  0  0  0  0  0  0  0  0
    1.3371   68.6680   80.3198 N   0  0  0  0  0  0  0  0  0  0  0  0
    2.1907   68.8707   80.8325 H   0  0  0  0  0  0  0  0  0  0  0  0
    0.3629   69.7412   80.4821 C   0  0  0  0  0  0  0  0  0  0  0  0
    2.1720   72.9171   82.8236 C   0  0  0  0  0  0  0  0  0  0  0  0
    2.7838   71.6623   82.7355 C   0  0  0  0  0  0  0  0  0  0  0  0
    2.2007   70.6353   81.9825 C   0  0  0  0  0  0  0  0  0  0  0  0
    0.9923   70.8415   81.3059 C   0  0  0  0  0  0  0  0  0  0  0  0
    0.3804   72.0997   81.3891 C   0  0  0  0  0  0  0  0  0  0  0  0
    0.9635   73.1252   82.1403 C   0  0  0  0  0  0  0  0  0  0  0  0
    0.1474   74.6498   82.1944 Cl  0  0  0  0  0  0  0  0  0  0  0  0
    3.8966   74.5486   83.0990 C   0  0  0  0  0  0  0  0  0  0  0  0
    2.6713   73.9765   83.5353 O   0  0  0  0  0  0  0  0  0  0  0  0
    3.6361   67.5075   84.7930 C   0  0  0  0  0  0  0  0  0  0  0  0
    4.4087   68.0513   85.4667 N   0  0  0  0  0  0  0  0  0  0  0  0
 32 33  1  0  0  0
 33 25  1  0  0  0
 25 26  1  0  0  0
 26 27  2  0  0  0
 27 28  1  0  0  0
 28 24  1  0  0  0
 24 22  1  0  0  0
 22  1  1  0  0  0
  1  2  1  0  0  0
  2  3  2  0  0  0
  3  4  1  0  0  0
  4 11  1  0  0  0
 11 12  1  0  0  0
 12 13  1  0  0  0
 13 14  1  0  0  0
 14 17  1  0  0  0
 17 18  1  0  0  0
 17 19  2  0  0  0
 14 15  1  0  0  0
 15 16  1  0  0  0
  4  5  2  0  0  0
  5  6  1  0  0  0
  6  7  2  0  0  0
  7  8  1  0  0  0
  8 34  1  0  0  0
 34 35  3  0  0  0
  8  9  2  0  0  0
  9 10  1  0  0  0
 28 29  2  0  0  0
 29 30  1  0  0  0
 30 31  1  0  0  0
 30 25  2  0  0  0
 10  1  2  0  0  0
 16 11  1  0  0  0
 10  5  1  0  0  0
 22 23  1  0  0  0
 18 20  1  0  0  0
 18 21  1  0  0  0
M  END
> <minimizedAffinity>
-9.47588

$$$$
