


 39 42  0  0  0  0  0  0  0  0999 V2000
    3.5449   67.4270   84.1262 C   0  0  0  0  0  0  0  0  0  0  0  0
    4.2421   68.5474   83.6476 C   0  0  0  0  0  0  0  0  0  0  0  0
    3.6615   69.4125   82.7160 C   0  0  0  0  0  0  0  0  0  0  0  0
    2.3751   69.1559   82.2520 C   0  0  0  0  0  0  0  0  0  0  0  0
    1.6655   68.0429   82.7042 C   0  0  0  0  0  0  0  0  0  0  0  0
    2.2387   67.1686   83.6450 C   0  0  0  0  0  0  0  0  0  0  0  0
    1.3903   66.0037   84.0793 C   0  0  0  0  0  0  0  0  0  0  0  0
    0.6635   65.3710   83.2092 N   0  0  0  0  0  0  0  0  0  0  0  0
   -0.0671   64.3370   83.6938 N   0  0  0  0  0  0  0  0  0  0  0  0
   -0.8988   63.5452   82.9372 C   0  0  0  0  0  0  0  0  0  0  0  0
   -1.4780   62.6009   83.7810 C   0  0  0  0  0  0  0  0  0  0  0  0
   -0.9623   62.8487   85.1025 C   0  0  0  0  0  0  0  0  0  0  0  0
   -1.3012   62.0849   86.3379 C   0  0  0  0  0  0  0  0  0  0  0  0
   -0.0975   63.9277   84.9964 C   0  0  0  0  0  0  0  0  0  0  0  0
    0.7023   64.6262   85.9554 C   0  0  0  0  0  0  0  0  0  0  0  0
    0.7707   64.3834   87.1566 O   0  0  0  0  0  0  0  0  0  0  0  0
    1.4273   65.6516   85.4081 N   0  0  0  0  0  0  0  0  0  0  0  0
    1.9960   66.1794   86.0580 H   0  0  0  0  0  0  0  0  0  0  0  0
   -2.4227   61.5849   83.3437 C   0  0  0  0  0  0  0  0  0  0  0  0
   -1.9990   60.5061   82.7705 N   0  0  0  0  0  0  0  0  0  0  0  0
   -3.1011   59.6972   82.4523 O   0  0  0  0  0  0  0  0  0  0  0  0
   -3.1959   59.6098   81.0354 C   0  0  0  0  0  0  0  0  0  0  0  0
   -1.0472   63.7712   81.4607 C   0  0  0  0  0  0  0  0  0  0  0  0
   -0.0104   63.0126   80.6278 C   0  0  0  0  0  0  0  0  0  0  0  0
   -0.6224   61.9648   79.7086 C   0  0  0  0  0  0  0  0  0  0  0  0
    1.6120   70.2440   81.0736 S   0  0  0  0  0  0  0  0  0  0  0  0
    0.6935   69.4370   80.3010 O   0  0  0  0  0  0  0  0  0  0  0  0
    2.6583   71.0106   80.4318 O   0  0  0  0  0  0  0  0  0  0  0  0
    0.7164   71.2934   82.0645 N   0  0  0  0  0  0  0  0  0  0  0  0
    1.3307   72.6173   82.3917 C   0  0  0  0  0  0  0  0  0  0  0  0
    1.0931   73.6709   81.2891 C   0  0  0  0  0  0  0  0  0  0  0  0
   -0.3328   73.8130   80.9320 N   0  0  0  0  0  0  0  0  0  0  0  0
   -0.4961   74.7726   79.8407 C   0  0  0  0  0  0  0  0  0  0  0  0
   -0.8881   72.4975   80.5523 C   0  0  0  0  0  0  0  0  0  0  0  0
   -0.7177   71.4629   81.6787 C   0  0  0  0  0  0  0  0  0  0  0  0
    4.0595   66.5505   85.0458 O   0  0  0  0  0  0  0  0  0  0  0  0
    5.3613   66.7588   85.5988 C   0  0  0  0  0  0  0  0  0  0  0  0
    7.5298   65.8684   84.6377 C   0  0  0  0  0  0  0  0  0  0  0  0
    6.2587   65.5371   85.4076 C   0  0  0  0  0  0  0  0  0  0  0  0
 38 39  1  0  0  0
 39 37  1  0  0  0
 37 36  1  0  0  0
 36  1  1  0  0  0
  1  2  1  0  0  0
  2  3  2  0  0  0
  3  4  1  0  0  0
  4 26  1  0  0  0
 26 27  2  0  0  0
 26 28  2  0  0  0
 26 29  1  0  0  0
 29 30  1  0  0  0
 30 31  1  0  0  0
 31 32  1  0  0  0
 32 33  1  0  0  0
 32 34  1  0  0  0
 34 35  1  0  0  0
  4  5  2  0  0  0
  5  6  1  0  0  0
  6  7  1  0  0  0
  7  8  2  0  0  0
  8  9  1  0  0  0
  9 10  1  0  0  0
 10 23  1  0  0  0
 23 24  1  0  0  0
 24 25  1  0  0  0
 10 11  2  0  0  0
 11 19  1  0  0  0
 19 20  2  0  0  0
 20 21  1  0  0  0
 21 22  1  0  0  0
 11 12  1  0  0  0
 12 13  1  0  0  0
 12 14  2  0  0  0
 14 15  1  0  0  0
 15 16  2  0  0  0
 15 17  1  0  0  0
  6  1  2  0  0  0
 17  7  1  0  0  0
 35 29  1  0  0  0
 14  9  1  0  0  0
 17 18  1  0  0  0
M  END
> <minimizedAffinity>
-10.13493

$$$$



 39 42  0  0  0  0  0  0  0  0999 V2000
    1.0239   65.0917   84.3558 C   0  0  0  0  0  0  0  0  0  0  0  0
    1.6977   66.2669   84.7238 C   0  0  0  0  0  0  0  0  0  0  0  0
    1.8577   67.3186   83.8175 C   0  0  0  0  0  0  0  0  0  0  0  0
    1.3462   67.1965   82.5293 C   0  0  0  0  0  0  0  0  0  0  0  0
    0.6821   66.0342   82.1358 C   0  0  0  0  0  0  0  0  0  0  0  0
    0.5115   64.9718   83.0414 C   0  0  0  0  0  0  0  0  0  0  0  0
   -0.2278   63.7660   82.5265 C   0  0  0  0  0  0  0  0  0  0  0  0
   -0.0939   63.4040   81.2869 N   0  0  0  0  0  0  0  0  0  0  0  0
   -0.7992   62.3076   80.9150 N   0  0  0  0  0  0  0  0  0  0  0  0
   -0.7939   61.7666   79.6507 C   0  0  0  0  0  0  0  0  0  0  0  0
   -1.6385   60.6594   79.6535 C   0  0  0  0  0  0  0  0  0  0  0  0
   -2.1694   60.5419   80.9869 C   0  0  0  0  0  0  0  0  0  0  0  0
   -3.1228   59.5001   81.4668 C   0  0  0  0  0  0  0  0  0  0  0  0
   -1.6223   61.5799   81.7262 C   0  0  0  0  0  0  0  0  0  0  0  0
   -1.7710   61.9802   83.0918 C   0  0  0  0  0  0  0  0  0  0  0  0
   -2.4791   61.4357   83.9337 O   0  0  0  0  0  0  0  0  0  0  0  0
   -1.0272   63.0845   83.4139 N   0  0  0  0  0  0  0  0  0  0  0  0
   -1.1164   63.4073   84.3690 H   0  0  0  0  0  0  0  0  0  0  0  0
   -1.8945   59.8243   78.4904 C   0  0  0  0  0  0  0  0  0  0  0  0
   -2.9856   59.9701   77.8121 N   0  0  0  0  0  0  0  0  0  0  0  0
   -2.9862   59.0539   76.7488 O   0  0  0  0  0  0  0  0  0  0  0  0
   -1.6353   58.7655   76.4078 C   0  0  0  0  0  0  0  0  0  0  0  0
    0.0397   62.3683   78.5570 C   0  0  0  0  0  0  0  0  0  0  0  0
   -0.6059   63.5993   77.9152 C   0  0  0  0  0  0  0  0  0  0  0  0
    0.2887   64.8308   77.9344 C   0  0  0  0  0  0  0  0  0  0  0  0
    1.5299   68.5216   81.3608 S   0  0  0  0  0  0  0  0  0  0  0  0
    0.2603   69.2128   81.3175 O   0  0  0  0  0  0  0  0  0  0  0  0
    2.1286   67.9779   80.1607 O   0  0  0  0  0  0  0  0  0  0  0  0
    2.6729   69.5256   82.1165 N   0  0  0  0  0  0  0  0  0  0  0  0
    3.8048   70.0273   81.2773 C   0  0  0  0  0  0  0  0  0  0  0  0
    3.4308   71.2872   80.4678 C   0  0  0  0  0  0  0  0  0  0  0  0
    2.8682   72.3617   81.3102 N   0  0  0  0  0  0  0  0  0  0  0  0
    2.4707   73.5041   80.4885 C   0  0  0  0  0  0  0  0  0  0  0  0
    1.7132   71.8468   82.0745 C   0  0  0  0  0  0  0  0  0  0  0  0
    2.0999   70.6341   82.9393 C   0  0  0  0  0  0  0  0  0  0  0  0
    0.8289   64.0329   85.2042 O   0  0  0  0  0  0  0  0  0  0  0  0
    0.3474   64.2461   86.5333 C   0  0  0  0  0  0  0  0  0  0  0  0
   -1.0830   63.3175   88.4069 C   0  0  0  0  0  0  0  0  0  0  0  0
   -0.4924   63.0685   87.0259 C   0  0  0  0  0  0  0  0  0  0  0  0
 38 39  1  0  0  0
 39 37  1  0  0  0
 37 36  1  0  0  0
 36  1  1  0  0  0
  1  2  1  0  0  0
  2  3  2  0  0  0
  3  4  1  0  0  0
  4 26  1  0  0  0
 26 27  2  0  0  0
 26 28  2  0  0  0
 26 29  1  0  0  0
 29 30  1  0  0  0
 30 31  1  0  0  0
 31 32  1  0  0  0
 32 33  1  0  0  0
 32 34  1  0  0  0
 34 35  1  0  0  0
  4  5  2  0  0  0
  5  6  1  0  0  0
  6  7  1  0  0  0
  7  8  2  0  0  0
  8  9  1  0  0  0
  9 10  1  0  0  0
 10 23  1  0  0  0
 23 24  1  0  0  0
 24 25  1  0  0  0
 10 11  2  0  0  0
 11 19  1  0  0  0
 19 20  2  0  0  0
 20 21  1  0  0  0
 21 22  1  0  0  0
 11 12  1  0  0  0
 12 13  1  0  0  0
 12 14  2  0  0  0
 14 15  1  0  0  0
 15 16  2  0  0  0
 15 17  1  0  0  0
  6  1  2  0  0  0
 17  7  1  0  0  0
 35 29  1  0  0  0
 14  9  1  0  0  0
 17 18  1  0  0  0
M  END
> <minimizedAffinity>
-9.61321

$$$$



 39 42  0  0  0  0  0  0  0  0999 V2000
   -0.3565   63.2082   84.9901 C   0  0  0  0  0  0  0  0  0  0  0  0
   -1.3484   62.2271   84.8346 C   0  0  0  0  0  0  0  0  0  0  0  0
   -1.9465   61.9990   83.5923 C   0  0  0  0  0  0  0  0  0  0  0  0
   -1.5567   62.7597   82.4944 C   0  0  0  0  0  0  0  0  0  0  0  0
   -0.5808   63.7482   82.6254 C   0  0  0  0  0  0  0  0  0  0  0  0
    0.0307   63.9828   83.8701 C   0  0  0  0  0  0  0  0  0  0  0  0
    1.0794   65.0619   83.9073 C   0  0  0  0  0  0  0  0  0  0  0  0
    0.9451   66.1222   83.1703 N   0  0  0  0  0  0  0  0  0  0  0  0
    1.9398   67.0377   83.2701 N   0  0  0  0  0  0  0  0  0  0  0  0
    1.9844   68.2227   82.5737 C   0  0  0  0  0  0  0  0  0  0  0  0
    3.1533   68.8888   82.9331 C   0  0  0  0  0  0  0  0  0  0  0  0
    3.8330   68.0539   83.8895 C   0  0  0  0  0  0  0  0  0  0  0  0
    5.1325   68.3563   84.5562 C   0  0  0  0  0  0  0  0  0  0  0  0
    3.0456   66.9257   84.0638 C   0  0  0  0  0  0  0  0  0  0  0  0
    3.1942   65.7562   84.8746 C   0  0  0  0  0  0  0  0  0  0  0  0
    4.1329   65.5098   85.6261 O   0  0  0  0  0  0  0  0  0  0  0  0
    2.1553   64.8731   84.7426 N   0  0  0  0  0  0  0  0  0  0  0  0
    2.2307   64.0256   85.2906 H   0  0  0  0  0  0  0  0  0  0  0  0
    3.5536   70.1817   82.4003 C   0  0  0  0  0  0  0  0  0  0  0  0
    2.9805   71.2631   82.8176 N   0  0  0  0  0  0  0  0  0  0  0  0
    3.5465   72.3630   82.1541 O   0  0  0  0  0  0  0  0  0  0  0  0
    3.1102   73.5499   82.8061 C   0  0  0  0  0  0  0  0  0  0  0  0
    0.8816   68.6055   81.6300 C   0  0  0  0  0  0  0  0  0  0  0  0
    1.2885   68.5091   80.1571 C   0  0  0  0  0  0  0  0  0  0  0  0
    1.6521   67.0966   79.7213 C   0  0  0  0  0  0  0  0  0  0  0  0
   -2.2962   62.4844   80.9031 S   0  0  0  0  0  0  0  0  0  0  0  0
   -1.6210   63.3655   79.9761 O   0  0  0  0  0  0  0  0  0  0  0  0
   -3.7336   62.5271   81.0660 O   0  0  0  0  0  0  0  0  0  0  0  0
   -1.8482   60.8825   80.5589 N   0  0  0  0  0  0  0  0  0  0  0  0
   -2.9494   59.8847   80.3894 C   0  0  0  0  0  0  0  0  0  0  0  0
   -3.5375   59.8859   78.9623 C   0  0  0  0  0  0  0  0  0  0  0  0
   -2.5046   59.7297   77.9184 N   0  0  0  0  0  0  0  0  0  0  0  0
   -3.1044   59.8032   76.5868 C   0  0  0  0  0  0  0  0  0  0  0  0
   -1.4689   60.7713   78.0780 C   0  0  0  0  0  0  0  0  0  0  0  0
   -0.8289   60.7259   79.4768 C   0  0  0  0  0  0  0  0  0  0  0  0
    0.2709   63.4692   86.1805 O   0  0  0  0  0  0  0  0  0  0  0  0
   -0.4282   64.1241   87.2419 C   0  0  0  0  0  0  0  0  0  0  0  0
    0.3454   62.5490   89.0693 C   0  0  0  0  0  0  0  0  0  0  0  0
   -0.8487   63.1407   88.3329 C   0  0  0  0  0  0  0  0  0  0  0  0
 38 39  1  0  0  0
 39 37  1  0  0  0
 37 36  1  0  0  0
 36  1  1  0  0  0
  1  2  1  0  0  0
  2  3  2  0  0  0
  3  4  1  0  0  0
  4 26  1  0  0  0
 26 27  2  0  0  0
 26 28  2  0  0  0
 26 29  1  0  0  0
 29 30  1  0  0  0
 30 31  1  0  0  0
 31 32  1  0  0  0
 32 33  1  0  0  0
 32 34  1  0  0  0
 34 35  1  0  0  0
  4  5  2  0  0  0
  5  6  1  0  0  0
  6  7  1  0  0  0
  7  8  2  0  0  0
  8  9  1  0  0  0
  9 10  1  0  0  0
 10 23  1  0  0  0
 23 24  1  0  0  0
 24 25  1  0  0  0
 10 11  2  0  0  0
 11 19  1  0  0  0
 19 20  2  0  0  0
 20 21  1  0  0  0
 21 22  1  0  0  0
 11 12  1  0  0  0
 12 13  1  0  0  0
 12 14  2  0  0  0
 14 15  1  0  0  0
 15 16  2  0  0  0
 15 17  1  0  0  0
  6  1  2  0  0  0
 17  7  1  0  0  0
 35 29  1  0  0  0
 14  9  1  0  0  0
 17 18  1  0  0  0
M  END
> <minimizedAffinity>
-9.53808

$$$$



 39 42  0  0  0  0  0  0  0  0999 V2000
   -0.4914   63.5925   85.3365 C   0  0  0  0  0  0  0  0  0  0  0  0
   -1.4249   62.5447   85.3003 C   0  0  0  0  0  0  0  0  0  0  0  0
   -1.6589   61.8297   84.1225 C   0  0  0  0  0  0  0  0  0  0  0  0
   -0.9600   62.1653   82.9672 C   0  0  0  0  0  0  0  0  0  0  0  0
   -0.0348   63.2097   82.9746 C   0  0  0  0  0  0  0  0  0  0  0  0
    0.2116   63.9326   84.1556 C   0  0  0  0  0  0  0  0  0  0  0  0
    1.2350   65.0326   84.0653 C   0  0  0  0  0  0  0  0  0  0  0  0
    1.0359   66.0398   83.2707 N   0  0  0  0  0  0  0  0  0  0  0  0
    2.0127   66.9797   83.2562 N   0  0  0  0  0  0  0  0  0  0  0  0
    1.9914   68.1175   82.4841 C   0  0  0  0  0  0  0  0  0  0  0  0
    3.1620   68.8288   82.7345 C   0  0  0  0  0  0  0  0  0  0  0  0
    3.9122   68.0718   83.7030 C   0  0  0  0  0  0  0  0  0  0  0  0
    5.2385   68.4429   84.2755 C   0  0  0  0  0  0  0  0  0  0  0  0
    3.1623   66.9417   83.9926 C   0  0  0  0  0  0  0  0  0  0  0  0
    3.3822   65.8307   84.8670 C   0  0  0  0  0  0  0  0  0  0  0  0
    4.3660   65.6526   85.5791 O   0  0  0  0  0  0  0  0  0  0  0  0
    2.3589   64.9203   84.8497 N   0  0  0  0  0  0  0  0  0  0  0  0
    2.4839   64.1119   85.4457 H   0  0  0  0  0  0  0  0  0  0  0  0
    3.5022   70.0921   82.0988 C   0  0  0  0  0  0  0  0  0  0  0  0
    4.0777   70.1035   80.9410 N   0  0  0  0  0  0  0  0  0  0  0  0
    4.2929   71.4353   80.5531 O   0  0  0  0  0  0  0  0  0  0  0  0
    3.3770   72.2603   81.2635 C   0  0  0  0  0  0  0  0  0  0  0  0
    0.8303   68.4158   81.5808 C   0  0  0  0  0  0  0  0  0  0  0  0
    1.1546   68.2182   80.0976 C   0  0  0  0  0  0  0  0  0  0  0  0
    1.7636   66.8579   79.7876 C   0  0  0  0  0  0  0  0  0  0  0  0
   -1.2338   61.2673   81.4593 S   0  0  0  0  0  0  0  0  0  0  0  0
   -2.0687   60.1361   81.7982 O   0  0  0  0  0  0  0  0  0  0  0  0
    0.0467   61.0857   80.8098 O   0  0  0  0  0  0  0  0  0  0  0  0
   -2.1466   62.3630   80.5365 N   0  0  0  0  0  0  0  0  0  0  0  0
   -1.5411   62.8543   79.2602 C   0  0  0  0  0  0  0  0  0  0  0  0
   -1.7660   61.8816   78.0831 C   0  0  0  0  0  0  0  0  0  0  0  0
   -3.1871   61.5232   77.9014 N   0  0  0  0  0  0  0  0  0  0  0  0
   -3.3377   60.5516   76.8189 C   0  0  0  0  0  0  0  0  0  0  0  0
   -3.7329   60.9815   79.1631 C   0  0  0  0  0  0  0  0  0  0  0  0
   -3.5756   61.9792   80.3242 C   0  0  0  0  0  0  0  0  0  0  0  0
   -0.2140   64.3214   86.4637 O   0  0  0  0  0  0  0  0  0  0  0  0
    0.5611   63.7546   87.5228 C   0  0  0  0  0  0  0  0  0  0  0  0
    0.2611   62.0920   89.4108 C   0  0  0  0  0  0  0  0  0  0  0  0
   -0.3188   63.2987   88.6857 C   0  0  0  0  0  0  0  0  0  0  0  0
 38 39  1  0  0  0
 39 37  1  0  0  0
 37 36  1  0  0  0
 36  1  1  0  0  0
  1  2  1  0  0  0
  2  3  2  0  0  0
  3  4  1  0  0  0
  4 26  1  0  0  0
 26 27  2  0  0  0
 26 28  2  0  0  0
 26 29  1  0  0  0
 29 30  1  0  0  0
 30 31  1  0  0  0
 31 32  1  0  0  0
 32 33  1  0  0  0
 32 34  1  0  0  0
 34 35  1  0  0  0
  4  5  2  0  0  0
  5  6  1  0  0  0
  6  7  1  0  0  0
  7  8  2  0  0  0
  8  9  1  0  0  0
  9 10  1  0  0  0
 10 23  1  0  0  0
 23 24  1  0  0  0
 24 25  1  0  0  0
 10 11  2  0  0  0
 11 19  1  0  0  0
 19 20  2  0  0  0
 20 21  1  0  0  0
 21 22  1  0  0  0
 11 12  1  0  0  0
 12 13  1  0  0  0
 12 14  2  0  0  0
 14 15  1  0  0  0
 15 16  2  0  0  0
 15 17  1  0  0  0
  6  1  2  0  0  0
 17  7  1  0  0  0
 35 29  1  0  0  0
 14  9  1  0  0  0
 17 18  1  0  0  0
M  END
> <minimizedAffinity>
-9.45338

$$$$



 39 42  0  0  0  0  0  0  0  0999 V2000
    3.1181   67.0214   84.0873 C   0  0  0  0  0  0  0  0  0  0  0  0
    3.8886   68.1938   84.1344 C   0  0  0  0  0  0  0  0  0  0  0  0
    3.5261   69.3235   83.3957 C   0  0  0  0  0  0  0  0  0  0  0  0
    2.3872   69.2833   82.5974 C   0  0  0  0  0  0  0  0  0  0  0  0
    1.6107   68.1264   82.5251 C   0  0  0  0  0  0  0  0  0  0  0  0
    1.9640   66.9856   83.2680 C   0  0  0  0  0  0  0  0  0  0  0  0
    1.0575   65.7917   83.1322 C   0  0  0  0  0  0  0  0  0  0  0  0
    0.6847   65.3913   81.9548 N   0  0  0  0  0  0  0  0  0  0  0  0
   -0.1320   64.3095   81.9328 N   0  0  0  0  0  0  0  0  0  0  0  0
   -0.6364   63.7340   80.7902 C   0  0  0  0  0  0  0  0  0  0  0  0
   -1.4336   62.6564   81.1676 C   0  0  0  0  0  0  0  0  0  0  0  0
   -1.3982   62.5936   82.6059 C   0  0  0  0  0  0  0  0  0  0  0  0
   -2.1060   61.5982   83.4618 C   0  0  0  0  0  0  0  0  0  0  0  0
   -0.5832   63.6326   83.0298 C   0  0  0  0  0  0  0  0  0  0  0  0
   -0.1736   64.0751   84.3273 C   0  0  0  0  0  0  0  0  0  0  0  0
   -0.5033   63.5782   85.4001 O   0  0  0  0  0  0  0  0  0  0  0  0
    0.6591   65.1622   84.2881 N   0  0  0  0  0  0  0  0  0  0  0  0
    0.9601   65.5141   85.1880 H   0  0  0  0  0  0  0  0  0  0  0  0
   -2.1440   61.7986   80.2321 C   0  0  0  0  0  0  0  0  0  0  0  0
   -1.6104   60.6913   79.8306 N   0  0  0  0  0  0  0  0  0  0  0  0
   -2.4935   60.0563   78.9433 O   0  0  0  0  0  0  0  0  0  0  0  0
   -3.8242   60.3465   79.3544 C   0  0  0  0  0  0  0  0  0  0  0  0
   -0.2894   64.2768   79.4344 C   0  0  0  0  0  0  0  0  0  0  0  0
    0.7755   63.4500   78.7088 C   0  0  0  0  0  0  0  0  0  0  0  0
    0.2398   62.7074   77.4927 C   0  0  0  0  0  0  0  0  0  0  0  0
    1.9008   70.7079   81.6546 S   0  0  0  0  0  0  0  0  0  0  0  0
    0.5520   71.0325   82.0632 O   0  0  0  0  0  0  0  0  0  0  0  0
    2.2231   70.4552   80.2666 O   0  0  0  0  0  0  0  0  0  0  0  0
    2.9512   71.9109   82.2332 N   0  0  0  0  0  0  0  0  0  0  0  0
    3.7925   72.6280   81.2257 C   0  0  0  0  0  0  0  0  0  0  0  0
    3.0430   73.7954   80.5491 C   0  0  0  0  0  0  0  0  0  0  0  0
    2.4513   74.7352   81.5225 N   0  0  0  0  0  0  0  0  0  0  0  0
    1.6992   75.7830   80.8334 C   0  0  0  0  0  0  0  0  0  0  0  0
    1.5764   74.0013   82.4601 C   0  0  0  0  0  0  0  0  0  0  0  0
    2.3395   72.8822   83.1906 C   0  0  0  0  0  0  0  0  0  0  0  0
    3.4194   65.8878   84.7965 O   0  0  0  0  0  0  0  0  0  0  0  0
    4.7412   65.6744   85.2979 C   0  0  0  0  0  0  0  0  0  0  0  0
    5.8429   65.5124   87.5736 C   0  0  0  0  0  0  0  0  0  0  0  0
    4.7233   65.0087   86.6730 C   0  0  0  0  0  0  0  0  0  0  0  0
 38 39  1  0  0  0
 39 37  1  0  0  0
 37 36  1  0  0  0
 36  1  1  0  0  0
  1  2  1  0  0  0
  2  3  2  0  0  0
  3  4  1  0  0  0
  4 26  1  0  0  0
 26 27  2  0  0  0
 26 28  2  0  0  0
 26 29  1  0  0  0
 29 30  1  0  0  0
 30 31  1  0  0  0
 31 32  1  0  0  0
 32 33  1  0  0  0
 32 34  1  0  0  0
 34 35  1  0  0  0
  4  5  2  0  0  0
  5  6  1  0  0  0
  6  7  1  0  0  0
  7  8  2  0  0  0
  8  9  1  0  0  0
  9 10  1  0  0  0
 10 23  1  0  0  0
 23 24  1  0  0  0
 24 25  1  0  0  0
 10 11  2  0  0  0
 11 19  1  0  0  0
 19 20  2  0  0  0
 20 21  1  0  0  0
 21 22  1  0  0  0
 11 12  1  0  0  0
 12 13  1  0  0  0
 12 14  2  0  0  0
 14 15  1  0  0  0
 15 16  2  0  0  0
 15 17  1  0  0  0
  6  1  2  0  0  0
 17  7  1  0  0  0
 35 29  1  0  0  0
 14  9  1  0  0  0
 17 18  1  0  0  0
M  END
> <minimizedAffinity>
-9.17750

$$$$



 39 42  0  0  0  0  0  0  0  0999 V2000
   -0.0853   64.2758   84.2721 C   0  0  0  0  0  0  0  0  0  0  0  0
    0.3777   64.7171   85.5217 C   0  0  0  0  0  0  0  0  0  0  0  0
    1.4533   65.6042   85.6184 C   0  0  0  0  0  0  0  0  0  0  0  0
    2.0779   66.0523   84.4587 C   0  0  0  0  0  0  0  0  0  0  0  0
    1.6435   65.6199   83.2052 C   0  0  0  0  0  0  0  0  0  0  0  0
    0.5591   64.7309   83.0965 C   0  0  0  0  0  0  0  0  0  0  0  0
    0.1583   64.3321   81.7016 C   0  0  0  0  0  0  0  0  0  0  0  0
   -0.2933   63.1364   81.4736 N   0  0  0  0  0  0  0  0  0  0  0  0
   -0.6274   62.8693   80.1872 N   0  0  0  0  0  0  0  0  0  0  0  0
   -1.1213   61.6657   79.7417 C   0  0  0  0  0  0  0  0  0  0  0  0
   -1.3375   61.7711   78.3701 C   0  0  0  0  0  0  0  0  0  0  0  0
   -0.9508   63.1043   77.9870 C   0  0  0  0  0  0  0  0  0  0  0  0
   -1.0070   63.6767   76.6109 C   0  0  0  0  0  0  0  0  0  0  0  0
   -0.5206   63.7412   79.1415 C   0  0  0  0  0  0  0  0  0  0  0  0
   -0.0213   65.0583   79.3927 C   0  0  0  0  0  0  0  0  0  0  0  0
    0.1407   65.9434   78.5580 O   0  0  0  0  0  0  0  0  0  0  0  0
    0.2880   65.2754   80.7095 N   0  0  0  0  0  0  0  0  0  0  0  0
    0.6579   66.1924   80.9253 H   0  0  0  0  0  0  0  0  0  0  0  0
   -1.8556   60.6951   77.5396 C   0  0  0  0  0  0  0  0  0  0  0  0
   -3.1270   60.5902   77.3291 N   0  0  0  0  0  0  0  0  0  0  0  0
   -3.3611   59.4810   76.5013 O   0  0  0  0  0  0  0  0  0  0  0  0
   -2.1551   58.7319   76.4078 C   0  0  0  0  0  0  0  0  0  0  0  0
   -1.3486   60.5254   80.6911 C   0  0  0  0  0  0  0  0  0  0  0  0
   -2.8286   60.2849   81.0005 C   0  0  0  0  0  0  0  0  0  0  0  0
   -3.6563   61.5622   81.0270 C   0  0  0  0  0  0  0  0  0  0  0  0
    3.4422   67.1856   84.5541 S   0  0  0  0  0  0  0  0  0  0  0  0
    2.9042   68.4401   85.0323 O   0  0  0  0  0  0  0  0  0  0  0  0
    4.1725   67.1102   83.3070 O   0  0  0  0  0  0  0  0  0  0  0  0
    4.4054   66.5034   85.7756 N   0  0  0  0  0  0  0  0  0  0  0  0
    5.1708   65.2650   85.4328 C   0  0  0  0  0  0  0  0  0  0  0  0
    6.5113   65.5704   84.7312 C   0  0  0  0  0  0  0  0  0  0  0  0
    7.3459   66.5273   85.4853 N   0  0  0  0  0  0  0  0  0  0  0  0
    8.5715   66.8324   84.7482 C   0  0  0  0  0  0  0  0  0  0  0  0
    6.5791   67.7625   85.7488 C   0  0  0  0  0  0  0  0  0  0  0  0
    5.2758   67.4694   86.5128 C   0  0  0  0  0  0  0  0  0  0  0  0
   -1.1404   63.4148   84.1161 O   0  0  0  0  0  0  0  0  0  0  0  0
   -1.2750   62.2699   84.9617 C   0  0  0  0  0  0  0  0  0  0  0  0
   -2.7533   62.9954   86.8872 C   0  0  0  0  0  0  0  0  0  0  0  0
   -2.6635   62.1953   85.5949 C   0  0  0  0  0  0  0  0  0  0  0  0
 38 39  1  0  0  0
 39 37  1  0  0  0
 37 36  1  0  0  0
 36  1  1  0  0  0
  1  2  1  0  0  0
  2  3  2  0  0  0
  3  4  1  0  0  0
  4 26  1  0  0  0
 26 27  2  0  0  0
 26 28  2  0  0  0
 26 29  1  0  0  0
 29 30  1  0  0  0
 30 31  1  0  0  0
 31 32  1  0  0  0
 32 33  1  0  0  0
 32 34  1  0  0  0
 34 35  1  0  0  0
  4  5  2  0  0  0
  5  6  1  0  0  0
  6  7  1  0  0  0
  7  8  2  0  0  0
  8  9  1  0  0  0
  9 10  1  0  0  0
 10 23  1  0  0  0
 23 24  1  0  0  0
 24 25  1  0  0  0
 10 11  2  0  0  0
 11 19  1  0  0  0
 19 20  2  0  0  0
 20 21  1  0  0  0
 21 22  1  0  0  0
 11 12  1  0  0  0
 12 13  1  0  0  0
 12 14  2  0  0  0
 14 15  1  0  0  0
 15 16  2  0  0  0
 15 17  1  0  0  0
  6  1  2  0  0  0
 17  7  1  0  0  0
 35 29  1  0  0  0
 14  9  1  0  0  0
 17 18  1  0  0  0
M  END
> <minimizedAffinity>
-8.95583

$$$$



 39 42  0  0  0  0  0  0  0  0999 V2000
    4.0114   66.6676   84.4699 C   0  0  0  0  0  0  0  0  0  0  0  0
    4.8538   67.7390   84.1340 C   0  0  0  0  0  0  0  0  0  0  0  0
    4.3450   68.8933   83.5323 C   0  0  0  0  0  0  0  0  0  0  0  0
    2.9838   68.9792   83.2573 C   0  0  0  0  0  0  0  0  0  0  0  0
    2.1274   67.9235   83.5716 C   0  0  0  0  0  0  0  0  0  0  0  0
    2.6284   66.7593   84.1814 C   0  0  0  0  0  0  0  0  0  0  0  0
    1.6244   65.6817   84.4917 C   0  0  0  0  0  0  0  0  0  0  0  0
    1.0803   65.0052   83.5263 N   0  0  0  0  0  0  0  0  0  0  0  0
    0.1877   64.0569   83.9030 N   0  0  0  0  0  0  0  0  0  0  0  0
   -0.4956   63.2378   83.0350 C   0  0  0  0  0  0  0  0  0  0  0  0
   -1.3194   62.4052   83.7882 C   0  0  0  0  0  0  0  0  0  0  0  0
   -1.1121   62.7514   85.1706 C   0  0  0  0  0  0  0  0  0  0  0  0
   -1.7823   62.1238   86.3459 C   0  0  0  0  0  0  0  0  0  0  0  0
   -0.1749   63.7736   85.1888 C   0  0  0  0  0  0  0  0  0  0  0  0
    0.4236   64.5205   86.2524 C   0  0  0  0  0  0  0  0  0  0  0  0
    0.1919   64.3885   87.4505 O   0  0  0  0  0  0  0  0  0  0  0  0
    1.3249   65.4545   85.8144 N   0  0  0  0  0  0  0  0  0  0  0  0
    1.7601   66.0135   86.5372 H   0  0  0  0  0  0  0  0  0  0  0  0
   -2.2024   61.3986   83.2202 C   0  0  0  0  0  0  0  0  0  0  0  0
   -2.9432   61.6841   82.1996 N   0  0  0  0  0  0  0  0  0  0  0  0
   -3.6915   60.5495   81.8490 O   0  0  0  0  0  0  0  0  0  0  0  0
   -3.1239   59.9871   80.6719 C   0  0  0  0  0  0  0  0  0  0  0  0
   -0.2781   63.3310   81.5527 C   0  0  0  0  0  0  0  0  0  0  0  0
    0.4300   62.1052   80.9694 C   0  0  0  0  0  0  0  0  0  0  0  0
    0.5394   62.1353   79.4514 C   0  0  0  0  0  0  0  0  0  0  0  0
    2.3111   70.4382   82.4999 S   0  0  0  0  0  0  0  0  0  0  0  0
    3.3073   71.4763   82.6466 O   0  0  0  0  0  0  0  0  0  0  0  0
    0.9635   70.6173   82.9962 O   0  0  0  0  0  0  0  0  0  0  0  0
    2.2196   69.9965   80.8623 N   0  0  0  0  0  0  0  0  0  0  0  0
    2.6812   68.6215   80.4970 C   0  0  0  0  0  0  0  0  0  0  0  0
    1.5882   67.5524   80.7086 C   0  0  0  0  0  0  0  0  0  0  0  0
    0.3192   67.8910   80.0333 N   0  0  0  0  0  0  0  0  0  0  0  0
   -0.6999   66.8819   80.3186 C   0  0  0  0  0  0  0  0  0  0  0  0
   -0.1390   69.2269   80.4677 C   0  0  0  0  0  0  0  0  0  0  0  0
    0.9207   70.3080   80.1913 C   0  0  0  0  0  0  0  0  0  0  0  0
    4.4523   65.5163   85.0692 O   0  0  0  0  0  0  0  0  0  0  0  0
    5.8447   65.3179   85.3252 C   0  0  0  0  0  0  0  0  0  0  0  0
    5.1250   65.2338   87.7529 C   0  0  0  0  0  0  0  0  0  0  0  0
    6.2077   65.6577   86.7699 C   0  0  0  0  0  0  0  0  0  0  0  0
 38 39  1  0  0  0
 39 37  1  0  0  0
 37 36  1  0  0  0
 36  1  1  0  0  0
  1  2  1  0  0  0
  2  3  2  0  0  0
  3  4  1  0  0  0
  4 26  1  0  0  0
 26 27  2  0  0  0
 26 28  2  0  0  0
 26 29  1  0  0  0
 29 30  1  0  0  0
 30 31  1  0  0  0
 31 32  1  0  0  0
 32 33  1  0  0  0
 32 34  1  0  0  0
 34 35  1  0  0  0
  4  5  2  0  0  0
  5  6  1  0  0  0
  6  7  1  0  0  0
  7  8  2  0  0  0
  8  9  1  0  0  0
  9 10  1  0  0  0
 10 23  1  0  0  0
 23 24  1  0  0  0
 24 25  1  0  0  0
 10 11  2  0  0  0
 11 19  1  0  0  0
 19 20  2  0  0  0
 20 21  1  0  0  0
 21 22  1  0  0  0
 11 12  1  0  0  0
 12 13  1  0  0  0
 12 14  2  0  0  0
 14 15  1  0  0  0
 15 16  2  0  0  0
 15 17  1  0  0  0
  6  1  2  0  0  0
 17  7  1  0  0  0
 35 29  1  0  0  0
 14  9  1  0  0  0
 17 18  1  0  0  0
M  END
> <minimizedAffinity>
-8.89732

$$$$



 39 42  0  0  0  0  0  0  0  0999 V2000
   -0.3966   65.4104   78.6862 C   0  0  0  0  0  0  0  0  0  0  0  0
   -0.9071   65.0459   77.4304 C   0  0  0  0  0  0  0  0  0  0  0  0
   -1.2855   63.7275   77.1623 C   0  0  0  0  0  0  0  0  0  0  0  0
   -1.1488   62.7608   78.1536 C   0  0  0  0  0  0  0  0  0  0  0  0
   -0.6339   63.0956   79.4064 C   0  0  0  0  0  0  0  0  0  0  0  0
   -0.2545   64.4203   79.6881 C   0  0  0  0  0  0  0  0  0  0  0  0
    0.2787   64.6838   81.0707 C   0  0  0  0  0  0  0  0  0  0  0  0
   -0.1313   63.9656   82.0715 N   0  0  0  0  0  0  0  0  0  0  0  0
    0.4039   64.2773   83.2774 N   0  0  0  0  0  0  0  0  0  0  0  0
    0.0998   63.6378   84.4563 C   0  0  0  0  0  0  0  0  0  0  0  0
    0.8377   64.2379   85.4735 C   0  0  0  0  0  0  0  0  0  0  0  0
    1.6160   65.2849   84.8636 C   0  0  0  0  0  0  0  0  0  0  0  0
    2.5607   66.2023   85.5640 C   0  0  0  0  0  0  0  0  0  0  0  0
    1.3138   65.2688   83.5102 C   0  0  0  0  0  0  0  0  0  0  0  0
    1.7641   66.0613   82.4073 C   0  0  0  0  0  0  0  0  0  0  0  0
    2.5658   66.9892   82.4612 O   0  0  0  0  0  0  0  0  0  0  0  0
    1.2003   65.6944   81.2140 N   0  0  0  0  0  0  0  0  0  0  0  0
    1.4837   66.2413   80.4110 H   0  0  0  0  0  0  0  0  0  0  0  0
    0.7819   63.8353   86.8701 C   0  0  0  0  0  0  0  0  0  0  0  0
   -0.0013   64.4514   87.6940 N   0  0  0  0  0  0  0  0  0  0  0  0
    0.1304   63.8725   88.9660 O   0  0  0  0  0  0  0  0  0  0  0  0
    0.1741   62.4590   88.8103 C   0  0  0  0  0  0  0  0  0  0  0  0
   -0.8723   62.4945   84.4860 C   0  0  0  0  0  0  0  0  0  0  0  0
   -2.2723   62.9059   84.9495 C   0  0  0  0  0  0  0  0  0  0  0  0
   -2.6587   62.3201   86.3004 C   0  0  0  0  0  0  0  0  0  0  0  0
   -1.6292   61.0796   77.8407 S   0  0  0  0  0  0  0  0  0  0  0  0
   -0.7680   60.2466   78.6507 O   0  0  0  0  0  0  0  0  0  0  0  0
   -1.7137   60.8996   76.4073 O   0  0  0  0  0  0  0  0  0  0  0  0
   -3.2029   61.0198   78.4771 N   0  0  0  0  0  0  0  0  0  0  0  0
   -3.7191   59.6821   78.9028 C   0  0  0  0  0  0  0  0  0  0  0  0
   -3.2710   59.2992   80.3294 C   0  0  0  0  0  0  0  0  0  0  0  0
   -3.5886   60.3408   81.3270 N   0  0  0  0  0  0  0  0  0  0  0  0
   -3.0862   59.9590   82.6462 C   0  0  0  0  0  0  0  0  0  0  0  0
   -3.0078   61.6324   80.9056 C   0  0  0  0  0  0  0  0  0  0  0  0
   -3.5095   62.0529   79.5129 C   0  0  0  0  0  0  0  0  0  0  0  0
   -0.0187   66.6880   79.0085 O   0  0  0  0  0  0  0  0  0  0  0  0
   -0.9861   67.6406   79.4564 C   0  0  0  0  0  0  0  0  0  0  0  0
    1.1415   68.9526   79.8699 C   0  0  0  0  0  0  0  0  0  0  0  0
   -0.3332   68.7953   80.2146 C   0  0  0  0  0  0  0  0  0  0  0  0
 38 39  1  0  0  0
 39 37  1  0  0  0
 37 36  1  0  0  0
 36  1  1  0  0  0
  1  2  1  0  0  0
  2  3  2  0  0  0
  3  4  1  0  0  0
  4 26  1  0  0  0
 26 27  2  0  0  0
 26 28  2  0  0  0
 26 29  1  0  0  0
 29 30  1  0  0  0
 30 31  1  0  0  0
 31 32  1  0  0  0
 32 33  1  0  0  0
 32 34  1  0  0  0
 34 35  1  0  0  0
  4  5  2  0  0  0
  5  6  1  0  0  0
  6  7  1  0  0  0
  7  8  2  0  0  0
  8  9  1  0  0  0
  9 10  1  0  0  0
 10 23  1  0  0  0
 23 24  1  0  0  0
 24 25  1  0  0  0
 10 11  2  0  0  0
 11 19  1  0  0  0
 19 20  2  0  0  0
 20 21  1  0  0  0
 21 22  1  0  0  0
 11 12  1  0  0  0
 12 13  1  0  0  0
 12 14  2  0  0  0
 14 15  1  0  0  0
 15 16  2  0  0  0
 15 17  1  0  0  0
  6  1  2  0  0  0
 17  7  1  0  0  0
 35 29  1  0  0  0
 14  9  1  0  0  0
 17 18  1  0  0  0
M  END
> <minimizedAffinity>
-8.86359

$$$$



 39 42  0  0  0  0  0  0  0  0999 V2000
   -2.1750   61.6211   83.6182 C   0  0  0  0  0  0  0  0  0  0  0  0
   -3.0106   60.5645   83.2235 C   0  0  0  0  0  0  0  0  0  0  0  0
   -3.3082   60.3473   81.8754 C   0  0  0  0  0  0  0  0  0  0  0  0
   -2.7725   61.1946   80.9106 C   0  0  0  0  0  0  0  0  0  0  0  0
   -1.9479   62.2585   81.2781 C   0  0  0  0  0  0  0  0  0  0  0  0
   -1.6384   62.4832   82.6316 C   0  0  0  0  0  0  0  0  0  0  0  0
   -0.7322   63.6483   82.9260 C   0  0  0  0  0  0  0  0  0  0  0  0
   -0.4272   64.4870   81.9830 N   0  0  0  0  0  0  0  0  0  0  0  0
    0.3953   65.5028   82.3427 N   0  0  0  0  0  0  0  0  0  0  0  0
    0.8350   66.4908   81.4932 C   0  0  0  0  0  0  0  0  0  0  0  0
    1.6618   67.3448   82.2185 C   0  0  0  0  0  0  0  0  0  0  0  0
    1.7130   66.8342   83.5640 C   0  0  0  0  0  0  0  0  0  0  0  0
    2.4786   67.4224   84.7009 C   0  0  0  0  0  0  0  0  0  0  0  0
    0.9166   65.6990   83.5897 C   0  0  0  0  0  0  0  0  0  0  0  0
    0.5817   64.7737   84.6283 C   0  0  0  0  0  0  0  0  0  0  0  0
    0.9789   64.8121   85.7890 O   0  0  0  0  0  0  0  0  0  0  0  0
   -0.2604   63.7769   84.2113 N   0  0  0  0  0  0  0  0  0  0  0  0
   -0.5098   63.0935   84.9149 H   0  0  0  0  0  0  0  0  0  0  0  0
    2.3218   68.5137   81.6583 C   0  0  0  0  0  0  0  0  0  0  0  0
    1.7639   69.6773   81.7397 N   0  0  0  0  0  0  0  0  0  0  0  0
    2.5998   70.6261   81.1303 O   0  0  0  0  0  0  0  0  0  0  0  0
    3.1224   71.4767   82.1441 C   0  0  0  0  0  0  0  0  0  0  0  0
    0.4033   66.5215   80.0558 C   0  0  0  0  0  0  0  0  0  0  0  0
   -0.9158   67.2678   79.8388 C   0  0  0  0  0  0  0  0  0  0  0  0
   -0.7392   68.7695   79.6629 C   0  0  0  0  0  0  0  0  0  0  0  0
   -3.1295   60.9357   79.1900 S   0  0  0  0  0  0  0  0  0  0  0  0
   -3.8587   62.1006   78.7397 O   0  0  0  0  0  0  0  0  0  0  0  0
   -3.6791   59.6049   79.0441 O   0  0  0  0  0  0  0  0  0  0  0  0
   -1.5843   60.9523   78.4848 N   0  0  0  0  0  0  0  0  0  0  0  0
   -1.5134   60.9711   76.9909 C   0  0  0  0  0  0  0  0  0  0  0  0
   -1.6487   62.3938   76.4078 C   0  0  0  0  0  0  0  0  0  0  0  0
   -0.6931   63.3490   77.0038 N   0  0  0  0  0  0  0  0  0  0  0  0
   -0.9063   64.6922   76.4664 C   0  0  0  0  0  0  0  0  0  0  0  0
   -0.8370   63.3507   78.4743 C   0  0  0  0  0  0  0  0  0  0  0  0
   -0.6306   61.9454   79.0665 C   0  0  0  0  0  0  0  0  0  0  0  0
   -1.8411   61.8763   84.9230 O   0  0  0  0  0  0  0  0  0  0  0  0
   -2.7751   62.5086   85.8015 C   0  0  0  0  0  0  0  0  0  0  0  0
   -1.5794   63.3757   87.8599 C   0  0  0  0  0  0  0  0  0  0  0  0
   -2.4290   62.2592   87.2686 C   0  0  0  0  0  0  0  0  0  0  0  0
 38 39  1  0  0  0
 39 37  1  0  0  0
 37 36  1  0  0  0
 36  1  1  0  0  0
  1  2  1  0  0  0
  2  3  2  0  0  0
  3  4  1  0  0  0
  4 26  1  0  0  0
 26 27  2  0  0  0
 26 28  2  0  0  0
 26 29  1  0  0  0
 29 30  1  0  0  0
 30 31  1  0  0  0
 31 32  1  0  0  0
 32 33  1  0  0  0
 32 34  1  0  0  0
 34 35  1  0  0  0
  4  5  2  0  0  0
  5  6  1  0  0  0
  6  7  1  0  0  0
  7  8  2  0  0  0
  8  9  1  0  0  0
  9 10  1  0  0  0
 10 23  1  0  0  0
 23 24  1  0  0  0
 24 25  1  0  0  0
 10 11  2  0  0  0
 11 19  1  0  0  0
 19 20  2  0  0  0
 20 21  1  0  0  0
 21 22  1  0  0  0
 11 12  1  0  0  0
 12 13  1  0  0  0
 12 14  2  0  0  0
 14 15  1  0  0  0
 15 16  2  0  0  0
 15 17  1  0  0  0
  6  1  2  0  0  0
 17  7  1  0  0  0
 35 29  1  0  0  0
 14  9  1  0  0  0
 17 18  1  0  0  0
M  END
> <minimizedAffinity>
-8.81500

$$$$
