


 35 38  0  0  0  0  0  0  0  0999 V2000
   -0.0044   64.0641   85.0865 C   0  0  0  0  0  0  0  0  0  0  0  0
   -0.6151   63.5508   83.9230 C   0  0  0  0  0  0  0  0  0  0  0  0
   -1.6909   62.6555   83.9862 C   0  0  0  0  0  0  0  0  0  0  0  0
   -2.1634   62.2789   85.2458 C   0  0  0  0  0  0  0  0  0  0  0  0
   -1.5714   62.7756   86.4126 C   0  0  0  0  0  0  0  0  0  0  0  0
   -0.4925   63.6671   86.3500 C   0  0  0  0  0  0  0  0  0  0  0  0
    2.3621   67.9626   83.1376 C   0  0  0  0  0  0  0  0  0  0  0  0
    3.6007   68.4514   83.3420 N   0  0  0  0  0  0  0  0  0  0  0  0
    4.1373   67.6136   84.2638 N   0  0  0  0  0  0  0  0  0  0  0  0
    5.4822   67.8321   84.7390 C   0  0  0  0  0  0  0  0  0  0  0  0
    3.2884   66.6210   84.6396 C   0  0  0  0  0  0  0  0  0  0  0  0
    3.4394   65.5539   85.5571 C   0  0  0  0  0  0  0  0  0  0  0  0
    4.4376   65.3176   86.2272 O   0  0  0  0  0  0  0  0  0  0  0  0
    2.3006   64.7844   85.6168 N   0  0  0  0  0  0  0  0  0  0  0  0
    1.1449   65.0199   84.8783 C   0  0  0  0  0  0  0  0  0  0  0  0
    1.0165   66.0087   84.0335 N   0  0  0  0  0  0  0  0  0  0  0  0
    2.1444   66.8234   83.9293 C   0  0  0  0  0  0  0  0  0  0  0  0
    2.3324   64.0021   86.2573 H   0  0  0  0  0  0  0  0  0  0  0  0
    1.4310   68.6142   82.1742 C   0  0  0  0  0  0  0  0  0  0  0  0
   -0.2407   67.3839   80.6964 C   0  0  0  0  0  0  0  0  0  0  0  0
    1.2088   67.8057   80.8938 C   0  0  0  0  0  0  0  0  0  0  0  0
   -2.3051   62.1567   82.7485 C   0  0  0  0  0  0  0  0  0  0  0  0
   -2.7735   62.8796   81.6675 C   0  0  0  0  0  0  0  0  0  0  0  0
   -3.2888   62.0462   80.6332 C   0  0  0  0  0  0  0  0  0  0  0  0
   -3.1939   60.7019   80.9379 C   0  0  0  0  0  0  0  0  0  0  0  0
   -2.4822   60.4717   82.4779 S   0  0  0  0  0  0  0  0  0  0  0  0
   -3.6226   59.5912   80.1022 C   0  0  0  0  0  0  0  0  0  0  0  0
   -3.2547   58.4270   80.2746 O   0  0  0  0  0  0  0  0  0  0  0  0
   -4.5097   59.8875   79.0888 N   0  0  0  0  0  0  0  0  0  0  0  0
   -5.0758   58.7890   78.4010 O   0  0  0  0  0  0  0  0  0  0  0  0
   -5.0180   60.7643   79.0593 H   0  0  0  0  0  0  0  0  0  0  0  0
   -4.6241   58.0229   78.8194 H   0  0  0  0  0  0  0  0  0  0  0  0
    0.1208   64.1822   87.4643 O   0  0  0  0  0  0  0  0  0  0  0  0
   -0.3060   63.7236   88.7490 C   0  0  0  0  0  0  0  0  0  0  0  0
    0.6158   62.5913   89.1652 C   0  0  0  0  0  0  0  0  0  0  0  0
 20 21  1  0  0  0
 21 19  1  0  0  0
 19  7  1  0  0  0
  7  8  2  0  0  0
  8  9  1  0  0  0
  9 10  1  0  0  0
  9 11  1  0  0  0
 11 12  1  0  0  0
 12 13  2  0  0  0
 12 14  1  0  0  0
 14 15  1  0  0  0
 15  1  1  0  0  0
  1  2  1  0  0  0
  2  3  2  0  0  0
  3 22  1  0  0  0
 22 23  2  0  0  0
 23 24  1  0  0  0
 24 25  2  0  0  0
 25 27  1  0  0  0
 27 28  2  0  0  0
 27 29  1  0  0  0
 29 30  1  0  0  0
 25 26  1  0  0  0
  3  4  1  0  0  0
  4  5  2  0  0  0
  5  6  1  0  0  0
  6 33  1  0  0  0
 33 34  1  0  0  0
 34 35  1  0  0  0
 15 16  2  0  0  0
 16 17  1  0  0  0
 17  7  1  0  0  0
 17 11  2  0  0  0
  6  1  2  0  0  0
 26 22  1  0  0  0
 14 18  1  0  0  0
 29 31  1  0  0  0
 30 32  1  0  0  0
M  END
> <minimizedAffinity>
-10.64054

$$$$



 35 38  0  0  0  0  0  0  0  0999 V2000
    0.6235   64.2013   83.8992 C   0  0  0  0  0  0  0  0  0  0  0  0
    0.2511   63.5532   82.7028 C   0  0  0  0  0  0  0  0  0  0  0  0
   -0.5181   62.3821   82.7049 C   0  0  0  0  0  0  0  0  0  0  0  0
   -0.9251   61.8617   83.9357 C   0  0  0  0  0  0  0  0  0  0  0  0
   -0.5659   62.4884   85.1343 C   0  0  0  0  0  0  0  0  0  0  0  0
    0.2073   63.6566   85.1331 C   0  0  0  0  0  0  0  0  0  0  0  0
    4.4183   67.2619   84.8098 C   0  0  0  0  0  0  0  0  0  0  0  0
    4.7265   68.4768   84.3160 N   0  0  0  0  0  0  0  0  0  0  0  0
    3.7244   68.7405   83.4410 N   0  0  0  0  0  0  0  0  0  0  0  0
    3.7205   69.9805   82.7030 C   0  0  0  0  0  0  0  0  0  0  0  0
    2.8024   67.7443   83.3711 C   0  0  0  0  0  0  0  0  0  0  0  0
    1.6211   67.6109   82.6030 C   0  0  0  0  0  0  0  0  0  0  0  0
    1.1869   68.4313   81.8031 O   0  0  0  0  0  0  0  0  0  0  0  0
    0.9922   66.4150   82.8616 N   0  0  0  0  0  0  0  0  0  0  0  0
    1.4528   65.4542   83.7567 C   0  0  0  0  0  0  0  0  0  0  0  0
    2.5454   65.5881   84.4610 N   0  0  0  0  0  0  0  0  0  0  0  0
    3.2256   66.7864   84.2414 C   0  0  0  0  0  0  0  0  0  0  0  0
    0.1395   66.2464   82.3440 H   0  0  0  0  0  0  0  0  0  0  0  0
    5.2894   66.6038   85.8236 C   0  0  0  0  0  0  0  0  0  0  0  0
    7.3933   65.8125   84.6239 C   0  0  0  0  0  0  0  0  0  0  0  0
    6.0765   65.4115   85.2746 C   0  0  0  0  0  0  0  0  0  0  0  0
   -0.8941   61.7482   81.4342 C   0  0  0  0  0  0  0  0  0  0  0  0
   -0.1336   61.5945   80.2902 C   0  0  0  0  0  0  0  0  0  0  0  0
   -0.8322   60.9068   79.2564 C   0  0  0  0  0  0  0  0  0  0  0  0
   -2.1090   60.5373   79.6335 C   0  0  0  0  0  0  0  0  0  0  0  0
   -2.4416   61.0339   81.2378 S   0  0  0  0  0  0  0  0  0  0  0  0
   -3.0803   59.8222   78.8205 C   0  0  0  0  0  0  0  0  0  0  0  0
   -2.8638   59.4588   77.6622 O   0  0  0  0  0  0  0  0  0  0  0  0
   -4.2876   59.5271   79.4178 N   0  0  0  0  0  0  0  0  0  0  0  0
   -5.1552   58.6687   78.7028 O   0  0  0  0  0  0  0  0  0  0  0  0
   -4.4195   59.5877   80.4212 H   0  0  0  0  0  0  0  0  0  0  0  0
   -4.6615   58.5193   77.8663 H   0  0  0  0  0  0  0  0  0  0  0  0
    0.5842   64.3081   86.2805 O   0  0  0  0  0  0  0  0  0  0  0  0
   -0.1946   64.1099   87.4626 C   0  0  0  0  0  0  0  0  0  0  0  0
    0.6617   63.3473   88.4576 C   0  0  0  0  0  0  0  0  0  0  0  0
 20 21  1  0  0  0
 21 19  1  0  0  0
 19  7  1  0  0  0
  7  8  2  0  0  0
  8  9  1  0  0  0
  9 10  1  0  0  0
  9 11  1  0  0  0
 11 12  1  0  0  0
 12 13  2  0  0  0
 12 14  1  0  0  0
 14 15  1  0  0  0
 15  1  1  0  0  0
  1  2  1  0  0  0
  2  3  2  0  0  0
  3 22  1  0  0  0
 22 23  2  0  0  0
 23 24  1  0  0  0
 24 25  2  0  0  0
 25 27  1  0  0  0
 27 28  2  0  0  0
 27 29  1  0  0  0
 29 30  1  0  0  0
 25 26  1  0  0  0
  3  4  1  0  0  0
  4  5  2  0  0  0
  5  6  1  0  0  0
  6 33  1  0  0  0
 33 34  1  0  0  0
 34 35  1  0  0  0
 15 16  2  0  0  0
 16 17  1  0  0  0
 17  7  1  0  0  0
 17 11  2  0  0  0
  6  1  2  0  0  0
 26 22  1  0  0  0
 14 18  1  0  0  0
 29 31  1  0  0  0
 30 32  1  0  0  0
M  END
> <minimizedAffinity>
-10.58133

$$$$



 35 38  0  0  0  0  0  0  0  0999 V2000
   -0.1130   63.5532   83.6675 C   0  0  0  0  0  0  0  0  0  0  0  0
    0.4820   64.7239   83.1521 C   0  0  0  0  0  0  0  0  0  0  0  0
    1.1013   65.6662   83.9837 C   0  0  0  0  0  0  0  0  0  0  0  0
    1.1277   65.4177   85.3581 C   0  0  0  0  0  0  0  0  0  0  0  0
    0.5426   64.2630   85.8902 C   0  0  0  0  0  0  0  0  0  0  0  0
   -0.0811   63.3229   85.0597 C   0  0  0  0  0  0  0  0  0  0  0  0
   -0.7477   61.3944   79.2478 C   0  0  0  0  0  0  0  0  0  0  0  0
   -1.6173   60.4556   78.8271 N   0  0  0  0  0  0  0  0  0  0  0  0
   -2.3571   60.1748   79.9286 N   0  0  0  0  0  0  0  0  0  0  0  0
   -3.4087   59.1892   79.8577 C   0  0  0  0  0  0  0  0  0  0  0  0
   -1.9892   60.9011   81.0168 C   0  0  0  0  0  0  0  0  0  0  0  0
   -2.4851   60.9231   82.3422 C   0  0  0  0  0  0  0  0  0  0  0  0
   -3.4034   60.2387   82.7779 O   0  0  0  0  0  0  0  0  0  0  0  0
   -1.7970   61.8290   83.1158 N   0  0  0  0  0  0  0  0  0  0  0  0
   -0.7462   62.6212   82.6634 C   0  0  0  0  0  0  0  0  0  0  0  0
   -0.2964   62.5928   81.4367 N   0  0  0  0  0  0  0  0  0  0  0  0
   -0.9601   61.6914   80.6037 C   0  0  0  0  0  0  0  0  0  0  0  0
   -2.0938   61.8975   84.0804 H   0  0  0  0  0  0  0  0  0  0  0  0
    0.2584   61.9785   78.3170 C   0  0  0  0  0  0  0  0  0  0  0  0
    0.6091   64.5007   78.4027 C   0  0  0  0  0  0  0  0  0  0  0  0
   -0.1441   63.3452   77.7580 C   0  0  0  0  0  0  0  0  0  0  0  0
    1.7201   66.8648   83.4021 C   0  0  0  0  0  0  0  0  0  0  0  0
    2.4336   67.8617   84.0406 C   0  0  0  0  0  0  0  0  0  0  0  0
    2.9008   68.8629   83.1410 C   0  0  0  0  0  0  0  0  0  0  0  0
    2.5460   68.6064   81.8306 C   0  0  0  0  0  0  0  0  0  0  0  0
    1.6476   67.1538   81.7124 S   0  0  0  0  0  0  0  0  0  0  0  0
    2.8656   69.4232   80.6702 C   0  0  0  0  0  0  0  0  0  0  0  0
    2.1821   69.4466   79.6442 O   0  0  0  0  0  0  0  0  0  0  0  0
    3.9849   70.2227   80.7673 N   0  0  0  0  0  0  0  0  0  0  0  0
    4.1890   71.1565   79.7247 O   0  0  0  0  0  0  0  0  0  0  0  0
    4.4304   70.4173   81.6570 H   0  0  0  0  0  0  0  0  0  0  0  0
    3.4455   70.9562   79.1139 H   0  0  0  0  0  0  0  0  0  0  0  0
   -0.6677   62.1761   85.5328 O   0  0  0  0  0  0  0  0  0  0  0  0
   -1.3300   62.2230   86.7986 C   0  0  0  0  0  0  0  0  0  0  0  0
   -2.7299   62.7635   86.5678 C   0  0  0  0  0  0  0  0  0  0  0  0
 20 21  1  0  0  0
 21 19  1  0  0  0
 19  7  1  0  0  0
  7  8  2  0  0  0
  8  9  1  0  0  0
  9 10  1  0  0  0
  9 11  1  0  0  0
 11 12  1  0  0  0
 12 13  2  0  0  0
 12 14  1  0  0  0
 14 15  1  0  0  0
 15  1  1  0  0  0
  1  2  1  0  0  0
  2  3  2  0  0  0
  3 22  1  0  0  0
 22 23  2  0  0  0
 23 24  1  0  0  0
 24 25  2  0  0  0
 25 27  1  0  0  0
 27 28  2  0  0  0
 27 29  1  0  0  0
 29 30  1  0  0  0
 25 26  1  0  0  0
  3  4  1  0  0  0
  4  5  2  0  0  0
  5  6  1  0  0  0
  6 33  1  0  0  0
 33 34  1  0  0  0
 34 35  1  0  0  0
 15 16  2  0  0  0
 16 17  1  0  0  0
 17  7  1  0  0  0
 17 11  2  0  0  0
  6  1  2  0  0  0
 26 22  1  0  0  0
 14 18  1  0  0  0
 29 31  1  0  0  0
 30 32  1  0  0  0
M  END
> <minimizedAffinity>
-10.34584

$$$$



 35 38  0  0  0  0  0  0  0  0999 V2000
    0.0260   63.2297   83.7481 C   0  0  0  0  0  0  0  0  0  0  0  0
    1.0745   64.1667   83.6339 C   0  0  0  0  0  0  0  0  0  0  0  0
    1.5447   64.8884   84.7388 C   0  0  0  0  0  0  0  0  0  0  0  0
    0.9516   64.6537   85.9817 C   0  0  0  0  0  0  0  0  0  0  0  0
   -0.0904   63.7293   86.1168 C   0  0  0  0  0  0  0  0  0  0  0  0
   -0.5642   63.0109   85.0115 C   0  0  0  0  0  0  0  0  0  0  0  0
    0.0422   62.2455   78.8872 C   0  0  0  0  0  0  0  0  0  0  0  0
   -0.6416   61.3457   78.1541 N   0  0  0  0  0  0  0  0  0  0  0  0
   -1.4055   60.6917   79.0642 N   0  0  0  0  0  0  0  0  0  0  0  0
   -2.2862   59.6318   78.6364 C   0  0  0  0  0  0  0  0  0  0  0  0
   -1.2306   61.1478   80.3325 C   0  0  0  0  0  0  0  0  0  0  0  0
   -1.8163   60.7561   81.5600 C   0  0  0  0  0  0  0  0  0  0  0  0
   -2.6474   59.8682   81.7093 O   0  0  0  0  0  0  0  0  0  0  0  0
   -1.3311   61.5080   82.6049 N   0  0  0  0  0  0  0  0  0  0  0  0
   -0.3847   62.5206   82.4807 C   0  0  0  0  0  0  0  0  0  0  0  0
    0.1495   62.8742   81.3417 N   0  0  0  0  0  0  0  0  0  0  0  0
   -0.3081   62.1454   80.2433 C   0  0  0  0  0  0  0  0  0  0  0  0
   -1.7021   61.2813   83.5183 H   0  0  0  0  0  0  0  0  0  0  0  0
    1.0102   63.1791   78.2459 C   0  0  0  0  0  0  0  0  0  0  0  0
   -0.6454   64.8039   77.1919 C   0  0  0  0  0  0  0  0  0  0  0  0
    0.5094   64.6232   78.1676 C   0  0  0  0  0  0  0  0  0  0  0  0
    2.6480   65.8445   84.5761 C   0  0  0  0  0  0  0  0  0  0  0  0
    2.6265   67.0907   83.9786 C   0  0  0  0  0  0  0  0  0  0  0  0
    3.8925   67.7428   84.0262 C   0  0  0  0  0  0  0  0  0  0  0  0
    4.8545   66.9879   84.6693 C   0  0  0  0  0  0  0  0  0  0  0  0
    4.2063   65.4963   85.2040 S   0  0  0  0  0  0  0  0  0  0  0  0
    6.2430   67.3601   84.8914 C   0  0  0  0  0  0  0  0  0  0  0  0
    6.6136   68.0912   85.8125 O   0  0  0  0  0  0  0  0  0  0  0  0
    7.1717   66.8267   84.0227 N   0  0  0  0  0  0  0  0  0  0  0  0
    8.5332   67.0277   84.3491 O   0  0  0  0  0  0  0  0  0  0  0  0
    6.9517   66.0462   83.4141 H   0  0  0  0  0  0  0  0  0  0  0  0
    8.4763   67.5842   85.1571 H   0  0  0  0  0  0  0  0  0  0  0  0
   -1.5819   62.0940   85.0927 O   0  0  0  0  0  0  0  0  0  0  0  0
   -2.7912   62.4763   85.7519 C   0  0  0  0  0  0  0  0  0  0  0  0
   -2.7304   61.9459   87.1731 C   0  0  0  0  0  0  0  0  0  0  0  0
 20 21  1  0  0  0
 21 19  1  0  0  0
 19  7  1  0  0  0
  7  8  2  0  0  0
  8  9  1  0  0  0
  9 10  1  0  0  0
  9 11  1  0  0  0
 11 12  1  0  0  0
 12 13  2  0  0  0
 12 14  1  0  0  0
 14 15  1  0  0  0
 15  1  1  0  0  0
  1  2  1  0  0  0
  2  3  2  0  0  0
  3 22  1  0  0  0
 22 23  2  0  0  0
 23 24  1  0  0  0
 24 25  2  0  0  0
 25 27  1  0  0  0
 27 28  2  0  0  0
 27 29  1  0  0  0
 29 30  1  0  0  0
 25 26  1  0  0  0
  3  4  1  0  0  0
  4  5  2  0  0  0
  5  6  1  0  0  0
  6 33  1  0  0  0
 33 34  1  0  0  0
 34 35  1  0  0  0
 15 16  2  0  0  0
 16 17  1  0  0  0
 17  7  1  0  0  0
 17 11  2  0  0  0
  6  1  2  0  0  0
 26 22  1  0  0  0
 14 18  1  0  0  0
 29 31  1  0  0  0
 30 32  1  0  0  0
M  END
> <minimizedAffinity>
-10.23008

$$$$



 35 38  0  0  0  0  0  0  0  0999 V2000
    2.3268   66.3501   84.3466 C   0  0  0  0  0  0  0  0  0  0  0  0
    1.6901   67.3918   83.6399 C   0  0  0  0  0  0  0  0  0  0  0  0
    2.4025   68.4904   83.1414 C   0  0  0  0  0  0  0  0  0  0  0  0
    3.7827   68.5332   83.3528 C   0  0  0  0  0  0  0  0  0  0  0  0
    4.4340   67.5107   84.0519 C   0  0  0  0  0  0  0  0  0  0  0  0
    3.7214   66.4145   84.5549 C   0  0  0  0  0  0  0  0  0  0  0  0
   -0.8497   62.5660   83.9138 C   0  0  0  0  0  0  0  0  0  0  0  0
   -1.4187   61.7653   84.8358 N   0  0  0  0  0  0  0  0  0  0  0  0
   -0.9215   62.2154   86.0147 N   0  0  0  0  0  0  0  0  0  0  0  0
   -1.3136   61.5818   87.2504 C   0  0  0  0  0  0  0  0  0  0  0  0
   -0.0704   63.2649   85.8679 C   0  0  0  0  0  0  0  0  0  0  0  0
    0.6570   64.0233   86.8160 C   0  0  0  0  0  0  0  0  0  0  0  0
    0.6492   63.8554   88.0297 O   0  0  0  0  0  0  0  0  0  0  0  0
    1.4017   65.0040   86.2027 N   0  0  0  0  0  0  0  0  0  0  0  0
    1.4436   65.2256   84.8295 C   0  0  0  0  0  0  0  0  0  0  0  0
    0.7673   64.5189   83.9629 N   0  0  0  0  0  0  0  0  0  0  0  0
   -0.0103   63.5084   84.5295 C   0  0  0  0  0  0  0  0  0  0  0  0
    1.9538   65.5860   86.8189 H   0  0  0  0  0  0  0  0  0  0  0  0
   -1.1447   62.3943   82.4636 C   0  0  0  0  0  0  0  0  0  0  0  0
    1.0735   61.2470   81.9579 C   0  0  0  0  0  0  0  0  0  0  0  0
   -0.4429   61.1888   81.8336 C   0  0  0  0  0  0  0  0  0  0  0  0
    1.7002   69.5459   82.3994 C   0  0  0  0  0  0  0  0  0  0  0  0
    0.6591   69.4188   81.4990 C   0  0  0  0  0  0  0  0  0  0  0  0
    0.2185   70.6747   80.9905 C   0  0  0  0  0  0  0  0  0  0  0  0
    0.9228   71.7386   81.5205 C   0  0  0  0  0  0  0  0  0  0  0  0
    2.1115   71.1960   82.6267 S   0  0  0  0  0  0  0  0  0  0  0  0
    0.7236   73.1472   81.2172 C   0  0  0  0  0  0  0  0  0  0  0  0
    1.2508   73.7195   80.2607 O   0  0  0  0  0  0  0  0  0  0  0  0
   -0.1283   73.8433   82.0487 N   0  0  0  0  0  0  0  0  0  0  0  0
   -0.4747   75.1545   81.6468 O   0  0  0  0  0  0  0  0  0  0  0  0
   -0.7601   73.3723   82.6865 H   0  0  0  0  0  0  0  0  0  0  0  0
    0.0586   75.2723   80.8298 H   0  0  0  0  0  0  0  0  0  0  0  0
    4.3139   65.3873   85.2455 O   0  0  0  0  0  0  0  0  0  0  0  0
    5.6413   65.5769   85.7405 C   0  0  0  0  0  0  0  0  0  0  0  0
    5.5659   65.6325   87.2558 C   0  0  0  0  0  0  0  0  0  0  0  0
 20 21  1  0  0  0
 21 19  1  0  0  0
 19  7  1  0  0  0
  7  8  2  0  0  0
  8  9  1  0  0  0
  9 10  1  0  0  0
  9 11  1  0  0  0
 11 12  1  0  0  0
 12 13  2  0  0  0
 12 14  1  0  0  0
 14 15  1  0  0  0
 15  1  1  0  0  0
  1  2  1  0  0  0
  2  3  2  0  0  0
  3 22  1  0  0  0
 22 23  2  0  0  0
 23 24  1  0  0  0
 24 25  2  0  0  0
 25 27  1  0  0  0
 27 28  2  0  0  0
 27 29  1  0  0  0
 29 30  1  0  0  0
 25 26  1  0  0  0
  3  4  1  0  0  0
  4  5  2  0  0  0
  5  6  1  0  0  0
  6 33  1  0  0  0
 33 34  1  0  0  0
 34 35  1  0  0  0
 15 16  2  0  0  0
 16 17  1  0  0  0
 17  7  1  0  0  0
 17 11  2  0  0  0
  6  1  2  0  0  0
 26 22  1  0  0  0
 14 18  1  0  0  0
 29 31  1  0  0  0
 30 32  1  0  0  0
M  END
> <minimizedAffinity>
-10.21377

$$$$



 35 38  0  0  0  0  0  0  0  0999 V2000
    0.1340   64.1631   85.0019 C   0  0  0  0  0  0  0  0  0  0  0  0
   -0.4152   63.6585   83.8044 C   0  0  0  0  0  0  0  0  0  0  0  0
   -1.4973   62.7687   83.8046 C   0  0  0  0  0  0  0  0  0  0  0  0
   -2.0393   62.3886   85.0347 C   0  0  0  0  0  0  0  0  0  0  0  0
   -1.5091   62.8766   86.2344 C   0  0  0  0  0  0  0  0  0  0  0  0
   -0.4240   63.7626   86.2351 C   0  0  0  0  0  0  0  0  0  0  0  0
    2.5868   68.1124   83.2746 C   0  0  0  0  0  0  0  0  0  0  0  0
    3.8250   68.5784   83.5286 N   0  0  0  0  0  0  0  0  0  0  0  0
    4.3305   67.6969   84.4270 N   0  0  0  0  0  0  0  0  0  0  0  0
    5.6657   67.8804   84.9427 C   0  0  0  0  0  0  0  0  0  0  0  0
    3.4626   66.6992   84.7407 C   0  0  0  0  0  0  0  0  0  0  0  0
    3.5805   65.5932   85.6160 C   0  0  0  0  0  0  0  0  0  0  0  0
    4.5597   65.3180   86.2992 O   0  0  0  0  0  0  0  0  0  0  0  0
    2.4328   64.8347   85.6164 N   0  0  0  0  0  0  0  0  0  0  0  0
    1.2978   65.1137   84.8612 C   0  0  0  0  0  0  0  0  0  0  0  0
    1.2000   66.1382   84.0558 N   0  0  0  0  0  0  0  0  0  0  0  0
    2.3384   66.9438   84.0125 C   0  0  0  0  0  0  0  0  0  0  0  0
    2.4411   64.0261   86.2242 H   0  0  0  0  0  0  0  0  0  0  0  0
    1.6859   68.8139   82.3174 C   0  0  0  0  0  0  0  0  0  0  0  0
    2.5881   69.7102   80.1095 C   0  0  0  0  0  0  0  0  0  0  0  0
    2.0000   68.5165   80.8493 C   0  0  0  0  0  0  0  0  0  0  0  0
   -2.0458   62.2790   82.5329 C   0  0  0  0  0  0  0  0  0  0  0  0
   -2.8242   62.9563   81.6131 C   0  0  0  0  0  0  0  0  0  0  0  0
   -3.1539   62.1571   80.4806 C   0  0  0  0  0  0  0  0  0  0  0  0
   -2.6117   60.8882   80.5504 C   0  0  0  0  0  0  0  0  0  0  0  0
   -1.7117   60.6852   81.9926 S   0  0  0  0  0  0  0  0  0  0  0  0
   -2.7525   59.8298   79.5627 C   0  0  0  0  0  0  0  0  0  0  0  0
   -3.7669   59.1388   79.4442 O   0  0  0  0  0  0  0  0  0  0  0  0
   -1.6856   59.6339   78.7113 N   0  0  0  0  0  0  0  0  0  0  0  0
   -1.8916   58.7435   77.6317 O   0  0  0  0  0  0  0  0  0  0  0  0
   -0.9452   60.3193   78.6114 H   0  0  0  0  0  0  0  0  0  0  0  0
   -2.8058   58.4219   77.7954 H   0  0  0  0  0  0  0  0  0  0  0  0
    0.1305   64.2691   87.3835 O   0  0  0  0  0  0  0  0  0  0  0  0
   -0.3608   63.7992   88.6408 C   0  0  0  0  0  0  0  0  0  0  0  0
    0.5699   62.6990   89.1186 C   0  0  0  0  0  0  0  0  0  0  0  0
 20 21  1  0  0  0
 21 19  1  0  0  0
 19  7  1  0  0  0
  7  8  2  0  0  0
  8  9  1  0  0  0
  9 10  1  0  0  0
  9 11  1  0  0  0
 11 12  1  0  0  0
 12 13  2  0  0  0
 12 14  1  0  0  0
 14 15  1  0  0  0
 15  1  1  0  0  0
  1  2  1  0  0  0
  2  3  2  0  0  0
  3 22  1  0  0  0
 22 23  2  0  0  0
 23 24  1  0  0  0
 24 25  2  0  0  0
 25 27  1  0  0  0
 27 28  2  0  0  0
 27 29  1  0  0  0
 29 30  1  0  0  0
 25 26  1  0  0  0
  3  4  1  0  0  0
  4  5  2  0  0  0
  5  6  1  0  0  0
  6 33  1  0  0  0
 33 34  1  0  0  0
 34 35  1  0  0  0
 15 16  2  0  0  0
 16 17  1  0  0  0
 17  7  1  0  0  0
 17 11  2  0  0  0
  6  1  2  0  0  0
 26 22  1  0  0  0
 14 18  1  0  0  0
 29 31  1  0  0  0
 30 32  1  0  0  0
M  END
> <minimizedAffinity>
-10.20303

$$$$



 35 38  0  0  0  0  0  0  0  0999 V2000
    0.2761   64.3447   84.1663 C   0  0  0  0  0  0  0  0  0  0  0  0
   -0.2395   63.7244   83.0090 C   0  0  0  0  0  0  0  0  0  0  0  0
   -1.1294   62.6447   83.0829 C   0  0  0  0  0  0  0  0  0  0  0  0
   -1.5114   62.1894   84.3471 C   0  0  0  0  0  0  0  0  0  0  0  0
   -1.0111   62.7899   85.5079 C   0  0  0  0  0  0  0  0  0  0  0  0
   -0.1175   63.8663   85.4347 C   0  0  0  0  0  0  0  0  0  0  0  0
    4.3974   67.0219   84.8332 C   0  0  0  0  0  0  0  0  0  0  0  0
    4.8127   68.1780   84.2804 N   0  0  0  0  0  0  0  0  0  0  0  0
    3.8136   68.5121   83.4261 N   0  0  0  0  0  0  0  0  0  0  0  0
    3.9130   69.7167   82.6378 C   0  0  0  0  0  0  0  0  0  0  0  0
    2.7914   67.6164   83.4257 C   0  0  0  0  0  0  0  0  0  0  0  0
    1.5767   67.5788   82.7002 C   0  0  0  0  0  0  0  0  0  0  0  0
    1.2026   68.4093   81.8806 O   0  0  0  0  0  0  0  0  0  0  0  0
    0.8364   66.4663   83.0271 N   0  0  0  0  0  0  0  0  0  0  0  0
    1.2256   65.4972   83.9468 C   0  0  0  0  0  0  0  0  0  0  0  0
    2.3498   65.5422   84.6114 N   0  0  0  0  0  0  0  0  0  0  0  0
    3.1427   66.6531   84.3216 C   0  0  0  0  0  0  0  0  0  0  0  0
   -0.0465   66.3688   82.5432 H   0  0  0  0  0  0  0  0  0  0  0  0
    5.2300   66.3149   85.8464 C   0  0  0  0  0  0  0  0  0  0  0  0
    7.6091   65.9089   85.0298 C   0  0  0  0  0  0  0  0  0  0  0  0
    6.2211   65.3193   85.2390 C   0  0  0  0  0  0  0  0  0  0  0  0
   -1.6518   62.0379   81.8513 C   0  0  0  0  0  0  0  0  0  0  0  0
   -2.9629   61.9539   81.4217 C   0  0  0  0  0  0  0  0  0  0  0  0
   -3.0847   61.3073   80.1580 C   0  0  0  0  0  0  0  0  0  0  0  0
   -1.8638   60.9200   79.6400 C   0  0  0  0  0  0  0  0  0  0  0  0
   -0.5869   61.3452   80.6982 S   0  0  0  0  0  0  0  0  0  0  0  0
   -1.6352   60.2418   78.3737 C   0  0  0  0  0  0  0  0  0  0  0  0
   -1.3170   60.8259   77.3355 O   0  0  0  0  0  0  0  0  0  0  0  0
   -1.7631   58.8687   78.3768 N   0  0  0  0  0  0  0  0  0  0  0  0
   -1.3551   58.1917   77.2038 O   0  0  0  0  0  0  0  0  0  0  0  0
   -1.7833   58.3331   79.2373 H   0  0  0  0  0  0  0  0  0  0  0  0
   -1.1036   58.9329   76.6094 H   0  0  0  0  0  0  0  0  0  0  0  0
    0.3999   64.4887   86.5428 O   0  0  0  0  0  0  0  0  0  0  0  0
    1.1530   63.7070   87.4727 C   0  0  0  0  0  0  0  0  0  0  0  0
    0.2556   63.4112   88.6611 C   0  0  0  0  0  0  0  0  0  0  0  0
 20 21  1  0  0  0
 21 19  1  0  0  0
 19  7  1  0  0  0
  7  8  2  0  0  0
  8  9  1  0  0  0
  9 10  1  0  0  0
  9 11  1  0  0  0
 11 12  1  0  0  0
 12 13  2  0  0  0
 12 14  1  0  0  0
 14 15  1  0  0  0
 15  1  1  0  0  0
  1  2  1  0  0  0
  2  3  2  0  0  0
  3 22  1  0  0  0
 22 23  2  0  0  0
 23 24  1  0  0  0
 24 25  2  0  0  0
 25 27  1  0  0  0
 27 28  2  0  0  0
 27 29  1  0  0  0
 29 30  1  0  0  0
 25 26  1  0  0  0
  3  4  1  0  0  0
  4  5  2  0  0  0
  5  6  1  0  0  0
  6 33  1  0  0  0
 33 34  1  0  0  0
 34 35  1  0  0  0
 15 16  2  0  0  0
 16 17  1  0  0  0
 17  7  1  0  0  0
 17 11  2  0  0  0
  6  1  2  0  0  0
 26 22  1  0  0  0
 14 18  1  0  0  0
 29 31  1  0  0  0
 30 32  1  0  0  0
M  END
> <minimizedAffinity>
-10.09428

$$$$



 35 38  0  0  0  0  0  0  0  0999 V2000
   -0.1015   63.7441   83.1746 C   0  0  0  0  0  0  0  0  0  0  0  0
    0.3991   64.9120   82.5618 C   0  0  0  0  0  0  0  0  0  0  0  0
    1.0344   65.9197   83.2993 C   0  0  0  0  0  0  0  0  0  0  0  0
    1.1740   65.7408   84.6777 C   0  0  0  0  0  0  0  0  0  0  0  0
    0.6838   64.5902   85.3056 C   0  0  0  0  0  0  0  0  0  0  0  0
    0.0442   63.5845   84.5695 C   0  0  0  0  0  0  0  0  0  0  0  0
   -0.9079   61.2901   78.9408 C   0  0  0  0  0  0  0  0  0  0  0  0
   -1.7775   60.3106   78.6259 N   0  0  0  0  0  0  0  0  0  0  0  0
   -2.4563   60.0896   79.7791 N   0  0  0  0  0  0  0  0  0  0  0  0
   -3.4895   59.0833   79.8249 C   0  0  0  0  0  0  0  0  0  0  0  0
   -2.0504   60.8919   80.7983 C   0  0  0  0  0  0  0  0  0  0  0  0
   -2.4810   60.9919   82.1428 C   0  0  0  0  0  0  0  0  0  0  0  0
   -3.3623   60.3216   82.6674 O   0  0  0  0  0  0  0  0  0  0  0  0
   -1.7745   61.9583   82.8208 N   0  0  0  0  0  0  0  0  0  0  0  0
   -0.7638   62.7374   82.2658 C   0  0  0  0  0  0  0  0  0  0  0  0
   -0.3744   62.6367   81.0225 N   0  0  0  0  0  0  0  0  0  0  0  0
   -1.0595   61.6714   80.2838 C   0  0  0  0  0  0  0  0  0  0  0  0
   -2.0249   62.0845   83.7927 H   0  0  0  0  0  0  0  0  0  0  0  0
    0.0390   61.8295   77.9248 C   0  0  0  0  0  0  0  0  0  0  0  0
    0.3047   64.3624   77.8500 C   0  0  0  0  0  0  0  0  0  0  0  0
   -0.4224   63.1455   77.2943 C   0  0  0  0  0  0  0  0  0  0  0  0
    1.5525   67.1132   82.6174 C   0  0  0  0  0  0  0  0  0  0  0  0
    1.6205   67.3685   81.2607 C   0  0  0  0  0  0  0  0  0  0  0  0
    2.1706   68.6506   80.9715 C   0  0  0  0  0  0  0  0  0  0  0  0
    2.5016   69.3558   82.1126 C   0  0  0  0  0  0  0  0  0  0  0  0
    2.1416   68.4487   83.5192 S   0  0  0  0  0  0  0  0  0  0  0  0
    3.0785   70.6898   82.1704 C   0  0  0  0  0  0  0  0  0  0  0  0
    3.9190   71.1041   81.3691 O   0  0  0  0  0  0  0  0  0  0  0  0
    2.6178   71.5189   83.1715 N   0  0  0  0  0  0  0  0  0  0  0  0
    3.0294   72.8708   83.1140 O   0  0  0  0  0  0  0  0  0  0  0  0
    1.7721   71.3140   83.6919 H   0  0  0  0  0  0  0  0  0  0  0  0
    3.6298   72.8755   82.3360 H   0  0  0  0  0  0  0  0  0  0  0  0
   -0.4523   62.4387   85.1384 O   0  0  0  0  0  0  0  0  0  0  0  0
   -1.0424   62.5246   86.4374 C   0  0  0  0  0  0  0  0  0  0  0  0
   -2.5334   62.7444   86.2540 C   0  0  0  0  0  0  0  0  0  0  0  0
 20 21  1  0  0  0
 21 19  1  0  0  0
 19  7  1  0  0  0
  7  8  2  0  0  0
  8  9  1  0  0  0
  9 10  1  0  0  0
  9 11  1  0  0  0
 11 12  1  0  0  0
 12 13  2  0  0  0
 12 14  1  0  0  0
 14 15  1  0  0  0
 15  1  1  0  0  0
  1  2  1  0  0  0
  2  3  2  0  0  0
  3 22  1  0  0  0
 22 23  2  0  0  0
 23 24  1  0  0  0
 24 25  2  0  0  0
 25 27  1  0  0  0
 27 28  2  0  0  0
 27 29  1  0  0  0
 29 30  1  0  0  0
 25 26  1  0  0  0
  3  4  1  0  0  0
  4  5  2  0  0  0
  5  6  1  0  0  0
  6 33  1  0  0  0
 33 34  1  0  0  0
 34 35  1  0  0  0
 15 16  2  0  0  0
 16 17  1  0  0  0
 17  7  1  0  0  0
 17 11  2  0  0  0
  6  1  2  0  0  0
 26 22  1  0  0  0
 14 18  1  0  0  0
 29 31  1  0  0  0
 30 32  1  0  0  0
M  END
> <minimizedAffinity>
-10.06619

$$$$



 35 38  0  0  0  0  0  0  0  0999 V2000
    0.5188   65.4608   82.3688 C   0  0  0  0  0  0  0  0  0  0  0  0
    1.5379   65.6089   83.3330 C   0  0  0  0  0  0  0  0  0  0  0  0
    2.3779   66.7300   83.3547 C   0  0  0  0  0  0  0  0  0  0  0  0
    2.1797   67.7222   82.3915 C   0  0  0  0  0  0  0  0  0  0  0  0
    1.1751   67.5947   81.4255 C   0  0  0  0  0  0  0  0  0  0  0  0
    0.3381   66.4716   81.4003 C   0  0  0  0  0  0  0  0  0  0  0  0
   -2.4175   62.1046   84.5393 C   0  0  0  0  0  0  0  0  0  0  0  0
   -2.9751   60.9696   84.0748 N   0  0  0  0  0  0  0  0  0  0  0  0
   -2.5560   60.9000   82.7868 N   0  0  0  0  0  0  0  0  0  0  0  0
   -2.9670   59.7952   81.9545 C   0  0  0  0  0  0  0  0  0  0  0  0
   -1.7578   61.9404   82.4294 C   0  0  0  0  0  0  0  0  0  0  0  0
   -1.1159   62.2545   81.2077 C   0  0  0  0  0  0  0  0  0  0  0  0
   -1.1705   61.5951   80.1764 O   0  0  0  0  0  0  0  0  0  0  0  0
   -0.3994   63.4245   81.3088 N   0  0  0  0  0  0  0  0  0  0  0  0
   -0.3150   64.2058   82.4572 C   0  0  0  0  0  0  0  0  0  0  0  0
   -0.9120   63.9059   83.5803 N   0  0  0  0  0  0  0  0  0  0  0  0
   -1.6535   62.7247   83.5375 C   0  0  0  0  0  0  0  0  0  0  0  0
    0.0849   63.7166   80.4701 H   0  0  0  0  0  0  0  0  0  0  0  0
   -2.6395   62.5477   85.9443 C   0  0  0  0  0  0  0  0  0  0  0  0
   -0.7691   63.5962   87.3207 C   0  0  0  0  0  0  0  0  0  0  0  0
   -1.4369   62.3077   86.8602 C   0  0  0  0  0  0  0  0  0  0  0  0
    3.4176   66.8489   84.3856 C   0  0  0  0  0  0  0  0  0  0  0  0
    4.0030   67.9949   84.8900 C   0  0  0  0  0  0  0  0  0  0  0  0
    4.9671   67.7176   85.9018 C   0  0  0  0  0  0  0  0  0  0  0  0
    5.0918   66.3661   86.1600 C   0  0  0  0  0  0  0  0  0  0  0  0
    4.0374   65.4530   85.1672 S   0  0  0  0  0  0  0  0  0  0  0  0
    5.9801   65.7475   87.1317 C   0  0  0  0  0  0  0  0  0  0  0  0
    7.1885   65.5881   86.9456 O   0  0  0  0  0  0  0  0  0  0  0  0
    5.4120   65.3548   88.3253 N   0  0  0  0  0  0  0  0  0  0  0  0
    6.3008   64.9335   89.3417 O   0  0  0  0  0  0  0  0  0  0  0  0
    4.4956   65.6772   88.6157 H   0  0  0  0  0  0  0  0  0  0  0  0
    7.1736   64.9850   88.8930 H   0  0  0  0  0  0  0  0  0  0  0  0
   -0.6607   66.3009   80.4749 O   0  0  0  0  0  0  0  0  0  0  0  0
   -0.3416   66.4650   79.0914 C   0  0  0  0  0  0  0  0  0  0  0  0
    0.5545   65.3092   78.6836 C   0  0  0  0  0  0  0  0  0  0  0  0
 20 21  1  0  0  0
 21 19  1  0  0  0
 19  7  1  0  0  0
  7  8  2  0  0  0
  8  9  1  0  0  0
  9 10  1  0  0  0
  9 11  1  0  0  0
 11 12  1  0  0  0
 12 13  2  0  0  0
 12 14  1  0  0  0
 14 15  1  0  0  0
 15  1  1  0  0  0
  1  2  1  0  0  0
  2  3  2  0  0  0
  3 22  1  0  0  0
 22 23  2  0  0  0
 23 24  1  0  0  0
 24 25  2  0  0  0
 25 27  1  0  0  0
 27 28  2  0  0  0
 27 29  1  0  0  0
 29 30  1  0  0  0
 25 26  1  0  0  0
  3  4  1  0  0  0
  4  5  2  0  0  0
  5  6  1  0  0  0
  6 33  1  0  0  0
 33 34  1  0  0  0
 34 35  1  0  0  0
 15 16  2  0  0  0
 16 17  1  0  0  0
 17  7  1  0  0  0
 17 11  2  0  0  0
  6  1  2  0  0  0
 26 22  1  0  0  0
 14 18  1  0  0  0
 29 31  1  0  0  0
 30 32  1  0  0  0
M  END
> <minimizedAffinity>
-10.01999

$$$$
