
     RDKit          3D

 77 80  0  0  0  0  0  0  0  0999 V2000
   -3.5591   -0.8196   -6.1527 C   0  0  0  0  0  0  0  0  0  0  0  0
   -3.2575   -1.9858   -5.2219 C   0  0  0  0  0  0  0  0  0  0  0  0
   -1.8187   -1.9656   -4.7093 C   0  0  0  0  0  0  0  0  0  0  0  0
   -1.6468   -0.8173   -3.8741 O   0  0  0  0  0  0  0  0  0  0  0  0
   -0.4762   -0.7014   -3.1678 C   0  0  0  0  0  0  0  0  0  0  0  0
    0.6566   -1.4886   -3.4264 C   0  0  0  0  0  0  0  0  0  0  0  0
    1.8226   -1.3366   -2.6708 C   0  0  0  0  0  0  0  0  0  0  0  0
    1.8656   -0.3881   -1.6507 C   0  0  0  0  0  0  0  0  0  0  0  0
    3.3553   -0.1733   -0.6996 S   0  0  0  0  0  0  0  0  0  0  0  0
    4.4324   -0.7937   -1.4416 O   0  0  0  0  0  0  0  0  0  0  0  0
    3.4242    1.2134   -0.2951 O   0  0  0  0  0  0  0  0  0  0  0  0
    3.0728   -1.1157    0.6885 N   0  0  0  0  0  0  0  0  0  0  0  0
    2.9756   -2.5735    0.5163 C   0  0  0  0  0  0  0  0  0  0  0  0
    3.4827   -3.2560    1.7902 C   0  0  0  0  0  0  0  0  0  0  0  0
    3.0840   -2.5118    3.1020 C   0  0  0  0  0  0  0  0  0  0  0  0
    4.2829   -1.6678    3.6302 C   0  0  0  0  0  0  0  0  0  0  0  0
    5.3597   -2.5315    3.9941 O   0  0  0  0  0  0  0  0  0  0  0  0
    6.4693   -1.8299    4.5283 N   0  0  0  0  0  0  0  0  0  0  0  0
    6.3610   -0.6091    4.6450 O   0  0  0  0  0  0  0  0  0  0  0  0
    7.4007   -2.5743    4.8247 O   0  0  0  0  0  0  0  0  0  0  0  0
    2.6953   -3.5472    4.1937 C   0  0  0  0  0  0  0  0  0  0  0  0
    1.5471   -4.2848    3.7740 O   0  0  0  0  0  0  0  0  0  0  0  0
    1.1224   -5.2330    4.7368 N   0  0  0  0  0  0  0  0  0  0  0  0
    0.1417   -5.8748    4.3675 O   0  0  0  0  0  0  0  0  0  0  0  0
    1.7623   -5.2943    5.7868 O   0  0  0  0  0  0  0  0  0  0  0  0
    1.8805   -1.5783    2.8140 C   0  0  0  0  0  0  0  0  0  0  0  0
    2.1567   -0.5549    1.7070 C   0  0  0  0  0  0  0  0  0  0  0  0
    0.7656    0.4345   -1.4082 C   0  0  0  0  0  0  0  0  0  0  0  0
   -0.4204    0.2747   -2.1474 C   0  0  0  0  0  0  0  0  0  0  0  0
   -1.5742    1.1579   -1.7596 C   0  0  0  0  0  0  0  0  0  0  0  0
   -1.5405    1.7845   -0.6158 N   0  0  0  0  0  0  0  0  0  0  0  0
   -2.6586    2.5794   -0.3597 C   0  0  0  0  0  0  0  0  0  0  0  0
   -2.8862    3.3799    0.7778 C   0  0  0  0  0  0  0  0  0  0  0  0
   -1.9878    3.5581    1.9564 C   0  0  0  0  0  0  0  0  0  0  0  0
   -0.7901    4.4712    1.6842 C   0  0  0  0  0  0  0  0  0  0  0  0
   -1.1834    5.9260    1.4679 C   0  0  0  0  0  0  0  0  0  0  0  0
   -4.1289    3.9634    0.5721 C   0  0  0  0  0  0  0  0  0  0  0  0
   -4.6190    3.5410   -0.6431 N   0  0  0  0  0  0  0  0  0  0  0  0
   -5.8837    3.9402   -1.2175 C   0  0  0  0  0  0  0  0  0  0  0  0
   -3.7168    2.6895   -1.2190 C   0  0  0  0  0  0  0  0  0  0  0  0
   -3.7589    1.9952   -2.4623 C   0  0  0  0  0  0  0  0  0  0  0  0
   -4.6781    2.0252   -3.2734 O   0  0  0  0  0  0  0  0  0  0  0  0
   -2.6205    1.2526   -2.6653 N   0  0  0  0  0  0  0  0  0  0  0  0
   -2.9013   -0.8399   -7.0279 H   0  0  0  0  0  0  0  0  0  0  0  0
   -4.5935   -0.8778   -6.5060 H   0  0  0  0  0  0  0  0  0  0  0  0
   -3.4299    0.1427   -5.6483 H   0  0  0  0  0  0  0  0  0  0  0  0
   -3.9507   -1.9433   -4.3737 H   0  0  0  0  0  0  0  0  0  0  0  0
   -3.4388   -2.9258   -5.7553 H   0  0  0  0  0  0  0  0  0  0  0  0
   -1.1271   -1.9211   -5.5587 H   0  0  0  0  0  0  0  0  0  0  0  0
   -1.6424   -2.8799   -4.1303 H   0  0  0  0  0  0  0  0  0  0  0  0
    0.6698   -2.2292   -4.2210 H   0  0  0  0  0  0  0  0  0  0  0  0
    2.6912   -1.9538   -2.8943 H   0  0  0  0  0  0  0  0  0  0  0  0
    3.5749   -2.9257   -0.3289 H   0  0  0  0  0  0  0  0  0  0  0  0
    1.9347   -2.8554    0.3180 H   0  0  0  0  0  0  0  0  0  0  0  0
    3.1102   -4.2875    1.7848 H   0  0  0  0  0  0  0  0  0  0  0  0
    4.5745   -3.3441    1.7282 H   0  0  0  0  0  0  0  0  0  0  0  0
    4.6296   -0.9683    2.8608 H   0  0  0  0  0  0  0  0  0  0  0  0
    3.9529   -1.0983    4.5092 H   0  0  0  0  0  0  0  0  0  0  0  0
    3.5287   -4.2409    4.3621 H   0  0  0  0  0  0  0  0  0  0  0  0
    2.4709   -3.0151    5.1275 H   0  0  0  0  0  0  0  0  0  0  0  0
    1.0147   -2.1806    2.5076 H   0  0  0  0  0  0  0  0  0  0  0  0
    1.5690   -1.0508    3.7243 H   0  0  0  0  0  0  0  0  0  0  0  0
    1.2040   -0.2505    1.2667 H   0  0  0  0  0  0  0  0  0  0  0  0
    2.6273    0.3305    2.1489 H   0  0  0  0  0  0  0  0  0  0  0  0
    0.8290    1.2035   -0.6390 H   0  0  0  0  0  0  0  0  0  0  0  0
   -2.5619    3.9450    2.8076 H   0  0  0  0  0  0  0  0  0  0  0  0
   -1.6148    2.5724    2.2625 H   0  0  0  0  0  0  0  0  0  0  0  0
   -0.1119    4.4209    2.5443 H   0  0  0  0  0  0  0  0  0  0  0  0
   -0.2263    4.1165    0.8135 H   0  0  0  0  0  0  0  0  0  0  0  0
   -1.7512    6.3103    2.3211 H   0  0  0  0  0  0  0  0  0  0  0  0
   -0.2872    6.5437    1.3526 H   0  0  0  0  0  0  0  0  0  0  0  0
   -1.7897    6.0476    0.5653 H   0  0  0  0  0  0  0  0  0  0  0  0
   -4.6940    4.6479    1.1920 H   0  0  0  0  0  0  0  0  0  0  0  0
   -5.6930    4.4154   -2.1828 H   0  0  0  0  0  0  0  0  0  0  0  0
   -6.5053    3.0495   -1.3375 H   0  0  0  0  0  0  0  0  0  0  0  0
   -6.3793    4.6499   -0.5500 H   0  0  0  0  0  0  0  0  0  0  0  0
   -2.5947    0.7125   -3.5192 H   0  0  0  0  0  0  0  0  0  0  0  0
  1  2  1  0
  2  3  1  0
  3  4  1  0
  4  5  1  0
  5  6  1  0
  6  7  2  0
  7  8  1  0
  8  9  1  0
  9 10  2  0
  9 11  2  0
  9 12  1  0
 12 13  1  0
 13 14  1  0
 14 15  1  0
 15 16  1  0
 16 17  1  0
 17 18  1  0
 18 19  2  0
 18 20  1  0
 15 21  1  0
 21 22  1  0
 22 23  1  0
 23 24  2  0
 23 25  1  0
 15 26  1  0
 26 27  1  0
  8 28  2  0
 28 29  1  0
 29 30  1  0
 30 31  2  0
 31 32  1  0
 32 33  1  0
 33 34  1  0
 34 35  1  0
 35 36  1  0
 33 37  2  0
 37 38  1  0
 38 39  1  0
 38 40  1  0
 40 41  1  0
 41 42  2  0
 41 43  1  0
 29  5  2  0
 43 30  1  0
 27 12  1  0
 40 32  2  0
  1 44  1  0
  1 45  1  0
  1 46  1  0
  2 47  1  0
  2 48  1  0
  3 49  1  0
  3 50  1  0
  6 51  1  0
  7 52  1  0
 13 53  1  0
 13 54  1  0
 14 55  1  0
 14 56  1  0
 16 57  1  0
 16 58  1  0
 21 59  1  0
 21 60  1  0
 26 61  1  0
 26 62  1  0
 27 63  1  0
 27 64  1  0
 28 65  1  0
 34 66  1  0
 34 67  1  0
 35 68  1  0
 35 69  1  0
 36 70  1  0
 36 71  1  0
 36 72  1  0
 37 73  1  0
 39 74  1  0
 39 75  1  0
 39 76  1  0
 43 77  1  0
M  CHG  4  18   1  20  -1  23   1  25  -1
M  END
$$$$
