
     RDKit          3D

 61 64  0  0  0  0  0  0  0  0999 V2000
    5.5679   -0.7584    1.8630 C   0  0  0  0  0  0  0  0  0  0  0  0
    5.8173    0.7425    1.8670 C   0  0  0  0  0  0  0  0  0  0  0  0
    4.5546    1.5592    1.5845 C   0  0  0  0  0  0  0  0  0  0  0  0
    4.0456    1.4166    0.1899 C   0  0  0  0  0  0  0  0  0  0  0  0
    4.7046    1.9787   -0.8380 N   0  0  0  0  0  0  0  0  0  0  0  0
    3.9559    1.6560   -1.9159 N   0  0  0  0  0  0  0  0  0  0  0  0
    4.3684    2.0916   -3.2290 C   0  0  0  0  0  0  0  0  0  0  0  0
    2.8399    0.9365   -1.6111 C   0  0  0  0  0  0  0  0  0  0  0  0
    1.7924    0.4196   -2.3258 C   0  0  0  0  0  0  0  0  0  0  0  0
    1.6563    0.5497   -3.6743 O   0  0  0  0  0  0  0  0  0  0  0  0
    0.8157   -0.2427   -1.7041 N   0  0  0  0  0  0  0  0  0  0  0  0
    0.9418   -0.4134   -0.3657 C   0  0  0  0  0  0  0  0  0  0  0  0
   -0.1713   -1.0928    0.3018 C   0  0  0  0  0  0  0  0  0  0  0  0
   -1.4561   -0.5074    0.2820 C   0  0  0  0  0  0  0  0  0  0  0  0
   -2.5489   -1.1252    0.9064 C   0  0  0  0  0  0  0  0  0  0  0  0
   -3.9249   -0.5304    0.9026 C   0  0  0  0  0  0  0  0  0  0  0  0
   -4.8067   -1.1111    1.5343 O   0  0  0  0  0  0  0  0  0  0  0  0
   -4.1461    0.7645    0.1057 C   0  0  0  0  0  0  0  0  0  0  0  0
   -5.5479    1.2293    0.1466 N   0  0  0  0  0  0  0  0  0  0  0  0
   -6.4669    0.3719   -0.6373 C   0  0  0  0  0  0  0  0  0  0  0  0
   -6.3472    0.5478   -2.1619 C   0  0  0  0  0  0  0  0  0  0  0  0
   -6.4974    1.9182   -2.5517 O   0  0  0  0  0  0  0  0  0  0  0  0
   -5.5507    2.7505   -1.8732 C   0  0  0  0  0  0  0  0  0  0  0  0
   -5.6791    2.6165   -0.3470 C   0  0  0  0  0  0  0  0  0  0  0  0
   -2.3568   -2.3519    1.5547 C   0  0  0  0  0  0  0  0  0  0  0  0
   -1.0974   -2.9513    1.5767 C   0  0  0  0  0  0  0  0  0  0  0  0
   -0.0105   -2.3166    0.9700 C   0  0  0  0  0  0  0  0  0  0  0  0
    1.1975   -2.9655    0.9301 O   0  0  0  0  0  0  0  0  0  0  0  0
    1.8466   -2.9372    2.2069 C   0  0  0  0  0  0  0  0  0  0  0  0
    3.1641   -3.6779    2.0714 C   0  0  0  0  0  0  0  0  0  0  0  0
    1.9217    0.0646    0.4282 N   0  0  0  0  0  0  0  0  0  0  0  0
    2.8740    0.7483   -0.2433 C   0  0  0  0  0  0  0  0  0  0  0  0
    4.7935   -1.0271    2.5882 H   0  0  0  0  0  0  0  0  0  0  0  0
    6.4840   -1.2933    2.1329 H   0  0  0  0  0  0  0  0  0  0  0  0
    5.2552   -1.1095    0.8751 H   0  0  0  0  0  0  0  0  0  0  0  0
    6.6009    0.9815    1.1383 H   0  0  0  0  0  0  0  0  0  0  0  0
    6.2028    1.0266    2.8535 H   0  0  0  0  0  0  0  0  0  0  0  0
    4.7747    2.6191    1.7666 H   0  0  0  0  0  0  0  0  0  0  0  0
    3.7702    1.2839    2.3003 H   0  0  0  0  0  0  0  0  0  0  0  0
    3.6028    2.7621   -3.6268 H   0  0  0  0  0  0  0  0  0  0  0  0
    5.3223    2.6206   -3.1551 H   0  0  0  0  0  0  0  0  0  0  0  0
    4.4838    1.2113   -3.8659 H   0  0  0  0  0  0  0  0  0  0  0  0
    0.8380    0.0418   -3.8237 H   0  0  0  0  0  0  0  0  0  0  0  0
   -1.5667    0.4442   -0.2322 H   0  0  0  0  0  0  0  0  0  0  0  0
   -3.8060    0.6143   -0.9238 H   0  0  0  0  0  0  0  0  0  0  0  0
   -3.5157    1.5247    0.5834 H   0  0  0  0  0  0  0  0  0  0  0  0
   -7.4889    0.6431   -0.3415 H   0  0  0  0  0  0  0  0  0  0  0  0
   -6.3533   -0.6860   -0.3809 H   0  0  0  0  0  0  0  0  0  0  0  0
   -5.3891    0.1720   -2.5379 H   0  0  0  0  0  0  0  0  0  0  0  0
   -7.1386   -0.0222   -2.6595 H   0  0  0  0  0  0  0  0  0  0  0  0
   -5.7521    3.7851   -2.1692 H   0  0  0  0  0  0  0  0  0  0  0  0
   -4.5404    2.5016   -2.2173 H   0  0  0  0  0  0  0  0  0  0  0  0
   -6.6728    2.9766   -0.0503 H   0  0  0  0  0  0  0  0  0  0  0  0
   -4.9574    3.2739    0.1520 H   0  0  0  0  0  0  0  0  0  0  0  0
   -3.1928   -2.8571    2.0368 H   0  0  0  0  0  0  0  0  0  0  0  0
   -0.9729   -3.9213    2.0510 H   0  0  0  0  0  0  0  0  0  0  0  0
    2.0359   -1.9016    2.5127 H   0  0  0  0  0  0  0  0  0  0  0  0
    1.2348   -3.4324    2.9697 H   0  0  0  0  0  0  0  0  0  0  0  0
    3.7795   -3.2316    1.2839 H   0  0  0  0  0  0  0  0  0  0  0  0
    2.9903   -4.7204    1.7846 H   0  0  0  0  0  0  0  0  0  0  0  0
    3.7212   -3.6597    3.0122 H   0  0  0  0  0  0  0  0  0  0  0  0
  1  2  1  0
  2  3  1  0
  3  4  1  0
  4  5  2  0
  5  6  1  0
  6  7  1  0
  6  8  1  0
  8  9  2  0
  9 10  1  0
  9 11  1  0
 11 12  2  0
 12 13  1  0
 13 14  1  0
 14 15  2  0
 15 16  1  0
 16 17  2  0
 16 18  1  0
 18 19  1  0
 19 20  1  0
 20 21  1  0
 21 22  1  0
 22 23  1  0
 23 24  1  0
 15 25  1  0
 25 26  2  0
 26 27  1  0
 27 28  1  0
 28 29  1  0
 29 30  1  0
 12 31  1  0
 31 32  2  0
 32  4  1  0
 32  8  1  0
 27 13  2  0
 24 19  1  0
  1 33  1  0
  1 34  1  0
  1 35  1  0
  2 36  1  0
  2 37  1  0
  3 38  1  0
  3 39  1  0
  7 40  1  0
  7 41  1  0
  7 42  1  0
 10 43  1  0
 14 44  1  0
 18 45  1  0
 18 46  1  0
 20 47  1  0
 20 48  1  0
 21 49  1  0
 21 50  1  0
 23 51  1  0
 23 52  1  0
 24 53  1  0
 24 54  1  0
 25 55  1  0
 26 56  1  0
 29 57  1  0
 29 58  1  0
 30 59  1  0
 30 60  1  0
 30 61  1  0
M  END
$$$$
