
     RDKit          3D

 76 79  0  0  0  0  0  0  0  0999 V2000
   -4.1862    1.5946   -5.2817 C   0  0  0  0  0  0  0  0  0  0  0  0
   -3.8357    0.1600   -5.6464 C   0  0  0  0  0  0  0  0  0  0  0  0
   -3.1634   -0.5950   -4.5020 C   0  0  0  0  0  0  0  0  0  0  0  0
   -1.9194    0.0496   -4.1744 O   0  0  0  0  0  0  0  0  0  0  0  0
   -1.2033   -0.7203   -3.2901 C   0  0  0  0  0  0  0  0  0  0  0  0
   -0.4460   -1.7757   -3.8145 C   0  0  0  0  0  0  0  0  0  0  0  0
    0.2994   -2.5908   -2.9651 C   0  0  0  0  0  0  0  0  0  0  0  0
    0.2950   -2.3354   -1.5922 C   0  0  0  0  0  0  0  0  0  0  0  0
    1.2245   -3.3985   -0.5141 S   0  0  0  0  0  0  0  0  0  0  0  0
    1.1530   -4.7349   -1.0654 O   0  0  0  0  0  0  0  0  0  0  0  0
    0.8308   -3.1334    0.8529 O   0  0  0  0  0  0  0  0  0  0  0  0
    2.8196   -2.8240   -0.7134 N   0  0  0  0  0  0  0  0  0  0  0  0
    3.0312   -1.3896   -0.3245 C   0  0  0  0  0  0  0  0  0  0  0  0
    4.5109   -1.0890   -0.0141 C   0  0  0  0  0  0  0  0  0  0  0  0
    5.0960   -1.8997    1.0754 N   0  0  0  0  0  0  0  0  0  0  0  0
    5.1438   -1.2022    2.3683 C   0  0  0  0  0  0  0  0  0  0  0  0
    6.2738   -0.1633    2.4111 C   0  0  0  0  0  0  0  0  0  0  0  0
    6.3419    0.5500    3.7620 C   0  0  0  0  0  0  0  0  0  0  0  0
    6.6659   -0.3973    4.7751 O   0  0  0  0  0  0  0  0  0  0  0  0
    6.7633    0.1906    6.0594 N   0  0  0  0  0  0  0  0  0  0  0  0
    6.5579    1.4025    6.1425 O   0  0  0  0  0  0  0  0  0  0  0  0
    7.0451   -0.6242    6.9355 O   0  0  0  0  0  0  0  0  0  0  0  0
    4.3854   -3.1923    1.2143 C   0  0  0  0  0  0  0  0  0  0  0  0
    3.8598   -3.7349   -0.1249 C   0  0  0  0  0  0  0  0  0  0  0  0
   -0.4460   -1.2744   -1.0618 C   0  0  0  0  0  0  0  0  0  0  0  0
   -1.1826   -0.4355   -1.9140 C   0  0  0  0  0  0  0  0  0  0  0  0
   -1.9000    0.7237   -1.2949 C   0  0  0  0  0  0  0  0  0  0  0  0
   -2.1327    0.7225   -0.0127 N   0  0  0  0  0  0  0  0  0  0  0  0
   -2.7988    1.8565    0.4532 C   0  0  0  0  0  0  0  0  0  0  0  0
   -3.1912    2.1235    1.7804 C   0  0  0  0  0  0  0  0  0  0  0  0
   -2.9801    1.2613    2.9808 C   0  0  0  0  0  0  0  0  0  0  0  0
   -3.9203    0.0553    3.0469 C   0  0  0  0  0  0  0  0  0  0  0  0
   -5.3749    0.4413    3.2768 C   0  0  0  0  0  0  0  0  0  0  0  0
   -3.8106    3.3653    1.7361 C   0  0  0  0  0  0  0  0  0  0  0  0
   -3.7990    3.8182    0.4364 N   0  0  0  0  0  0  0  0  0  0  0  0
   -4.3580    5.0717   -0.0162 C   0  0  0  0  0  0  0  0  0  0  0  0
   -3.1754    2.8932   -0.3554 C   0  0  0  0  0  0  0  0  0  0  0  0
   -2.9139    2.8965   -1.7556 C   0  0  0  0  0  0  0  0  0  0  0  0
   -3.2268    3.7820   -2.5438 O   0  0  0  0  0  0  0  0  0  0  0  0
   -2.2522    1.7581   -2.1510 N   0  0  0  0  0  0  0  0  0  0  0  0
   -3.2862    2.1869   -5.0925 H   0  0  0  0  0  0  0  0  0  0  0  0
   -4.8197    1.6302   -4.3899 H   0  0  0  0  0  0  0  0  0  0  0  0
   -4.7301    2.0702   -6.1039 H   0  0  0  0  0  0  0  0  0  0  0  0
   -3.1679    0.1767   -6.5155 H   0  0  0  0  0  0  0  0  0  0  0  0
   -4.7489   -0.3701   -5.9388 H   0  0  0  0  0  0  0  0  0  0  0  0
   -3.8162   -0.6014   -3.6202 H   0  0  0  0  0  0  0  0  0  0  0  0
   -2.9939   -1.6304   -4.8228 H   0  0  0  0  0  0  0  0  0  0  0  0
   -0.4413   -1.9663   -4.8854 H   0  0  0  0  0  0  0  0  0  0  0  0
    0.8764   -3.4190   -3.3726 H   0  0  0  0  0  0  0  0  0  0  0  0
    2.7144   -0.7584   -1.1619 H   0  0  0  0  0  0  0  0  0  0  0  0
    2.4252   -1.1286    0.5501 H   0  0  0  0  0  0  0  0  0  0  0  0
    4.6225   -0.0153    0.1714 H   0  0  0  0  0  0  0  0  0  0  0  0
    5.0993   -1.2938   -0.9181 H   0  0  0  0  0  0  0  0  0  0  0  0
    4.1776   -0.7342    2.5961 H   0  0  0  0  0  0  0  0  0  0  0  0
    5.3373   -1.9341    3.1632 H   0  0  0  0  0  0  0  0  0  0  0  0
    7.2289   -0.6703    2.2238 H   0  0  0  0  0  0  0  0  0  0  0  0
    6.1414    0.5916    1.6291 H   0  0  0  0  0  0  0  0  0  0  0  0
    5.3747    1.0227    3.9731 H   0  0  0  0  0  0  0  0  0  0  0  0
    7.1226    1.3187    3.7070 H   0  0  0  0  0  0  0  0  0  0  0  0
    3.5371   -3.0936    1.9049 H   0  0  0  0  0  0  0  0  0  0  0  0
    5.0771   -3.9228    1.6493 H   0  0  0  0  0  0  0  0  0  0  0  0
    3.4644   -4.7453    0.0232 H   0  0  0  0  0  0  0  0  0  0  0  0
    4.6756   -3.8306   -0.8519 H   0  0  0  0  0  0  0  0  0  0  0  0
   -0.4391   -1.0922    0.0123 H   0  0  0  0  0  0  0  0  0  0  0  0
   -1.9441    0.8991    2.9725 H   0  0  0  0  0  0  0  0  0  0  0  0
   -3.0864    1.8615    3.8932 H   0  0  0  0  0  0  0  0  0  0  0  0
   -3.5994   -0.5905    3.8731 H   0  0  0  0  0  0  0  0  0  0  0  0
   -3.8457   -0.5414    2.1302 H   0  0  0  0  0  0  0  0  0  0  0  0
   -5.4832    1.0414    4.1858 H   0  0  0  0  0  0  0  0  0  0  0  0
   -5.7760    1.0132    2.4346 H   0  0  0  0  0  0  0  0  0  0  0  0
   -5.9884   -0.4583    3.3902 H   0  0  0  0  0  0  0  0  0  0  0  0
   -4.2597    3.9533    2.5264 H   0  0  0  0  0  0  0  0  0  0  0  0
   -5.1356    4.8581   -0.7538 H   0  0  0  0  0  0  0  0  0  0  0  0
   -3.5563    5.6701   -0.4559 H   0  0  0  0  0  0  0  0  0  0  0  0
   -4.7926    5.6047    0.8334 H   0  0  0  0  0  0  0  0  0  0  0  0
   -2.0447    1.6922   -3.1386 H   0  0  0  0  0  0  0  0  0  0  0  0
  1  2  1  0
  2  3  1  0
  3  4  1  0
  4  5  1  0
  5  6  1  0
  6  7  2  0
  7  8  1  0
  8  9  1  0
  9 10  2  0
  9 11  2  0
  9 12  1  0
 12 13  1  0
 13 14  1  0
 14 15  1  0
 15 16  1  0
 16 17  1  0
 17 18  1  0
 18 19  1  0
 19 20  1  0
 20 21  2  0
 20 22  1  0
 15 23  1  0
 23 24  1  0
  8 25  2  0
 25 26  1  0
 26 27  1  0
 27 28  2  0
 28 29  1  0
 29 30  1  0
 30 31  1  0
 31 32  1  0
 32 33  1  0
 30 34  2  0
 34 35  1  0
 35 36  1  0
 35 37  1  0
 37 38  1  0
 38 39  2  0
 38 40  1  0
 26  5  2  0
 40 27  1  0
 24 12  1  0
 37 29  2  0
  1 41  1  0
  1 42  1  0
  1 43  1  0
  2 44  1  0
  2 45  1  0
  3 46  1  0
  3 47  1  0
  6 48  1  0
  7 49  1  0
 13 50  1  0
 13 51  1  0
 14 52  1  0
 14 53  1  0
 16 54  1  0
 16 55  1  0
 17 56  1  0
 17 57  1  0
 18 58  1  0
 18 59  1  0
 23 60  1  0
 23 61  1  0
 24 62  1  0
 24 63  1  0
 25 64  1  0
 31 65  1  0
 31 66  1  0
 32 67  1  0
 32 68  1  0
 33 69  1  0
 33 70  1  0
 33 71  1  0
 34 72  1  0
 36 73  1  0
 36 74  1  0
 36 75  1  0
 40 76  1  0
M  CHG  2  20   1  22  -1
M  END
$$$$
