
     RDKit          3D

 40 43  0  0  0  0  0  0  0  0999 V2000
   -4.3792    1.9348   -0.1923 C   0  0  0  0  0  0  0  0  0  0  0  0
   -4.6824    0.8212   -0.9736 C   0  0  0  0  0  0  0  0  0  0  0  0
   -3.6801    0.1947   -1.7158 C   0  0  0  0  0  0  0  0  0  0  0  0
   -2.3652    0.6815   -1.6881 C   0  0  0  0  0  0  0  0  0  0  0  0
   -1.2795   -0.0071   -2.4809 C   0  0  0  0  0  0  0  0  0  0  0  0
   -0.9506   -1.2737   -1.9079 O   0  0  0  0  0  0  0  0  0  0  0  0
   -0.0348   -1.2236   -0.8710 C   0  0  0  0  0  0  0  0  0  0  0  0
    0.7574   -0.1437   -0.7617 N   0  0  0  0  0  0  0  0  0  0  0  0
    1.6412   -0.1555    0.2486 C   0  0  0  0  0  0  0  0  0  0  0  0
    2.5139    1.0265    0.4121 C   0  0  0  0  0  0  0  0  0  0  0  0
    2.4816    2.0987   -0.5017 C   0  0  0  0  0  0  0  0  0  0  0  0
    3.3047    3.2192   -0.3470 C   0  0  0  0  0  0  0  0  0  0  0  0
    4.1834    3.2945    0.7290 C   0  0  0  0  0  0  0  0  0  0  0  0
    4.2398    2.2516    1.6481 C   0  0  0  0  0  0  0  0  0  0  0  0
    3.4150    1.1328    1.4897 C   0  0  0  0  0  0  0  0  0  0  0  0
    1.7854   -1.1690    1.1236 N   0  0  0  0  0  0  0  0  0  0  0  0
    0.9951   -2.2392    0.9779 C   0  0  0  0  0  0  0  0  0  0  0  0
    1.1262   -3.3046    1.8613 C   0  0  0  0  0  0  0  0  0  0  0  0
    0.3309   -4.4510    1.7616 C   0  0  0  0  0  0  0  0  0  0  0  0
   -0.6237   -4.5448    0.7570 C   0  0  0  0  0  0  0  0  0  0  0  0
   -0.7746   -3.4910   -0.1399 C   0  0  0  0  0  0  0  0  0  0  0  0
    0.0360   -2.3347   -0.0319 C   0  0  0  0  0  0  0  0  0  0  0  0
   -2.0705    1.7967   -0.8922 C   0  0  0  0  0  0  0  0  0  0  0  0
   -3.0737    2.4210   -0.1496 C   0  0  0  0  0  0  0  0  0  0  0  0
   -5.1588    2.4203    0.3885 H   0  0  0  0  0  0  0  0  0  0  0  0
   -5.6988    0.4376   -1.0011 H   0  0  0  0  0  0  0  0  0  0  0  0
   -3.9265   -0.6797   -2.3139 H   0  0  0  0  0  0  0  0  0  0  0  0
   -1.6706   -0.2085   -3.4862 H   0  0  0  0  0  0  0  0  0  0  0  0
   -0.4064    0.6366   -2.6467 H   0  0  0  0  0  0  0  0  0  0  0  0
    1.8066    2.0656   -1.3554 H   0  0  0  0  0  0  0  0  0  0  0  0
    3.2575    4.0298   -1.0696 H   0  0  0  0  0  0  0  0  0  0  0  0
    4.8240    4.1638    0.8507 H   0  0  0  0  0  0  0  0  0  0  0  0
    4.9245    2.3037    2.4907 H   0  0  0  0  0  0  0  0  0  0  0  0
    3.4798    0.3317    2.2249 H   0  0  0  0  0  0  0  0  0  0  0  0
    1.8703   -3.2416    2.6525 H   0  0  0  0  0  0  0  0  0  0  0  0
    0.4613   -5.2644    2.4709 H   0  0  0  0  0  0  0  0  0  0  0  0
   -1.2478   -5.4306    0.6722 H   0  0  0  0  0  0  0  0  0  0  0  0
   -1.5241   -3.5612   -0.9256 H   0  0  0  0  0  0  0  0  0  0  0  0
   -1.0531    2.1785   -0.8377 H   0  0  0  0  0  0  0  0  0  0  0  0
   -2.8341    3.2832    0.4672 H   0  0  0  0  0  0  0  0  0  0  0  0
  1  2  2  0
  2  3  1  0
  3  4  2  0
  4  5  1  0
  5  6  1  0
  6  7  1  0
  7  8  1  0
  8  9  2  0
  9 10  1  0
 10 11  2  0
 11 12  1  0
 12 13  2  0
 13 14  1  0
 14 15  2  0
  9 16  1  0
 16 17  2  0
 17 18  1  0
 18 19  2  0
 19 20  1  0
 20 21  2  0
 21 22  1  0
  4 23  1  0
 23 24  2  0
 24  1  1  0
 22  7  2  0
 15 10  1  0
 22 17  1  0
  1 25  1  0
  2 26  1  0
  3 27  1  0
  5 28  1  0
  5 29  1  0
 11 30  1  0
 12 31  1  0
 13 32  1  0
 14 33  1  0
 15 34  1  0
 18 35  1  0
 19 36  1  0
 20 37  1  0
 21 38  1  0
 23 39  1  0
 24 40  1  0
M  END
$$$$
