


 26 29  0  0  0  0  0  0  0  0999 V2000
   -0.2514   63.3450   87.2216 C   0  0  0  0  0  0  0  0  0  0  0  0
   -0.9609   62.3417   86.5645 C   0  0  0  0  0  0  0  0  0  0  0  0
   -1.0699   62.3848   85.1734 C   0  0  0  0  0  0  0  0  0  0  0  0
   -0.4717   63.4240   84.4126 C   0  0  0  0  0  0  0  0  0  0  0  0
   -0.5568   63.5259   83.0192 C   0  0  0  0  0  0  0  0  0  0  0  0
   -1.3946   62.3926   82.0302 Cl  0  0  0  0  0  0  0  0  0  0  0  0
    0.0122   64.5183   82.3123 N   0  0  0  0  0  0  0  0  0  0  0  0
    0.7114   65.4890   82.9678 N   0  0  0  0  0  0  0  0  0  0  0  0
    0.8508   65.4669   84.3115 C   0  0  0  0  0  0  0  0  0  0  0  0
    0.2584   64.4359   85.0810 C   0  0  0  0  0  0  0  0  0  0  0  0
    0.3494   64.3812   86.4947 C   0  0  0  0  0  0  0  0  0  0  0  0
    0.9831   63.5476   89.1745 O   0  0  0  0  0  0  0  0  0  0  0  0
   -0.1306   63.3149   88.6846 N   0  0  0  0  0  0  0  0  0  0  0  0
   -1.1518   63.0665   89.3407 O   0  0  0  0  0  0  0  0  0  0  0  0
    1.6043   66.4676   84.9651 N   0  0  0  0  0  0  0  0  0  0  0  0
    2.0166   66.0623   85.8008 H   0  0  0  0  0  0  0  0  0  0  0  0
    2.6165   67.1403   84.1540 C   0  0  0  0  0  0  0  0  0  0  0  0
    4.0075   66.7111   84.5627 C   0  0  0  0  0  0  0  0  0  0  0  0
    4.1847   65.6118   85.4376 C   0  0  0  0  0  0  0  0  0  0  0  0
    5.4621   65.1982   85.8284 C   0  0  0  0  0  0  0  0  0  0  0  0
    6.5398   65.8994   85.3348 C   0  0  0  0  0  0  0  0  0  0  0  0
    6.3802   66.9712   84.4888 C   0  0  0  0  0  0  0  0  0  0  0  0
    5.1336   67.4024   84.0862 C   0  0  0  0  0  0  0  0  0  0  0  0
    7.5678   67.5230   84.1212 O   0  0  0  0  0  0  0  0  0  0  0  0
    8.4915   66.6821   84.8419 C   0  0  0  0  0  0  0  0  0  0  0  0
    7.8471   65.6422   85.6068 O   0  0  0  0  0  0  0  0  0  0  0  0
 12 13  2  0  0  0
 13 14  1  0  0  0
 13  1  1  0  0  0
  1  2  1  0  0  0
  2  3  2  0  0  0
  3  4  1  0  0  0
  4  5  2  0  0  0
  5  6  1  0  0  0
  5  7  1  0  0  0
  7  8  2  0  0  0
  8  9  1  0  0  0
  9 15  1  0  0  0
 15 17  1  0  0  0
 17 18  1  0  0  0
 18 19  1  0  0  0
 19 20  2  0  0  0
 20 21  1  0  0  0
 21 22  2  0  0  0
 22 23  1  0  0  0
 22 24  1  0  0  0
 24 25  1  0  0  0
 25 26  1  0  0  0
  9 10  2  0  0  0
 10 11  1  0  0  0
 11  1  2  0  0  0
 10  4  1  0  0  0
 23 18  2  0  0  0
 26 21  1  0  0  0
 15 16  1  0  0  0
M  CHG 1  13   1
M  CHG 1  14  -1
M  END
> <minimizedAffinity>
-10.47181

$$$$



 26 29  0  0  0  0  0  0  0  0999 V2000
   -0.2753   63.3550   87.2573 C   0  0  0  0  0  0  0  0  0  0  0  0
   -0.9874   62.3687   86.5775 C   0  0  0  0  0  0  0  0  0  0  0  0
   -1.0744   62.4297   85.1855 C   0  0  0  0  0  0  0  0  0  0  0  0
   -0.4514   63.4699   84.4464 C   0  0  0  0  0  0  0  0  0  0  0  0
   -0.5138   63.5893   83.0532 C   0  0  0  0  0  0  0  0  0  0  0  0
   -1.3507   62.4786   82.0380 Cl  0  0  0  0  0  0  0  0  0  0  0  0
    0.0785   64.5825   82.3670 N   0  0  0  0  0  0  0  0  0  0  0  0
    0.7799   65.5364   83.0446 N   0  0  0  0  0  0  0  0  0  0  0  0
    0.8984   65.4966   84.3899 C   0  0  0  0  0  0  0  0  0  0  0  0
    0.2811   64.4644   85.1378 C   0  0  0  0  0  0  0  0  0  0  0  0
    0.3497   64.3918   86.5520 C   0  0  0  0  0  0  0  0  0  0  0  0
    0.9287   63.5317   89.2316 O   0  0  0  0  0  0  0  0  0  0  0  0
   -0.1774   63.3061   88.7215 N   0  0  0  0  0  0  0  0  0  0  0  0
   -1.2089   63.0501   89.3583 O   0  0  0  0  0  0  0  0  0  0  0  0
    1.6544   66.4798   85.0668 N   0  0  0  0  0  0  0  0  0  0  0  0
    2.2130   66.0186   85.7794 H   0  0  0  0  0  0  0  0  0  0  0  0
    2.4830   67.3419   84.2271 C   0  0  0  0  0  0  0  0  0  0  0  0
    3.9284   67.2965   84.6685 C   0  0  0  0  0  0  0  0  0  0  0  0
    4.4088   68.2208   85.6277 C   0  0  0  0  0  0  0  0  0  0  0  0
    5.7417   68.1964   86.0500 C   0  0  0  0  0  0  0  0  0  0  0  0
    6.5697   67.2444   85.4980 C   0  0  0  0  0  0  0  0  0  0  0  0
    6.1161   66.3450   84.5625 C   0  0  0  0  0  0  0  0  0  0  0  0
    4.8078   66.3446   84.1264 C   0  0  0  0  0  0  0  0  0  0  0  0
    7.0921   65.4947   84.1447 O   0  0  0  0  0  0  0  0  0  0  0  0
    8.2137   65.9700   84.9166 C   0  0  0  0  0  0  0  0  0  0  0  0
    7.8878   67.0743   85.7861 O   0  0  0  0  0  0  0  0  0  0  0  0
 12 13  2  0  0  0
 13 14  1  0  0  0
 13  1  1  0  0  0
  1  2  1  0  0  0
  2  3  2  0  0  0
  3  4  1  0  0  0
  4  5  2  0  0  0
  5  6  1  0  0  0
  5  7  1  0  0  0
  7  8  2  0  0  0
  8  9  1  0  0  0
  9 15  1  0  0  0
 15 17  1  0  0  0
 17 18  1  0  0  0
 18 19  1  0  0  0
 19 20  2  0  0  0
 20 21  1  0  0  0
 21 22  2  0  0  0
 22 23  1  0  0  0
 22 24  1  0  0  0
 24 25  1  0  0  0
 25 26  1  0  0  0
  9 10  2  0  0  0
 10 11  1  0  0  0
 11  1  2  0  0  0
 10  4  1  0  0  0
 23 18  2  0  0  0
 26 21  1  0  0  0
 15 16  1  0  0  0
M  CHG 1  13   1
M  CHG 1  14  -1
M  END
> <minimizedAffinity>
-10.06655

$$$$



 26 29  0  0  0  0  0  0  0  0999 V2000
    3.1935   67.0289   84.0609 C   0  0  0  0  0  0  0  0  0  0  0  0
    3.1044   68.2887   83.4720 C   0  0  0  0  0  0  0  0  0  0  0  0
    2.1520   68.5079   82.4750 C   0  0  0  0  0  0  0  0  0  0  0  0
    1.2699   67.4794   82.0503 C   0  0  0  0  0  0  0  0  0  0  0  0
    0.3045   67.6366   81.0492 C   0  0  0  0  0  0  0  0  0  0  0  0
    0.0458   69.1107   80.1979 Cl  0  0  0  0  0  0  0  0  0  0  0  0
   -0.5219   66.6519   80.6549 N   0  0  0  0  0  0  0  0  0  0  0  0
   -0.4298   65.4261   81.2464 N   0  0  0  0  0  0  0  0  0  0  0  0
    0.4688   65.1859   82.2264 C   0  0  0  0  0  0  0  0  0  0  0  0
    1.3541   66.2037   82.6580 C   0  0  0  0  0  0  0  0  0  0  0  0
    2.3343   65.9968   83.6611 C   0  0  0  0  0  0  0  0  0  0  0  0
    4.4706   65.6041   85.3716 O   0  0  0  0  0  0  0  0  0  0  0  0
    4.1920   66.7821   85.1087 N   0  0  0  0  0  0  0  0  0  0  0  0
    4.7014   67.7675   85.6607 O   0  0  0  0  0  0  0  0  0  0  0  0
    0.5256   63.9164   82.8439 N   0  0  0  0  0  0  0  0  0  0  0  0
    1.0637   64.0022   83.7016 H   0  0  0  0  0  0  0  0  0  0  0  0
   -0.7593   63.2669   83.0935 C   0  0  0  0  0  0  0  0  0  0  0  0
   -1.0404   63.1800   84.5766 C   0  0  0  0  0  0  0  0  0  0  0  0
   -2.2925   62.7052   85.0369 C   0  0  0  0  0  0  0  0  0  0  0  0
   -2.5733   62.6167   86.4039 C   0  0  0  0  0  0  0  0  0  0  0  0
   -1.5908   63.0102   87.2850 C   0  0  0  0  0  0  0  0  0  0  0  0
   -0.3732   63.4775   86.8502 C   0  0  0  0  0  0  0  0  0  0  0  0
   -0.0674   63.5763   85.5090 C   0  0  0  0  0  0  0  0  0  0  0  0
    0.4504   63.8143   87.8789 O   0  0  0  0  0  0  0  0  0  0  0  0
   -0.3931   63.5157   89.0099 C   0  0  0  0  0  0  0  0  0  0  0  0
   -1.6872   62.9950   88.6414 O   0  0  0  0  0  0  0  0  0  0  0  0
 12 13  2  0  0  0
 13 14  1  0  0  0
 13  1  1  0  0  0
  1  2  1  0  0  0
  2  3  2  0  0  0
  3  4  1  0  0  0
  4  5  2  0  0  0
  5  6  1  0  0  0
  5  7  1  0  0  0
  7  8  2  0  0  0
  8  9  1  0  0  0
  9 15  1  0  0  0
 15 17  1  0  0  0
 17 18  1  0  0  0
 18 19  1  0  0  0
 19 20  2  0  0  0
 20 21  1  0  0  0
 21 22  2  0  0  0
 22 23  1  0  0  0
 22 24  1  0  0  0
 24 25  1  0  0  0
 25 26  1  0  0  0
  9 10  2  0  0  0
 10 11  1  0  0  0
 11  1  2  0  0  0
 10  4  1  0  0  0
 23 18  2  0  0  0
 26 21  1  0  0  0
 15 16  1  0  0  0
M  CHG 1  13   1
M  CHG 1  14  -1
M  END
> <minimizedAffinity>
-9.81166

$$$$



 26 29  0  0  0  0  0  0  0  0999 V2000
   -0.0906   63.4609   86.0868 C   0  0  0  0  0  0  0  0  0  0  0  0
   -0.5542   62.2486   85.5794 C   0  0  0  0  0  0  0  0  0  0  0  0
   -0.5991   62.0625   84.1965 C   0  0  0  0  0  0  0  0  0  0  0  0
   -0.1800   63.0771   83.2957 C   0  0  0  0  0  0  0  0  0  0  0  0
   -0.2131   62.9524   81.9020 C   0  0  0  0  0  0  0  0  0  0  0  0
   -0.7599   61.5392   81.0843 Cl  0  0  0  0  0  0  0  0  0  0  0  0
    0.1839   63.9237   81.0611 N   0  0  0  0  0  0  0  0  0  0  0  0
    0.6440   65.1020   81.5718 N   0  0  0  0  0  0  0  0  0  0  0  0
    0.7170   65.3077   82.9052 C   0  0  0  0  0  0  0  0  0  0  0  0
    0.3015   64.3035   83.8133 C   0  0  0  0  0  0  0  0  0  0  0  0
    0.3300   64.4781   85.2200 C   0  0  0  0  0  0  0  0  0  0  0  0
    1.0613   63.9279   88.0448 O   0  0  0  0  0  0  0  0  0  0  0  0
   -0.0402   63.6726   87.5389 N   0  0  0  0  0  0  0  0  0  0  0  0
   -1.1039   63.5910   88.1689 O   0  0  0  0  0  0  0  0  0  0  0  0
    1.2243   66.5258   83.4104 N   0  0  0  0  0  0  0  0  0  0  0  0
    1.1105   66.5248   84.4201 H   0  0  0  0  0  0  0  0  0  0  0  0
    2.5992   66.8512   83.0377 C   0  0  0  0  0  0  0  0  0  0  0  0
    3.5057   66.8277   84.2476 C   0  0  0  0  0  0  0  0  0  0  0  0
    3.9624   68.0405   84.8182 C   0  0  0  0  0  0  0  0  0  0  0  0
    4.8013   68.0415   85.9371 C   0  0  0  0  0  0  0  0  0  0  0  0
    5.1691   66.8223   86.4613 C   0  0  0  0  0  0  0  0  0  0  0  0
    4.7362   65.6381   85.9131 C   0  0  0  0  0  0  0  0  0  0  0  0
    3.9089   65.6053   84.8101 C   0  0  0  0  0  0  0  0  0  0  0  0
    5.2155   64.5529   86.5783 O   0  0  0  0  0  0  0  0  0  0  0  0
    6.0083   65.1904   87.6005 C   0  0  0  0  0  0  0  0  0  0  0  0
    5.9757   66.6315   87.5393 O   0  0  0  0  0  0  0  0  0  0  0  0
 12 13  2  0  0  0
 13 14  1  0  0  0
 13  1  1  0  0  0
  1  2  1  0  0  0
  2  3  2  0  0  0
  3  4  1  0  0  0
  4  5  2  0  0  0
  5  6  1  0  0  0
  5  7  1  0  0  0
  7  8  2  0  0  0
  8  9  1  0  0  0
  9 15  1  0  0  0
 15 17  1  0  0  0
 17 18  1  0  0  0
 18 19  1  0  0  0
 19 20  2  0  0  0
 20 21  1  0  0  0
 21 22  2  0  0  0
 22 23  1  0  0  0
 22 24  1  0  0  0
 24 25  1  0  0  0
 25 26  1  0  0  0
  9 10  2  0  0  0
 10 11  1  0  0  0
 11  1  2  0  0  0
 10  4  1  0  0  0
 23 18  2  0  0  0
 26 21  1  0  0  0
 15 16  1  0  0  0
M  CHG 1  13   1
M  CHG 1  14  -1
M  END
> <minimizedAffinity>
-9.78722

$$$$



 26 29  0  0  0  0  0  0  0  0999 V2000
    0.6659   64.9885   83.7135 C   0  0  0  0  0  0  0  0  0  0  0  0
    1.1217   65.1772   85.0168 C   0  0  0  0  0  0  0  0  0  0  0  0
    0.5588   64.4258   86.0500 C   0  0  0  0  0  0  0  0  0  0  0  0
   -0.4636   63.4715   85.8036 C   0  0  0  0  0  0  0  0  0  0  0  0
   -1.0727   62.6986   86.7989 C   0  0  0  0  0  0  0  0  0  0  0  0
   -0.6558   62.7922   88.4669 Cl  0  0  0  0  0  0  0  0  0  0  0  0
   -2.0426   61.8009   86.5508 N   0  0  0  0  0  0  0  0  0  0  0  0
   -2.4729   61.6200   85.2690 N   0  0  0  0  0  0  0  0  0  0  0  0
   -1.9368   62.3182   84.2440 C   0  0  0  0  0  0  0  0  0  0  0  0
   -0.9170   63.2729   84.4774 C   0  0  0  0  0  0  0  0  0  0  0  0
   -0.3410   64.0526   83.4429 C   0  0  0  0  0  0  0  0  0  0  0  0
    1.9419   66.7536   82.9165 O   0  0  0  0  0  0  0  0  0  0  0  0
    1.2461   65.7735   82.6167 N   0  0  0  0  0  0  0  0  0  0  0  0
    1.0113   65.4032   81.4579 O   0  0  0  0  0  0  0  0  0  0  0  0
   -2.3789   62.0924   82.9211 N   0  0  0  0  0  0  0  0  0  0  0  0
   -2.1451   62.9084   82.3626 H   0  0  0  0  0  0  0  0  0  0  0  0
   -1.8998   60.8669   82.2857 C   0  0  0  0  0  0  0  0  0  0  0  0
   -1.2927   61.1628   80.9329 C   0  0  0  0  0  0  0  0  0  0  0  0
    0.0344   61.6478   80.8394 C   0  0  0  0  0  0  0  0  0  0  0  0
    0.6152   61.9280   79.5986 C   0  0  0  0  0  0  0  0  0  0  0  0
   -0.1498   61.7184   78.4728 C   0  0  0  0  0  0  0  0  0  0  0  0
   -1.4409   61.2526   78.5511 C   0  0  0  0  0  0  0  0  0  0  0  0
   -2.0406   60.9678   79.7600 C   0  0  0  0  0  0  0  0  0  0  0  0
   -2.0190   61.1184   77.3273 O   0  0  0  0  0  0  0  0  0  0  0  0
   -0.9471   61.5638   76.4714 C   0  0  0  0  0  0  0  0  0  0  0  0
    0.2468   61.9368   77.1905 O   0  0  0  0  0  0  0  0  0  0  0  0
 12 13  2  0  0  0
 13 14  1  0  0  0
 13  1  1  0  0  0
  1  2  1  0  0  0
  2  3  2  0  0  0
  3  4  1  0  0  0
  4  5  2  0  0  0
  5  6  1  0  0  0
  5  7  1  0  0  0
  7  8  2  0  0  0
  8  9  1  0  0  0
  9 15  1  0  0  0
 15 17  1  0  0  0
 17 18  1  0  0  0
 18 19  1  0  0  0
 19 20  2  0  0  0
 20 21  1  0  0  0
 21 22  2  0  0  0
 22 23  1  0  0  0
 22 24  1  0  0  0
 24 25  1  0  0  0
 25 26  1  0  0  0
  9 10  2  0  0  0
 10 11  1  0  0  0
 11  1  2  0  0  0
 10  4  1  0  0  0
 23 18  2  0  0  0
 26 21  1  0  0  0
 15 16  1  0  0  0
M  CHG 1  13   1
M  CHG 1  14  -1
M  END
> <minimizedAffinity>
-9.73022

$$$$



 26 29  0  0  0  0  0  0  0  0999 V2000
    4.5664   66.4006   85.5697 C   0  0  0  0  0  0  0  0  0  0  0  0
    4.8711   67.7597   85.5275 C   0  0  0  0  0  0  0  0  0  0  0  0
    4.1439   68.5940   84.6765 C   0  0  0  0  0  0  0  0  0  0  0  0
    3.0993   68.0912   83.8565 C   0  0  0  0  0  0  0  0  0  0  0  0
    2.3448   68.8759   82.9766 C   0  0  0  0  0  0  0  0  0  0  0  0
    2.5746   70.5703   82.7747 Cl  0  0  0  0  0  0  0  0  0  0  0  0
    1.3605   68.3848   82.2033 N   0  0  0  0  0  0  0  0  0  0  0  0
    1.0669   67.0538   82.2613 N   0  0  0  0  0  0  0  0  0  0  0  0
    1.7395   66.2225   83.0872 C   0  0  0  0  0  0  0  0  0  0  0  0
    2.7836   66.7123   83.9093 C   0  0  0  0  0  0  0  0  0  0  0  0
    3.5397   65.8789   84.7717 C   0  0  0  0  0  0  0  0  0  0  0  0
    5.4748   65.8641   87.6351 O   0  0  0  0  0  0  0  0  0  0  0  0
    5.3243   65.5101   86.4576 N   0  0  0  0  0  0  0  0  0  0  0  0
    5.7604   64.4546   85.9772 O   0  0  0  0  0  0  0  0  0  0  0  0
    1.3977   64.8530   83.1509 N   0  0  0  0  0  0  0  0  0  0  0  0
    1.9952   64.4065   83.8409 H   0  0  0  0  0  0  0  0  0  0  0  0
   -0.0101   64.5549   83.4043 C   0  0  0  0  0  0  0  0  0  0  0  0
   -0.1844   63.8738   84.7429 C   0  0  0  0  0  0  0  0  0  0  0  0
   -1.0913   62.7949   84.8796 C   0  0  0  0  0  0  0  0  0  0  0  0
   -1.2679   62.1510   86.1083 C   0  0  0  0  0  0  0  0  0  0  0  0
   -0.5313   62.6052   87.1796 C   0  0  0  0  0  0  0  0  0  0  0  0
    0.3485   63.6548   87.0605 C   0  0  0  0  0  0  0  0  0  0  0  0
    0.5438   64.3094   85.8624 C   0  0  0  0  0  0  0  0  0  0  0  0
    0.9709   63.9456   88.2344 O   0  0  0  0  0  0  0  0  0  0  0  0
    0.3731   62.9658   89.1076 C   0  0  0  0  0  0  0  0  0  0  0  0
   -0.5743   62.1040   88.4431 O   0  0  0  0  0  0  0  0  0  0  0  0
 12 13  2  0  0  0
 13 14  1  0  0  0
 13  1  1  0  0  0
  1  2  1  0  0  0
  2  3  2  0  0  0
  3  4  1  0  0  0
  4  5  2  0  0  0
  5  6  1  0  0  0
  5  7  1  0  0  0
  7  8  2  0  0  0
  8  9  1  0  0  0
  9 15  1  0  0  0
 15 17  1  0  0  0
 17 18  1  0  0  0
 18 19  1  0  0  0
 19 20  2  0  0  0
 20 21  1  0  0  0
 21 22  2  0  0  0
 22 23  1  0  0  0
 22 24  1  0  0  0
 24 25  1  0  0  0
 25 26  1  0  0  0
  9 10  2  0  0  0
 10 11  1  0  0  0
 11  1  2  0  0  0
 10  4  1  0  0  0
 23 18  2  0  0  0
 26 21  1  0  0  0
 15 16  1  0  0  0
M  CHG 1  13   1
M  CHG 1  14  -1
M  END
> <minimizedAffinity>
-9.64994

$$$$



 26 29  0  0  0  0  0  0  0  0999 V2000
   -0.4492   63.3015   84.7331 C   0  0  0  0  0  0  0  0  0  0  0  0
    0.2656   64.0440   85.6710 C   0  0  0  0  0  0  0  0  0  0  0  0
    0.9531   65.1854   85.2544 C   0  0  0  0  0  0  0  0  0  0  0  0
    0.9376   65.6096   83.8993 C   0  0  0  0  0  0  0  0  0  0  0  0
    1.6160   66.7368   83.4215 C   0  0  0  0  0  0  0  0  0  0  0  0
    2.5591   67.7756   84.4196 Cl  0  0  0  0  0  0  0  0  0  0  0  0
    1.5950   67.1243   82.1341 N   0  0  0  0  0  0  0  0  0  0  0  0
    0.8838   66.3931   81.2283 N   0  0  0  0  0  0  0  0  0  0  0  0
    0.1931   65.2936   81.6018 C   0  0  0  0  0  0  0  0  0  0  0  0
    0.2014   64.8606   82.9503 C   0  0  0  0  0  0  0  0  0  0  0  0
   -0.4817   63.6987   83.3899 C   0  0  0  0  0  0  0  0  0  0  0  0
   -1.9116   61.5485   84.3244 O   0  0  0  0  0  0  0  0  0  0  0  0
   -1.1748   62.0970   85.1555 N   0  0  0  0  0  0  0  0  0  0  0  0
   -0.9998   61.6977   86.3153 O   0  0  0  0  0  0  0  0  0  0  0  0
   -0.5598   64.5692   80.6506 N   0  0  0  0  0  0  0  0  0  0  0  0
   -1.3202   65.1608   80.3276 H   0  0  0  0  0  0  0  0  0  0  0  0
    0.1906   64.0177   79.5246 C   0  0  0  0  0  0  0  0  0  0  0  0
   -0.3689   62.6758   79.1094 C   0  0  0  0  0  0  0  0  0  0  0  0
   -1.2668   61.9855   79.9594 C   0  0  0  0  0  0  0  0  0  0  0  0
   -1.7961   60.7435   79.5950 C   0  0  0  0  0  0  0  0  0  0  0  0
   -1.4107   60.2153   78.3829 C   0  0  0  0  0  0  0  0  0  0  0  0
   -0.5359   60.8736   77.5514 C   0  0  0  0  0  0  0  0  0  0  0  0
    0.0025   62.0991   77.8836 C   0  0  0  0  0  0  0  0  0  0  0  0
   -0.2856   60.1803   76.4084 O   0  0  0  0  0  0  0  0  0  0  0  0
   -1.0946   59.0056   76.6217 C   0  0  0  0  0  0  0  0  0  0  0  0
   -1.8202   59.0249   77.8686 O   0  0  0  0  0  0  0  0  0  0  0  0
 12 13  2  0  0  0
 13 14  1  0  0  0
 13  1  1  0  0  0
  1  2  1  0  0  0
  2  3  2  0  0  0
  3  4  1  0  0  0
  4  5  2  0  0  0
  5  6  1  0  0  0
  5  7  1  0  0  0
  7  8  2  0  0  0
  8  9  1  0  0  0
  9 15  1  0  0  0
 15 17  1  0  0  0
 17 18  1  0  0  0
 18 19  1  0  0  0
 19 20  2  0  0  0
 20 21  1  0  0  0
 21 22  2  0  0  0
 22 23  1  0  0  0
 22 24  1  0  0  0
 24 25  1  0  0  0
 25 26  1  0  0  0
  9 10  2  0  0  0
 10 11  1  0  0  0
 11  1  2  0  0  0
 10  4  1  0  0  0
 23 18  2  0  0  0
 26 21  1  0  0  0
 15 16  1  0  0  0
M  CHG 1  13   1
M  CHG 1  14  -1
M  END
> <minimizedAffinity>
-9.64694

$$$$



 26 29  0  0  0  0  0  0  0  0999 V2000
   -0.5672   63.1824   86.5391 C   0  0  0  0  0  0  0  0  0  0  0  0
    0.4220   64.1352   86.7754 C   0  0  0  0  0  0  0  0  0  0  0  0
    0.9010   64.8976   85.7085 C   0  0  0  0  0  0  0  0  0  0  0  0
    0.4015   64.7280   84.3900 C   0  0  0  0  0  0  0  0  0  0  0  0
    0.8507   65.4538   83.2808 C   0  0  0  0  0  0  0  0  0  0  0  0
    2.0702   66.6663   83.3655 Cl  0  0  0  0  0  0  0  0  0  0  0  0
    0.3705   65.2796   82.0369 N   0  0  0  0  0  0  0  0  0  0  0  0
   -0.6041   64.3497   81.8216 N   0  0  0  0  0  0  0  0  0  0  0  0
   -1.1020   63.6079   82.8352 C   0  0  0  0  0  0  0  0  0  0  0  0
   -0.6114   63.7678   84.1542 C   0  0  0  0  0  0  0  0  0  0  0  0
   -1.0780   62.9958   85.2479 C   0  0  0  0  0  0  0  0  0  0  0  0
   -1.6698   62.9585   88.5672 O   0  0  0  0  0  0  0  0  0  0  0  0
   -1.0790   62.3709   87.6506 N   0  0  0  0  0  0  0  0  0  0  0  0
   -0.8960   61.1465   87.6001 O   0  0  0  0  0  0  0  0  0  0  0  0
   -2.1317   62.6714   82.5923 N   0  0  0  0  0  0  0  0  0  0  0  0
   -2.7434   62.6518   83.4034 H   0  0  0  0  0  0  0  0  0  0  0  0
   -2.8969   62.8646   81.3626 C   0  0  0  0  0  0  0  0  0  0  0  0
   -2.6588   61.7273   80.3952 C   0  0  0  0  0  0  0  0  0  0  0  0
   -3.4601   60.5614   80.4566 C   0  0  0  0  0  0  0  0  0  0  0  0
   -3.2570   59.4979   79.5716 C   0  0  0  0  0  0  0  0  0  0  0  0
   -2.2492   59.6239   78.6415 C   0  0  0  0  0  0  0  0  0  0  0  0
   -1.4615   60.7487   78.5753 C   0  0  0  0  0  0  0  0  0  0  0  0
   -1.6377   61.8131   79.4344 C   0  0  0  0  0  0  0  0  0  0  0  0
   -0.5264   60.6697   77.5908 O   0  0  0  0  0  0  0  0  0  0  0  0
   -0.8094   59.3618   77.0531 C   0  0  0  0  0  0  0  0  0  0  0  0
   -1.9087   58.6954   77.7081 O   0  0  0  0  0  0  0  0  0  0  0  0
 12 13  2  0  0  0
 13 14  1  0  0  0
 13  1  1  0  0  0
  1  2  1  0  0  0
  2  3  2  0  0  0
  3  4  1  0  0  0
  4  5  2  0  0  0
  5  6  1  0  0  0
  5  7  1  0  0  0
  7  8  2  0  0  0
  8  9  1  0  0  0
  9 15  1  0  0  0
 15 17  1  0  0  0
 17 18  1  0  0  0
 18 19  1  0  0  0
 19 20  2  0  0  0
 20 21  1  0  0  0
 21 22  2  0  0  0
 22 23  1  0  0  0
 22 24  1  0  0  0
 24 25  1  0  0  0
 25 26  1  0  0  0
  9 10  2  0  0  0
 10 11  1  0  0  0
 11  1  2  0  0  0
 10  4  1  0  0  0
 23 18  2  0  0  0
 26 21  1  0  0  0
 15 16  1  0  0  0
M  CHG 1  13   1
M  CHG 1  14  -1
M  END
> <minimizedAffinity>
-9.63732

$$$$



 26 29  0  0  0  0  0  0  0  0999 V2000
   -2.5608   60.4733   79.9518 C   0  0  0  0  0  0  0  0  0  0  0  0
   -2.8529   60.8233   78.6349 C   0  0  0  0  0  0  0  0  0  0  0  0
   -2.2587   61.9609   78.0855 C   0  0  0  0  0  0  0  0  0  0  0  0
   -1.3612   62.7667   78.8351 C   0  0  0  0  0  0  0  0  0  0  0  0
   -0.7451   63.9228   78.3422 C   0  0  0  0  0  0  0  0  0  0  0  0
   -0.9844   64.5239   76.7466 Cl  0  0  0  0  0  0  0  0  0  0  0  0
    0.1002   64.6781   79.0654 N   0  0  0  0  0  0  0  0  0  0  0  0
    0.3842   64.3187   80.3504 N   0  0  0  0  0  0  0  0  0  0  0  0
   -0.1601   63.2140   80.9062 C   0  0  0  0  0  0  0  0  0  0  0  0
   -1.0568   62.4029   80.1687 C   0  0  0  0  0  0  0  0  0  0  0  0
   -1.6778   61.2504   80.7129 C   0  0  0  0  0  0  0  0  0  0  0  0
   -3.6973   58.4593   79.7754 O   0  0  0  0  0  0  0  0  0  0  0  0
   -3.1802   59.2813   80.5445 N   0  0  0  0  0  0  0  0  0  0  0  0
   -3.1409   59.1660   81.7774 O   0  0  0  0  0  0  0  0  0  0  0  0
    0.1719   62.8461   82.2294 N   0  0  0  0  0  0  0  0  0  0  0  0
    0.9955   62.2517   82.1986 H   0  0  0  0  0  0  0  0  0  0  0  0
    0.3539   63.9460   83.1740 C   0  0  0  0  0  0  0  0  0  0  0  0
   -0.2814   63.6224   84.5073 C   0  0  0  0  0  0  0  0  0  0  0  0
   -1.5241   62.9455   84.5577 C   0  0  0  0  0  0  0  0  0  0  0  0
   -2.1293   62.6365   85.7799 C   0  0  0  0  0  0  0  0  0  0  0  0
   -1.4754   63.0162   86.9310 C   0  0  0  0  0  0  0  0  0  0  0  0
   -0.2710   63.6781   86.8947 C   0  0  0  0  0  0  0  0  0  0  0  0
    0.3498   63.9967   85.7051 C   0  0  0  0  0  0  0  0  0  0  0  0
    0.2017   63.9631   88.1378 O   0  0  0  0  0  0  0  0  0  0  0  0
   -0.8489   63.4144   88.9593 C   0  0  0  0  0  0  0  0  0  0  0  0
   -1.9127   62.8022   88.2007 O   0  0  0  0  0  0  0  0  0  0  0  0
 12 13  2  0  0  0
 13 14  1  0  0  0
 13  1  1  0  0  0
  1  2  1  0  0  0
  2  3  2  0  0  0
  3  4  1  0  0  0
  4  5  2  0  0  0
  5  6  1  0  0  0
  5  7  1  0  0  0
  7  8  2  0  0  0
  8  9  1  0  0  0
  9 15  1  0  0  0
 15 17  1  0  0  0
 17 18  1  0  0  0
 18 19  1  0  0  0
 19 20  2  0  0  0
 20 21  1  0  0  0
 21 22  2  0  0  0
 22 23  1  0  0  0
 22 24  1  0  0  0
 24 25  1  0  0  0
 25 26  1  0  0  0
  9 10  2  0  0  0
 10 11  1  0  0  0
 11  1  2  0  0  0
 10  4  1  0  0  0
 23 18  2  0  0  0
 26 21  1  0  0  0
 15 16  1  0  0  0
M  CHG 1  13   1
M  CHG 1  14  -1
M  END
> <minimizedAffinity>
-9.57518

$$$$
