


 23 26  0  0  0  0  0  0  0  0999 V2000
    0.8603   64.7508   84.9784 C   0  0  0  0  0  0  0  0  0  0  0  0
    1.9769   65.4173   85.3145 N   0  0  0  0  0  0  0  0  0  0  0  0
    2.5284   66.2225   84.3923 C   0  0  0  0  0  0  0  0  0  0  0  0
    1.9505   66.4038   83.1234 C   0  0  0  0  0  0  0  0  0  0  0  0
    2.4460   67.2722   82.1162 C   0  0  0  0  0  0  0  0  0  0  0  0
    1.8070   67.3770   80.8827 C   0  0  0  0  0  0  0  0  0  0  0  0
    0.6679   66.6223   80.6417 C   0  0  0  0  0  0  0  0  0  0  0  0
    0.1741   65.7758   81.6382 C   0  0  0  0  0  0  0  0  0  0  0  0
    0.7928   65.6569   82.8772 C   0  0  0  0  0  0  0  0  0  0  0  0
    0.2549   64.8359   83.7819 N   0  0  0  0  0  0  0  0  0  0  0  0
   -0.8762   62.1348   87.9347 C   0  0  0  0  0  0  0  0  0  0  0  0
    0.0395   63.1100   88.3166 C   0  0  0  0  0  0  0  0  0  0  0  0
    0.6012   63.9577   87.3559 C   0  0  0  0  0  0  0  0  0  0  0  0
    0.2642   63.8542   85.9915 C   0  0  0  0  0  0  0  0  0  0  0  0
   -0.6663   62.8572   85.6376 C   0  0  0  0  0  0  0  0  0  0  0  0
   -1.2303   62.0075   86.5951 C   0  0  0  0  0  0  0  0  0  0  0  0
    3.7104   66.9226   84.7203 N   0  0  0  0  0  0  0  0  0  0  0  0
    4.2187   67.1299   83.8651 H   0  0  0  0  0  0  0  0  0  0  0  0
    4.5688   66.3098   85.7394 C   0  0  0  0  0  0  0  0  0  0  0  0
    5.4397   67.4056   86.3711 C   0  0  0  0  0  0  0  0  0  0  0  0
    6.7321   67.3740   85.5709 C   0  0  0  0  0  0  0  0  0  0  0  0
    6.9601   65.8883   85.3616 C   0  0  0  0  0  0  0  0  0  0  0  0
    5.5665   65.3154   85.1163 C   0  0  0  0  0  0  0  0  0  0  0  0
 11 12  2  0  0  0
 12 13  1  0  0  0
 13 14  2  0  0  0
 14  1  1  0  0  0
  1  2  2  0  0  0
  2  3  1  0  0  0
  3 17  1  0  0  0
 17 19  1  0  0  0
 19 20  1  0  0  0
 20 21  1  0  0  0
 21 22  1  0  0  0
 22 23  1  0  0  0
  3  4  2  0  0  0
  4  5  1  0  0  0
  5  6  2  0  0  0
  6  7  1  0  0  0
  7  8  2  0  0  0
  8  9  1  0  0  0
  9 10  2  0  0  0
 14 15  1  0  0  0
 15 16  2  0  0  0
 16 11  1  0  0  0
 10  1  1  0  0  0
 23 19  1  0  0  0
  9  4  1  0  0  0
 17 18  1  0  0  0
M  END
> <minimizedAffinity>
-9.76265

$$$$



 23 26  0  0  0  0  0  0  0  0999 V2000
    1.0854   65.9156   83.5026 C   0  0  0  0  0  0  0  0  0  0  0  0
    1.8453   66.4550   84.4700 N   0  0  0  0  0  0  0  0  0  0  0  0
    2.5897   67.5278   84.1578 C   0  0  0  0  0  0  0  0  0  0  0  0
    2.5605   68.1049   82.8759 C   0  0  0  0  0  0  0  0  0  0  0  0
    3.2795   69.2644   82.4850 C   0  0  0  0  0  0  0  0  0  0  0  0
    3.1930   69.7564   81.1846 C   0  0  0  0  0  0  0  0  0  0  0  0
    2.3882   69.1020   80.2630 C   0  0  0  0  0  0  0  0  0  0  0  0
    1.6717   67.9668   80.6519 C   0  0  0  0  0  0  0  0  0  0  0  0
    1.7398   67.4593   81.9441 C   0  0  0  0  0  0  0  0  0  0  0  0
    1.0172   66.3775   82.2428 N   0  0  0  0  0  0  0  0  0  0  0  0
   -1.2673   62.4435   84.5064 C   0  0  0  0  0  0  0  0  0  0  0  0
   -0.4688   63.0489   85.4715 C   0  0  0  0  0  0  0  0  0  0  0  0
    0.2933   64.1753   85.1436 C   0  0  0  0  0  0  0  0  0  0  0  0
    0.2782   64.7256   83.8464 C   0  0  0  0  0  0  0  0  0  0  0  0
   -0.5410   64.0898   82.8927 C   0  0  0  0  0  0  0  0  0  0  0  0
   -1.3045   62.9632   83.2163 C   0  0  0  0  0  0  0  0  0  0  0  0
    3.4063   68.1029   85.1566 N   0  0  0  0  0  0  0  0  0  0  0  0
    3.3168   69.1142   85.1135 H   0  0  0  0  0  0  0  0  0  0  0  0
    4.8079   67.6719   85.1798 C   0  0  0  0  0  0  0  0  0  0  0  0
    4.8682   66.1787   84.8265 C   0  0  0  0  0  0  0  0  0  0  0  0
    4.8509   65.4680   86.1705 C   0  0  0  0  0  0  0  0  0  0  0  0
    5.7442   66.3474   87.0258 C   0  0  0  0  0  0  0  0  0  0  0  0
    5.4083   67.7728   86.5948 C   0  0  0  0  0  0  0  0  0  0  0  0
 11 12  2  0  0  0
 12 13  1  0  0  0
 13 14  2  0  0  0
 14  1  1  0  0  0
  1  2  2  0  0  0
  2  3  1  0  0  0
  3 17  1  0  0  0
 17 19  1  0  0  0
 19 20  1  0  0  0
 20 21  1  0  0  0
 21 22  1  0  0  0
 22 23  1  0  0  0
  3  4  2  0  0  0
  4  5  1  0  0  0
  5  6  2  0  0  0
  6  7  1  0  0  0
  7  8  2  0  0  0
  8  9  1  0  0  0
  9 10  2  0  0  0
 14 15  1  0  0  0
 15 16  2  0  0  0
 16 11  1  0  0  0
 10  1  1  0  0  0
 23 19  1  0  0  0
  9  4  1  0  0  0
 17 18  1  0  0  0
M  END
> <minimizedAffinity>
-9.73481

$$$$



 23 26  0  0  0  0  0  0  0  0999 V2000
   -1.4318   62.5323   84.0216 C   0  0  0  0  0  0  0  0  0  0  0  0
   -0.7473   63.6756   83.8531 N   0  0  0  0  0  0  0  0  0  0  0  0
   -0.0911   64.1756   84.9124 C   0  0  0  0  0  0  0  0  0  0  0  0
   -0.0784   63.5195   86.1560 C   0  0  0  0  0  0  0  0  0  0  0  0
    0.6295   63.9590   87.3048 C   0  0  0  0  0  0  0  0  0  0  0  0
    0.5726   63.2433   88.4986 C   0  0  0  0  0  0  0  0  0  0  0  0
   -0.1854   62.0828   88.5592 C   0  0  0  0  0  0  0  0  0  0  0  0
   -0.8731   61.6445   87.4242 C   0  0  0  0  0  0  0  0  0  0  0  0
   -0.8290   62.3402   86.2216 C   0  0  0  0  0  0  0  0  0  0  0  0
   -1.5036   61.8523   85.1782 N   0  0  0  0  0  0  0  0  0  0  0  0
   -3.5684   60.9560   80.6232 C   0  0  0  0  0  0  0  0  0  0  0  0
   -3.2014   60.1150   81.6690 C   0  0  0  0  0  0  0  0  0  0  0  0
   -2.5087   60.6287   82.7705 C   0  0  0  0  0  0  0  0  0  0  0  0
   -2.1648   61.9925   82.8566 C   0  0  0  0  0  0  0  0  0  0  0  0
   -2.5513   62.8175   81.7820 C   0  0  0  0  0  0  0  0  0  0  0  0
   -3.2440   62.3079   80.6786 C   0  0  0  0  0  0  0  0  0  0  0  0
    0.6243   65.3841   84.7609 N   0  0  0  0  0  0  0  0  0  0  0  0
   -0.0375   66.1463   84.6439 H   0  0  0  0  0  0  0  0  0  0  0  0
    1.6705   65.3971   83.7331 C   0  0  0  0  0  0  0  0  0  0  0  0
    2.9339   66.0367   84.3270 C   0  0  0  0  0  0  0  0  0  0  0  0
    2.8358   67.5040   83.9409 C   0  0  0  0  0  0  0  0  0  0  0  0
    2.2975   67.4420   82.5234 C   0  0  0  0  0  0  0  0  0  0  0  0
    1.2862   66.2988   82.5449 C   0  0  0  0  0  0  0  0  0  0  0  0
 11 12  2  0  0  0
 12 13  1  0  0  0
 13 14  2  0  0  0
 14  1  1  0  0  0
  1  2  2  0  0  0
  2  3  1  0  0  0
  3 17  1  0  0  0
 17 19  1  0  0  0
 19 20  1  0  0  0
 20 21  1  0  0  0
 21 22  1  0  0  0
 22 23  1  0  0  0
  3  4  2  0  0  0
  4  5  1  0  0  0
  5  6  2  0  0  0
  6  7  1  0  0  0
  7  8  2  0  0  0
  8  9  1  0  0  0
  9 10  2  0  0  0
 14 15  1  0  0  0
 15 16  2  0  0  0
 16 11  1  0  0  0
 10  1  1  0  0  0
 23 19  1  0  0  0
  9  4  1  0  0  0
 17 18  1  0  0  0
M  END
> <minimizedAffinity>
-9.68514

$$$$



 23 26  0  0  0  0  0  0  0  0999 V2000
    0.7359   65.0884   84.0491 C   0  0  0  0  0  0  0  0  0  0  0  0
    0.1754   64.1079   83.3220 N   0  0  0  0  0  0  0  0  0  0  0  0
   -0.3634   63.0689   83.9798 C   0  0  0  0  0  0  0  0  0  0  0  0
   -0.3830   63.0084   85.3845 C   0  0  0  0  0  0  0  0  0  0  0  0
   -0.9751   61.9700   86.1496 C   0  0  0  0  0  0  0  0  0  0  0  0
   -0.9349   61.9940   87.5420 C   0  0  0  0  0  0  0  0  0  0  0  0
   -0.3092   63.0522   88.1852 C   0  0  0  0  0  0  0  0  0  0  0  0
    0.2639   64.0800   87.4311 C   0  0  0  0  0  0  0  0  0  0  0  0
    0.2337   64.0792   86.0414 C   0  0  0  0  0  0  0  0  0  0  0  0
    0.7929   65.1022   85.3914 N   0  0  0  0  0  0  0  0  0  0  0  0
    2.5018   68.3988   81.9227 C   0  0  0  0  0  0  0  0  0  0  0  0
    1.8673   67.3776   81.2226 C   0  0  0  0  0  0  0  0  0  0  0  0
    1.2948   66.3050   81.9145 C   0  0  0  0  0  0  0  0  0  0  0  0
    1.3409   66.2238   83.3206 C   0  0  0  0  0  0  0  0  0  0  0  0
    1.9900   67.2737   83.9998 C   0  0  0  0  0  0  0  0  0  0  0  0
    2.5637   68.3481   83.3118 C   0  0  0  0  0  0  0  0  0  0  0  0
   -0.9464   62.0204   83.2343 N   0  0  0  0  0  0  0  0  0  0  0  0
   -0.3941   61.8659   82.3954 H   0  0  0  0  0  0  0  0  0  0  0  0
   -2.3772   62.1486   82.9390 C   0  0  0  0  0  0  0  0  0  0  0  0
   -2.9983   60.7447   82.9012 C   0  0  0  0  0  0  0  0  0  0  0  0
   -2.9503   60.3459   81.4348 C   0  0  0  0  0  0  0  0  0  0  0  0
   -3.3120   61.6373   80.7246 C   0  0  0  0  0  0  0  0  0  0  0  0
   -2.6155   62.7295   81.5324 C   0  0  0  0  0  0  0  0  0  0  0  0
 11 12  2  0  0  0
 12 13  1  0  0  0
 13 14  2  0  0  0
 14  1  1  0  0  0
  1  2  2  0  0  0
  2  3  1  0  0  0
  3 17  1  0  0  0
 17 19  1  0  0  0
 19 20  1  0  0  0
 20 21  1  0  0  0
 21 22  1  0  0  0
 22 23  1  0  0  0
  3  4  2  0  0  0
  4  5  1  0  0  0
  5  6  2  0  0  0
  6  7  1  0  0  0
  7  8  2  0  0  0
  8  9  1  0  0  0
  9 10  2  0  0  0
 14 15  1  0  0  0
 15 16  2  0  0  0
 16 11  1  0  0  0
 10  1  1  0  0  0
 23 19  1  0  0  0
  9  4  1  0  0  0
 17 18  1  0  0  0
M  END
> <minimizedAffinity>
-9.46135

$$$$



 23 26  0  0  0  0  0  0  0  0999 V2000
   -1.0006   62.8803   83.8609 C   0  0  0  0  0  0  0  0  0  0  0  0
   -1.3629   61.7122   83.3057 N   0  0  0  0  0  0  0  0  0  0  0  0
   -1.2065   61.5728   81.9794 C   0  0  0  0  0  0  0  0  0  0  0  0
   -0.6492   62.5912   81.1860 C   0  0  0  0  0  0  0  0  0  0  0  0
   -0.4081   62.5003   79.7904 C   0  0  0  0  0  0  0  0  0  0  0  0
    0.1411   63.5702   79.0872 C   0  0  0  0  0  0  0  0  0  0  0  0
    0.4586   64.7378   79.7662 C   0  0  0  0  0  0  0  0  0  0  0  0
    0.2313   64.8224   81.1426 C   0  0  0  0  0  0  0  0  0  0  0  0
   -0.3128   63.7673   81.8658 C   0  0  0  0  0  0  0  0  0  0  0  0
   -0.4897   63.9199   83.1800 N   0  0  0  0  0  0  0  0  0  0  0  0
   -1.5487   63.3329   88.1145 C   0  0  0  0  0  0  0  0  0  0  0  0
   -2.5660   62.7952   87.3324 C   0  0  0  0  0  0  0  0  0  0  0  0
   -2.3857   62.6491   85.9529 C   0  0  0  0  0  0  0  0  0  0  0  0
   -1.1877   63.0351   85.3192 C   0  0  0  0  0  0  0  0  0  0  0  0
   -0.1772   63.5752   86.1390 C   0  0  0  0  0  0  0  0  0  0  0  0
   -0.3534   63.7232   87.5188 C   0  0  0  0  0  0  0  0  0  0  0  0
   -1.5935   60.3573   81.3730 N   0  0  0  0  0  0  0  0  0  0  0  0
   -1.0532   60.2268   80.5223 H   0  0  0  0  0  0  0  0  0  0  0  0
   -3.0308   60.1694   81.1499 C   0  0  0  0  0  0  0  0  0  0  0  0
   -3.2274   59.4096   79.8300 C   0  0  0  0  0  0  0  0  0  0  0  0
   -3.4262   60.4994   78.7888 C   0  0  0  0  0  0  0  0  0  0  0  0
   -4.2928   61.5076   79.5205 C   0  0  0  0  0  0  0  0  0  0  0  0
   -3.7535   61.5147   80.9486 C   0  0  0  0  0  0  0  0  0  0  0  0
 11 12  2  0  0  0
 12 13  1  0  0  0
 13 14  2  0  0  0
 14  1  1  0  0  0
  1  2  2  0  0  0
  2  3  1  0  0  0
  3 17  1  0  0  0
 17 19  1  0  0  0
 19 20  1  0  0  0
 20 21  1  0  0  0
 21 22  1  0  0  0
 22 23  1  0  0  0
  3  4  2  0  0  0
  4  5  1  0  0  0
  5  6  2  0  0  0
  6  7  1  0  0  0
  7  8  2  0  0  0
  8  9  1  0  0  0
  9 10  2  0  0  0
 14 15  1  0  0  0
 15 16  2  0  0  0
 16 11  1  0  0  0
 10  1  1  0  0  0
 23 19  1  0  0  0
  9  4  1  0  0  0
 17 18  1  0  0  0
M  END
> <minimizedAffinity>
-9.45441

$$$$



 23 26  0  0  0  0  0  0  0  0999 V2000
    0.1257   64.1290   84.8042 C   0  0  0  0  0  0  0  0  0  0  0  0
   -0.5664   63.6155   83.7739 N   0  0  0  0  0  0  0  0  0  0  0  0
   -0.4556   64.2204   82.5804 C   0  0  0  0  0  0  0  0  0  0  0  0
    0.3810   65.3338   82.3865 C   0  0  0  0  0  0  0  0  0  0  0  0
    0.5872   65.9954   81.1480 C   0  0  0  0  0  0  0  0  0  0  0  0
    1.4312   67.1000   81.0577 C   0  0  0  0  0  0  0  0  0  0  0  0
    2.0800   67.5538   82.1971 C   0  0  0  0  0  0  0  0  0  0  0  0
    1.8852   66.8949   83.4141 C   0  0  0  0  0  0  0  0  0  0  0  0
    1.0504   65.7893   83.5280 C   0  0  0  0  0  0  0  0  0  0  0  0
    0.9241   65.2066   84.7223 N   0  0  0  0  0  0  0  0  0  0  0  0
   -0.2681   62.2032   88.6428 C   0  0  0  0  0  0  0  0  0  0  0  0
    0.5512   63.3187   88.5018 C   0  0  0  0  0  0  0  0  0  0  0  0
    0.6771   63.9419   87.2557 C   0  0  0  0  0  0  0  0  0  0  0  0
   -0.0101   63.4688   86.1200 C   0  0  0  0  0  0  0  0  0  0  0  0
   -0.8320   62.3382   86.2963 C   0  0  0  0  0  0  0  0  0  0  0  0
   -0.9606   61.7119   87.5405 C   0  0  0  0  0  0  0  0  0  0  0  0
   -1.1852   63.7048   81.4864 N   0  0  0  0  0  0  0  0  0  0  0  0
   -2.1633   63.9587   81.5936 H   0  0  0  0  0  0  0  0  0  0  0  0
   -1.0122   62.2762   81.2034 C   0  0  0  0  0  0  0  0  0  0  0  0
    0.4407   62.0344   80.7688 C   0  0  0  0  0  0  0  0  0  0  0  0
    0.4022   62.1110   79.2508 C   0  0  0  0  0  0  0  0  0  0  0  0
   -0.8929   61.3963   78.9121 C   0  0  0  0  0  0  0  0  0  0  0  0
   -1.8684   61.8285   80.0039 C   0  0  0  0  0  0  0  0  0  0  0  0
 11 12  2  0  0  0
 12 13  1  0  0  0
 13 14  2  0  0  0
 14  1  1  0  0  0
  1  2  2  0  0  0
  2  3  1  0  0  0
  3 17  1  0  0  0
 17 19  1  0  0  0
 19 20  1  0  0  0
 20 21  1  0  0  0
 21 22  1  0  0  0
 22 23  1  0  0  0
  3  4  2  0  0  0
  4  5  1  0  0  0
  5  6  2  0  0  0
  6  7  1  0  0  0
  7  8  2  0  0  0
  8  9  1  0  0  0
  9 10  2  0  0  0
 14 15  1  0  0  0
 15 16  2  0  0  0
 16 11  1  0  0  0
 10  1  1  0  0  0
 23 19  1  0  0  0
  9  4  1  0  0  0
 17 18  1  0  0  0
M  END
> <minimizedAffinity>
-9.44988

$$$$



 23 26  0  0  0  0  0  0  0  0999 V2000
    0.0872   64.0844   84.8039 C   0  0  0  0  0  0  0  0  0  0  0  0
   -0.5991   63.5415   83.7848 N   0  0  0  0  0  0  0  0  0  0  0  0
   -0.5126   64.1353   82.5837 C   0  0  0  0  0  0  0  0  0  0  0  0
    0.2937   65.2674   82.3709 C   0  0  0  0  0  0  0  0  0  0  0  0
    0.4739   65.9197   81.1234 C   0  0  0  0  0  0  0  0  0  0  0  0
    1.2886   67.0444   81.0143 C   0  0  0  0  0  0  0  0  0  0  0  0
    1.9340   67.5277   82.1434 C   0  0  0  0  0  0  0  0  0  0  0  0
    1.7650   66.8780   83.3693 C   0  0  0  0  0  0  0  0  0  0  0  0
    0.9597   65.7529   83.5020 C   0  0  0  0  0  0  0  0  0  0  0  0
    0.8570   65.1809   84.7037 N   0  0  0  0  0  0  0  0  0  0  0  0
   -0.2339   62.1933   88.6665 C   0  0  0  0  0  0  0  0  0  0  0  0
   -0.9429   61.6891   87.5808 C   0  0  0  0  0  0  0  0  0  0  0  0
   -0.8369   62.3040   86.3288 C   0  0  0  0  0  0  0  0  0  0  0  0
   -0.0221   63.4361   86.1281 C   0  0  0  0  0  0  0  0  0  0  0  0
    0.6830   63.9215   87.2471 C   0  0  0  0  0  0  0  0  0  0  0  0
    0.5798   63.3097   88.5009 C   0  0  0  0  0  0  0  0  0  0  0  0
   -1.2367   63.5887   81.5012 N   0  0  0  0  0  0  0  0  0  0  0  0
   -2.2232   63.7988   81.6250 H   0  0  0  0  0  0  0  0  0  0  0  0
   -1.0052   62.1694   81.2131 C   0  0  0  0  0  0  0  0  0  0  0  0
    0.4542   61.9902   80.7703 C   0  0  0  0  0  0  0  0  0  0  0  0
    0.4045   62.0694   79.2528 C   0  0  0  0  0  0  0  0  0  0  0  0
   -0.8611   61.3016   78.9187 C   0  0  0  0  0  0  0  0  0  0  0  0
   -1.8482   61.6893   80.0167 C   0  0  0  0  0  0  0  0  0  0  0  0
 11 12  2  0  0  0
 12 13  1  0  0  0
 13 14  2  0  0  0
 14  1  1  0  0  0
  1  2  2  0  0  0
  2  3  1  0  0  0
  3 17  1  0  0  0
 17 19  1  0  0  0
 19 20  1  0  0  0
 20 21  1  0  0  0
 21 22  1  0  0  0
 22 23  1  0  0  0
  3  4  2  0  0  0
  4  5  1  0  0  0
  5  6  2  0  0  0
  6  7  1  0  0  0
  7  8  2  0  0  0
  8  9  1  0  0  0
  9 10  2  0  0  0
 14 15  1  0  0  0
 15 16  2  0  0  0
 16 11  1  0  0  0
 10  1  1  0  0  0
 23 19  1  0  0  0
  9  4  1  0  0  0
 17 18  1  0  0  0
M  END
> <minimizedAffinity>
-9.44688

$$$$



 23 26  0  0  0  0  0  0  0  0999 V2000
   -1.7282   62.2505   83.3646 C   0  0  0  0  0  0  0  0  0  0  0  0
   -0.6558   63.0159   83.1033 N   0  0  0  0  0  0  0  0  0  0  0  0
   -0.0438   63.6125   84.1388 C   0  0  0  0  0  0  0  0  0  0  0  0
   -0.4738   63.4249   85.4644 C   0  0  0  0  0  0  0  0  0  0  0  0
    0.1490   63.9809   86.6121 C   0  0  0  0  0  0  0  0  0  0  0  0
   -0.3586   63.7445   87.8877 C   0  0  0  0  0  0  0  0  0  0  0  0
   -1.4870   62.9506   88.0333 C   0  0  0  0  0  0  0  0  0  0  0  0
   -2.0931   62.3942   86.9035 C   0  0  0  0  0  0  0  0  0  0  0  0
   -1.6032   62.6135   85.6213 C   0  0  0  0  0  0  0  0  0  0  0  0
   -2.2302   62.0385   84.5927 N   0  0  0  0  0  0  0  0  0  0  0  0
   -3.7130   60.3747   80.0268 C   0  0  0  0  0  0  0  0  0  0  0  0
   -3.6105   61.7608   80.0894 C   0  0  0  0  0  0  0  0  0  0  0  0
   -2.9658   62.3669   81.1729 C   0  0  0  0  0  0  0  0  0  0  0  0
   -2.4079   61.6069   82.2202 C   0  0  0  0  0  0  0  0  0  0  0  0
   -2.5280   60.2063   82.1267 C   0  0  0  0  0  0  0  0  0  0  0  0
   -3.1718   59.5961   81.0450 C   0  0  0  0  0  0  0  0  0  0  0  0
    1.0779   64.4326   83.8852 N   0  0  0  0  0  0  0  0  0  0  0  0
    1.7812   64.2585   84.5978 H   0  0  0  0  0  0  0  0  0  0  0  0
    0.8116   65.8640   83.7087 C   0  0  0  0  0  0  0  0  0  0  0  0
    0.7106   66.1627   82.2058 C   0  0  0  0  0  0  0  0  0  0  0  0
    2.1133   66.5935   81.8078 C   0  0  0  0  0  0  0  0  0  0  0  0
    2.5497   67.4438   82.9865 C   0  0  0  0  0  0  0  0  0  0  0  0
    1.9865   66.7248   84.2098 C   0  0  0  0  0  0  0  0  0  0  0  0
 11 12  2  0  0  0
 12 13  1  0  0  0
 13 14  2  0  0  0
 14  1  1  0  0  0
  1  2  2  0  0  0
  2  3  1  0  0  0
  3 17  1  0  0  0
 17 19  1  0  0  0
 19 20  1  0  0  0
 20 21  1  0  0  0
 21 22  1  0  0  0
 22 23  1  0  0  0
  3  4  2  0  0  0
  4  5  1  0  0  0
  5  6  2  0  0  0
  6  7  1  0  0  0
  7  8  2  0  0  0
  8  9  1  0  0  0
  9 10  2  0  0  0
 14 15  1  0  0  0
 15 16  2  0  0  0
 16 11  1  0  0  0
 10  1  1  0  0  0
 23 19  1  0  0  0
  9  4  1  0  0  0
 17 18  1  0  0  0
M  END
> <minimizedAffinity>
-9.39271

$$$$



 23 26  0  0  0  0  0  0  0  0999 V2000
   -1.4653   62.3141   83.8918 C   0  0  0  0  0  0  0  0  0  0  0  0
   -0.6552   62.9928   83.0629 N   0  0  0  0  0  0  0  0  0  0  0  0
   -0.6532   62.6471   81.7655 C   0  0  0  0  0  0  0  0  0  0  0  0
   -1.4915   61.6352   81.2650 C   0  0  0  0  0  0  0  0  0  0  0  0
   -1.5810   61.2475   79.9027 C   0  0  0  0  0  0  0  0  0  0  0  0
   -2.4375   60.2236   79.5041 C   0  0  0  0  0  0  0  0  0  0  0  0
   -3.2147   59.5793   80.4558 C   0  0  0  0  0  0  0  0  0  0  0  0
   -3.1343   59.9693   81.7955 C   0  0  0  0  0  0  0  0  0  0  0  0
   -2.2895   60.9898   82.2164 C   0  0  0  0  0  0  0  0  0  0  0  0
   -2.2766   61.3129   83.5115 N   0  0  0  0  0  0  0  0  0  0  0  0
   -1.4302   63.4039   88.0643 C   0  0  0  0  0  0  0  0  0  0  0  0
   -0.3088   63.6325   87.2733 C   0  0  0  0  0  0  0  0  0  0  0  0
   -0.3227   63.2784   85.9199 C   0  0  0  0  0  0  0  0  0  0  0  0
   -1.4540   62.6881   85.3221 C   0  0  0  0  0  0  0  0  0  0  0  0
   -2.5731   62.4706   86.1499 C   0  0  0  0  0  0  0  0  0  0  0  0
   -2.5634   62.8230   87.5037 C   0  0  0  0  0  0  0  0  0  0  0  0
    0.2010   63.3391   80.8786 N   0  0  0  0  0  0  0  0  0  0  0  0
    1.1587   63.2498   81.2066 H   0  0  0  0  0  0  0  0  0  0  0  0
   -0.1555   64.7308   80.5839 C   0  0  0  0  0  0  0  0  0  0  0  0
   -0.1037   64.9393   79.0634 C   0  0  0  0  0  0  0  0  0  0  0  0
    1.2973   65.4671   78.7985 C   0  0  0  0  0  0  0  0  0  0  0  0
    1.5244   66.4134   79.9629 C   0  0  0  0  0  0  0  0  0  0  0  0
    0.8811   65.7149   81.1582 C   0  0  0  0  0  0  0  0  0  0  0  0
 11 12  2  0  0  0
 12 13  1  0  0  0
 13 14  2  0  0  0
 14  1  1  0  0  0
  1  2  2  0  0  0
  2  3  1  0  0  0
  3 17  1  0  0  0
 17 19  1  0  0  0
 19 20  1  0  0  0
 20 21  1  0  0  0
 21 22  1  0  0  0
 22 23  1  0  0  0
  3  4  2  0  0  0
  4  5  1  0  0  0
  5  6  2  0  0  0
  6  7  1  0  0  0
  7  8  2  0  0  0
  8  9  1  0  0  0
  9 10  2  0  0  0
 14 15  1  0  0  0
 15 16  2  0  0  0
 16 11  1  0  0  0
 10  1  1  0  0  0
 23 19  1  0  0  0
  9  4  1  0  0  0
 17 18  1  0  0  0
M  END
> <minimizedAffinity>
-9.33699

$$$$
