
     RDKit          3D

 61 64  0  0  0  0  0  0  0  0999 V2000
    1.5569   -6.1349   -1.1150 C   0  0  0  0  0  0  0  0  0  0  0  0
    0.5191   -5.1170   -1.5533 C   0  0  0  0  0  0  0  0  0  0  0  0
    0.9654   -3.8288   -1.1250 O   0  0  0  0  0  0  0  0  0  0  0  0
    0.1825   -2.7380   -1.4125 C   0  0  0  0  0  0  0  0  0  0  0  0
   -1.0338   -2.8296   -2.1045 C   0  0  0  0  0  0  0  0  0  0  0  0
   -1.7968   -1.6897   -2.3731 C   0  0  0  0  0  0  0  0  0  0  0  0
   -1.3606   -0.4310   -1.9601 C   0  0  0  0  0  0  0  0  0  0  0  0
   -2.1880    0.8007   -2.2358 C   0  0  0  0  0  0  0  0  0  0  0  0
   -3.3353    0.9818   -1.2374 C   0  0  0  0  0  0  0  0  0  0  0  0
   -2.8848    1.3342    0.1786 C   0  0  0  0  0  0  0  0  0  0  0  0
   -4.1651    1.8447    0.8243 C   0  0  0  0  0  0  0  0  0  0  0  0
   -4.8854    2.6234   -0.2838 C   0  0  0  0  0  0  0  0  0  0  0  0
   -4.7666    4.1333   -0.1252 C   0  0  0  0  0  0  0  0  0  0  0  0
   -4.1019    4.6969    0.7406 O   0  0  0  0  0  0  0  0  0  0  0  0
   -5.4850    4.8465   -1.0623 N   0  0  0  0  0  0  0  0  0  0  0  0
   -5.5019    6.2476   -0.8526 O   0  0  0  0  0  0  0  0  0  0  0  0
   -4.2494    2.1567   -1.6048 C   0  0  0  0  0  0  0  0  0  0  0  0
   -0.1477   -0.3338   -1.2664 C   0  0  0  0  0  0  0  0  0  0  0  0
    0.6356   -1.4710   -0.9835 C   0  0  0  0  0  0  0  0  0  0  0  0
    1.9195   -1.2354   -0.2255 C   0  0  0  0  0  0  0  0  0  0  0  0
    2.2362   -0.0243    0.1505 N   0  0  0  0  0  0  0  0  0  0  0  0
    3.4433    0.0637    0.8443 C   0  0  0  0  0  0  0  0  0  0  0  0
    4.0846    1.1841    1.3968 C   0  0  0  0  0  0  0  0  0  0  0  0
    3.6381    2.6035    1.3872 C   0  0  0  0  0  0  0  0  0  0  0  0
    2.6759    2.9146    2.5234 C   0  0  0  0  0  0  0  0  0  0  0  0
    5.2396    0.8246    1.9898 N   0  0  0  0  0  0  0  0  0  0  0  0
    5.3023   -0.5173    1.8004 N   0  0  0  0  0  0  0  0  0  0  0  0
    6.4251   -1.2649    2.3126 C   0  0  0  0  0  0  0  0  0  0  0  0
    4.2367   -1.0093    1.1152 C   0  0  0  0  0  0  0  0  0  0  0  0
    3.9059   -2.3252    0.7120 C   0  0  0  0  0  0  0  0  0  0  0  0
    4.5733   -3.3309    0.9237 O   0  0  0  0  0  0  0  0  0  0  0  0
    2.7095   -2.3515    0.0336 N   0  0  0  0  0  0  0  0  0  0  0  0
    1.2666   -7.1443   -1.4196 H   0  0  0  0  0  0  0  0  0  0  0  0
    2.5342   -5.9007   -1.5504 H   0  0  0  0  0  0  0  0  0  0  0  0
    1.6806   -6.1150   -0.0271 H   0  0  0  0  0  0  0  0  0  0  0  0
    0.4301   -5.1447   -2.6452 H   0  0  0  0  0  0  0  0  0  0  0  0
   -0.4413   -5.3615   -1.0855 H   0  0  0  0  0  0  0  0  0  0  0  0
   -1.4261   -3.7795   -2.4537 H   0  0  0  0  0  0  0  0  0  0  0  0
   -2.7375   -1.7944   -2.9104 H   0  0  0  0  0  0  0  0  0  0  0  0
   -1.5411    1.6877   -2.2417 H   0  0  0  0  0  0  0  0  0  0  0  0
   -2.5932    0.7257   -3.2536 H   0  0  0  0  0  0  0  0  0  0  0  0
   -3.9435    0.0671   -1.1991 H   0  0  0  0  0  0  0  0  0  0  0  0
   -2.1248    2.1248    0.1673 H   0  0  0  0  0  0  0  0  0  0  0  0
   -2.4784    0.4730    0.7173 H   0  0  0  0  0  0  0  0  0  0  0  0
   -4.7832    0.9883    1.1225 H   0  0  0  0  0  0  0  0  0  0  0  0
   -3.9597    2.4259    1.7278 H   0  0  0  0  0  0  0  0  0  0  0  0
   -5.9542    2.3766   -0.2579 H   0  0  0  0  0  0  0  0  0  0  0  0
   -6.3126    4.4576   -1.5016 H   0  0  0  0  0  0  0  0  0  0  0  0
   -4.9111    6.3515   -0.0731 H   0  0  0  0  0  0  0  0  0  0  0  0
   -5.0151    1.8426   -2.3229 H   0  0  0  0  0  0  0  0  0  0  0  0
   -3.6733    2.9616   -2.0779 H   0  0  0  0  0  0  0  0  0  0  0  0
    0.1891    0.6492   -0.9377 H   0  0  0  0  0  0  0  0  0  0  0  0
    4.5075    3.2684    1.4585 H   0  0  0  0  0  0  0  0  0  0  0  0
    3.1525    2.8284    0.4300 H   0  0  0  0  0  0  0  0  0  0  0  0
    3.1409    2.7279    3.4974 H   0  0  0  0  0  0  0  0  0  0  0  0
    2.3721    3.9656    2.4866 H   0  0  0  0  0  0  0  0  0  0  0  0
    1.7732    2.2975    2.4587 H   0  0  0  0  0  0  0  0  0  0  0  0
    7.1195   -0.5842    2.8119 H   0  0  0  0  0  0  0  0  0  0  0  0
    6.0521   -2.0028    3.0270 H   0  0  0  0  0  0  0  0  0  0  0  0
    6.9261   -1.7547    1.4741 H   0  0  0  0  0  0  0  0  0  0  0  0
    2.4032   -3.2617   -0.2840 H   0  0  0  0  0  0  0  0  0  0  0  0
  1  2  1  0
  2  3  1  0
  3  4  1  0
  4  5  1  0
  5  6  2  0
  6  7  1  0
  7  8  1  0
  8  9  1  0
  9 10  1  0
 10 11  1  0
 11 12  1  0
 12 13  1  0
 13 14  2  0
 13 15  1  0
 15 16  1  0
 12 17  1  0
  7 18  2  0
 18 19  1  0
 19 20  1  0
 20 21  2  0
 21 22  1  0
 22 23  1  0
 23 24  1  0
 24 25  1  0
 23 26  2  0
 26 27  1  0
 27 28  1  0
 27 29  1  0
 29 30  1  0
 30 31  2  0
 30 32  1  0
 19  4  2  0
 32 20  1  0
 17  9  1  0
 29 22  2  0
  1 33  1  0
  1 34  1  0
  1 35  1  0
  2 36  1  0
  2 37  1  0
  5 38  1  0
  6 39  1  0
  8 40  1  0
  8 41  1  0
  9 42  1  0
 10 43  1  0
 10 44  1  0
 11 45  1  0
 11 46  1  0
 12 47  1  0
 15 48  1  0
 16 49  1  0
 17 50  1  0
 17 51  1  0
 18 52  1  0
 24 53  1  0
 24 54  1  0
 25 55  1  0
 25 56  1  0
 25 57  1  0
 28 58  1  0
 28 59  1  0
 28 60  1  0
 32 61  1  0
M  END
$$$$
