
     RDKit          3D

 61 64  0  0  0  0  0  0  0  0999 V2000
    2.0733    5.7229    1.1092 C   0  0  0  0  0  0  0  0  0  0  0  0
    1.5312    4.4046    1.6410 C   0  0  0  0  0  0  0  0  0  0  0  0
    2.5830    3.2925    1.6844 C   0  0  0  0  0  0  0  0  0  0  0  0
    3.0540    2.8894    0.3646 N   0  0  0  0  0  0  0  0  0  0  0  0
    4.2757    3.3543   -0.1215 C   0  0  0  0  0  0  0  0  0  0  0  0
    5.0269    4.1001    0.5074 O   0  0  0  0  0  0  0  0  0  0  0  0
    4.6508    2.9436   -1.3896 N   0  0  0  0  0  0  0  0  0  0  0  0
    3.9449    2.1290   -2.2459 C   0  0  0  0  0  0  0  0  0  0  0  0
    4.3497    1.8186   -3.3593 O   0  0  0  0  0  0  0  0  0  0  0  0
    2.7165    1.7053   -1.6853 C   0  0  0  0  0  0  0  0  0  0  0  0
    1.7303    0.9116   -2.1810 N   0  0  0  0  0  0  0  0  0  0  0  0
    0.7405    0.8181   -1.2205 C   0  0  0  0  0  0  0  0  0  0  0  0
   -0.5022    0.0450   -1.3833 C   0  0  0  0  0  0  0  0  0  0  0  0
   -1.4665    0.1487   -0.3647 C   0  0  0  0  0  0  0  0  0  0  0  0
   -2.6503   -0.5878   -0.4260 C   0  0  0  0  0  0  0  0  0  0  0  0
   -3.8544   -0.4344    0.8776 S   0  0  0  0  0  0  0  0  0  0  0  0
   -3.7263    0.8958    1.4328 O   0  0  0  0  0  0  0  0  0  0  0  0
   -5.1188   -0.9043    0.3499 O   0  0  0  0  0  0  0  0  0  0  0  0
   -3.3305   -1.5493    2.0351 N   0  0  0  0  0  0  0  0  0  0  0  0
   -3.5168   -2.9923    1.7205 C   0  0  0  0  0  0  0  0  0  0  0  0
   -2.8290   -3.8724    2.7795 C   0  0  0  0  0  0  0  0  0  0  0  0
   -1.3638   -3.6804    2.8173 N   0  0  0  0  0  0  0  0  0  0  0  0
   -0.8176   -4.1635    4.0834 C   0  0  0  0  0  0  0  0  0  0  0  0
   -0.9863   -2.2755    2.5557 C   0  0  0  0  0  0  0  0  0  0  0  0
   -2.0983   -1.2406    2.8133 C   0  0  0  0  0  0  0  0  0  0  0  0
   -2.9187   -1.3943   -1.5301 C   0  0  0  0  0  0  0  0  0  0  0  0
   -1.9776   -1.4968   -2.5578 C   0  0  0  0  0  0  0  0  0  0  0  0
   -0.7665   -0.7911   -2.4944 C   0  0  0  0  0  0  0  0  0  0  0  0
    0.2018   -0.8565   -3.4675 O   0  0  0  0  0  0  0  0  0  0  0  0
   -0.0253   -1.7151   -4.5862 C   0  0  0  0  0  0  0  0  0  0  0  0
    1.1911   -1.6277   -5.4906 C   0  0  0  0  0  0  0  0  0  0  0  0
    1.0850    1.5222   -0.1471 N   0  0  0  0  0  0  0  0  0  0  0  0
    2.2960    2.0675   -0.4434 C   0  0  0  0  0  0  0  0  0  0  0  0
    2.3741    5.6369    0.0608 H   0  0  0  0  0  0  0  0  0  0  0  0
    1.3032    6.4984    1.1717 H   0  0  0  0  0  0  0  0  0  0  0  0
    2.9374    6.0565    1.6923 H   0  0  0  0  0  0  0  0  0  0  0  0
    0.6744    4.0972    1.0307 H   0  0  0  0  0  0  0  0  0  0  0  0
    1.1554    4.5672    2.6581 H   0  0  0  0  0  0  0  0  0  0  0  0
    3.4337    3.6157    2.2957 H   0  0  0  0  0  0  0  0  0  0  0  0
    2.1626    2.4085    2.1797 H   0  0  0  0  0  0  0  0  0  0  0  0
    5.5361    3.2920   -1.7215 H   0  0  0  0  0  0  0  0  0  0  0  0
    1.7047    0.4567   -3.0854 H   0  0  0  0  0  0  0  0  0  0  0  0
   -1.2840    0.8129    0.4798 H   0  0  0  0  0  0  0  0  0  0  0  0
   -4.5889   -3.2169    1.7168 H   0  0  0  0  0  0  0  0  0  0  0  0
   -3.1095   -3.2286    0.7323 H   0  0  0  0  0  0  0  0  0  0  0  0
   -3.0406   -4.9259    2.5628 H   0  0  0  0  0  0  0  0  0  0  0  0
   -3.2746   -3.6449    3.7577 H   0  0  0  0  0  0  0  0  0  0  0  0
   -1.1758   -3.5782    4.9379 H   0  0  0  0  0  0  0  0  0  0  0  0
   -1.0883   -5.2130    4.2443 H   0  0  0  0  0  0  0  0  0  0  0  0
    0.2771   -4.1208    4.0701 H   0  0  0  0  0  0  0  0  0  0  0  0
   -0.0869   -1.9927    3.1167 H   0  0  0  0  0  0  0  0  0  0  0  0
   -0.7019   -2.2185    1.4976 H   0  0  0  0  0  0  0  0  0  0  0  0
   -1.7198   -0.2399    2.5872 H   0  0  0  0  0  0  0  0  0  0  0  0
   -2.3666   -1.2342    3.8768 H   0  0  0  0  0  0  0  0  0  0  0  0
   -3.8553   -1.9440   -1.6024 H   0  0  0  0  0  0  0  0  0  0  0  0
   -2.2260   -2.1378   -3.3981 H   0  0  0  0  0  0  0  0  0  0  0  0
   -0.1490   -2.7515   -4.2522 H   0  0  0  0  0  0  0  0  0  0  0  0
   -0.9095   -1.3859   -5.1435 H   0  0  0  0  0  0  0  0  0  0  0  0
    1.0710   -2.2679   -6.3689 H   0  0  0  0  0  0  0  0  0  0  0  0
    2.0945   -1.9317   -4.9515 H   0  0  0  0  0  0  0  0  0  0  0  0
    1.3508   -0.5966   -5.8230 H   0  0  0  0  0  0  0  0  0  0  0  0
  1  2  1  0
  2  3  1  0
  3  4  1  0
  4  5  1  0
  5  6  2  0
  5  7  1  0
  7  8  1  0
  8  9  2  0
  8 10  1  0
 10 11  1  0
 11 12  1  0
 12 13  1  0
 13 14  1  0
 14 15  2  0
 15 16  1  0
 16 17  2  0
 16 18  2  0
 16 19  1  0
 19 20  1  0
 20 21  1  0
 21 22  1  0
 22 23  1  0
 22 24  1  0
 24 25  1  0
 15 26  1  0
 26 27  2  0
 27 28  1  0
 28 29  1  0
 29 30  1  0
 30 31  1  0
 12 32  2  0
 32 33  1  0
 33  4  1  0
 33 10  2  0
 28 13  2  0
 25 19  1  0
  1 34  1  0
  1 35  1  0
  1 36  1  0
  2 37  1  0
  2 38  1  0
  3 39  1  0
  3 40  1  0
  7 41  1  0
 11 42  1  0
 14 43  1  0
 20 44  1  0
 20 45  1  0
 21 46  1  0
 21 47  1  0
 23 48  1  0
 23 49  1  0
 23 50  1  0
 24 51  1  0
 24 52  1  0
 25 53  1  0
 25 54  1  0
 26 55  1  0
 27 56  1  0
 30 57  1  0
 30 58  1  0
 31 59  1  0
 31 60  1  0
 31 61  1  0
M  END
$$$$
