


 34 37  0  0  0  0  0  0  0  0999 V2000
   -0.6420   61.8703   80.0708 C   0  0  0  0  0  0  0  0  0  0  0  0
   -0.2410   62.9145   80.7450 N   0  0  0  0  0  0  0  0  0  0  0  0
    0.2657   63.9223   79.9861 C   0  0  0  0  0  0  0  0  0  0  0  0
    0.3145   63.9521   78.6139 C   0  0  0  0  0  0  0  0  0  0  0  0
    0.7676   65.2227   78.2726 C   0  0  0  0  0  0  0  0  0  0  0  0
    0.9825   65.9821   79.3503 N   0  0  0  0  0  0  0  0  0  0  0  0
    0.7718   65.1429   80.4188 N   0  0  0  0  0  0  0  0  0  0  0  0
   -0.1125   62.8033   77.8775 C   0  0  0  0  0  0  0  0  0  0  0  0
   -0.0840   62.7121   76.6564 O   0  0  0  0  0  0  0  0  0  0  0  0
   -0.5762   61.7897   78.6938 N   0  0  0  0  0  0  0  0  0  0  0  0
   -0.8546   60.9525   78.2129 H   0  0  0  0  0  0  0  0  0  0  0  0
    0.9882   65.6236   81.7382 C   0  0  0  0  0  0  0  0  0  0  0  0
    0.3900   64.8999   82.7905 C   0  0  0  0  0  0  0  0  0  0  0  0
    0.6023   65.2638   84.1213 C   0  0  0  0  0  0  0  0  0  0  0  0
    1.3963   66.3649   84.4195 C   0  0  0  0  0  0  0  0  0  0  0  0
    1.9522   67.1180   83.3849 C   0  0  0  0  0  0  0  0  0  0  0  0
    1.7423   66.7657   82.0422 C   0  0  0  0  0  0  0  0  0  0  0  0
    2.2809   67.9305   80.8804 Cl  0  0  0  0  0  0  0  0  0  0  0  0
   -1.1317   60.8122   80.7801 N   0  0  0  0  0  0  0  0  0  0  0  0
   -0.4900   60.6003   81.5466 H   0  0  0  0  0  0  0  0  0  0  0  0
   -2.5360   60.6452   81.1796 C   0  0  0  0  0  0  0  0  0  0  0  0
   -3.4010   61.7225   80.5371 C   0  0  0  0  0  0  0  0  0  0  0  0
   -1.9890   61.7855   83.2541 N   0  0  0  0  0  0  0  0  0  0  0  0
   -2.6461   60.6845   82.7234 C   0  0  0  0  0  0  0  0  0  0  0  0
   -3.2082   59.7973   83.3569 O   0  0  0  0  0  0  0  0  0  0  0  0
   -1.6299   62.4402   82.5633 H   0  0  0  0  0  0  0  0  0  0  0  0
   -1.3562   62.8128   87.3017 C   0  0  0  0  0  0  0  0  0  0  0  0
   -2.6491   62.8483   86.7830 C   0  0  0  0  0  0  0  0  0  0  0  0
   -2.8855   62.5121   85.4420 C   0  0  0  0  0  0  0  0  0  0  0  0
   -1.8332   62.1382   84.6062 C   0  0  0  0  0  0  0  0  0  0  0  0
   -0.5374   62.1022   85.1304 C   0  0  0  0  0  0  0  0  0  0  0  0
   -0.3032   62.4376   86.4675 C   0  0  0  0  0  0  0  0  0  0  0  0
    0.1716   62.4728   89.0891 C   0  0  0  0  0  0  0  0  0  0  0  0
   -0.9924   63.1152   88.5839 O   0  0  0  0  0  0  0  0  0  0  0  0
 33 34  1  0  0  0
 34 27  1  0  0  0
 27 28  1  0  0  0
 28 29  2  0  0  0
 29 30  1  0  0  0
 30 23  1  0  0  0
 23 24  1  0  0  0
 24 25  2  0  0  0
 24 21  1  0  0  0
 21 22  1  0  0  0
 21 19  1  0  0  0
 19  1  1  0  0  0
  1  2  2  0  0  0
  2  3  1  0  0  0
  3  4  2  0  0  0
  4  5  1  0  0  0
  5  6  2  0  0  0
  6  7  1  0  0  0
  7 12  1  0  0  0
 12 13  2  0  0  0
 13 14  1  0  0  0
 14 15  2  0  0  0
 15 16  1  0  0  0
 16 17  2  0  0  0
 17 18  1  0  0  0
  4  8  1  0  0  0
  8  9  2  0  0  0
  8 10  1  0  0  0
 30 31  2  0  0  0
 31 32  1  0  0  0
 32 27  2  0  0  0
 10  1  1  0  0  0
  7  3  1  0  0  0
 17 12  1  0  0  0
 23 26  1  0  0  0
 19 20  1  0  0  0
 10 11  1  0  0  0
M  END
> <minimizedAffinity>
-10.73871

$$$$



 34 37  0  0  0  0  0  0  0  0999 V2000
   -1.3600   62.0771   78.5125 C   0  0  0  0  0  0  0  0  0  0  0  0
   -1.2804   62.0436   79.8157 N   0  0  0  0  0  0  0  0  0  0  0  0
   -2.0343   61.0794   80.4077 C   0  0  0  0  0  0  0  0  0  0  0  0
   -2.7830   60.1290   79.7579 C   0  0  0  0  0  0  0  0  0  0  0  0
   -3.2569   59.2710   80.7457 C   0  0  0  0  0  0  0  0  0  0  0  0
   -2.8299   59.6250   81.9609 N   0  0  0  0  0  0  0  0  0  0  0  0
   -2.1567   60.8078   81.7658 N   0  0  0  0  0  0  0  0  0  0  0  0
   -2.8800   60.1749   78.3321 C   0  0  0  0  0  0  0  0  0  0  0  0
   -3.5418   59.3967   77.6565 O   0  0  0  0  0  0  0  0  0  0  0  0
   -2.1336   61.1982   77.7804 N   0  0  0  0  0  0  0  0  0  0  0  0
   -2.2034   61.2823   76.7815 H   0  0  0  0  0  0  0  0  0  0  0  0
   -1.6257   61.5026   82.8856 C   0  0  0  0  0  0  0  0  0  0  0  0
   -2.5462   62.1595   83.7283 C   0  0  0  0  0  0  0  0  0  0  0  0
   -2.1184   62.8124   84.8855 C   0  0  0  0  0  0  0  0  0  0  0  0
   -0.7663   62.8364   85.2068 C   0  0  0  0  0  0  0  0  0  0  0  0
    0.1587   62.2329   84.3543 C   0  0  0  0  0  0  0  0  0  0  0  0
   -0.2581   61.5773   83.1848 C   0  0  0  0  0  0  0  0  0  0  0  0
    1.0142   61.1024   82.1114 Cl  0  0  0  0  0  0  0  0  0  0  0  0
   -0.6499   63.0444   77.8626 N   0  0  0  0  0  0  0  0  0  0  0  0
   -0.4766   62.7410   76.9023 H   0  0  0  0  0  0  0  0  0  0  0  0
   -0.9260   64.4857   77.9401 C   0  0  0  0  0  0  0  0  0  0  0  0
   -0.9668   65.0929   76.5432 C   0  0  0  0  0  0  0  0  0  0  0  0
   -0.3056   65.3668   80.1176 N   0  0  0  0  0  0  0  0  0  0  0  0
    0.1459   65.1744   78.8197 C   0  0  0  0  0  0  0  0  0  0  0  0
    1.2253   65.5366   78.3633 O   0  0  0  0  0  0  0  0  0  0  0  0
   -1.2096   64.9466   80.3202 H   0  0  0  0  0  0  0  0  0  0  0  0
    1.6656   67.1053   83.4239 C   0  0  0  0  0  0  0  0  0  0  0  0
    1.5181   67.8444   82.2518 C   0  0  0  0  0  0  0  0  0  0  0  0
    0.8678   67.2896   81.1398 C   0  0  0  0  0  0  0  0  0  0  0  0
    0.3596   65.9915   81.1874 C   0  0  0  0  0  0  0  0  0  0  0  0
    0.5080   65.2533   82.3656 C   0  0  0  0  0  0  0  0  0  0  0  0
    1.1565   65.8076   83.4733 C   0  0  0  0  0  0  0  0  0  0  0  0
    3.4527   68.3102   84.4235 C   0  0  0  0  0  0  0  0  0  0  0  0
    2.2754   67.5263   84.5723 O   0  0  0  0  0  0  0  0  0  0  0  0
 33 34  1  0  0  0
 34 27  1  0  0  0
 27 28  1  0  0  0
 28 29  2  0  0  0
 29 30  1  0  0  0
 30 23  1  0  0  0
 23 24  1  0  0  0
 24 25  2  0  0  0
 24 21  1  0  0  0
 21 22  1  0  0  0
 21 19  1  0  0  0
 19  1  1  0  0  0
  1  2  2  0  0  0
  2  3  1  0  0  0
  3  4  2  0  0  0
  4  5  1  0  0  0
  5  6  2  0  0  0
  6  7  1  0  0  0
  7 12  1  0  0  0
 12 13  2  0  0  0
 13 14  1  0  0  0
 14 15  2  0  0  0
 15 16  1  0  0  0
 16 17  2  0  0  0
 17 18  1  0  0  0
  4  8  1  0  0  0
  8  9  2  0  0  0
  8 10  1  0  0  0
 30 31  2  0  0  0
 31 32  1  0  0  0
 32 27  2  0  0  0
 10  1  1  0  0  0
  7  3  1  0  0  0
 17 12  1  0  0  0
 23 26  1  0  0  0
 19 20  1  0  0  0
 10 11  1  0  0  0
M  END
> <minimizedAffinity>
-10.45043

$$$$



 34 37  0  0  0  0  0  0  0  0999 V2000
    3.0133   68.7814   83.0503 C   0  0  0  0  0  0  0  0  0  0  0  0
    2.3533   67.9706   82.2675 N   0  0  0  0  0  0  0  0  0  0  0  0
    1.2720   68.5235   81.6564 C   0  0  0  0  0  0  0  0  0  0  0  0
    0.8834   69.8381   81.7394 C   0  0  0  0  0  0  0  0  0  0  0  0
   -0.1720   69.9846   80.8445 C   0  0  0  0  0  0  0  0  0  0  0  0
   -0.4439   68.8451   80.2027 N   0  0  0  0  0  0  0  0  0  0  0  0
    0.3823   67.9106   80.7810 N   0  0  0  0  0  0  0  0  0  0  0  0
    1.5988   70.7214   82.6069 C   0  0  0  0  0  0  0  0  0  0  0  0
    1.3200   71.9017   82.7782 O   0  0  0  0  0  0  0  0  0  0  0  0
    2.6599   70.1029   83.2392 N   0  0  0  0  0  0  0  0  0  0  0  0
    3.1668   70.6847   83.8829 H   0  0  0  0  0  0  0  0  0  0  0  0
    0.2963   66.5529   80.3714 C   0  0  0  0  0  0  0  0  0  0  0  0
   -0.6546   65.7441   81.0275 C   0  0  0  0  0  0  0  0  0  0  0  0
   -0.8509   64.4160   80.6455 C   0  0  0  0  0  0  0  0  0  0  0  0
   -0.0884   63.8712   79.6189 C   0  0  0  0  0  0  0  0  0  0  0  0
    0.8899   64.6472   78.9965 C   0  0  0  0  0  0  0  0  0  0  0  0
    1.1008   65.9827   79.3748 C   0  0  0  0  0  0  0  0  0  0  0  0
    2.5052   66.7303   78.6927 Cl  0  0  0  0  0  0  0  0  0  0  0  0
    4.0913   68.2753   83.7169 N   0  0  0  0  0  0  0  0  0  0  0  0
    4.8888   68.8998   83.5820 H   0  0  0  0  0  0  0  0  0  0  0  0
    4.0542   67.7203   85.0771 C   0  0  0  0  0  0  0  0  0  0  0  0
    5.4433   67.7578   85.7022 C   0  0  0  0  0  0  0  0  0  0  0  0
    2.1095   66.2646   85.0355 N   0  0  0  0  0  0  0  0  0  0  0  0
    3.4970   66.2765   85.0350 C   0  0  0  0  0  0  0  0  0  0  0  0
    4.2333   65.2957   85.0567 O   0  0  0  0  0  0  0  0  0  0  0  0
    1.6763   67.1821   84.9619 H   0  0  0  0  0  0  0  0  0  0  0  0
   -0.4850   62.9375   85.2302 C   0  0  0  0  0  0  0  0  0  0  0  0
    0.0019   63.3512   83.9918 C   0  0  0  0  0  0  0  0  0  0  0  0
    0.8645   64.4534   83.9004 C   0  0  0  0  0  0  0  0  0  0  0  0
    1.2481   65.1533   85.0444 C   0  0  0  0  0  0  0  0  0  0  0  0
    0.7588   64.7345   86.2855 C   0  0  0  0  0  0  0  0  0  0  0  0
   -0.1010   63.6355   86.3751 C   0  0  0  0  0  0  0  0  0  0  0  0
   -2.7090   62.1888   85.6021 C   0  0  0  0  0  0  0  0  0  0  0  0
   -1.3273   61.8851   85.4556 O   0  0  0  0  0  0  0  0  0  0  0  0
 33 34  1  0  0  0
 34 27  1  0  0  0
 27 28  1  0  0  0
 28 29  2  0  0  0
 29 30  1  0  0  0
 30 23  1  0  0  0
 23 24  1  0  0  0
 24 25  2  0  0  0
 24 21  1  0  0  0
 21 22  1  0  0  0
 21 19  1  0  0  0
 19  1  1  0  0  0
  1  2  2  0  0  0
  2  3  1  0  0  0
  3  4  2  0  0  0
  4  5  1  0  0  0
  5  6  2  0  0  0
  6  7  1  0  0  0
  7 12  1  0  0  0
 12 13  2  0  0  0
 13 14  1  0  0  0
 14 15  2  0  0  0
 15 16  1  0  0  0
 16 17  2  0  0  0
 17 18  1  0  0  0
  4  8  1  0  0  0
  8  9  2  0  0  0
  8 10  1  0  0  0
 30 31  2  0  0  0
 31 32  1  0  0  0
 32 27  2  0  0  0
 10  1  1  0  0  0
  7  3  1  0  0  0
 17 12  1  0  0  0
 23 26  1  0  0  0
 19 20  1  0  0  0
 10 11  1  0  0  0
M  END
> <minimizedAffinity>
-10.32541

$$$$



 34 37  0  0  0  0  0  0  0  0999 V2000
    0.9116   65.3222   85.0681 C   0  0  0  0  0  0  0  0  0  0  0  0
    0.3363   64.5575   84.1793 N   0  0  0  0  0  0  0  0  0  0  0  0
   -0.3127   63.4781   84.6913 C   0  0  0  0  0  0  0  0  0  0  0  0
   -0.4654   63.1868   86.0247 C   0  0  0  0  0  0  0  0  0  0  0  0
   -1.3152   62.0865   86.0832 C   0  0  0  0  0  0  0  0  0  0  0  0
   -1.7092   61.6950   84.8684 N   0  0  0  0  0  0  0  0  0  0  0  0
   -1.0050   62.4922   83.9971 N   0  0  0  0  0  0  0  0  0  0  0  0
    0.1760   64.0172   86.9960 C   0  0  0  0  0  0  0  0  0  0  0  0
    0.1299   63.8319   88.2059 O   0  0  0  0  0  0  0  0  0  0  0  0
    0.8595   65.0735   86.4254 N   0  0  0  0  0  0  0  0  0  0  0  0
    1.3510   65.6608   87.0760 H   0  0  0  0  0  0  0  0  0  0  0  0
   -1.1391   62.2863   82.5977 C   0  0  0  0  0  0  0  0  0  0  0  0
   -2.3939   62.5783   82.0239 C   0  0  0  0  0  0  0  0  0  0  0  0
   -2.5955   62.4657   80.6473 C   0  0  0  0  0  0  0  0  0  0  0  0
   -1.5560   62.0416   79.8279 C   0  0  0  0  0  0  0  0  0  0  0  0
   -0.3254   61.7020   80.3908 C   0  0  0  0  0  0  0  0  0  0  0  0
   -0.1111   61.8059   81.7744 C   0  0  0  0  0  0  0  0  0  0  0  0
    1.3696   61.1152   82.3461 Cl  0  0  0  0  0  0  0  0  0  0  0  0
    1.6061   66.4051   84.6127 N   0  0  0  0  0  0  0  0  0  0  0  0
    1.4832   67.1788   85.2687 H   0  0  0  0  0  0  0  0  0  0  0  0
    2.9701   66.3609   84.0674 C   0  0  0  0  0  0  0  0  0  0  0  0
    3.9291   65.7605   85.0880 C   0  0  0  0  0  0  0  0  0  0  0  0
    2.4831   68.3846   82.8143 N   0  0  0  0  0  0  0  0  0  0  0  0
    3.4117   67.7860   83.6539 C   0  0  0  0  0  0  0  0  0  0  0  0
    4.4863   68.2606   84.0066 O   0  0  0  0  0  0  0  0  0  0  0  0
    1.6257   67.8536   82.6810 H   0  0  0  0  0  0  0  0  0  0  0  0
    2.7875   72.1158   80.8586 C   0  0  0  0  0  0  0  0  0  0  0  0
    2.0306   72.0164   82.0243 C   0  0  0  0  0  0  0  0  0  0  0  0
    1.9135   70.7887   82.6922 C   0  0  0  0  0  0  0  0  0  0  0  0
    2.5502   69.6485   82.2019 C   0  0  0  0  0  0  0  0  0  0  0  0
    3.3103   69.7522   81.0329 C   0  0  0  0  0  0  0  0  0  0  0  0
    3.4262   70.9768   80.3681 C   0  0  0  0  0  0  0  0  0  0  0  0
    4.1940   73.9571   80.3330 C   0  0  0  0  0  0  0  0  0  0  0  0
    2.9813   73.2466   80.1159 O   0  0  0  0  0  0  0  0  0  0  0  0
 33 34  1  0  0  0
 34 27  1  0  0  0
 27 28  1  0  0  0
 28 29  2  0  0  0
 29 30  1  0  0  0
 30 23  1  0  0  0
 23 24  1  0  0  0
 24 25  2  0  0  0
 24 21  1  0  0  0
 21 22  1  0  0  0
 21 19  1  0  0  0
 19  1  1  0  0  0
  1  2  2  0  0  0
  2  3  1  0  0  0
  3  4  2  0  0  0
  4  5  1  0  0  0
  5  6  2  0  0  0
  6  7  1  0  0  0
  7 12  1  0  0  0
 12 13  2  0  0  0
 13 14  1  0  0  0
 14 15  2  0  0  0
 15 16  1  0  0  0
 16 17  2  0  0  0
 17 18  1  0  0  0
  4  8  1  0  0  0
  8  9  2  0  0  0
  8 10  1  0  0  0
 30 31  2  0  0  0
 31 32  1  0  0  0
 32 27  2  0  0  0
 10  1  1  0  0  0
  7  3  1  0  0  0
 17 12  1  0  0  0
 23 26  1  0  0  0
 19 20  1  0  0  0
 10 11  1  0  0  0
M  END
> <minimizedAffinity>
-10.18968

$$$$



 34 37  0  0  0  0  0  0  0  0999 V2000
   -1.7656   62.4976   84.0420 C   0  0  0  0  0  0  0  0  0  0  0  0
   -1.3421   63.2203   83.0400 N   0  0  0  0  0  0  0  0  0  0  0  0
   -1.4859   62.6405   81.8187 C   0  0  0  0  0  0  0  0  0  0  0  0
   -2.0885   61.4326   81.5655 C   0  0  0  0  0  0  0  0  0  0  0  0
   -2.1429   61.3127   80.1803 C   0  0  0  0  0  0  0  0  0  0  0  0
   -1.6276   62.3813   79.5662 N   0  0  0  0  0  0  0  0  0  0  0  0
   -1.1240   63.1605   80.5809 N   0  0  0  0  0  0  0  0  0  0  0  0
   -2.5398   60.6366   82.6642 C   0  0  0  0  0  0  0  0  0  0  0  0
   -3.0624   59.5344   82.5536 O   0  0  0  0  0  0  0  0  0  0  0  0
   -2.3311   61.2476   83.8855 N   0  0  0  0  0  0  0  0  0  0  0  0
   -2.6060   60.7029   84.6840 H   0  0  0  0  0  0  0  0  0  0  0  0
   -0.4329   64.3605   80.2633 C   0  0  0  0  0  0  0  0  0  0  0  0
   -0.8682   65.5397   80.9027 C   0  0  0  0  0  0  0  0  0  0  0  0
   -0.2064   66.7515   80.6982 C   0  0  0  0  0  0  0  0  0  0  0  0
    0.8845   66.8079   79.8387 C   0  0  0  0  0  0  0  0  0  0  0  0
    1.2928   65.6580   79.1622 C   0  0  0  0  0  0  0  0  0  0  0  0
    0.6326   64.4341   79.3552 C   0  0  0  0  0  0  0  0  0  0  0  0
    1.0901   63.1687   78.2661 Cl  0  0  0  0  0  0  0  0  0  0  0  0
   -1.6190   63.0131   85.2971 N   0  0  0  0  0  0  0  0  0  0  0  0
   -2.5021   62.9154   85.8019 H   0  0  0  0  0  0  0  0  0  0  0  0
   -0.4602   62.7823   86.1709 C   0  0  0  0  0  0  0  0  0  0  0  0
   -0.9207   62.3540   87.5588 C   0  0  0  0  0  0  0  0  0  0  0  0
    0.9863   64.3529   85.0117 N   0  0  0  0  0  0  0  0  0  0  0  0
    0.4046   64.0648   86.2381 C   0  0  0  0  0  0  0  0  0  0  0  0
    0.5686   64.6830   87.2847 O   0  0  0  0  0  0  0  0  0  0  0  0
    0.6850   63.7538   84.2468 H   0  0  0  0  0  0  0  0  0  0  0  0
    3.4985   67.5794   83.9544 C   0  0  0  0  0  0  0  0  0  0  0  0
    4.0110   66.5417   84.7305 C   0  0  0  0  0  0  0  0  0  0  0  0
    3.1971   65.4593   85.0953 C   0  0  0  0  0  0  0  0  0  0  0  0
    1.8638   65.4032   84.6894 C   0  0  0  0  0  0  0  0  0  0  0  0
    1.3533   66.4453   83.9095 C   0  0  0  0  0  0  0  0  0  0  0  0
    2.1658   67.5238   83.5465 C   0  0  0  0  0  0  0  0  0  0  0  0
    3.5159   69.5374   82.6088 C   0  0  0  0  0  0  0  0  0  0  0  0
    4.1817   68.6854   83.5326 O   0  0  0  0  0  0  0  0  0  0  0  0
 33 34  1  0  0  0
 34 27  1  0  0  0
 27 28  1  0  0  0
 28 29  2  0  0  0
 29 30  1  0  0  0
 30 23  1  0  0  0
 23 24  1  0  0  0
 24 25  2  0  0  0
 24 21  1  0  0  0
 21 22  1  0  0  0
 21 19  1  0  0  0
 19  1  1  0  0  0
  1  2  2  0  0  0
  2  3  1  0  0  0
  3  4  2  0  0  0
  4  5  1  0  0  0
  5  6  2  0  0  0
  6  7  1  0  0  0
  7 12  1  0  0  0
 12 13  2  0  0  0
 13 14  1  0  0  0
 14 15  2  0  0  0
 15 16  1  0  0  0
 16 17  2  0  0  0
 17 18  1  0  0  0
  4  8  1  0  0  0
  8  9  2  0  0  0
  8 10  1  0  0  0
 30 31  2  0  0  0
 31 32  1  0  0  0
 32 27  2  0  0  0
 10  1  1  0  0  0
  7  3  1  0  0  0
 17 12  1  0  0  0
 23 26  1  0  0  0
 19 20  1  0  0  0
 10 11  1  0  0  0
M  END
> <minimizedAffinity>
-10.18392

$$$$



 34 37  0  0  0  0  0  0  0  0999 V2000
    0.2305   65.4832   79.5982 C   0  0  0  0  0  0  0  0  0  0  0  0
    0.0386   64.8589   80.7292 N   0  0  0  0  0  0  0  0  0  0  0  0
    0.0160   63.5029   80.6344 C   0  0  0  0  0  0  0  0  0  0  0  0
    0.2465   62.7702   79.4959 C   0  0  0  0  0  0  0  0  0  0  0  0
    0.2716   61.4373   79.8946 C   0  0  0  0  0  0  0  0  0  0  0  0
    0.0893   61.3068   81.2115 N   0  0  0  0  0  0  0  0  0  0  0  0
   -0.1740   62.5805   81.6574 N   0  0  0  0  0  0  0  0  0  0  0  0
    0.4433   63.4548   78.2561 C   0  0  0  0  0  0  0  0  0  0  0  0
    0.6270   62.9007   77.1794 O   0  0  0  0  0  0  0  0  0  0  0  0
    0.4128   64.8289   78.3960 N   0  0  0  0  0  0  0  0  0  0  0  0
    0.5149   65.3441   77.5393 H   0  0  0  0  0  0  0  0  0  0  0  0
   -0.4885   62.7903   83.0269 C   0  0  0  0  0  0  0  0  0  0  0  0
    0.4307   63.5415   83.7882 C   0  0  0  0  0  0  0  0  0  0  0  0
    0.1710   63.8499   85.1245 C   0  0  0  0  0  0  0  0  0  0  0  0
   -0.9978   63.3966   85.7248 C   0  0  0  0  0  0  0  0  0  0  0  0
   -1.8905   62.6103   84.9958 C   0  0  0  0  0  0  0  0  0  0  0  0
   -1.6386   62.2889   83.6525 C   0  0  0  0  0  0  0  0  0  0  0  0
   -2.7012   61.1084   82.9641 Cl  0  0  0  0  0  0  0  0  0  0  0  0
    0.2317   66.8477   79.6241 N   0  0  0  0  0  0  0  0  0  0  0  0
   -0.4039   67.1944   78.9029 H   0  0  0  0  0  0  0  0  0  0  0  0
    0.1748   67.6658   80.8435 C   0  0  0  0  0  0  0  0  0  0  0  0
   -0.3436   69.0618   80.5209 C   0  0  0  0  0  0  0  0  0  0  0  0
    1.5461   67.2938   82.8143 N   0  0  0  0  0  0  0  0  0  0  0  0
    1.5776   67.7256   81.4960 C   0  0  0  0  0  0  0  0  0  0  0  0
    2.5544   68.1620   80.8961 O   0  0  0  0  0  0  0  0  0  0  0  0
    0.6514   66.9160   83.1169 H   0  0  0  0  0  0  0  0  0  0  0  0
    4.7135   66.9724   85.5898 C   0  0  0  0  0  0  0  0  0  0  0  0
    4.2640   68.2359   85.2112 C   0  0  0  0  0  0  0  0  0  0  0  0
    3.2140   68.3694   84.2908 C   0  0  0  0  0  0  0  0  0  0  0  0
    2.6038   67.2428   83.7394 C   0  0  0  0  0  0  0  0  0  0  0  0
    3.0564   65.9766   84.1229 C   0  0  0  0  0  0  0  0  0  0  0  0
    4.1031   65.8450   85.0404 C   0  0  0  0  0  0  0  0  0  0  0  0
    5.5318   65.6035   87.3509 C   0  0  0  0  0  0  0  0  0  0  0  0
    5.7224   66.7057   86.4725 O   0  0  0  0  0  0  0  0  0  0  0  0
 33 34  1  0  0  0
 34 27  1  0  0  0
 27 28  1  0  0  0
 28 29  2  0  0  0
 29 30  1  0  0  0
 30 23  1  0  0  0
 23 24  1  0  0  0
 24 25  2  0  0  0
 24 21  1  0  0  0
 21 22  1  0  0  0
 21 19  1  0  0  0
 19  1  1  0  0  0
  1  2  2  0  0  0
  2  3  1  0  0  0
  3  4  2  0  0  0
  4  5  1  0  0  0
  5  6  2  0  0  0
  6  7  1  0  0  0
  7 12  1  0  0  0
 12 13  2  0  0  0
 13 14  1  0  0  0
 14 15  2  0  0  0
 15 16  1  0  0  0
 16 17  2  0  0  0
 17 18  1  0  0  0
  4  8  1  0  0  0
  8  9  2  0  0  0
  8 10  1  0  0  0
 30 31  2  0  0  0
 31 32  1  0  0  0
 32 27  2  0  0  0
 10  1  1  0  0  0
  7  3  1  0  0  0
 17 12  1  0  0  0
 23 26  1  0  0  0
 19 20  1  0  0  0
 10 11  1  0  0  0
M  END
> <minimizedAffinity>
-10.17749

$$$$



 34 37  0  0  0  0  0  0  0  0999 V2000
   -0.8475   64.0826   80.9815 C   0  0  0  0  0  0  0  0  0  0  0  0
   -0.7637   63.9019   82.2722 N   0  0  0  0  0  0  0  0  0  0  0  0
   -1.4985   62.8629   82.7507 C   0  0  0  0  0  0  0  0  0  0  0  0
   -2.2319   61.9795   81.9971 C   0  0  0  0  0  0  0  0  0  0  0  0
   -2.6876   61.0059   82.8808 C   0  0  0  0  0  0  0  0  0  0  0  0
   -2.2637   61.2264   84.1282 N   0  0  0  0  0  0  0  0  0  0  0  0
   -1.6123   62.4358   84.0691 N   0  0  0  0  0  0  0  0  0  0  0  0
   -2.3336   62.1863   80.5860 C   0  0  0  0  0  0  0  0  0  0  0  0
   -2.9833   61.4785   79.8264 O   0  0  0  0  0  0  0  0  0  0  0  0
   -1.6072   63.2793   80.1544 N   0  0  0  0  0  0  0  0  0  0  0  0
   -1.6813   63.4756   79.1717 H   0  0  0  0  0  0  0  0  0  0  0  0
   -1.0907   63.0076   85.2605 C   0  0  0  0  0  0  0  0  0  0  0  0
    0.1098   63.7391   85.1486 C   0  0  0  0  0  0  0  0  0  0  0  0
    0.6592   64.3878   86.2558 C   0  0  0  0  0  0  0  0  0  0  0  0
    0.0306   64.2990   87.4923 C   0  0  0  0  0  0  0  0  0  0  0  0
   -1.1303   63.5366   87.6254 C   0  0  0  0  0  0  0  0  0  0  0  0
   -1.6903   62.8752   86.5209 C   0  0  0  0  0  0  0  0  0  0  0  0
   -2.9741   61.7750   86.8921 Cl  0  0  0  0  0  0  0  0  0  0  0  0
   -0.1566   65.1306   80.4459 N   0  0  0  0  0  0  0  0  0  0  0  0
   -0.2738   65.1219   79.4308 H   0  0  0  0  0  0  0  0  0  0  0  0
   -0.1512   66.4977   80.9848 C   0  0  0  0  0  0  0  0  0  0  0  0
   -0.5738   67.4921   79.9104 C   0  0  0  0  0  0  0  0  0  0  0  0
    1.3274   66.6294   82.9082 N   0  0  0  0  0  0  0  0  0  0  0  0
    1.2554   66.8337   81.5376 C   0  0  0  0  0  0  0  0  0  0  0  0
    2.1462   67.2764   80.8199 O   0  0  0  0  0  0  0  0  0  0  0  0
    0.4997   66.2038   83.3188 H   0  0  0  0  0  0  0  0  0  0  0  0
    4.6243   67.1607   85.4941 C   0  0  0  0  0  0  0  0  0  0  0  0
    3.8928   68.2736   85.0841 C   0  0  0  0  0  0  0  0  0  0  0  0
    2.7940   68.1237   84.2253 C   0  0  0  0  0  0  0  0  0  0  0  0
    2.4160   66.8616   83.7673 C   0  0  0  0  0  0  0  0  0  0  0  0
    3.1514   65.7470   84.1820 C   0  0  0  0  0  0  0  0  0  0  0  0
    4.2465   65.8978   85.0381 C   0  0  0  0  0  0  0  0  0  0  0  0
    6.0486   65.9388   86.9512 C   0  0  0  0  0  0  0  0  0  0  0  0
    5.7101   67.1696   86.3241 O   0  0  0  0  0  0  0  0  0  0  0  0
 33 34  1  0  0  0
 34 27  1  0  0  0
 27 28  1  0  0  0
 28 29  2  0  0  0
 29 30  1  0  0  0
 30 23  1  0  0  0
 23 24  1  0  0  0
 24 25  2  0  0  0
 24 21  1  0  0  0
 21 22  1  0  0  0
 21 19  1  0  0  0
 19  1  1  0  0  0
  1  2  2  0  0  0
  2  3  1  0  0  0
  3  4  2  0  0  0
  4  5  1  0  0  0
  5  6  2  0  0  0
  6  7  1  0  0  0
  7 12  1  0  0  0
 12 13  2  0  0  0
 13 14  1  0  0  0
 14 15  2  0  0  0
 15 16  1  0  0  0
 16 17  2  0  0  0
 17 18  1  0  0  0
  4  8  1  0  0  0
  8  9  2  0  0  0
  8 10  1  0  0  0
 30 31  2  0  0  0
 31 32  1  0  0  0
 32 27  2  0  0  0
 10  1  1  0  0  0
  7  3  1  0  0  0
 17 12  1  0  0  0
 23 26  1  0  0  0
 19 20  1  0  0  0
 10 11  1  0  0  0
M  END
> <minimizedAffinity>
-10.06794

$$$$



 34 37  0  0  0  0  0  0  0  0999 V2000
   -2.8151   61.6403   78.4678 C   0  0  0  0  0  0  0  0  0  0  0  0
   -2.1950   61.9030   79.5867 N   0  0  0  0  0  0  0  0  0  0  0  0
   -2.4515   61.0314   80.5982 C   0  0  0  0  0  0  0  0  0  0  0  0
   -3.2235   59.8989   80.5103 C   0  0  0  0  0  0  0  0  0  0  0  0
   -3.0838   59.2426   81.7294 C   0  0  0  0  0  0  0  0  0  0  0  0
   -2.2585   59.8926   82.5544 N   0  0  0  0  0  0  0  0  0  0  0  0
   -1.9469   61.0574   81.8936 N   0  0  0  0  0  0  0  0  0  0  0  0
   -3.9123   59.6197   79.2889 C   0  0  0  0  0  0  0  0  0  0  0  0
   -4.6478   58.6564   79.1120 O   0  0  0  0  0  0  0  0  0  0  0  0
   -3.6561   60.5570   78.3068 N   0  0  0  0  0  0  0  0  0  0  0  0
   -4.1495   60.4116   77.4436 H   0  0  0  0  0  0  0  0  0  0  0  0
   -1.1283   62.0264   82.5335 C   0  0  0  0  0  0  0  0  0  0  0  0
   -1.7348   62.8230   83.5268 C   0  0  0  0  0  0  0  0  0  0  0  0
   -0.9900   63.7556   84.2506 C   0  0  0  0  0  0  0  0  0  0  0  0
    0.3633   63.9206   83.9801 C   0  0  0  0  0  0  0  0  0  0  0  0
    0.9625   63.1736   82.9654 C   0  0  0  0  0  0  0  0  0  0  0  0
    0.2235   62.2359   82.2267 C   0  0  0  0  0  0  0  0  0  0  0  0
    1.0359   61.5766   80.8476 Cl  0  0  0  0  0  0  0  0  0  0  0  0
   -2.6224   62.4983   77.4241 N   0  0  0  0  0  0  0  0  0  0  0  0
   -3.0859   63.3848   77.6326 H   0  0  0  0  0  0  0  0  0  0  0  0
   -1.3452   62.6992   76.7254 C   0  0  0  0  0  0  0  0  0  0  0  0
   -0.4051   61.5306   76.9942 C   0  0  0  0  0  0  0  0  0  0  0  0
   -0.2778   63.9874   78.4872 N   0  0  0  0  0  0  0  0  0  0  0  0
   -0.7137   64.0407   77.1709 C   0  0  0  0  0  0  0  0  0  0  0  0
   -0.6779   65.0186   76.4314 O   0  0  0  0  0  0  0  0  0  0  0  0
   -0.3427   63.0691   78.9199 H   0  0  0  0  0  0  0  0  0  0  0  0
    1.3440   67.0564   80.8936 C   0  0  0  0  0  0  0  0  0  0  0  0
    2.0210   66.6640   79.7405 C   0  0  0  0  0  0  0  0  0  0  0  0
    1.5035   65.6470   78.9249 C   0  0  0  0  0  0  0  0  0  0  0  0
    0.3059   65.0118   79.2534 C   0  0  0  0  0  0  0  0  0  0  0  0
   -0.3715   65.4092   80.4102 C   0  0  0  0  0  0  0  0  0  0  0  0
    0.1455   66.4231   81.2224 C   0  0  0  0  0  0  0  0  0  0  0  0
    1.6677   69.3729   81.3104 C   0  0  0  0  0  0  0  0  0  0  0  0
    1.7380   68.0287   81.7695 O   0  0  0  0  0  0  0  0  0  0  0  0
 33 34  1  0  0  0
 34 27  1  0  0  0
 27 28  1  0  0  0
 28 29  2  0  0  0
 29 30  1  0  0  0
 30 23  1  0  0  0
 23 24  1  0  0  0
 24 25  2  0  0  0
 24 21  1  0  0  0
 21 22  1  0  0  0
 21 19  1  0  0  0
 19  1  1  0  0  0
  1  2  2  0  0  0
  2  3  1  0  0  0
  3  4  2  0  0  0
  4  5  1  0  0  0
  5  6  2  0  0  0
  6  7  1  0  0  0
  7 12  1  0  0  0
 12 13  2  0  0  0
 13 14  1  0  0  0
 14 15  2  0  0  0
 15 16  1  0  0  0
 16 17  2  0  0  0
 17 18  1  0  0  0
  4  8  1  0  0  0
  8  9  2  0  0  0
  8 10  1  0  0  0
 30 31  2  0  0  0
 31 32  1  0  0  0
 32 27  2  0  0  0
 10  1  1  0  0  0
  7  3  1  0  0  0
 17 12  1  0  0  0
 23 26  1  0  0  0
 19 20  1  0  0  0
 10 11  1  0  0  0
M  END
> <minimizedAffinity>
-10.05946

$$$$



 34 37  0  0  0  0  0  0  0  0999 V2000
   -0.0221   63.9899   83.4220 C   0  0  0  0  0  0  0  0  0  0  0  0
   -0.0099   63.9711   82.1161 N   0  0  0  0  0  0  0  0  0  0  0  0
    0.6341   65.0194   81.5375 C   0  0  0  0  0  0  0  0  0  0  0  0
    1.3102   66.0150   82.1992 C   0  0  0  0  0  0  0  0  0  0  0  0
    1.9315   66.7778   81.2150 C   0  0  0  0  0  0  0  0  0  0  0  0
    1.6941   66.3011   79.9900 N   0  0  0  0  0  0  0  0  0  0  0  0
    0.8033   65.2712   80.1805 N   0  0  0  0  0  0  0  0  0  0  0  0
    1.2849   66.0418   83.6285 C   0  0  0  0  0  0  0  0  0  0  0  0
    1.8276   66.8981   84.3159 O   0  0  0  0  0  0  0  0  0  0  0  0
    0.5812   64.9827   84.1685 N   0  0  0  0  0  0  0  0  0  0  0  0
    0.5138   64.9862   85.1711 H   0  0  0  0  0  0  0  0  0  0  0  0
    0.2813   64.5813   79.0535 C   0  0  0  0  0  0  0  0  0  0  0  0
   -0.5390   65.3179   78.1741 C   0  0  0  0  0  0  0  0  0  0  0  0
   -1.0423   64.7374   77.0087 C   0  0  0  0  0  0  0  0  0  0  0  0
   -0.7515   63.4103   76.7153 C   0  0  0  0  0  0  0  0  0  0  0  0
    0.0175   62.6575   77.6032 C   0  0  0  0  0  0  0  0  0  0  0  0
    0.5255   63.2279   78.7812 C   0  0  0  0  0  0  0  0  0  0  0  0
    1.2405   62.1109   79.8937 Cl  0  0  0  0  0  0  0  0  0  0  0  0
   -0.6814   62.9800   84.0605 N   0  0  0  0  0  0  0  0  0  0  0  0
   -0.3042   62.8818   85.0051 H   0  0  0  0  0  0  0  0  0  0  0  0
   -2.1358   62.7718   84.0271 C   0  0  0  0  0  0  0  0  0  0  0  0
   -2.6382   62.3250   85.3944 C   0  0  0  0  0  0  0  0  0  0  0  0
   -2.3072   62.2533   81.6597 N   0  0  0  0  0  0  0  0  0  0  0  0
   -2.4880   61.7339   82.9337 C   0  0  0  0  0  0  0  0  0  0  0  0
   -2.9230   60.6211   83.2111 O   0  0  0  0  0  0  0  0  0  0  0  0
   -1.8844   63.1781   81.6335 H   0  0  0  0  0  0  0  0  0  0  0  0
   -2.9348   60.2889   77.9738 C   0  0  0  0  0  0  0  0  0  0  0  0
   -3.7476   61.3667   78.3193 C   0  0  0  0  0  0  0  0  0  0  0  0
   -3.5598   62.0354   79.5378 C   0  0  0  0  0  0  0  0  0  0  0  0
   -2.5593   61.6338   80.4229 C   0  0  0  0  0  0  0  0  0  0  0  0
   -1.7445   60.5529   80.0722 C   0  0  0  0  0  0  0  0  0  0  0  0
   -1.9329   59.8872   78.8572 C   0  0  0  0  0  0  0  0  0  0  0  0
   -1.8295   58.8840   76.4086 C   0  0  0  0  0  0  0  0  0  0  0  0
   -3.0128   59.5555   76.8231 O   0  0  0  0  0  0  0  0  0  0  0  0
 33 34  1  0  0  0
 34 27  1  0  0  0
 27 28  1  0  0  0
 28 29  2  0  0  0
 29 30  1  0  0  0
 30 23  1  0  0  0
 23 24  1  0  0  0
 24 25  2  0  0  0
 24 21  1  0  0  0
 21 22  1  0  0  0
 21 19  1  0  0  0
 19  1  1  0  0  0
  1  2  2  0  0  0
  2  3  1  0  0  0
  3  4  2  0  0  0
  4  5  1  0  0  0
  5  6  2  0  0  0
  6  7  1  0  0  0
  7 12  1  0  0  0
 12 13  2  0  0  0
 13 14  1  0  0  0
 14 15  2  0  0  0
 15 16  1  0  0  0
 16 17  2  0  0  0
 17 18  1  0  0  0
  4  8  1  0  0  0
  8  9  2  0  0  0
  8 10  1  0  0  0
 30 31  2  0  0  0
 31 32  1  0  0  0
 32 27  2  0  0  0
 10  1  1  0  0  0
  7  3  1  0  0  0
 17 12  1  0  0  0
 23 26  1  0  0  0
 19 20  1  0  0  0
 10 11  1  0  0  0
M  END
> <minimizedAffinity>
-10.01071

$$$$
