


 40 43  0  0  0  0  0  0  0  0999 V2000
    1.1370   65.9650   82.9698 C   0  0  0  0  0  0  0  0  0  0  0  0
    1.7152   67.0025   83.7113 C   0  0  0  0  0  0  0  0  0  0  0  0
    2.1897   68.1415   83.0639 C   0  0  0  0  0  0  0  0  0  0  0  0
    2.0637   68.2359   81.6772 C   0  0  0  0  0  0  0  0  0  0  0  0
    1.4810   67.2037   80.9297 C   0  0  0  0  0  0  0  0  0  0  0  0
    0.9990   66.0562   81.5739 C   0  0  0  0  0  0  0  0  0  0  0  0
    0.3746   64.9909   80.7909 C   0  0  0  0  0  0  0  0  0  0  0  0
    0.7218   64.5903   79.5787 N   0  0  0  0  0  0  0  0  0  0  0  0
   -0.1332   63.5622   79.2658 C   0  0  0  0  0  0  0  0  0  0  0  0
   -0.1881   62.7532   78.0699 C   0  0  0  0  0  0  0  0  0  0  0  0
    0.5958   62.8920   77.1343 O   0  0  0  0  0  0  0  0  0  0  0  0
   -1.2204   61.7985   78.1007 N   0  0  0  0  0  0  0  0  0  0  0  0
   -1.3598   60.9316   76.9475 C   0  0  0  0  0  0  0  0  0  0  0  0
   -2.1100   61.5550   79.1691 C   0  0  0  0  0  0  0  0  0  0  0  0
   -2.9491   60.6514   79.1103 O   0  0  0  0  0  0  0  0  0  0  0  0
   -1.9994   62.3792   80.3055 N   0  0  0  0  0  0  0  0  0  0  0  0
   -1.0123   63.3407   80.2866 C   0  0  0  0  0  0  0  0  0  0  0  0
   -0.6959   64.2494   81.2514 N   0  0  0  0  0  0  0  0  0  0  0  0
   -1.1303   64.3544   82.1559 H   0  0  0  0  0  0  0  0  0  0  0  0
   -2.9002   62.1622   81.4389 C   0  0  0  0  0  0  0  0  0  0  0  0
   -2.3091   61.2355   82.5188 C   0  0  0  0  0  0  0  0  0  0  0  0
   -3.0596   59.9061   82.6120 C   0  0  0  0  0  0  0  0  0  0  0  0
   -2.3321   61.9415   83.8759 C   0  0  0  0  0  0  0  0  0  0  0  0
    2.6282   69.6852   80.8224 S   0  0  0  0  0  0  0  0  0  0  0  0
    3.9487   70.0270   81.3062 O   0  0  0  0  0  0  0  0  0  0  0  0
    2.3673   69.4759   79.4153 O   0  0  0  0  0  0  0  0  0  0  0  0
    1.5488   70.8813   81.3926 N   0  0  0  0  0  0  0  0  0  0  0  0
    1.8632   72.2767   80.9430 C   0  0  0  0  0  0  0  0  0  0  0  0
    0.8928   73.2803   81.5970 C   0  0  0  0  0  0  0  0  0  0  0  0
   -0.5360   72.9987   81.3615 N   0  0  0  0  0  0  0  0  0  0  0  0
   -0.8221   71.5987   81.7390 C   0  0  0  0  0  0  0  0  0  0  0  0
    0.1153   70.5463   81.1106 C   0  0  0  0  0  0  0  0  0  0  0  0
   -0.9781   73.2904   79.9835 C   0  0  0  0  0  0  0  0  0  0  0  0
   -2.2927   72.6038   79.5087 C   0  0  0  0  0  0  0  0  0  0  0  0
   -3.1549   73.3852   78.6015 N   0  0  0  0  0  0  0  0  0  0  0  0
   -2.9252   74.8238   78.7346 C   0  0  0  0  0  0  0  0  0  0  0  0
   -4.5639   73.0759   78.8478 C   0  0  0  0  0  0  0  0  0  0  0  0
    0.6091   64.9037   83.6606 O   0  0  0  0  0  0  0  0  0  0  0  0
    0.1129   63.9442   85.7910 C   0  0  0  0  0  0  0  0  0  0  0  0
    0.8637   65.0451   85.0651 C   0  0  0  0  0  0  0  0  0  0  0  0
 39 40  1  0  0  0
 40 38  1  0  0  0
 38  1  1  0  0  0
  1  2  1  0  0  0
  2  3  2  0  0  0
  3  4  1  0  0  0
  4 24  1  0  0  0
 24 25  2  0  0  0
 24 26  2  0  0  0
 24 27  1  0  0  0
 27 28  1  0  0  0
 28 29  1  0  0  0
 29 30  1  0  0  0
 30 33  1  0  0  0
 33 34  1  0  0  0
 34 35  1  0  0  0
 35 36  1  0  0  0
 35 37  1  0  0  0
 30 31  1  0  0  0
 31 32  1  0  0  0
  4  5  2  0  0  0
  5  6  1  0  0  0
  6  7  1  0  0  0
  7  8  2  0  0  0
  8  9  1  0  0  0
  9 10  1  0  0  0
 10 11  2  0  0  0
 10 12  1  0  0  0
 12 13  1  0  0  0
 12 14  1  0  0  0
 14 15  2  0  0  0
 14 16  1  0  0  0
 16 20  1  0  0  0
 20 21  1  0  0  0
 21 22  1  0  0  0
 21 23  1  0  0  0
 16 17  1  0  0  0
 17 18  1  0  0  0
  6  1  2  0  0  0
 18  7  1  0  0  0
 32 27  1  0  0  0
 17  9  2  0  0  0
 18 19  1  0  0  0
M  END
> <minimizedAffinity>
-9.21601

$$$$



 40 43  0  0  0  0  0  0  0  0999 V2000
   -0.7911   63.5992   86.1033 C   0  0  0  0  0  0  0  0  0  0  0  0
   -1.8847   62.7260   86.1448 C   0  0  0  0  0  0  0  0  0  0  0  0
   -2.3795   62.1718   84.9660 C   0  0  0  0  0  0  0  0  0  0  0  0
   -1.7598   62.4868   83.7558 C   0  0  0  0  0  0  0  0  0  0  0  0
   -0.6614   63.3556   83.7077 C   0  0  0  0  0  0  0  0  0  0  0  0
   -0.1564   63.9148   84.8894 C   0  0  0  0  0  0  0  0  0  0  0  0
    1.0019   64.8054   84.8351 C   0  0  0  0  0  0  0  0  0  0  0  0
    2.1515   64.6506   85.4713 N   0  0  0  0  0  0  0  0  0  0  0  0
    2.9308   65.7187   85.1002 C   0  0  0  0  0  0  0  0  0  0  0  0
    4.2861   66.0372   85.4867 C   0  0  0  0  0  0  0  0  0  0  0  0
    4.9518   65.3240   86.2331 O   0  0  0  0  0  0  0  0  0  0  0  0
    4.7524   67.2343   84.9144 N   0  0  0  0  0  0  0  0  0  0  0  0
    6.1052   67.6432   85.2367 C   0  0  0  0  0  0  0  0  0  0  0  0
    4.0559   68.0605   84.0065 C   0  0  0  0  0  0  0  0  0  0  0  0
    4.5828   69.0664   83.5223 O   0  0  0  0  0  0  0  0  0  0  0  0
    2.7394   67.6897   83.6713 N   0  0  0  0  0  0  0  0  0  0  0  0
    2.2510   66.5343   84.2419 C   0  0  0  0  0  0  0  0  0  0  0  0
    1.0261   65.9602   84.0777 N   0  0  0  0  0  0  0  0  0  0  0  0
    0.2742   66.2860   83.4892 H   0  0  0  0  0  0  0  0  0  0  0  0
    1.9790   68.5159   82.7320 C   0  0  0  0  0  0  0  0  0  0  0  0
    2.0888   68.0370   81.2716 C   0  0  0  0  0  0  0  0  0  0  0  0
    2.4619   69.1733   80.3183 C   0  0  0  0  0  0  0  0  0  0  0  0
    0.7665   67.4042   80.8336 C   0  0  0  0  0  0  0  0  0  0  0  0
   -2.3430   61.7751   82.2381 S   0  0  0  0  0  0  0  0  0  0  0  0
   -2.3339   60.3335   82.3656 O   0  0  0  0  0  0  0  0  0  0  0  0
   -3.5405   62.4953   81.8650 O   0  0  0  0  0  0  0  0  0  0  0  0
   -1.1021   62.1998   81.1425 N   0  0  0  0  0  0  0  0  0  0  0  0
   -0.6297   61.0803   80.2640 C   0  0  0  0  0  0  0  0  0  0  0  0
    0.5544   61.5469   79.3941 C   0  0  0  0  0  0  0  0  0  0  0  0
    0.2801   62.7375   78.5673 N   0  0  0  0  0  0  0  0  0  0  0  0
   -0.2539   63.8128   79.4293 C   0  0  0  0  0  0  0  0  0  0  0  0
   -1.4454   63.4060   80.3215 C   0  0  0  0  0  0  0  0  0  0  0  0
   -0.6091   62.4700   77.4197 C   0  0  0  0  0  0  0  0  0  0  0  0
   -0.3874   61.1297   76.6584 C   0  0  0  0  0  0  0  0  0  0  0  0
   -1.5372   60.2070   76.5979 N   0  0  0  0  0  0  0  0  0  0  0  0
   -2.7467   60.8044   77.1640 C   0  0  0  0  0  0  0  0  0  0  0  0
   -1.2223   58.9569   77.2903 C   0  0  0  0  0  0  0  0  0  0  0  0
   -0.2889   64.0509   87.2974 O   0  0  0  0  0  0  0  0  0  0  0  0
    0.3271   62.5965   89.0892 C   0  0  0  0  0  0  0  0  0  0  0  0
   -0.8265   63.2879   88.3864 C   0  0  0  0  0  0  0  0  0  0  0  0
 39 40  1  0  0  0
 40 38  1  0  0  0
 38  1  1  0  0  0
  1  2  1  0  0  0
  2  3  2  0  0  0
  3  4  1  0  0  0
  4 24  1  0  0  0
 24 25  2  0  0  0
 24 26  2  0  0  0
 24 27  1  0  0  0
 27 28  1  0  0  0
 28 29  1  0  0  0
 29 30  1  0  0  0
 30 33  1  0  0  0
 33 34  1  0  0  0
 34 35  1  0  0  0
 35 36  1  0  0  0
 35 37  1  0  0  0
 30 31  1  0  0  0
 31 32  1  0  0  0
  4  5  2  0  0  0
  5  6  1  0  0  0
  6  7  1  0  0  0
  7  8  2  0  0  0
  8  9  1  0  0  0
  9 10  1  0  0  0
 10 11  2  0  0  0
 10 12  1  0  0  0
 12 13  1  0  0  0
 12 14  1  0  0  0
 14 15  2  0  0  0
 14 16  1  0  0  0
 16 20  1  0  0  0
 20 21  1  0  0  0
 21 22  1  0  0  0
 21 23  1  0  0  0
 16 17  1  0  0  0
 17 18  1  0  0  0
  6  1  2  0  0  0
 18  7  1  0  0  0
 32 27  1  0  0  0
 17  9  2  0  0  0
 18 19  1  0  0  0
M  END
> <minimizedAffinity>
-9.16419

$$$$



 40 43  0  0  0  0  0  0  0  0999 V2000
    1.1050   65.8238   83.0003 C   0  0  0  0  0  0  0  0  0  0  0  0
    1.6862   66.8414   83.7664 C   0  0  0  0  0  0  0  0  0  0  0  0
    2.1650   67.9939   83.1465 C   0  0  0  0  0  0  0  0  0  0  0  0
    2.0403   68.1215   81.7623 C   0  0  0  0  0  0  0  0  0  0  0  0
    1.4546   67.1093   80.9903 C   0  0  0  0  0  0  0  0  0  0  0  0
    0.9682   65.9485   81.6068 C   0  0  0  0  0  0  0  0  0  0  0  0
    0.3407   64.9043   80.7984 C   0  0  0  0  0  0  0  0  0  0  0  0
    0.6849   64.5339   79.5758 N   0  0  0  0  0  0  0  0  0  0  0  0
   -0.1722   63.5152   79.2388 C   0  0  0  0  0  0  0  0  0  0  0  0
   -0.2307   62.7368   78.0229 C   0  0  0  0  0  0  0  0  0  0  0  0
    0.5515   62.8981   77.0895 O   0  0  0  0  0  0  0  0  0  0  0  0
   -1.2642   61.7831   78.0317 N   0  0  0  0  0  0  0  0  0  0  0  0
   -1.4072   60.9457   76.8572 C   0  0  0  0  0  0  0  0  0  0  0  0
   -2.1520   61.5138   79.0954 C   0  0  0  0  0  0  0  0  0  0  0  0
   -2.9925   60.6131   79.0156 O   0  0  0  0  0  0  0  0  0  0  0  0
   -2.0379   62.3088   80.2521 N   0  0  0  0  0  0  0  0  0  0  0  0
   -1.0495   63.2692   80.2555 C   0  0  0  0  0  0  0  0  0  0  0  0
   -0.7298   64.1528   81.2423 N   0  0  0  0  0  0  0  0  0  0  0  0
   -1.1622   64.2355   82.1500 H   0  0  0  0  0  0  0  0  0  0  0  0
   -2.9367   62.0645   81.3815 C   0  0  0  0  0  0  0  0  0  0  0  0
   -2.3296   61.1408   82.4551 C   0  0  0  0  0  0  0  0  0  0  0  0
   -3.0339   59.7845   82.5145 C   0  0  0  0  0  0  0  0  0  0  0  0
   -2.3981   61.8223   83.8231 C   0  0  0  0  0  0  0  0  0  0  0  0
    2.6103   69.5887   80.9424 S   0  0  0  0  0  0  0  0  0  0  0  0
    3.9668   69.8624   81.3662 O   0  0  0  0  0  0  0  0  0  0  0  0
    2.2657   69.4539   79.5442 O   0  0  0  0  0  0  0  0  0  0  0  0
    1.6082   70.7933   81.6248 N   0  0  0  0  0  0  0  0  0  0  0  0
    2.2334   72.1532   81.7153 C   0  0  0  0  0  0  0  0  0  0  0  0
    1.2845   73.1306   82.4369 C   0  0  0  0  0  0  0  0  0  0  0  0
   -0.0567   73.2460   81.8334 N   0  0  0  0  0  0  0  0  0  0  0  0
   -0.6365   71.8952   81.6805 C   0  0  0  0  0  0  0  0  0  0  0  0
    0.2670   70.8723   80.9604 C   0  0  0  0  0  0  0  0  0  0  0  0
   -0.0707   73.9900   80.5584 C   0  0  0  0  0  0  0  0  0  0  0  0
    0.0157   75.5421   80.6512 C   0  0  0  0  0  0  0  0  0  0  0  0
   -0.7224   76.1791   81.7587 N   0  0  0  0  0  0  0  0  0  0  0  0
   -1.6240   77.2278   81.2817 C   0  0  0  0  0  0  0  0  0  0  0  0
    0.2117   76.7281   82.7424 C   0  0  0  0  0  0  0  0  0  0  0  0
    0.5730   64.7483   83.6654 O   0  0  0  0  0  0  0  0  0  0  0  0
    0.1763   63.6760   85.7626 C   0  0  0  0  0  0  0  0  0  0  0  0
    0.6674   64.9411   85.0836 C   0  0  0  0  0  0  0  0  0  0  0  0
 39 40  1  0  0  0
 40 38  1  0  0  0
 38  1  1  0  0  0
  1  2  1  0  0  0
  2  3  2  0  0  0
  3  4  1  0  0  0
  4 24  1  0  0  0
 24 25  2  0  0  0
 24 26  2  0  0  0
 24 27  1  0  0  0
 27 28  1  0  0  0
 28 29  1  0  0  0
 29 30  1  0  0  0
 30 33  1  0  0  0
 33 34  1  0  0  0
 34 35  1  0  0  0
 35 36  1  0  0  0
 35 37  1  0  0  0
 30 31  1  0  0  0
 31 32  1  0  0  0
  4  5  2  0  0  0
  5  6  1  0  0  0
  6  7  1  0  0  0
  7  8  2  0  0  0
  8  9  1  0  0  0
  9 10  1  0  0  0
 10 11  2  0  0  0
 10 12  1  0  0  0
 12 13  1  0  0  0
 12 14  1  0  0  0
 14 15  2  0  0  0
 14 16  1  0  0  0
 16 20  1  0  0  0
 20 21  1  0  0  0
 21 22  1  0  0  0
 21 23  1  0  0  0
 16 17  1  0  0  0
 17 18  1  0  0  0
  6  1  2  0  0  0
 18  7  1  0  0  0
 32 27  1  0  0  0
 17  9  2  0  0  0
 18 19  1  0  0  0
M  END
> <minimizedAffinity>
-9.05381

$$$$



 40 43  0  0  0  0  0  0  0  0999 V2000
    3.7305   66.1143   84.9582 C   0  0  0  0  0  0  0  0  0  0  0  0
    4.7119   67.0525   84.6162 C   0  0  0  0  0  0  0  0  0  0  0  0
    4.3919   68.1249   83.7860 C   0  0  0  0  0  0  0  0  0  0  0  0
    3.0829   68.2549   83.3197 C   0  0  0  0  0  0  0  0  0  0  0  0
    2.0946   67.3228   83.6627 C   0  0  0  0  0  0  0  0  0  0  0  0
    2.4080   66.2431   84.4994 C   0  0  0  0  0  0  0  0  0  0  0  0
    1.3680   65.2843   84.8695 C   0  0  0  0  0  0  0  0  0  0  0  0
    0.9707   64.9788   86.0940 N   0  0  0  0  0  0  0  0  0  0  0  0
   -0.0307   64.0516   85.9415 C   0  0  0  0  0  0  0  0  0  0  0  0
   -0.8255   63.3926   86.9522 C   0  0  0  0  0  0  0  0  0  0  0  0
   -0.6983   63.6186   88.1530 O   0  0  0  0  0  0  0  0  0  0  0  0
   -1.7524   62.4823   86.4136 N   0  0  0  0  0  0  0  0  0  0  0  0
   -2.6034   61.7691   87.3454 C   0  0  0  0  0  0  0  0  0  0  0  0
   -1.9829   62.2265   85.0448 C   0  0  0  0  0  0  0  0  0  0  0  0
   -2.8630   61.4417   84.6794 O   0  0  0  0  0  0  0  0  0  0  0  0
   -1.1738   62.9052   84.1133 N   0  0  0  0  0  0  0  0  0  0  0  0
   -0.2390   63.7823   84.6194 C   0  0  0  0  0  0  0  0  0  0  0  0
    0.6509   64.5580   83.9388 N   0  0  0  0  0  0  0  0  0  0  0  0
    0.7582   64.6278   82.9382 H   0  0  0  0  0  0  0  0  0  0  0  0
   -1.3781   62.6725   82.6825 C   0  0  0  0  0  0  0  0  0  0  0  0
   -0.7611   61.3509   82.1856 C   0  0  0  0  0  0  0  0  0  0  0  0
    0.6928   61.5231   81.7433 C   0  0  0  0  0  0  0  0  0  0  0  0
   -1.5935   60.7937   81.0291 C   0  0  0  0  0  0  0  0  0  0  0  0
    2.6317   69.6253   82.2860 S   0  0  0  0  0  0  0  0  0  0  0  0
    1.6597   70.4372   82.9864 O   0  0  0  0  0  0  0  0  0  0  0  0
    3.8596   70.1893   81.7701 O   0  0  0  0  0  0  0  0  0  0  0  0
    1.8183   68.8505   80.9980 N   0  0  0  0  0  0  0  0  0  0  0  0
    2.4253   67.5500   80.5637 C   0  0  0  0  0  0  0  0  0  0  0  0
    1.6768   66.9947   79.3357 C   0  0  0  0  0  0  0  0  0  0  0  0
    0.2245   66.8193   79.5266 N   0  0  0  0  0  0  0  0  0  0  0  0
   -0.3546   68.0847   80.0243 C   0  0  0  0  0  0  0  0  0  0  0  0
    0.3510   68.6877   81.2571 C   0  0  0  0  0  0  0  0  0  0  0  0
   -0.1251   65.6819   80.4003 C   0  0  0  0  0  0  0  0  0  0  0  0
   -0.4625   64.3345   79.6961 C   0  0  0  0  0  0  0  0  0  0  0  0
    0.0832   64.1446   78.3385 N   0  0  0  0  0  0  0  0  0  0  0  0
   -0.9723   64.1074   77.3262 C   0  0  0  0  0  0  0  0  0  0  0  0
    0.8811   62.9193   78.2785 C   0  0  0  0  0  0  0  0  0  0  0  0
    4.0737   65.1256   85.8453 O   0  0  0  0  0  0  0  0  0  0  0  0
    5.3110   65.3640   87.8746 C   0  0  0  0  0  0  0  0  0  0  0  0
    5.3936   65.3515   86.3594 C   0  0  0  0  0  0  0  0  0  0  0  0
 39 40  1  0  0  0
 40 38  1  0  0  0
 38  1  1  0  0  0
  1  2  1  0  0  0
  2  3  2  0  0  0
  3  4  1  0  0  0
  4 24  1  0  0  0
 24 25  2  0  0  0
 24 26  2  0  0  0
 24 27  1  0  0  0
 27 28  1  0  0  0
 28 29  1  0  0  0
 29 30  1  0  0  0
 30 33  1  0  0  0
 33 34  1  0  0  0
 34 35  1  0  0  0
 35 36  1  0  0  0
 35 37  1  0  0  0
 30 31  1  0  0  0
 31 32  1  0  0  0
  4  5  2  0  0  0
  5  6  1  0  0  0
  6  7  1  0  0  0
  7  8  2  0  0  0
  8  9  1  0  0  0
  9 10  1  0  0  0
 10 11  2  0  0  0
 10 12  1  0  0  0
 12 13  1  0  0  0
 12 14  1  0  0  0
 14 15  2  0  0  0
 14 16  1  0  0  0
 16 20  1  0  0  0
 20 21  1  0  0  0
 21 22  1  0  0  0
 21 23  1  0  0  0
 16 17  1  0  0  0
 17 18  1  0  0  0
  6  1  2  0  0  0
 18  7  1  0  0  0
 32 27  1  0  0  0
 17  9  2  0  0  0
 18 19  1  0  0  0
M  END
> <minimizedAffinity>
-9.03301

$$$$



 40 43  0  0  0  0  0  0  0  0999 V2000
   -0.0938   63.5295   84.7292 C   0  0  0  0  0  0  0  0  0  0  0  0
   -0.7890   62.3825   85.1306 C   0  0  0  0  0  0  0  0  0  0  0  0
   -1.6809   61.7658   84.2554 C   0  0  0  0  0  0  0  0  0  0  0  0
   -1.8541   62.2977   82.9768 C   0  0  0  0  0  0  0  0  0  0  0  0
   -1.1573   63.4422   82.5667 C   0  0  0  0  0  0  0  0  0  0  0  0
   -0.2566   64.0664   83.4403 C   0  0  0  0  0  0  0  0  0  0  0  0
    0.4820   65.2490   83.0001 C   0  0  0  0  0  0  0  0  0  0  0  0
    0.2893   65.9346   81.8850 N   0  0  0  0  0  0  0  0  0  0  0  0
    1.2009   66.9612   81.9153 C   0  0  0  0  0  0  0  0  0  0  0  0
    1.4159   68.0190   80.9548 C   0  0  0  0  0  0  0  0  0  0  0  0
    0.7435   68.1395   79.9338 O   0  0  0  0  0  0  0  0  0  0  0  0
    2.4614   68.8862   81.3192 N   0  0  0  0  0  0  0  0  0  0  0  0
    2.7567   69.9862   80.4226 C   0  0  0  0  0  0  0  0  0  0  0  0
    3.2259   68.8316   82.5044 C   0  0  0  0  0  0  0  0  0  0  0  0
    4.0888   69.6798   82.7494 O   0  0  0  0  0  0  0  0  0  0  0  0
    2.9621   67.7756   83.3979 N   0  0  0  0  0  0  0  0  0  0  0  0
    1.9599   66.8966   83.0483 C   0  0  0  0  0  0  0  0  0  0  0  0
    1.5098   65.8085   83.7340 N   0  0  0  0  0  0  0  0  0  0  0  0
    1.8326   65.4764   84.6302 H   0  0  0  0  0  0  0  0  0  0  0  0
    3.7294   67.6796   84.6409 C   0  0  0  0  0  0  0  0  0  0  0  0
    4.8706   66.6464   84.5747 C   0  0  0  0  0  0  0  0  0  0  0  0
    4.7586   65.5916   85.6765 C   0  0  0  0  0  0  0  0  0  0  0  0
    6.2207   67.3593   84.6732 C   0  0  0  0  0  0  0  0  0  0  0  0
   -2.9579   61.5206   81.8246 S   0  0  0  0  0  0  0  0  0  0  0  0
   -3.5162   60.3359   82.4405 O   0  0  0  0  0  0  0  0  0  0  0  0
   -3.8020   62.5607   81.2791 O   0  0  0  0  0  0  0  0  0  0  0  0
   -1.8882   61.0030   80.5963 N   0  0  0  0  0  0  0  0  0  0  0  0
   -2.5514   60.3530   79.4190 C   0  0  0  0  0  0  0  0  0  0  0  0
   -1.4909   59.8353   78.4270 C   0  0  0  0  0  0  0  0  0  0  0  0
   -0.5399   60.8582   77.9520 N   0  0  0  0  0  0  0  0  0  0  0  0
    0.0554   61.5442   79.1180 C   0  0  0  0  0  0  0  0  0  0  0  0
   -0.9589   62.0891   80.1454 C   0  0  0  0  0  0  0  0  0  0  0  0
   -1.1304   61.8196   77.0000 C   0  0  0  0  0  0  0  0  0  0  0  0
   -0.3636   63.1584   76.7889 C   0  0  0  0  0  0  0  0  0  0  0  0
   -0.9567   64.3624   77.4017 N   0  0  0  0  0  0  0  0  0  0  0  0
   -1.6288   65.2041   76.4117 C   0  0  0  0  0  0  0  0  0  0  0  0
    0.0700   65.1336   78.1035 C   0  0  0  0  0  0  0  0  0  0  0  0
    0.8345   64.0495   85.5952 O   0  0  0  0  0  0  0  0  0  0  0  0
    0.9849   63.6441   87.9444 C   0  0  0  0  0  0  0  0  0  0  0  0
    0.2216   64.3696   86.8519 C   0  0  0  0  0  0  0  0  0  0  0  0
 39 40  1  0  0  0
 40 38  1  0  0  0
 38  1  1  0  0  0
  1  2  1  0  0  0
  2  3  2  0  0  0
  3  4  1  0  0  0
  4 24  1  0  0  0
 24 25  2  0  0  0
 24 26  2  0  0  0
 24 27  1  0  0  0
 27 28  1  0  0  0
 28 29  1  0  0  0
 29 30  1  0  0  0
 30 33  1  0  0  0
 33 34  1  0  0  0
 34 35  1  0  0  0
 35 36  1  0  0  0
 35 37  1  0  0  0
 30 31  1  0  0  0
 31 32  1  0  0  0
  4  5  2  0  0  0
  5  6  1  0  0  0
  6  7  1  0  0  0
  7  8  2  0  0  0
  8  9  1  0  0  0
  9 10  1  0  0  0
 10 11  2  0  0  0
 10 12  1  0  0  0
 12 13  1  0  0  0
 12 14  1  0  0  0
 14 15  2  0  0  0
 14 16  1  0  0  0
 16 20  1  0  0  0
 20 21  1  0  0  0
 21 22  1  0  0  0
 21 23  1  0  0  0
 16 17  1  0  0  0
 17 18  1  0  0  0
  6  1  2  0  0  0
 18  7  1  0  0  0
 32 27  1  0  0  0
 17  9  2  0  0  0
 18 19  1  0  0  0
M  END
> <minimizedAffinity>
-9.02368

$$$$



 40 43  0  0  0  0  0  0  0  0999 V2000
    3.1907   66.8409   84.1912 C   0  0  0  0  0  0  0  0  0  0  0  0
    4.0778   67.9171   84.0686 C   0  0  0  0  0  0  0  0  0  0  0  0
    3.9358   68.8215   83.0181 C   0  0  0  0  0  0  0  0  0  0  0  0
    2.8920   68.6462   82.1084 C   0  0  0  0  0  0  0  0  0  0  0  0
    1.9972   67.5745   82.2285 C   0  0  0  0  0  0  0  0  0  0  0  0
    2.1320   66.6623   83.2839 C   0  0  0  0  0  0  0  0  0  0  0  0
    1.1838   65.5571   83.4152 C   0  0  0  0  0  0  0  0  0  0  0  0
    0.7098   64.7991   82.4399 N   0  0  0  0  0  0  0  0  0  0  0  0
   -0.1264   63.8926   83.0441 C   0  0  0  0  0  0  0  0  0  0  0  0
   -0.8938   62.8223   82.4497 C   0  0  0  0  0  0  0  0  0  0  0  0
   -0.8683   62.5713   81.2474 O   0  0  0  0  0  0  0  0  0  0  0  0
   -1.6561   62.1065   83.3901 N   0  0  0  0  0  0  0  0  0  0  0  0
   -2.4613   61.0072   82.8960 C   0  0  0  0  0  0  0  0  0  0  0  0
   -1.6787   62.3113   84.7865 C   0  0  0  0  0  0  0  0  0  0  0  0
   -2.3473   61.5865   85.5292 O   0  0  0  0  0  0  0  0  0  0  0  0
   -0.9053   63.3707   85.2989 N   0  0  0  0  0  0  0  0  0  0  0  0
   -0.1710   64.1041   84.3921 C   0  0  0  0  0  0  0  0  0  0  0  0
    0.6540   65.1626   84.6283 N   0  0  0  0  0  0  0  0  0  0  0  0
    0.8757   65.5750   85.5218 H   0  0  0  0  0  0  0  0  0  0  0  0
   -0.8968   63.6197   86.7414 C   0  0  0  0  0  0  0  0  0  0  0  0
    0.2249   62.8676   87.4833 C   0  0  0  0  0  0  0  0  0  0  0  0
   -0.2485   62.3005   88.8225 C   0  0  0  0  0  0  0  0  0  0  0  0
    1.4153   63.8025   87.7065 C   0  0  0  0  0  0  0  0  0  0  0  0
    2.6614   69.7961   80.7763 S   0  0  0  0  0  0  0  0  0  0  0  0
    3.8883   70.5393   80.5844 O   0  0  0  0  0  0  0  0  0  0  0  0
    2.0381   69.0692   79.6922 O   0  0  0  0  0  0  0  0  0  0  0  0
    1.5068   70.8741   81.4287 N   0  0  0  0  0  0  0  0  0  0  0  0
    1.8517   72.3262   81.2849 C   0  0  0  0  0  0  0  0  0  0  0  0
    0.7983   73.1986   81.9960 C   0  0  0  0  0  0  0  0  0  0  0  0
   -0.5896   72.9769   81.5479 N   0  0  0  0  0  0  0  0  0  0  0  0
   -0.8981   71.5335   81.6238 C   0  0  0  0  0  0  0  0  0  0  0  0
    0.1203   70.6086   80.9247 C   0  0  0  0  0  0  0  0  0  0  0  0
   -0.8733   73.5226   80.2059 C   0  0  0  0  0  0  0  0  0  0  0  0
   -2.1560   73.0010   79.4935 C   0  0  0  0  0  0  0  0  0  0  0  0
   -2.5579   73.7038   78.2599 N   0  0  0  0  0  0  0  0  0  0  0  0
   -3.2130   74.9798   78.5474 C   0  0  0  0  0  0  0  0  0  0  0  0
   -3.4391   72.8558   77.4563 C   0  0  0  0  0  0  0  0  0  0  0  0
    3.3204   66.0282   85.2889 O   0  0  0  0  0  0  0  0  0  0  0  0
    4.8915   65.0857   86.8216 C   0  0  0  0  0  0  0  0  0  0  0  0
    4.6639   65.5361   85.3905 C   0  0  0  0  0  0  0  0  0  0  0  0
 39 40  1  0  0  0
 40 38  1  0  0  0
 38  1  1  0  0  0
  1  2  1  0  0  0
  2  3  2  0  0  0
  3  4  1  0  0  0
  4 24  1  0  0  0
 24 25  2  0  0  0
 24 26  2  0  0  0
 24 27  1  0  0  0
 27 28  1  0  0  0
 28 29  1  0  0  0
 29 30  1  0  0  0
 30 33  1  0  0  0
 33 34  1  0  0  0
 34 35  1  0  0  0
 35 36  1  0  0  0
 35 37  1  0  0  0
 30 31  1  0  0  0
 31 32  1  0  0  0
  4  5  2  0  0  0
  5  6  1  0  0  0
  6  7  1  0  0  0
  7  8  2  0  0  0
  8  9  1  0  0  0
  9 10  1  0  0  0
 10 11  2  0  0  0
 10 12  1  0  0  0
 12 13  1  0  0  0
 12 14  1  0  0  0
 14 15  2  0  0  0
 14 16  1  0  0  0
 16 20  1  0  0  0
 20 21  1  0  0  0
 21 22  1  0  0  0
 21 23  1  0  0  0
 16 17  1  0  0  0
 17 18  1  0  0  0
  6  1  2  0  0  0
 18  7  1  0  0  0
 32 27  1  0  0  0
 17  9  2  0  0  0
 18 19  1  0  0  0
M  END
> <minimizedAffinity>
-9.01701

$$$$



 40 43  0  0  0  0  0  0  0  0999 V2000
    2.8862   66.8643   83.8554 C   0  0  0  0  0  0  0  0  0  0  0  0
    3.6694   68.0229   83.9236 C   0  0  0  0  0  0  0  0  0  0  0  0
    3.4608   69.0597   83.0164 C   0  0  0  0  0  0  0  0  0  0  0  0
    2.4545   68.9305   82.0580 C   0  0  0  0  0  0  0  0  0  0  0  0
    1.6633   67.7761   81.9878 C   0  0  0  0  0  0  0  0  0  0  0  0
    1.8653   66.7302   82.8985 C   0  0  0  0  0  0  0  0  0  0  0  0
    1.0240   65.5362   82.8326 C   0  0  0  0  0  0  0  0  0  0  0  0
    0.7992   64.7824   81.7688 N   0  0  0  0  0  0  0  0  0  0  0  0
   -0.0318   63.7750   82.1936 C   0  0  0  0  0  0  0  0  0  0  0  0
   -0.5771   62.6658   81.4453 C   0  0  0  0  0  0  0  0  0  0  0  0
   -0.3246   62.4734   80.2586 O   0  0  0  0  0  0  0  0  0  0  0  0
   -1.4114   61.8396   82.2194 N   0  0  0  0  0  0  0  0  0  0  0  0
   -2.0079   60.6934   81.5625 C   0  0  0  0  0  0  0  0  0  0  0  0
   -1.6892   61.9774   83.5964 C   0  0  0  0  0  0  0  0  0  0  0  0
   -2.3973   61.1601   84.1917 O   0  0  0  0  0  0  0  0  0  0  0  0
   -1.1230   63.0801   84.2647 N   0  0  0  0  0  0  0  0  0  0  0  0
   -0.3236   63.9196   83.5193 C   0  0  0  0  0  0  0  0  0  0  0  0
    0.3397   65.0388   83.9245 N   0  0  0  0  0  0  0  0  0  0  0  0
    0.3654   65.4290   84.8545 H   0  0  0  0  0  0  0  0  0  0  0  0
   -1.3824   63.2628   85.6938 C   0  0  0  0  0  0  0  0  0  0  0  0
   -0.2660   62.6978   86.5932 C   0  0  0  0  0  0  0  0  0  0  0  0
   -0.7947   61.6640   87.5886 C   0  0  0  0  0  0  0  0  0  0  0  0
    0.4203   63.8398   87.3453 C   0  0  0  0  0  0  0  0  0  0  0  0
    2.1395   70.2438   80.9064 S   0  0  0  0  0  0  0  0  0  0  0  0
    2.8959   69.9955   79.6979 O   0  0  0  0  0  0  0  0  0  0  0  0
    0.7077   70.4465   80.8762 O   0  0  0  0  0  0  0  0  0  0  0  0
    2.8515   71.5859   81.6892 N   0  0  0  0  0  0  0  0  0  0  0  0
    3.4944   72.5807   80.7698 C   0  0  0  0  0  0  0  0  0  0  0  0
    4.1907   73.6889   81.5845 C   0  0  0  0  0  0  0  0  0  0  0  0
    3.3145   74.3960   82.5377 N   0  0  0  0  0  0  0  0  0  0  0  0
    2.6289   73.4040   83.3924 C   0  0  0  0  0  0  0  0  0  0  0  0
    1.9087   72.2708   82.6319 C   0  0  0  0  0  0  0  0  0  0  0  0
    2.3538   75.3122   81.8921 C   0  0  0  0  0  0  0  0  0  0  0  0
    1.2940   75.9818   82.8159 C   0  0  0  0  0  0  0  0  0  0  0  0
   -0.1180   75.6428   82.5541 N   0  0  0  0  0  0  0  0  0  0  0  0
   -0.2845   74.9449   81.2792 C   0  0  0  0  0  0  0  0  0  0  0  0
   -0.9433   76.8511   82.5775 C   0  0  0  0  0  0  0  0  0  0  0  0
    3.0731   65.9094   84.8226 O   0  0  0  0  0  0  0  0  0  0  0  0
    4.6289   65.1586   86.4722 C   0  0  0  0  0  0  0  0  0  0  0  0
    4.4726   65.7146   85.0690 C   0  0  0  0  0  0  0  0  0  0  0  0
 39 40  1  0  0  0
 40 38  1  0  0  0
 38  1  1  0  0  0
  1  2  1  0  0  0
  2  3  2  0  0  0
  3  4  1  0  0  0
  4 24  1  0  0  0
 24 25  2  0  0  0
 24 26  2  0  0  0
 24 27  1  0  0  0
 27 28  1  0  0  0
 28 29  1  0  0  0
 29 30  1  0  0  0
 30 33  1  0  0  0
 33 34  1  0  0  0
 34 35  1  0  0  0
 35 36  1  0  0  0
 35 37  1  0  0  0
 30 31  1  0  0  0
 31 32  1  0  0  0
  4  5  2  0  0  0
  5  6  1  0  0  0
  6  7  1  0  0  0
  7  8  2  0  0  0
  8  9  1  0  0  0
  9 10  1  0  0  0
 10 11  2  0  0  0
 10 12  1  0  0  0
 12 13  1  0  0  0
 12 14  1  0  0  0
 14 15  2  0  0  0
 14 16  1  0  0  0
 16 20  1  0  0  0
 20 21  1  0  0  0
 21 22  1  0  0  0
 21 23  1  0  0  0
 16 17  1  0  0  0
 17 18  1  0  0  0
  6  1  2  0  0  0
 18  7  1  0  0  0
 32 27  1  0  0  0
 17  9  2  0  0  0
 18 19  1  0  0  0
M  END
> <minimizedAffinity>
-9.00590

$$$$



 40 43  0  0  0  0  0  0  0  0999 V2000
    1.0796   65.9382   80.6867 C   0  0  0  0  0  0  0  0  0  0  0  0
    1.5569   66.7843   79.6784 C   0  0  0  0  0  0  0  0  0  0  0  0
    2.1147   68.0176   80.0093 C   0  0  0  0  0  0  0  0  0  0  0  0
    2.2037   68.3833   81.3532 C   0  0  0  0  0  0  0  0  0  0  0  0
    1.7332   67.5389   82.3676 C   0  0  0  0  0  0  0  0  0  0  0  0
    1.1734   66.2958   82.0429 C   0  0  0  0  0  0  0  0  0  0  0  0
    0.7016   65.4106   83.1068 C   0  0  0  0  0  0  0  0  0  0  0  0
    1.1570   65.3495   84.3475 N   0  0  0  0  0  0  0  0  0  0  0  0
    0.4007   64.3912   84.9763 C   0  0  0  0  0  0  0  0  0  0  0  0
    0.4628   63.9331   86.3452 C   0  0  0  0  0  0  0  0  0  0  0  0
    1.2464   64.3980   87.1691 O   0  0  0  0  0  0  0  0  0  0  0  0
   -0.4664   62.9152   86.6254 N   0  0  0  0  0  0  0  0  0  0  0  0
   -0.4882   62.3871   87.9751 C   0  0  0  0  0  0  0  0  0  0  0  0
   -1.4276   62.3854   85.7380 C   0  0  0  0  0  0  0  0  0  0  0  0
   -2.2340   61.5261   86.1060 O   0  0  0  0  0  0  0  0  0  0  0  0
   -1.4339   62.8789   84.4191 N   0  0  0  0  0  0  0  0  0  0  0  0
   -0.5133   63.8579   84.1137 C   0  0  0  0  0  0  0  0  0  0  0  0
   -0.3198   64.4984   82.9267 N   0  0  0  0  0  0  0  0  0  0  0  0
   -0.8394   64.3680   82.0718 H   0  0  0  0  0  0  0  0  0  0  0  0
   -2.4145   62.3597   83.4641 C   0  0  0  0  0  0  0  0  0  0  0  0
   -1.9012   61.1490   82.6608 C   0  0  0  0  0  0  0  0  0  0  0  0
   -1.3960   61.5491   81.2738 C   0  0  0  0  0  0  0  0  0  0  0  0
   -3.0134   60.1069   82.5281 C   0  0  0  0  0  0  0  0  0  0  0  0
    2.9367   69.9326   81.8139 S   0  0  0  0  0  0  0  0  0  0  0  0
    2.8548   70.0780   83.2515 O   0  0  0  0  0  0  0  0  0  0  0  0
    4.1982   70.0297   81.1129 O   0  0  0  0  0  0  0  0  0  0  0  0
    1.8548   71.0609   81.1230 N   0  0  0  0  0  0  0  0  0  0  0  0
    0.5061   71.1186   81.7758 C   0  0  0  0  0  0  0  0  0  0  0  0
   -0.4166   72.0882   81.0110 C   0  0  0  0  0  0  0  0  0  0  0  0
    0.1153   73.4560   80.8613 N   0  0  0  0  0  0  0  0  0  0  0  0
    1.4743   73.3864   80.2845 C   0  0  0  0  0  0  0  0  0  0  0  0
    2.4463   72.4336   81.0115 C   0  0  0  0  0  0  0  0  0  0  0  0
    0.0962   74.2395   82.1123 C   0  0  0  0  0  0  0  0  0  0  0  0
    0.0172   75.7881   81.9689 C   0  0  0  0  0  0  0  0  0  0  0  0
    1.0898   76.5665   82.6174 N   0  0  0  0  0  0  0  0  0  0  0  0
    2.1749   75.7089   83.0941 C   0  0  0  0  0  0  0  0  0  0  0  0
    0.5474   77.3538   83.7253 C   0  0  0  0  0  0  0  0  0  0  0  0
    0.6178   64.7006   80.3163 O   0  0  0  0  0  0  0  0  0  0  0  0
    0.7010   63.3885   78.3221 C   0  0  0  0  0  0  0  0  0  0  0  0
    0.2435   64.7006   78.9316 C   0  0  0  0  0  0  0  0  0  0  0  0
 39 40  1  0  0  0
 40 38  1  0  0  0
 38  1  1  0  0  0
  1  2  1  0  0  0
  2  3  2  0  0  0
  3  4  1  0  0  0
  4 24  1  0  0  0
 24 25  2  0  0  0
 24 26  2  0  0  0
 24 27  1  0  0  0
 27 28  1  0  0  0
 28 29  1  0  0  0
 29 30  1  0  0  0
 30 33  1  0  0  0
 33 34  1  0  0  0
 34 35  1  0  0  0
 35 36  1  0  0  0
 35 37  1  0  0  0
 30 31  1  0  0  0
 31 32  1  0  0  0
  4  5  2  0  0  0
  5  6  1  0  0  0
  6  7  1  0  0  0
  7  8  2  0  0  0
  8  9  1  0  0  0
  9 10  1  0  0  0
 10 11  2  0  0  0
 10 12  1  0  0  0
 12 13  1  0  0  0
 12 14  1  0  0  0
 14 15  2  0  0  0
 14 16  1  0  0  0
 16 20  1  0  0  0
 20 21  1  0  0  0
 21 22  1  0  0  0
 21 23  1  0  0  0
 16 17  1  0  0  0
 17 18  1  0  0  0
  6  1  2  0  0  0
 18  7  1  0  0  0
 32 27  1  0  0  0
 17  9  2  0  0  0
 18 19  1  0  0  0
M  END
> <minimizedAffinity>
-9.00294

$$$$



 40 43  0  0  0  0  0  0  0  0999 V2000
    0.9285   65.8637   80.8248 C   0  0  0  0  0  0  0  0  0  0  0  0
    1.4038   66.6935   79.8022 C   0  0  0  0  0  0  0  0  0  0  0  0
    2.1013   67.8580   80.1168 C   0  0  0  0  0  0  0  0  0  0  0  0
    2.3301   68.1706   81.4576 C   0  0  0  0  0  0  0  0  0  0  0  0
    1.8620   67.3417   82.4859 C   0  0  0  0  0  0  0  0  0  0  0  0
    1.1621   66.1673   82.1773 C   0  0  0  0  0  0  0  0  0  0  0  0
    0.6929   65.2964   83.2540 C   0  0  0  0  0  0  0  0  0  0  0  0
    1.1724   65.2291   84.4852 N   0  0  0  0  0  0  0  0  0  0  0  0
    0.4080   64.2900   85.1331 C   0  0  0  0  0  0  0  0  0  0  0  0
    0.4882   63.8351   86.5021 C   0  0  0  0  0  0  0  0  0  0  0  0
    1.2990   64.2849   87.3079 O   0  0  0  0  0  0  0  0  0  0  0  0
   -0.4575   62.8393   86.8052 N   0  0  0  0  0  0  0  0  0  0  0  0
   -0.4632   62.3161   88.1570 C   0  0  0  0  0  0  0  0  0  0  0  0
   -1.4487   62.3284   85.9398 C   0  0  0  0  0  0  0  0  0  0  0  0
   -2.2663   61.4887   86.3276 O   0  0  0  0  0  0  0  0  0  0  0  0
   -1.4713   62.8177   84.6196 N   0  0  0  0  0  0  0  0  0  0  0  0
   -0.5355   63.7747   84.2915 C   0  0  0  0  0  0  0  0  0  0  0  0
   -0.3524   64.4069   83.0984 N   0  0  0  0  0  0  0  0  0  0  0  0
   -0.8924   64.2855   82.2550 H   0  0  0  0  0  0  0  0  0  0  0  0
   -2.4829   62.3177   83.6869 C   0  0  0  0  0  0  0  0  0  0  0  0
   -1.9775   61.1625   82.8013 C   0  0  0  0  0  0  0  0  0  0  0  0
   -1.5443   61.6445   81.4159 C   0  0  0  0  0  0  0  0  0  0  0  0
   -3.0696   60.0998   82.6637 C   0  0  0  0  0  0  0  0  0  0  0  0
    3.2418   69.6291   81.8951 S   0  0  0  0  0  0  0  0  0  0  0  0
    3.9344   69.3892   83.1429 O   0  0  0  0  0  0  0  0  0  0  0  0
    3.9465   70.0603   80.7079 O   0  0  0  0  0  0  0  0  0  0  0  0
    1.9926   70.7519   82.2108 N   0  0  0  0  0  0  0  0  0  0  0  0
    2.4128   72.1902   82.1580 C   0  0  0  0  0  0  0  0  0  0  0  0
    1.2383   73.1051   82.5583 C   0  0  0  0  0  0  0  0  0  0  0  0
    0.0134   72.9216   81.7569 N   0  0  0  0  0  0  0  0  0  0  0  0
   -0.3532   71.4898   81.7540 C   0  0  0  0  0  0  0  0  0  0  0  0
    0.7825   70.5239   81.3562 C   0  0  0  0  0  0  0  0  0  0  0  0
    0.1167   73.4581   80.3855 C   0  0  0  0  0  0  0  0  0  0  0  0
   -1.0042   74.4384   79.9297 C   0  0  0  0  0  0  0  0  0  0  0  0
   -1.8386   74.0042   78.7929 N   0  0  0  0  0  0  0  0  0  0  0  0
   -2.7587   75.0552   78.3584 C   0  0  0  0  0  0  0  0  0  0  0  0
   -2.5852   72.7954   79.1433 C   0  0  0  0  0  0  0  0  0  0  0  0
    0.3227   64.6872   80.4629 O   0  0  0  0  0  0  0  0  0  0  0  0
    0.7112   63.3080   78.5518 C   0  0  0  0  0  0  0  0  0  0  0  0
    0.1503   64.6308   79.0401 C   0  0  0  0  0  0  0  0  0  0  0  0
 39 40  1  0  0  0
 40 38  1  0  0  0
 38  1  1  0  0  0
  1  2  1  0  0  0
  2  3  2  0  0  0
  3  4  1  0  0  0
  4 24  1  0  0  0
 24 25  2  0  0  0
 24 26  2  0  0  0
 24 27  1  0  0  0
 27 28  1  0  0  0
 28 29  1  0  0  0
 29 30  1  0  0  0
 30 33  1  0  0  0
 33 34  1  0  0  0
 34 35  1  0  0  0
 35 36  1  0  0  0
 35 37  1  0  0  0
 30 31  1  0  0  0
 31 32  1  0  0  0
  4  5  2  0  0  0
  5  6  1  0  0  0
  6  7  1  0  0  0
  7  8  2  0  0  0
  8  9  1  0  0  0
  9 10  1  0  0  0
 10 11  2  0  0  0
 10 12  1  0  0  0
 12 13  1  0  0  0
 12 14  1  0  0  0
 14 15  2  0  0  0
 14 16  1  0  0  0
 16 20  1  0  0  0
 20 21  1  0  0  0
 21 22  1  0  0  0
 21 23  1  0  0  0
 16 17  1  0  0  0
 17 18  1  0  0  0
  6  1  2  0  0  0
 18  7  1  0  0  0
 32 27  1  0  0  0
 17  9  2  0  0  0
 18 19  1  0  0  0
M  END
> <minimizedAffinity>
-8.97418

$$$$
