


 25 27  0  0  0  0  0  0  0  0999 V2000
   -0.9812   61.4624   80.1918 N   0  0  0  0  0  0  0  0  0  0  0  0
   -0.4400   62.4512   80.8362 C   0  0  0  0  0  0  0  0  0  0  0  0
   -0.7331   64.1657   80.5465 S   0  0  0  0  0  0  0  0  0  0  0  0
    0.4855   64.5264   81.7625 C   0  0  0  0  0  0  0  0  0  0  0  0
    1.0220   63.5055   82.3668 N   0  0  0  0  0  0  0  0  0  0  0  0
    0.4598   62.3509   81.8765 N   0  0  0  0  0  0  0  0  0  0  0  0
    1.1244   61.1044   82.1944 C   0  0  0  0  0  0  0  0  0  0  0  0
   -3.7816   61.5037   80.7871 C   0  0  0  0  0  0  0  0  0  0  0  0
   -3.2603   61.7102   79.3900 C   0  0  0  0  0  0  0  0  0  0  0  0
   -4.1706   61.9249   78.3431 C   0  0  0  0  0  0  0  0  0  0  0  0
   -3.7208   62.1022   77.0379 C   0  0  0  0  0  0  0  0  0  0  0  0
   -2.3557   62.0632   76.7642 C   0  0  0  0  0  0  0  0  0  0  0  0
   -1.4255   61.8581   77.7980 C   0  0  0  0  0  0  0  0  0  0  0  0
   -1.8704   61.7048   79.1280 C   0  0  0  0  0  0  0  0  0  0  0  0
    0.0241   61.8203   77.4665 C   0  0  0  0  0  0  0  0  0  0  0  0
    0.8632   62.6829   77.6404 O   0  0  0  0  0  0  0  0  0  0  0  0
    0.3735   60.6447   76.9022 O   0  0  0  0  0  0  0  0  0  0  0  0
    1.3388   60.7422   76.7630 H   0  0  0  0  0  0  0  0  0  0  0  0
    0.8666   65.9306   82.0652 C   0  0  0  0  0  0  0  0  0  0  0  0
    1.5647   66.3008   83.2245 C   0  0  0  0  0  0  0  0  0  0  0  0
    1.8965   67.6415   83.4547 C   0  0  0  0  0  0  0  0  0  0  0  0
    1.5330   68.6180   82.5302 C   0  0  0  0  0  0  0  0  0  0  0  0
    1.9430   70.2631   82.8172 Cl  0  0  0  0  0  0  0  0  0  0  0  0
    0.8393   68.2676   81.3753 C   0  0  0  0  0  0  0  0  0  0  0  0
    0.5073   66.9288   81.1442 C   0  0  0  0  0  0  0  0  0  0  0  0
  8  9  1  0  0  0
  9 10  2  0  0  0
 10 11  1  0  0  0
 11 12  2  0  0  0
 12 13  1  0  0  0
 13 15  1  0  0  0
 15 16  2  0  0  0
 15 17  1  0  0  0
 13 14  2  0  0  0
 14  1  1  0  0  0
  1  2  2  0  0  0
  2  3  1  0  0  0
  3  4  1  0  0  0
  4 19  1  0  0  0
 19 20  1  0  0  0
 20 21  2  0  0  0
 21 22  1  0  0  0
 22 23  1  0  0  0
 22 24  2  0  0  0
 24 25  1  0  0  0
  4  5  2  0  0  0
  5  6  1  0  0  0
  6  7  1  0  0  0
 14  9  1  0  0  0
  6  2  1  0  0  0
 25 19  2  0  0  0
 17 18  1  0  0  0
M  END
> <minimizedAffinity>
-8.51994

$$$$



 25 27  0  0  0  0  0  0  0  0999 V2000
   -0.8754   61.7698   80.1419 N   0  0  0  0  0  0  0  0  0  0  0  0
   -0.3968   62.7600   80.8320 C   0  0  0  0  0  0  0  0  0  0  0  0
   -0.4785   64.4666   80.3959 S   0  0  0  0  0  0  0  0  0  0  0  0
    0.4901   64.8235   81.8201 C   0  0  0  0  0  0  0  0  0  0  0  0
    0.8029   63.8116   82.5774 N   0  0  0  0  0  0  0  0  0  0  0  0
    0.2581   62.6687   82.0422 N   0  0  0  0  0  0  0  0  0  0  0  0
    0.7357   61.4032   82.5590 C   0  0  0  0  0  0  0  0  0  0  0  0
    0.7912   62.4596   77.9183 C   0  0  0  0  0  0  0  0  0  0  0  0
   -0.7058   62.3626   77.7928 C   0  0  0  0  0  0  0  0  0  0  0  0
   -1.3083   62.6221   76.5517 C   0  0  0  0  0  0  0  0  0  0  0  0
   -2.6911   62.5573   76.4077 C   0  0  0  0  0  0  0  0  0  0  0  0
   -3.4876   62.2358   77.5041 C   0  0  0  0  0  0  0  0  0  0  0  0
   -2.9056   61.9637   78.7545 C   0  0  0  0  0  0  0  0  0  0  0  0
   -1.5032   62.0001   78.9034 C   0  0  0  0  0  0  0  0  0  0  0  0
   -3.7889   61.6263   79.9027 C   0  0  0  0  0  0  0  0  0  0  0  0
   -3.8390   62.1502   80.9988 O   0  0  0  0  0  0  0  0  0  0  0  0
   -4.6095   60.5947   79.6111 O   0  0  0  0  0  0  0  0  0  0  0  0
   -5.1442   60.4975   80.4268 H   0  0  0  0  0  0  0  0  0  0  0  0
    0.9179   66.2147   82.1208 C   0  0  0  0  0  0  0  0  0  0  0  0
    1.6737   66.5548   83.2529 C   0  0  0  0  0  0  0  0  0  0  0  0
    2.0474   67.8844   83.4825 C   0  0  0  0  0  0  0  0  0  0  0  0
    1.6687   68.8799   82.5847 C   0  0  0  0  0  0  0  0  0  0  0  0
    2.1305   70.5114   82.8710 Cl  0  0  0  0  0  0  0  0  0  0  0  0
    0.9180   68.5594   81.4572 C   0  0  0  0  0  0  0  0  0  0  0  0
    0.5439   67.2316   81.2266 C   0  0  0  0  0  0  0  0  0  0  0  0
  8  9  1  0  0  0
  9 10  2  0  0  0
 10 11  1  0  0  0
 11 12  2  0  0  0
 12 13  1  0  0  0
 13 15  1  0  0  0
 15 16  2  0  0  0
 15 17  1  0  0  0
 13 14  2  0  0  0
 14  1  1  0  0  0
  1  2  2  0  0  0
  2  3  1  0  0  0
  3  4  1  0  0  0
  4 19  1  0  0  0
 19 20  1  0  0  0
 20 21  2  0  0  0
 21 22  1  0  0  0
 22 23  1  0  0  0
 22 24  2  0  0  0
 24 25  1  0  0  0
  4  5  2  0  0  0
  5  6  1  0  0  0
  6  7  1  0  0  0
 14  9  1  0  0  0
  6  2  1  0  0  0
 25 19  2  0  0  0
 17 18  1  0  0  0
M  END
> <minimizedAffinity>
-8.24860

$$$$



 25 27  0  0  0  0  0  0  0  0999 V2000
    0.6404   61.4355   79.1853 N   0  0  0  0  0  0  0  0  0  0  0  0
    0.4274   61.4796   80.4654 C   0  0  0  0  0  0  0  0  0  0  0  0
   -0.9974   62.1492   81.2597 S   0  0  0  0  0  0  0  0  0  0  0  0
   -0.2230   61.8265   82.8058 C   0  0  0  0  0  0  0  0  0  0  0  0
    0.9377   61.2383   82.7616 N   0  0  0  0  0  0  0  0  0  0  0  0
    1.2689   61.0029   81.4485 N   0  0  0  0  0  0  0  0  0  0  0  0
    2.6409   60.6353   81.1677 C   0  0  0  0  0  0  0  0  0  0  0  0
    0.9234   64.2009   78.4996 C   0  0  0  0  0  0  0  0  0  0  0  0
   -0.1902   63.3523   77.9465 C   0  0  0  0  0  0  0  0  0  0  0  0
   -1.1235   63.9306   77.0718 C   0  0  0  0  0  0  0  0  0  0  0  0
   -2.1742   63.1767   76.5570 C   0  0  0  0  0  0  0  0  0  0  0  0
   -2.3056   61.8368   76.9139 C   0  0  0  0  0  0  0  0  0  0  0  0
   -1.3779   61.2345   77.7816 C   0  0  0  0  0  0  0  0  0  0  0  0
   -0.2942   61.9833   78.2866 C   0  0  0  0  0  0  0  0  0  0  0  0
   -1.5525   59.8019   78.1417 C   0  0  0  0  0  0  0  0  0  0  0  0
   -2.4947   59.2703   78.6969 O   0  0  0  0  0  0  0  0  0  0  0  0
   -0.4841   59.0637   77.7727 O   0  0  0  0  0  0  0  0  0  0  0  0
   -0.7382   58.1551   78.0385 H   0  0  0  0  0  0  0  0  0  0  0  0
   -0.8787   62.2156   84.0815 C   0  0  0  0  0  0  0  0  0  0  0  0
   -2.2386   61.9899   84.3426 C   0  0  0  0  0  0  0  0  0  0  0  0
   -2.7999   62.3789   85.5648 C   0  0  0  0  0  0  0  0  0  0  0  0
   -2.0077   62.9948   86.5311 C   0  0  0  0  0  0  0  0  0  0  0  0
   -2.7018   63.4704   88.0308 Cl  0  0  0  0  0  0  0  0  0  0  0  0
   -0.6570   63.2269   86.2875 C   0  0  0  0  0  0  0  0  0  0  0  0
   -0.0950   62.8388   85.0670 C   0  0  0  0  0  0  0  0  0  0  0  0
  8  9  1  0  0  0
  9 10  2  0  0  0
 10 11  1  0  0  0
 11 12  2  0  0  0
 12 13  1  0  0  0
 13 15  1  0  0  0
 15 16  2  0  0  0
 15 17  1  0  0  0
 13 14  2  0  0  0
 14  1  1  0  0  0
  1  2  2  0  0  0
  2  3  1  0  0  0
  3  4  1  0  0  0
  4 19  1  0  0  0
 19 20  1  0  0  0
 20 21  2  0  0  0
 21 22  1  0  0  0
 22 23  1  0  0  0
 22 24  2  0  0  0
 24 25  1  0  0  0
  4  5  2  0  0  0
  5  6  1  0  0  0
  6  7  1  0  0  0
 14  9  1  0  0  0
  6  2  1  0  0  0
 25 19  2  0  0  0
 17 18  1  0  0  0
M  END
> <minimizedAffinity>
-8.16784

$$$$



 25 27  0  0  0  0  0  0  0  0999 V2000
   -1.3700   63.3694   79.8407 N   0  0  0  0  0  0  0  0  0  0  0  0
   -0.9706   63.6029   81.0539 C   0  0  0  0  0  0  0  0  0  0  0  0
   -0.9537   62.4452   82.3838 S   0  0  0  0  0  0  0  0  0  0  0  0
   -0.4119   63.7440   83.4390 C   0  0  0  0  0  0  0  0  0  0  0  0
   -0.2072   64.9006   82.8772 N   0  0  0  0  0  0  0  0  0  0  0  0
   -0.4741   64.7970   81.5328 N   0  0  0  0  0  0  0  0  0  0  0  0
   -0.5997   66.0312   80.7861 C   0  0  0  0  0  0  0  0  0  0  0  0
   -3.8478   62.5622   81.0267 C   0  0  0  0  0  0  0  0  0  0  0  0
   -3.0928   61.6736   80.0747 C   0  0  0  0  0  0  0  0  0  0  0  0
   -3.6123   60.4081   79.7594 C   0  0  0  0  0  0  0  0  0  0  0  0
   -2.9293   59.5566   78.8959 C   0  0  0  0  0  0  0  0  0  0  0  0
   -1.7172   59.9594   78.3405 C   0  0  0  0  0  0  0  0  0  0  0  0
   -1.1822   61.2256   78.6353 C   0  0  0  0  0  0  0  0  0  0  0  0
   -1.8808   62.1062   79.4878 C   0  0  0  0  0  0  0  0  0  0  0  0
    0.1159   61.6196   78.0250 C   0  0  0  0  0  0  0  0  0  0  0  0
    0.4067   61.6944   76.8468 O   0  0  0  0  0  0  0  0  0  0  0  0
    1.0373   61.9153   78.9664 O   0  0  0  0  0  0  0  0  0  0  0  0
    1.8192   62.1798   78.4379 H   0  0  0  0  0  0  0  0  0  0  0  0
   -0.2072   63.5090   84.8921 C   0  0  0  0  0  0  0  0  0  0  0  0
    0.5787   64.3455   85.6991 C   0  0  0  0  0  0  0  0  0  0  0  0
    0.7340   64.0725   87.0635 C   0  0  0  0  0  0  0  0  0  0  0  0
    0.1068   62.9644   87.6284 C   0  0  0  0  0  0  0  0  0  0  0  0
    0.3004   62.6336   89.3047 Cl  0  0  0  0  0  0  0  0  0  0  0  0
   -0.6756   62.1240   86.8416 C   0  0  0  0  0  0  0  0  0  0  0  0
   -0.8316   62.3954   85.4785 C   0  0  0  0  0  0  0  0  0  0  0  0
  8  9  1  0  0  0
  9 10  2  0  0  0
 10 11  1  0  0  0
 11 12  2  0  0  0
 12 13  1  0  0  0
 13 15  1  0  0  0
 15 16  2  0  0  0
 15 17  1  0  0  0
 13 14  2  0  0  0
 14  1  1  0  0  0
  1  2  2  0  0  0
  2  3  1  0  0  0
  3  4  1  0  0  0
  4 19  1  0  0  0
 19 20  1  0  0  0
 20 21  2  0  0  0
 21 22  1  0  0  0
 22 23  1  0  0  0
 22 24  2  0  0  0
 24 25  1  0  0  0
  4  5  2  0  0  0
  5  6  1  0  0  0
  6  7  1  0  0  0
 14  9  1  0  0  0
  6  2  1  0  0  0
 25 19  2  0  0  0
 17 18  1  0  0  0
M  END
> <minimizedAffinity>
-8.08632

$$$$



 25 27  0  0  0  0  0  0  0  0999 V2000
    1.4731   69.7067   80.8747 N   0  0  0  0  0  0  0  0  0  0  0  0
    1.9551   68.8678   81.7406 C   0  0  0  0  0  0  0  0  0  0  0  0
    2.7966   69.2831   83.2335 S   0  0  0  0  0  0  0  0  0  0  0  0
    3.0737   67.5657   83.4941 C   0  0  0  0  0  0  0  0  0  0  0  0
    2.5604   66.7553   82.6138 N   0  0  0  0  0  0  0  0  0  0  0  0
    1.8931   67.4922   81.6645 N   0  0  0  0  0  0  0  0  0  0  0  0
    1.5124   66.8108   80.4450 C   0  0  0  0  0  0  0  0  0  0  0  0
   -0.7680   71.1637   81.9006 C   0  0  0  0  0  0  0  0  0  0  0  0
    0.5293   71.8409   81.5477 C   0  0  0  0  0  0  0  0  0  0  0  0
    0.6474   73.2291   81.7202 C   0  0  0  0  0  0  0  0  0  0  0  0
    1.8280   73.8868   81.3871 C   0  0  0  0  0  0  0  0  0  0  0  0
    2.9027   73.1643   80.8743 C   0  0  0  0  0  0  0  0  0  0  0  0
    2.8100   71.7723   80.7011 C   0  0  0  0  0  0  0  0  0  0  0  0
    1.6271   71.0933   81.0616 C   0  0  0  0  0  0  0  0  0  0  0  0
    3.9778   71.0352   80.1486 C   0  0  0  0  0  0  0  0  0  0  0  0
    5.1137   70.9843   80.5794 O   0  0  0  0  0  0  0  0  0  0  0  0
    3.6533   70.3630   79.0237 O   0  0  0  0  0  0  0  0  0  0  0  0
    4.4889   69.9091   78.7861 H   0  0  0  0  0  0  0  0  0  0  0  0
    3.8568   67.0899   84.6640 C   0  0  0  0  0  0  0  0  0  0  0  0
    4.6535   67.9383   85.4476 C   0  0  0  0  0  0  0  0  0  0  0  0
    5.3688   67.4311   86.5390 C   0  0  0  0  0  0  0  0  0  0  0  0
    5.2930   66.0761   86.8531 C   0  0  0  0  0  0  0  0  0  0  0  0
    6.1733   65.4580   88.1948 Cl  0  0  0  0  0  0  0  0  0  0  0  0
    4.5080   65.2206   86.0853 C   0  0  0  0  0  0  0  0  0  0  0  0
    3.7929   65.7259   84.9947 C   0  0  0  0  0  0  0  0  0  0  0  0
  8  9  1  0  0  0
  9 10  2  0  0  0
 10 11  1  0  0  0
 11 12  2  0  0  0
 12 13  1  0  0  0
 13 15  1  0  0  0
 15 16  2  0  0  0
 15 17  1  0  0  0
 13 14  2  0  0  0
 14  1  1  0  0  0
  1  2  2  0  0  0
  2  3  1  0  0  0
  3  4  1  0  0  0
  4 19  1  0  0  0
 19 20  1  0  0  0
 20 21  2  0  0  0
 21 22  1  0  0  0
 22 23  1  0  0  0
 22 24  2  0  0  0
 24 25  1  0  0  0
  4  5  2  0  0  0
  5  6  1  0  0  0
  6  7  1  0  0  0
 14  9  1  0  0  0
  6  2  1  0  0  0
 25 19  2  0  0  0
 17 18  1  0  0  0
M  END
> <minimizedAffinity>
-8.02030

$$$$



 25 27  0  0  0  0  0  0  0  0999 V2000
   -1.0443   62.2832   79.2825 N   0  0  0  0  0  0  0  0  0  0  0  0
   -0.5846   63.4923   79.3944 C   0  0  0  0  0  0  0  0  0  0  0  0
   -0.5982   64.4787   80.8559 S   0  0  0  0  0  0  0  0  0  0  0  0
    0.0713   65.8004   79.9079 C   0  0  0  0  0  0  0  0  0  0  0  0
    0.3345   65.5432   78.6589 N   0  0  0  0  0  0  0  0  0  0  0  0
    0.0110   64.2334   78.3954 N   0  0  0  0  0  0  0  0  0  0  0  0
   -0.0566   63.8354   77.0049 C   0  0  0  0  0  0  0  0  0  0  0  0
   -3.8916   61.9867   79.2292 C   0  0  0  0  0  0  0  0  0  0  0  0
   -3.0614   61.5054   80.3891 C   0  0  0  0  0  0  0  0  0  0  0  0
   -3.6980   60.8967   81.4823 C   0  0  0  0  0  0  0  0  0  0  0  0
   -2.9600   60.4565   82.5772 C   0  0  0  0  0  0  0  0  0  0  0  0
   -1.5774   60.6233   82.5931 C   0  0  0  0  0  0  0  0  0  0  0  0
   -0.9176   61.2224   81.5058 C   0  0  0  0  0  0  0  0  0  0  0  0
   -1.6542   61.6468   80.3799 C   0  0  0  0  0  0  0  0  0  0  0  0
    0.5599   61.3856   81.5601 C   0  0  0  0  0  0  0  0  0  0  0  0
    1.2388   61.8391   82.4611 O   0  0  0  0  0  0  0  0  0  0  0  0
    1.1489   60.9526   80.4252 O   0  0  0  0  0  0  0  0  0  0  0  0
    2.1031   61.0891   80.6030 H   0  0  0  0  0  0  0  0  0  0  0  0
    0.3134   67.1317   80.5224 C   0  0  0  0  0  0  0  0  0  0  0  0
   -0.3475   68.2975   80.1070 C   0  0  0  0  0  0  0  0  0  0  0  0
   -0.0773   69.5243   80.7254 C   0  0  0  0  0  0  0  0  0  0  0  0
    0.8532   69.5934   81.7597 C   0  0  0  0  0  0  0  0  0  0  0  0
    1.1814   71.1024   82.5162 Cl  0  0  0  0  0  0  0  0  0  0  0  0
    1.5184   68.4462   82.1832 C   0  0  0  0  0  0  0  0  0  0  0  0
    1.2494   67.2202   81.5664 C   0  0  0  0  0  0  0  0  0  0  0  0
  8  9  1  0  0  0
  9 10  2  0  0  0
 10 11  1  0  0  0
 11 12  2  0  0  0
 12 13  1  0  0  0
 13 15  1  0  0  0
 15 16  2  0  0  0
 15 17  1  0  0  0
 13 14  2  0  0  0
 14  1  1  0  0  0
  1  2  2  0  0  0
  2  3  1  0  0  0
  3  4  1  0  0  0
  4 19  1  0  0  0
 19 20  1  0  0  0
 20 21  2  0  0  0
 21 22  1  0  0  0
 22 23  1  0  0  0
 22 24  2  0  0  0
 24 25  1  0  0  0
  4  5  2  0  0  0
  5  6  1  0  0  0
  6  7  1  0  0  0
 14  9  1  0  0  0
  6  2  1  0  0  0
 25 19  2  0  0  0
 17 18  1  0  0  0
M  END
> <minimizedAffinity>
-7.74739

$$$$



 25 27  0  0  0  0  0  0  0  0999 V2000
    1.8100   70.4074   82.5052 N   0  0  0  0  0  0  0  0  0  0  0  0
    2.6924   71.1084   81.8605 C   0  0  0  0  0  0  0  0  0  0  0  0
    3.7422   70.5253   80.5694 S   0  0  0  0  0  0  0  0  0  0  0  0
    4.5097   72.1078   80.5492 C   0  0  0  0  0  0  0  0  0  0  0  0
    4.0210   72.9999   81.3620 N   0  0  0  0  0  0  0  0  0  0  0  0
    2.9713   72.4450   82.0545 N   0  0  0  0  0  0  0  0  0  0  0  0
    2.4885   73.1660   83.2136 C   0  0  0  0  0  0  0  0  0  0  0  0
   -0.1396   69.6875   80.5357 C   0  0  0  0  0  0  0  0  0  0  0  0
    0.6709   68.6533   81.2705 C   0  0  0  0  0  0  0  0  0  0  0  0
    0.4650   67.2936   80.9889 C   0  0  0  0  0  0  0  0  0  0  0  0
    1.1865   66.3129   81.6634 C   0  0  0  0  0  0  0  0  0  0  0  0
    2.1196   66.6807   82.6299 C   0  0  0  0  0  0  0  0  0  0  0  0
    2.3485   68.0366   82.9222 C   0  0  0  0  0  0  0  0  0  0  0  0
    1.6417   69.0384   82.2243 C   0  0  0  0  0  0  0  0  0  0  0  0
    3.3512   68.3905   83.9623 C   0  0  0  0  0  0  0  0  0  0  0  0
    4.5565   68.5009   83.8455 O   0  0  0  0  0  0  0  0  0  0  0  0
    2.7689   68.5990   85.1623 O   0  0  0  0  0  0  0  0  0  0  0  0
    3.5237   68.8462   85.7366 H   0  0  0  0  0  0  0  0  0  0  0  0
    5.6551   72.3869   79.6443 C   0  0  0  0  0  0  0  0  0  0  0  0
    5.9794   71.5740   78.5476 C   0  0  0  0  0  0  0  0  0  0  0  0
    7.0715   71.8889   77.7301 C   0  0  0  0  0  0  0  0  0  0  0  0
    7.8446   73.0150   78.0030 C   0  0  0  0  0  0  0  0  0  0  0  0
    9.1847   73.3977   76.9957 Cl  0  0  0  0  0  0  0  0  0  0  0  0
    7.5370   73.8314   79.0877 C   0  0  0  0  0  0  0  0  0  0  0  0
    6.4464   73.5181   79.9052 C   0  0  0  0  0  0  0  0  0  0  0  0
  8  9  1  0  0  0
  9 10  2  0  0  0
 10 11  1  0  0  0
 11 12  2  0  0  0
 12 13  1  0  0  0
 13 15  1  0  0  0
 15 16  2  0  0  0
 15 17  1  0  0  0
 13 14  2  0  0  0
 14  1  1  0  0  0
  1  2  2  0  0  0
  2  3  1  0  0  0
  3  4  1  0  0  0
  4 19  1  0  0  0
 19 20  1  0  0  0
 20 21  2  0  0  0
 21 22  1  0  0  0
 22 23  1  0  0  0
 22 24  2  0  0  0
 24 25  1  0  0  0
  4  5  2  0  0  0
  5  6  1  0  0  0
  6  7  1  0  0  0
 14  9  1  0  0  0
  6  2  1  0  0  0
 25 19  2  0  0  0
 17 18  1  0  0  0
M  END
> <minimizedAffinity>
-7.63850

$$$$



 25 27  0  0  0  0  0  0  0  0999 V2000
   -0.6957   63.0807   83.1295 N   0  0  0  0  0  0  0  0  0  0  0  0
   -0.0668   64.2163   83.1549 C   0  0  0  0  0  0  0  0  0  0  0  0
    0.3521   65.2043   81.7557 S   0  0  0  0  0  0  0  0  0  0  0  0
    1.1942   66.2984   82.8455 C   0  0  0  0  0  0  0  0  0  0  0  0
    1.1366   66.0116   84.1142 N   0  0  0  0  0  0  0  0  0  0  0  0
    0.3854   64.8725   84.2804 N   0  0  0  0  0  0  0  0  0  0  0  0
    0.4499   64.2198   85.5713 C   0  0  0  0  0  0  0  0  0  0  0  0
   -3.2767   63.7679   82.0979 C   0  0  0  0  0  0  0  0  0  0  0  0
   -2.3606   62.8119   81.3818 C   0  0  0  0  0  0  0  0  0  0  0  0
   -2.7816   62.2332   80.1740 C   0  0  0  0  0  0  0  0  0  0  0  0
   -1.9644   61.3327   79.4968 C   0  0  0  0  0  0  0  0  0  0  0  0
   -0.7185   60.9977   80.0215 C   0  0  0  0  0  0  0  0  0  0  0  0
   -0.2727   61.5713   81.2250 C   0  0  0  0  0  0  0  0  0  0  0  0
   -1.0824   62.5058   81.9043 C   0  0  0  0  0  0  0  0  0  0  0  0
    1.0629   61.1872   81.7554 C   0  0  0  0  0  0  0  0  0  0  0  0
    1.4051   61.0446   82.9134 O   0  0  0  0  0  0  0  0  0  0  0  0
    1.9541   60.9910   80.7605 O   0  0  0  0  0  0  0  0  0  0  0  0
    2.7663   60.7217   81.2385 H   0  0  0  0  0  0  0  0  0  0  0  0
    1.9271   67.4803   82.3213 C   0  0  0  0  0  0  0  0  0  0  0  0
    2.7727   68.2699   83.1150 C   0  0  0  0  0  0  0  0  0  0  0  0
    3.4372   69.3721   82.5638 C   0  0  0  0  0  0  0  0  0  0  0  0
    3.2609   69.6915   81.2195 C   0  0  0  0  0  0  0  0  0  0  0  0
    4.0795   71.0460   80.5471 Cl  0  0  0  0  0  0  0  0  0  0  0  0
    2.4246   68.9189   80.4185 C   0  0  0  0  0  0  0  0  0  0  0  0
    1.7602   67.8177   80.9678 C   0  0  0  0  0  0  0  0  0  0  0  0
  8  9  1  0  0  0
  9 10  2  0  0  0
 10 11  1  0  0  0
 11 12  2  0  0  0
 12 13  1  0  0  0
 13 15  1  0  0  0
 15 16  2  0  0  0
 15 17  1  0  0  0
 13 14  2  0  0  0
 14  1  1  0  0  0
  1  2  2  0  0  0
  2  3  1  0  0  0
  3  4  1  0  0  0
  4 19  1  0  0  0
 19 20  1  0  0  0
 20 21  2  0  0  0
 21 22  1  0  0  0
 22 23  1  0  0  0
 22 24  2  0  0  0
 24 25  1  0  0  0
  4  5  2  0  0  0
  5  6  1  0  0  0
  6  7  1  0  0  0
 14  9  1  0  0  0
  6  2  1  0  0  0
 25 19  2  0  0  0
 17 18  1  0  0  0
M  END
> <minimizedAffinity>
-7.61829

$$$$



 25 27  0  0  0  0  0  0  0  0999 V2000
    1.9902   69.9045   80.7012 N   0  0  0  0  0  0  0  0  0  0  0  0
    2.3624   69.0517   81.6067 C   0  0  0  0  0  0  0  0  0  0  0  0
    3.1931   69.4326   83.1147 S   0  0  0  0  0  0  0  0  0  0  0  0
    3.2958   67.7059   83.4339 C   0  0  0  0  0  0  0  0  0  0  0  0
    2.7346   66.9202   82.5604 N   0  0  0  0  0  0  0  0  0  0  0  0
    2.1710   67.6865   81.5682 N   0  0  0  0  0  0  0  0  0  0  0  0
    1.7646   67.0058   80.3566 C   0  0  0  0  0  0  0  0  0  0  0  0
    4.6304   70.7984   80.0468 C   0  0  0  0  0  0  0  0  0  0  0  0
    3.5730   71.7409   80.5567 C   0  0  0  0  0  0  0  0  0  0  0  0
    3.8873   73.0989   80.7229 C   0  0  0  0  0  0  0  0  0  0  0  0
    2.9366   73.9921   81.2084 C   0  0  0  0  0  0  0  0  0  0  0  0
    1.6620   73.5368   81.5367 C   0  0  0  0  0  0  0  0  0  0  0  0
    1.3224   72.1828   81.3704 C   0  0  0  0  0  0  0  0  0  0  0  0
    2.2707   71.2754   80.8531 C   0  0  0  0  0  0  0  0  0  0  0  0
   -0.0481   71.7334   81.7342 C   0  0  0  0  0  0  0  0  0  0  0  0
   -0.4972   70.6034   81.7418 O   0  0  0  0  0  0  0  0  0  0  0  0
   -0.8335   72.7727   82.0881 O   0  0  0  0  0  0  0  0  0  0  0  0
   -1.6811   72.3413   82.3251 H   0  0  0  0  0  0  0  0  0  0  0  0
    3.9930   67.1953   84.6429 C   0  0  0  0  0  0  0  0  0  0  0  0
    4.7417   68.0174   85.4987 C   0  0  0  0  0  0  0  0  0  0  0  0
    5.3763   67.4780   86.6241 C   0  0  0  0  0  0  0  0  0  0  0  0
    5.2674   66.1170   86.9003 C   0  0  0  0  0  0  0  0  0  0  0  0
    6.0484   65.4594   88.2839 Cl  0  0  0  0  0  0  0  0  0  0  0  0
    4.5292   65.2874   86.0609 C   0  0  0  0  0  0  0  0  0  0  0  0
    3.8948   65.8249   84.9364 C   0  0  0  0  0  0  0  0  0  0  0  0
  8  9  1  0  0  0
  9 10  2  0  0  0
 10 11  1  0  0  0
 11 12  2  0  0  0
 12 13  1  0  0  0
 13 15  1  0  0  0
 15 16  2  0  0  0
 15 17  1  0  0  0
 13 14  2  0  0  0
 14  1  1  0  0  0
  1  2  2  0  0  0
  2  3  1  0  0  0
  3  4  1  0  0  0
  4 19  1  0  0  0
 19 20  1  0  0  0
 20 21  2  0  0  0
 21 22  1  0  0  0
 22 23  1  0  0  0
 22 24  2  0  0  0
 24 25  1  0  0  0
  4  5  2  0  0  0
  5  6  1  0  0  0
  6  7  1  0  0  0
 14  9  1  0  0  0
  6  2  1  0  0  0
 25 19  2  0  0  0
 17 18  1  0  0  0
M  END
> <minimizedAffinity>
-7.46617

$$$$
