
     RDKit          3D

 66 69  0  0  0  0  0  0  0  0999 V2000
    0.1393    4.4971    0.9590 C   0  0  0  0  0  0  0  0  0  0  0  0
   -0.8858    3.4725    1.4185 C   0  0  0  0  0  0  0  0  0  0  0  0
   -1.9066    3.1717    0.3211 C   0  0  0  0  0  0  0  0  0  0  0  0
   -2.9030    2.1549    0.7623 C   0  0  0  0  0  0  0  0  0  0  0  0
   -4.1247    2.3913    1.2108 N   0  0  0  0  0  0  0  0  0  0  0  0
   -4.6669    1.1528    1.4932 C   0  0  0  0  0  0  0  0  0  0  0  0
   -6.0504    1.0413    2.0272 C   0  0  0  0  0  0  0  0  0  0  0  0
   -7.0725    0.7819    0.9320 C   0  0  0  0  0  0  0  0  0  0  0  0
   -3.7489    0.1710    1.2049 C   0  0  0  0  0  0  0  0  0  0  0  0
   -3.6601   -1.2242    1.2615 C   0  0  0  0  0  0  0  0  0  0  0  0
   -4.7446   -1.8646    1.7142 O   0  0  0  0  0  0  0  0  0  0  0  0
   -2.6129   -1.8756    0.9114 N   0  0  0  0  0  0  0  0  0  0  0  0
   -1.5494   -1.1270    0.4433 C   0  0  0  0  0  0  0  0  0  0  0  0
   -0.3303   -1.8919    0.0515 C   0  0  0  0  0  0  0  0  0  0  0  0
    0.9060   -1.3554    0.4438 C   0  0  0  0  0  0  0  0  0  0  0  0
    2.0846   -2.0058    0.0833 C   0  0  0  0  0  0  0  0  0  0  0  0
    3.6550   -1.3390    0.5778 S   0  0  0  0  0  0  0  0  0  0  0  0
    4.4972   -2.4630    0.9281 O   0  0  0  0  0  0  0  0  0  0  0  0
    3.4131   -0.2708    1.5228 O   0  0  0  0  0  0  0  0  0  0  0  0
    4.2392   -0.6642   -0.8692 N   0  0  0  0  0  0  0  0  0  0  0  0
    3.4858    0.4966   -1.4413 C   0  0  0  0  0  0  0  0  0  0  0  0
    3.8663    1.8379   -0.7806 C   0  0  0  0  0  0  0  0  0  0  0  0
    5.3215    2.0891   -0.8037 N   0  0  0  0  0  0  0  0  0  0  0  0
    5.6370    3.3369   -0.1091 C   0  0  0  0  0  0  0  0  0  0  0  0
    6.0377    0.9557   -0.1826 C   0  0  0  0  0  0  0  0  0  0  0  0
    5.7084   -0.3779   -0.8785 C   0  0  0  0  0  0  0  0  0  0  0  0
    2.0436   -3.1978   -0.6400 C   0  0  0  0  0  0  0  0  0  0  0  0
    0.8106   -3.7304   -1.0313 C   0  0  0  0  0  0  0  0  0  0  0  0
   -0.3880   -3.0832   -0.6975 C   0  0  0  0  0  0  0  0  0  0  0  0
   -1.6232   -3.5108   -1.1041 O   0  0  0  0  0  0  0  0  0  0  0  0
   -1.7252   -4.8018   -1.7004 C   0  0  0  0  0  0  0  0  0  0  0  0
   -3.1985   -5.0994   -1.9145 C   0  0  0  0  0  0  0  0  0  0  0  0
   -1.5115    0.1735    0.3556 N   0  0  0  0  0  0  0  0  0  0  0  0
   -2.6422    0.8044    0.7431 N   0  0  0  0  0  0  0  0  0  0  0  0
    0.8565    4.7012    1.7601 H   0  0  0  0  0  0  0  0  0  0  0  0
   -0.3439    5.4409    0.6866 H   0  0  0  0  0  0  0  0  0  0  0  0
    0.6962    4.1317    0.0902 H   0  0  0  0  0  0  0  0  0  0  0  0
   -0.3632    2.5552    1.7156 H   0  0  0  0  0  0  0  0  0  0  0  0
   -1.3973    3.8484    2.3132 H   0  0  0  0  0  0  0  0  0  0  0  0
   -2.4371    4.0926    0.0500 H   0  0  0  0  0  0  0  0  0  0  0  0
   -1.3970    2.8258   -0.5864 H   0  0  0  0  0  0  0  0  0  0  0  0
   -6.1002    0.2417    2.7747 H   0  0  0  0  0  0  0  0  0  0  0  0
   -6.3120    1.9699    2.5484 H   0  0  0  0  0  0  0  0  0  0  0  0
   -7.0673    1.5866    0.1889 H   0  0  0  0  0  0  0  0  0  0  0  0
   -8.0785    0.7186    1.3586 H   0  0  0  0  0  0  0  0  0  0  0  0
   -6.8653   -0.1579    0.4091 H   0  0  0  0  0  0  0  0  0  0  0  0
   -4.5453   -2.8149    1.6946 H   0  0  0  0  0  0  0  0  0  0  0  0
    0.9407   -0.4354    1.0247 H   0  0  0  0  0  0  0  0  0  0  0  0
    2.4068    0.3352   -1.3688 H   0  0  0  0  0  0  0  0  0  0  0  0
    3.7112    0.5384   -2.5149 H   0  0  0  0  0  0  0  0  0  0  0  0
    3.4871    1.8693    0.2471 H   0  0  0  0  0  0  0  0  0  0  0  0
    3.3554    2.6387   -1.3293 H   0  0  0  0  0  0  0  0  0  0  0  0
    6.7119    3.5426   -0.1601 H   0  0  0  0  0  0  0  0  0  0  0  0
    5.1315    4.1816   -0.5902 H   0  0  0  0  0  0  0  0  0  0  0  0
    5.3402    3.3128    0.9457 H   0  0  0  0  0  0  0  0  0  0  0  0
    5.8004    0.8863    0.8863 H   0  0  0  0  0  0  0  0  0  0  0  0
    7.1185    1.1227   -0.2650 H   0  0  0  0  0  0  0  0  0  0  0  0
    6.2642   -1.1978   -0.4119 H   0  0  0  0  0  0  0  0  0  0  0  0
    6.0389   -0.3470   -1.9247 H   0  0  0  0  0  0  0  0  0  0  0  0
    2.9658   -3.7102   -0.9094 H   0  0  0  0  0  0  0  0  0  0  0  0
    0.8226   -4.6474   -1.6127 H   0  0  0  0  0  0  0  0  0  0  0  0
   -1.2985   -5.5655   -1.0399 H   0  0  0  0  0  0  0  0  0  0  0  0
   -1.2136   -4.8110   -2.6694 H   0  0  0  0  0  0  0  0  0  0  0  0
   -3.6552   -4.3412   -2.5594 H   0  0  0  0  0  0  0  0  0  0  0  0
   -3.3353   -6.0826   -2.3733 H   0  0  0  0  0  0  0  0  0  0  0  0
   -3.7388   -5.0746   -0.9622 H   0  0  0  0  0  0  0  0  0  0  0  0
  1  2  1  0
  2  3  1  0
  3  4  1  0
  4  5  2  0
  5  6  1  0
  6  7  1  0
  7  8  1  0
  6  9  2  0
  9 10  1  0
 10 11  1  0
 10 12  2  0
 12 13  1  0
 13 14  1  0
 14 15  1  0
 15 16  2  0
 16 17  1  0
 17 18  2  0
 17 19  2  0
 17 20  1  0
 20 21  1  0
 21 22  1  0
 22 23  1  0
 23 24  1  0
 23 25  1  0
 25 26  1  0
 16 27  1  0
 27 28  2  0
 28 29  1  0
 29 30  1  0
 30 31  1  0
 31 32  1  0
 13 33  2  0
 33 34  1  0
 34  4  1  0
 34  9  1  0
 29 14  2  0
 26 20  1  0
  1 35  1  0
  1 36  1  0
  1 37  1  0
  2 38  1  0
  2 39  1  0
  3 40  1  0
  3 41  1  0
  7 42  1  0
  7 43  1  0
  8 44  1  0
  8 45  1  0
  8 46  1  0
 11 47  1  0
 15 48  1  0
 21 49  1  0
 21 50  1  0
 22 51  1  0
 22 52  1  0
 24 53  1  0
 24 54  1  0
 24 55  1  0
 25 56  1  0
 25 57  1  0
 26 58  1  0
 26 59  1  0
 27 60  1  0
 28 61  1  0
 31 62  1  0
 31 63  1  0
 32 64  1  0
 32 65  1  0
 32 66  1  0
M  END
$$$$
