
     RDKit          3D

 50 53  0  0  0  0  0  0  0  0999 V2000
    8.0578    2.6117    0.3727 C   0  0  0  0  0  0  0  0  0  0  0  0
    6.8397    2.8941   -0.3049 O   0  0  0  0  0  0  0  0  0  0  0  0
    5.8359    1.9753   -0.1777 C   0  0  0  0  0  0  0  0  0  0  0  0
    5.8952    0.7867    0.5472 C   0  0  0  0  0  0  0  0  0  0  0  0
    4.7868   -0.0714    0.5954 C   0  0  0  0  0  0  0  0  0  0  0  0
    3.6087    0.2496   -0.0789 C   0  0  0  0  0  0  0  0  0  0  0  0
    2.4577   -0.5580   -0.0809 N   0  0  0  0  0  0  0  0  0  0  0  0
    2.2408   -1.7467    0.6013 C   0  0  0  0  0  0  0  0  0  0  0  0
    3.0396   -2.3224    1.3327 O   0  0  0  0  0  0  0  0  0  0  0  0
    0.8485   -2.3423    0.2791 C   0  0  1  0  0  0  0  0  0  0  0  0
    0.3631   -3.2498    1.4027 C   0  0  0  0  0  0  0  0  0  0  0  0
   -0.1129   -1.2548    0.0496 N   0  0  0  0  0  0  0  0  0  0  0  0
   -1.3445   -1.4080   -0.5180 C   0  0  0  0  0  0  0  0  0  0  0  0
   -2.3200   -0.6777   -0.0482 N   0  0  0  0  0  0  0  0  0  0  0  0
   -3.5141   -0.8513   -0.6746 C   0  0  0  0  0  0  0  0  0  0  0  0
   -3.7764   -1.7564   -1.6737 C   0  0  0  0  0  0  0  0  0  0  0  0
   -5.1471   -1.6889   -1.9038 C   0  0  0  0  0  0  0  0  0  0  0  0
   -5.7464   -0.8113   -1.0945 N   0  0  0  0  0  0  0  0  0  0  0  0
   -4.7195   -0.2139   -0.4024 N   0  0  0  0  0  0  0  0  0  0  0  0
   -5.0094    0.8366    0.5092 C   0  0  0  0  0  0  0  0  0  0  0  0
   -6.2562    0.7894    1.1666 C   0  0  0  0  0  0  0  0  0  0  0  0
   -6.5972    1.7451    2.1251 C   0  0  0  0  0  0  0  0  0  0  0  0
   -5.7091    2.7711    2.4259 C   0  0  0  0  0  0  0  0  0  0  0  0
   -4.4939    2.8564    1.7457 C   0  0  0  0  0  0  0  0  0  0  0  0
   -4.1411    1.9045    0.7759 C   0  0  0  0  0  0  0  0  0  0  0  0
   -2.7293    2.2835   -0.1513 Cl  0  0  0  0  0  0  0  0  0  0  0  0
   -2.7048   -2.5458   -2.1961 C   0  0  0  0  0  0  0  0  0  0  0  0
   -2.8214   -3.3594   -3.1042 O   0  0  0  0  0  0  0  0  0  0  0  0
   -1.5037   -2.3014   -1.5588 N   0  0  0  0  0  0  0  0  0  0  0  0
    3.5533    1.4423   -0.8066 C   0  0  0  0  0  0  0  0  0  0  0  0
    4.6590    2.2968   -0.8538 C   0  0  0  0  0  0  0  0  0  0  0  0
    8.7493    3.4364    0.1747 H   0  0  0  0  0  0  0  0  0  0  0  0
    8.5174    1.6934   -0.0076 H   0  0  0  0  0  0  0  0  0  0  0  0
    7.9042    2.5588    1.4556 H   0  0  0  0  0  0  0  0  0  0  0  0
    6.7869    0.4901    1.0896 H   0  0  0  0  0  0  0  0  0  0  0  0
    4.8829   -0.9865    1.1714 H   0  0  0  0  0  0  0  0  0  0  0  0
    1.6529   -0.2110   -0.5973 H   0  0  0  0  0  0  0  0  0  0  0  0
    0.9810   -2.9303   -0.6363 H   0  0  0  0  0  0  0  0  0  0  0  0
   -0.6160   -3.6810    1.1690 H   0  0  0  0  0  0  0  0  0  0  0  0
    0.2689   -2.6969    2.3443 H   0  0  0  0  0  0  0  0  0  0  0  0
    1.0621   -4.0758    1.5713 H   0  0  0  0  0  0  0  0  0  0  0  0
   -0.1956   -0.6417    0.8629 H   0  0  0  0  0  0  0  0  0  0  0  0
   -5.7463   -2.2605   -2.6017 H   0  0  0  0  0  0  0  0  0  0  0  0
   -6.9636   -0.0132    0.9593 H   0  0  0  0  0  0  0  0  0  0  0  0
   -7.5553    1.6835    2.6357 H   0  0  0  0  0  0  0  0  0  0  0  0
   -5.9714    3.5200    3.1689 H   0  0  0  0  0  0  0  0  0  0  0  0
   -3.8326    3.6950    1.9543 H   0  0  0  0  0  0  0  0  0  0  0  0
   -0.7197   -2.8147   -1.9216 H   0  0  0  0  0  0  0  0  0  0  0  0
    2.6541    1.7291   -1.3457 H   0  0  0  0  0  0  0  0  0  0  0  0
    4.6013    3.2218   -1.4225 H   0  0  0  0  0  0  0  0  0  0  0  0
  1  2  1  0
  2  3  1  0
  3  4  1  0
  4  5  2  0
  5  6  1  0
  6  7  1  0
  7  8  1  0
  8  9  2  0
  8 10  1  0
 10 11  1  0
 10 12  1  0
 12 13  1  0
 13 14  2  0
 14 15  1  0
 15 16  2  0
 16 17  1  0
 17 18  2  0
 18 19  1  0
 19 20  1  0
 20 21  2  0
 21 22  1  0
 22 23  2  0
 23 24  1  0
 24 25  2  0
 25 26  1  0
 16 27  1  0
 27 28  2  0
 27 29  1  0
  6 30  2  0
 30 31  1  0
 31  3  2  0
 29 13  1  0
 19 15  1  0
 25 20  1  0
  1 32  1  0
  1 33  1  0
  1 34  1  0
  4 35  1  0
  5 36  1  0
  7 37  1  0
 10 38  1  6
 11 39  1  0
 11 40  1  0
 11 41  1  0
 12 42  1  0
 17 43  1  0
 21 44  1  0
 22 45  1  0
 23 46  1  0
 24 47  1  0
 29 48  1  0
 30 49  1  0
 31 50  1  0
M  END
$$$$
