
     RDKit          3D

 62 65  0  0  0  0  0  0  0  0999 V2000
    7.2170    1.6975   -0.0166 C   0  0  0  0  0  0  0  0  0  0  0  0
    5.9018    2.4445    0.2111 C   0  0  0  0  0  0  0  0  0  0  0  0
    5.7152    2.7679    1.6942 C   0  0  0  0  0  0  0  0  0  0  0  0
    4.6996    1.6853   -0.3803 C   0  0  0  0  0  0  0  0  0  0  0  0
    4.5283    0.3766    0.2665 N   0  0  0  0  0  0  0  0  0  0  0  0
    3.4772   -0.3565   -0.3230 C   0  0  0  0  0  0  0  0  0  0  0  0
    2.3417   -0.3717    0.3920 N   0  0  0  0  0  0  0  0  0  0  0  0
    1.2901   -1.0201   -0.1265 C   0  0  0  0  0  0  0  0  0  0  0  0
    0.1387   -0.9803    0.6575 N   0  0  0  0  0  0  0  0  0  0  0  0
   -1.0997   -1.6278    0.5919 C   0  0  0  0  0  0  0  0  0  0  0  0
   -1.4349   -2.5778   -0.3802 C   0  0  0  0  0  0  0  0  0  0  0  0
   -2.7001   -3.1774   -0.4129 C   0  0  0  0  0  0  0  0  0  0  0  0
   -3.6708   -2.8123    0.5136 C   0  0  0  0  0  0  0  0  0  0  0  0
   -3.3715   -1.8288    1.4556 C   0  0  0  0  0  0  0  0  0  0  0  0
   -4.6016   -1.3418    2.6469 S   0  0  0  0  0  0  0  0  0  0  0  0
   -3.9010   -0.8104    3.7977 O   0  0  0  0  0  0  0  0  0  0  0  0
   -5.5335   -2.4415    2.7804 O   0  0  0  0  0  0  0  0  0  0  0  0
   -5.4011   -0.0608    1.8858 N   0  0  0  0  0  0  0  0  0  0  0  0
   -4.6830    1.2408    1.8052 C   0  0  0  0  0  0  0  0  0  0  0  0
   -5.4493    2.2438    0.9221 C   0  0  0  0  0  0  0  0  0  0  0  0
   -5.6762    1.7923   -0.4664 N   0  0  0  0  0  0  0  0  0  0  0  0
   -4.6827    2.3367   -1.3888 C   0  0  0  0  0  0  0  0  0  0  0  0
   -5.7243    0.3183   -0.5639 C   0  0  0  0  0  0  0  0  0  0  0  0
   -6.2623   -0.3634    0.7079 C   0  0  0  0  0  0  0  0  0  0  0  0
   -2.0934   -1.2579    1.5103 C   0  0  0  0  0  0  0  0  0  0  0  0
    1.3116   -1.6350   -1.3144 N   0  0  0  0  0  0  0  0  0  0  0  0
    2.4550   -1.6415   -2.0069 C   0  0  0  0  0  0  0  0  0  0  0  0
    2.4985   -2.3074   -3.2268 C   0  0  0  0  0  0  0  0  0  0  0  0
    3.6669   -2.3763   -3.9920 C   0  0  0  0  0  0  0  0  0  0  0  0
    4.8288   -1.7731   -3.5306 C   0  0  0  0  0  0  0  0  0  0  0  0
    4.8070   -1.0967   -2.3140 C   0  0  0  0  0  0  0  0  0  0  0  0
    3.6139   -1.0121   -1.5519 C   0  0  0  0  0  0  0  0  0  0  0  0
    7.2435    0.7475    0.5272 H   0  0  0  0  0  0  0  0  0  0  0  0
    7.3640    1.4851   -1.0808 H   0  0  0  0  0  0  0  0  0  0  0  0
    8.0660    2.3003    0.3232 H   0  0  0  0  0  0  0  0  0  0  0  0
    5.9705    3.4008   -0.3243 H   0  0  0  0  0  0  0  0  0  0  0  0
    5.7161    1.8639    2.3117 H   0  0  0  0  0  0  0  0  0  0  0  0
    4.7706    3.2959    1.8616 H   0  0  0  0  0  0  0  0  0  0  0  0
    6.5255    3.4130    2.0508 H   0  0  0  0  0  0  0  0  0  0  0  0
    4.8575    1.5787   -1.4600 H   0  0  0  0  0  0  0  0  0  0  0  0
    3.7911    2.2874   -0.2451 H   0  0  0  0  0  0  0  0  0  0  0  0
    4.1756    0.5416    1.2113 H   0  0  0  0  0  0  0  0  0  0  0  0
    0.3542   -0.4960    1.5176 H   0  0  0  0  0  0  0  0  0  0  0  0
   -0.7071   -2.8943   -1.1222 H   0  0  0  0  0  0  0  0  0  0  0  0
   -2.9169   -3.9350   -1.1623 H   0  0  0  0  0  0  0  0  0  0  0  0
   -4.6452   -3.2942    0.4950 H   0  0  0  0  0  0  0  0  0  0  0  0
   -4.5945    1.6560    2.8150 H   0  0  0  0  0  0  0  0  0  0  0  0
   -3.6770    1.1023    1.3982 H   0  0  0  0  0  0  0  0  0  0  0  0
   -4.9455    3.2180    0.9448 H   0  0  0  0  0  0  0  0  0  0  0  0
   -6.4367    2.4131    1.3715 H   0  0  0  0  0  0  0  0  0  0  0  0
   -3.6634    2.0316   -1.1262 H   0  0  0  0  0  0  0  0  0  0  0  0
   -4.8893    2.0094   -2.4139 H   0  0  0  0  0  0  0  0  0  0  0  0
   -4.7241    3.4315   -1.3950 H   0  0  0  0  0  0  0  0  0  0  0  0
   -4.7232   -0.0848   -0.7669 H   0  0  0  0  0  0  0  0  0  0  0  0
   -6.3596    0.0457   -1.4144 H   0  0  0  0  0  0  0  0  0  0  0  0
   -6.3405   -1.4406    0.5344 H   0  0  0  0  0  0  0  0  0  0  0  0
   -7.2772   -0.0118    0.9298 H   0  0  0  0  0  0  0  0  0  0  0  0
   -1.8725   -0.5152    2.2743 H   0  0  0  0  0  0  0  0  0  0  0  0
    1.5968   -2.7955   -3.5905 H   0  0  0  0  0  0  0  0  0  0  0  0
    3.6651   -2.9108   -4.9385 H   0  0  0  0  0  0  0  0  0  0  0  0
    5.7475   -1.8336   -4.1081 H   0  0  0  0  0  0  0  0  0  0  0  0
    5.7228   -0.6434   -1.9409 H   0  0  0  0  0  0  0  0  0  0  0  0
  1  2  1  0
  2  3  1  0
  2  4  1  0
  4  5  1  0
  5  6  1  0
  6  7  1  0
  7  8  2  0
  8  9  1  0
  9 10  1  0
 10 11  1  0
 11 12  2  0
 12 13  1  0
 13 14  2  0
 14 15  1  0
 15 16  2  0
 15 17  2  0
 15 18  1  0
 18 19  1  0
 19 20  1  0
 20 21  1  0
 21 22  1  0
 21 23  1  0
 23 24  1  0
 14 25  1  0
  8 26  1  0
 26 27  2  0
 27 28  1  0
 28 29  2  0
 29 30  1  0
 30 31  2  0
 31 32  1  0
 32  6  2  0
 25 10  2  0
 32 27  1  0
 24 18  1  0
  1 33  1  0
  1 34  1  0
  1 35  1  0
  2 36  1  0
  3 37  1  0
  3 38  1  0
  3 39  1  0
  4 40  1  0
  4 41  1  0
  5 42  1  0
  9 43  1  0
 11 44  1  0
 12 45  1  0
 13 46  1  0
 19 47  1  0
 19 48  1  0
 20 49  1  0
 20 50  1  0
 22 51  1  0
 22 52  1  0
 22 53  1  0
 23 54  1  0
 23 55  1  0
 24 56  1  0
 24 57  1  0
 25 58  1  0
 28 59  1  0
 29 60  1  0
 30 61  1  0
 31 62  1  0
M  END
$$$$
