


 35 37  0  0  0  0  0  0  0  0999 V2000
    1.7516   66.5793   83.4491 C   0  0  0  0  0  0  0  0  0  0  0  0
    2.0257   67.2229   82.2363 C   0  0  0  0  0  0  0  0  0  0  0  0
    1.5853   66.6752   81.0263 C   0  0  0  0  0  0  0  0  0  0  0  0
    0.8592   65.4829   81.0302 C   0  0  0  0  0  0  0  0  0  0  0  0
    0.5764   64.8215   82.2261 C   0  0  0  0  0  0  0  0  0  0  0  0
    1.0227   65.3765   83.4308 C   0  0  0  0  0  0  0  0  0  0  0  0
    0.7225   64.6568   84.6860 C   0  0  0  0  0  0  0  0  0  0  0  0
   -0.3700   63.9839   84.8332 N   0  0  0  0  0  0  0  0  0  0  0  0
   -0.5857   63.3212   86.0283 C   0  0  0  0  0  0  0  0  0  0  0  0
    0.2847   63.3452   87.0613 C   0  0  0  0  0  0  0  0  0  0  0  0
    0.0726   62.4827   88.7049 Br  0  0  0  0  0  0  0  0  0  0  0  0
    1.5375   64.1323   86.8715 C   0  0  0  0  0  0  0  0  0  0  0  0
    2.4210   64.2246   87.7192 O   0  0  0  0  0  0  0  0  0  0  0  0
    1.6654   64.7646   85.6701 N   0  0  0  0  0  0  0  0  0  0  0  0
    2.5270   65.2704   85.5295 H   0  0  0  0  0  0  0  0  0  0  0  0
   -1.9082   62.5508   86.0566 C   0  0  0  0  0  0  0  0  0  0  0  0
   -2.9320   63.2492   86.9571 C   0  0  0  0  0  0  0  0  0  0  0  0
   -2.4718   62.3651   84.6434 C   0  0  0  0  0  0  0  0  0  0  0  0
    0.2888   64.7728   79.5066 S   0  0  0  0  0  0  0  0  0  0  0  0
    1.4399   64.6560   78.6390 O   0  0  0  0  0  0  0  0  0  0  0  0
   -0.9089   65.4710   79.0908 O   0  0  0  0  0  0  0  0  0  0  0  0
   -0.1759   63.2073   79.9934 N   0  0  0  0  0  0  0  0  0  0  0  0
   -1.6237   63.0374   80.3529 C   0  0  0  0  0  0  0  0  0  0  0  0
   -2.3964   62.2874   79.2540 C   0  0  0  0  0  0  0  0  0  0  0  0
   -1.9025   60.9102   79.0479 N   0  0  0  0  0  0  0  0  0  0  0  0
   -2.2923   60.4193   77.7278 C   0  0  0  0  0  0  0  0  0  0  0  0
   -0.4439   60.8166   79.2628 C   0  0  0  0  0  0  0  0  0  0  0  0
    0.3196   62.1383   79.0624 C   0  0  0  0  0  0  0  0  0  0  0  0
    2.1001   67.0696   84.6768 O   0  0  0  0  0  0  0  0  0  0  0  0
    3.0135   68.1624   84.7271 C   0  0  0  0  0  0  0  0  0  0  0  0
    4.3486   67.6655   85.2826 C   0  0  0  0  0  0  0  0  0  0  0  0
    4.8806   66.3864   84.6255 C   0  0  0  0  0  0  0  0  0  0  0  0
    5.2972   65.2713   85.5886 C   0  0  0  0  0  0  0  0  0  0  0  0
    5.6326   65.4938   88.0752 C   0  0  0  0  0  0  0  0  0  0  0  0
    6.2319   65.7480   86.7004 C   0  0  0  0  0  0  0  0  0  0  0  0
 34 35  1  0  0  0
 35 33  1  0  0  0
 33 32  1  0  0  0
 32 31  1  0  0  0
 31 30  1  0  0  0
 30 29  1  0  0  0
 29  1  1  0  0  0
  1  2  1  0  0  0
  2  3  2  0  0  0
  3  4  1  0  0  0
  4 19  1  0  0  0
 19 20  2  0  0  0
 19 21  2  0  0  0
 19 22  1  0  0  0
 22 23  1  0  0  0
 23 24  1  0  0  0
 24 25  1  0  0  0
 25 26  1  0  0  0
 25 27  1  0  0  0
 27 28  1  0  0  0
  4  5  2  0  0  0
  5  6  1  0  0  0
  6  7  1  0  0  0
  7  8  2  0  0  0
  8  9  1  0  0  0
  9 16  1  0  0  0
 16 17  1  0  0  0
 16 18  1  0  0  0
  9 10  2  0  0  0
 10 11  1  0  0  0
 10 12  1  0  0  0
 12 13  2  0  0  0
 12 14  1  0  0  0
  6  1  2  0  0  0
 14  7  1  0  0  0
 28 22  1  0  0  0
 14 15  1  0  0  0
M  END
> <minimizedAffinity>
-9.57800

$$$$



 35 37  0  0  0  0  0  0  0  0999 V2000
    3.0518   66.3617   84.4582 C   0  0  0  0  0  0  0  0  0  0  0  0
    3.7600   67.3699   83.7933 C   0  0  0  0  0  0  0  0  0  0  0  0
    3.1575   68.0996   82.7626 C   0  0  0  0  0  0  0  0  0  0  0  0
    1.8371   67.8258   82.4015 C   0  0  0  0  0  0  0  0  0  0  0  0
    1.1120   66.8236   83.0475 C   0  0  0  0  0  0  0  0  0  0  0  0
    1.7240   66.0984   84.0760 C   0  0  0  0  0  0  0  0  0  0  0  0
    0.9440   65.0343   84.7416 C   0  0  0  0  0  0  0  0  0  0  0  0
    0.3777   64.0902   84.0663 N   0  0  0  0  0  0  0  0  0  0  0  0
   -0.3277   63.1160   84.7502 C   0  0  0  0  0  0  0  0  0  0  0  0
   -0.4656   63.1010   86.0940 C   0  0  0  0  0  0  0  0  0  0  0  0
   -1.3982   61.8285   87.0946 Br  0  0  0  0  0  0  0  0  0  0  0  0
    0.1925   64.2033   86.8535 C   0  0  0  0  0  0  0  0  0  0  0  0
    0.1630   64.3019   88.0771 O   0  0  0  0  0  0  0  0  0  0  0  0
    0.8560   65.1283   86.1027 N   0  0  0  0  0  0  0  0  0  0  0  0
    1.3281   65.8558   86.6182 H   0  0  0  0  0  0  0  0  0  0  0  0
   -0.9285   62.0521   83.8280 C   0  0  0  0  0  0  0  0  0  0  0  0
   -2.2923   62.4972   83.2907 C   0  0  0  0  0  0  0  0  0  0  0  0
    0.0226   61.7184   82.6733 C   0  0  0  0  0  0  0  0  0  0  0  0
    1.0531   68.7417   81.0986 S   0  0  0  0  0  0  0  0  0  0  0  0
   -0.1040   67.9794   80.6846 O   0  0  0  0  0  0  0  0  0  0  0  0
    2.0660   69.1601   80.1531 O   0  0  0  0  0  0  0  0  0  0  0  0
    0.5117   70.1352   81.9165 N   0  0  0  0  0  0  0  0  0  0  0  0
    1.5856   71.0319   82.4613 C   0  0  0  0  0  0  0  0  0  0  0  0
    1.7432   72.3068   81.6144 C   0  0  0  0  0  0  0  0  0  0  0  0
    0.5266   73.1451   81.6135 N   0  0  0  0  0  0  0  0  0  0  0  0
    0.5242   74.0419   80.4597 C   0  0  0  0  0  0  0  0  0  0  0  0
   -0.7005   72.3248   81.6773 C   0  0  0  0  0  0  0  0  0  0  0  0
   -0.5383   70.8873   81.1506 C   0  0  0  0  0  0  0  0  0  0  0  0
    3.5461   65.6368   85.5067 O   0  0  0  0  0  0  0  0  0  0  0  0
    4.9283   65.2902   85.4890 C   0  0  0  0  0  0  0  0  0  0  0  0
    5.6414   66.0442   86.6118 C   0  0  0  0  0  0  0  0  0  0  0  0
    6.3339   67.3407   86.1750 C   0  0  0  0  0  0  0  0  0  0  0  0
    7.0838   67.2739   84.8417 C   0  0  0  0  0  0  0  0  0  0  0  0
    8.3108   65.1552   84.2492 C   0  0  0  0  0  0  0  0  0  0  0  0
    8.4071   66.5132   84.9277 C   0  0  0  0  0  0  0  0  0  0  0  0
 34 35  1  0  0  0
 35 33  1  0  0  0
 33 32  1  0  0  0
 32 31  1  0  0  0
 31 30  1  0  0  0
 30 29  1  0  0  0
 29  1  1  0  0  0
  1  2  1  0  0  0
  2  3  2  0  0  0
  3  4  1  0  0  0
  4 19  1  0  0  0
 19 20  2  0  0  0
 19 21  2  0  0  0
 19 22  1  0  0  0
 22 23  1  0  0  0
 23 24  1  0  0  0
 24 25  1  0  0  0
 25 26  1  0  0  0
 25 27  1  0  0  0
 27 28  1  0  0  0
  4  5  2  0  0  0
  5  6  1  0  0  0
  6  7  1  0  0  0
  7  8  2  0  0  0
  8  9  1  0  0  0
  9 16  1  0  0  0
 16 17  1  0  0  0
 16 18  1  0  0  0
  9 10  2  0  0  0
 10 11  1  0  0  0
 10 12  1  0  0  0
 12 13  2  0  0  0
 12 14  1  0  0  0
  6  1  2  0  0  0
 14  7  1  0  0  0
 28 22  1  0  0  0
 14 15  1  0  0  0
M  END
> <minimizedAffinity>
-9.54418

$$$$



 35 37  0  0  0  0  0  0  0  0999 V2000
   -0.0501   64.1728   83.8859 C   0  0  0  0  0  0  0  0  0  0  0  0
    0.4149   64.7096   85.0924 C   0  0  0  0  0  0  0  0  0  0  0  0
    1.3241   65.7732   85.0929 C   0  0  0  0  0  0  0  0  0  0  0  0
    1.7632   66.3084   83.8807 C   0  0  0  0  0  0  0  0  0  0  0  0
    1.3164   65.7881   82.6653 C   0  0  0  0  0  0  0  0  0  0  0  0
    0.4084   64.7233   82.6755 C   0  0  0  0  0  0  0  0  0  0  0  0
   -0.0458   64.1789   81.3790 C   0  0  0  0  0  0  0  0  0  0  0  0
   -0.8230   63.1494   81.3145 N   0  0  0  0  0  0  0  0  0  0  0  0
   -1.2233   62.6966   80.0700 C   0  0  0  0  0  0  0  0  0  0  0  0
   -0.8375   63.2698   78.9091 C   0  0  0  0  0  0  0  0  0  0  0  0
   -1.3284   62.7242   77.1910 Br  0  0  0  0  0  0  0  0  0  0  0  0
    0.0638   64.4544   79.0066 C   0  0  0  0  0  0  0  0  0  0  0  0
    0.4754   65.0811   78.0344 O   0  0  0  0  0  0  0  0  0  0  0  0
    0.4204   64.8269   80.2690 N   0  0  0  0  0  0  0  0  0  0  0  0
    1.0037   65.6473   80.3366 H   0  0  0  0  0  0  0  0  0  0  0  0
   -2.1553   61.4845   80.1442 C   0  0  0  0  0  0  0  0  0  0  0  0
   -1.8997   60.6718   81.4173 C   0  0  0  0  0  0  0  0  0  0  0  0
   -3.6255   61.9100   80.0629 C   0  0  0  0  0  0  0  0  0  0  0  0
    2.9142   67.6596   83.8590 S   0  0  0  0  0  0  0  0  0  0  0  0
    2.5688   68.5254   84.9648 O   0  0  0  0  0  0  0  0  0  0  0  0
    3.0148   68.1598   82.5045 O   0  0  0  0  0  0  0  0  0  0  0  0
    4.3854   66.8824   84.2268 N   0  0  0  0  0  0  0  0  0  0  0  0
    5.4418   67.7457   84.8537 C   0  0  0  0  0  0  0  0  0  0  0  0
    5.5916   67.4563   86.3573 C   0  0  0  0  0  0  0  0  0  0  0  0
    6.0339   66.0734   86.6308 N   0  0  0  0  0  0  0  0  0  0  0  0
    5.6980   65.6903   88.0004 C   0  0  0  0  0  0  0  0  0  0  0  0
    5.4881   65.1211   85.6419 C   0  0  0  0  0  0  0  0  0  0  0  0
    4.1903   65.5839   84.9552 C   0  0  0  0  0  0  0  0  0  0  0  0
   -0.9745   63.1696   83.7951 O   0  0  0  0  0  0  0  0  0  0  0  0
   -1.1131   62.2840   84.9030 C   0  0  0  0  0  0  0  0  0  0  0  0
   -2.5369   62.3946   85.4493 C   0  0  0  0  0  0  0  0  0  0  0  0
   -2.6394   62.3880   86.9792 C   0  0  0  0  0  0  0  0  0  0  0  0
   -1.8405   63.4768   87.7009 C   0  0  0  0  0  0  0  0  0  0  0  0
    0.5406   63.1634   88.4606 C   0  0  0  0  0  0  0  0  0  0  0  0
   -0.9247   62.9314   88.7967 C   0  0  0  0  0  0  0  0  0  0  0  0
 34 35  1  0  0  0
 35 33  1  0  0  0
 33 32  1  0  0  0
 32 31  1  0  0  0
 31 30  1  0  0  0
 30 29  1  0  0  0
 29  1  1  0  0  0
  1  2  1  0  0  0
  2  3  2  0  0  0
  3  4  1  0  0  0
  4 19  1  0  0  0
 19 20  2  0  0  0
 19 21  2  0  0  0
 19 22  1  0  0  0
 22 23  1  0  0  0
 23 24  1  0  0  0
 24 25  1  0  0  0
 25 26  1  0  0  0
 25 27  1  0  0  0
 27 28  1  0  0  0
  4  5  2  0  0  0
  5  6  1  0  0  0
  6  7  1  0  0  0
  7  8  2  0  0  0
  8  9  1  0  0  0
  9 16  1  0  0  0
 16 17  1  0  0  0
 16 18  1  0  0  0
  9 10  2  0  0  0
 10 11  1  0  0  0
 10 12  1  0  0  0
 12 13  2  0  0  0
 12 14  1  0  0  0
  6  1  2  0  0  0
 14  7  1  0  0  0
 28 22  1  0  0  0
 14 15  1  0  0  0
M  END
> <minimizedAffinity>
-9.40525

$$$$



 35 37  0  0  0  0  0  0  0  0999 V2000
    0.0126   63.9980   84.1389 C   0  0  0  0  0  0  0  0  0  0  0  0
    0.4044   64.6537   85.3122 C   0  0  0  0  0  0  0  0  0  0  0  0
    1.2820   65.7422   85.2583 C   0  0  0  0  0  0  0  0  0  0  0  0
    1.7626   66.1828   84.0239 C   0  0  0  0  0  0  0  0  0  0  0  0
    1.3887   65.5435   82.8411 C   0  0  0  0  0  0  0  0  0  0  0  0
    0.5119   64.4547   82.9058 C   0  0  0  0  0  0  0  0  0  0  0  0
    0.1353   63.7840   81.6441 C   0  0  0  0  0  0  0  0  0  0  0  0
    0.4016   64.3099   80.4949 N   0  0  0  0  0  0  0  0  0  0  0  0
    0.0342   63.6252   79.3502 C   0  0  0  0  0  0  0  0  0  0  0  0
   -0.5996   62.4322   79.3667 C   0  0  0  0  0  0  0  0  0  0  0  0
   -1.1309   61.4428   77.8737 Br  0  0  0  0  0  0  0  0  0  0  0  0
   -0.9015   61.8455   80.7045 C   0  0  0  0  0  0  0  0  0  0  0  0
   -1.4559   60.7618   80.8655 O   0  0  0  0  0  0  0  0  0  0  0  0
   -0.5175   62.5905   81.7801 N   0  0  0  0  0  0  0  0  0  0  0  0
   -0.6926   62.1790   82.6845 H   0  0  0  0  0  0  0  0  0  0  0  0
    0.4276   64.3544   78.0631 C   0  0  0  0  0  0  0  0  0  0  0  0
   -0.8071   64.9119   77.3479 C   0  0  0  0  0  0  0  0  0  0  0  0
    1.4371   65.4725   78.3458 C   0  0  0  0  0  0  0  0  0  0  0  0
    2.8744   67.5636   83.9330 S   0  0  0  0  0  0  0  0  0  0  0  0
    2.5175   68.4636   85.0074 O   0  0  0  0  0  0  0  0  0  0  0  0
    2.9449   68.0110   82.5583 O   0  0  0  0  0  0  0  0  0  0  0  0
    4.3713   66.8433   84.3129 N   0  0  0  0  0  0  0  0  0  0  0  0
    5.3800   67.7402   84.9703 C   0  0  0  0  0  0  0  0  0  0  0  0
    5.5183   67.4331   86.4716 C   0  0  0  0  0  0  0  0  0  0  0  0
    6.0145   66.0659   86.7309 N   0  0  0  0  0  0  0  0  0  0  0  0
    5.6736   65.6469   88.0887 C   0  0  0  0  0  0  0  0  0  0  0  0
    5.5253   65.1075   85.7186 C   0  0  0  0  0  0  0  0  0  0  0  0
    4.2200   65.5262   85.0179 C   0  0  0  0  0  0  0  0  0  0  0  0
   -0.8777   62.9613   84.0968 O   0  0  0  0  0  0  0  0  0  0  0  0
   -1.0850   62.2076   85.2885 C   0  0  0  0  0  0  0  0  0  0  0  0
   -2.5379   62.3766   85.7339 C   0  0  0  0  0  0  0  0  0  0  0  0
   -2.7218   62.6554   87.2304 C   0  0  0  0  0  0  0  0  0  0  0  0
   -1.6598   63.5526   87.8720 C   0  0  0  0  0  0  0  0  0  0  0  0
    0.6541   63.0583   88.7360 C   0  0  0  0  0  0  0  0  0  0  0  0
   -0.8369   62.8440   88.9480 C   0  0  0  0  0  0  0  0  0  0  0  0
 34 35  1  0  0  0
 35 33  1  0  0  0
 33 32  1  0  0  0
 32 31  1  0  0  0
 31 30  1  0  0  0
 30 29  1  0  0  0
 29  1  1  0  0  0
  1  2  1  0  0  0
  2  3  2  0  0  0
  3  4  1  0  0  0
  4 19  1  0  0  0
 19 20  2  0  0  0
 19 21  2  0  0  0
 19 22  1  0  0  0
 22 23  1  0  0  0
 23 24  1  0  0  0
 24 25  1  0  0  0
 25 26  1  0  0  0
 25 27  1  0  0  0
 27 28  1  0  0  0
  4  5  2  0  0  0
  5  6  1  0  0  0
  6  7  1  0  0  0
  7  8  2  0  0  0
  8  9  1  0  0  0
  9 16  1  0  0  0
 16 17  1  0  0  0
 16 18  1  0  0  0
  9 10  2  0  0  0
 10 11  1  0  0  0
 10 12  1  0  0  0
 12 13  2  0  0  0
 12 14  1  0  0  0
  6  1  2  0  0  0
 14  7  1  0  0  0
 28 22  1  0  0  0
 14 15  1  0  0  0
M  END
> <minimizedAffinity>
-9.37220

$$$$



 35 37  0  0  0  0  0  0  0  0999 V2000
    0.4842   64.9400   82.0237 C   0  0  0  0  0  0  0  0  0  0  0  0
    1.2016   65.8151   81.1994 C   0  0  0  0  0  0  0  0  0  0  0  0
    2.0647   66.7665   81.7542 C   0  0  0  0  0  0  0  0  0  0  0  0
    2.2178   66.8368   83.1400 C   0  0  0  0  0  0  0  0  0  0  0  0
    1.5110   65.9774   83.9823 C   0  0  0  0  0  0  0  0  0  0  0  0
    0.6491   65.0304   83.4176 C   0  0  0  0  0  0  0  0  0  0  0  0
   -0.0985   64.1358   84.3256 C   0  0  0  0  0  0  0  0  0  0  0  0
    0.2607   63.9690   85.5550 N   0  0  0  0  0  0  0  0  0  0  0  0
   -0.4893   63.1278   86.3574 C   0  0  0  0  0  0  0  0  0  0  0  0
   -1.5798   62.4595   85.9223 C   0  0  0  0  0  0  0  0  0  0  0  0
   -2.6461   61.3070   86.9348 Br  0  0  0  0  0  0  0  0  0  0  0  0
   -1.9739   62.6630   84.4981 C   0  0  0  0  0  0  0  0  0  0  0  0
   -2.9515   62.1330   83.9776 O   0  0  0  0  0  0  0  0  0  0  0  0
   -1.1741   63.4971   83.7740 N   0  0  0  0  0  0  0  0  0  0  0  0
   -1.4589   63.6601   82.8200 H   0  0  0  0  0  0  0  0  0  0  0  0
    0.0385   63.0392   87.7916 C   0  0  0  0  0  0  0  0  0  0  0  0
    1.4224   63.6856   87.9089 C   0  0  0  0  0  0  0  0  0  0  0  0
   -0.9403   63.6783   88.7830 C   0  0  0  0  0  0  0  0  0  0  0  0
    3.3097   68.0344   83.8642 S   0  0  0  0  0  0  0  0  0  0  0  0
    2.6938   68.4760   85.0959 O   0  0  0  0  0  0  0  0  0  0  0  0
    3.7144   68.9714   82.8379 O   0  0  0  0  0  0  0  0  0  0  0  0
    4.6708   67.0870   84.2558 N   0  0  0  0  0  0  0  0  0  0  0  0
    5.7747   67.7983   84.9837 C   0  0  0  0  0  0  0  0  0  0  0  0
    5.8118   67.4134   86.4729 C   0  0  0  0  0  0  0  0  0  0  0  0
    6.0939   65.9786   86.6845 N   0  0  0  0  0  0  0  0  0  0  0  0
    5.6462   65.5595   88.0109 C   0  0  0  0  0  0  0  0  0  0  0  0
    5.5076   65.1446   85.6152 C   0  0  0  0  0  0  0  0  0  0  0  0
    4.3037   65.7788   84.8952 C   0  0  0  0  0  0  0  0  0  0  0  0
   -0.3396   63.9505   81.5640 O   0  0  0  0  0  0  0  0  0  0  0  0
   -0.1647   63.5027   80.2224 C   0  0  0  0  0  0  0  0  0  0  0  0
    0.4191   62.0898   80.2449 C   0  0  0  0  0  0  0  0  0  0  0  0
    0.2137   61.3316   81.5617 C   0  0  0  0  0  0  0  0  0  0  0  0
    1.4838   61.0527   82.3701 C   0  0  0  0  0  0  0  0  0  0  0  0
    3.6151   59.7100   82.3667 C   0  0  0  0  0  0  0  0  0  0  0  0
    2.6353   60.5111   81.5229 C   0  0  0  0  0  0  0  0  0  0  0  0
 34 35  1  0  0  0
 35 33  1  0  0  0
 33 32  1  0  0  0
 32 31  1  0  0  0
 31 30  1  0  0  0
 30 29  1  0  0  0
 29  1  1  0  0  0
  1  2  1  0  0  0
  2  3  2  0  0  0
  3  4  1  0  0  0
  4 19  1  0  0  0
 19 20  2  0  0  0
 19 21  2  0  0  0
 19 22  1  0  0  0
 22 23  1  0  0  0
 23 24  1  0  0  0
 24 25  1  0  0  0
 25 26  1  0  0  0
 25 27  1  0  0  0
 27 28  1  0  0  0
  4  5  2  0  0  0
  5  6  1  0  0  0
  6  7  1  0  0  0
  7  8  2  0  0  0
  8  9  1  0  0  0
  9 16  1  0  0  0
 16 17  1  0  0  0
 16 18  1  0  0  0
  9 10  2  0  0  0
 10 11  1  0  0  0
 10 12  1  0  0  0
 12 13  2  0  0  0
 12 14  1  0  0  0
  6  1  2  0  0  0
 14  7  1  0  0  0
 28 22  1  0  0  0
 14 15  1  0  0  0
M  END
> <minimizedAffinity>
-9.34462

$$$$



 35 37  0  0  0  0  0  0  0  0999 V2000
    0.5654   65.1453   82.4943 C   0  0  0  0  0  0  0  0  0  0  0  0
    0.8602   65.9600   81.3946 C   0  0  0  0  0  0  0  0  0  0  0  0
    1.5685   67.1546   81.5654 C   0  0  0  0  0  0  0  0  0  0  0  0
    1.9920   67.5314   82.8411 C   0  0  0  0  0  0  0  0  0  0  0  0
    1.7073   66.7374   83.9529 C   0  0  0  0  0  0  0  0  0  0  0  0
    0.9969   65.5454   83.7718 C   0  0  0  0  0  0  0  0  0  0  0  0
    0.6960   64.7228   84.9619 C   0  0  0  0  0  0  0  0  0  0  0  0
   -0.3889   64.0270   85.0444 N   0  0  0  0  0  0  0  0  0  0  0  0
   -0.6057   63.2671   86.1800 C   0  0  0  0  0  0  0  0  0  0  0  0
    0.2562   63.2178   87.2192 C   0  0  0  0  0  0  0  0  0  0  0  0
    0.0422   62.2224   88.7857 Br  0  0  0  0  0  0  0  0  0  0  0  0
    1.5004   64.0327   87.1050 C   0  0  0  0  0  0  0  0  0  0  0  0
    2.3759   64.0666   87.9652 O   0  0  0  0  0  0  0  0  0  0  0  0
    1.6297   64.7618   85.9599 N   0  0  0  0  0  0  0  0  0  0  0  0
    2.4858   65.2877   85.8683 H   0  0  0  0  0  0  0  0  0  0  0  0
   -1.9184   62.4811   86.1341 C   0  0  0  0  0  0  0  0  0  0  0  0
   -2.9920   63.1534   86.9955 C   0  0  0  0  0  0  0  0  0  0  0  0
   -2.4125   62.3110   84.6932 C   0  0  0  0  0  0  0  0  0  0  0  0
    2.8942   69.0415   83.0793 S   0  0  0  0  0  0  0  0  0  0  0  0
    4.2232   68.6741   83.5155 O   0  0  0  0  0  0  0  0  0  0  0  0
    2.0706   69.9574   83.8394 O   0  0  0  0  0  0  0  0  0  0  0  0
    3.0009   69.6489   81.4908 N   0  0  0  0  0  0  0  0  0  0  0  0
    1.9538   70.6528   81.1033 C   0  0  0  0  0  0  0  0  0  0  0  0
    2.5261   72.0803   81.0591 C   0  0  0  0  0  0  0  0  0  0  0  0
    3.5852   72.2392   80.0413 N   0  0  0  0  0  0  0  0  0  0  0  0
    4.4191   73.3994   80.3476 C   0  0  0  0  0  0  0  0  0  0  0  0
    4.3871   71.0073   79.8926 C   0  0  0  0  0  0  0  0  0  0  0  0
    4.3898   70.0911   81.1298 C   0  0  0  0  0  0  0  0  0  0  0  0
   -0.0763   63.9410   82.4102 O   0  0  0  0  0  0  0  0  0  0  0  0
   -0.3939   63.4402   81.1143 C   0  0  0  0  0  0  0  0  0  0  0  0
   -0.7499   61.9578   81.2308 C   0  0  0  0  0  0  0  0  0  0  0  0
    0.2338   61.1252   82.0616 C   0  0  0  0  0  0  0  0  0  0  0  0
    1.6683   61.0694   81.5292 C   0  0  0  0  0  0  0  0  0  0  0  0
    3.9300   59.9841   81.7571 C   0  0  0  0  0  0  0  0  0  0  0  0
    2.6364   60.3502   82.4687 C   0  0  0  0  0  0  0  0  0  0  0  0
 34 35  1  0  0  0
 35 33  1  0  0  0
 33 32  1  0  0  0
 32 31  1  0  0  0
 31 30  1  0  0  0
 30 29  1  0  0  0
 29  1  1  0  0  0
  1  2  1  0  0  0
  2  3  2  0  0  0
  3  4  1  0  0  0
  4 19  1  0  0  0
 19 20  2  0  0  0
 19 21  2  0  0  0
 19 22  1  0  0  0
 22 23  1  0  0  0
 23 24  1  0  0  0
 24 25  1  0  0  0
 25 26  1  0  0  0
 25 27  1  0  0  0
 27 28  1  0  0  0
  4  5  2  0  0  0
  5  6  1  0  0  0
  6  7  1  0  0  0
  7  8  2  0  0  0
  8  9  1  0  0  0
  9 16  1  0  0  0
 16 17  1  0  0  0
 16 18  1  0  0  0
  9 10  2  0  0  0
 10 11  1  0  0  0
 10 12  1  0  0  0
 12 13  2  0  0  0
 12 14  1  0  0  0
  6  1  2  0  0  0
 14  7  1  0  0  0
 28 22  1  0  0  0
 14 15  1  0  0  0
M  END
> <minimizedAffinity>
-9.23681

$$$$



 35 37  0  0  0  0  0  0  0  0999 V2000
    0.8533   64.9692   83.2297 C   0  0  0  0  0  0  0  0  0  0  0  0
    1.6549   65.9028   83.8973 C   0  0  0  0  0  0  0  0  0  0  0  0
    1.9906   67.1163   83.2867 C   0  0  0  0  0  0  0  0  0  0  0  0
    1.5144   67.4010   82.0057 C   0  0  0  0  0  0  0  0  0  0  0  0
    0.7165   66.4848   81.3191 C   0  0  0  0  0  0  0  0  0  0  0  0
    0.3878   65.2734   81.9377 C   0  0  0  0  0  0  0  0  0  0  0  0
   -0.4496   64.3115   81.1913 C   0  0  0  0  0  0  0  0  0  0  0  0
   -0.3151   64.1464   79.9174 N   0  0  0  0  0  0  0  0  0  0  0  0
   -1.1209   63.2205   79.2792 C   0  0  0  0  0  0  0  0  0  0  0  0
   -2.0534   62.4793   79.9166 C   0  0  0  0  0  0  0  0  0  0  0  0
   -3.1809   61.2115   79.1345 Br  0  0  0  0  0  0  0  0  0  0  0  0
   -2.1951   62.6895   81.3866 C   0  0  0  0  0  0  0  0  0  0  0  0
   -2.9885   62.0719   82.0914 O   0  0  0  0  0  0  0  0  0  0  0  0
   -1.3722   63.6289   81.9343 N   0  0  0  0  0  0  0  0  0  0  0  0
   -1.4454   63.7481   82.9335 H   0  0  0  0  0  0  0  0  0  0  0  0
   -0.8410   63.1159   77.7779 C   0  0  0  0  0  0  0  0  0  0  0  0
   -0.4193   64.4712   77.2017 C   0  0  0  0  0  0  0  0  0  0  0  0
    0.2224   62.0516   77.4851 C   0  0  0  0  0  0  0  0  0  0  0  0
    1.9261   68.9357   81.2143 S   0  0  0  0  0  0  0  0  0  0  0  0
    1.4846   68.8335   79.8409 O   0  0  0  0  0  0  0  0  0  0  0  0
    3.2918   69.2777   81.5504 O   0  0  0  0  0  0  0  0  0  0  0  0
    0.9098   70.0391   82.0226 N   0  0  0  0  0  0  0  0  0  0  0  0
    1.5991   71.1920   82.6934 C   0  0  0  0  0  0  0  0  0  0  0  0
    1.4112   72.5005   81.9061 C   0  0  0  0  0  0  0  0  0  0  0  0
   -0.0040   72.9158   81.8192 N   0  0  0  0  0  0  0  0  0  0  0  0
   -0.1997   73.8342   80.6996 C   0  0  0  0  0  0  0  0  0  0  0  0
   -0.9098   71.7512   81.7422 C   0  0  0  0  0  0  0  0  0  0  0  0
   -0.2610   70.4702   81.1870 C   0  0  0  0  0  0  0  0  0  0  0  0
    0.4376   63.7845   83.7709 O   0  0  0  0  0  0  0  0  0  0  0  0
    0.0381   63.7766   85.1389 C   0  0  0  0  0  0  0  0  0  0  0  0
   -1.0302   62.7006   85.3357 C   0  0  0  0  0  0  0  0  0  0  0  0
   -1.1363   62.1558   86.7650 C   0  0  0  0  0  0  0  0  0  0  0  0
   -1.6773   63.1367   87.8089 C   0  0  0  0  0  0  0  0  0  0  0  0
    0.2689   62.2155   89.1161 C   0  0  0  0  0  0  0  0  0  0  0  0
   -0.7234   63.3606   88.9824 C   0  0  0  0  0  0  0  0  0  0  0  0
 34 35  1  0  0  0
 35 33  1  0  0  0
 33 32  1  0  0  0
 32 31  1  0  0  0
 31 30  1  0  0  0
 30 29  1  0  0  0
 29  1  1  0  0  0
  1  2  1  0  0  0
  2  3  2  0  0  0
  3  4  1  0  0  0
  4 19  1  0  0  0
 19 20  2  0  0  0
 19 21  2  0  0  0
 19 22  1  0  0  0
 22 23  1  0  0  0
 23 24  1  0  0  0
 24 25  1  0  0  0
 25 26  1  0  0  0
 25 27  1  0  0  0
 27 28  1  0  0  0
  4  5  2  0  0  0
  5  6  1  0  0  0
  6  7  1  0  0  0
  7  8  2  0  0  0
  8  9  1  0  0  0
  9 16  1  0  0  0
 16 17  1  0  0  0
 16 18  1  0  0  0
  9 10  2  0  0  0
 10 11  1  0  0  0
 10 12  1  0  0  0
 12 13  2  0  0  0
 12 14  1  0  0  0
  6  1  2  0  0  0
 14  7  1  0  0  0
 28 22  1  0  0  0
 14 15  1  0  0  0
M  END
> <minimizedAffinity>
-9.12810

$$$$



 35 37  0  0  0  0  0  0  0  0999 V2000
    0.2008   64.8853   82.2225 C   0  0  0  0  0  0  0  0  0  0  0  0
    0.4000   65.5923   81.0306 C   0  0  0  0  0  0  0  0  0  0  0  0
    1.1454   66.7764   81.0233 C   0  0  0  0  0  0  0  0  0  0  0  0
    1.7021   67.2507   82.2124 C   0  0  0  0  0  0  0  0  0  0  0  0
    1.5147   66.5651   83.4134 C   0  0  0  0  0  0  0  0  0  0  0  0
    0.7662   65.3827   83.4105 C   0  0  0  0  0  0  0  0  0  0  0  0
    0.5699   64.6759   84.6933 C   0  0  0  0  0  0  0  0  0  0  0  0
   -0.4931   63.9796   84.9242 N   0  0  0  0  0  0  0  0  0  0  0  0
   -0.6106   63.3310   86.1406 C   0  0  0  0  0  0  0  0  0  0  0  0
    0.3272   63.3918   87.1111 C   0  0  0  0  0  0  0  0  0  0  0  0
    0.2487   62.5505   88.7774 Br  0  0  0  0  0  0  0  0  0  0  0  0
    1.5444   64.2053   86.8251 C   0  0  0  0  0  0  0  0  0  0  0  0
    2.4809   64.3318   87.6091 O   0  0  0  0  0  0  0  0  0  0  0  0
    1.5746   64.8215   85.6090 N   0  0  0  0  0  0  0  0  0  0  0  0
    2.4119   65.3453   85.4027 H   0  0  0  0  0  0  0  0  0  0  0  0
   -1.9086   62.5300   86.2700 C   0  0  0  0  0  0  0  0  0  0  0  0
   -2.9331   63.2786   87.1283 C   0  0  0  0  0  0  0  0  0  0  0  0
   -2.4968   62.2013   84.8933 C   0  0  0  0  0  0  0  0  0  0  0  0
    2.6535   68.7493   82.2246 S   0  0  0  0  0  0  0  0  0  0  0  0
    3.0621   69.0003   80.8602 O   0  0  0  0  0  0  0  0  0  0  0  0
    3.6140   68.6785   83.3051 O   0  0  0  0  0  0  0  0  0  0  0  0
    1.4846   69.9117   82.6560 N   0  0  0  0  0  0  0  0  0  0  0  0
    2.0185   71.2014   83.2090 C   0  0  0  0  0  0  0  0  0  0  0  0
    1.9201   72.3426   82.1817 C   0  0  0  0  0  0  0  0  0  0  0  0
    0.5256   72.6514   81.8040 N   0  0  0  0  0  0  0  0  0  0  0  0
    0.4860   73.3517   80.5220 C   0  0  0  0  0  0  0  0  0  0  0  0
   -0.3183   71.4388   81.7965 C   0  0  0  0  0  0  0  0  0  0  0  0
    0.4526   70.1229   81.5858 C   0  0  0  0  0  0  0  0  0  0  0  0
   -0.4698   63.6971   82.3100 O   0  0  0  0  0  0  0  0  0  0  0  0
   -1.3994   63.3750   81.2790 C   0  0  0  0  0  0  0  0  0  0  0  0
   -1.1221   61.9531   80.7898 C   0  0  0  0  0  0  0  0  0  0  0  0
   -0.1801   61.1391   81.6849 C   0  0  0  0  0  0  0  0  0  0  0  0
    1.2856   61.1029   81.2435 C   0  0  0  0  0  0  0  0  0  0  0  0
    3.4463   59.9475   81.8282 C   0  0  0  0  0  0  0  0  0  0  0  0
    2.2476   60.7141   82.3662 C   0  0  0  0  0  0  0  0  0  0  0  0
 34 35  1  0  0  0
 35 33  1  0  0  0
 33 32  1  0  0  0
 32 31  1  0  0  0
 31 30  1  0  0  0
 30 29  1  0  0  0
 29  1  1  0  0  0
  1  2  1  0  0  0
  2  3  2  0  0  0
  3  4  1  0  0  0
  4 19  1  0  0  0
 19 20  2  0  0  0
 19 21  2  0  0  0
 19 22  1  0  0  0
 22 23  1  0  0  0
 23 24  1  0  0  0
 24 25  1  0  0  0
 25 26  1  0  0  0
 25 27  1  0  0  0
 27 28  1  0  0  0
  4  5  2  0  0  0
  5  6  1  0  0  0
  6  7  1  0  0  0
  7  8  2  0  0  0
  8  9  1  0  0  0
  9 16  1  0  0  0
 16 17  1  0  0  0
 16 18  1  0  0  0
  9 10  2  0  0  0
 10 11  1  0  0  0
 10 12  1  0  0  0
 12 13  2  0  0  0
 12 14  1  0  0  0
  6  1  2  0  0  0
 14  7  1  0  0  0
 28 22  1  0  0  0
 14 15  1  0  0  0
M  END
> <minimizedAffinity>
-9.11874

$$$$



 35 37  0  0  0  0  0  0  0  0999 V2000
    0.3478   63.9965   82.5144 C   0  0  0  0  0  0  0  0  0  0  0  0
    0.8535   65.0570   83.2757 C   0  0  0  0  0  0  0  0  0  0  0  0
    1.0241   66.3231   82.7049 C   0  0  0  0  0  0  0  0  0  0  0  0
    0.6784   66.5316   81.3685 C   0  0  0  0  0  0  0  0  0  0  0  0
    0.1754   65.4893   80.5887 C   0  0  0  0  0  0  0  0  0  0  0  0
    0.0101   64.2264   81.1684 C   0  0  0  0  0  0  0  0  0  0  0  0
   -0.5143   63.1326   80.3245 C   0  0  0  0  0  0  0  0  0  0  0  0
   -1.5481   62.4439   80.6781 N   0  0  0  0  0  0  0  0  0  0  0  0
   -1.9974   61.4415   79.8371 C   0  0  0  0  0  0  0  0  0  0  0  0
   -1.4065   61.1344   78.6617 C   0  0  0  0  0  0  0  0  0  0  0  0
   -1.9451   59.8005   77.4697 Br  0  0  0  0  0  0  0  0  0  0  0  0
   -0.2114   61.9391   78.2752 C   0  0  0  0  0  0  0  0  0  0  0  0
    0.4101   61.7792   77.2284 O   0  0  0  0  0  0  0  0  0  0  0  0
    0.1724   62.8977   79.1659 N   0  0  0  0  0  0  0  0  0  0  0  0
    0.9610   63.4633   78.8898 H   0  0  0  0  0  0  0  0  0  0  0  0
   -3.2384   60.7219   80.3714 C   0  0  0  0  0  0  0  0  0  0  0  0
   -3.0621   60.3429   81.8451 C   0  0  0  0  0  0  0  0  0  0  0  0
   -4.4981   61.5742   80.1813 C   0  0  0  0  0  0  0  0  0  0  0  0
    0.8842   68.1307   80.6258 S   0  0  0  0  0  0  0  0  0  0  0  0
   -0.4405   68.6399   80.3476 O   0  0  0  0  0  0  0  0  0  0  0  0
    1.8941   68.0346   79.5935 O   0  0  0  0  0  0  0  0  0  0  0  0
    1.5482   69.0374   81.9067 N   0  0  0  0  0  0  0  0  0  0  0  0
    3.0468   69.0387   81.9983 C   0  0  0  0  0  0  0  0  0  0  0  0
    3.6425   70.3752   81.5229 C   0  0  0  0  0  0  0  0  0  0  0  0
    3.2200   71.5178   82.3589 N   0  0  0  0  0  0  0  0  0  0  0  0
    3.3790   72.7730   81.6278 C   0  0  0  0  0  0  0  0  0  0  0  0
    1.8423   71.3438   82.8632 C   0  0  0  0  0  0  0  0  0  0  0  0
    0.9598   70.4151   82.0095 C   0  0  0  0  0  0  0  0  0  0  0  0
    0.1032   62.7442   83.0054 O   0  0  0  0  0  0  0  0  0  0  0  0
   -0.3617   62.6300   84.3477 C   0  0  0  0  0  0  0  0  0  0  0  0
   -1.8840   62.7732   84.3575 C   0  0  0  0  0  0  0  0  0  0  0  0
   -2.5793   62.1476   85.5725 C   0  0  0  0  0  0  0  0  0  0  0  0
   -2.8561   63.0992   86.7396 C   0  0  0  0  0  0  0  0  0  0  0  0
   -0.6575   63.7970   87.7516 C   0  0  0  0  0  0  0  0  0  0  0  0
   -1.8900   62.9198   87.9107 C   0  0  0  0  0  0  0  0  0  0  0  0
 34 35  1  0  0  0
 35 33  1  0  0  0
 33 32  1  0  0  0
 32 31  1  0  0  0
 31 30  1  0  0  0
 30 29  1  0  0  0
 29  1  1  0  0  0
  1  2  1  0  0  0
  2  3  2  0  0  0
  3  4  1  0  0  0
  4 19  1  0  0  0
 19 20  2  0  0  0
 19 21  2  0  0  0
 19 22  1  0  0  0
 22 23  1  0  0  0
 23 24  1  0  0  0
 24 25  1  0  0  0
 25 26  1  0  0  0
 25 27  1  0  0  0
 27 28  1  0  0  0
  4  5  2  0  0  0
  5  6  1  0  0  0
  6  7  1  0  0  0
  7  8  2  0  0  0
  8  9  1  0  0  0
  9 16  1  0  0  0
 16 17  1  0  0  0
 16 18  1  0  0  0
  9 10  2  0  0  0
 10 11  1  0  0  0
 10 12  1  0  0  0
 12 13  2  0  0  0
 12 14  1  0  0  0
  6  1  2  0  0  0
 14  7  1  0  0  0
 28 22  1  0  0  0
 14 15  1  0  0  0
M  END
> <minimizedAffinity>
-9.11807

$$$$
