
     RDKit          3D

 55 59  0  0  0  0  0  0  0  0999 V2000
   -0.0018   -4.9166    0.8949 C   0  0  0  0  0  0  0  0  0  0  0  0
   -0.4496   -3.9075   -0.1656 C   0  0  0  0  0  0  0  0  0  0  0  0
    0.0083   -4.3233   -1.5655 C   0  0  0  0  0  0  0  0  0  0  0  0
   -0.0430   -2.5304    0.1637 N   0  0  0  0  0  0  0  0  0  0  0  0
    1.3220   -2.2070    0.2610 C   0  0  0  0  0  0  0  0  0  0  0  0
    2.2468   -3.0003    0.1160 O   0  0  0  0  0  0  0  0  0  0  0  0
    1.5623   -0.8240    0.5332 C   0  0  0  0  0  0  0  0  0  0  0  0
    2.7309   -0.1307    0.6407 N   0  0  0  0  0  0  0  0  0  0  0  0
    2.4013    1.1914    0.8755 C   0  0  0  0  0  0  0  0  0  0  0  0
    3.4293    2.2645    1.0575 C   0  0  0  0  0  0  0  0  0  0  0  0
    4.6648    2.0780    0.2055 C   0  0  0  0  0  0  0  0  0  0  0  0
    5.8674    1.6379    0.7771 C   0  0  0  0  0  0  0  0  0  0  0  0
    6.9963    1.4395   -0.0193 C   0  0  0  0  0  0  0  0  0  0  0  0
    6.9341    1.6769   -1.3912 C   0  0  0  0  0  0  0  0  0  0  0  0
    5.7442    2.1144   -1.9696 C   0  0  0  0  0  0  0  0  0  0  0  0
    4.6140    2.3141   -1.1764 C   0  0  0  0  0  0  0  0  0  0  0  0
    1.0863    1.3483    0.9308 N   0  0  0  0  0  0  0  0  0  0  0  0
    0.5849    0.1047    0.7255 C   0  0  0  0  0  0  0  0  0  0  0  0
   -0.6930   -0.2626    0.6961 N   0  0  0  0  0  0  0  0  0  0  0  0
   -1.8316    0.5992    0.6358 C   0  0  0  0  0  0  0  0  0  0  0  0
   -2.9568   -0.4547    0.5119 C   0  0  1  0  0  0  0  0  0  0  0  0
   -3.9810   -0.1270   -0.5790 C   0  0  0  0  0  0  0  0  0  0  0  0
   -4.7859    1.1137   -0.2752 C   0  0  0  0  0  0  0  0  0  0  0  0
   -5.7672    1.0949    0.7256 C   0  0  0  0  0  0  0  0  0  0  0  0
   -6.5004    2.2453    1.0199 C   0  0  0  0  0  0  0  0  0  0  0  0
   -6.2612    3.4241    0.3167 C   0  0  0  0  0  0  0  0  0  0  0  0
   -5.2910    3.4529   -0.6831 C   0  0  0  0  0  0  0  0  0  0  0  0
   -4.5570    2.3033   -0.9793 C   0  0  0  0  0  0  0  0  0  0  0  0
   -2.2966   -1.7760    0.1869 N   0  0  0  0  0  0  0  0  0  0  0  0
   -1.0167   -1.5458    0.3475 C   0  0  0  0  0  0  0  0  0  0  0  0
   -0.3272   -4.5991    1.8915 H   0  0  0  0  0  0  0  0  0  0  0  0
    1.0845   -5.0407    0.9218 H   0  0  0  0  0  0  0  0  0  0  0  0
   -0.4389   -5.9009    0.6950 H   0  0  0  0  0  0  0  0  0  0  0  0
   -1.5441   -3.9551   -0.1783 H   0  0  0  0  0  0  0  0  0  0  0  0
    1.0969   -4.4009   -1.6407 H   0  0  0  0  0  0  0  0  0  0  0  0
   -0.3266   -3.5959   -2.3129 H   0  0  0  0  0  0  0  0  0  0  0  0
   -0.4111   -5.2992   -1.8326 H   0  0  0  0  0  0  0  0  0  0  0  0
    3.6642   -0.5080    0.5301 H   0  0  0  0  0  0  0  0  0  0  0  0
    2.9845    3.2396    0.8217 H   0  0  0  0  0  0  0  0  0  0  0  0
    3.7068    2.3078    2.1181 H   0  0  0  0  0  0  0  0  0  0  0  0
    5.9358    1.4490    1.8465 H   0  0  0  0  0  0  0  0  0  0  0  0
    7.9266    1.1013    0.4304 H   0  0  0  0  0  0  0  0  0  0  0  0
    7.8144    1.5230   -2.0102 H   0  0  0  0  0  0  0  0  0  0  0  0
    5.6962    2.3002   -3.0397 H   0  0  0  0  0  0  0  0  0  0  0  0
    3.6896    2.6525   -1.6418 H   0  0  0  0  0  0  0  0  0  0  0  0
   -1.7778    1.2563   -0.2389 H   0  0  0  0  0  0  0  0  0  0  0  0
   -1.9504    1.2060    1.5394 H   0  0  0  0  0  0  0  0  0  0  0  0
   -3.4549   -0.5755    1.4827 H   0  0  0  0  0  0  0  0  0  0  0  0
   -3.4780   -0.0253   -1.5496 H   0  0  0  0  0  0  0  0  0  0  0  0
   -4.6747   -0.9695   -0.7013 H   0  0  0  0  0  0  0  0  0  0  0  0
   -5.9694    0.1808    1.2802 H   0  0  0  0  0  0  0  0  0  0  0  0
   -7.2602    2.2208    1.7967 H   0  0  0  0  0  0  0  0  0  0  0  0
   -6.8333    4.3194    0.5454 H   0  0  0  0  0  0  0  0  0  0  0  0
   -5.1070    4.3714   -1.2344 H   0  0  0  0  0  0  0  0  0  0  0  0
   -3.8058    2.3444   -1.7652 H   0  0  0  0  0  0  0  0  0  0  0  0
  1  2  1  0
  2  3  1  0
  2  4  1  0
  4  5  1  0
  5  6  2  0
  5  7  1  0
  7  8  1  0
  8  9  1  0
  9 10  1  0
 10 11  1  0
 11 12  2  0
 12 13  1  0
 13 14  2  0
 14 15  1  0
 15 16  2  0
  9 17  2  0
 17 18  1  0
 18 19  1  0
 19 20  1  0
 20 21  1  0
 21 22  1  0
 22 23  1  0
 23 24  2  0
 24 25  1  0
 25 26  2  0
 26 27  1  0
 27 28  2  0
 21 29  1  0
 29 30  2  0
 30  4  1  0
 18  7  2  0
 30 19  1  0
 16 11  1  0
 28 23  1  0
  1 31  1  0
  1 32  1  0
  1 33  1  0
  2 34  1  0
  3 35  1  0
  3 36  1  0
  3 37  1  0
  8 38  1  0
 10 39  1  0
 10 40  1  0
 12 41  1  0
 13 42  1  0
 14 43  1  0
 15 44  1  0
 16 45  1  0
 20 46  1  0
 20 47  1  0
 21 48  1  1
 22 49  1  0
 22 50  1  0
 24 51  1  0
 25 52  1  0
 26 53  1  0
 27 54  1  0
 28 55  1  0
M  END
$$$$
