


 30 34  0  0  0  0  0  0  0  0999 V2000
    2.0728   68.6221   81.4085 N   0  0  0  0  0  0  0  0  0  0  0  0
    1.7112   67.3811   80.9530 C   0  0  0  0  0  0  0  0  0  0  0  0
    1.3039   67.1093   79.8315 O   0  0  0  0  0  0  0  0  0  0  0  0
    1.8958   66.3733   82.0770 C   0  0  0  0  0  0  0  0  0  0  0  0
    0.5985   65.6258   82.4065 C   0  0  0  0  0  0  0  0  0  0  0  0
    0.6557   65.1376   83.8174 C   0  0  0  0  0  0  0  0  0  0  0  0
    1.5188   65.6968   84.7452 C   0  0  0  0  0  0  0  0  0  0  0  0
    1.3301   65.0504   85.9374 N   0  0  0  0  0  0  0  0  0  0  0  0
    0.3620   64.0789   85.7963 C   0  0  0  0  0  0  0  0  0  0  0  0
   -0.1501   63.1777   86.7374 C   0  0  0  0  0  0  0  0  0  0  0  0
   -1.1441   62.2911   86.3124 C   0  0  0  0  0  0  0  0  0  0  0  0
   -1.6065   62.3065   84.9986 C   0  0  0  0  0  0  0  0  0  0  0  0
   -1.0843   63.2125   84.0684 C   0  0  0  0  0  0  0  0  0  0  0  0
   -0.0809   64.1148   84.4713 C   0  0  0  0  0  0  0  0  0  0  0  0
    2.4914   66.8167   84.5206 C   0  0  0  0  0  0  0  0  0  0  0  0
    2.3260   67.2670   83.1462 N   0  0  0  0  0  0  0  0  0  0  0  0
    2.4258   68.5742   82.7294 C   0  0  0  0  0  0  0  0  0  0  0  0
    2.7425   69.5183   83.4362 O   0  0  0  0  0  0  0  0  0  0  0  0
    1.8327   65.2354   86.7952 H   0  0  0  0  0  0  0  0  0  0  0  0
    3.9439   66.4704   84.7509 C   0  0  0  0  0  0  0  0  0  0  0  0
    4.4407   65.2937   85.2919 C   0  0  0  0  0  0  0  0  0  0  0  0
    5.8639   65.2853   85.3854 C   0  0  0  0  0  0  0  0  0  0  0  0
    6.3952   66.4597   84.9206 C   0  0  0  0  0  0  0  0  0  0  0  0
    8.2699   66.8278   84.8865 Br  0  0  0  0  0  0  0  0  0  0  0  0
    5.2271   67.5594   84.3853 S   0  0  0  0  0  0  0  0  0  0  0  0
    2.0139   69.8329   80.6197 C   0  0  0  0  0  0  0  0  0  0  0  0
    0.6206   70.4702   80.5589 C   0  0  0  0  0  0  0  0  0  0  0  0
    0.3362   71.4902   81.6677 C   0  0  0  0  0  0  0  0  0  0  0  0
   -1.4988   72.4252   80.2157 C   0  0  0  0  0  0  0  0  0  0  0  0
   -1.0900   72.0433   81.6299 C   0  0  0  0  0  0  0  0  0  0  0  0
 29 30  1  0  0  0
 30 28  1  0  0  0
 28 27  1  0  0  0
 27 26  1  0  0  0
 26  1  1  0  0  0
  1  2  1  0  0  0
  2  3  2  0  0  0
  2  4  1  0  0  0
  4  5  1  0  0  0
  5  6  1  0  0  0
  6  7  2  0  0  0
  7  8  1  0  0  0
  8  9  1  0  0  0
  9 10  2  0  0  0
 10 11  1  0  0  0
 11 12  2  0  0  0
 12 13  1  0  0  0
 13 14  2  0  0  0
  7 15  1  0  0  0
 15 20  1  0  0  0
 20 21  2  0  0  0
 21 22  1  0  0  0
 22 23  2  0  0  0
 23 24  1  0  0  0
 23 25  1  0  0  0
 15 16  1  0  0  0
 16 17  1  0  0  0
 17 18  2  0  0  0
 17  1  1  0  0  0
 16  4  1  0  0  0
 14  6  1  0  0  0
 25 20  1  0  0  0
 14  9  1  0  0  0
  8 19  1  0  0  0
M  END
> <minimizedAffinity>
-10.56626

$$$$



 30 34  0  0  0  0  0  0  0  0999 V2000
    2.1937   68.7043   81.3279 N   0  0  0  0  0  0  0  0  0  0  0  0
    1.8310   67.4695   80.8568 C   0  0  0  0  0  0  0  0  0  0  0  0
    1.4476   67.2081   79.7244 O   0  0  0  0  0  0  0  0  0  0  0  0
    1.9795   66.4536   81.9788 C   0  0  0  0  0  0  0  0  0  0  0  0
    0.6678   65.7169   82.2734 C   0  0  0  0  0  0  0  0  0  0  0  0
    0.6872   65.2201   83.6823 C   0  0  0  0  0  0  0  0  0  0  0  0
    1.5336   65.7656   84.6334 C   0  0  0  0  0  0  0  0  0  0  0  0
    1.3108   65.1143   85.8170 N   0  0  0  0  0  0  0  0  0  0  0  0
    0.3370   64.1531   85.6476 C   0  0  0  0  0  0  0  0  0  0  0  0
   -0.2056   63.2516   86.5711 C   0  0  0  0  0  0  0  0  0  0  0  0
   -1.1978   62.3771   86.1177 C   0  0  0  0  0  0  0  0  0  0  0  0
   -1.6291   62.4044   84.7935 C   0  0  0  0  0  0  0  0  0  0  0  0
   -1.0765   63.3106   83.8812 C   0  0  0  0  0  0  0  0  0  0  0  0
   -0.0743   64.2008   84.3128 C   0  0  0  0  0  0  0  0  0  0  0  0
    2.5219   66.8773   84.4383 C   0  0  0  0  0  0  0  0  0  0  0  0
    2.3931   67.3370   83.0630 N   0  0  0  0  0  0  0  0  0  0  0  0
    2.5151   68.6456   82.6564 C   0  0  0  0  0  0  0  0  0  0  0  0
    2.8242   69.5825   83.3760 O   0  0  0  0  0  0  0  0  0  0  0  0
    1.7949   65.2896   86.6874 H   0  0  0  0  0  0  0  0  0  0  0  0
    3.9651   66.5157   84.7004 C   0  0  0  0  0  0  0  0  0  0  0  0
    4.4356   65.3458   85.2786 C   0  0  0  0  0  0  0  0  0  0  0  0
    5.8569   65.3189   85.3951 C   0  0  0  0  0  0  0  0  0  0  0  0
    6.4130   66.4733   84.9098 C   0  0  0  0  0  0  0  0  0  0  0  0
    8.2934   66.8129   84.8967 Br  0  0  0  0  0  0  0  0  0  0  0  0
    5.2702   67.5761   84.3285 S   0  0  0  0  0  0  0  0  0  0  0  0
    2.1649   69.9201   80.5451 C   0  0  0  0  0  0  0  0  0  0  0  0
    3.5450   70.3859   80.0658 C   0  0  0  0  0  0  0  0  0  0  0  0
    3.9794   71.7542   80.6042 C   0  0  0  0  0  0  0  0  0  0  0  0
    3.2693   73.0215   82.6632 C   0  0  0  0  0  0  0  0  0  0  0  0
    2.8473   72.5217   81.2901 C   0  0  0  0  0  0  0  0  0  0  0  0
 29 30  1  0  0  0
 30 28  1  0  0  0
 28 27  1  0  0  0
 27 26  1  0  0  0
 26  1  1  0  0  0
  1  2  1  0  0  0
  2  3  2  0  0  0
  2  4  1  0  0  0
  4  5  1  0  0  0
  5  6  1  0  0  0
  6  7  2  0  0  0
  7  8  1  0  0  0
  8  9  1  0  0  0
  9 10  2  0  0  0
 10 11  1  0  0  0
 11 12  2  0  0  0
 12 13  1  0  0  0
 13 14  2  0  0  0
  7 15  1  0  0  0
 15 20  1  0  0  0
 20 21  2  0  0  0
 21 22  1  0  0  0
 22 23  2  0  0  0
 23 24  1  0  0  0
 23 25  1  0  0  0
 15 16  1  0  0  0
 16 17  1  0  0  0
 17 18  2  0  0  0
 17  1  1  0  0  0
 16  4  1  0  0  0
 14  6  1  0  0  0
 25 20  1  0  0  0
 14  9  1  0  0  0
  8 19  1  0  0  0
M  END
> <minimizedAffinity>
-10.42629

$$$$



 30 34  0  0  0  0  0  0  0  0999 V2000
   -1.4699   62.8805   83.8696 N   0  0  0  0  0  0  0  0  0  0  0  0
   -0.1847   63.2176   84.2054 C   0  0  0  0  0  0  0  0  0  0  0  0
    0.3832   62.9571   85.2576 O   0  0  0  0  0  0  0  0  0  0  0  0
    0.4402   63.9812   83.0480 C   0  0  0  0  0  0  0  0  0  0  0  0
    0.9364   65.3696   83.4680 C   0  0  0  0  0  0  0  0  0  0  0  0
    0.9698   66.2639   82.2715 C   0  0  0  0  0  0  0  0  0  0  0  0
    0.2281   65.9852   81.1354 C   0  0  0  0  0  0  0  0  0  0  0  0
    0.4576   66.9848   80.2282 N   0  0  0  0  0  0  0  0  0  0  0  0
    1.3389   67.9043   80.7563 C   0  0  0  0  0  0  0  0  0  0  0  0
    1.8596   69.0755   80.1932 C   0  0  0  0  0  0  0  0  0  0  0  0
    2.7456   69.8297   80.9683 C   0  0  0  0  0  0  0  0  0  0  0  0
    3.0958   69.4274   82.2551 C   0  0  0  0  0  0  0  0  0  0  0  0
    2.5681   68.2532   82.8045 C   0  0  0  0  0  0  0  0  0  0  0  0
    1.6748   67.4751   82.0431 C   0  0  0  0  0  0  0  0  0  0  0  0
   -0.6810   64.8133   80.9095 C   0  0  0  0  0  0  0  0  0  0  0  0
   -0.6988   64.0338   82.1389 N   0  0  0  0  0  0  0  0  0  0  0  0
   -1.8009   63.3802   82.6398 C   0  0  0  0  0  0  0  0  0  0  0  0
   -2.8859   63.2991   82.0855 O   0  0  0  0  0  0  0  0  0  0  0  0
    0.0613   67.0416   79.2996 H   0  0  0  0  0  0  0  0  0  0  0  0
   -0.2996   63.9083   79.7615 C   0  0  0  0  0  0  0  0  0  0  0  0
    0.8767   63.9499   79.0275 C   0  0  0  0  0  0  0  0  0  0  0  0
    0.9231   62.9616   78.0002 C   0  0  0  0  0  0  0  0  0  0  0  0
   -0.2237   62.2118   77.9856 C   0  0  0  0  0  0  0  0  0  0  0  0
   -0.5375   60.7897   76.7484 Br  0  0  0  0  0  0  0  0  0  0  0  0
   -1.3422   62.6729   79.1674 S   0  0  0  0  0  0  0  0  0  0  0  0
   -2.3796   62.1604   84.7330 C   0  0  0  0  0  0  0  0  0  0  0  0
   -2.8196   62.9496   85.9720 C   0  0  0  0  0  0  0  0  0  0  0  0
   -2.3613   62.3501   87.3067 C   0  0  0  0  0  0  0  0  0  0  0  0
   -0.3330   62.5981   88.7812 C   0  0  0  0  0  0  0  0  0  0  0  0
   -1.5147   63.3119   88.1430 C   0  0  0  0  0  0  0  0  0  0  0  0
 29 30  1  0  0  0
 30 28  1  0  0  0
 28 27  1  0  0  0
 27 26  1  0  0  0
 26  1  1  0  0  0
  1  2  1  0  0  0
  2  3  2  0  0  0
  2  4  1  0  0  0
  4  5  1  0  0  0
  5  6  1  0  0  0
  6  7  2  0  0  0
  7  8  1  0  0  0
  8  9  1  0  0  0
  9 10  2  0  0  0
 10 11  1  0  0  0
 11 12  2  0  0  0
 12 13  1  0  0  0
 13 14  2  0  0  0
  7 15  1  0  0  0
 15 20  1  0  0  0
 20 21  2  0  0  0
 21 22  1  0  0  0
 22 23  2  0  0  0
 23 24  1  0  0  0
 23 25  1  0  0  0
 15 16  1  0  0  0
 16 17  1  0  0  0
 17 18  2  0  0  0
 17  1  1  0  0  0
 16  4  1  0  0  0
 14  6  1  0  0  0
 25 20  1  0  0  0
 14  9  1  0  0  0
  8 19  1  0  0  0
M  END
> <minimizedAffinity>
-9.91991

$$$$



 30 34  0  0  0  0  0  0  0  0999 V2000
   -0.1851   62.3579   79.4795 N   0  0  0  0  0  0  0  0  0  0  0  0
   -0.5858   63.6546   79.2888 C   0  0  0  0  0  0  0  0  0  0  0  0
   -1.0104   64.1379   78.2479 O   0  0  0  0  0  0  0  0  0  0  0  0
   -0.4178   64.4167   80.5942 C   0  0  0  0  0  0  0  0  0  0  0  0
    0.4960   65.6380   80.4409 C   0  0  0  0  0  0  0  0  0  0  0  0
    1.0961   65.9743   81.7672 C   0  0  0  0  0  0  0  0  0  0  0  0
    1.1633   65.0437   82.7910 C   0  0  0  0  0  0  0  0  0  0  0  0
    1.7707   65.6415   83.8628 N   0  0  0  0  0  0  0  0  0  0  0  0
    2.0944   66.9451   83.5516 C   0  0  0  0  0  0  0  0  0  0  0  0
    2.7166   67.9269   84.3320 C   0  0  0  0  0  0  0  0  0  0  0  0
    2.9259   69.1811   83.7508 C   0  0  0  0  0  0  0  0  0  0  0  0
    2.5284   69.4415   82.4414 C   0  0  0  0  0  0  0  0  0  0  0  0
    1.9063   68.4503   81.6736 C   0  0  0  0  0  0  0  0  0  0  0  0
    1.6827   67.1792   82.2368 C   0  0  0  0  0  0  0  0  0  0  0  0
    0.6769   63.6249   82.7616 C   0  0  0  0  0  0  0  0  0  0  0  0
    0.1663   63.3682   81.4227 N   0  0  0  0  0  0  0  0  0  0  0  0
    0.2878   62.1743   80.7501 C   0  0  0  0  0  0  0  0  0  0  0  0
    0.7671   61.1500   81.2109 O   0  0  0  0  0  0  0  0  0  0  0  0
    1.9443   65.2086   84.7600 H   0  0  0  0  0  0  0  0  0  0  0  0
   -0.3974   63.2864   83.7685 C   0  0  0  0  0  0  0  0  0  0  0  0
   -1.7043   62.9118   83.4931 C   0  0  0  0  0  0  0  0  0  0  0  0
   -2.4708   62.6707   84.6716 C   0  0  0  0  0  0  0  0  0  0  0  0
   -1.7204   62.8801   85.7988 C   0  0  0  0  0  0  0  0  0  0  0  0
   -2.3985   62.6619   87.5719 Br  0  0  0  0  0  0  0  0  0  0  0  0
   -0.1326   63.3599   85.4687 S   0  0  0  0  0  0  0  0  0  0  0  0
   -0.1888   61.3404   78.4518 C   0  0  0  0  0  0  0  0  0  0  0  0
   -1.4614   60.4853   78.4255 C   0  0  0  0  0  0  0  0  0  0  0  0
   -2.5141   60.9387   77.4072 C   0  0  0  0  0  0  0  0  0  0  0  0
   -3.7820   61.5973   79.4830 C   0  0  0  0  0  0  0  0  0  0  0  0
   -3.5686   61.8740   78.0028 C   0  0  0  0  0  0  0  0  0  0  0  0
 29 30  1  0  0  0
 30 28  1  0  0  0
 28 27  1  0  0  0
 27 26  1  0  0  0
 26  1  1  0  0  0
  1  2  1  0  0  0
  2  3  2  0  0  0
  2  4  1  0  0  0
  4  5  1  0  0  0
  5  6  1  0  0  0
  6  7  2  0  0  0
  7  8  1  0  0  0
  8  9  1  0  0  0
  9 10  2  0  0  0
 10 11  1  0  0  0
 11 12  2  0  0  0
 12 13  1  0  0  0
 13 14  2  0  0  0
  7 15  1  0  0  0
 15 20  1  0  0  0
 20 21  2  0  0  0
 21 22  1  0  0  0
 22 23  2  0  0  0
 23 24  1  0  0  0
 23 25  1  0  0  0
 15 16  1  0  0  0
 16 17  1  0  0  0
 17 18  2  0  0  0
 17  1  1  0  0  0
 16  4  1  0  0  0
 14  6  1  0  0  0
 25 20  1  0  0  0
 14  9  1  0  0  0
  8 19  1  0  0  0
M  END
> <minimizedAffinity>
-9.89084

$$$$



 30 34  0  0  0  0  0  0  0  0999 V2000
    3.6668   66.6411   84.5773 N   0  0  0  0  0  0  0  0  0  0  0  0
    4.2544   67.7663   84.0607 C   0  0  0  0  0  0  0  0  0  0  0  0
    5.3042   68.2735   84.4326 O   0  0  0  0  0  0  0  0  0  0  0  0
    3.3847   68.2998   82.9328 C   0  0  0  0  0  0  0  0  0  0  0  0
    2.9443   69.7483   83.1736 C   0  0  0  0  0  0  0  0  0  0  0  0
    1.6811   70.0112   82.4204 C   0  0  0  0  0  0  0  0  0  0  0  0
    0.8569   68.9797   82.0018 C   0  0  0  0  0  0  0  0  0  0  0  0
   -0.2158   69.5346   81.3565 N   0  0  0  0  0  0  0  0  0  0  0  0
   -0.0981   70.9083   81.3466 C   0  0  0  0  0  0  0  0  0  0  0  0
   -0.9470   71.8787   80.8009 C   0  0  0  0  0  0  0  0  0  0  0  0
   -0.5756   73.2191   80.9426 C   0  0  0  0  0  0  0  0  0  0  0  0
    0.5981   73.5733   81.6039 C   0  0  0  0  0  0  0  0  0  0  0  0
    1.4376   72.5920   82.1434 C   0  0  0  0  0  0  0  0  0  0  0  0
    1.0865   71.2345   82.0124 C   0  0  0  0  0  0  0  0  0  0  0  0
    1.0665   67.5088   82.2096 C   0  0  0  0  0  0  0  0  0  0  0  0
    2.2801   67.3499   82.9978 N   0  0  0  0  0  0  0  0  0  0  0  0
    2.4705   66.3885   83.9633 C   0  0  0  0  0  0  0  0  0  0  0  0
    1.6842   65.4944   84.2340 O   0  0  0  0  0  0  0  0  0  0  0  0
   -0.9771   69.0236   80.9301 H   0  0  0  0  0  0  0  0  0  0  0  0
    1.1908   66.6866   80.9483 C   0  0  0  0  0  0  0  0  0  0  0  0
    1.9994   66.9612   79.8552 C   0  0  0  0  0  0  0  0  0  0  0  0
    1.8765   65.9897   78.8181 C   0  0  0  0  0  0  0  0  0  0  0  0
    0.9721   65.0181   79.1578 C   0  0  0  0  0  0  0  0  0  0  0  0
    0.5321   63.5447   78.0234 Br  0  0  0  0  0  0  0  0  0  0  0  0
    0.2740   65.2535   80.6801 S   0  0  0  0  0  0  0  0  0  0  0  0
    4.2019   65.8695   85.6772 C   0  0  0  0  0  0  0  0  0  0  0  0
    5.4326   65.0315   85.3104 C   0  0  0  0  0  0  0  0  0  0  0  0
    6.7683   65.6187   85.7815 C   0  0  0  0  0  0  0  0  0  0  0  0
    8.6206   66.9954   84.7698 C   0  0  0  0  0  0  0  0  0  0  0  0
    7.8154   65.7090   84.6694 C   0  0  0  0  0  0  0  0  0  0  0  0
 29 30  1  0  0  0
 30 28  1  0  0  0
 28 27  1  0  0  0
 27 26  1  0  0  0
 26  1  1  0  0  0
  1  2  1  0  0  0
  2  3  2  0  0  0
  2  4  1  0  0  0
  4  5  1  0  0  0
  5  6  1  0  0  0
  6  7  2  0  0  0
  7  8  1  0  0  0
  8  9  1  0  0  0
  9 10  2  0  0  0
 10 11  1  0  0  0
 11 12  2  0  0  0
 12 13  1  0  0  0
 13 14  2  0  0  0
  7 15  1  0  0  0
 15 20  1  0  0  0
 20 21  2  0  0  0
 21 22  1  0  0  0
 22 23  2  0  0  0
 23 24  1  0  0  0
 23 25  1  0  0  0
 15 16  1  0  0  0
 16 17  1  0  0  0
 17 18  2  0  0  0
 17  1  1  0  0  0
 16  4  1  0  0  0
 14  6  1  0  0  0
 25 20  1  0  0  0
 14  9  1  0  0  0
  8 19  1  0  0  0
M  END
> <minimizedAffinity>
-9.68080

$$$$



 30 34  0  0  0  0  0  0  0  0999 V2000
    0.3057   65.4902   80.6422 N   0  0  0  0  0  0  0  0  0  0  0  0
    0.4564   64.1819   81.0213 C   0  0  0  0  0  0  0  0  0  0  0  0
    0.2456   63.1958   80.3279 O   0  0  0  0  0  0  0  0  0  0  0  0
    0.9342   64.1416   82.4646 C   0  0  0  0  0  0  0  0  0  0  0  0
   -0.0114   63.3415   83.3679 C   0  0  0  0  0  0  0  0  0  0  0  0
    0.1391   63.8113   84.7782 C   0  0  0  0  0  0  0  0  0  0  0  0
    0.6777   65.0519   85.0770 C   0  0  0  0  0  0  0  0  0  0  0  0
    0.6717   65.1956   86.4387 N   0  0  0  0  0  0  0  0  0  0  0  0
    0.1418   64.0669   87.0272 C   0  0  0  0  0  0  0  0  0  0  0  0
   -0.0550   63.7677   88.3806 C   0  0  0  0  0  0  0  0  0  0  0  0
   -0.6235   62.5298   88.6952 C   0  0  0  0  0  0  0  0  0  0  0  0
   -0.9804   61.6282   87.6952 C   0  0  0  0  0  0  0  0  0  0  0  0
   -0.7766   61.9407   86.3462 C   0  0  0  0  0  0  0  0  0  0  0  0
   -0.2040   63.1807   86.0034 C   0  0  0  0  0  0  0  0  0  0  0  0
    1.1783   66.0817   84.1076 C   0  0  0  0  0  0  0  0  0  0  0  0
    0.9394   65.5684   82.7664 N   0  0  0  0  0  0  0  0  0  0  0  0
    0.5728   66.3351   81.6846 C   0  0  0  0  0  0  0  0  0  0  0  0
    0.4754   67.5523   81.6826 O   0  0  0  0  0  0  0  0  0  0  0  0
    1.0186   65.9965   86.9493 H   0  0  0  0  0  0  0  0  0  0  0  0
    2.6395   66.4418   84.2408 C   0  0  0  0  0  0  0  0  0  0  0  0
    3.2553   67.5955   83.7782 C   0  0  0  0  0  0  0  0  0  0  0  0
    4.6540   67.6255   84.0557 C   0  0  0  0  0  0  0  0  0  0  0  0
    5.0509   66.4892   84.7105 C   0  0  0  0  0  0  0  0  0  0  0  0
    6.8540   66.1590   85.2500 Br  0  0  0  0  0  0  0  0  0  0  0  0
    3.7881   65.3994   84.9894 S   0  0  0  0  0  0  0  0  0  0  0  0
   -0.1504   65.9173   79.3379 C   0  0  0  0  0  0  0  0  0  0  0  0
    0.2187   64.9551   78.2024 C   0  0  0  0  0  0  0  0  0  0  0  0
   -0.7854   64.9194   77.0443 C   0  0  0  0  0  0  0  0  0  0  0  0
   -1.9393   62.7516   77.6094 C   0  0  0  0  0  0  0  0  0  0  0  0
   -1.1159   63.5015   76.5735 C   0  0  0  0  0  0  0  0  0  0  0  0
 29 30  1  0  0  0
 30 28  1  0  0  0
 28 27  1  0  0  0
 27 26  1  0  0  0
 26  1  1  0  0  0
  1  2  1  0  0  0
  2  3  2  0  0  0
  2  4  1  0  0  0
  4  5  1  0  0  0
  5  6  1  0  0  0
  6  7  2  0  0  0
  7  8  1  0  0  0
  8  9  1  0  0  0
  9 10  2  0  0  0
 10 11  1  0  0  0
 11 12  2  0  0  0
 12 13  1  0  0  0
 13 14  2  0  0  0
  7 15  1  0  0  0
 15 20  1  0  0  0
 20 21  2  0  0  0
 21 22  1  0  0  0
 22 23  2  0  0  0
 23 24  1  0  0  0
 23 25  1  0  0  0
 15 16  1  0  0  0
 16 17  1  0  0  0
 17 18  2  0  0  0
 17  1  1  0  0  0
 16  4  1  0  0  0
 14  6  1  0  0  0
 25 20  1  0  0  0
 14  9  1  0  0  0
  8 19  1  0  0  0
M  END
> <minimizedAffinity>
-9.52876

$$$$



 30 34  0  0  0  0  0  0  0  0999 V2000
    2.8845   66.1421   84.6052 N   0  0  0  0  0  0  0  0  0  0  0  0
    1.6669   65.5162   84.5421 C   0  0  0  0  0  0  0  0  0  0  0  0
    1.1844   64.7790   85.3914 O   0  0  0  0  0  0  0  0  0  0  0  0
    0.9939   65.8843   83.2289 C   0  0  0  0  0  0  0  0  0  0  0  0
    0.6478   64.6505   82.3873 C   0  0  0  0  0  0  0  0  0  0  0  0
    0.5680   65.0424   80.9477 C   0  0  0  0  0  0  0  0  0  0  0  0
    1.1738   66.1943   80.4738 C   0  0  0  0  0  0  0  0  0  0  0  0
    0.9351   66.2711   79.1277 N   0  0  0  0  0  0  0  0  0  0  0  0
    0.1813   65.1901   78.7224 C   0  0  0  0  0  0  0  0  0  0  0  0
   -0.3001   64.8569   77.4507 C   0  0  0  0  0  0  0  0  0  0  0  0
   -1.0475   63.6817   77.3275 C   0  0  0  0  0  0  0  0  0  0  0  0
   -1.3023   62.8732   78.4328 C   0  0  0  0  0  0  0  0  0  0  0  0
   -0.8153   63.2198   79.6984 C   0  0  0  0  0  0  0  0  0  0  0  0
   -0.0613   64.3995   79.8490 C   0  0  0  0  0  0  0  0  0  0  0  0
    1.9649   67.1948   81.2636 C   0  0  0  0  0  0  0  0  0  0  0  0
    2.0412   66.7055   82.6325 N   0  0  0  0  0  0  0  0  0  0  0  0
    3.1331   66.8445   83.4577 C   0  0  0  0  0  0  0  0  0  0  0  0
    4.1506   67.4618   83.1843 O   0  0  0  0  0  0  0  0  0  0  0  0
    1.2437   67.0140   78.5149 H   0  0  0  0  0  0  0  0  0  0  0  0
    1.4072   68.5988   81.2759 C   0  0  0  0  0  0  0  0  0  0  0  0
    0.0700   68.9611   81.2059 C   0  0  0  0  0  0  0  0  0  0  0  0
   -0.1224   70.3742   81.2295 C   0  0  0  0  0  0  0  0  0  0  0  0
    1.0763   71.0334   81.3072 C   0  0  0  0  0  0  0  0  0  0  0  0
    1.2308   72.9374   81.3570 Br  0  0  0  0  0  0  0  0  0  0  0  0
    2.4115   69.9961   81.3468 S   0  0  0  0  0  0  0  0  0  0  0  0
    3.8153   66.0133   85.7046 C   0  0  0  0  0  0  0  0  0  0  0  0
    5.0318   65.1338   85.3918 C   0  0  0  0  0  0  0  0  0  0  0  0
    6.3825   65.7567   85.7640 C   0  0  0  0  0  0  0  0  0  0  0  0
    8.4597   66.7831   84.7731 C   0  0  0  0  0  0  0  0  0  0  0  0
    7.4117   65.6896   84.6338 C   0  0  0  0  0  0  0  0  0  0  0  0
 29 30  1  0  0  0
 30 28  1  0  0  0
 28 27  1  0  0  0
 27 26  1  0  0  0
 26  1  1  0  0  0
  1  2  1  0  0  0
  2  3  2  0  0  0
  2  4  1  0  0  0
  4  5  1  0  0  0
  5  6  1  0  0  0
  6  7  2  0  0  0
  7  8  1  0  0  0
  8  9  1  0  0  0
  9 10  2  0  0  0
 10 11  1  0  0  0
 11 12  2  0  0  0
 12 13  1  0  0  0
 13 14  2  0  0  0
  7 15  1  0  0  0
 15 20  1  0  0  0
 20 21  2  0  0  0
 21 22  1  0  0  0
 22 23  2  0  0  0
 23 24  1  0  0  0
 23 25  1  0  0  0
 15 16  1  0  0  0
 16 17  1  0  0  0
 17 18  2  0  0  0
 17  1  1  0  0  0
 16  4  1  0  0  0
 14  6  1  0  0  0
 25 20  1  0  0  0
 14  9  1  0  0  0
  8 19  1  0  0  0
M  END
> <minimizedAffinity>
-9.37271

$$$$



 30 34  0  0  0  0  0  0  0  0999 V2000
    3.4429   66.4954   84.5012 N   0  0  0  0  0  0  0  0  0  0  0  0
    4.0759   67.6087   84.0136 C   0  0  0  0  0  0  0  0  0  0  0  0
    5.1294   68.0814   84.4191 O   0  0  0  0  0  0  0  0  0  0  0  0
    3.2524   68.1793   82.8693 C   0  0  0  0  0  0  0  0  0  0  0  0
    2.8472   69.6372   83.1152 C   0  0  0  0  0  0  0  0  0  0  0  0
    1.6126   69.9445   82.3318 C   0  0  0  0  0  0  0  0  0  0  0  0
    0.7709   68.9418   81.8795 C   0  0  0  0  0  0  0  0  0  0  0  0
   -0.2678   69.5343   81.2125 N   0  0  0  0  0  0  0  0  0  0  0  0
   -0.1108   70.9041   81.2217 C   0  0  0  0  0  0  0  0  0  0  0  0
   -0.9168   71.9043   80.6650 C   0  0  0  0  0  0  0  0  0  0  0  0
   -0.5113   73.2319   80.8321 C   0  0  0  0  0  0  0  0  0  0  0  0
    0.6538   73.5450   81.5284 C   0  0  0  0  0  0  0  0  0  0  0  0
    1.4502   72.5341   82.0785 C   0  0  0  0  0  0  0  0  0  0  0  0
    1.0643   71.1888   81.9225 C   0  0  0  0  0  0  0  0  0  0  0  0
    0.9329   67.4633   82.0757 C   0  0  0  0  0  0  0  0  0  0  0  0
    2.1198   67.2609   82.8939 N   0  0  0  0  0  0  0  0  0  0  0  0
    2.2568   66.2840   83.8528 C   0  0  0  0  0  0  0  0  0  0  0  0
    1.4383   65.4100   84.0921 O   0  0  0  0  0  0  0  0  0  0  0  0
   -1.0316   69.0501   80.7600 H   0  0  0  0  0  0  0  0  0  0  0  0
    1.0676   66.6517   80.8086 C   0  0  0  0  0  0  0  0  0  0  0  0
    1.9848   66.8532   79.7876 C   0  0  0  0  0  0  0  0  0  0  0  0
    1.8408   65.9167   78.7216 C   0  0  0  0  0  0  0  0  0  0  0  0
    0.8134   65.0441   78.9676 C   0  0  0  0  0  0  0  0  0  0  0  0
    0.3090   63.6446   77.7684 Br  0  0  0  0  0  0  0  0  0  0  0  0
    0.0265   65.3310   80.4370 S   0  0  0  0  0  0  0  0  0  0  0  0
    3.9261   65.6967   85.6059 C   0  0  0  0  0  0  0  0  0  0  0  0
    5.4235   65.3743   85.5341 C   0  0  0  0  0  0  0  0  0  0  0  0
    6.1252   65.2941   86.8950 C   0  0  0  0  0  0  0  0  0  0  0  0
    5.8281   65.4893   89.3897 C   0  0  0  0  0  0  0  0  0  0  0  0
    5.1542   65.1510   88.0689 C   0  0  0  0  0  0  0  0  0  0  0  0
 29 30  1  0  0  0
 30 28  1  0  0  0
 28 27  1  0  0  0
 27 26  1  0  0  0
 26  1  1  0  0  0
  1  2  1  0  0  0
  2  3  2  0  0  0
  2  4  1  0  0  0
  4  5  1  0  0  0
  5  6  1  0  0  0
  6  7  2  0  0  0
  7  8  1  0  0  0
  8  9  1  0  0  0
  9 10  2  0  0  0
 10 11  1  0  0  0
 11 12  2  0  0  0
 12 13  1  0  0  0
 13 14  2  0  0  0
  7 15  1  0  0  0
 15 20  1  0  0  0
 20 21  2  0  0  0
 21 22  1  0  0  0
 22 23  2  0  0  0
 23 24  1  0  0  0
 23 25  1  0  0  0
 15 16  1  0  0  0
 16 17  1  0  0  0
 17 18  2  0  0  0
 17  1  1  0  0  0
 16  4  1  0  0  0
 14  6  1  0  0  0
 25 20  1  0  0  0
 14  9  1  0  0  0
  8 19  1  0  0  0
M  END
> <minimizedAffinity>
-9.27660

$$$$



 30 34  0  0  0  0  0  0  0  0999 V2000
   -1.0646   62.3381   84.7701 N   0  0  0  0  0  0  0  0  0  0  0  0
   -2.1549   61.9889   84.0167 C   0  0  0  0  0  0  0  0  0  0  0  0
   -3.1733   61.4445   84.4216 O   0  0  0  0  0  0  0  0  0  0  0  0
   -1.9004   62.3884   82.5714 C   0  0  0  0  0  0  0  0  0  0  0  0
   -1.9996   61.1963   81.6127 C   0  0  0  0  0  0  0  0  0  0  0  0
   -1.1917   61.4798   80.3883 C   0  0  0  0  0  0  0  0  0  0  0  0
   -0.1847   62.4308   80.3866 C   0  0  0  0  0  0  0  0  0  0  0  0
    0.3730   62.4499   79.1362 N   0  0  0  0  0  0  0  0  0  0  0  0
   -0.2588   61.5299   78.3266 C   0  0  0  0  0  0  0  0  0  0  0  0
   -0.0302   61.2088   76.9833 C   0  0  0  0  0  0  0  0  0  0  0  0
   -0.8315   60.2183   76.4076 C   0  0  0  0  0  0  0  0  0  0  0  0
   -1.8215   59.5755   77.1472 C   0  0  0  0  0  0  0  0  0  0  0  0
   -2.0394   59.9079   78.4892 C   0  0  0  0  0  0  0  0  0  0  0  0
   -1.2465   60.9036   79.0916 C   0  0  0  0  0  0  0  0  0  0  0  0
    0.2497   63.2952   81.5333 C   0  0  0  0  0  0  0  0  0  0  0  0
   -0.5446   62.9120   82.6916 N   0  0  0  0  0  0  0  0  0  0  0  0
   -0.0806   62.8757   83.9862 C   0  0  0  0  0  0  0  0  0  0  0  0
    1.0293   63.2331   84.3486 O   0  0  0  0  0  0  0  0  0  0  0  0
    1.1233   63.0566   78.8337 H   0  0  0  0  0  0  0  0  0  0  0  0
    0.1087   64.7833   81.3137 C   0  0  0  0  0  0  0  0  0  0  0  0
   -0.8674   65.4226   80.5635 C   0  0  0  0  0  0  0  0  0  0  0  0
   -0.7127   66.8404   80.5473 C   0  0  0  0  0  0  0  0  0  0  0  0
    0.3806   67.2251   81.2781 C   0  0  0  0  0  0  0  0  0  0  0  0
    0.9187   69.0463   81.4905 Br  0  0  0  0  0  0  0  0  0  0  0  0
    1.2158   65.9276   81.9702 S   0  0  0  0  0  0  0  0  0  0  0  0
   -0.9405   62.0982   86.1909 C   0  0  0  0  0  0  0  0  0  0  0  0
   -1.5142   63.2199   87.0650 C   0  0  0  0  0  0  0  0  0  0  0  0
   -0.4619   64.0537   87.8054 C   0  0  0  0  0  0  0  0  0  0  0  0
    0.3068   62.2782   89.4199 C   0  0  0  0  0  0  0  0  0  0  0  0
    0.7237   63.2259   88.3058 C   0  0  0  0  0  0  0  0  0  0  0  0
 29 30  1  0  0  0
 30 28  1  0  0  0
 28 27  1  0  0  0
 27 26  1  0  0  0
 26  1  1  0  0  0
  1  2  1  0  0  0
  2  3  2  0  0  0
  2  4  1  0  0  0
  4  5  1  0  0  0
  5  6  1  0  0  0
  6  7  2  0  0  0
  7  8  1  0  0  0
  8  9  1  0  0  0
  9 10  2  0  0  0
 10 11  1  0  0  0
 11 12  2  0  0  0
 12 13  1  0  0  0
 13 14  2  0  0  0
  7 15  1  0  0  0
 15 20  1  0  0  0
 20 21  2  0  0  0
 21 22  1  0  0  0
 22 23  2  0  0  0
 23 24  1  0  0  0
 23 25  1  0  0  0
 15 16  1  0  0  0
 16 17  1  0  0  0
 17 18  2  0  0  0
 17  1  1  0  0  0
 16  4  1  0  0  0
 14  6  1  0  0  0
 25 20  1  0  0  0
 14  9  1  0  0  0
  8 19  1  0  0  0
M  END
> <minimizedAffinity>
-9.24051

$$$$
