


 41 44  0  0  0  0  0  0  0  0999 V2000
    3.4405   66.5896   84.6717 C   0  0  0  0  0  0  0  0  0  0  0  0
    4.1242   67.6242   84.0136 C   0  0  0  0  0  0  0  0  0  0  0  0
    3.5308   68.3119   82.9532 C   0  0  0  0  0  0  0  0  0  0  0  0
    2.2448   67.9680   82.5426 C   0  0  0  0  0  0  0  0  0  0  0  0
    1.5398   66.9542   83.1917 C   0  0  0  0  0  0  0  0  0  0  0  0
    2.1304   66.2497   84.2575 C   0  0  0  0  0  0  0  0  0  0  0  0
    1.3039   65.1544   84.8809 C   0  0  0  0  0  0  0  0  0  0  0  0
    0.4378   64.5073   84.1481 N   0  0  0  0  0  0  0  0  0  0  0  0
   -0.2713   63.5227   84.8367 C   0  0  0  0  0  0  0  0  0  0  0  0
   -1.2748   62.6520   84.3822 C   0  0  0  0  0  0  0  0  0  0  0  0
   -1.6907   61.8477   85.3796 N   0  0  0  0  0  0  0  0  0  0  0  0
   -0.9486   62.2356   86.4466 N   0  0  0  0  0  0  0  0  0  0  0  0
   -1.1296   61.5878   87.7231 C   0  0  0  0  0  0  0  0  0  0  0  0
   -0.0823   63.2418   86.1557 C   0  0  0  0  0  0  0  0  0  0  0  0
    0.8594   63.9311   86.9569 C   0  0  0  0  0  0  0  0  0  0  0  0
    1.0893   63.7171   88.1412 O   0  0  0  0  0  0  0  0  0  0  0  0
    1.5156   64.8991   86.2321 N   0  0  0  0  0  0  0  0  0  0  0  0
    2.2204   65.4224   86.7347 H   0  0  0  0  0  0  0  0  0  0  0  0
   -1.8606   62.5457   83.0163 C   0  0  0  0  0  0  0  0  0  0  0  0
   -1.7999   61.1328   82.4312 C   0  0  0  0  0  0  0  0  0  0  0  0
   -3.1719   60.4931   82.2689 C   0  0  0  0  0  0  0  0  0  0  0  0
    1.4986   68.8686   81.2057 S   0  0  0  0  0  0  0  0  0  0  0  0
    0.2768   69.4806   81.6809 O   0  0  0  0  0  0  0  0  0  0  0  0
    2.5474   69.6573   80.5941 O   0  0  0  0  0  0  0  0  0  0  0  0
    1.0666   67.6242   80.1188 N   0  0  0  0  0  0  0  0  0  0  0  0
    2.0377   66.5119   79.9909 C   0  0  0  0  0  0  0  0  0  0  0  0
    1.7455   65.7563   78.6945 C   0  0  0  0  0  0  0  0  0  0  0  0
    0.2425   65.4910   78.4778 C   0  0  0  0  0  0  0  0  0  0  0  0
   -0.5535   65.7375   79.7609 C   0  0  0  0  0  0  0  0  0  0  0  0
   -0.3402   67.1565   80.2946 C   0  0  0  0  0  0  0  0  0  0  0  0
   -0.0218   64.1191   77.8457 C   0  0  0  0  0  0  0  0  0  0  0  0
   -0.2031   62.6901   78.8879 P   0  0  0  0  0  0  0  0  0  0  0  0
    0.5365   62.6845   80.1821 O   0  0  0  0  0  0  0  0  0  0  0  0
    0.1847   61.4226   77.9898 O   0  0  0  0  0  0  0  0  0  0  0  0
   -1.7704   62.4451   79.1000 O   0  0  0  0  0  0  0  0  0  0  0  0
    0.3241   60.6132   78.5161 H   0  0  0  0  0  0  0  0  0  0  0  0
   -1.9591   61.8015   79.8086 H   0  0  0  0  0  0  0  0  0  0  0  0
    3.9801   65.8802   85.7154 O   0  0  0  0  0  0  0  0  0  0  0  0
    5.2568   65.2621   85.5306 C   0  0  0  0  0  0  0  0  0  0  0  0
    5.5281   65.5356   88.0226 C   0  0  0  0  0  0  0  0  0  0  0  0
    6.1658   65.7379   86.6600 C   0  0  0  0  0  0  0  0  0  0  0  0
 40 41  1  0  0  0
 41 39  1  0  0  0
 39 38  1  0  0  0
 38  1  1  0  0  0
  1  2  1  0  0  0
  2  3  2  0  0  0
  3  4  1  0  0  0
  4 22  1  0  0  0
 22 23  2  0  0  0
 22 24  2  0  0  0
 22 25  1  0  0  0
 25 26  1  0  0  0
 26 27  1  0  0  0
 27 28  1  0  0  0
 28 31  1  0  0  0
 31 32  1  0  0  0
 32 33  2  0  0  0
 32 34  1  0  0  0
 32 35  1  0  0  0
 28 29  1  0  0  0
 29 30  1  0  0  0
  4  5  2  0  0  0
  5  6  1  0  0  0
  6  7  1  0  0  0
  7  8  2  0  0  0
  8  9  1  0  0  0
  9 10  1  0  0  0
 10 19  1  0  0  0
 19 20  1  0  0  0
 20 21  1  0  0  0
 10 11  2  0  0  0
 11 12  1  0  0  0
 12 13  1  0  0  0
 12 14  1  0  0  0
 14 15  1  0  0  0
 15 16  2  0  0  0
 15 17  1  0  0  0
  6  1  2  0  0  0
 17  7  1  0  0  0
 30 25  1  0  0  0
 14  9  2  0  0  0
 34 36  1  0  0  0
 35 37  1  0  0  0
 17 18  1  0  0  0
M  END
> <minimizedAffinity>
-10.44398

$$$$



 41 44  0  0  0  0  0  0  0  0999 V2000
    2.3560   66.6967   83.6757 C   0  0  0  0  0  0  0  0  0  0  0  0
    2.7913   67.4782   82.5937 C   0  0  0  0  0  0  0  0  0  0  0  0
    2.2828   67.2688   81.3103 C   0  0  0  0  0  0  0  0  0  0  0  0
    1.3320   66.2727   81.1000 C   0  0  0  0  0  0  0  0  0  0  0  0
    0.8726   65.4942   82.1626 C   0  0  0  0  0  0  0  0  0  0  0  0
    1.3829   65.6919   83.4594 C   0  0  0  0  0  0  0  0  0  0  0  0
    0.8469   64.7873   84.5392 C   0  0  0  0  0  0  0  0  0  0  0  0
   -0.2073   64.0548   84.2985 N   0  0  0  0  0  0  0  0  0  0  0  0
   -0.6126   63.2652   85.3750 C   0  0  0  0  0  0  0  0  0  0  0  0
   -1.6944   62.3764   85.4823 C   0  0  0  0  0  0  0  0  0  0  0  0
   -1.7209   61.8089   86.7037 N   0  0  0  0  0  0  0  0  0  0  0  0
   -0.6615   62.3605   87.3463 N   0  0  0  0  0  0  0  0  0  0  0  0
   -0.3737   61.9890   88.7105 C   0  0  0  0  0  0  0  0  0  0  0  0
    0.0293   63.2416   86.5756 C   0  0  0  0  0  0  0  0  0  0  0  0
    1.1774   64.0250   86.8442 C   0  0  0  0  0  0  0  0  0  0  0  0
    1.8096   64.0380   87.8937 O   0  0  0  0  0  0  0  0  0  0  0  0
    1.5210   64.7939   85.7562 N   0  0  0  0  0  0  0  0  0  0  0  0
    2.3463   65.3682   85.8669 H   0  0  0  0  0  0  0  0  0  0  0  0
   -2.7170   62.0328   84.4546 C   0  0  0  0  0  0  0  0  0  0  0  0
   -2.1382   61.3298   83.2244 C   0  0  0  0  0  0  0  0  0  0  0  0
   -3.1036   60.3355   82.5940 C   0  0  0  0  0  0  0  0  0  0  0  0
    0.6814   66.0356   79.4642 S   0  0  0  0  0  0  0  0  0  0  0  0
   -0.5471   66.7891   79.3378 O   0  0  0  0  0  0  0  0  0  0  0  0
    1.7814   66.2289   78.5431 O   0  0  0  0  0  0  0  0  0  0  0  0
    0.2746   64.3770   79.4662 N   0  0  0  0  0  0  0  0  0  0  0  0
   -1.1676   64.0655   79.6065 C   0  0  0  0  0  0  0  0  0  0  0  0
   -1.3110   62.6087   80.0470 C   0  0  0  0  0  0  0  0  0  0  0  0
   -0.3918   61.6497   79.2649 C   0  0  0  0  0  0  0  0  0  0  0  0
    0.1807   62.3262   78.0178 C   0  0  0  0  0  0  0  0  0  0  0  0
    0.9353   63.6114   78.3680 C   0  0  0  0  0  0  0  0  0  0  0  0
   -1.0648   60.3021   78.9777 C   0  0  0  0  0  0  0  0  0  0  0  0
   -2.5924   60.2572   78.0691 P   0  0  0  0  0  0  0  0  0  0  0  0
   -3.1225   61.5504   77.5507 O   0  0  0  0  0  0  0  0  0  0  0  0
   -3.6595   59.5267   79.0133 O   0  0  0  0  0  0  0  0  0  0  0  0
   -2.4265   59.1744   76.9023 O   0  0  0  0  0  0  0  0  0  0  0  0
   -4.5778   59.6359   78.7030 H   0  0  0  0  0  0  0  0  0  0  0  0
   -3.1424   59.2198   76.2409 H   0  0  0  0  0  0  0  0  0  0  0  0
    2.8271   66.8590   84.9546 O   0  0  0  0  0  0  0  0  0  0  0  0
    4.2340   67.0339   85.1450 C   0  0  0  0  0  0  0  0  0  0  0  0
    5.8649   65.4106   86.1763 C   0  0  0  0  0  0  0  0  0  0  0  0
    4.8864   65.6583   85.0425 C   0  0  0  0  0  0  0  0  0  0  0  0
 40 41  1  0  0  0
 41 39  1  0  0  0
 39 38  1  0  0  0
 38  1  1  0  0  0
  1  2  1  0  0  0
  2  3  2  0  0  0
  3  4  1  0  0  0
  4 22  1  0  0  0
 22 23  2  0  0  0
 22 24  2  0  0  0
 22 25  1  0  0  0
 25 26  1  0  0  0
 26 27  1  0  0  0
 27 28  1  0  0  0
 28 31  1  0  0  0
 31 32  1  0  0  0
 32 33  2  0  0  0
 32 34  1  0  0  0
 32 35  1  0  0  0
 28 29  1  0  0  0
 29 30  1  0  0  0
  4  5  2  0  0  0
  5  6  1  0  0  0
  6  7  1  0  0  0
  7  8  2  0  0  0
  8  9  1  0  0  0
  9 10  1  0  0  0
 10 19  1  0  0  0
 19 20  1  0  0  0
 20 21  1  0  0  0
 10 11  2  0  0  0
 11 12  1  0  0  0
 12 13  1  0  0  0
 12 14  1  0  0  0
 14 15  1  0  0  0
 15 16  2  0  0  0
 15 17  1  0  0  0
  6  1  2  0  0  0
 17  7  1  0  0  0
 30 25  1  0  0  0
 14  9  2  0  0  0
 34 36  1  0  0  0
 35 37  1  0  0  0
 17 18  1  0  0  0
M  END
> <minimizedAffinity>
-9.98545

$$$$



 41 44  0  0  0  0  0  0  0  0999 V2000
    3.5297   66.8175   84.6089 C   0  0  0  0  0  0  0  0  0  0  0  0
    4.2646   67.9018   84.1040 C   0  0  0  0  0  0  0  0  0  0  0  0
    3.7114   68.7583   83.1502 C   0  0  0  0  0  0  0  0  0  0  0  0
    2.4145   68.5350   82.6933 C   0  0  0  0  0  0  0  0  0  0  0  0
    1.6592   67.4734   83.1921 C   0  0  0  0  0  0  0  0  0  0  0  0
    2.2089   66.5997   84.1490 C   0  0  0  0  0  0  0  0  0  0  0  0
    1.3287   65.4667   84.6107 C   0  0  0  0  0  0  0  0  0  0  0  0
    0.7689   64.6866   83.7253 N   0  0  0  0  0  0  0  0  0  0  0  0
   -0.0272   63.6799   84.2724 C   0  0  0  0  0  0  0  0  0  0  0  0
   -0.7809   62.6816   83.6342 C   0  0  0  0  0  0  0  0  0  0  0  0
   -1.4020   61.9045   84.5425 N   0  0  0  0  0  0  0  0  0  0  0  0
   -1.0365   62.4361   85.7356 N   0  0  0  0  0  0  0  0  0  0  0  0
   -1.5276   61.8569   86.9626 C   0  0  0  0  0  0  0  0  0  0  0  0
   -0.2079   63.5063   85.6108 C   0  0  0  0  0  0  0  0  0  0  0  0
    0.4007   64.3406   86.5790 C   0  0  0  0  0  0  0  0  0  0  0  0
    0.2928   64.2289   87.7944 O   0  0  0  0  0  0  0  0  0  0  0  0
    1.1583   65.3229   85.9840 N   0  0  0  0  0  0  0  0  0  0  0  0
    1.6415   65.9484   86.6154 H   0  0  0  0  0  0  0  0  0  0  0  0
   -0.9334   62.4266   82.1742 C   0  0  0  0  0  0  0  0  0  0  0  0
   -0.1931   61.1779   81.6891 C   0  0  0  0  0  0  0  0  0  0  0  0
    1.2921   61.1952   82.0235 C   0  0  0  0  0  0  0  0  0  0  0  0
    1.7204   69.6478   81.4954 S   0  0  0  0  0  0  0  0  0  0  0  0
    2.1749   69.2573   80.1786 O   0  0  0  0  0  0  0  0  0  0  0  0
    0.3103   69.7667   81.8007 O   0  0  0  0  0  0  0  0  0  0  0  0
    2.4759   71.1286   81.8867 N   0  0  0  0  0  0  0  0  0  0  0  0
    3.0423   71.8864   80.7459 C   0  0  0  0  0  0  0  0  0  0  0  0
    4.0493   72.9015   81.2869 C   0  0  0  0  0  0  0  0  0  0  0  0
    3.5356   73.6558   82.5293 C   0  0  0  0  0  0  0  0  0  0  0  0
    2.0296   73.4590   82.7127 C   0  0  0  0  0  0  0  0  0  0  0  0
    1.6605   71.9762   82.8061 C   0  0  0  0  0  0  0  0  0  0  0  0
    3.9679   75.1270   82.5378 C   0  0  0  0  0  0  0  0  0  0  0  0
    4.5040   75.8780   84.0576 P   0  0  0  0  0  0  0  0  0  0  0  0
    5.8937   75.5908   84.5139 O   0  0  0  0  0  0  0  0  0  0  0  0
    3.4287   75.4661   85.1701 O   0  0  0  0  0  0  0  0  0  0  0  0
    4.2324   77.4508   83.9390 O   0  0  0  0  0  0  0  0  0  0  0  0
    3.7351   75.6456   86.0786 H   0  0  0  0  0  0  0  0  0  0  0  0
    4.6683   77.9632   84.6457 H   0  0  0  0  0  0  0  0  0  0  0  0
    4.0284   65.9443   85.5431 O   0  0  0  0  0  0  0  0  0  0  0  0
    5.3450   66.1723   86.0538 C   0  0  0  0  0  0  0  0  0  0  0  0
    7.4778   65.9645   84.7247 C   0  0  0  0  0  0  0  0  0  0  0  0
    6.2924   65.2271   85.3209 C   0  0  0  0  0  0  0  0  0  0  0  0
 40 41  1  0  0  0
 41 39  1  0  0  0
 39 38  1  0  0  0
 38  1  1  0  0  0
  1  2  1  0  0  0
  2  3  2  0  0  0
  3  4  1  0  0  0
  4 22  1  0  0  0
 22 23  2  0  0  0
 22 24  2  0  0  0
 22 25  1  0  0  0
 25 26  1  0  0  0
 26 27  1  0  0  0
 27 28  1  0  0  0
 28 31  1  0  0  0
 31 32  1  0  0  0
 32 33  2  0  0  0
 32 34  1  0  0  0
 32 35  1  0  0  0
 28 29  1  0  0  0
 29 30  1  0  0  0
  4  5  2  0  0  0
  5  6  1  0  0  0
  6  7  1  0  0  0
  7  8  2  0  0  0
  8  9  1  0  0  0
  9 10  1  0  0  0
 10 19  1  0  0  0
 19 20  1  0  0  0
 20 21  1  0  0  0
 10 11  2  0  0  0
 11 12  1  0  0  0
 12 13  1  0  0  0
 12 14  1  0  0  0
 14 15  1  0  0  0
 15 16  2  0  0  0
 15 17  1  0  0  0
  6  1  2  0  0  0
 17  7  1  0  0  0
 30 25  1  0  0  0
 14  9  2  0  0  0
 34 36  1  0  0  0
 35 37  1  0  0  0
 17 18  1  0  0  0
M  END
> <minimizedAffinity>
-9.88238

$$$$



 41 44  0  0  0  0  0  0  0  0999 V2000
    3.1730   67.1471   84.2956 C   0  0  0  0  0  0  0  0  0  0  0  0
    3.7904   68.2402   83.6673 C   0  0  0  0  0  0  0  0  0  0  0  0
    3.2092   68.8451   82.5512 C   0  0  0  0  0  0  0  0  0  0  0  0
    2.0021   68.3587   82.0543 C   0  0  0  0  0  0  0  0  0  0  0  0
    1.3620   67.2837   82.6715 C   0  0  0  0  0  0  0  0  0  0  0  0
    1.9419   66.6620   83.7933 C   0  0  0  0  0  0  0  0  0  0  0  0
    1.1920   65.4925   84.3778 C   0  0  0  0  0  0  0  0  0  0  0  0
    0.6505   64.6128   83.5786 N   0  0  0  0  0  0  0  0  0  0  0  0
   -0.0217   63.5815   84.2351 C   0  0  0  0  0  0  0  0  0  0  0  0
   -0.7225   62.4848   83.7078 C   0  0  0  0  0  0  0  0  0  0  0  0
   -1.2192   61.7199   84.6991 N   0  0  0  0  0  0  0  0  0  0  0  0
   -0.8313   62.3564   85.8322 N   0  0  0  0  0  0  0  0  0  0  0  0
   -1.1970   61.8198   87.1207 C   0  0  0  0  0  0  0  0  0  0  0  0
   -0.1073   63.4811   85.5904 C   0  0  0  0  0  0  0  0  0  0  0  0
    0.4829   64.4242   86.4657 C   0  0  0  0  0  0  0  0  0  0  0  0
    0.4571   64.3834   87.6900 O   0  0  0  0  0  0  0  0  0  0  0  0
    1.1161   65.4249   85.7653 N   0  0  0  0  0  0  0  0  0  0  0  0
    1.5797   66.1281   86.3257 H   0  0  0  0  0  0  0  0  0  0  0  0
   -0.9383   62.1234   82.2785 C   0  0  0  0  0  0  0  0  0  0  0  0
    0.3577   62.0090   81.4724 C   0  0  0  0  0  0  0  0  0  0  0  0
    1.3526   61.0270   82.0754 C   0  0  0  0  0  0  0  0  0  0  0  0
    1.2677   69.1548   80.6464 S   0  0  0  0  0  0  0  0  0  0  0  0
    2.2565   69.2455   79.5942 O   0  0  0  0  0  0  0  0  0  0  0  0
   -0.0124   68.5162   80.4238 O   0  0  0  0  0  0  0  0  0  0  0  0
    0.9799   70.7355   81.2253 N   0  0  0  0  0  0  0  0  0  0  0  0
    1.9450   71.7705   80.7852 C   0  0  0  0  0  0  0  0  0  0  0  0
    1.8318   72.9727   81.7228 C   0  0  0  0  0  0  0  0  0  0  0  0
    0.3721   73.3646   82.0261 C   0  0  0  0  0  0  0  0  0  0  0  0
   -0.5962   72.6848   81.0561 C   0  0  0  0  0  0  0  0  0  0  0  0
   -0.4434   71.1616   81.0795 C   0  0  0  0  0  0  0  0  0  0  0  0
    0.1836   74.8836   82.1176 C   0  0  0  0  0  0  0  0  0  0  0  0
   -0.1262   75.8225   80.6400 P   0  0  0  0  0  0  0  0  0  0  0  0
   -1.4959   75.7536   80.0558 O   0  0  0  0  0  0  0  0  0  0  0  0
    0.9838   75.3734   79.5770 O   0  0  0  0  0  0  0  0  0  0  0  0
    0.3203   77.3325   80.9270 O   0  0  0  0  0  0  0  0  0  0  0  0
    0.7802   75.6667   78.6693 H   0  0  0  0  0  0  0  0  0  0  0  0
    0.0111   77.9541   80.2414 H   0  0  0  0  0  0  0  0  0  0  0  0
    3.7046   66.5145   85.3917 O   0  0  0  0  0  0  0  0  0  0  0  0
    4.9229   65.7824   85.2310 C   0  0  0  0  0  0  0  0  0  0  0  0
    5.5834   65.7977   87.6646 C   0  0  0  0  0  0  0  0  0  0  0  0
    5.1276   64.9481   86.4921 C   0  0  0  0  0  0  0  0  0  0  0  0
 40 41  1  0  0  0
 41 39  1  0  0  0
 39 38  1  0  0  0
 38  1  1  0  0  0
  1  2  1  0  0  0
  2  3  2  0  0  0
  3  4  1  0  0  0
  4 22  1  0  0  0
 22 23  2  0  0  0
 22 24  2  0  0  0
 22 25  1  0  0  0
 25 26  1  0  0  0
 26 27  1  0  0  0
 27 28  1  0  0  0
 28 31  1  0  0  0
 31 32  1  0  0  0
 32 33  2  0  0  0
 32 34  1  0  0  0
 32 35  1  0  0  0
 28 29  1  0  0  0
 29 30  1  0  0  0
  4  5  2  0  0  0
  5  6  1  0  0  0
  6  7  1  0  0  0
  7  8  2  0  0  0
  8  9  1  0  0  0
  9 10  1  0  0  0
 10 19  1  0  0  0
 19 20  1  0  0  0
 20 21  1  0  0  0
 10 11  2  0  0  0
 11 12  1  0  0  0
 12 13  1  0  0  0
 12 14  1  0  0  0
 14 15  1  0  0  0
 15 16  2  0  0  0
 15 17  1  0  0  0
  6  1  2  0  0  0
 17  7  1  0  0  0
 30 25  1  0  0  0
 14  9  2  0  0  0
 34 36  1  0  0  0
 35 37  1  0  0  0
 17 18  1  0  0  0
M  END
> <minimizedAffinity>
-9.46932

$$$$



 41 44  0  0  0  0  0  0  0  0999 V2000
    3.4691   66.8322   84.5623 C   0  0  0  0  0  0  0  0  0  0  0  0
    4.1485   67.9309   84.0127 C   0  0  0  0  0  0  0  0  0  0  0  0
    3.5543   68.7171   83.0237 C   0  0  0  0  0  0  0  0  0  0  0  0
    2.2717   68.4083   82.5762 C   0  0  0  0  0  0  0  0  0  0  0  0
    1.5709   67.3310   83.1188 C   0  0  0  0  0  0  0  0  0  0  0  0
    2.1624   66.5276   84.1116 C   0  0  0  0  0  0  0  0  0  0  0  0
    1.3406   65.3710   84.6201 C   0  0  0  0  0  0  0  0  0  0  0  0
    0.7591   64.5720   83.7661 N   0  0  0  0  0  0  0  0  0  0  0  0
    0.0219   63.5444   84.3554 C   0  0  0  0  0  0  0  0  0  0  0  0
   -0.7340   62.5225   83.7587 C   0  0  0  0  0  0  0  0  0  0  0  0
   -1.2847   61.7308   84.6993 N   0  0  0  0  0  0  0  0  0  0  0  0
   -0.8742   62.2768   85.8710 N   0  0  0  0  0  0  0  0  0  0  0  0
   -1.2846   61.6878   87.1227 C   0  0  0  0  0  0  0  0  0  0  0  0
   -0.0848   63.3702   85.7017 C   0  0  0  0  0  0  0  0  0  0  0  0
    0.5481   64.2253   86.6357 C   0  0  0  0  0  0  0  0  0  0  0  0
    0.5060   64.1147   87.8553 O   0  0  0  0  0  0  0  0  0  0  0  0
    1.2451   65.2271   86.0006 N   0  0  0  0  0  0  0  0  0  0  0  0
    1.7415   65.8686   86.6051 H   0  0  0  0  0  0  0  0  0  0  0  0
   -0.9536   62.2580   82.3090 C   0  0  0  0  0  0  0  0  0  0  0  0
    0.3428   62.1006   81.5109 C   0  0  0  0  0  0  0  0  0  0  0  0
    1.2903   61.0683   82.1064 C   0  0  0  0  0  0  0  0  0  0  0  0
    1.5243   69.4329   81.3325 S   0  0  0  0  0  0  0  0  0  0  0  0
    1.4354   68.6799   80.1003 O   0  0  0  0  0  0  0  0  0  0  0  0
    0.3526   70.0348   81.9333 O   0  0  0  0  0  0  0  0  0  0  0  0
    2.6953   70.6557   81.1096 N   0  0  0  0  0  0  0  0  0  0  0  0
    3.5206   70.5445   79.8836 C   0  0  0  0  0  0  0  0  0  0  0  0
    4.7751   71.3998   80.0612 C   0  0  0  0  0  0  0  0  0  0  0  0
    4.4775   72.7879   80.6621 C   0  0  0  0  0  0  0  0  0  0  0  0
    2.9810   73.1023   80.6142 C   0  0  0  0  0  0  0  0  0  0  0  0
    2.1551   72.0300   81.3296 C   0  0  0  0  0  0  0  0  0  0  0  0
    5.3554   73.8872   80.0520 C   0  0  0  0  0  0  0  0  0  0  0  0
    5.7997   75.3032   81.0311 P   0  0  0  0  0  0  0  0  0  0  0  0
    6.2839   75.0553   82.4189 O   0  0  0  0  0  0  0  0  0  0  0  0
    4.5284   76.2765   81.0227 O   0  0  0  0  0  0  0  0  0  0  0  0
    6.8484   76.1648   80.1827 O   0  0  0  0  0  0  0  0  0  0  0  0
    4.5840   76.9790   81.6971 H   0  0  0  0  0  0  0  0  0  0  0  0
    7.2887   76.8538   80.7150 H   0  0  0  0  0  0  0  0  0  0  0  0
    4.0098   66.0257   85.5324 O   0  0  0  0  0  0  0  0  0  0  0  0
    5.2652   65.3924   85.2697 C   0  0  0  0  0  0  0  0  0  0  0  0
    5.4492   65.4654   87.7835 C   0  0  0  0  0  0  0  0  0  0  0  0
    6.1750   65.6615   86.4648 C   0  0  0  0  0  0  0  0  0  0  0  0
 40 41  1  0  0  0
 41 39  1  0  0  0
 39 38  1  0  0  0
 38  1  1  0  0  0
  1  2  1  0  0  0
  2  3  2  0  0  0
  3  4  1  0  0  0
  4 22  1  0  0  0
 22 23  2  0  0  0
 22 24  2  0  0  0
 22 25  1  0  0  0
 25 26  1  0  0  0
 26 27  1  0  0  0
 27 28  1  0  0  0
 28 31  1  0  0  0
 31 32  1  0  0  0
 32 33  2  0  0  0
 32 34  1  0  0  0
 32 35  1  0  0  0
 28 29  1  0  0  0
 29 30  1  0  0  0
  4  5  2  0  0  0
  5  6  1  0  0  0
  6  7  1  0  0  0
  7  8  2  0  0  0
  8  9  1  0  0  0
  9 10  1  0  0  0
 10 19  1  0  0  0
 19 20  1  0  0  0
 20 21  1  0  0  0
 10 11  2  0  0  0
 11 12  1  0  0  0
 12 13  1  0  0  0
 12 14  1  0  0  0
 14 15  1  0  0  0
 15 16  2  0  0  0
 15 17  1  0  0  0
  6  1  2  0  0  0
 17  7  1  0  0  0
 30 25  1  0  0  0
 14  9  2  0  0  0
 34 36  1  0  0  0
 35 37  1  0  0  0
 17 18  1  0  0  0
M  END
> <minimizedAffinity>
-9.44183

$$$$



 41 44  0  0  0  0  0  0  0  0999 V2000
    2.3403   64.9228   86.1259 C   0  0  0  0  0  0  0  0  0  0  0  0
    2.1042   64.0340   87.1866 C   0  0  0  0  0  0  0  0  0  0  0  0
    0.9319   63.2774   87.2379 C   0  0  0  0  0  0  0  0  0  0  0  0
   -0.0156   63.4054   86.2249 C   0  0  0  0  0  0  0  0  0  0  0  0
    0.2041   64.2704   85.1526 C   0  0  0  0  0  0  0  0  0  0  0  0
    1.3792   65.0429   85.0937 C   0  0  0  0  0  0  0  0  0  0  0  0
    1.5186   65.9680   83.9120 C   0  0  0  0  0  0  0  0  0  0  0  0
    1.0684   65.5914   82.7452 N   0  0  0  0  0  0  0  0  0  0  0  0
    1.2604   66.5279   81.7290 C   0  0  0  0  0  0  0  0  0  0  0  0
    0.9215   66.4615   80.3679 C   0  0  0  0  0  0  0  0  0  0  0  0
    1.2819   67.5947   79.7349 N   0  0  0  0  0  0  0  0  0  0  0  0
    1.8518   68.3485   80.7079 N   0  0  0  0  0  0  0  0  0  0  0  0
    2.3749   69.6557   80.3924 C   0  0  0  0  0  0  0  0  0  0  0  0
    1.8551   67.7376   81.9221 C   0  0  0  0  0  0  0  0  0  0  0  0
    2.3389   68.1590   83.1840 C   0  0  0  0  0  0  0  0  0  0  0  0
    2.8672   69.2373   83.4280 O   0  0  0  0  0  0  0  0  0  0  0  0
    2.1386   67.1920   84.1420 N   0  0  0  0  0  0  0  0  0  0  0  0
    2.4424   67.4301   85.0770 H   0  0  0  0  0  0  0  0  0  0  0  0
    0.2529   65.3515   79.6325 C   0  0  0  0  0  0  0  0  0  0  0  0
    1.1432   64.6915   78.5769 C   0  0  0  0  0  0  0  0  0  0  0  0
    0.7751   63.2390   78.3072 C   0  0  0  0  0  0  0  0  0  0  0  0
   -1.4911   62.4189   86.2968 S   0  0  0  0  0  0  0  0  0  0  0  0
   -1.2553   61.2914   87.1721 O   0  0  0  0  0  0  0  0  0  0  0  0
   -2.5939   63.3293   86.5221 O   0  0  0  0  0  0  0  0  0  0  0  0
   -1.6126   61.8207   84.7018 N   0  0  0  0  0  0  0  0  0  0  0  0
   -2.6451   62.4569   83.8500 C   0  0  0  0  0  0  0  0  0  0  0  0
   -2.9360   61.5348   82.6658 C   0  0  0  0  0  0  0  0  0  0  0  0
   -1.6587   60.9595   82.0225 C   0  0  0  0  0  0  0  0  0  0  0  0
   -0.4135   61.7114   82.4967 C   0  0  0  0  0  0  0  0  0  0  0  0
   -0.2894   61.6935   84.0225 C   0  0  0  0  0  0  0  0  0  0  0  0
   -1.7701   60.8576   80.4965 C   0  0  0  0  0  0  0  0  0  0  0  0
   -3.0117   59.8109   79.7727 P   0  0  0  0  0  0  0  0  0  0  0  0
   -2.6955   59.1731   78.4630 O   0  0  0  0  0  0  0  0  0  0  0  0
   -4.3487   60.6876   79.6861 O   0  0  0  0  0  0  0  0  0  0  0  0
   -3.4290   58.7272   80.8741 O   0  0  0  0  0  0  0  0  0  0  0  0
   -5.0297   60.2854   79.1153 H   0  0  0  0  0  0  0  0  0  0  0  0
   -3.9621   57.9988   80.5037 H   0  0  0  0  0  0  0  0  0  0  0  0
    3.4731   65.6920   86.0308 O   0  0  0  0  0  0  0  0  0  0  0  0
    4.7306   65.0959   86.3615 C   0  0  0  0  0  0  0  0  0  0  0  0
    5.6563   65.4012   88.6871 C   0  0  0  0  0  0  0  0  0  0  0  0
    5.4466   66.0378   87.3251 C   0  0  0  0  0  0  0  0  0  0  0  0
 40 41  1  0  0  0
 41 39  1  0  0  0
 39 38  1  0  0  0
 38  1  1  0  0  0
  1  2  1  0  0  0
  2  3  2  0  0  0
  3  4  1  0  0  0
  4 22  1  0  0  0
 22 23  2  0  0  0
 22 24  2  0  0  0
 22 25  1  0  0  0
 25 26  1  0  0  0
 26 27  1  0  0  0
 27 28  1  0  0  0
 28 31  1  0  0  0
 31 32  1  0  0  0
 32 33  2  0  0  0
 32 34  1  0  0  0
 32 35  1  0  0  0
 28 29  1  0  0  0
 29 30  1  0  0  0
  4  5  2  0  0  0
  5  6  1  0  0  0
  6  7  1  0  0  0
  7  8  2  0  0  0
  8  9  1  0  0  0
  9 10  1  0  0  0
 10 19  1  0  0  0
 19 20  1  0  0  0
 20 21  1  0  0  0
 10 11  2  0  0  0
 11 12  1  0  0  0
 12 13  1  0  0  0
 12 14  1  0  0  0
 14 15  1  0  0  0
 15 16  2  0  0  0
 15 17  1  0  0  0
  6  1  2  0  0  0
 17  7  1  0  0  0
 30 25  1  0  0  0
 14  9  2  0  0  0
 34 36  1  0  0  0
 35 37  1  0  0  0
 17 18  1  0  0  0
M  END
> <minimizedAffinity>
-9.35549

$$$$



 41 44  0  0  0  0  0  0  0  0999 V2000
   -0.1333   64.1912   84.3441 C   0  0  0  0  0  0  0  0  0  0  0  0
    0.5906   65.1883   85.0167 C   0  0  0  0  0  0  0  0  0  0  0  0
    1.3584   66.1150   84.3087 C   0  0  0  0  0  0  0  0  0  0  0  0
    1.4073   66.0501   82.9181 C   0  0  0  0  0  0  0  0  0  0  0  0
    0.6838   65.0780   82.2270 C   0  0  0  0  0  0  0  0  0  0  0  0
   -0.0884   64.1346   82.9305 C   0  0  0  0  0  0  0  0  0  0  0  0
   -0.8151   63.1066   82.1018 C   0  0  0  0  0  0  0  0  0  0  0  0
   -0.9238   63.2818   80.8121 N   0  0  0  0  0  0  0  0  0  0  0  0
   -1.6223   62.2687   80.1545 C   0  0  0  0  0  0  0  0  0  0  0  0
   -1.9396   62.1312   78.7936 C   0  0  0  0  0  0  0  0  0  0  0  0
   -2.6256   60.9915   78.5806 N   0  0  0  0  0  0  0  0  0  0  0  0
   -2.7372   60.4389   79.8142 N   0  0  0  0  0  0  0  0  0  0  0  0
   -3.4340   59.1866   79.9817 C   0  0  0  0  0  0  0  0  0  0  0  0
   -2.1435   61.1807   80.7862 C   0  0  0  0  0  0  0  0  0  0  0  0
   -2.0241   60.9770   82.1819 C   0  0  0  0  0  0  0  0  0  0  0  0
   -2.4541   60.0153   82.8076 O   0  0  0  0  0  0  0  0  0  0  0  0
   -1.3428   62.0122   82.7795 N   0  0  0  0  0  0  0  0  0  0  0  0
   -1.2008   61.9268   83.7775 H   0  0  0  0  0  0  0  0  0  0  0  0
   -1.6077   63.0485   77.6674 C   0  0  0  0  0  0  0  0  0  0  0  0
   -0.1057   63.2829   77.4895 C   0  0  0  0  0  0  0  0  0  0  0  0
    0.3253   64.6986   77.8472 C   0  0  0  0  0  0  0  0  0  0  0  0
    2.3727   67.2508   82.0340 S   0  0  0  0  0  0  0  0  0  0  0  0
    3.4949   67.6444   82.8580 O   0  0  0  0  0  0  0  0  0  0  0  0
    2.5662   66.7312   80.6966 O   0  0  0  0  0  0  0  0  0  0  0  0
    1.3074   68.5821   81.9382 N   0  0  0  0  0  0  0  0  0  0  0  0
    1.9387   69.9212   82.0081 C   0  0  0  0  0  0  0  0  0  0  0  0
    0.8653   70.9478   82.3700 C   0  0  0  0  0  0  0  0  0  0  0  0
   -0.4426   70.7569   81.5767 C   0  0  0  0  0  0  0  0  0  0  0  0
   -0.2361   69.8170   80.3873 C   0  0  0  0  0  0  0  0  0  0  0  0
    0.3156   68.4590   80.8293 C   0  0  0  0  0  0  0  0  0  0  0  0
   -1.0944   72.0922   81.1978 C   0  0  0  0  0  0  0  0  0  0  0  0
   -0.0758   73.5255   80.9350 P   0  0  0  0  0  0  0  0  0  0  0  0
    1.2910   73.3059   80.3821 O   0  0  0  0  0  0  0  0  0  0  0  0
   -0.0206   74.3042   82.3329 O   0  0  0  0  0  0  0  0  0  0  0  0
   -0.9164   74.5564   80.0450 O   0  0  0  0  0  0  0  0  0  0  0  0
    0.6771   74.9854   82.3603 H   0  0  0  0  0  0  0  0  0  0  0  0
   -0.3700   75.2845   79.6939 H   0  0  0  0  0  0  0  0  0  0  0  0
   -0.8988   63.2545   84.9926 O   0  0  0  0  0  0  0  0  0  0  0  0
   -0.4312   62.7401   86.2427 C   0  0  0  0  0  0  0  0  0  0  0  0
   -2.8152   63.0135   87.0175 C   0  0  0  0  0  0  0  0  0  0  0  0
   -1.3538   63.2750   87.3340 C   0  0  0  0  0  0  0  0  0  0  0  0
 40 41  1  0  0  0
 41 39  1  0  0  0
 39 38  1  0  0  0
 38  1  1  0  0  0
  1  2  1  0  0  0
  2  3  2  0  0  0
  3  4  1  0  0  0
  4 22  1  0  0  0
 22 23  2  0  0  0
 22 24  2  0  0  0
 22 25  1  0  0  0
 25 26  1  0  0  0
 26 27  1  0  0  0
 27 28  1  0  0  0
 28 31  1  0  0  0
 31 32  1  0  0  0
 32 33  2  0  0  0
 32 34  1  0  0  0
 32 35  1  0  0  0
 28 29  1  0  0  0
 29 30  1  0  0  0
  4  5  2  0  0  0
  5  6  1  0  0  0
  6  7  1  0  0  0
  7  8  2  0  0  0
  8  9  1  0  0  0
  9 10  1  0  0  0
 10 19  1  0  0  0
 19 20  1  0  0  0
 20 21  1  0  0  0
 10 11  2  0  0  0
 11 12  1  0  0  0
 12 13  1  0  0  0
 12 14  1  0  0  0
 14 15  1  0  0  0
 15 16  2  0  0  0
 15 17  1  0  0  0
  6  1  2  0  0  0
 17  7  1  0  0  0
 30 25  1  0  0  0
 14  9  2  0  0  0
 34 36  1  0  0  0
 35 37  1  0  0  0
 17 18  1  0  0  0
M  END
> <minimizedAffinity>
-9.22336

$$$$



 41 44  0  0  0  0  0  0  0  0999 V2000
    2.8526   67.9773   83.5207 C   0  0  0  0  0  0  0  0  0  0  0  0
    2.3371   66.6825   83.6899 C   0  0  0  0  0  0  0  0  0  0  0  0
    1.5082   66.1110   82.7225 C   0  0  0  0  0  0  0  0  0  0  0  0
    1.1884   66.8335   81.5753 C   0  0  0  0  0  0  0  0  0  0  0  0
    1.7016   68.1156   81.3777 C   0  0  0  0  0  0  0  0  0  0  0  0
    2.5328   68.7043   82.3491 C   0  0  0  0  0  0  0  0  0  0  0  0
    3.0190   70.1018   82.0620 C   0  0  0  0  0  0  0  0  0  0  0  0
    3.8251   70.3069   81.0550 N   0  0  0  0  0  0  0  0  0  0  0  0
    4.2114   71.6379   80.8940 C   0  0  0  0  0  0  0  0  0  0  0  0
    5.0655   72.2184   79.9426 C   0  0  0  0  0  0  0  0  0  0  0  0
    5.1625   73.5471   80.1423 N   0  0  0  0  0  0  0  0  0  0  0  0
    4.3762   73.7759   81.2236 N   0  0  0  0  0  0  0  0  0  0  0  0
    4.2394   75.1147   81.7440 C   0  0  0  0  0  0  0  0  0  0  0  0
    3.7868   72.6484   81.7020 C   0  0  0  0  0  0  0  0  0  0  0  0
    2.9067   72.4384   82.7907 C   0  0  0  0  0  0  0  0  0  0  0  0
    2.4750   73.3034   83.5435 O   0  0  0  0  0  0  0  0  0  0  0  0
    2.5731   71.1091   82.9117 N   0  0  0  0  0  0  0  0  0  0  0  0
    1.9295   70.8837   83.6588 H   0  0  0  0  0  0  0  0  0  0  0  0
    5.8005   71.5545   78.8295 C   0  0  0  0  0  0  0  0  0  0  0  0
    6.6126   72.5234   77.9668 C   0  0  0  0  0  0  0  0  0  0  0  0
    8.0956   72.5320   78.3112 C   0  0  0  0  0  0  0  0  0  0  0  0
    0.1497   66.0813   80.3462 S   0  0  0  0  0  0  0  0  0  0  0  0
   -1.1250   66.7654   80.3316 O   0  0  0  0  0  0  0  0  0  0  0  0
    0.9478   65.9505   79.1454 O   0  0  0  0  0  0  0  0  0  0  0  0
   -0.1074   64.5192   80.9867 N   0  0  0  0  0  0  0  0  0  0  0  0
   -1.3952   64.3133   81.6906 C   0  0  0  0  0  0  0  0  0  0  0  0
   -1.2754   63.0705   82.5727 C   0  0  0  0  0  0  0  0  0  0  0  0
   -0.5950   61.8871   81.8565 C   0  0  0  0  0  0  0  0  0  0  0  0
   -0.5174   62.1243   80.3471 C   0  0  0  0  0  0  0  0  0  0  0  0
    0.2111   63.4298   80.0169 C   0  0  0  0  0  0  0  0  0  0  0  0
   -1.2212   60.5393   82.2345 C   0  0  0  0  0  0  0  0  0  0  0  0
   -2.9532   60.2614   81.9443 P   0  0  0  0  0  0  0  0  0  0  0  0
   -3.6785   61.2576   81.1055 O   0  0  0  0  0  0  0  0  0  0  0  0
   -3.6345   60.1066   83.3849 O   0  0  0  0  0  0  0  0  0  0  0  0
   -3.1125   58.7758   81.3707 O   0  0  0  0  0  0  0  0  0  0  0  0
   -4.6078   60.1621   83.3521 H   0  0  0  0  0  0  0  0  0  0  0  0
   -4.0013   58.6055   81.0059 H   0  0  0  0  0  0  0  0  0  0  0  0
    3.6671   68.5859   84.4427 O   0  0  0  0  0  0  0  0  0  0  0  0
    4.4270   67.7604   85.3300 C   0  0  0  0  0  0  0  0  0  0  0  0
    6.1951   66.1153   84.6050 C   0  0  0  0  0  0  0  0  0  0  0  0
    5.8125   67.5800   84.7168 C   0  0  0  0  0  0  0  0  0  0  0  0
 40 41  1  0  0  0
 41 39  1  0  0  0
 39 38  1  0  0  0
 38  1  1  0  0  0
  1  2  1  0  0  0
  2  3  2  0  0  0
  3  4  1  0  0  0
  4 22  1  0  0  0
 22 23  2  0  0  0
 22 24  2  0  0  0
 22 25  1  0  0  0
 25 26  1  0  0  0
 26 27  1  0  0  0
 27 28  1  0  0  0
 28 31  1  0  0  0
 31 32  1  0  0  0
 32 33  2  0  0  0
 32 34  1  0  0  0
 32 35  1  0  0  0
 28 29  1  0  0  0
 29 30  1  0  0  0
  4  5  2  0  0  0
  5  6  1  0  0  0
  6  7  1  0  0  0
  7  8  2  0  0  0
  8  9  1  0  0  0
  9 10  1  0  0  0
 10 19  1  0  0  0
 19 20  1  0  0  0
 20 21  1  0  0  0
 10 11  2  0  0  0
 11 12  1  0  0  0
 12 13  1  0  0  0
 12 14  1  0  0  0
 14 15  1  0  0  0
 15 16  2  0  0  0
 15 17  1  0  0  0
  6  1  2  0  0  0
 17  7  1  0  0  0
 30 25  1  0  0  0
 14  9  2  0  0  0
 34 36  1  0  0  0
 35 37  1  0  0  0
 17 18  1  0  0  0
M  END
> <minimizedAffinity>
-9.18184

$$$$



 41 44  0  0  0  0  0  0  0  0999 V2000
    1.7073   68.4919   82.2373 C   0  0  0  0  0  0  0  0  0  0  0  0
    1.0583   68.8920   81.0585 C   0  0  0  0  0  0  0  0  0  0  0  0
    0.6558   67.9506   80.1092 C   0  0  0  0  0  0  0  0  0  0  0  0
    0.9009   66.5977   80.3335 C   0  0  0  0  0  0  0  0  0  0  0  0
    1.5300   66.1750   81.5047 C   0  0  0  0  0  0  0  0  0  0  0  0
    1.9459   67.1155   82.4657 C   0  0  0  0  0  0  0  0  0  0  0  0
    2.6398   66.5688   83.6869 C   0  0  0  0  0  0  0  0  0  0  0  0
    1.9819   65.7923   84.5055 N   0  0  0  0  0  0  0  0  0  0  0  0
    2.7267   65.3551   85.6013 C   0  0  0  0  0  0  0  0  0  0  0  0
    2.3502   64.5322   86.6750 C   0  0  0  0  0  0  0  0  0  0  0  0
    3.3849   64.3522   87.5185 N   0  0  0  0  0  0  0  0  0  0  0  0
    4.3904   65.0752   86.9654 N   0  0  0  0  0  0  0  0  0  0  0  0
    5.6799   65.1264   87.6108 C   0  0  0  0  0  0  0  0  0  0  0  0
    4.0297   65.6920   85.8091 C   0  0  0  0  0  0  0  0  0  0  0  0
    4.7543   66.5259   84.9240 C   0  0  0  0  0  0  0  0  0  0  0  0
    5.9291   66.8528   85.0438 O   0  0  0  0  0  0  0  0  0  0  0  0
    3.9676   66.9396   83.8738 N   0  0  0  0  0  0  0  0  0  0  0  0
    4.4240   67.5253   83.1868 H   0  0  0  0  0  0  0  0  0  0  0  0
    1.0291   63.8940   86.9345 C   0  0  0  0  0  0  0  0  0  0  0  0
    0.8648   63.3854   88.3686 C   0  0  0  0  0  0  0  0  0  0  0  0
   -0.5913   63.2235   88.7829 C   0  0  0  0  0  0  0  0  0  0  0  0
    0.3625   65.4135   79.1240 S   0  0  0  0  0  0  0  0  0  0  0  0
   -0.8964   65.8571   78.5659 O   0  0  0  0  0  0  0  0  0  0  0  0
    1.5027   65.1296   78.2783 O   0  0  0  0  0  0  0  0  0  0  0  0
    0.0491   64.0308   80.0760 N   0  0  0  0  0  0  0  0  0  0  0  0
   -1.1670   64.0900   80.9209 C   0  0  0  0  0  0  0  0  0  0  0  0
   -1.0544   63.0258   82.0126 C   0  0  0  0  0  0  0  0  0  0  0  0
   -0.5556   61.6677   81.4805 C   0  0  0  0  0  0  0  0  0  0  0  0
   -0.6235   61.6131   79.9531 C   0  0  0  0  0  0  0  0  0  0  0  0
    0.1695   62.7544   79.3110 C   0  0  0  0  0  0  0  0  0  0  0  0
   -1.2456   60.4834   82.1682 C   0  0  0  0  0  0  0  0  0  0  0  0
   -2.9790   60.1961   81.8963 P   0  0  0  0  0  0  0  0  0  0  0  0
   -3.7329   61.2218   81.1208 O   0  0  0  0  0  0  0  0  0  0  0  0
   -3.6310   59.9617   83.3398 O   0  0  0  0  0  0  0  0  0  0  0  0
   -3.1299   58.7381   81.2536 O   0  0  0  0  0  0  0  0  0  0  0  0
   -4.6053   60.0052   83.3275 H   0  0  0  0  0  0  0  0  0  0  0  0
   -4.0231   58.5736   80.8971 H   0  0  0  0  0  0  0  0  0  0  0  0
    2.1267   69.3768   83.1991 O   0  0  0  0  0  0  0  0  0  0  0  0
    2.9173   70.4980   82.7944 C   0  0  0  0  0  0  0  0  0  0  0  0
    2.7621   72.9931   83.1244 C   0  0  0  0  0  0  0  0  0  0  0  0
    2.0064   71.7221   82.7813 C   0  0  0  0  0  0  0  0  0  0  0  0
 40 41  1  0  0  0
 41 39  1  0  0  0
 39 38  1  0  0  0
 38  1  1  0  0  0
  1  2  1  0  0  0
  2  3  2  0  0  0
  3  4  1  0  0  0
  4 22  1  0  0  0
 22 23  2  0  0  0
 22 24  2  0  0  0
 22 25  1  0  0  0
 25 26  1  0  0  0
 26 27  1  0  0  0
 27 28  1  0  0  0
 28 31  1  0  0  0
 31 32  1  0  0  0
 32 33  2  0  0  0
 32 34  1  0  0  0
 32 35  1  0  0  0
 28 29  1  0  0  0
 29 30  1  0  0  0
  4  5  2  0  0  0
  5  6  1  0  0  0
  6  7  1  0  0  0
  7  8  2  0  0  0
  8  9  1  0  0  0
  9 10  1  0  0  0
 10 19  1  0  0  0
 19 20  1  0  0  0
 20 21  1  0  0  0
 10 11  2  0  0  0
 11 12  1  0  0  0
 12 13  1  0  0  0
 12 14  1  0  0  0
 14 15  1  0  0  0
 15 16  2  0  0  0
 15 17  1  0  0  0
  6  1  2  0  0  0
 17  7  1  0  0  0
 30 25  1  0  0  0
 14  9  2  0  0  0
 34 36  1  0  0  0
 35 37  1  0  0  0
 17 18  1  0  0  0
M  END
> <minimizedAffinity>
-9.14456

$$$$
