


 36 42  0  0  0  0  0  0  0  0999 V2000
    1.5255   63.6305   82.7860 O   0  0  0  0  0  0  0  0  0  0  0  0
    0.9996   64.6538   82.3472 C   0  0  0  0  0  0  0  0  0  0  0  0
    0.7290   65.7729   83.1665 N   0  0  0  0  0  0  0  0  0  0  0  0
    1.1615   67.0964   82.6452 C   0  0  0  0  0  0  0  0  0  0  0  0
    2.7033   67.2844   82.7369 C   0  0  0  0  0  0  0  0  0  0  0  0
    3.2694   66.5863   83.9362 C   0  0  0  0  0  0  0  0  0  0  0  0
    2.4802   65.8003   84.7615 C   0  0  0  0  0  0  0  0  0  0  0  0
    3.3053   65.1590   85.6422 N   0  0  0  0  0  0  0  0  0  0  0  0
    4.6008   65.6045   85.4802 C   0  0  0  0  0  0  0  0  0  0  0  0
    5.7631   65.2626   86.1819 C   0  0  0  0  0  0  0  0  0  0  0  0
    6.9636   65.8529   85.7756 C   0  0  0  0  0  0  0  0  0  0  0  0
    7.0002   66.7419   84.7036 C   0  0  0  0  0  0  0  0  0  0  0  0
    5.8311   67.0688   84.0068 C   0  0  0  0  0  0  0  0  0  0  0  0
    4.6068   66.4983   84.4057 C   0  0  0  0  0  0  0  0  0  0  0  0
    0.9865   65.6569   84.6168 C   0  0  0  0  0  0  0  0  0  0  0  0
    3.0240   64.4483   86.3038 H   0  0  0  0  0  0  0  0  0  0  0  0
    0.2641   64.6017   85.4521 C   0  0  0  0  0  0  0  0  0  0  0  0
    0.6337   64.4509   86.8191 C   0  0  0  0  0  0  0  0  0  0  0  0
    0.0012   63.5334   87.6642 C   0  0  0  0  0  0  0  0  0  0  0  0
   -1.0313   62.7905   87.1428 C   0  0  0  0  0  0  0  0  0  0  0  0
   -1.4404   62.9381   85.8304 C   0  0  0  0  0  0  0  0  0  0  0  0
   -0.8176   63.8389   84.9789 C   0  0  0  0  0  0  0  0  0  0  0  0
   -2.5282   61.9762   85.5473 C   0  0  0  0  0  0  0  0  0  0  0  0
   -2.8746   61.5755   86.9822 C   0  0  0  0  0  0  0  0  0  0  0  0
   -1.7442   61.8536   87.8428 O   0  0  0  0  0  0  0  0  0  0  0  0
    0.5910   64.7227   80.9516 C   0  0  0  0  0  0  0  0  0  0  0  0
    1.0240   65.5551   79.9365 C   0  0  0  0  0  0  0  0  0  0  0  0
    0.3315   65.1679   78.7636 C   0  0  0  0  0  0  0  0  0  0  0  0
   -0.4826   64.1075   79.1138 C   0  0  0  0  0  0  0  0  0  0  0  0
   -0.3052   63.8256   80.4405 O   0  0  0  0  0  0  0  0  0  0  0  0
   -1.4353   63.2676   78.3928 C   0  0  0  0  0  0  0  0  0  0  0  0
   -1.6941   63.4526   77.0372 C   0  0  0  0  0  0  0  0  0  0  0  0
   -2.6197   62.6213   76.4092 C   0  0  0  0  0  0  0  0  0  0  0  0
   -3.2593   61.6341   77.1480 C   0  0  0  0  0  0  0  0  0  0  0  0
   -2.9467   61.5186   78.4912 C   0  0  0  0  0  0  0  0  0  0  0  0
   -2.0566   62.3108   79.1264 N   0  0  0  0  0  0  0  0  0  0  0  0
  1  2  2  0  0  0
  2 26  1  0  0  0
 26 27  2  0  0  0
 27 28  1  0  0  0
 28 29  2  0  0  0
 29 31  1  0  0  0
 31 32  2  0  0  0
 32 33  1  0  0  0
 33 34  2  0  0  0
 34 35  1  0  0  0
 35 36  2  0  0  0
 29 30  1  0  0  0
  2  3  1  0  0  0
  3  4  1  0  0  0
  4  5  1  0  0  0
  5  6  1  0  0  0
  6  7  2  0  0  0
  7  8  1  0  0  0
  8  9  1  0  0  0
  9 10  2  0  0  0
 10 11  1  0  0  0
 11 12  2  0  0  0
 12 13  1  0  0  0
 13 14  2  0  0  0
  7 15  1  0  0  0
 15 17  1  0  0  0
 17 18  1  0  0  0
 18 19  2  0  0  0
 19 20  1  0  0  0
 20 21  2  0  0  0
 21 22  1  0  0  0
 21 23  1  0  0  0
 23 24  1  0  0  0
 24 25  1  0  0  0
 30 26  1  0  0  0
 15  3  1  0  0  0
 22 17  2  0  0  0
 36 31  1  0  0  0
 14  6  1  0  0  0
 25 20  1  0  0  0
 14  9  1  0  0  0
  8 16  1  0  0  0
M  END
> <minimizedAffinity>
-11.83587

$$$$



 36 42  0  0  0  0  0  0  0  0999 V2000
   -1.5227   65.5062   81.3148 O   0  0  0  0  0  0  0  0  0  0  0  0
   -0.4407   65.9805   80.9677 C   0  0  0  0  0  0  0  0  0  0  0  0
    0.7393   65.2048   80.9127 N   0  0  0  0  0  0  0  0  0  0  0  0
    1.5459   65.3119   79.6685 C   0  0  0  0  0  0  0  0  0  0  0  0
    0.8846   64.5599   78.4776 C   0  0  0  0  0  0  0  0  0  0  0  0
    0.1459   63.3414   78.9420 C   0  0  0  0  0  0  0  0  0  0  0  0
    0.0169   63.0368   80.2884 C   0  0  0  0  0  0  0  0  0  0  0  0
   -0.8530   61.9886   80.3985 N   0  0  0  0  0  0  0  0  0  0  0  0
   -1.1985   61.5323   79.1434 C   0  0  0  0  0  0  0  0  0  0  0  0
   -2.0222   60.4632   78.7710 C   0  0  0  0  0  0  0  0  0  0  0  0
   -2.2259   60.2463   77.4049 C   0  0  0  0  0  0  0  0  0  0  0  0
   -1.6366   61.0726   76.4506 C   0  0  0  0  0  0  0  0  0  0  0  0
   -0.8211   62.1423   76.8380 C   0  0  0  0  0  0  0  0  0  0  0  0
   -0.5889   62.3731   78.2078 C   0  0  0  0  0  0  0  0  0  0  0  0
    0.6830   63.8102   81.3978 C   0  0  0  0  0  0  0  0  0  0  0  0
   -1.2127   61.6088   81.2635 H   0  0  0  0  0  0  0  0  0  0  0  0
    0.2948   63.5056   82.8433 C   0  0  0  0  0  0  0  0  0  0  0  0
   -0.3834   62.2840   83.1190 C   0  0  0  0  0  0  0  0  0  0  0  0
   -0.7454   61.9104   84.4172 C   0  0  0  0  0  0  0  0  0  0  0  0
   -0.3918   62.7506   85.4462 C   0  0  0  0  0  0  0  0  0  0  0  0
    0.2995   63.9259   85.2180 C   0  0  0  0  0  0  0  0  0  0  0  0
    0.6586   64.3127   83.9351 C   0  0  0  0  0  0  0  0  0  0  0  0
    0.4905   64.6367   86.5014 C   0  0  0  0  0  0  0  0  0  0  0  0
    0.1356   63.5000   87.4612 C   0  0  0  0  0  0  0  0  0  0  0  0
   -0.6764   62.5232   86.7666 O   0  0  0  0  0  0  0  0  0  0  0  0
   -0.3356   67.3954   80.6415 C   0  0  0  0  0  0  0  0  0  0  0  0
   -0.9496   68.1274   79.6425 C   0  0  0  0  0  0  0  0  0  0  0  0
   -0.5334   69.4715   79.8025 C   0  0  0  0  0  0  0  0  0  0  0  0
    0.3051   69.5003   80.9007 C   0  0  0  0  0  0  0  0  0  0  0  0
    0.4051   68.2394   81.4213 O   0  0  0  0  0  0  0  0  0  0  0  0
    1.0581   70.5477   81.5855 C   0  0  0  0  0  0  0  0  0  0  0  0
    0.5109   71.8057   81.8235 C   0  0  0  0  0  0  0  0  0  0  0  0
    1.2845   72.7636   82.4763 C   0  0  0  0  0  0  0  0  0  0  0  0
    2.5770   72.4416   82.8705 C   0  0  0  0  0  0  0  0  0  0  0  0
    3.0458   71.1693   82.5933 C   0  0  0  0  0  0  0  0  0  0  0  0
    2.3203   70.2223   81.9607 N   0  0  0  0  0  0  0  0  0  0  0  0
  1  2  2  0  0  0
  2 26  1  0  0  0
 26 27  2  0  0  0
 27 28  1  0  0  0
 28 29  2  0  0  0
 29 31  1  0  0  0
 31 32  2  0  0  0
 32 33  1  0  0  0
 33 34  2  0  0  0
 34 35  1  0  0  0
 35 36  2  0  0  0
 29 30  1  0  0  0
  2  3  1  0  0  0
  3  4  1  0  0  0
  4  5  1  0  0  0
  5  6  1  0  0  0
  6  7  2  0  0  0
  7  8  1  0  0  0
  8  9  1  0  0  0
  9 10  2  0  0  0
 10 11  1  0  0  0
 11 12  2  0  0  0
 12 13  1  0  0  0
 13 14  2  0  0  0
  7 15  1  0  0  0
 15 17  1  0  0  0
 17 18  1  0  0  0
 18 19  2  0  0  0
 19 20  1  0  0  0
 20 21  2  0  0  0
 21 22  1  0  0  0
 21 23  1  0  0  0
 23 24  1  0  0  0
 24 25  1  0  0  0
 30 26  1  0  0  0
 15  3  1  0  0  0
 22 17  2  0  0  0
 36 31  1  0  0  0
 14  6  1  0  0  0
 25 20  1  0  0  0
 14  9  1  0  0  0
  8 16  1  0  0  0
M  END
> <minimizedAffinity>
-11.19630

$$$$



 36 42  0  0  0  0  0  0  0  0999 V2000
   -1.6326   65.5626   81.2657 O   0  0  0  0  0  0  0  0  0  0  0  0
   -0.5336   66.0509   81.0012 C   0  0  0  0  0  0  0  0  0  0  0  0
    0.6632   65.3045   81.0881 N   0  0  0  0  0  0  0  0  0  0  0  0
    1.5804   65.3838   79.9207 C   0  0  0  0  0  0  0  0  0  0  0  0
    1.0506   64.5691   78.7057 C   0  0  0  0  0  0  0  0  0  0  0  0
    0.2988   63.3509   79.1494 C   0  0  0  0  0  0  0  0  0  0  0  0
    0.0508   63.0958   80.4894 C   0  0  0  0  0  0  0  0  0  0  0  0
   -0.8021   62.0305   80.5615 N   0  0  0  0  0  0  0  0  0  0  0  0
   -1.0181   61.5168   79.2995 C   0  0  0  0  0  0  0  0  0  0  0  0
   -1.7794   60.4130   78.8968 C   0  0  0  0  0  0  0  0  0  0  0  0
   -1.8492   60.1377   77.5278 C   0  0  0  0  0  0  0  0  0  0  0  0
   -1.1914   60.9412   76.5990 C   0  0  0  0  0  0  0  0  0  0  0  0
   -0.4398   62.0459   77.0160 C   0  0  0  0  0  0  0  0  0  0  0  0
   -0.3423   62.3359   78.3907 C   0  0  0  0  0  0  0  0  0  0  0  0
    0.5927   63.9289   81.6230 C   0  0  0  0  0  0  0  0  0  0  0  0
   -1.2328   61.6755   81.4043 H   0  0  0  0  0  0  0  0  0  0  0  0
    0.0774   63.6709   83.0375 C   0  0  0  0  0  0  0  0  0  0  0  0
    0.7819   64.2509   84.1309 C   0  0  0  0  0  0  0  0  0  0  0  0
    0.3603   64.0941   85.4552 C   0  0  0  0  0  0  0  0  0  0  0  0
   -0.7944   63.3822   85.6783 C   0  0  0  0  0  0  0  0  0  0  0  0
   -1.5231   62.8374   84.6374 C   0  0  0  0  0  0  0  0  0  0  0  0
   -1.1130   62.9787   83.3197 C   0  0  0  0  0  0  0  0  0  0  0  0
   -2.6766   62.0918   85.1872 C   0  0  0  0  0  0  0  0  0  0  0  0
   -2.6538   62.6336   86.6173 C   0  0  0  0  0  0  0  0  0  0  0  0
   -1.3316   63.1425   86.9151 O   0  0  0  0  0  0  0  0  0  0  0  0
   -0.4298   67.4543   80.6281 C   0  0  0  0  0  0  0  0  0  0  0  0
   -0.9872   68.1365   79.5630 C   0  0  0  0  0  0  0  0  0  0  0  0
   -0.6045   69.4932   79.6980 C   0  0  0  0  0  0  0  0  0  0  0  0
    0.1579   69.5791   80.8474 C   0  0  0  0  0  0  0  0  0  0  0  0
    0.2431   68.3407   81.4221 O   0  0  0  0  0  0  0  0  0  0  0  0
    0.8463   70.6654   81.5396 C   0  0  0  0  0  0  0  0  0  0  0  0
    0.2957   71.9412   81.6285 C   0  0  0  0  0  0  0  0  0  0  0  0
    1.0067   72.9358   82.2973 C   0  0  0  0  0  0  0  0  0  0  0  0
    2.2420   72.6317   82.8551 C   0  0  0  0  0  0  0  0  0  0  0  0
    2.7188   71.3395   82.7195 C   0  0  0  0  0  0  0  0  0  0  0  0
    2.0535   70.3567   82.0754 N   0  0  0  0  0  0  0  0  0  0  0  0
  1  2  2  0  0  0
  2 26  1  0  0  0
 26 27  2  0  0  0
 27 28  1  0  0  0
 28 29  2  0  0  0
 29 31  1  0  0  0
 31 32  2  0  0  0
 32 33  1  0  0  0
 33 34  2  0  0  0
 34 35  1  0  0  0
 35 36  2  0  0  0
 29 30  1  0  0  0
  2  3  1  0  0  0
  3  4  1  0  0  0
  4  5  1  0  0  0
  5  6  1  0  0  0
  6  7  2  0  0  0
  7  8  1  0  0  0
  8  9  1  0  0  0
  9 10  2  0  0  0
 10 11  1  0  0  0
 11 12  2  0  0  0
 12 13  1  0  0  0
 13 14  2  0  0  0
  7 15  1  0  0  0
 15 17  1  0  0  0
 17 18  1  0  0  0
 18 19  2  0  0  0
 19 20  1  0  0  0
 20 21  2  0  0  0
 21 22  1  0  0  0
 21 23  1  0  0  0
 23 24  1  0  0  0
 24 25  1  0  0  0
 30 26  1  0  0  0
 15  3  1  0  0  0
 22 17  2  0  0  0
 36 31  1  0  0  0
 14  6  1  0  0  0
 25 20  1  0  0  0
 14  9  1  0  0  0
  8 16  1  0  0  0
M  END
> <minimizedAffinity>
-11.10155

$$$$



 36 42  0  0  0  0  0  0  0  0999 V2000
   -1.7909   65.3558   81.7116 O   0  0  0  0  0  0  0  0  0  0  0  0
   -0.6761   65.6067   81.2527 C   0  0  0  0  0  0  0  0  0  0  0  0
    0.3715   64.6582   81.2570 N   0  0  0  0  0  0  0  0  0  0  0  0
    1.1021   64.4714   79.9758 C   0  0  0  0  0  0  0  0  0  0  0  0
    0.2616   63.6770   78.9350 C   0  0  0  0  0  0  0  0  0  0  0  0
   -0.6155   62.6605   79.6010 C   0  0  0  0  0  0  0  0  0  0  0  0
   -0.6995   62.5633   80.9814 C   0  0  0  0  0  0  0  0  0  0  0  0
   -1.7043   61.6861   81.2786 N   0  0  0  0  0  0  0  0  0  0  0  0
   -2.1941   61.1237   80.1180 C   0  0  0  0  0  0  0  0  0  0  0  0
   -3.1879   60.1540   79.9390 C   0  0  0  0  0  0  0  0  0  0  0  0
   -3.5099   59.7892   78.6282 C   0  0  0  0  0  0  0  0  0  0  0  0
   -2.8696   60.3789   77.5406 C   0  0  0  0  0  0  0  0  0  0  0  0
   -1.8828   61.3525   77.7347 C   0  0  0  0  0  0  0  0  0  0  0  0
   -1.5305   61.7270   79.0459 C   0  0  0  0  0  0  0  0  0  0  0  0
    0.1436   63.3671   81.9384 C   0  0  0  0  0  0  0  0  0  0  0  0
   -2.0585   61.4861   82.2040 H   0  0  0  0  0  0  0  0  0  0  0  0
   -0.1899   63.3232   83.4284 C   0  0  0  0  0  0  0  0  0  0  0  0
    0.6639   64.0157   84.3338 C   0  0  0  0  0  0  0  0  0  0  0  0
    0.4139   64.0559   85.7093 C   0  0  0  0  0  0  0  0  0  0  0  0
   -0.7185   63.4285   86.1718 C   0  0  0  0  0  0  0  0  0  0  0  0
   -1.5885   62.7789   85.3160 C   0  0  0  0  0  0  0  0  0  0  0  0
   -1.3495   62.7247   83.9506 C   0  0  0  0  0  0  0  0  0  0  0  0
   -2.6782   62.1620   86.1040 C   0  0  0  0  0  0  0  0  0  0  0  0
   -2.4575   62.8900   87.4309 C   0  0  0  0  0  0  0  0  0  0  0  0
   -1.0963   63.3797   87.4874 O   0  0  0  0  0  0  0  0  0  0  0  0
   -0.3867   66.9316   80.7235 C   0  0  0  0  0  0  0  0  0  0  0  0
   -0.9836   67.6278   79.6892 C   0  0  0  0  0  0  0  0  0  0  0  0
   -0.3468   68.8908   79.6221 C   0  0  0  0  0  0  0  0  0  0  0  0
    0.6007   68.9126   80.6279 C   0  0  0  0  0  0  0  0  0  0  0  0
    0.5579   67.7275   81.3095 O   0  0  0  0  0  0  0  0  0  0  0  0
    1.5789   69.8934   81.0907 C   0  0  0  0  0  0  0  0  0  0  0  0
    2.8251   70.0263   80.4839 C   0  0  0  0  0  0  0  0  0  0  0  0
    3.7161   70.9772   80.9779 C   0  0  0  0  0  0  0  0  0  0  0  0
    3.3412   71.7645   82.0592 C   0  0  0  0  0  0  0  0  0  0  0  0
    2.0853   71.5670   82.6059 C   0  0  0  0  0  0  0  0  0  0  0  0
    1.2027   70.6523   82.1501 N   0  0  0  0  0  0  0  0  0  0  0  0
  1  2  2  0  0  0
  2 26  1  0  0  0
 26 27  2  0  0  0
 27 28  1  0  0  0
 28 29  2  0  0  0
 29 31  1  0  0  0
 31 32  2  0  0  0
 32 33  1  0  0  0
 33 34  2  0  0  0
 34 35  1  0  0  0
 35 36  2  0  0  0
 29 30  1  0  0  0
  2  3  1  0  0  0
  3  4  1  0  0  0
  4  5  1  0  0  0
  5  6  1  0  0  0
  6  7  2  0  0  0
  7  8  1  0  0  0
  8  9  1  0  0  0
  9 10  2  0  0  0
 10 11  1  0  0  0
 11 12  2  0  0  0
 12 13  1  0  0  0
 13 14  2  0  0  0
  7 15  1  0  0  0
 15 17  1  0  0  0
 17 18  1  0  0  0
 18 19  2  0  0  0
 19 20  1  0  0  0
 20 21  2  0  0  0
 21 22  1  0  0  0
 21 23  1  0  0  0
 23 24  1  0  0  0
 24 25  1  0  0  0
 30 26  1  0  0  0
 15  3  1  0  0  0
 22 17  2  0  0  0
 36 31  1  0  0  0
 14  6  1  0  0  0
 25 20  1  0  0  0
 14  9  1  0  0  0
  8 16  1  0  0  0
M  END
> <minimizedAffinity>
-11.07403

$$$$



 36 42  0  0  0  0  0  0  0  0999 V2000
   -1.8326   64.5065   82.5813 O   0  0  0  0  0  0  0  0  0  0  0  0
   -1.2499   63.5698   82.0342 C   0  0  0  0  0  0  0  0  0  0  0  0
    0.1045   63.2665   82.3002 N   0  0  0  0  0  0  0  0  0  0  0  0
    0.4200   61.8438   82.5945 C   0  0  0  0  0  0  0  0  0  0  0  0
   -0.0505   61.4236   84.0168 C   0  0  0  0  0  0  0  0  0  0  0  0
    0.0500   62.5630   84.9853 C   0  0  0  0  0  0  0  0  0  0  0  0
    0.4223   63.8348   84.5778 C   0  0  0  0  0  0  0  0  0  0  0  0
    0.2425   64.6819   85.6350 N   0  0  0  0  0  0  0  0  0  0  0  0
   -0.1266   63.9640   86.7536 C   0  0  0  0  0  0  0  0  0  0  0  0
   -0.3755   64.4009   88.0602 C   0  0  0  0  0  0  0  0  0  0  0  0
   -0.7721   63.4444   88.9997 C   0  0  0  0  0  0  0  0  0  0  0  0
   -0.9228   62.1062   88.6428 C   0  0  0  0  0  0  0  0  0  0  0  0
   -0.6774   61.6852   87.3306 C   0  0  0  0  0  0  0  0  0  0  0  0
   -0.2631   62.6271   86.3690 C   0  0  0  0  0  0  0  0  0  0  0  0
    0.8663   64.1782   83.1787 C   0  0  0  0  0  0  0  0  0  0  0  0
    0.3419   65.6876   85.6087 H   0  0  0  0  0  0  0  0  0  0  0  0
    1.0466   65.6478   82.8037 C   0  0  0  0  0  0  0  0  0  0  0  0
    1.8709   66.4616   83.6322 C   0  0  0  0  0  0  0  0  0  0  0  0
    2.1174   67.8078   83.3439 C   0  0  0  0  0  0  0  0  0  0  0  0
    1.5630   68.3281   82.1987 C   0  0  0  0  0  0  0  0  0  0  0  0
    0.7884   67.5565   81.3525 C   0  0  0  0  0  0  0  0  0  0  0  0
    0.5296   66.2221   81.6295 C   0  0  0  0  0  0  0  0  0  0  0  0
    0.2936   68.3981   80.2409 C   0  0  0  0  0  0  0  0  0  0  0  0
    1.2143   69.6055   80.4248 C   0  0  0  0  0  0  0  0  0  0  0  0
    1.7119   69.6251   81.7842 O   0  0  0  0  0  0  0  0  0  0  0  0
   -1.9422   62.7598   81.0422 C   0  0  0  0  0  0  0  0  0  0  0  0
   -3.2927   62.6449   80.7711 C   0  0  0  0  0  0  0  0  0  0  0  0
   -3.4182   61.7554   79.6764 C   0  0  0  0  0  0  0  0  0  0  0  0
   -2.1370   61.3789   79.3208 C   0  0  0  0  0  0  0  0  0  0  0  0
   -1.2411   62.0094   80.1399 O   0  0  0  0  0  0  0  0  0  0  0  0
   -1.5757   60.4993   78.2988 C   0  0  0  0  0  0  0  0  0  0  0  0
   -0.5820   60.9333   77.4255 C   0  0  0  0  0  0  0  0  0  0  0  0
   -0.0932   60.0464   76.4681 C   0  0  0  0  0  0  0  0  0  0  0  0
   -0.6080   58.7576   76.4081 C   0  0  0  0  0  0  0  0  0  0  0  0
   -1.5962   58.4071   77.3114 C   0  0  0  0  0  0  0  0  0  0  0  0
   -2.0903   59.2454   78.2476 N   0  0  0  0  0  0  0  0  0  0  0  0
  1  2  2  0  0  0
  2 26  1  0  0  0
 26 27  2  0  0  0
 27 28  1  0  0  0
 28 29  2  0  0  0
 29 31  1  0  0  0
 31 32  2  0  0  0
 32 33  1  0  0  0
 33 34  2  0  0  0
 34 35  1  0  0  0
 35 36  2  0  0  0
 29 30  1  0  0  0
  2  3  1  0  0  0
  3  4  1  0  0  0
  4  5  1  0  0  0
  5  6  1  0  0  0
  6  7  2  0  0  0
  7  8  1  0  0  0
  8  9  1  0  0  0
  9 10  2  0  0  0
 10 11  1  0  0  0
 11 12  2  0  0  0
 12 13  1  0  0  0
 13 14  2  0  0  0
  7 15  1  0  0  0
 15 17  1  0  0  0
 17 18  1  0  0  0
 18 19  2  0  0  0
 19 20  1  0  0  0
 20 21  2  0  0  0
 21 22  1  0  0  0
 21 23  1  0  0  0
 23 24  1  0  0  0
 24 25  1  0  0  0
 30 26  1  0  0  0
 15  3  1  0  0  0
 22 17  2  0  0  0
 36 31  1  0  0  0
 14  6  1  0  0  0
 25 20  1  0  0  0
 14  9  1  0  0  0
  8 16  1  0  0  0
M  END
> <minimizedAffinity>
-10.97944

$$$$



 36 42  0  0  0  0  0  0  0  0999 V2000
   -1.8526   65.3777   81.5909 O   0  0  0  0  0  0  0  0  0  0  0  0
   -0.7382   65.6393   81.1373 C   0  0  0  0  0  0  0  0  0  0  0  0
    0.3034   64.6850   81.1004 N   0  0  0  0  0  0  0  0  0  0  0  0
    1.0276   64.5434   79.8098 C   0  0  0  0  0  0  0  0  0  0  0  0
    0.1779   63.7951   78.7427 C   0  0  0  0  0  0  0  0  0  0  0  0
   -0.7029   62.7590   79.3726 C   0  0  0  0  0  0  0  0  0  0  0  0
   -0.7820   62.6090   80.7485 C   0  0  0  0  0  0  0  0  0  0  0  0
   -1.7911   61.7271   81.0158 N   0  0  0  0  0  0  0  0  0  0  0  0
   -2.2891   61.2131   79.8364 C   0  0  0  0  0  0  0  0  0  0  0  0
   -3.2898   60.2572   79.6243 C   0  0  0  0  0  0  0  0  0  0  0  0
   -3.6194   59.9455   78.3018 C   0  0  0  0  0  0  0  0  0  0  0  0
   -2.9798   60.5729   77.2350 C   0  0  0  0  0  0  0  0  0  0  0  0
   -1.9861   61.5321   77.4625 C   0  0  0  0  0  0  0  0  0  0  0  0
   -1.6261   61.8534   78.7857 C   0  0  0  0  0  0  0  0  0  0  0  0
    0.0701   63.3698   81.7323 C   0  0  0  0  0  0  0  0  0  0  0  0
   -2.1428   61.4936   81.9343 H   0  0  0  0  0  0  0  0  0  0  0  0
   -0.2576   63.2703   83.2208 C   0  0  0  0  0  0  0  0  0  0  0  0
   -1.3577   62.4584   83.6190 C   0  0  0  0  0  0  0  0  0  0  0  0
   -1.7065   62.2843   84.9621 C   0  0  0  0  0  0  0  0  0  0  0  0
   -0.9241   62.8991   85.9106 C   0  0  0  0  0  0  0  0  0  0  0  0
    0.1733   63.6639   85.5608 C   0  0  0  0  0  0  0  0  0  0  0  0
    0.5267   63.8512   84.2325 C   0  0  0  0  0  0  0  0  0  0  0  0
    0.7811   64.2330   86.7836 C   0  0  0  0  0  0  0  0  0  0  0  0
    0.0791   63.3640   87.8282 C   0  0  0  0  0  0  0  0  0  0  0  0
   -1.1387   62.8242   87.2612 O   0  0  0  0  0  0  0  0  0  0  0  0
   -0.4425   66.9820   80.6585 C   0  0  0  0  0  0  0  0  0  0  0  0
   -1.0236   67.7123   79.6389 C   0  0  0  0  0  0  0  0  0  0  0  0
   -0.3881   68.9777   79.6255 C   0  0  0  0  0  0  0  0  0  0  0  0
    0.5426   68.9663   80.6471 C   0  0  0  0  0  0  0  0  0  0  0  0
    0.4908   67.7585   81.2870 O   0  0  0  0  0  0  0  0  0  0  0  0
    1.5112   69.9320   81.1592 C   0  0  0  0  0  0  0  0  0  0  0  0
    2.7070   70.1915   80.4948 C   0  0  0  0  0  0  0  0  0  0  0  0
    3.5920   71.1198   81.0398 C   0  0  0  0  0  0  0  0  0  0  0  0
    3.2614   71.7596   82.2277 C   0  0  0  0  0  0  0  0  0  0  0  0
    2.0543   71.4424   82.8256 C   0  0  0  0  0  0  0  0  0  0  0  0
    1.1789   70.5460   82.3221 N   0  0  0  0  0  0  0  0  0  0  0  0
  1  2  2  0  0  0
  2 26  1  0  0  0
 26 27  2  0  0  0
 27 28  1  0  0  0
 28 29  2  0  0  0
 29 31  1  0  0  0
 31 32  2  0  0  0
 32 33  1  0  0  0
 33 34  2  0  0  0
 34 35  1  0  0  0
 35 36  2  0  0  0
 29 30  1  0  0  0
  2  3  1  0  0  0
  3  4  1  0  0  0
  4  5  1  0  0  0
  5  6  1  0  0  0
  6  7  2  0  0  0
  7  8  1  0  0  0
  8  9  1  0  0  0
  9 10  2  0  0  0
 10 11  1  0  0  0
 11 12  2  0  0  0
 12 13  1  0  0  0
 13 14  2  0  0  0
  7 15  1  0  0  0
 15 17  1  0  0  0
 17 18  1  0  0  0
 18 19  2  0  0  0
 19 20  1  0  0  0
 20 21  2  0  0  0
 21 22  1  0  0  0
 21 23  1  0  0  0
 23 24  1  0  0  0
 24 25  1  0  0  0
 30 26  1  0  0  0
 15  3  1  0  0  0
 22 17  2  0  0  0
 36 31  1  0  0  0
 14  6  1  0  0  0
 25 20  1  0  0  0
 14  9  1  0  0  0
  8 16  1  0  0  0
M  END
> <minimizedAffinity>
-10.82678

$$$$



 36 42  0  0  0  0  0  0  0  0999 V2000
   -0.9291   66.1541   81.2754 O   0  0  0  0  0  0  0  0  0  0  0  0
    0.2171   66.2028   80.8282 C   0  0  0  0  0  0  0  0  0  0  0  0
    1.0067   65.0442   80.6514 N   0  0  0  0  0  0  0  0  0  0  0  0
    1.6820   64.8966   79.3352 C   0  0  0  0  0  0  0  0  0  0  0  0
    0.6844   64.5021   78.2082 C   0  0  0  0  0  0  0  0  0  0  0  0
   -0.4164   63.6303   78.7322 C   0  0  0  0  0  0  0  0  0  0  0  0
   -0.5328   63.3362   80.0820 C   0  0  0  0  0  0  0  0  0  0  0  0
   -1.7210   62.6873   80.2677 N   0  0  0  0  0  0  0  0  0  0  0  0
   -2.3215   62.4509   79.0484 C   0  0  0  0  0  0  0  0  0  0  0  0
   -3.5173   61.7869   78.7492 C   0  0  0  0  0  0  0  0  0  0  0  0
   -3.9063   61.7239   77.4078 C   0  0  0  0  0  0  0  0  0  0  0  0
   -3.1342   62.3107   76.4076 C   0  0  0  0  0  0  0  0  0  0  0  0
   -1.9445   62.9775   76.7226 C   0  0  0  0  0  0  0  0  0  0  0  0
   -1.5237   63.0426   78.0651 C   0  0  0  0  0  0  0  0  0  0  0  0
    0.4703   63.7524   81.1276 C   0  0  0  0  0  0  0  0  0  0  0  0
   -2.1206   62.4318   81.1604 H   0  0  0  0  0  0  0  0  0  0  0  0
    0.1236   63.5512   82.6014 C   0  0  0  0  0  0  0  0  0  0  0  0
   -0.7063   62.4500   82.9573 C   0  0  0  0  0  0  0  0  0  0  0  0
   -1.0453   62.1722   84.2855 C   0  0  0  0  0  0  0  0  0  0  0  0
   -0.5180   62.9827   85.2626 C   0  0  0  0  0  0  0  0  0  0  0  0
    0.3210   64.0377   84.9552 C   0  0  0  0  0  0  0  0  0  0  0  0
    0.6598   64.3294   83.6420 C   0  0  0  0  0  0  0  0  0  0  0  0
    0.6833   64.7516   86.1993 C   0  0  0  0  0  0  0  0  0  0  0  0
    0.2230   63.7079   87.2183 C   0  0  0  0  0  0  0  0  0  0  0  0
   -0.7582   62.8390   86.6034 O   0  0  0  0  0  0  0  0  0  0  0  0
    0.8200   67.4880   80.5056 C   0  0  0  0  0  0  0  0  0  0  0  0
    1.8591   67.7942   79.6469 C   0  0  0  0  0  0  0  0  0  0  0  0
    2.0129   69.2016   79.6728 C   0  0  0  0  0  0  0  0  0  0  0  0
    1.0512   69.6911   80.5361 C   0  0  0  0  0  0  0  0  0  0  0  0
    0.3134   68.6474   81.0234 O   0  0  0  0  0  0  0  0  0  0  0  0
    0.6777   71.0241   81.0019 C   0  0  0  0  0  0  0  0  0  0  0  0
   -0.6502   71.3724   81.2344 C   0  0  0  0  0  0  0  0  0  0  0  0
   -0.9405   72.6634   81.6719 C   0  0  0  0  0  0  0  0  0  0  0  0
    0.0971   73.5669   81.8630 C   0  0  0  0  0  0  0  0  0  0  0  0
    1.3887   73.1412   81.6064 C   0  0  0  0  0  0  0  0  0  0  0  0
    1.6994   71.8982   81.1798 N   0  0  0  0  0  0  0  0  0  0  0  0
  1  2  2  0  0  0
  2 26  1  0  0  0
 26 27  2  0  0  0
 27 28  1  0  0  0
 28 29  2  0  0  0
 29 31  1  0  0  0
 31 32  2  0  0  0
 32 33  1  0  0  0
 33 34  2  0  0  0
 34 35  1  0  0  0
 35 36  2  0  0  0
 29 30  1  0  0  0
  2  3  1  0  0  0
  3  4  1  0  0  0
  4  5  1  0  0  0
  5  6  1  0  0  0
  6  7  2  0  0  0
  7  8  1  0  0  0
  8  9  1  0  0  0
  9 10  2  0  0  0
 10 11  1  0  0  0
 11 12  2  0  0  0
 12 13  1  0  0  0
 13 14  2  0  0  0
  7 15  1  0  0  0
 15 17  1  0  0  0
 17 18  1  0  0  0
 18 19  2  0  0  0
 19 20  1  0  0  0
 20 21  2  0  0  0
 21 22  1  0  0  0
 21 23  1  0  0  0
 23 24  1  0  0  0
 24 25  1  0  0  0
 30 26  1  0  0  0
 15  3  1  0  0  0
 22 17  2  0  0  0
 36 31  1  0  0  0
 14  6  1  0  0  0
 25 20  1  0  0  0
 14  9  1  0  0  0
  8 16  1  0  0  0
M  END
> <minimizedAffinity>
-10.62479

$$$$



 36 42  0  0  0  0  0  0  0  0999 V2000
    1.7055   68.7466   84.2535 O   0  0  0  0  0  0  0  0  0  0  0  0
    2.1478   69.0687   83.1504 C   0  0  0  0  0  0  0  0  0  0  0  0
    2.8768   68.1700   82.3392 N   0  0  0  0  0  0  0  0  0  0  0  0
    2.4600   68.0746   80.9153 C   0  0  0  0  0  0  0  0  0  0  0  0
    1.1268   67.2899   80.7487 C   0  0  0  0  0  0  0  0  0  0  0  0
    0.9981   66.2054   81.7751 C   0  0  0  0  0  0  0  0  0  0  0  0
    1.9345   66.0427   82.7844 C   0  0  0  0  0  0  0  0  0  0  0  0
    1.4516   65.1078   83.6563 N   0  0  0  0  0  0  0  0  0  0  0  0
    0.2754   64.5762   83.1695 C   0  0  0  0  0  0  0  0  0  0  0  0
   -0.5431   63.5709   83.6982 C   0  0  0  0  0  0  0  0  0  0  0  0
   -1.7112   63.2509   82.9995 C   0  0  0  0  0  0  0  0  0  0  0  0
   -2.0507   63.9175   81.8243 C   0  0  0  0  0  0  0  0  0  0  0  0
   -1.2262   64.9256   81.3114 C   0  0  0  0  0  0  0  0  0  0  0  0
   -0.0368   65.2568   81.9892 C   0  0  0  0  0  0  0  0  0  0  0  0
    3.2091   66.8406   82.8917 C   0  0  0  0  0  0  0  0  0  0  0  0
    1.8728   64.8505   84.5385 H   0  0  0  0  0  0  0  0  0  0  0  0
    4.0516   66.7147   84.1595 C   0  0  0  0  0  0  0  0  0  0  0  0
    4.9881   67.7461   84.4551 C   0  0  0  0  0  0  0  0  0  0  0  0
    5.7752   67.7277   85.6111 C   0  0  0  0  0  0  0  0  0  0  0  0
    5.5939   66.6875   86.4913 C   0  0  0  0  0  0  0  0  0  0  0  0
    4.6672   65.6893   86.2537 C   0  0  0  0  0  0  0  0  0  0  0  0
    3.8850   65.6908   85.1080 C   0  0  0  0  0  0  0  0  0  0  0  0
    4.7363   64.6901   87.3425 C   0  0  0  0  0  0  0  0  0  0  0  0
    5.5543   65.4935   88.3548 C   0  0  0  0  0  0  0  0  0  0  0  0
    6.2885   66.5308   87.6614 O   0  0  0  0  0  0  0  0  0  0  0  0
    1.9677   70.4279   82.6611 C   0  0  0  0  0  0  0  0  0  0  0  0
    2.7755   71.5406   82.8036 C   0  0  0  0  0  0  0  0  0  0  0  0
    2.1522   72.5951   82.0932 C   0  0  0  0  0  0  0  0  0  0  0  0
    0.9990   72.0737   81.5380 C   0  0  0  0  0  0  0  0  0  0  0  0
    0.9021   70.7497   81.8674 O   0  0  0  0  0  0  0  0  0  0  0  0
   -0.0739   72.6174   80.7096 C   0  0  0  0  0  0  0  0  0  0  0  0
   -1.2281   71.8883   80.4360 C   0  0  0  0  0  0  0  0  0  0  0  0
   -2.2119   72.4620   79.6328 C   0  0  0  0  0  0  0  0  0  0  0  0
   -2.0171   73.7406   79.1262 C   0  0  0  0  0  0  0  0  0  0  0  0
   -0.8403   74.3960   79.4438 C   0  0  0  0  0  0  0  0  0  0  0  0
    0.1307   73.8646   80.2171 N   0  0  0  0  0  0  0  0  0  0  0  0
  1  2  2  0  0  0
  2 26  1  0  0  0
 26 27  2  0  0  0
 27 28  1  0  0  0
 28 29  2  0  0  0
 29 31  1  0  0  0
 31 32  2  0  0  0
 32 33  1  0  0  0
 33 34  2  0  0  0
 34 35  1  0  0  0
 35 36  2  0  0  0
 29 30  1  0  0  0
  2  3  1  0  0  0
  3  4  1  0  0  0
  4  5  1  0  0  0
  5  6  1  0  0  0
  6  7  2  0  0  0
  7  8  1  0  0  0
  8  9  1  0  0  0
  9 10  2  0  0  0
 10 11  1  0  0  0
 11 12  2  0  0  0
 12 13  1  0  0  0
 13 14  2  0  0  0
  7 15  1  0  0  0
 15 17  1  0  0  0
 17 18  1  0  0  0
 18 19  2  0  0  0
 19 20  1  0  0  0
 20 21  2  0  0  0
 21 22  1  0  0  0
 21 23  1  0  0  0
 23 24  1  0  0  0
 24 25  1  0  0  0
 30 26  1  0  0  0
 15  3  1  0  0  0
 22 17  2  0  0  0
 36 31  1  0  0  0
 14  6  1  0  0  0
 25 20  1  0  0  0
 14  9  1  0  0  0
  8 16  1  0  0  0
M  END
> <minimizedAffinity>
-10.61244

$$$$



 36 42  0  0  0  0  0  0  0  0999 V2000
    2.0981   66.1720   82.0739 O   0  0  0  0  0  0  0  0  0  0  0  0
    1.7082   67.2663   82.4822 C   0  0  0  0  0  0  0  0  0  0  0  0
    1.6870   67.5936   83.8568 N   0  0  0  0  0  0  0  0  0  0  0  0
    2.2813   68.9025   84.2359 C   0  0  0  0  0  0  0  0  0  0  0  0
    3.8356   68.8789   84.1699 C   0  0  0  0  0  0  0  0  0  0  0  0
    4.3785   67.5304   84.5345 C   0  0  0  0  0  0  0  0  0  0  0  0
    3.5435   66.4525   84.7856 C   0  0  0  0  0  0  0  0  0  0  0  0
    4.3244   65.3373   84.9038 N   0  0  0  0  0  0  0  0  0  0  0  0
    5.6569   65.6903   84.8514 C   0  0  0  0  0  0  0  0  0  0  0  0
    6.8027   64.8946   84.9698 C   0  0  0  0  0  0  0  0  0  0  0  0
    8.0451   65.5230   84.8415 C   0  0  0  0  0  0  0  0  0  0  0  0
    8.1361   66.8910   84.5948 C   0  0  0  0  0  0  0  0  0  0  0  0
    6.9815   67.6727   84.4716 C   0  0  0  0  0  0  0  0  0  0  0  0
    5.7183   67.0658   84.6109 C   0  0  0  0  0  0  0  0  0  0  0  0
    2.0393   66.5412   84.8323 C   0  0  0  0  0  0  0  0  0  0  0  0
    3.9879   64.3884   84.9955 H   0  0  0  0  0  0  0  0  0  0  0  0
    1.2280   65.2493   84.9082 C   0  0  0  0  0  0  0  0  0  0  0  0
    1.0089   64.6618   86.1869 C   0  0  0  0  0  0  0  0  0  0  0  0
    0.2496   63.4988   86.3513 C   0  0  0  0  0  0  0  0  0  0  0  0
   -0.3221   62.9450   85.2305 C   0  0  0  0  0  0  0  0  0  0  0  0
   -0.1607   63.5103   83.9792 C   0  0  0  0  0  0  0  0  0  0  0  0
    0.5955   64.6594   83.8001 C   0  0  0  0  0  0  0  0  0  0  0  0
   -0.8439   62.6692   82.9719 C   0  0  0  0  0  0  0  0  0  0  0  0
   -1.6858   61.8046   83.9116 C   0  0  0  0  0  0  0  0  0  0  0  0
   -1.0888   61.8099   85.2304 O   0  0  0  0  0  0  0  0  0  0  0  0
    1.2041   68.2578   81.5430 C   0  0  0  0  0  0  0  0  0  0  0  0
    0.7916   68.1139   80.2315 C   0  0  0  0  0  0  0  0  0  0  0  0
    0.3523   69.3878   79.7964 C   0  0  0  0  0  0  0  0  0  0  0  0
    0.5041   70.2481   80.8672 C   0  0  0  0  0  0  0  0  0  0  0  0
    1.0017   69.5519   81.9343 O   0  0  0  0  0  0  0  0  0  0  0  0
    0.2474   71.6698   81.0816 C   0  0  0  0  0  0  0  0  0  0  0  0
   -0.8183   72.3217   80.4667 C   0  0  0  0  0  0  0  0  0  0  0  0
   -1.0046   73.6816   80.7076 C   0  0  0  0  0  0  0  0  0  0  0  0
   -0.1259   74.3505   81.5502 C   0  0  0  0  0  0  0  0  0  0  0  0
    0.9090   73.6291   82.1192 C   0  0  0  0  0  0  0  0  0  0  0  0
    1.1154   72.3123   81.9023 N   0  0  0  0  0  0  0  0  0  0  0  0
  1  2  2  0  0  0
  2 26  1  0  0  0
 26 27  2  0  0  0
 27 28  1  0  0  0
 28 29  2  0  0  0
 29 31  1  0  0  0
 31 32  2  0  0  0
 32 33  1  0  0  0
 33 34  2  0  0  0
 34 35  1  0  0  0
 35 36  2  0  0  0
 29 30  1  0  0  0
  2  3  1  0  0  0
  3  4  1  0  0  0
  4  5  1  0  0  0
  5  6  1  0  0  0
  6  7  2  0  0  0
  7  8  1  0  0  0
  8  9  1  0  0  0
  9 10  2  0  0  0
 10 11  1  0  0  0
 11 12  2  0  0  0
 12 13  1  0  0  0
 13 14  2  0  0  0
  7 15  1  0  0  0
 15 17  1  0  0  0
 17 18  1  0  0  0
 18 19  2  0  0  0
 19 20  1  0  0  0
 20 21  2  0  0  0
 21 22  1  0  0  0
 21 23  1  0  0  0
 23 24  1  0  0  0
 24 25  1  0  0  0
 30 26  1  0  0  0
 15  3  1  0  0  0
 22 17  2  0  0  0
 36 31  1  0  0  0
 14  6  1  0  0  0
 25 20  1  0  0  0
 14  9  1  0  0  0
  8 16  1  0  0  0
M  END
> <minimizedAffinity>
-10.59015

$$$$
