


 45 50  0  0  0  0  0  0  0  0999 V2000
    0.3768   65.5172   81.1055 C   0  0  0  0  0  0  0  0  0  0  0  0
    0.5311   66.8013   80.8784 N   0  0  0  0  0  0  0  0  0  0  0  0
    1.3743   67.2350   81.8499 C   0  0  0  0  0  0  0  0  0  0  0  0
    1.7393   66.2273   82.6889 C   0  0  0  0  0  0  0  0  0  0  0  0
    2.5779   66.4312   83.8187 C   0  0  0  0  0  0  0  0  0  0  0  0
    2.8443   65.5393   84.6193 O   0  0  0  0  0  0  0  0  0  0  0  0
    3.0305   67.7497   83.9359 N   0  0  0  0  0  0  0  0  0  0  0  0
    2.6767   68.8152   83.0844 C   0  0  0  0  0  0  0  0  0  0  0  0
    3.1015   69.9596   83.2679 O   0  0  0  0  0  0  0  0  0  0  0  0
    1.8192   68.5234   82.0208 N   0  0  0  0  0  0  0  0  0  0  0  0
    1.1300   65.1068   82.1838 N   0  0  0  0  0  0  0  0  0  0  0  0
   -0.5515   64.7324   80.3321 N   0  0  0  0  0  0  0  0  0  0  0  0
   -1.1331   64.0126   80.7475 H   0  0  0  0  0  0  0  0  0  0  0  0
   -0.1261   64.4276   78.7402 S   0  0  0  0  0  0  0  0  0  0  0  0
    1.3226   64.4753   78.7164 O   0  0  0  0  0  0  0  0  0  0  0  0
   -0.8927   65.2950   77.8701 O   0  0  0  0  0  0  0  0  0  0  0  0
   -1.3499   60.0756   78.1021 C   0  0  0  0  0  0  0  0  0  0  0  0
   -0.5356   60.7248   77.1683 C   0  0  0  0  0  0  0  0  0  0  0  0
   -0.1574   62.0552   77.3549 C   0  0  0  0  0  0  0  0  0  0  0  0
   -0.6031   62.7407   78.4857 C   0  0  0  0  0  0  0  0  0  0  0  0
   -1.3983   62.0979   79.4381 C   0  0  0  0  0  0  0  0  0  0  0  0
   -1.7748   60.7649   79.2409 C   0  0  0  0  0  0  0  0  0  0  0  0
   -1.6494   58.4356   76.4072 C   0  0  0  0  0  0  0  0  0  0  0  0
   -1.6527   58.7797   77.7868 O   0  0  0  0  0  0  0  0  0  0  0  0
    3.9005   68.0497   85.0641 C   0  0  0  0  0  0  0  0  0  0  0  0
    5.3432   67.8489   84.6877 C   0  0  0  0  0  0  0  0  0  0  0  0
    6.3962   67.7341   85.7611 C   0  0  0  0  0  0  0  0  0  0  0  0
    6.0380   66.5328   84.9307 C   0  0  0  0  0  0  0  0  0  0  0  0
    1.3879   69.5935   81.1292 C   0  0  0  0  0  0  0  0  0  0  0  0
    0.2125   70.3267   81.7104 C   0  0  0  0  0  0  0  0  0  0  0  0
   -0.6206   71.2583   80.8661 C   0  0  0  0  0  0  0  0  0  0  0  0
    0.2823   71.8175   81.9300 C   0  0  0  0  0  0  0  0  0  0  0  0
    1.2461   63.7506   82.6912 C   0  0  0  0  0  0  0  0  0  0  0  0
    0.1452   63.4142   83.6703 C   0  0  0  0  0  0  0  0  0  0  0  0
   -0.9667   62.6501   83.2748 C   0  0  0  0  0  0  0  0  0  0  0  0
   -1.9892   62.3495   84.1788 C   0  0  0  0  0  0  0  0  0  0  0  0
   -1.8944   62.8294   85.4953 C   0  0  0  0  0  0  0  0  0  0  0  0
   -0.8001   63.6048   85.9117 C   0  0  0  0  0  0  0  0  0  0  0  0
    0.2126   63.8887   84.9920 C   0  0  0  0  0  0  0  0  0  0  0  0
   -3.1098   61.6208   83.8736 O   0  0  0  0  0  0  0  0  0  0  0  0
   -3.0062   60.6827   82.8089 C   0  0  0  0  0  0  0  0  0  0  0  0
   -2.9228   62.5872   86.3803 O   0  0  0  0  0  0  0  0  0  0  0  0
   -2.6495   61.4025   87.1260 C   0  0  0  0  0  0  0  0  0  0  0  0
   -0.8138   64.0249   87.2167 O   0  0  0  0  0  0  0  0  0  0  0  0
    0.2277   63.5637   88.0659 C   0  0  0  0  0  0  0  0  0  0  0  0
 23 24  1  0  0  0
 24 17  1  0  0  0
 17 18  1  0  0  0
 18 19  2  0  0  0
 19 20  1  0  0  0
 20 14  1  0  0  0
 14 15  2  0  0  0
 14 16  2  0  0  0
 14 12  1  0  0  0
 12  1  1  0  0  0
  1  2  2  0  0  0
  2  3  1  0  0  0
  3  4  2  0  0  0
  4  5  1  0  0  0
  5  6  2  0  0  0
  5  7  1  0  0  0
  7 25  1  0  0  0
 25 26  1  0  0  0
 26 27  1  0  0  0
 27 28  1  0  0  0
  7  8  1  0  0  0
  8  9  2  0  0  0
  8 10  1  0  0  0
 10 29  1  0  0  0
 29 30  1  0  0  0
 30 31  1  0  0  0
 31 32  1  0  0  0
  4 11  1  0  0  0
 11 33  1  0  0  0
 33 34  1  0  0  0
 34 35  1  0  0  0
 35 36  2  0  0  0
 36 40  1  0  0  0
 40 41  1  0  0  0
 36 37  1  0  0  0
 37 42  1  0  0  0
 42 43  1  0  0  0
 37 38  2  0  0  0
 38 44  1  0  0  0
 44 45  1  0  0  0
 38 39  1  0  0  0
 20 21  2  0  0  0
 21 22  1  0  0  0
 22 17  2  0  0  0
 11  1  1  0  0  0
 39 34  2  0  0  0
 10  3  1  0  0  0
 32 30  1  0  0  0
 28 26  1  0  0  0
 12 13  1  0  0  0
M  END
> <minimizedAffinity>
-9.31278

$$$$



 45 50  0  0  0  0  0  0  0  0999 V2000
    0.3041   65.5457   81.0694 C   0  0  0  0  0  0  0  0  0  0  0  0
    0.4579   66.8309   80.8481 N   0  0  0  0  0  0  0  0  0  0  0  0
    1.2987   67.2612   81.8231 C   0  0  0  0  0  0  0  0  0  0  0  0
    1.6628   66.2502   82.6586 C   0  0  0  0  0  0  0  0  0  0  0  0
    2.4988   66.4500   83.7911 C   0  0  0  0  0  0  0  0  0  0  0  0
    2.7642   65.5550   84.5884 O   0  0  0  0  0  0  0  0  0  0  0  0
    2.9501   67.7683   83.9148 N   0  0  0  0  0  0  0  0  0  0  0  0
    2.5972   68.8372   83.0670 C   0  0  0  0  0  0  0  0  0  0  0  0
    3.0207   69.9811   83.2562 O   0  0  0  0  0  0  0  0  0  0  0  0
    1.7422   68.5492   82.0004 N   0  0  0  0  0  0  0  0  0  0  0  0
    1.0554   65.1313   82.1475 N   0  0  0  0  0  0  0  0  0  0  0  0
   -0.6219   64.7634   80.2907 N   0  0  0  0  0  0  0  0  0  0  0  0
   -1.2119   64.0492   80.7038 H   0  0  0  0  0  0  0  0  0  0  0  0
   -0.1836   64.4489   78.7042 S   0  0  0  0  0  0  0  0  0  0  0  0
    1.2659   64.4731   78.6968 O   0  0  0  0  0  0  0  0  0  0  0  0
   -0.9262   65.3271   77.8242 O   0  0  0  0  0  0  0  0  0  0  0  0
   -1.4668   60.1153   78.0575 C   0  0  0  0  0  0  0  0  0  0  0  0
   -0.8610   60.8348   77.0223 C   0  0  0  0  0  0  0  0  0  0  0  0
   -0.4663   62.1601   77.2109 C   0  0  0  0  0  0  0  0  0  0  0  0
   -0.6850   62.7695   78.4471 C   0  0  0  0  0  0  0  0  0  0  0  0
   -1.2685   62.0557   79.4971 C   0  0  0  0  0  0  0  0  0  0  0  0
   -1.6636   60.7285   79.2977 C   0  0  0  0  0  0  0  0  0  0  0  0
   -1.5166   58.4045   76.4075 C   0  0  0  0  0  0  0  0  0  0  0  0
   -1.8135   58.8334   77.7303 O   0  0  0  0  0  0  0  0  0  0  0  0
    3.8175   68.0643   85.0460 C   0  0  0  0  0  0  0  0  0  0  0  0
    5.2576   67.8181   84.6871 C   0  0  0  0  0  0  0  0  0  0  0  0
    6.3144   67.8084   85.7629 C   0  0  0  0  0  0  0  0  0  0  0  0
    5.9468   66.5302   85.0615 C   0  0  0  0  0  0  0  0  0  0  0  0
    1.3119   69.6227   81.1124 C   0  0  0  0  0  0  0  0  0  0  0  0
    0.1447   70.3626   81.7016 C   0  0  0  0  0  0  0  0  0  0  0  0
   -0.6563   71.3391   80.8771 C   0  0  0  0  0  0  0  0  0  0  0  0
    0.2437   71.8436   81.9704 C   0  0  0  0  0  0  0  0  0  0  0  0
    1.1716   63.7731   82.6495 C   0  0  0  0  0  0  0  0  0  0  0  0
    0.0947   63.4462   83.6582 C   0  0  0  0  0  0  0  0  0  0  0  0
    0.1664   63.9305   84.9761 C   0  0  0  0  0  0  0  0  0  0  0  0
   -0.8246   63.6179   85.9105 C   0  0  0  0  0  0  0  0  0  0  0  0
   -1.8977   62.8025   85.5151 C   0  0  0  0  0  0  0  0  0  0  0  0
   -1.9859   62.2963   84.2082 C   0  0  0  0  0  0  0  0  0  0  0  0
   -0.9859   62.6260   83.2898 C   0  0  0  0  0  0  0  0  0  0  0  0
   -0.8263   64.0395   87.2151 O   0  0  0  0  0  0  0  0  0  0  0  0
    0.2681   63.6375   88.0305 C   0  0  0  0  0  0  0  0  0  0  0  0
   -2.8513   62.4414   86.4422 O   0  0  0  0  0  0  0  0  0  0  0  0
   -2.4011   61.3082   87.1821 C   0  0  0  0  0  0  0  0  0  0  0  0
   -3.0724   61.5064   83.9339 O   0  0  0  0  0  0  0  0  0  0  0  0
   -2.9707   60.6073   82.8385 C   0  0  0  0  0  0  0  0  0  0  0  0
 23 24  1  0  0  0
 24 17  1  0  0  0
 17 18  1  0  0  0
 18 19  2  0  0  0
 19 20  1  0  0  0
 20 14  1  0  0  0
 14 15  2  0  0  0
 14 16  2  0  0  0
 14 12  1  0  0  0
 12  1  1  0  0  0
  1  2  2  0  0  0
  2  3  1  0  0  0
  3  4  2  0  0  0
  4  5  1  0  0  0
  5  6  2  0  0  0
  5  7  1  0  0  0
  7 25  1  0  0  0
 25 26  1  0  0  0
 26 27  1  0  0  0
 27 28  1  0  0  0
  7  8  1  0  0  0
  8  9  2  0  0  0
  8 10  1  0  0  0
 10 29  1  0  0  0
 29 30  1  0  0  0
 30 31  1  0  0  0
 31 32  1  0  0  0
  4 11  1  0  0  0
 11 33  1  0  0  0
 33 34  1  0  0  0
 34 35  1  0  0  0
 35 36  2  0  0  0
 36 40  1  0  0  0
 40 41  1  0  0  0
 36 37  1  0  0  0
 37 42  1  0  0  0
 42 43  1  0  0  0
 37 38  2  0  0  0
 38 44  1  0  0  0
 44 45  1  0  0  0
 38 39  1  0  0  0
 20 21  2  0  0  0
 21 22  1  0  0  0
 22 17  2  0  0  0
 11  1  1  0  0  0
 39 34  2  0  0  0
 10  3  1  0  0  0
 32 30  1  0  0  0
 28 26  1  0  0  0
 12 13  1  0  0  0
M  END
> <minimizedAffinity>
-9.30420

$$$$



 45 50  0  0  0  0  0  0  0  0999 V2000
   -0.0497   65.8130   80.2959 C   0  0  0  0  0  0  0  0  0  0  0  0
   -0.4752   65.1359   81.3373 N   0  0  0  0  0  0  0  0  0  0  0  0
    0.4071   65.4185   82.3296 C   0  0  0  0  0  0  0  0  0  0  0  0
    1.3880   66.2626   81.9080 C   0  0  0  0  0  0  0  0  0  0  0  0
    2.4626   66.6733   82.7434 C   0  0  0  0  0  0  0  0  0  0  0  0
    3.3888   67.3716   82.3413 O   0  0  0  0  0  0  0  0  0  0  0  0
    2.3683   66.1717   84.0459 N   0  0  0  0  0  0  0  0  0  0  0  0
    1.3657   65.3005   84.5168 C   0  0  0  0  0  0  0  0  0  0  0  0
    1.3643   64.8823   85.6782 O   0  0  0  0  0  0  0  0  0  0  0  0
    0.3705   64.9252   83.6112 N   0  0  0  0  0  0  0  0  0  0  0  0
    1.0704   66.5534   80.6055 N   0  0  0  0  0  0  0  0  0  0  0  0
   -0.6808   65.6704   79.0086 N   0  0  0  0  0  0  0  0  0  0  0  0
   -1.6589   65.8909   78.8551 H   0  0  0  0  0  0  0  0  0  0  0  0
   -0.0969   64.4479   78.0224 S   0  0  0  0  0  0  0  0  0  0  0  0
    1.1794   64.0707   78.5971 O   0  0  0  0  0  0  0  0  0  0  0  0
   -0.1696   64.8775   76.6413 O   0  0  0  0  0  0  0  0  0  0  0  0
   -3.0008   60.9968   78.7312 C   0  0  0  0  0  0  0  0  0  0  0  0
   -1.9029   61.1817   79.5779 C   0  0  0  0  0  0  0  0  0  0  0  0
   -1.0097   62.2334   79.3681 C   0  0  0  0  0  0  0  0  0  0  0  0
   -1.2178   63.1042   78.2978 C   0  0  0  0  0  0  0  0  0  0  0  0
   -2.3229   62.9449   77.4575 C   0  0  0  0  0  0  0  0  0  0  0  0
   -3.2112   61.8859   77.6739 C   0  0  0  0  0  0  0  0  0  0  0  0
   -3.3956   59.1494   80.1744 C   0  0  0  0  0  0  0  0  0  0  0  0
   -3.7845   59.9209   79.0452 O   0  0  0  0  0  0  0  0  0  0  0  0
    3.4258   66.5455   84.9741 C   0  0  0  0  0  0  0  0  0  0  0  0
    4.5391   65.5340   84.9428 C   0  0  0  0  0  0  0  0  0  0  0  0
    5.9727   65.9824   85.0769 C   0  0  0  0  0  0  0  0  0  0  0  0
    5.3253   65.1990   86.1851 C   0  0  0  0  0  0  0  0  0  0  0  0
   -0.6713   63.9954   84.0307 C   0  0  0  0  0  0  0  0  0  0  0  0
   -0.1659   62.5811   83.9948 C   0  0  0  0  0  0  0  0  0  0  0  0
    0.4931   62.0197   82.7596 C   0  0  0  0  0  0  0  0  0  0  0  0
   -0.8753   61.5437   83.1605 C   0  0  0  0  0  0  0  0  0  0  0  0
    1.7809   67.4583   79.7186 C   0  0  0  0  0  0  0  0  0  0  0  0
    1.6593   68.8985   80.1601 C   0  0  0  0  0  0  0  0  0  0  0  0
    0.4328   69.4159   80.6125 C   0  0  0  0  0  0  0  0  0  0  0  0
    0.3197   70.7509   81.0098 C   0  0  0  0  0  0  0  0  0  0  0  0
    1.4537   71.5770   80.9448 C   0  0  0  0  0  0  0  0  0  0  0  0
    2.6871   71.0875   80.4852 C   0  0  0  0  0  0  0  0  0  0  0  0
    2.7776   69.7482   80.0978 C   0  0  0  0  0  0  0  0  0  0  0  0
   -0.8380   71.3365   81.4531 O   0  0  0  0  0  0  0  0  0  0  0  0
   -1.5882   72.0919   80.5093 C   0  0  0  0  0  0  0  0  0  0  0  0
    1.3415   72.9090   81.2805 O   0  0  0  0  0  0  0  0  0  0  0  0
    1.6792   73.0910   82.6542 C   0  0  0  0  0  0  0  0  0  0  0  0
    3.7249   71.9830   80.4582 O   0  0  0  0  0  0  0  0  0  0  0  0
    4.9621   71.5382   79.9196 C   0  0  0  0  0  0  0  0  0  0  0  0
 23 24  1  0  0  0
 24 17  1  0  0  0
 17 18  1  0  0  0
 18 19  2  0  0  0
 19 20  1  0  0  0
 20 14  1  0  0  0
 14 15  2  0  0  0
 14 16  2  0  0  0
 14 12  1  0  0  0
 12  1  1  0  0  0
  1  2  2  0  0  0
  2  3  1  0  0  0
  3  4  2  0  0  0
  4  5  1  0  0  0
  5  6  2  0  0  0
  5  7  1  0  0  0
  7 25  1  0  0  0
 25 26  1  0  0  0
 26 27  1  0  0  0
 27 28  1  0  0  0
  7  8  1  0  0  0
  8  9  2  0  0  0
  8 10  1  0  0  0
 10 29  1  0  0  0
 29 30  1  0  0  0
 30 31  1  0  0  0
 31 32  1  0  0  0
  4 11  1  0  0  0
 11 33  1  0  0  0
 33 34  1  0  0  0
 34 35  1  0  0  0
 35 36  2  0  0  0
 36 40  1  0  0  0
 40 41  1  0  0  0
 36 37  1  0  0  0
 37 42  1  0  0  0
 42 43  1  0  0  0
 37 38  2  0  0  0
 38 44  1  0  0  0
 44 45  1  0  0  0
 38 39  1  0  0  0
 20 21  2  0  0  0
 21 22  1  0  0  0
 22 17  2  0  0  0
 11  1  1  0  0  0
 39 34  2  0  0  0
 10  3  1  0  0  0
 32 30  1  0  0  0
 28 26  1  0  0  0
 12 13  1  0  0  0
M  END
> <minimizedAffinity>
-8.73444

$$$$



 45 50  0  0  0  0  0  0  0  0999 V2000
   -0.0697   65.7545   80.2453 C   0  0  0  0  0  0  0  0  0  0  0  0
   -0.4935   65.0827   81.2909 N   0  0  0  0  0  0  0  0  0  0  0  0
    0.3869   65.3755   82.2820 C   0  0  0  0  0  0  0  0  0  0  0  0
    1.3649   66.2205   81.8555 C   0  0  0  0  0  0  0  0  0  0  0  0
    2.4371   66.6412   82.6890 C   0  0  0  0  0  0  0  0  0  0  0  0
    3.3609   67.3404   82.2829 O   0  0  0  0  0  0  0  0  0  0  0  0
    2.3436   66.1480   83.9948 N   0  0  0  0  0  0  0  0  0  0  0  0
    1.3441   65.2761   84.4708 C   0  0  0  0  0  0  0  0  0  0  0  0
    1.3433   64.8657   85.6350 O   0  0  0  0  0  0  0  0  0  0  0  0
    0.3512   64.8907   83.5669 N   0  0  0  0  0  0  0  0  0  0  0  0
    1.0471   66.5013   80.5508 N   0  0  0  0  0  0  0  0  0  0  0  0
   -0.6992   65.6006   78.9585 N   0  0  0  0  0  0  0  0  0  0  0  0
   -1.6877   65.7744   78.8125 H   0  0  0  0  0  0  0  0  0  0  0  0
   -0.0598   64.4244   77.9506 S   0  0  0  0  0  0  0  0  0  0  0  0
    1.2453   64.1176   78.5020 O   0  0  0  0  0  0  0  0  0  0  0  0
   -0.1792   64.8625   76.5755 O   0  0  0  0  0  0  0  0  0  0  0  0
   -2.7438   60.8014   78.6678 C   0  0  0  0  0  0  0  0  0  0  0  0
   -1.5836   60.9827   79.4276 C   0  0  0  0  0  0  0  0  0  0  0  0
   -0.7569   62.0868   79.2146 C   0  0  0  0  0  0  0  0  0  0  0  0
   -1.0952   63.0143   78.2285 C   0  0  0  0  0  0  0  0  0  0  0  0
   -2.2631   62.8578   77.4773 C   0  0  0  0  0  0  0  0  0  0  0  0
   -3.0840   61.7462   77.6960 C   0  0  0  0  0  0  0  0  0  0  0  0
   -3.3498   59.1901   80.3074 C   0  0  0  0  0  0  0  0  0  0  0  0
   -3.4514   59.6716   78.9733 O   0  0  0  0  0  0  0  0  0  0  0  0
    3.3989   66.5322   84.9213 C   0  0  0  0  0  0  0  0  0  0  0  0
    4.4917   65.4984   84.9366 C   0  0  0  0  0  0  0  0  0  0  0  0
    5.9353   65.9246   85.0305 C   0  0  0  0  0  0  0  0  0  0  0  0
    5.2851   65.2187   86.1881 C   0  0  0  0  0  0  0  0  0  0  0  0
   -0.6874   63.9596   83.9918 C   0  0  0  0  0  0  0  0  0  0  0  0
   -0.1772   62.5470   83.9633 C   0  0  0  0  0  0  0  0  0  0  0  0
    0.4955   61.9854   82.7356 C   0  0  0  0  0  0  0  0  0  0  0  0
   -0.8753   61.5059   83.1240 C   0  0  0  0  0  0  0  0  0  0  0  0
    1.7549   67.4030   79.6584 C   0  0  0  0  0  0  0  0  0  0  0  0
    1.6671   68.8405   80.1164 C   0  0  0  0  0  0  0  0  0  0  0  0
    2.7786   69.6970   80.0299 C   0  0  0  0  0  0  0  0  0  0  0  0
    2.6987   71.0228   80.4643 C   0  0  0  0  0  0  0  0  0  0  0  0
    1.4868   71.4904   80.9983 C   0  0  0  0  0  0  0  0  0  0  0  0
    0.3658   70.6515   81.1067 C   0  0  0  0  0  0  0  0  0  0  0  0
    0.4677   69.3311   80.6615 C   0  0  0  0  0  0  0  0  0  0  0  0
    3.7351   71.9196   80.4247 O   0  0  0  0  0  0  0  0  0  0  0  0
    4.9729   71.4608   79.8942 C   0  0  0  0  0  0  0  0  0  0  0  0
    1.4119   72.7789   81.4815 O   0  0  0  0  0  0  0  0  0  0  0  0
    1.8680   72.8155   82.8324 C   0  0  0  0  0  0  0  0  0  0  0  0
   -0.7625   71.2111   81.6484 O   0  0  0  0  0  0  0  0  0  0  0  0
   -1.5361   72.0647   80.8168 C   0  0  0  0  0  0  0  0  0  0  0  0
 23 24  1  0  0  0
 24 17  1  0  0  0
 17 18  1  0  0  0
 18 19  2  0  0  0
 19 20  1  0  0  0
 20 14  1  0  0  0
 14 15  2  0  0  0
 14 16  2  0  0  0
 14 12  1  0  0  0
 12  1  1  0  0  0
  1  2  2  0  0  0
  2  3  1  0  0  0
  3  4  2  0  0  0
  4  5  1  0  0  0
  5  6  2  0  0  0
  5  7  1  0  0  0
  7 25  1  0  0  0
 25 26  1  0  0  0
 26 27  1  0  0  0
 27 28  1  0  0  0
  7  8  1  0  0  0
  8  9  2  0  0  0
  8 10  1  0  0  0
 10 29  1  0  0  0
 29 30  1  0  0  0
 30 31  1  0  0  0
 31 32  1  0  0  0
  4 11  1  0  0  0
 11 33  1  0  0  0
 33 34  1  0  0  0
 34 35  1  0  0  0
 35 36  2  0  0  0
 36 40  1  0  0  0
 40 41  1  0  0  0
 36 37  1  0  0  0
 37 42  1  0  0  0
 42 43  1  0  0  0
 37 38  2  0  0  0
 38 44  1  0  0  0
 44 45  1  0  0  0
 38 39  1  0  0  0
 20 21  2  0  0  0
 21 22  1  0  0  0
 22 17  2  0  0  0
 11  1  1  0  0  0
 39 34  2  0  0  0
 10  3  1  0  0  0
 32 30  1  0  0  0
 28 26  1  0  0  0
 12 13  1  0  0  0
M  END
> <minimizedAffinity>
-8.70730

$$$$



 45 50  0  0  0  0  0  0  0  0999 V2000
    0.6614   66.6610   81.4291 C   0  0  0  0  0  0  0  0  0  0  0  0
    0.6620   65.7978   82.4186 N   0  0  0  0  0  0  0  0  0  0  0  0
    1.7473   66.1177   83.1686 C   0  0  0  0  0  0  0  0  0  0  0  0
    2.4302   67.1723   82.6449 C   0  0  0  0  0  0  0  0  0  0  0  0
    3.6328   67.6714   83.2156 C   0  0  0  0  0  0  0  0  0  0  0  0
    4.2904   68.5712   82.7008 O   0  0  0  0  0  0  0  0  0  0  0  0
    3.9982   67.0093   84.3926 N   0  0  0  0  0  0  0  0  0  0  0  0
    3.3134   65.9185   84.9644 C   0  0  0  0  0  0  0  0  0  0  0  0
    3.7131   65.3717   85.9964 O   0  0  0  0  0  0  0  0  0  0  0  0
    2.1600   65.4769   84.3115 N   0  0  0  0  0  0  0  0  0  0  0  0
    1.7054   67.5528   81.5440 N   0  0  0  0  0  0  0  0  0  0  0  0
   -0.2933   66.5590   80.3549 N   0  0  0  0  0  0  0  0  0  0  0  0
   -1.2793   66.7598   80.4828 H   0  0  0  0  0  0  0  0  0  0  0  0
    0.0179   65.3979   79.1874 S   0  0  0  0  0  0  0  0  0  0  0  0
    1.4599   65.3822   79.0397 O   0  0  0  0  0  0  0  0  0  0  0  0
   -0.8245   65.6458   78.0359 O   0  0  0  0  0  0  0  0  0  0  0  0
   -1.1874   61.4654   81.1691 C   0  0  0  0  0  0  0  0  0  0  0  0
   -1.9270   62.6296   81.4016 C   0  0  0  0  0  0  0  0  0  0  0  0
   -1.5652   63.8362   80.8007 C   0  0  0  0  0  0  0  0  0  0  0  0
   -0.4501   63.8756   79.9629 C   0  0  0  0  0  0  0  0  0  0  0  0
    0.2846   62.7155   79.7038 C   0  0  0  0  0  0  0  0  0  0  0  0
   -0.0839   61.5113   80.3131 C   0  0  0  0  0  0  0  0  0  0  0  0
   -2.8572   60.5045   82.5621 C   0  0  0  0  0  0  0  0  0  0  0  0
   -1.6460   60.3602   81.8315 O   0  0  0  0  0  0  0  0  0  0  0  0
    5.2174   67.4582   85.0497 C   0  0  0  0  0  0  0  0  0  0  0  0
    6.4269   66.8516   84.3921 C   0  0  0  0  0  0  0  0  0  0  0  0
    7.7805   66.9639   85.0473 C   0  0  0  0  0  0  0  0  0  0  0  0
    7.0961   65.6276   84.9646 C   0  0  0  0  0  0  0  0  0  0  0  0
    1.4312   64.3278   84.8354 C   0  0  0  0  0  0  0  0  0  0  0  0
    0.6109   64.7203   86.0312 C   0  0  0  0  0  0  0  0  0  0  0  0
    0.7375   63.9817   87.3402 C   0  0  0  0  0  0  0  0  0  0  0  0
   -0.5063   63.8270   86.5102 C   0  0  0  0  0  0  0  0  0  0  0  0
    1.9872   68.6723   80.6621 C   0  0  0  0  0  0  0  0  0  0  0  0
    1.3673   69.9576   81.1599 C   0  0  0  0  0  0  0  0  0  0  0  0
    0.0598   70.3205   80.7922 C   0  0  0  0  0  0  0  0  0  0  0  0
   -0.5076   71.5149   81.2444 C   0  0  0  0  0  0  0  0  0  0  0  0
    0.2529   72.3573   82.0718 C   0  0  0  0  0  0  0  0  0  0  0  0
    1.5652   72.0233   82.4434 C   0  0  0  0  0  0  0  0  0  0  0  0
    2.1100   70.8218   81.9832 C   0  0  0  0  0  0  0  0  0  0  0  0
   -1.7690   71.9478   80.9263 O   0  0  0  0  0  0  0  0  0  0  0  0
   -1.9894   72.3856   79.5906 C   0  0  0  0  0  0  0  0  0  0  0  0
   -0.2750   73.5637   82.4784 O   0  0  0  0  0  0  0  0  0  0  0  0
    0.1201   74.5933   81.5738 C   0  0  0  0  0  0  0  0  0  0  0  0
    2.2167   72.9215   83.2488 O   0  0  0  0  0  0  0  0  0  0  0  0
    3.4600   73.4335   82.7899 C   0  0  0  0  0  0  0  0  0  0  0  0
 23 24  1  0  0  0
 24 17  1  0  0  0
 17 18  1  0  0  0
 18 19  2  0  0  0
 19 20  1  0  0  0
 20 14  1  0  0  0
 14 15  2  0  0  0
 14 16  2  0  0  0
 14 12  1  0  0  0
 12  1  1  0  0  0
  1  2  2  0  0  0
  2  3  1  0  0  0
  3  4  2  0  0  0
  4  5  1  0  0  0
  5  6  2  0  0  0
  5  7  1  0  0  0
  7 25  1  0  0  0
 25 26  1  0  0  0
 26 27  1  0  0  0
 27 28  1  0  0  0
  7  8  1  0  0  0
  8  9  2  0  0  0
  8 10  1  0  0  0
 10 29  1  0  0  0
 29 30  1  0  0  0
 30 31  1  0  0  0
 31 32  1  0  0  0
  4 11  1  0  0  0
 11 33  1  0  0  0
 33 34  1  0  0  0
 34 35  1  0  0  0
 35 36  2  0  0  0
 36 40  1  0  0  0
 40 41  1  0  0  0
 36 37  1  0  0  0
 37 42  1  0  0  0
 42 43  1  0  0  0
 37 38  2  0  0  0
 38 44  1  0  0  0
 44 45  1  0  0  0
 38 39  1  0  0  0
 20 21  2  0  0  0
 21 22  1  0  0  0
 22 17  2  0  0  0
 11  1  1  0  0  0
 39 34  2  0  0  0
 10  3  1  0  0  0
 32 30  1  0  0  0
 28 26  1  0  0  0
 12 13  1  0  0  0
M  END
> <minimizedAffinity>
-8.43173

$$$$



 45 50  0  0  0  0  0  0  0  0999 V2000
    1.9038   67.3060   81.9951 C   0  0  0  0  0  0  0  0  0  0  0  0
    2.9027   67.3047   82.8474 N   0  0  0  0  0  0  0  0  0  0  0  0
    2.5554   66.4023   83.8003 C   0  0  0  0  0  0  0  0  0  0  0  0
    1.3379   65.8473   83.5506 C   0  0  0  0  0  0  0  0  0  0  0  0
    0.7249   64.9090   84.4254 C   0  0  0  0  0  0  0  0  0  0  0  0
   -0.4055   64.4672   84.2409 O   0  0  0  0  0  0  0  0  0  0  0  0
    1.5262   64.5768   85.5230 N   0  0  0  0  0  0  0  0  0  0  0  0
    2.7911   65.1279   85.8096 C   0  0  0  0  0  0  0  0  0  0  0  0
    3.4286   64.7985   86.8140 O   0  0  0  0  0  0  0  0  0  0  0  0
    3.2955   66.0687   84.9085 N   0  0  0  0  0  0  0  0  0  0  0  0
    0.9341   66.3981   82.3609 N   0  0  0  0  0  0  0  0  0  0  0  0
    1.8673   68.2356   80.8949 N   0  0  0  0  0  0  0  0  0  0  0  0
    2.5675   68.2373   80.1610 H   0  0  0  0  0  0  0  0  0  0  0  0
    1.2142   69.7453   81.2146 S   0  0  0  0  0  0  0  0  0  0  0  0
    0.9992   69.7724   82.6479 O   0  0  0  0  0  0  0  0  0  0  0  0
    0.1067   69.9834   80.3124 O   0  0  0  0  0  0  0  0  0  0  0  0
    4.6367   72.6265   80.3035 C   0  0  0  0  0  0  0  0  0  0  0  0
    3.4662   73.0899   80.9131 C   0  0  0  0  0  0  0  0  0  0  0  0
    2.4147   72.2164   81.1944 C   0  0  0  0  0  0  0  0  0  0  0  0
    2.5373   70.8678   80.8578 C   0  0  0  0  0  0  0  0  0  0  0  0
    3.7097   70.3867   80.2690 C   0  0  0  0  0  0  0  0  0  0  0  0
    4.7572   71.2705   79.9881 C   0  0  0  0  0  0  0  0  0  0  0  0
    5.6981   74.6176   81.0523 C   0  0  0  0  0  0  0  0  0  0  0  0
    5.5779   73.5921   80.0747 O   0  0  0  0  0  0  0  0  0  0  0  0
    0.9793   63.6171   86.4714 C   0  0  0  0  0  0  0  0  0  0  0  0
   -0.0469   64.2725   87.3550 C   0  0  0  0  0  0  0  0  0  0  0  0
   -1.3868   63.6160   87.5741 C   0  0  0  0  0  0  0  0  0  0  0  0
   -0.3980   63.6974   88.7040 C   0  0  0  0  0  0  0  0  0  0  0  0
    4.5823   66.7014   85.1730 C   0  0  0  0  0  0  0  0  0  0  0  0
    5.7084   65.8433   84.6707 C   0  0  0  0  0  0  0  0  0  0  0  0
    6.9428   65.6094   85.5053 C   0  0  0  0  0  0  0  0  0  0  0  0
    7.0220   66.4713   84.2762 C   0  0  0  0  0  0  0  0  0  0  0  0
   -0.2841   66.0930   81.6307 C   0  0  0  0  0  0  0  0  0  0  0  0
   -0.0631   65.0362   80.5732 C   0  0  0  0  0  0  0  0  0  0  0  0
    0.3322   63.7333   80.9235 C   0  0  0  0  0  0  0  0  0  0  0  0
    0.5469   62.7605   79.9434 C   0  0  0  0  0  0  0  0  0  0  0  0
    0.3678   63.1054   78.5937 C   0  0  0  0  0  0  0  0  0  0  0  0
   -0.0148   64.4030   78.2173 C   0  0  0  0  0  0  0  0  0  0  0  0
   -0.2285   65.3578   79.2147 C   0  0  0  0  0  0  0  0  0  0  0  0
    0.9420   61.4724   80.1974 O   0  0  0  0  0  0  0  0  0  0  0  0
    1.1572   61.1138   81.5573 C   0  0  0  0  0  0  0  0  0  0  0  0
    0.6307   62.1711   77.6153 O   0  0  0  0  0  0  0  0  0  0  0  0
   -0.5655   61.4685   77.2842 C   0  0  0  0  0  0  0  0  0  0  0  0
   -0.1544   64.6299   76.8724 O   0  0  0  0  0  0  0  0  0  0  0  0
   -1.4273   65.0567   76.4073 C   0  0  0  0  0  0  0  0  0  0  0  0
 23 24  1  0  0  0
 24 17  1  0  0  0
 17 18  1  0  0  0
 18 19  2  0  0  0
 19 20  1  0  0  0
 20 14  1  0  0  0
 14 15  2  0  0  0
 14 16  2  0  0  0
 14 12  1  0  0  0
 12  1  1  0  0  0
  1  2  2  0  0  0
  2  3  1  0  0  0
  3  4  2  0  0  0
  4  5  1  0  0  0
  5  6  2  0  0  0
  5  7  1  0  0  0
  7 25  1  0  0  0
 25 26  1  0  0  0
 26 27  1  0  0  0
 27 28  1  0  0  0
  7  8  1  0  0  0
  8  9  2  0  0  0
  8 10  1  0  0  0
 10 29  1  0  0  0
 29 30  1  0  0  0
 30 31  1  0  0  0
 31 32  1  0  0  0
  4 11  1  0  0  0
 11 33  1  0  0  0
 33 34  1  0  0  0
 34 35  1  0  0  0
 35 36  2  0  0  0
 36 40  1  0  0  0
 40 41  1  0  0  0
 36 37  1  0  0  0
 37 42  1  0  0  0
 42 43  1  0  0  0
 37 38  2  0  0  0
 38 44  1  0  0  0
 44 45  1  0  0  0
 38 39  1  0  0  0
 20 21  2  0  0  0
 21 22  1  0  0  0
 22 17  2  0  0  0
 11  1  1  0  0  0
 39 34  2  0  0  0
 10  3  1  0  0  0
 32 30  1  0  0  0
 28 26  1  0  0  0
 12 13  1  0  0  0
M  END
> <minimizedAffinity>
-8.39817

$$$$



 45 50  0  0  0  0  0  0  0  0999 V2000
    1.8816   67.2845   82.0030 C   0  0  0  0  0  0  0  0  0  0  0  0
    2.8828   67.3005   82.8525 N   0  0  0  0  0  0  0  0  0  0  0  0
    2.5494   66.3993   83.8115 C   0  0  0  0  0  0  0  0  0  0  0  0
    1.3384   65.8277   83.5684 C   0  0  0  0  0  0  0  0  0  0  0  0
    0.7396   64.8868   84.4502 C   0  0  0  0  0  0  0  0  0  0  0  0
   -0.3858   64.4299   84.2714 O   0  0  0  0  0  0  0  0  0  0  0  0
    1.5479   64.5709   85.5473 N   0  0  0  0  0  0  0  0  0  0  0  0
    2.8066   65.1394   85.8273 C   0  0  0  0  0  0  0  0  0  0  0  0
    3.4510   64.8237   86.8317 O   0  0  0  0  0  0  0  0  0  0  0  0
    3.2967   66.0812   84.9194 N   0  0  0  0  0  0  0  0  0  0  0  0
    0.9244   66.3666   82.3767 N   0  0  0  0  0  0  0  0  0  0  0  0
    1.8305   68.2073   80.8977 N   0  0  0  0  0  0  0  0  0  0  0  0
    2.5184   68.2017   80.1523 H   0  0  0  0  0  0  0  0  0  0  0  0
    1.1885   69.7215   81.2186 S   0  0  0  0  0  0  0  0  0  0  0  0
    0.9668   69.7464   82.6509 O   0  0  0  0  0  0  0  0  0  0  0  0
    0.0875   69.9716   80.3118 O   0  0  0  0  0  0  0  0  0  0  0  0
    4.6396   72.5761   80.3319 C   0  0  0  0  0  0  0  0  0  0  0  0
    3.4817   73.0419   80.9633 C   0  0  0  0  0  0  0  0  0  0  0  0
    2.4216   72.1766   81.2374 C   0  0  0  0  0  0  0  0  0  0  0  0
    2.5227   70.8339   80.8714 C   0  0  0  0  0  0  0  0  0  0  0  0
    3.6826   70.3499   80.2605 C   0  0  0  0  0  0  0  0  0  0  0  0
    4.7389   71.2256   79.9871 C   0  0  0  0  0  0  0  0  0  0  0  0
    5.5638   74.6735   80.9634 C   0  0  0  0  0  0  0  0  0  0  0  0
    5.5912   73.5338   80.1135 O   0  0  0  0  0  0  0  0  0  0  0  0
    1.0157   63.6098   86.5027 C   0  0  0  0  0  0  0  0  0  0  0  0
   -0.0543   64.2430   87.3498 C   0  0  0  0  0  0  0  0  0  0  0  0
   -1.3797   63.5486   87.5384 C   0  0  0  0  0  0  0  0  0  0  0  0
   -0.4263   63.6714   88.6947 C   0  0  0  0  0  0  0  0  0  0  0  0
    4.5762   66.7315   85.1768 C   0  0  0  0  0  0  0  0  0  0  0  0
    5.7125   65.8762   84.6931 C   0  0  0  0  0  0  0  0  0  0  0  0
    6.9438   65.6642   85.5382 C   0  0  0  0  0  0  0  0  0  0  0  0
    7.0232   66.5098   84.2978 C   0  0  0  0  0  0  0  0  0  0  0  0
   -0.2920   66.0422   81.6517 C   0  0  0  0  0  0  0  0  0  0  0  0
   -0.0522   65.0125   80.5718 C   0  0  0  0  0  0  0  0  0  0  0  0
   -0.2065   65.3390   79.2131 C   0  0  0  0  0  0  0  0  0  0  0  0
    0.0048   64.3824   78.2165 C   0  0  0  0  0  0  0  0  0  0  0  0
    0.3698   63.0794   78.5926 C   0  0  0  0  0  0  0  0  0  0  0  0
    0.5185   62.7249   79.9432 C   0  0  0  0  0  0  0  0  0  0  0  0
    0.3068   63.6992   80.9221 C   0  0  0  0  0  0  0  0  0  0  0  0
   -0.1334   64.6141   76.8722 O   0  0  0  0  0  0  0  0  0  0  0  0
   -1.4205   65.0036   76.4078 C   0  0  0  0  0  0  0  0  0  0  0  0
    0.5262   62.1132   77.6224 O   0  0  0  0  0  0  0  0  0  0  0  0
   -0.7266   61.4834   77.3613 C   0  0  0  0  0  0  0  0  0  0  0  0
    0.8715   61.4244   80.1954 O   0  0  0  0  0  0  0  0  0  0  0  0
    1.3046   61.1047   81.5103 C   0  0  0  0  0  0  0  0  0  0  0  0
 23 24  1  0  0  0
 24 17  1  0  0  0
 17 18  1  0  0  0
 18 19  2  0  0  0
 19 20  1  0  0  0
 20 14  1  0  0  0
 14 15  2  0  0  0
 14 16  2  0  0  0
 14 12  1  0  0  0
 12  1  1  0  0  0
  1  2  2  0  0  0
  2  3  1  0  0  0
  3  4  2  0  0  0
  4  5  1  0  0  0
  5  6  2  0  0  0
  5  7  1  0  0  0
  7 25  1  0  0  0
 25 26  1  0  0  0
 26 27  1  0  0  0
 27 28  1  0  0  0
  7  8  1  0  0  0
  8  9  2  0  0  0
  8 10  1  0  0  0
 10 29  1  0  0  0
 29 30  1  0  0  0
 30 31  1  0  0  0
 31 32  1  0  0  0
  4 11  1  0  0  0
 11 33  1  0  0  0
 33 34  1  0  0  0
 34 35  1  0  0  0
 35 36  2  0  0  0
 36 40  1  0  0  0
 40 41  1  0  0  0
 36 37  1  0  0  0
 37 42  1  0  0  0
 42 43  1  0  0  0
 37 38  2  0  0  0
 38 44  1  0  0  0
 44 45  1  0  0  0
 38 39  1  0  0  0
 20 21  2  0  0  0
 21 22  1  0  0  0
 22 17  2  0  0  0
 11  1  1  0  0  0
 39 34  2  0  0  0
 10  3  1  0  0  0
 32 30  1  0  0  0
 28 26  1  0  0  0
 12 13  1  0  0  0
M  END
> <minimizedAffinity>
-8.36768

$$$$



 45 50  0  0  0  0  0  0  0  0999 V2000
    0.7061   66.6919   81.3379 C   0  0  0  0  0  0  0  0  0  0  0  0
    0.6806   65.8274   82.3259 N   0  0  0  0  0  0  0  0  0  0  0  0
    1.7562   66.1350   83.0949 C   0  0  0  0  0  0  0  0  0  0  0  0
    2.4589   67.1830   82.5846 C   0  0  0  0  0  0  0  0  0  0  0  0
    3.6568   67.6687   83.1766 C   0  0  0  0  0  0  0  0  0  0  0  0
    4.3324   68.5623   82.6745 O   0  0  0  0  0  0  0  0  0  0  0  0
    3.9949   67.0013   84.3587 N   0  0  0  0  0  0  0  0  0  0  0  0
    3.2890   65.9170   84.9170 C   0  0  0  0  0  0  0  0  0  0  0  0
    3.6652   65.3647   85.9549 O   0  0  0  0  0  0  0  0  0  0  0  0
    2.1424   65.4884   84.2438 N   0  0  0  0  0  0  0  0  0  0  0  0
    1.7572   67.5725   81.4720 N   0  0  0  0  0  0  0  0  0  0  0  0
   -0.2310   66.6013   80.2473 N   0  0  0  0  0  0  0  0  0  0  0  0
   -1.2089   66.8509   80.3484 H   0  0  0  0  0  0  0  0  0  0  0  0
    0.0487   65.3923   79.1212 S   0  0  0  0  0  0  0  0  0  0  0  0
    1.4898   65.3324   78.9755 O   0  0  0  0  0  0  0  0  0  0  0  0
   -0.7866   65.6226   77.9609 O   0  0  0  0  0  0  0  0  0  0  0  0
   -1.2642   61.5843   81.2706 C   0  0  0  0  0  0  0  0  0  0  0  0
   -0.1373   61.5753   80.4421 C   0  0  0  0  0  0  0  0  0  0  0  0
    0.2707   62.7344   79.7806 C   0  0  0  0  0  0  0  0  0  0  0  0
   -0.4603   63.9111   79.9487 C   0  0  0  0  0  0  0  0  0  0  0  0
   -1.5748   63.9402   80.7911 C   0  0  0  0  0  0  0  0  0  0  0  0
   -1.9780   62.7725   81.4478 C   0  0  0  0  0  0  0  0  0  0  0  0
   -2.8515   60.2321   82.4125 C   0  0  0  0  0  0  0  0  0  0  0  0
   -1.5563   60.3776   81.8444 O   0  0  0  0  0  0  0  0  0  0  0  0
    5.2072   67.4366   85.0373 C   0  0  0  0  0  0  0  0  0  0  0  0
    6.4177   66.7814   84.4300 C   0  0  0  0  0  0  0  0  0  0  0  0
    7.7842   67.0204   85.0216 C   0  0  0  0  0  0  0  0  0  0  0  0
    7.1418   65.6661   85.1410 C   0  0  0  0  0  0  0  0  0  0  0  0
    1.3928   64.3463   84.7534 C   0  0  0  0  0  0  0  0  0  0  0  0
    0.6173   64.7266   85.9825 C   0  0  0  0  0  0  0  0  0  0  0  0
    0.7901   63.9734   87.2778 C   0  0  0  0  0  0  0  0  0  0  0  0
   -0.4834   63.8297   86.4920 C   0  0  0  0  0  0  0  0  0  0  0  0
    2.0658   68.6901   80.5967 C   0  0  0  0  0  0  0  0  0  0  0  0
    1.4811   69.9878   81.1048 C   0  0  0  0  0  0  0  0  0  0  0  0
    2.2277   70.8423   81.9348 C   0  0  0  0  0  0  0  0  0  0  0  0
    1.6813   72.0365   82.4127 C   0  0  0  0  0  0  0  0  0  0  0  0
    0.3649   72.3715   82.0559 C   0  0  0  0  0  0  0  0  0  0  0  0
   -0.4058   71.5292   81.2382 C   0  0  0  0  0  0  0  0  0  0  0  0
    0.1631   70.3427   80.7682 C   0  0  0  0  0  0  0  0  0  0  0  0
    2.3355   72.9196   83.2323 O   0  0  0  0  0  0  0  0  0  0  0  0
    3.4829   73.5725   82.7019 C   0  0  0  0  0  0  0  0  0  0  0  0
   -0.2042   73.5183   82.5661 O   0  0  0  0  0  0  0  0  0  0  0  0
    0.0548   74.6159   81.6929 C   0  0  0  0  0  0  0  0  0  0  0  0
   -1.6796   71.9521   80.9585 O   0  0  0  0  0  0  0  0  0  0  0  0
   -1.9568   72.3656   79.6278 C   0  0  0  0  0  0  0  0  0  0  0  0
 23 24  1  0  0  0
 24 17  1  0  0  0
 17 18  1  0  0  0
 18 19  2  0  0  0
 19 20  1  0  0  0
 20 14  1  0  0  0
 14 15  2  0  0  0
 14 16  2  0  0  0
 14 12  1  0  0  0
 12  1  1  0  0  0
  1  2  2  0  0  0
  2  3  1  0  0  0
  3  4  2  0  0  0
  4  5  1  0  0  0
  5  6  2  0  0  0
  5  7  1  0  0  0
  7 25  1  0  0  0
 25 26  1  0  0  0
 26 27  1  0  0  0
 27 28  1  0  0  0
  7  8  1  0  0  0
  8  9  2  0  0  0
  8 10  1  0  0  0
 10 29  1  0  0  0
 29 30  1  0  0  0
 30 31  1  0  0  0
 31 32  1  0  0  0
  4 11  1  0  0  0
 11 33  1  0  0  0
 33 34  1  0  0  0
 34 35  1  0  0  0
 35 36  2  0  0  0
 36 40  1  0  0  0
 40 41  1  0  0  0
 36 37  1  0  0  0
 37 42  1  0  0  0
 42 43  1  0  0  0
 37 38  2  0  0  0
 38 44  1  0  0  0
 44 45  1  0  0  0
 38 39  1  0  0  0
 20 21  2  0  0  0
 21 22  1  0  0  0
 22 17  2  0  0  0
 11  1  1  0  0  0
 39 34  2  0  0  0
 10  3  1  0  0  0
 32 30  1  0  0  0
 28 26  1  0  0  0
 12 13  1  0  0  0
M  END
> <minimizedAffinity>
-8.29273

$$$$



 45 50  0  0  0  0  0  0  0  0999 V2000
    2.0981   67.2411   82.4254 C   0  0  0  0  0  0  0  0  0  0  0  0
    3.0441   67.1428   83.3308 N   0  0  0  0  0  0  0  0  0  0  0  0
    2.5997   66.2076   84.2088 C   0  0  0  0  0  0  0  0  0  0  0  0
    1.3744   65.7287   83.8596 C   0  0  0  0  0  0  0  0  0  0  0  0
    0.6680   64.7753   84.6428 C   0  0  0  0  0  0  0  0  0  0  0  0
   -0.4691   64.4014   84.3700 O   0  0  0  0  0  0  0  0  0  0  0  0
    1.3870   64.3434   85.7624 N   0  0  0  0  0  0  0  0  0  0  0  0
    2.6572   64.8139   86.1508 C   0  0  0  0  0  0  0  0  0  0  0  0
    3.2186   64.3982   87.1686 O   0  0  0  0  0  0  0  0  0  0  0  0
    3.2571   65.7767   85.3354 N   0  0  0  0  0  0  0  0  0  0  0  0
    1.0673   66.3639   82.6831 N   0  0  0  0  0  0  0  0  0  0  0  0
    2.1697   68.2307   81.3808 N   0  0  0  0  0  0  0  0  0  0  0  0
    2.3086   67.9841   80.4067 H   0  0  0  0  0  0  0  0  0  0  0  0
    2.8161   69.7176   81.8041 S   0  0  0  0  0  0  0  0  0  0  0  0
    3.9623   69.8970   80.9349 O   0  0  0  0  0  0  0  0  0  0  0  0
    2.9833   69.7700   83.2416 O   0  0  0  0  0  0  0  0  0  0  0  0
   -0.3606   72.7293   80.5067 C   0  0  0  0  0  0  0  0  0  0  0  0
   -0.7256   71.4276   80.8654 C   0  0  0  0  0  0  0  0  0  0  0  0
    0.2388   70.5003   81.2624 C   0  0  0  0  0  0  0  0  0  0  0  0
    1.5808   70.8811   81.2959 C   0  0  0  0  0  0  0  0  0  0  0  0
    1.9574   72.1848   80.9621 C   0  0  0  0  0  0  0  0  0  0  0  0
    0.9838   73.1065   80.5624 C   0  0  0  0  0  0  0  0  0  0  0  0
   -2.3401   72.9697   79.2122 C   0  0  0  0  0  0  0  0  0  0  0  0
   -1.4045   73.5269   80.1265 O   0  0  0  0  0  0  0  0  0  0  0  0
    0.7412   63.3612   86.6214 C   0  0  0  0  0  0  0  0  0  0  0  0
   -0.2174   64.0336   87.5661 C   0  0  0  0  0  0  0  0  0  0  0  0
   -1.6094   63.4832   87.7502 C   0  0  0  0  0  0  0  0  0  0  0  0
   -0.6110   63.3876   88.8705 C   0  0  0  0  0  0  0  0  0  0  0  0
    4.5542   66.3288   85.7079 C   0  0  0  0  0  0  0  0  0  0  0  0
    5.6602   65.6277   84.9716 C   0  0  0  0  0  0  0  0  0  0  0  0
    7.0884   65.7074   85.4499 C   0  0  0  0  0  0  0  0  0  0  0  0
    6.6778   66.4252   84.1945 C   0  0  0  0  0  0  0  0  0  0  0  0
   -0.1189   66.1608   81.8694 C   0  0  0  0  0  0  0  0  0  0  0  0
    0.0841   65.0848   80.8278 C   0  0  0  0  0  0  0  0  0  0  0  0
    0.0474   65.3894   79.4558 C   0  0  0  0  0  0  0  0  0  0  0  0
    0.2242   64.3911   78.4940 C   0  0  0  0  0  0  0  0  0  0  0  0
    0.4341   63.0688   78.9185 C   0  0  0  0  0  0  0  0  0  0  0  0
    0.4629   62.7368   80.2826 C   0  0  0  0  0  0  0  0  0  0  0  0
    0.2886   63.7523   81.2264 C   0  0  0  0  0  0  0  0  0  0  0  0
    0.1933   64.6000   77.1393 O   0  0  0  0  0  0  0  0  0  0  0  0
   -1.0751   64.8596   76.5494 C   0  0  0  0  0  0  0  0  0  0  0  0
    0.5538   62.0670   77.9797 O   0  0  0  0  0  0  0  0  0  0  0  0
   -0.7072   61.4272   77.7924 C   0  0  0  0  0  0  0  0  0  0  0  0
    0.6688   61.4150   80.5827 O   0  0  0  0  0  0  0  0  0  0  0  0
    1.2778   61.1120   81.8301 C   0  0  0  0  0  0  0  0  0  0  0  0
 23 24  1  0  0  0
 24 17  1  0  0  0
 17 18  1  0  0  0
 18 19  2  0  0  0
 19 20  1  0  0  0
 20 14  1  0  0  0
 14 15  2  0  0  0
 14 16  2  0  0  0
 14 12  1  0  0  0
 12  1  1  0  0  0
  1  2  2  0  0  0
  2  3  1  0  0  0
  3  4  2  0  0  0
  4  5  1  0  0  0
  5  6  2  0  0  0
  5  7  1  0  0  0
  7 25  1  0  0  0
 25 26  1  0  0  0
 26 27  1  0  0  0
 27 28  1  0  0  0
  7  8  1  0  0  0
  8  9  2  0  0  0
  8 10  1  0  0  0
 10 29  1  0  0  0
 29 30  1  0  0  0
 30 31  1  0  0  0
 31 32  1  0  0  0
  4 11  1  0  0  0
 11 33  1  0  0  0
 33 34  1  0  0  0
 34 35  1  0  0  0
 35 36  2  0  0  0
 36 40  1  0  0  0
 40 41  1  0  0  0
 36 37  1  0  0  0
 37 42  1  0  0  0
 42 43  1  0  0  0
 37 38  2  0  0  0
 38 44  1  0  0  0
 44 45  1  0  0  0
 38 39  1  0  0  0
 20 21  2  0  0  0
 21 22  1  0  0  0
 22 17  2  0  0  0
 11  1  1  0  0  0
 39 34  2  0  0  0
 10  3  1  0  0  0
 32 30  1  0  0  0
 28 26  1  0  0  0
 12 13  1  0  0  0
M  END
> <minimizedAffinity>
-8.28289

$$$$
