


 45 48  0  0  0  0  0  0  0  0999 V2000
    3.7498   66.6840   84.6540 C   0  0  0  0  0  0  0  0  0  0  0  0
    4.5927   67.7176   84.2235 C   0  0  0  0  0  0  0  0  0  0  0  0
    4.1139   68.7213   83.3755 C   0  0  0  0  0  0  0  0  0  0  0  0
    2.7794   68.7067   82.9713 C   0  0  0  0  0  0  0  0  0  0  0  0
    1.9124   67.7250   83.4474 C   0  0  0  0  0  0  0  0  0  0  0  0
    2.3942   66.6948   84.2699 C   0  0  0  0  0  0  0  0  0  0  0  0
    1.4176   65.6211   84.6343 C   0  0  0  0  0  0  0  0  0  0  0  0
    0.7249   65.0495   83.6898 N   0  0  0  0  0  0  0  0  0  0  0  0
   -0.1584   64.0668   84.1359 C   0  0  0  0  0  0  0  0  0  0  0  0
   -1.0157   63.2845   83.3374 C   0  0  0  0  0  0  0  0  0  0  0  0
   -1.6927   62.4279   84.2181 C   0  0  0  0  0  0  0  0  0  0  0  0
   -1.2628   62.7473   85.5056 N   0  0  0  0  0  0  0  0  0  0  0  0
   -1.7558   62.1621   86.7360 C   0  0  0  0  0  0  0  0  0  0  0  0
   -0.2950   63.7168   85.4466 C   0  0  0  0  0  0  0  0  0  0  0  0
    0.4885   64.3238   86.4752 C   0  0  0  0  0  0  0  0  0  0  0  0
    0.4758   64.0224   87.6637 O   0  0  0  0  0  0  0  0  0  0  0  0
    1.3120   65.3056   85.9791 N   0  0  0  0  0  0  0  0  0  0  0  0
    1.9262   65.7496   86.6490 H   0  0  0  0  0  0  0  0  0  0  0  0
   -2.6585   61.3887   83.9194 C   0  0  0  0  0  0  0  0  0  0  0  0
   -2.4090   60.4370   83.0767 N   0  0  0  0  0  0  0  0  0  0  0  0
   -3.5201   59.5871   82.9957 O   0  0  0  0  0  0  0  0  0  0  0  0
   -3.2287   58.9298   82.3358 H   0  0  0  0  0  0  0  0  0  0  0  0
   -1.1212   63.3651   81.8435 C   0  0  0  0  0  0  0  0  0  0  0  0
    0.0684   62.7464   81.1052 C   0  0  0  0  0  0  0  0  0  0  0  0
    0.7130   61.5935   81.8633 C   0  0  0  0  0  0  0  0  0  0  0  0
    2.1518   69.9772   81.8932 S   0  0  0  0  0  0  0  0  0  0  0  0
    0.9943   70.5538   82.5417 O   0  0  0  0  0  0  0  0  0  0  0  0
    3.2774   70.8000   81.5009 O   0  0  0  0  0  0  0  0  0  0  0  0
    1.6403   69.1243   80.5275 N   0  0  0  0  0  0  0  0  0  0  0  0
    0.1931   69.0958   80.1927 C   0  0  0  0  0  0  0  0  0  0  0  0
   -0.4337   67.6910   80.3282 C   0  0  0  0  0  0  0  0  0  0  0  0
    0.3532   66.5940   79.7525 N   0  0  0  0  0  0  0  0  0  0  0  0
    1.6319   67.0095   79.1781 C   0  0  0  0  0  0  0  0  0  0  0  0
    2.4065   67.9038   80.1631 C   0  0  0  0  0  0  0  0  0  0  0  0
   -0.3908   65.5758   79.0230 C   0  0  0  0  0  0  0  0  0  0  0  0
    0.3325   64.8212   77.9018 C   0  0  0  0  0  0  0  0  0  0  0  0
   -0.5681   63.9244   77.0612 C   0  0  0  0  0  0  0  0  0  0  0  0
    0.1338   62.7066   76.8174 O   0  0  0  0  0  0  0  0  0  0  0  0
   -0.5895   61.5687   77.2505 N   0  0  0  0  0  0  0  0  0  0  0  0
   -1.5531   61.8578   77.9567 O   0  0  0  0  0  0  0  0  0  0  0  0
   -0.1803   60.4666   76.8816 O   0  0  0  0  0  0  0  0  0  0  0  0
    4.1752   65.6723   85.4757 O   0  0  0  0  0  0  0  0  0  0  0  0
    5.5525   65.2857   85.4070 C   0  0  0  0  0  0  0  0  0  0  0  0
    5.3543   65.4901   87.9293 C   0  0  0  0  0  0  0  0  0  0  0  0
    6.2921   65.4876   86.7306 C   0  0  0  0  0  0  0  0  0  0  0  0
 44 45  1  0  0  0
 45 43  1  0  0  0
 43 42  1  0  0  0
 42  1  1  0  0  0
  1  2  1  0  0  0
  2  3  2  0  0  0
  3  4  1  0  0  0
  4 26  1  0  0  0
 26 27  2  0  0  0
 26 28  2  0  0  0
 26 29  1  0  0  0
 29 30  1  0  0  0
 30 31  1  0  0  0
 31 32  1  0  0  0
 32 35  1  0  0  0
 35 36  1  0  0  0
 36 37  1  0  0  0
 37 38  1  0  0  0
 38 39  1  0  0  0
 39 40  2  0  0  0
 39 41  1  0  0  0
 32 33  1  0  0  0
 33 34  1  0  0  0
  4  5  2  0  0  0
  5  6  1  0  0  0
  6  7  1  0  0  0
  7  8  2  0  0  0
  8  9  1  0  0  0
  9 10  1  0  0  0
 10 23  1  0  0  0
 23 24  1  0  0  0
 24 25  1  0  0  0
 10 11  2  0  0  0
 11 19  1  0  0  0
 19 20  2  0  0  0
 20 21  1  0  0  0
 11 12  1  0  0  0
 12 13  1  0  0  0
 12 14  1  0  0  0
 14 15  1  0  0  0
 15 16  2  0  0  0
 15 17  1  0  0  0
  6  1  2  0  0  0
 17  7  1  0  0  0
 34 29  1  0  0  0
 14  9  2  0  0  0
 21 22  1  0  0  0
 17 18  1  0  0  0
M  CHG 1  39   1
M  CHG 1  41  -1
M  END
> <minimizedAffinity>
-10.10160

$$$$



 45 48  0  0  0  0  0  0  0  0999 V2000
    3.8061   66.8815   84.5765 C   0  0  0  0  0  0  0  0  0  0  0  0
    4.6160   67.9325   84.1254 C   0  0  0  0  0  0  0  0  0  0  0  0
    4.1143   68.8875   83.2354 C   0  0  0  0  0  0  0  0  0  0  0  0
    2.7891   68.8067   82.8090 C   0  0  0  0  0  0  0  0  0  0  0  0
    1.9522   67.8080   83.3036 C   0  0  0  0  0  0  0  0  0  0  0  0
    2.4584   66.8258   84.1690 C   0  0  0  0  0  0  0  0  0  0  0  0
    1.5177   65.7272   84.5532 C   0  0  0  0  0  0  0  0  0  0  0  0
    0.7324   65.2209   83.6446 N   0  0  0  0  0  0  0  0  0  0  0  0
   -0.1070   64.2076   84.1069 C   0  0  0  0  0  0  0  0  0  0  0  0
   -1.0426   63.4805   83.3450 C   0  0  0  0  0  0  0  0  0  0  0  0
   -1.6331   62.5635   84.2271 C   0  0  0  0  0  0  0  0  0  0  0  0
   -1.0766   62.7939   85.4847 N   0  0  0  0  0  0  0  0  0  0  0  0
   -1.4482   62.1239   86.7144 C   0  0  0  0  0  0  0  0  0  0  0  0
   -0.1150   63.7674   85.3974 C   0  0  0  0  0  0  0  0  0  0  0  0
    0.7692   64.3036   86.3828 C   0  0  0  0  0  0  0  0  0  0  0  0
    0.8727   63.9206   87.5431 O   0  0  0  0  0  0  0  0  0  0  0  0
    1.5441   65.3192   85.8768 N   0  0  0  0  0  0  0  0  0  0  0  0
    2.2236   65.7172   86.5117 H   0  0  0  0  0  0  0  0  0  0  0  0
   -2.6285   61.5452   83.9543 C   0  0  0  0  0  0  0  0  0  0  0  0
   -2.4210   60.5876   83.1070 N   0  0  0  0  0  0  0  0  0  0  0  0
   -3.5519   59.7620   83.0551 O   0  0  0  0  0  0  0  0  0  0  0  0
   -3.2917   59.0979   82.3891 H   0  0  0  0  0  0  0  0  0  0  0  0
   -1.2949   63.6640   81.8781 C   0  0  0  0  0  0  0  0  0  0  0  0
   -0.1046   63.2844   80.9936 C   0  0  0  0  0  0  0  0  0  0  0  0
    0.4011   61.8694   81.2408 C   0  0  0  0  0  0  0  0  0  0  0  0
    2.1326   70.0145   81.6774 S   0  0  0  0  0  0  0  0  0  0  0  0
    1.9396   69.3489   80.4076 O   0  0  0  0  0  0  0  0  0  0  0  0
    1.0344   70.6778   82.3495 O   0  0  0  0  0  0  0  0  0  0  0  0
    3.3872   71.1347   81.5180 N   0  0  0  0  0  0  0  0  0  0  0  0
    3.2368   72.4807   82.1289 C   0  0  0  0  0  0  0  0  0  0  0  0
    3.1540   73.6153   81.0846 C   0  0  0  0  0  0  0  0  0  0  0  0
    4.1351   73.5394   79.9957 N   0  0  0  0  0  0  0  0  0  0  0  0
    5.0092   72.3691   80.0556 C   0  0  0  0  0  0  0  0  0  0  0  0
    4.1865   71.0849   80.2658 C   0  0  0  0  0  0  0  0  0  0  0  0
    4.7516   74.7955   79.5898 C   0  0  0  0  0  0  0  0  0  0  0  0
    5.2690   74.9111   78.1516 C   0  0  0  0  0  0  0  0  0  0  0  0
    6.7838   75.0272   78.0330 C   0  0  0  0  0  0  0  0  0  0  0  0
    7.2959   73.7371   77.7036 O   0  0  0  0  0  0  0  0  0  0  0  0
    8.1291   73.2095   78.7199 N   0  0  0  0  0  0  0  0  0  0  0  0
    8.4122   72.0274   78.5373 O   0  0  0  0  0  0  0  0  0  0  0  0
    8.4570   73.9706   79.6317 O   0  0  0  0  0  0  0  0  0  0  0  0
    4.2552   65.9155   85.4396 O   0  0  0  0  0  0  0  0  0  0  0  0
    5.2105   66.2970   86.4361 C   0  0  0  0  0  0  0  0  0  0  0  0
    5.6590   65.5129   88.8083 C   0  0  0  0  0  0  0  0  0  0  0  0
    5.6275   65.1318   87.3351 C   0  0  0  0  0  0  0  0  0  0  0  0
 44 45  1  0  0  0
 45 43  1  0  0  0
 43 42  1  0  0  0
 42  1  1  0  0  0
  1  2  1  0  0  0
  2  3  2  0  0  0
  3  4  1  0  0  0
  4 26  1  0  0  0
 26 27  2  0  0  0
 26 28  2  0  0  0
 26 29  1  0  0  0
 29 30  1  0  0  0
 30 31  1  0  0  0
 31 32  1  0  0  0
 32 35  1  0  0  0
 35 36  1  0  0  0
 36 37  1  0  0  0
 37 38  1  0  0  0
 38 39  1  0  0  0
 39 40  2  0  0  0
 39 41  1  0  0  0
 32 33  1  0  0  0
 33 34  1  0  0  0
  4  5  2  0  0  0
  5  6  1  0  0  0
  6  7  1  0  0  0
  7  8  2  0  0  0
  8  9  1  0  0  0
  9 10  1  0  0  0
 10 23  1  0  0  0
 23 24  1  0  0  0
 24 25  1  0  0  0
 10 11  2  0  0  0
 11 19  1  0  0  0
 19 20  2  0  0  0
 20 21  1  0  0  0
 11 12  1  0  0  0
 12 13  1  0  0  0
 12 14  1  0  0  0
 14 15  1  0  0  0
 15 16  2  0  0  0
 15 17  1  0  0  0
  6  1  2  0  0  0
 17  7  1  0  0  0
 34 29  1  0  0  0
 14  9  2  0  0  0
 21 22  1  0  0  0
 17 18  1  0  0  0
M  CHG 1  39   1
M  CHG 1  41  -1
M  END
> <minimizedAffinity>
-9.41572

$$$$



 45 48  0  0  0  0  0  0  0  0999 V2000
    3.6295   67.1357   84.2900 C   0  0  0  0  0  0  0  0  0  0  0  0
    4.3895   68.2078   83.8033 C   0  0  0  0  0  0  0  0  0  0  0  0
    3.8493   69.0989   82.8706 C   0  0  0  0  0  0  0  0  0  0  0  0
    2.5347   68.9329   82.4364 C   0  0  0  0  0  0  0  0  0  0  0  0
    1.7446   67.9133   82.9641 C   0  0  0  0  0  0  0  0  0  0  0  0
    2.2909   66.9943   83.8734 C   0  0  0  0  0  0  0  0  0  0  0  0
    1.4034   65.8652   84.2941 C   0  0  0  0  0  0  0  0  0  0  0  0
    0.6145   65.3188   83.4121 N   0  0  0  0  0  0  0  0  0  0  0  0
   -0.1729   64.2798   83.9073 C   0  0  0  0  0  0  0  0  0  0  0  0
   -1.0996   63.5088   83.1783 C   0  0  0  0  0  0  0  0  0  0  0  0
   -1.6312   62.5802   84.0854 C   0  0  0  0  0  0  0  0  0  0  0  0
   -1.0511   62.8461   85.3252 N   0  0  0  0  0  0  0  0  0  0  0  0
   -1.3643   62.1767   86.5714 C   0  0  0  0  0  0  0  0  0  0  0  0
   -0.1301   63.8544   85.2021 C   0  0  0  0  0  0  0  0  0  0  0  0
    0.7584   64.4352   86.1579 C   0  0  0  0  0  0  0  0  0  0  0  0
    0.9069   64.0698   87.3189 O   0  0  0  0  0  0  0  0  0  0  0  0
    1.4802   65.4737   85.6208 N   0  0  0  0  0  0  0  0  0  0  0  0
    2.1604   65.9045   86.2331 H   0  0  0  0  0  0  0  0  0  0  0  0
   -2.5936   61.5217   83.8500 C   0  0  0  0  0  0  0  0  0  0  0  0
   -2.3461   60.5289   83.0555 N   0  0  0  0  0  0  0  0  0  0  0  0
   -3.4529   59.6700   83.0290 O   0  0  0  0  0  0  0  0  0  0  0  0
   -3.1636   58.9809   82.4014 H   0  0  0  0  0  0  0  0  0  0  0  0
   -1.3972   63.6657   81.7168 C   0  0  0  0  0  0  0  0  0  0  0  0
   -0.2237   63.3012   80.8040 C   0  0  0  0  0  0  0  0  0  0  0  0
   -0.0888   61.8029   80.5674 C   0  0  0  0  0  0  0  0  0  0  0  0
    1.8296   70.0585   81.2506 S   0  0  0  0  0  0  0  0  0  0  0  0
    2.4391   69.7676   79.9713 O   0  0  0  0  0  0  0  0  0  0  0  0
    0.3920   70.0153   81.4220 O   0  0  0  0  0  0  0  0  0  0  0  0
    2.3624   71.5740   81.7737 N   0  0  0  0  0  0  0  0  0  0  0  0
    1.5078   72.3609   82.6998 C   0  0  0  0  0  0  0  0  0  0  0  0
    0.9549   73.6549   82.0638 C   0  0  0  0  0  0  0  0  0  0  0  0
    1.9287   74.4460   81.3022 N   0  0  0  0  0  0  0  0  0  0  0  0
    3.2630   73.8525   81.2346 C   0  0  0  0  0  0  0  0  0  0  0  0
    3.1801   72.3714   80.8225 C   0  0  0  0  0  0  0  0  0  0  0  0
    1.8643   75.8916   81.4721 C   0  0  0  0  0  0  0  0  0  0  0  0
    1.3849   76.4365   82.8222 C   0  0  0  0  0  0  0  0  0  0  0  0
    2.4967   76.9646   83.7207 C   0  0  0  0  0  0  0  0  0  0  0  0
    3.1183   75.8451   84.3496 O   0  0  0  0  0  0  0  0  0  0  0  0
    4.3386   76.1877   84.9813 N   0  0  0  0  0  0  0  0  0  0  0  0
    4.2275   77.1458   85.7432 O   0  0  0  0  0  0  0  0  0  0  0  0
    5.3284   75.5096   84.7008 O   0  0  0  0  0  0  0  0  0  0  0  0
    4.1180   66.2298   85.1958 O   0  0  0  0  0  0  0  0  0  0  0  0
    5.3605   66.5296   85.8420 C   0  0  0  0  0  0  0  0  0  0  0  0
    7.5813   66.1935   84.6597 C   0  0  0  0  0  0  0  0  0  0  0  0
    6.4723   65.5450   85.4760 C   0  0  0  0  0  0  0  0  0  0  0  0
 44 45  1  0  0  0
 45 43  1  0  0  0
 43 42  1  0  0  0
 42  1  1  0  0  0
  1  2  1  0  0  0
  2  3  2  0  0  0
  3  4  1  0  0  0
  4 26  1  0  0  0
 26 27  2  0  0  0
 26 28  2  0  0  0
 26 29  1  0  0  0
 29 30  1  0  0  0
 30 31  1  0  0  0
 31 32  1  0  0  0
 32 35  1  0  0  0
 35 36  1  0  0  0
 36 37  1  0  0  0
 37 38  1  0  0  0
 38 39  1  0  0  0
 39 40  2  0  0  0
 39 41  1  0  0  0
 32 33  1  0  0  0
 33 34  1  0  0  0
  4  5  2  0  0  0
  5  6  1  0  0  0
  6  7  1  0  0  0
  7  8  2  0  0  0
  8  9  1  0  0  0
  9 10  1  0  0  0
 10 23  1  0  0  0
 23 24  1  0  0  0
 24 25  1  0  0  0
 10 11  2  0  0  0
 11 19  1  0  0  0
 19 20  2  0  0  0
 20 21  1  0  0  0
 11 12  1  0  0  0
 12 13  1  0  0  0
 12 14  1  0  0  0
 14 15  1  0  0  0
 15 16  2  0  0  0
 15 17  1  0  0  0
  6  1  2  0  0  0
 17  7  1  0  0  0
 34 29  1  0  0  0
 14  9  2  0  0  0
 21 22  1  0  0  0
 17 18  1  0  0  0
M  CHG 1  39   1
M  CHG 1  41  -1
M  END
> <minimizedAffinity>
-9.32755

$$$$



 45 48  0  0  0  0  0  0  0  0999 V2000
    3.6972   67.0231   84.4046 C   0  0  0  0  0  0  0  0  0  0  0  0
    4.4743   68.0758   83.9028 C   0  0  0  0  0  0  0  0  0  0  0  0
    3.9497   68.9601   82.9548 C   0  0  0  0  0  0  0  0  0  0  0  0
    2.6336   68.8070   82.5202 C   0  0  0  0  0  0  0  0  0  0  0  0
    1.8271   67.8079   83.0622 C   0  0  0  0  0  0  0  0  0  0  0  0
    2.3575   66.8953   83.9872 C   0  0  0  0  0  0  0  0  0  0  0  0
    1.4522   65.7866   84.4236 C   0  0  0  0  0  0  0  0  0  0  0  0
    0.6637   65.2320   83.5465 N   0  0  0  0  0  0  0  0  0  0  0  0
   -0.1411   64.2135   84.0564 C   0  0  0  0  0  0  0  0  0  0  0  0
   -1.0715   63.4393   83.3356 C   0  0  0  0  0  0  0  0  0  0  0  0
   -1.6225   62.5366   84.2572 C   0  0  0  0  0  0  0  0  0  0  0  0
   -1.0493   62.8210   85.4962 N   0  0  0  0  0  0  0  0  0  0  0  0
   -1.3814   62.1818   86.7533 C   0  0  0  0  0  0  0  0  0  0  0  0
   -0.1145   63.8148   85.3601 C   0  0  0  0  0  0  0  0  0  0  0  0
    0.7734   64.4041   86.3112 C   0  0  0  0  0  0  0  0  0  0  0  0
    0.9075   64.0612   87.4808 O   0  0  0  0  0  0  0  0  0  0  0  0
    1.5129   65.4220   85.7588 N   0  0  0  0  0  0  0  0  0  0  0  0
    2.1934   65.8569   86.3678 H   0  0  0  0  0  0  0  0  0  0  0  0
   -2.5963   61.4856   84.0357 C   0  0  0  0  0  0  0  0  0  0  0  0
   -2.4792   60.6292   83.0708 N   0  0  0  0  0  0  0  0  0  0  0  0
   -3.5611   59.7396   83.1074 O   0  0  0  0  0  0  0  0  0  0  0  0
   -3.3776   59.1609   82.3433 H   0  0  0  0  0  0  0  0  0  0  0  0
   -1.3549   63.5693   81.8687 C   0  0  0  0  0  0  0  0  0  0  0  0
   -0.2013   63.1111   80.9729 C   0  0  0  0  0  0  0  0  0  0  0  0
    0.4239   61.7973   81.4226 C   0  0  0  0  0  0  0  0  0  0  0  0
    1.9481   69.9241   81.3151 S   0  0  0  0  0  0  0  0  0  0  0  0
    3.0200   70.2922   80.4161 O   0  0  0  0  0  0  0  0  0  0  0  0
    0.7281   69.3217   80.8184 O   0  0  0  0  0  0  0  0  0  0  0  0
    1.5158   71.2786   82.2276 N   0  0  0  0  0  0  0  0  0  0  0  0
    0.1807   71.8958   82.0179 C   0  0  0  0  0  0  0  0  0  0  0  0
    0.2561   73.3137   81.4106 C   0  0  0  0  0  0  0  0  0  0  0  0
    1.2576   74.2020   82.0123 N   0  0  0  0  0  0  0  0  0  0  0  0
    2.0550   73.5800   83.0680 C   0  0  0  0  0  0  0  0  0  0  0  0
    2.6040   72.2182   82.6051 C   0  0  0  0  0  0  0  0  0  0  0  0
    0.8515   75.5844   82.2285 C   0  0  0  0  0  0  0  0  0  0  0  0
    1.7337   76.4616   83.1240 C   0  0  0  0  0  0  0  0  0  0  0  0
    0.9628   77.3803   84.0642 C   0  0  0  0  0  0  0  0  0  0  0  0
   -0.3422   77.5670   83.5191 O   0  0  0  0  0  0  0  0  0  0  0  0
   -1.3637   77.3706   84.4802 N   0  0  0  0  0  0  0  0  0  0  0  0
   -1.0297   77.7251   85.6088 O   0  0  0  0  0  0  0  0  0  0  0  0
   -2.4245   76.8851   84.0841 O   0  0  0  0  0  0  0  0  0  0  0  0
    4.1700   66.1244   85.3258 O   0  0  0  0  0  0  0  0  0  0  0  0
    5.4404   66.3895   85.9317 C   0  0  0  0  0  0  0  0  0  0  0  0
    7.6736   66.2207   84.7371 C   0  0  0  0  0  0  0  0  0  0  0  0
    6.5456   65.4628   85.4225 C   0  0  0  0  0  0  0  0  0  0  0  0
 44 45  1  0  0  0
 45 43  1  0  0  0
 43 42  1  0  0  0
 42  1  1  0  0  0
  1  2  1  0  0  0
  2  3  2  0  0  0
  3  4  1  0  0  0
  4 26  1  0  0  0
 26 27  2  0  0  0
 26 28  2  0  0  0
 26 29  1  0  0  0
 29 30  1  0  0  0
 30 31  1  0  0  0
 31 32  1  0  0  0
 32 35  1  0  0  0
 35 36  1  0  0  0
 36 37  1  0  0  0
 37 38  1  0  0  0
 38 39  1  0  0  0
 39 40  2  0  0  0
 39 41  1  0  0  0
 32 33  1  0  0  0
 33 34  1  0  0  0
  4  5  2  0  0  0
  5  6  1  0  0  0
  6  7  1  0  0  0
  7  8  2  0  0  0
  8  9  1  0  0  0
  9 10  1  0  0  0
 10 23  1  0  0  0
 23 24  1  0  0  0
 24 25  1  0  0  0
 10 11  2  0  0  0
 11 19  1  0  0  0
 19 20  2  0  0  0
 20 21  1  0  0  0
 11 12  1  0  0  0
 12 13  1  0  0  0
 12 14  1  0  0  0
 14 15  1  0  0  0
 15 16  2  0  0  0
 15 17  1  0  0  0
  6  1  2  0  0  0
 17  7  1  0  0  0
 34 29  1  0  0  0
 14  9  2  0  0  0
 21 22  1  0  0  0
 17 18  1  0  0  0
M  CHG 1  39   1
M  CHG 1  41  -1
M  END
> <minimizedAffinity>
-9.27449

$$$$



 45 48  0  0  0  0  0  0  0  0999 V2000
    3.8015   66.8466   84.6217 C   0  0  0  0  0  0  0  0  0  0  0  0
    4.6288   67.8757   84.1522 C   0  0  0  0  0  0  0  0  0  0  0  0
    4.1677   68.7768   83.1872 C   0  0  0  0  0  0  0  0  0  0  0  0
    2.8650   68.6645   82.7026 C   0  0  0  0  0  0  0  0  0  0  0  0
    2.0084   67.6898   83.2112 C   0  0  0  0  0  0  0  0  0  0  0  0
    2.4753   66.7603   84.1535 C   0  0  0  0  0  0  0  0  0  0  0  0
    1.5208   65.6791   84.5525 C   0  0  0  0  0  0  0  0  0  0  0  0
    0.7592   65.1405   83.6422 N   0  0  0  0  0  0  0  0  0  0  0  0
   -0.0960   64.1473   84.1189 C   0  0  0  0  0  0  0  0  0  0  0  0
   -1.0125   63.3940   83.3593 C   0  0  0  0  0  0  0  0  0  0  0  0
   -1.6302   62.5123   84.2585 C   0  0  0  0  0  0  0  0  0  0  0  0
   -1.1079   62.7888   85.5215 N   0  0  0  0  0  0  0  0  0  0  0  0
   -1.5156   62.1666   86.7649 C   0  0  0  0  0  0  0  0  0  0  0  0
   -0.1411   63.7562   85.4244 C   0  0  0  0  0  0  0  0  0  0  0  0
    0.7173   64.3272   86.4131 C   0  0  0  0  0  0  0  0  0  0  0  0
    0.7873   63.9881   87.5893 O   0  0  0  0  0  0  0  0  0  0  0  0
    1.5091   65.3213   85.8908 N   0  0  0  0  0  0  0  0  0  0  0  0
    2.1721   65.7415   86.5289 H   0  0  0  0  0  0  0  0  0  0  0  0
   -2.6210   61.4867   83.9968 C   0  0  0  0  0  0  0  0  0  0  0  0
   -2.4422   60.5677   83.1015 N   0  0  0  0  0  0  0  0  0  0  0  0
   -3.5600   59.7231   83.0752 O   0  0  0  0  0  0  0  0  0  0  0  0
   -3.3239   59.0912   82.3700 H   0  0  0  0  0  0  0  0  0  0  0  0
   -1.2235   63.5225   81.8800 C   0  0  0  0  0  0  0  0  0  0  0  0
   -0.0128   63.1010   81.0436 C   0  0  0  0  0  0  0  0  0  0  0  0
    0.4856   61.6997   81.3710 C   0  0  0  0  0  0  0  0  0  0  0  0
    2.2601   69.8036   81.4751 S   0  0  0  0  0  0  0  0  0  0  0  0
    3.3791   70.1504   80.6265 O   0  0  0  0  0  0  0  0  0  0  0  0
    1.0494   69.2328   80.9215 O   0  0  0  0  0  0  0  0  0  0  0  0
    1.8198   71.1635   82.3758 N   0  0  0  0  0  0  0  0  0  0  0  0
    0.5148   71.8195   82.1038 C   0  0  0  0  0  0  0  0  0  0  0  0
    0.6604   73.2388   81.5128 C   0  0  0  0  0  0  0  0  0  0  0  0
    1.6544   74.0944   82.1717 N   0  0  0  0  0  0  0  0  0  0  0  0
    2.3795   73.4429   83.2613 C   0  0  0  0  0  0  0  0  0  0  0  0
    2.9131   72.0693   82.8156 C   0  0  0  0  0  0  0  0  0  0  0  0
    1.2765   75.4862   82.3786 C   0  0  0  0  0  0  0  0  0  0  0  0
    2.2994   76.5701   82.0208 C   0  0  0  0  0  0  0  0  0  0  0  0
    3.2632   76.1851   80.9050 C   0  0  0  0  0  0  0  0  0  0  0  0
    4.5913   76.3534   81.3979 O   0  0  0  0  0  0  0  0  0  0  0  0
    5.1458   75.1442   81.8836 N   0  0  0  0  0  0  0  0  0  0  0  0
    5.4659   75.2096   83.0685 O   0  0  0  0  0  0  0  0  0  0  0  0
    5.2381   74.2071   81.0889 O   0  0  0  0  0  0  0  0  0  0  0  0
    4.2114   65.9327   85.5579 O   0  0  0  0  0  0  0  0  0  0  0  0
    5.4024   65.1841   85.2890 C   0  0  0  0  0  0  0  0  0  0  0  0
    7.8025   65.9642   85.0171 C   0  0  0  0  0  0  0  0  0  0  0  0
    6.6378   65.7674   85.9770 C   0  0  0  0  0  0  0  0  0  0  0  0
 44 45  1  0  0  0
 45 43  1  0  0  0
 43 42  1  0  0  0
 42  1  1  0  0  0
  1  2  1  0  0  0
  2  3  2  0  0  0
  3  4  1  0  0  0
  4 26  1  0  0  0
 26 27  2  0  0  0
 26 28  2  0  0  0
 26 29  1  0  0  0
 29 30  1  0  0  0
 30 31  1  0  0  0
 31 32  1  0  0  0
 32 35  1  0  0  0
 35 36  1  0  0  0
 36 37  1  0  0  0
 37 38  1  0  0  0
 38 39  1  0  0  0
 39 40  2  0  0  0
 39 41  1  0  0  0
 32 33  1  0  0  0
 33 34  1  0  0  0
  4  5  2  0  0  0
  5  6  1  0  0  0
  6  7  1  0  0  0
  7  8  2  0  0  0
  8  9  1  0  0  0
  9 10  1  0  0  0
 10 23  1  0  0  0
 23 24  1  0  0  0
 24 25  1  0  0  0
 10 11  2  0  0  0
 11 19  1  0  0  0
 19 20  2  0  0  0
 20 21  1  0  0  0
 11 12  1  0  0  0
 12 13  1  0  0  0
 12 14  1  0  0  0
 14 15  1  0  0  0
 15 16  2  0  0  0
 15 17  1  0  0  0
  6  1  2  0  0  0
 17  7  1  0  0  0
 34 29  1  0  0  0
 14  9  2  0  0  0
 21 22  1  0  0  0
 17 18  1  0  0  0
M  CHG 1  39   1
M  CHG 1  41  -1
M  END
> <minimizedAffinity>
-9.25260

$$$$



 45 48  0  0  0  0  0  0  0  0999 V2000
    0.8522   65.0679   83.9550 C   0  0  0  0  0  0  0  0  0  0  0  0
    1.5088   66.2351   84.3679 C   0  0  0  0  0  0  0  0  0  0  0  0
    1.6835   67.3051   83.4846 C   0  0  0  0  0  0  0  0  0  0  0  0
    1.1807   67.2196   82.1868 C   0  0  0  0  0  0  0  0  0  0  0  0
    0.4646   66.0938   81.7841 C   0  0  0  0  0  0  0  0  0  0  0  0
    0.3163   65.0021   82.6536 C   0  0  0  0  0  0  0  0  0  0  0  0
   -0.3639   63.7923   82.0941 C   0  0  0  0  0  0  0  0  0  0  0  0
   -0.1868   63.4915   80.8383 N   0  0  0  0  0  0  0  0  0  0  0  0
   -0.8677   62.3497   80.4168 C   0  0  0  0  0  0  0  0  0  0  0  0
   -0.8473   61.7903   79.1240 C   0  0  0  0  0  0  0  0  0  0  0  0
   -1.6599   60.6482   79.1821 C   0  0  0  0  0  0  0  0  0  0  0  0
   -2.1740   60.5814   80.4766 N   0  0  0  0  0  0  0  0  0  0  0  0
   -3.1232   59.6015   80.9646 C   0  0  0  0  0  0  0  0  0  0  0  0
   -1.6534   61.5961   81.2377 C   0  0  0  0  0  0  0  0  0  0  0  0
   -1.8199   61.9115   82.6209 C   0  0  0  0  0  0  0  0  0  0  0  0
   -2.4516   61.2523   83.4395 O   0  0  0  0  0  0  0  0  0  0  0  0
   -1.1551   63.0631   82.9668 N   0  0  0  0  0  0  0  0  0  0  0  0
   -1.1969   63.3231   83.9435 H   0  0  0  0  0  0  0  0  0  0  0  0
   -1.9499   59.6801   78.1427 C   0  0  0  0  0  0  0  0  0  0  0  0
   -1.0564   58.8513   77.7034 N   0  0  0  0  0  0  0  0  0  0  0  0
   -1.6234   58.0429   76.7094 O   0  0  0  0  0  0  0  0  0  0  0  0
   -0.8708   57.4791   76.4484 H   0  0  0  0  0  0  0  0  0  0  0  0
   -0.0682   62.3267   77.9603 C   0  0  0  0  0  0  0  0  0  0  0  0
   -0.8376   63.3479   77.1188 C   0  0  0  0  0  0  0  0  0  0  0  0
   -0.4268   64.7877   77.3968 C   0  0  0  0  0  0  0  0  0  0  0  0
    1.3922   68.5726   81.0488 S   0  0  0  0  0  0  0  0  0  0  0  0
    2.7845   68.5861   80.6560 O   0  0  0  0  0  0  0  0  0  0  0  0
    0.3370   68.4705   80.0619 O   0  0  0  0  0  0  0  0  0  0  0  0
    1.0809   69.9392   81.9920 N   0  0  0  0  0  0  0  0  0  0  0  0
   -0.1873   70.6856   81.7872 C   0  0  0  0  0  0  0  0  0  0  0  0
    0.0287   72.1043   81.2169 C   0  0  0  0  0  0  0  0  0  0  0  0
    1.1037   72.8784   81.8490 N   0  0  0  0  0  0  0  0  0  0  0  0
    1.8275   72.1576   82.8949 C   0  0  0  0  0  0  0  0  0  0  0  0
    2.2494   70.7614   82.4020 C   0  0  0  0  0  0  0  0  0  0  0  0
    0.8284   74.2873   82.0970 C   0  0  0  0  0  0  0  0  0  0  0  0
    1.9794   75.1682   82.5960 C   0  0  0  0  0  0  0  0  0  0  0  0
    2.9623   75.5960   81.5130 C   0  0  0  0  0  0  0  0  0  0  0  0
    3.9524   74.5758   81.3945 O   0  0  0  0  0  0  0  0  0  0  0  0
    3.9774   73.9927   80.1042 N   0  0  0  0  0  0  0  0  0  0  0  0
    4.2383   72.7918   80.1296 O   0  0  0  0  0  0  0  0  0  0  0  0
    3.7442   74.7324   79.1468 O   0  0  0  0  0  0  0  0  0  0  0  0
    0.6665   63.9887   84.7800 O   0  0  0  0  0  0  0  0  0  0  0  0
    0.7369   64.2046   86.1941 C   0  0  0  0  0  0  0  0  0  0  0  0
   -0.8711   62.2575   86.4513 C   0  0  0  0  0  0  0  0  0  0  0  0
   -0.4739   63.6428   86.9411 C   0  0  0  0  0  0  0  0  0  0  0  0
 44 45  1  0  0  0
 45 43  1  0  0  0
 43 42  1  0  0  0
 42  1  1  0  0  0
  1  2  1  0  0  0
  2  3  2  0  0  0
  3  4  1  0  0  0
  4 26  1  0  0  0
 26 27  2  0  0  0
 26 28  2  0  0  0
 26 29  1  0  0  0
 29 30  1  0  0  0
 30 31  1  0  0  0
 31 32  1  0  0  0
 32 35  1  0  0  0
 35 36  1  0  0  0
 36 37  1  0  0  0
 37 38  1  0  0  0
 38 39  1  0  0  0
 39 40  2  0  0  0
 39 41  1  0  0  0
 32 33  1  0  0  0
 33 34  1  0  0  0
  4  5  2  0  0  0
  5  6  1  0  0  0
  6  7  1  0  0  0
  7  8  2  0  0  0
  8  9  1  0  0  0
  9 10  1  0  0  0
 10 23  1  0  0  0
 23 24  1  0  0  0
 24 25  1  0  0  0
 10 11  2  0  0  0
 11 19  1  0  0  0
 19 20  2  0  0  0
 20 21  1  0  0  0
 11 12  1  0  0  0
 12 13  1  0  0  0
 12 14  1  0  0  0
 14 15  1  0  0  0
 15 16  2  0  0  0
 15 17  1  0  0  0
  6  1  2  0  0  0
 17  7  1  0  0  0
 34 29  1  0  0  0
 14  9  2  0  0  0
 21 22  1  0  0  0
 17 18  1  0  0  0
M  CHG 1  39   1
M  CHG 1  41  -1
M  END
> <minimizedAffinity>
-9.16477

$$$$



 45 48  0  0  0  0  0  0  0  0999 V2000
    0.9037   65.0970   83.8889 C   0  0  0  0  0  0  0  0  0  0  0  0
    1.5570   66.2701   84.2902 C   0  0  0  0  0  0  0  0  0  0  0  0
    1.6937   67.3470   83.4086 C   0  0  0  0  0  0  0  0  0  0  0  0
    1.1560   67.2623   82.1247 C   0  0  0  0  0  0  0  0  0  0  0  0
    0.4431   66.1298   81.7356 C   0  0  0  0  0  0  0  0  0  0  0  0
    0.3327   65.0315   82.6025 C   0  0  0  0  0  0  0  0  0  0  0  0
   -0.3478   63.8163   82.0551 C   0  0  0  0  0  0  0  0  0  0  0  0
   -0.1700   63.5025   80.8026 N   0  0  0  0  0  0  0  0  0  0  0  0
   -0.8512   62.3567   80.3925 C   0  0  0  0  0  0  0  0  0  0  0  0
   -0.8303   61.7839   79.1056 C   0  0  0  0  0  0  0  0  0  0  0  0
   -1.6434   60.6429   79.1750 C   0  0  0  0  0  0  0  0  0  0  0  0
   -2.1584   60.5897   80.4697 N   0  0  0  0  0  0  0  0  0  0  0  0
   -3.1083   59.6153   80.9673 C   0  0  0  0  0  0  0  0  0  0  0  0
   -1.6378   61.6119   81.2207 C   0  0  0  0  0  0  0  0  0  0  0  0
   -1.8050   61.9417   82.6004 C   0  0  0  0  0  0  0  0  0  0  0  0
   -2.4374   61.2913   83.4254 O   0  0  0  0  0  0  0  0  0  0  0  0
   -1.1398   63.0966   82.9348 N   0  0  0  0  0  0  0  0  0  0  0  0
   -1.1821   63.3666   83.9087 H   0  0  0  0  0  0  0  0  0  0  0  0
   -1.9332   59.6642   78.1454 C   0  0  0  0  0  0  0  0  0  0  0  0
   -1.0153   58.9025   77.6400 N   0  0  0  0  0  0  0  0  0  0  0  0
   -1.5889   58.0636   76.6755 O   0  0  0  0  0  0  0  0  0  0  0  0
   -0.8178   57.5553   76.3600 H   0  0  0  0  0  0  0  0  0  0  0  0
   -0.0502   62.3079   77.9368 C   0  0  0  0  0  0  0  0  0  0  0  0
   -0.8497   63.2476   77.0308 C   0  0  0  0  0  0  0  0  0  0  0  0
   -0.5220   64.7184   77.2513 C   0  0  0  0  0  0  0  0  0  0  0  0
    1.3189   68.6240   80.9892 S   0  0  0  0  0  0  0  0  0  0  0  0
    2.6927   68.6398   80.5361 O   0  0  0  0  0  0  0  0  0  0  0  0
    0.2215   68.5303   80.0486 O   0  0  0  0  0  0  0  0  0  0  0  0
    1.0503   69.9834   81.9557 N   0  0  0  0  0  0  0  0  0  0  0  0
   -0.2035   70.7605   81.7784 C   0  0  0  0  0  0  0  0  0  0  0  0
    0.0367   72.1822   81.2253 C   0  0  0  0  0  0  0  0  0  0  0  0
    1.1367   72.9231   81.8541 N   0  0  0  0  0  0  0  0  0  0  0  0
    1.8577   72.1714   82.8800 C   0  0  0  0  0  0  0  0  0  0  0  0
    2.2420   70.7735   82.3618 C   0  0  0  0  0  0  0  0  0  0  0  0
    0.8961   74.3341   82.1257 C   0  0  0  0  0  0  0  0  0  0  0  0
    0.1045   75.1411   81.0906 C   0  0  0  0  0  0  0  0  0  0  0  0
   -0.5442   76.4066   81.6384 C   0  0  0  0  0  0  0  0  0  0  0  0
   -0.9012   76.1608   82.9975 O   0  0  0  0  0  0  0  0  0  0  0  0
   -0.4906   77.2043   83.8624 N   0  0  0  0  0  0  0  0  0  0  0  0
    0.6017   77.6761   83.5538 O   0  0  0  0  0  0  0  0  0  0  0  0
   -1.2493   77.5020   84.7865 O   0  0  0  0  0  0  0  0  0  0  0  0
    0.7546   64.0111   84.7125 O   0  0  0  0  0  0  0  0  0  0  0  0
    0.3868   64.2481   86.0762 C   0  0  0  0  0  0  0  0  0  0  0  0
   -0.9389   63.4096   88.0718 C   0  0  0  0  0  0  0  0  0  0  0  0
   -0.6950   63.2882   86.5744 C   0  0  0  0  0  0  0  0  0  0  0  0
 44 45  1  0  0  0
 45 43  1  0  0  0
 43 42  1  0  0  0
 42  1  1  0  0  0
  1  2  1  0  0  0
  2  3  2  0  0  0
  3  4  1  0  0  0
  4 26  1  0  0  0
 26 27  2  0  0  0
 26 28  2  0  0  0
 26 29  1  0  0  0
 29 30  1  0  0  0
 30 31  1  0  0  0
 31 32  1  0  0  0
 32 35  1  0  0  0
 35 36  1  0  0  0
 36 37  1  0  0  0
 37 38  1  0  0  0
 38 39  1  0  0  0
 39 40  2  0  0  0
 39 41  1  0  0  0
 32 33  1  0  0  0
 33 34  1  0  0  0
  4  5  2  0  0  0
  5  6  1  0  0  0
  6  7  1  0  0  0
  7  8  2  0  0  0
  8  9  1  0  0  0
  9 10  1  0  0  0
 10 23  1  0  0  0
 23 24  1  0  0  0
 24 25  1  0  0  0
 10 11  2  0  0  0
 11 19  1  0  0  0
 19 20  2  0  0  0
 20 21  1  0  0  0
 11 12  1  0  0  0
 12 13  1  0  0  0
 12 14  1  0  0  0
 14 15  1  0  0  0
 15 16  2  0  0  0
 15 17  1  0  0  0
  6  1  2  0  0  0
 17  7  1  0  0  0
 34 29  1  0  0  0
 14  9  2  0  0  0
 21 22  1  0  0  0
 17 18  1  0  0  0
M  CHG 1  39   1
M  CHG 1  41  -1
M  END
> <minimizedAffinity>
-8.95066

$$$$



 45 48  0  0  0  0  0  0  0  0999 V2000
    1.0647   65.5488   82.7681 C   0  0  0  0  0  0  0  0  0  0  0  0
    1.5704   66.7043   83.3789 C   0  0  0  0  0  0  0  0  0  0  0  0
    1.6363   67.9115   82.6759 C   0  0  0  0  0  0  0  0  0  0  0  0
    1.1744   67.9725   81.3616 C   0  0  0  0  0  0  0  0  0  0  0  0
    0.6046   66.8493   80.7650 C   0  0  0  0  0  0  0  0  0  0  0  0
    0.5677   65.6259   81.4519 C   0  0  0  0  0  0  0  0  0  0  0  0
    0.0466   64.4487   80.6890 C   0  0  0  0  0  0  0  0  0  0  0  0
   -0.9690   63.7855   81.1660 N   0  0  0  0  0  0  0  0  0  0  0  0
   -1.3726   62.7052   80.3817 C   0  0  0  0  0  0  0  0  0  0  0  0
   -2.4429   61.8289   80.6480 C   0  0  0  0  0  0  0  0  0  0  0  0
   -2.4767   60.9209   79.5792 C   0  0  0  0  0  0  0  0  0  0  0  0
   -1.4130   61.2449   78.7377 N   0  0  0  0  0  0  0  0  0  0  0  0
   -1.0220   60.5214   77.5448 C   0  0  0  0  0  0  0  0  0  0  0  0
   -0.7696   62.3605   79.2083 C   0  0  0  0  0  0  0  0  0  0  0  0
    0.3233   63.1087   78.6734 C   0  0  0  0  0  0  0  0  0  0  0  0
    0.8765   62.9076   77.5977 O   0  0  0  0  0  0  0  0  0  0  0  0
    0.6964   64.1360   79.5061 N   0  0  0  0  0  0  0  0  0  0  0  0
    1.4397   64.7331   79.1683 H   0  0  0  0  0  0  0  0  0  0  0  0
   -3.4072   59.8374   79.3306 C   0  0  0  0  0  0  0  0  0  0  0  0
   -3.5021   58.8150   80.1204 N   0  0  0  0  0  0  0  0  0  0  0  0
   -4.4788   57.9389   79.6286 O   0  0  0  0  0  0  0  0  0  0  0  0
   -4.4542   57.2151   80.2828 H   0  0  0  0  0  0  0  0  0  0  0  0
   -3.3569   61.9132   81.8340 C   0  0  0  0  0  0  0  0  0  0  0  0
   -2.9191   61.0437   83.0152 C   0  0  0  0  0  0  0  0  0  0  0  0
   -2.2907   61.8425   84.1494 C   0  0  0  0  0  0  0  0  0  0  0  0
    1.2488   69.5011   80.4516 S   0  0  0  0  0  0  0  0  0  0  0  0
    2.2601   69.3405   79.4296 O   0  0  0  0  0  0  0  0  0  0  0  0
   -0.1115   69.8614   80.1086 O   0  0  0  0  0  0  0  0  0  0  0  0
    1.8023   70.6176   81.5923 N   0  0  0  0  0  0  0  0  0  0  0  0
    0.8252   71.5206   82.2535 C   0  0  0  0  0  0  0  0  0  0  0  0
    1.0187   73.0054   81.8756 C   0  0  0  0  0  0  0  0  0  0  0  0
    2.4068   73.4819   81.8923 N   0  0  0  0  0  0  0  0  0  0  0  0
    3.3908   72.4532   82.2254 C   0  0  0  0  0  0  0  0  0  0  0  0
    3.1599   71.1855   81.3829 C   0  0  0  0  0  0  0  0  0  0  0  0
    2.6306   74.8069   82.4550 C   0  0  0  0  0  0  0  0  0  0  0  0
    4.0499   75.1649   82.9099 C   0  0  0  0  0  0  0  0  0  0  0  0
    4.1769   75.4765   84.3961 C   0  0  0  0  0  0  0  0  0  0  0  0
    4.1354   76.8942   84.5499 O   0  0  0  0  0  0  0  0  0  0  0  0
    3.4500   77.2917   85.7237 N   0  0  0  0  0  0  0  0  0  0  0  0
    2.2287   77.2927   85.5844 O   0  0  0  0  0  0  0  0  0  0  0  0
    4.1352   77.5789   86.7066 O   0  0  0  0  0  0  0  0  0  0  0  0
    0.9902   64.3405   83.4117 O   0  0  0  0  0  0  0  0  0  0  0  0
    0.1325   64.2400   84.5543 C   0  0  0  0  0  0  0  0  0  0  0  0
    0.0413   64.0427   87.0832 C   0  0  0  0  0  0  0  0  0  0  0  0
    0.8780   64.4386   85.8750 C   0  0  0  0  0  0  0  0  0  0  0  0
 44 45  1  0  0  0
 45 43  1  0  0  0
 43 42  1  0  0  0
 42  1  1  0  0  0
  1  2  1  0  0  0
  2  3  2  0  0  0
  3  4  1  0  0  0
  4 26  1  0  0  0
 26 27  2  0  0  0
 26 28  2  0  0  0
 26 29  1  0  0  0
 29 30  1  0  0  0
 30 31  1  0  0  0
 31 32  1  0  0  0
 32 35  1  0  0  0
 35 36  1  0  0  0
 36 37  1  0  0  0
 37 38  1  0  0  0
 38 39  1  0  0  0
 39 40  2  0  0  0
 39 41  1  0  0  0
 32 33  1  0  0  0
 33 34  1  0  0  0
  4  5  2  0  0  0
  5  6  1  0  0  0
  6  7  1  0  0  0
  7  8  2  0  0  0
  8  9  1  0  0  0
  9 10  1  0  0  0
 10 23  1  0  0  0
 23 24  1  0  0  0
 24 25  1  0  0  0
 10 11  2  0  0  0
 11 19  1  0  0  0
 19 20  2  0  0  0
 20 21  1  0  0  0
 11 12  1  0  0  0
 12 13  1  0  0  0
 12 14  1  0  0  0
 14 15  1  0  0  0
 15 16  2  0  0  0
 15 17  1  0  0  0
  6  1  2  0  0  0
 17  7  1  0  0  0
 34 29  1  0  0  0
 14  9  2  0  0  0
 21 22  1  0  0  0
 17 18  1  0  0  0
M  CHG 1  39   1
M  CHG 1  41  -1
M  END
> <minimizedAffinity>
-8.82808

$$$$



 45 48  0  0  0  0  0  0  0  0999 V2000
    3.6515   67.1307   84.4506 C   0  0  0  0  0  0  0  0  0  0  0  0
    4.4098   68.2047   83.9654 C   0  0  0  0  0  0  0  0  0  0  0  0
    3.8806   69.0758   83.0078 C   0  0  0  0  0  0  0  0  0  0  0  0
    2.5781   68.8878   82.5467 C   0  0  0  0  0  0  0  0  0  0  0  0
    1.7882   67.8666   83.0714 C   0  0  0  0  0  0  0  0  0  0  0  0
    2.3244   66.9674   84.0062 C   0  0  0  0  0  0  0  0  0  0  0  0
    1.4408   65.8340   84.4233 C   0  0  0  0  0  0  0  0  0  0  0  0
    0.6239   65.3149   83.5504 N   0  0  0  0  0  0  0  0  0  0  0  0
   -0.1571   64.2690   84.0414 C   0  0  0  0  0  0  0  0  0  0  0  0
   -1.1091   63.5225   83.3196 C   0  0  0  0  0  0  0  0  0  0  0  0
   -1.6221   62.5750   84.2179 C   0  0  0  0  0  0  0  0  0  0  0  0
   -1.0060   62.8062   85.4473 N   0  0  0  0  0  0  0  0  0  0  0  0
   -1.2895   62.1080   86.6849 C   0  0  0  0  0  0  0  0  0  0  0  0
   -0.0816   63.8113   85.3236 C   0  0  0  0  0  0  0  0  0  0  0  0
    0.8372   64.3623   86.2685 C   0  0  0  0  0  0  0  0  0  0  0  0
    1.0150   63.9671   87.4155 O   0  0  0  0  0  0  0  0  0  0  0  0
    1.5513   65.4091   85.7373 N   0  0  0  0  0  0  0  0  0  0  0  0
    2.2512   65.8201   86.3409 H   0  0  0  0  0  0  0  0  0  0  0  0
   -2.5982   61.5290   83.9833 C   0  0  0  0  0  0  0  0  0  0  0  0
   -2.3999   60.5812   83.1228 N   0  0  0  0  0  0  0  0  0  0  0  0
   -3.5074   59.7230   83.1158 O   0  0  0  0  0  0  0  0  0  0  0  0
   -3.2570   59.0694   82.4356 H   0  0  0  0  0  0  0  0  0  0  0  0
   -1.4457   63.7176   81.8713 C   0  0  0  0  0  0  0  0  0  0  0  0
   -0.2800   63.4316   80.9213 C   0  0  0  0  0  0  0  0  0  0  0  0
    0.3224   62.0456   81.1091 C   0  0  0  0  0  0  0  0  0  0  0  0
    1.8871   69.9878   81.3290 S   0  0  0  0  0  0  0  0  0  0  0  0
    2.4100   69.5828   80.0424 O   0  0  0  0  0  0  0  0  0  0  0  0
    0.4604   70.0517   81.5708 O   0  0  0  0  0  0  0  0  0  0  0  0
    2.5427   71.4917   81.7324 N   0  0  0  0  0  0  0  0  0  0  0  0
    1.9371   72.2700   82.8436 C   0  0  0  0  0  0  0  0  0  0  0  0
    1.2632   73.5771   82.3723 C   0  0  0  0  0  0  0  0  0  0  0  0
    2.0389   74.3733   81.4139 N   0  0  0  0  0  0  0  0  0  0  0  0
    3.3141   73.7722   81.0271 C   0  0  0  0  0  0  0  0  0  0  0  0
    3.1222   72.2982   80.6264 C   0  0  0  0  0  0  0  0  0  0  0  0
    2.0305   75.8165   81.6133 C   0  0  0  0  0  0  0  0  0  0  0  0
    0.9274   76.6310   80.9282 C   0  0  0  0  0  0  0  0  0  0  0  0
    0.2023   75.8949   79.8081 C   0  0  0  0  0  0  0  0  0  0  0  0
   -1.0721   75.4901   80.3054 O   0  0  0  0  0  0  0  0  0  0  0  0
   -2.0339   75.3454   79.2760 N   0  0  0  0  0  0  0  0  0  0  0  0
   -2.5020   76.4206   78.9076 O   0  0  0  0  0  0  0  0  0  0  0  0
   -2.2774   74.2014   78.8888 O   0  0  0  0  0  0  0  0  0  0  0  0
    4.1298   66.2438   85.3803 O   0  0  0  0  0  0  0  0  0  0  0  0
    5.2939   65.4804   85.0434 C   0  0  0  0  0  0  0  0  0  0  0  0
    7.7983   65.8920   85.0114 C   0  0  0  0  0  0  0  0  0  0  0  0
    6.5273   65.8926   85.8486 C   0  0  0  0  0  0  0  0  0  0  0  0
 44 45  1  0  0  0
 45 43  1  0  0  0
 43 42  1  0  0  0
 42  1  1  0  0  0
  1  2  1  0  0  0
  2  3  2  0  0  0
  3  4  1  0  0  0
  4 26  1  0  0  0
 26 27  2  0  0  0
 26 28  2  0  0  0
 26 29  1  0  0  0
 29 30  1  0  0  0
 30 31  1  0  0  0
 31 32  1  0  0  0
 32 35  1  0  0  0
 35 36  1  0  0  0
 36 37  1  0  0  0
 37 38  1  0  0  0
 38 39  1  0  0  0
 39 40  2  0  0  0
 39 41  1  0  0  0
 32 33  1  0  0  0
 33 34  1  0  0  0
  4  5  2  0  0  0
  5  6  1  0  0  0
  6  7  1  0  0  0
  7  8  2  0  0  0
  8  9  1  0  0  0
  9 10  1  0  0  0
 10 23  1  0  0  0
 23 24  1  0  0  0
 24 25  1  0  0  0
 10 11  2  0  0  0
 11 19  1  0  0  0
 19 20  2  0  0  0
 20 21  1  0  0  0
 11 12  1  0  0  0
 12 13  1  0  0  0
 12 14  1  0  0  0
 14 15  1  0  0  0
 15 16  2  0  0  0
 15 17  1  0  0  0
  6  1  2  0  0  0
 17  7  1  0  0  0
 34 29  1  0  0  0
 14  9  2  0  0  0
 21 22  1  0  0  0
 17 18  1  0  0  0
M  CHG 1  39   1
M  CHG 1  41  -1
M  END
> <minimizedAffinity>
-8.82227

$$$$
