


 45 48  0  0  0  0  0  0  0  0999 V2000
    3.8695   66.8560   84.6057 C   0  0  0  0  0  0  0  0  0  0  0  0
    4.6511   67.9357   84.1669 C   0  0  0  0  0  0  0  0  0  0  0  0
    4.1506   68.8574   83.2413 C   0  0  0  0  0  0  0  0  0  0  0  0
    2.8648   68.6943   82.7333 C   0  0  0  0  0  0  0  0  0  0  0  0
    2.0891   67.6027   83.1203 C   0  0  0  0  0  0  0  0  0  0  0  0
    2.5700   66.6910   84.0762 C   0  0  0  0  0  0  0  0  0  0  0  0
    1.6137   65.6125   84.5011 C   0  0  0  0  0  0  0  0  0  0  0  0
    0.8037   65.1000   83.6173 N   0  0  0  0  0  0  0  0  0  0  0  0
   -0.0493   64.1162   84.1150 C   0  0  0  0  0  0  0  0  0  0  0  0
   -1.0070   63.3968   83.3793 C   0  0  0  0  0  0  0  0  0  0  0  0
   -1.6283   62.5293   84.2875 C   0  0  0  0  0  0  0  0  0  0  0  0
   -1.0498   62.7606   85.5370 N   0  0  0  0  0  0  0  0  0  0  0  0
   -0.0655   63.7148   85.4180 C   0  0  0  0  0  0  0  0  0  0  0  0
    0.8283   64.2726   86.3841 C   0  0  0  0  0  0  0  0  0  0  0  0
    0.8907   63.9789   87.5731 O   0  0  0  0  0  0  0  0  0  0  0  0
    1.6533   65.2226   85.8296 N   0  0  0  0  0  0  0  0  0  0  0  0
    2.2863   65.6832   86.4697 H   0  0  0  0  0  0  0  0  0  0  0  0
   -2.6740   61.5780   83.9683 C   0  0  0  0  0  0  0  0  0  0  0  0
   -2.4735   60.5383   83.2227 N   0  0  0  0  0  0  0  0  0  0  0  0
   -3.6725   59.8249   83.0948 O   0  0  0  0  0  0  0  0  0  0  0  0
   -3.4162   59.0859   82.5116 H   0  0  0  0  0  0  0  0  0  0  0  0
   -1.4314   62.1391   86.7979 C   0  0  0  0  0  0  0  0  0  0  0  0
   -2.5394   62.8977   87.5071 C   0  0  0  0  0  0  0  0  0  0  0  0
   -1.2666   63.5499   81.9116 C   0  0  0  0  0  0  0  0  0  0  0  0
   -0.3294   62.6852   81.0668 C   0  0  0  0  0  0  0  0  0  0  0  0
   -1.1015   61.8344   80.0708 C   0  0  0  0  0  0  0  0  0  0  0  0
    2.2206   69.8524   81.5502 S   0  0  0  0  0  0  0  0  0  0  0  0
    0.8031   70.0131   81.7943 O   0  0  0  0  0  0  0  0  0  0  0  0
    2.7093   69.4579   80.2458 O   0  0  0  0  0  0  0  0  0  0  0  0
    2.9964   71.3116   81.9860 N   0  0  0  0  0  0  0  0  0  0  0  0
    2.3483   72.0694   83.1099 C   0  0  0  0  0  0  0  0  0  0  0  0
    2.6574   73.5773   83.0520 C   0  0  0  0  0  0  0  0  0  0  0  0
    2.2281   74.2492   81.8074 N   0  0  0  0  0  0  0  0  0  0  0  0
    2.2606   73.3103   80.6597 C   0  0  0  0  0  0  0  0  0  0  0  0
    3.3096   72.1950   80.8112 C   0  0  0  0  0  0  0  0  0  0  0  0
    0.9001   74.8848   81.9045 C   0  0  0  0  0  0  0  0  0  0  0  0
   -0.2682   73.9371   81.5832 C   0  0  0  0  0  0  0  0  0  0  0  0
   -0.8668   74.3450   80.3545 O   0  0  0  0  0  0  0  0  0  0  0  0
   -1.5725   73.2978   79.7220 N   0  0  0  0  0  0  0  0  0  0  0  0
   -1.3118   72.1925   80.1931 O   0  0  0  0  0  0  0  0  0  0  0  0
   -2.3463   73.6057   78.8135 O   0  0  0  0  0  0  0  0  0  0  0  0
    4.2939   65.9311   85.5231 O   0  0  0  0  0  0  0  0  0  0  0  0
    5.4646   65.1515   85.2680 C   0  0  0  0  0  0  0  0  0  0  0  0
    7.8347   65.9460   84.8562 C   0  0  0  0  0  0  0  0  0  0  0  0
    6.7098   65.7986   85.8718 C   0  0  0  0  0  0  0  0  0  0  0  0
 44 45  1  0  0  0
 45 43  1  0  0  0
 43 42  1  0  0  0
 42  1  1  0  0  0
  1  2  1  0  0  0
  2  3  2  0  0  0
  3  4  1  0  0  0
  4 27  1  0  0  0
 27 28  2  0  0  0
 27 29  2  0  0  0
 27 30  1  0  0  0
 30 31  1  0  0  0
 31 32  1  0  0  0
 32 33  1  0  0  0
 33 36  1  0  0  0
 36 37  1  0  0  0
 37 38  1  0  0  0
 38 39  1  0  0  0
 39 40  2  0  0  0
 39 41  1  0  0  0
 33 34  1  0  0  0
 34 35  1  0  0  0
  4  5  2  0  0  0
  5  6  1  0  0  0
  6  7  1  0  0  0
  7  8  2  0  0  0
  8  9  1  0  0  0
  9 10  1  0  0  0
 10 24  1  0  0  0
 24 25  1  0  0  0
 25 26  1  0  0  0
 10 11  2  0  0  0
 11 18  1  0  0  0
 18 19  2  0  0  0
 19 20  1  0  0  0
 11 12  1  0  0  0
 12 22  1  0  0  0
 22 23  1  0  0  0
 12 13  1  0  0  0
 13 14  1  0  0  0
 14 15  2  0  0  0
 14 16  1  0  0  0
  6  1  2  0  0  0
 16  7  1  0  0  0
 35 30  1  0  0  0
 13  9  2  0  0  0
 20 21  1  0  0  0
 16 17  1  0  0  0
M  CHG 1  39   1
M  CHG 1  41  -1
M  END
> <minimizedAffinity>
-9.97387

$$$$



 45 48  0  0  0  0  0  0  0  0999 V2000
    3.7946   66.9270   84.6143 C   0  0  0  0  0  0  0  0  0  0  0  0
    4.5843   67.9941   84.1597 C   0  0  0  0  0  0  0  0  0  0  0  0
    4.1359   68.8369   83.1372 C   0  0  0  0  0  0  0  0  0  0  0  0
    2.8958   68.6061   82.5485 C   0  0  0  0  0  0  0  0  0  0  0  0
    2.1161   67.5235   82.9528 C   0  0  0  0  0  0  0  0  0  0  0  0
    2.5425   66.6922   84.0032 C   0  0  0  0  0  0  0  0  0  0  0  0
    1.5796   65.6208   84.4310 C   0  0  0  0  0  0  0  0  0  0  0  0
    0.7940   65.0828   83.5403 N   0  0  0  0  0  0  0  0  0  0  0  0
   -0.0677   64.1083   84.0411 C   0  0  0  0  0  0  0  0  0  0  0  0
   -1.0039   63.3666   83.3000 C   0  0  0  0  0  0  0  0  0  0  0  0
   -1.6449   62.5196   84.2139 C   0  0  0  0  0  0  0  0  0  0  0  0
   -1.0990   62.7847   85.4713 N   0  0  0  0  0  0  0  0  0  0  0  0
   -0.1154   63.7398   85.3531 C   0  0  0  0  0  0  0  0  0  0  0  0
    0.7516   64.3255   86.3270 C   0  0  0  0  0  0  0  0  0  0  0  0
    0.7850   64.0621   87.5242 O   0  0  0  0  0  0  0  0  0  0  0  0
    1.5870   65.2647   85.7695 N   0  0  0  0  0  0  0  0  0  0  0  0
    2.2020   65.7440   86.4136 H   0  0  0  0  0  0  0  0  0  0  0  0
   -2.6788   61.5562   83.8926 C   0  0  0  0  0  0  0  0  0  0  0  0
   -2.4540   60.4947   83.1857 N   0  0  0  0  0  0  0  0  0  0  0  0
   -3.6473   59.7745   83.0436 O   0  0  0  0  0  0  0  0  0  0  0  0
   -3.3722   59.0187   82.4914 H   0  0  0  0  0  0  0  0  0  0  0  0
   -1.5101   62.1936   86.7375 C   0  0  0  0  0  0  0  0  0  0  0  0
   -2.6447   62.9598   87.3947 C   0  0  0  0  0  0  0  0  0  0  0  0
   -1.2269   63.4815   81.8228 C   0  0  0  0  0  0  0  0  0  0  0  0
    0.0071   63.0676   81.0193 C   0  0  0  0  0  0  0  0  0  0  0  0
    0.2733   61.5750   81.1348 C   0  0  0  0  0  0  0  0  0  0  0  0
    2.3186   69.6632   81.2426 S   0  0  0  0  0  0  0  0  0  0  0  0
    1.5653   68.8593   80.3042 O   0  0  0  0  0  0  0  0  0  0  0  0
    3.4427   70.4616   80.8012 O   0  0  0  0  0  0  0  0  0  0  0  0
    1.2206   70.6963   82.0477 N   0  0  0  0  0  0  0  0  0  0  0  0
    0.0327   71.1256   81.2340 C   0  0  0  0  0  0  0  0  0  0  0  0
   -0.5511   72.4671   81.7162 C   0  0  0  0  0  0  0  0  0  0  0  0
    0.3962   73.6012   81.6833 N   0  0  0  0  0  0  0  0  0  0  0  0
    1.7889   73.1349   81.8896 C   0  0  0  0  0  0  0  0  0  0  0  0
    1.8861   71.8542   82.7367 C   0  0  0  0  0  0  0  0  0  0  0  0
    0.3099   74.4104   80.4525 C   0  0  0  0  0  0  0  0  0  0  0  0
   -1.1274   74.7893   80.0566 C   0  0  0  0  0  0  0  0  0  0  0  0
   -1.4168   74.2242   78.7793 O   0  0  0  0  0  0  0  0  0  0  0  0
   -2.6771   73.5881   78.7415 N   0  0  0  0  0  0  0  0  0  0  0  0
   -3.5827   74.3414   78.3892 O   0  0  0  0  0  0  0  0  0  0  0  0
   -2.7169   72.3940   79.0440 O   0  0  0  0  0  0  0  0  0  0  0  0
    4.1678   66.0784   85.6231 O   0  0  0  0  0  0  0  0  0  0  0  0
    5.3720   65.3161   85.5117 C   0  0  0  0  0  0  0  0  0  0  0  0
    5.5783   65.5705   88.0239 C   0  0  0  0  0  0  0  0  0  0  0  0
    6.3102   65.5776   86.6886 C   0  0  0  0  0  0  0  0  0  0  0  0
 44 45  1  0  0  0
 45 43  1  0  0  0
 43 42  1  0  0  0
 42  1  1  0  0  0
  1  2  1  0  0  0
  2  3  2  0  0  0
  3  4  1  0  0  0
  4 27  1  0  0  0
 27 28  2  0  0  0
 27 29  2  0  0  0
 27 30  1  0  0  0
 30 31  1  0  0  0
 31 32  1  0  0  0
 32 33  1  0  0  0
 33 36  1  0  0  0
 36 37  1  0  0  0
 37 38  1  0  0  0
 38 39  1  0  0  0
 39 40  2  0  0  0
 39 41  1  0  0  0
 33 34  1  0  0  0
 34 35  1  0  0  0
  4  5  2  0  0  0
  5  6  1  0  0  0
  6  7  1  0  0  0
  7  8  2  0  0  0
  8  9  1  0  0  0
  9 10  1  0  0  0
 10 24  1  0  0  0
 24 25  1  0  0  0
 25 26  1  0  0  0
 10 11  2  0  0  0
 11 18  1  0  0  0
 18 19  2  0  0  0
 19 20  1  0  0  0
 11 12  1  0  0  0
 12 22  1  0  0  0
 22 23  1  0  0  0
 12 13  1  0  0  0
 13 14  1  0  0  0
 14 15  2  0  0  0
 14 16  1  0  0  0
  6  1  2  0  0  0
 16  7  1  0  0  0
 35 30  1  0  0  0
 13  9  2  0  0  0
 20 21  1  0  0  0
 16 17  1  0  0  0
M  CHG 1  39   1
M  CHG 1  41  -1
M  END
> <minimizedAffinity>
-9.97151

$$$$



 45 48  0  0  0  0  0  0  0  0999 V2000
    3.8135   66.9096   84.5861 C   0  0  0  0  0  0  0  0  0  0  0  0
    4.6082   67.9770   84.1411 C   0  0  0  0  0  0  0  0  0  0  0  0
    4.1517   68.8487   83.1469 C   0  0  0  0  0  0  0  0  0  0  0  0
    2.8979   68.6469   82.5766 C   0  0  0  0  0  0  0  0  0  0  0  0
    2.1121   67.5651   82.9708 C   0  0  0  0  0  0  0  0  0  0  0  0
    2.5473   66.7045   83.9937 C   0  0  0  0  0  0  0  0  0  0  0  0
    1.5789   65.6355   84.4151 C   0  0  0  0  0  0  0  0  0  0  0  0
    0.8093   65.0880   83.5163 N   0  0  0  0  0  0  0  0  0  0  0  0
   -0.0593   64.1167   84.0115 C   0  0  0  0  0  0  0  0  0  0  0  0
   -0.9818   63.3667   83.2616 C   0  0  0  0  0  0  0  0  0  0  0  0
   -1.6369   62.5271   84.1724 C   0  0  0  0  0  0  0  0  0  0  0  0
   -1.1127   62.8047   85.4362 N   0  0  0  0  0  0  0  0  0  0  0  0
   -0.1286   63.7603   85.3258 C   0  0  0  0  0  0  0  0  0  0  0  0
    0.7210   64.3564   86.3087 C   0  0  0  0  0  0  0  0  0  0  0  0
    0.7345   64.1041   87.5087 O   0  0  0  0  0  0  0  0  0  0  0  0
    1.5643   65.2918   85.7568 N   0  0  0  0  0  0  0  0  0  0  0  0
    2.1676   65.7780   86.4067 H   0  0  0  0  0  0  0  0  0  0  0  0
   -2.6637   61.5591   83.8426 C   0  0  0  0  0  0  0  0  0  0  0  0
   -2.4220   60.4827   83.1644 N   0  0  0  0  0  0  0  0  0  0  0  0
   -3.6126   59.7618   83.0042 O   0  0  0  0  0  0  0  0  0  0  0  0
   -3.3241   58.9942   82.4757 H   0  0  0  0  0  0  0  0  0  0  0  0
   -1.5442   62.2247   86.7008 C   0  0  0  0  0  0  0  0  0  0  0  0
   -2.6858   62.9995   87.3354 C   0  0  0  0  0  0  0  0  0  0  0  0
   -1.1800   63.4677   81.7799 C   0  0  0  0  0  0  0  0  0  0  0  0
    0.0672   63.0457   81.0010 C   0  0  0  0  0  0  0  0  0  0  0  0
    0.4015   61.5809   81.2341 C   0  0  0  0  0  0  0  0  0  0  0  0
    2.3100   69.7410   81.3065 S   0  0  0  0  0  0  0  0  0  0  0  0
    1.6605   68.9472   80.2853 O   0  0  0  0  0  0  0  0  0  0  0  0
    3.3946   70.6391   80.9707 O   0  0  0  0  0  0  0  0  0  0  0  0
    1.1050   70.6460   82.1127 N   0  0  0  0  0  0  0  0  0  0  0  0
   -0.1192   70.9505   81.2965 C   0  0  0  0  0  0  0  0  0  0  0  0
   -0.8448   72.2190   81.7834 C   0  0  0  0  0  0  0  0  0  0  0  0
   -0.0242   73.4481   81.7606 N   0  0  0  0  0  0  0  0  0  0  0  0
    1.4097   73.1323   81.9699 C   0  0  0  0  0  0  0  0  0  0  0  0
    1.6405   71.8644   82.8105 C   0  0  0  0  0  0  0  0  0  0  0  0
   -0.1923   74.2505   80.5338 C   0  0  0  0  0  0  0  0  0  0  0  0
   -0.6789   75.6869   80.7917 C   0  0  0  0  0  0  0  0  0  0  0  0
   -0.6915   75.9226   82.1983 O   0  0  0  0  0  0  0  0  0  0  0  0
    0.2649   76.8830   82.5951 N   0  0  0  0  0  0  0  0  0  0  0  0
   -0.0358   78.0259   82.2560 O   0  0  0  0  0  0  0  0  0  0  0  0
    1.2463   76.4783   83.2212 O   0  0  0  0  0  0  0  0  0  0  0  0
    4.1946   66.0333   85.5680 O   0  0  0  0  0  0  0  0  0  0  0  0
    5.4439   65.3452   85.4712 C   0  0  0  0  0  0  0  0  0  0  0  0
    5.5845   65.5625   87.9914 C   0  0  0  0  0  0  0  0  0  0  0  0
    6.3403   65.6423   86.6720 C   0  0  0  0  0  0  0  0  0  0  0  0
 44 45  1  0  0  0
 45 43  1  0  0  0
 43 42  1  0  0  0
 42  1  1  0  0  0
  1  2  1  0  0  0
  2  3  2  0  0  0
  3  4  1  0  0  0
  4 27  1  0  0  0
 27 28  2  0  0  0
 27 29  2  0  0  0
 27 30  1  0  0  0
 30 31  1  0  0  0
 31 32  1  0  0  0
 32 33  1  0  0  0
 33 36  1  0  0  0
 36 37  1  0  0  0
 37 38  1  0  0  0
 38 39  1  0  0  0
 39 40  2  0  0  0
 39 41  1  0  0  0
 33 34  1  0  0  0
 34 35  1  0  0  0
  4  5  2  0  0  0
  5  6  1  0  0  0
  6  7  1  0  0  0
  7  8  2  0  0  0
  8  9  1  0  0  0
  9 10  1  0  0  0
 10 24  1  0  0  0
 24 25  1  0  0  0
 25 26  1  0  0  0
 10 11  2  0  0  0
 11 18  1  0  0  0
 18 19  2  0  0  0
 19 20  1  0  0  0
 11 12  1  0  0  0
 12 22  1  0  0  0
 22 23  1  0  0  0
 12 13  1  0  0  0
 13 14  1  0  0  0
 14 15  2  0  0  0
 14 16  1  0  0  0
  6  1  2  0  0  0
 16  7  1  0  0  0
 35 30  1  0  0  0
 13  9  2  0  0  0
 20 21  1  0  0  0
 16 17  1  0  0  0
M  CHG 1  39   1
M  CHG 1  41  -1
M  END
> <minimizedAffinity>
-9.96428

$$$$



 45 48  0  0  0  0  0  0  0  0999 V2000
    3.7673   67.0143   84.5678 C   0  0  0  0  0  0  0  0  0  0  0  0
    4.5321   68.0935   84.0995 C   0  0  0  0  0  0  0  0  0  0  0  0
    4.0583   68.9213   83.0763 C   0  0  0  0  0  0  0  0  0  0  0  0
    2.8175   68.6631   82.5005 C   0  0  0  0  0  0  0  0  0  0  0  0
    2.0625   67.5683   82.9185 C   0  0  0  0  0  0  0  0  0  0  0  0
    2.5144   66.7518   83.9698 C   0  0  0  0  0  0  0  0  0  0  0  0
    1.5762   65.6647   84.4129 C   0  0  0  0  0  0  0  0  0  0  0  0
    0.7549   65.1440   83.5445 N   0  0  0  0  0  0  0  0  0  0  0  0
   -0.0795   64.1526   84.0584 C   0  0  0  0  0  0  0  0  0  0  0  0
   -1.0438   63.4237   83.3410 C   0  0  0  0  0  0  0  0  0  0  0  0
   -1.6401   62.5511   84.2610 C   0  0  0  0  0  0  0  0  0  0  0  0
   -1.0409   62.7889   85.4994 N   0  0  0  0  0  0  0  0  0  0  0  0
   -0.0679   63.7522   85.3618 C   0  0  0  0  0  0  0  0  0  0  0  0
    0.8382   64.3191   86.3109 C   0  0  0  0  0  0  0  0  0  0  0  0
    0.9252   64.0269   87.4987 O   0  0  0  0  0  0  0  0  0  0  0  0
    1.6439   65.2764   85.7407 N   0  0  0  0  0  0  0  0  0  0  0  0
    2.2842   65.7434   86.3688 H   0  0  0  0  0  0  0  0  0  0  0  0
   -2.6825   61.5898   83.9617 C   0  0  0  0  0  0  0  0  0  0  0  0
   -2.4786   60.5359   83.2374 N   0  0  0  0  0  0  0  0  0  0  0  0
   -3.6751   59.8158   83.1245 O   0  0  0  0  0  0  0  0  0  0  0  0
   -3.4163   59.0660   82.5564 H   0  0  0  0  0  0  0  0  0  0  0  0
   -1.3934   62.1648   86.7676 C   0  0  0  0  0  0  0  0  0  0  0  0
   -2.5142   62.8978   87.4835 C   0  0  0  0  0  0  0  0  0  0  0  0
   -1.3318   63.5732   81.8782 C   0  0  0  0  0  0  0  0  0  0  0  0
   -0.3757   62.7483   81.0148 C   0  0  0  0  0  0  0  0  0  0  0  0
   -1.1306   61.8679   80.0315 C   0  0  0  0  0  0  0  0  0  0  0  0
    2.2082   69.7010   81.1938 S   0  0  0  0  0  0  0  0  0  0  0  0
    1.4967   68.8705   80.2457 O   0  0  0  0  0  0  0  0  0  0  0  0
    3.3020   70.5469   80.7651 O   0  0  0  0  0  0  0  0  0  0  0  0
    1.0616   70.6844   81.9933 N   0  0  0  0  0  0  0  0  0  0  0  0
   -0.1082   71.1140   81.1540 C   0  0  0  0  0  0  0  0  0  0  0  0
   -0.7373   72.4268   81.6577 C   0  0  0  0  0  0  0  0  0  0  0  0
    0.1850   73.5812   81.6917 N   0  0  0  0  0  0  0  0  0  0  0  0
    1.5803   73.1383   81.9298 C   0  0  0  0  0  0  0  0  0  0  0  0
    1.6782   71.8338   82.7396 C   0  0  0  0  0  0  0  0  0  0  0  0
    0.1211   74.4270   80.4843 C   0  0  0  0  0  0  0  0  0  0  0  0
    1.4623   74.5535   79.7417 C   0  0  0  0  0  0  0  0  0  0  0  0
    1.2089   74.9759   78.4031 O   0  0  0  0  0  0  0  0  0  0  0  0
    2.1961   75.8621   77.9188 N   0  0  0  0  0  0  0  0  0  0  0  0
    1.8691   77.0431   78.0182 O   0  0  0  0  0  0  0  0  0  0  0  0
    3.2354   75.3654   77.4802 O   0  0  0  0  0  0  0  0  0  0  0  0
    4.1660   66.1791   85.5782 O   0  0  0  0  0  0  0  0  0  0  0  0
    5.5322   66.1613   85.9982 C   0  0  0  0  0  0  0  0  0  0  0  0
    7.7552   65.9052   84.8103 C   0  0  0  0  0  0  0  0  0  0  0  0
    6.3882   65.2910   85.0798 C   0  0  0  0  0  0  0  0  0  0  0  0
 44 45  1  0  0  0
 45 43  1  0  0  0
 43 42  1  0  0  0
 42  1  1  0  0  0
  1  2  1  0  0  0
  2  3  2  0  0  0
  3  4  1  0  0  0
  4 27  1  0  0  0
 27 28  2  0  0  0
 27 29  2  0  0  0
 27 30  1  0  0  0
 30 31  1  0  0  0
 31 32  1  0  0  0
 32 33  1  0  0  0
 33 36  1  0  0  0
 36 37  1  0  0  0
 37 38  1  0  0  0
 38 39  1  0  0  0
 39 40  2  0  0  0
 39 41  1  0  0  0
 33 34  1  0  0  0
 34 35  1  0  0  0
  4  5  2  0  0  0
  5  6  1  0  0  0
  6  7  1  0  0  0
  7  8  2  0  0  0
  8  9  1  0  0  0
  9 10  1  0  0  0
 10 24  1  0  0  0
 24 25  1  0  0  0
 25 26  1  0  0  0
 10 11  2  0  0  0
 11 18  1  0  0  0
 18 19  2  0  0  0
 19 20  1  0  0  0
 11 12  1  0  0  0
 12 22  1  0  0  0
 22 23  1  0  0  0
 12 13  1  0  0  0
 13 14  1  0  0  0
 14 15  2  0  0  0
 14 16  1  0  0  0
  6  1  2  0  0  0
 16  7  1  0  0  0
 35 30  1  0  0  0
 13  9  2  0  0  0
 20 21  1  0  0  0
 16 17  1  0  0  0
M  CHG 1  39   1
M  CHG 1  41  -1
M  END
> <minimizedAffinity>
-9.74821

$$$$



 45 48  0  0  0  0  0  0  0  0999 V2000
    4.0574   66.6965   84.2799 C   0  0  0  0  0  0  0  0  0  0  0  0
    4.8552   67.7905   83.9114 C   0  0  0  0  0  0  0  0  0  0  0  0
    4.2804   68.9682   83.4220 C   0  0  0  0  0  0  0  0  0  0  0  0
    2.8980   69.0531   83.2813 C   0  0  0  0  0  0  0  0  0  0  0  0
    2.0908   67.9614   83.5971 C   0  0  0  0  0  0  0  0  0  0  0  0
    2.6562   66.7865   84.1226 C   0  0  0  0  0  0  0  0  0  0  0  0
    1.6882   65.7111   84.5286 C   0  0  0  0  0  0  0  0  0  0  0  0
    0.8574   65.2390   83.6417 N   0  0  0  0  0  0  0  0  0  0  0  0
   -0.0047   64.2544   84.1219 C   0  0  0  0  0  0  0  0  0  0  0  0
   -0.9845   63.5734   83.3789 C   0  0  0  0  0  0  0  0  0  0  0  0
   -1.6072   62.6886   84.2694 C   0  0  0  0  0  0  0  0  0  0  0  0
   -1.0073   62.8724   85.5166 N   0  0  0  0  0  0  0  0  0  0  0  0
   -0.0090   63.8137   85.4122 C   0  0  0  0  0  0  0  0  0  0  0  0
    0.9074   64.3274   86.3816 C   0  0  0  0  0  0  0  0  0  0  0  0
    0.9818   63.9965   87.5601 O   0  0  0  0  0  0  0  0  0  0  0  0
    1.7402   65.2804   85.8440 N   0  0  0  0  0  0  0  0  0  0  0  0
    2.3897   65.7109   86.4884 H   0  0  0  0  0  0  0  0  0  0  0  0
   -2.6730   61.7646   83.9369 C   0  0  0  0  0  0  0  0  0  0  0  0
   -2.4602   60.6284   83.3530 N   0  0  0  0  0  0  0  0  0  0  0  0
   -3.6835   59.9729   83.1609 O   0  0  0  0  0  0  0  0  0  0  0  0
   -3.4133   59.1522   82.7079 H   0  0  0  0  0  0  0  0  0  0  0  0
   -1.3813   62.2190   86.7637 C   0  0  0  0  0  0  0  0  0  0  0  0
   -2.4929   62.9528   87.4929 C   0  0  0  0  0  0  0  0  0  0  0  0
   -1.2623   63.7753   81.9204 C   0  0  0  0  0  0  0  0  0  0  0  0
   -0.6257   62.6859   81.0557 C   0  0  0  0  0  0  0  0  0  0  0  0
   -1.6054   62.1483   80.0246 C   0  0  0  0  0  0  0  0  0  0  0  0
    2.1560   70.5395   82.6521 S   0  0  0  0  0  0  0  0  0  0  0  0
    3.1558   71.5859   82.6572 O   0  0  0  0  0  0  0  0  0  0  0  0
    0.8921   70.7169   83.3353 O   0  0  0  0  0  0  0  0  0  0  0  0
    1.8248   70.1388   81.0239 N   0  0  0  0  0  0  0  0  0  0  0  0
    0.4305   69.6466   80.7575 C   0  0  0  0  0  0  0  0  0  0  0  0
    0.3580   68.7445   79.5110 C   0  0  0  0  0  0  0  0  0  0  0  0
    1.2109   67.5388   79.5698 N   0  0  0  0  0  0  0  0  0  0  0  0
    2.4171   67.7825   80.3977 C   0  0  0  0  0  0  0  0  0  0  0  0
    2.8684   69.2534   80.4031 C   0  0  0  0  0  0  0  0  0  0  0  0
    0.5037   66.3349   80.0470 C   0  0  0  0  0  0  0  0  0  0  0  0
   -0.2001   65.5437   78.9312 C   0  0  0  0  0  0  0  0  0  0  0  0
    0.6854   64.5315   78.4563 O   0  0  0  0  0  0  0  0  0  0  0  0
    0.1539   63.8180   77.3596 N   0  0  0  0  0  0  0  0  0  0  0  0
    0.6476   62.6992   77.2322 O   0  0  0  0  0  0  0  0  0  0  0  0
   -0.7182   64.3763   76.6910 O   0  0  0  0  0  0  0  0  0  0  0  0
    4.5570   65.5240   84.7827 O   0  0  0  0  0  0  0  0  0  0  0  0
    5.8942   65.4699   85.2850 C   0  0  0  0  0  0  0  0  0  0  0  0
    4.9241   65.0164   87.5810 C   0  0  0  0  0  0  0  0  0  0  0  0
    5.9460   65.8061   86.7744 C   0  0  0  0  0  0  0  0  0  0  0  0
 44 45  1  0  0  0
 45 43  1  0  0  0
 43 42  1  0  0  0
 42  1  1  0  0  0
  1  2  1  0  0  0
  2  3  2  0  0  0
  3  4  1  0  0  0
  4 27  1  0  0  0
 27 28  2  0  0  0
 27 29  2  0  0  0
 27 30  1  0  0  0
 30 31  1  0  0  0
 31 32  1  0  0  0
 32 33  1  0  0  0
 33 36  1  0  0  0
 36 37  1  0  0  0
 37 38  1  0  0  0
 38 39  1  0  0  0
 39 40  2  0  0  0
 39 41  1  0  0  0
 33 34  1  0  0  0
 34 35  1  0  0  0
  4  5  2  0  0  0
  5  6  1  0  0  0
  6  7  1  0  0  0
  7  8  2  0  0  0
  8  9  1  0  0  0
  9 10  1  0  0  0
 10 24  1  0  0  0
 24 25  1  0  0  0
 25 26  1  0  0  0
 10 11  2  0  0  0
 11 18  1  0  0  0
 18 19  2  0  0  0
 19 20  1  0  0  0
 11 12  1  0  0  0
 12 22  1  0  0  0
 22 23  1  0  0  0
 12 13  1  0  0  0
 13 14  1  0  0  0
 14 15  2  0  0  0
 14 16  1  0  0  0
  6  1  2  0  0  0
 16  7  1  0  0  0
 35 30  1  0  0  0
 13  9  2  0  0  0
 20 21  1  0  0  0
 16 17  1  0  0  0
M  CHG 1  39   1
M  CHG 1  41  -1
M  END
> <minimizedAffinity>
-9.42278

$$$$



 45 48  0  0  0  0  0  0  0  0999 V2000
    3.6683   67.4086   83.9717 C   0  0  0  0  0  0  0  0  0  0  0  0
    4.4094   68.5331   83.5777 C   0  0  0  0  0  0  0  0  0  0  0  0
    3.8997   69.4393   82.6418 C   0  0  0  0  0  0  0  0  0  0  0  0
    2.6464   69.2159   82.0786 C   0  0  0  0  0  0  0  0  0  0  0  0
    1.9140   68.0804   82.4210 C   0  0  0  0  0  0  0  0  0  0  0  0
    2.4023   67.1827   83.3864 C   0  0  0  0  0  0  0  0  0  0  0  0
    1.4874   66.0504   83.7592 C   0  0  0  0  0  0  0  0  0  0  0  0
    0.7720   65.4818   82.8293 N   0  0  0  0  0  0  0  0  0  0  0  0
   -0.0508   64.4509   83.2806 C   0  0  0  0  0  0  0  0  0  0  0  0
   -0.9106   63.6678   82.4911 C   0  0  0  0  0  0  0  0  0  0  0  0
   -1.5375   62.7706   83.3660 C   0  0  0  0  0  0  0  0  0  0  0  0
   -1.0602   63.0471   84.6485 N   0  0  0  0  0  0  0  0  0  0  0  0
   -0.1304   64.0596   84.5843 C   0  0  0  0  0  0  0  0  0  0  0  0
    0.6600   64.6794   85.6014 C   0  0  0  0  0  0  0  0  0  0  0  0
    0.6598   64.3994   86.7953 O   0  0  0  0  0  0  0  0  0  0  0  0
    1.4609   65.6743   85.0920 N   0  0  0  0  0  0  0  0  0  0  0  0
    2.0197   66.1783   85.7675 H   0  0  0  0  0  0  0  0  0  0  0  0
   -2.4990   61.7538   82.9889 C   0  0  0  0  0  0  0  0  0  0  0  0
   -2.6473   60.6490   83.6481 N   0  0  0  0  0  0  0  0  0  0  0  0
   -3.6407   59.8755   83.0333 O   0  0  0  0  0  0  0  0  0  0  0  0
   -3.6585   59.0749   83.5905 H   0  0  0  0  0  0  0  0  0  0  0  0
   -1.4873   62.4131   85.8884 C   0  0  0  0  0  0  0  0  0  0  0  0
   -2.7658   63.0193   86.4399 C   0  0  0  0  0  0  0  0  0  0  0  0
   -1.0792   63.7929   81.0075 C   0  0  0  0  0  0  0  0  0  0  0  0
   -0.2397   62.7679   80.2431 C   0  0  0  0  0  0  0  0  0  0  0  0
   -1.0614   62.0542   79.1813 C   0  0  0  0  0  0  0  0  0  0  0  0
    1.9916   70.3540   80.8820 S   0  0  0  0  0  0  0  0  0  0  0  0
    0.9807   69.6682   80.1058 O   0  0  0  0  0  0  0  0  0  0  0  0
    3.1151   70.9975   80.2344 O   0  0  0  0  0  0  0  0  0  0  0  0
    1.2052   71.5179   81.8555 N   0  0  0  0  0  0  0  0  0  0  0  0
    0.6774   72.7163   81.1188 C   0  0  0  0  0  0  0  0  0  0  0  0
    0.5646   73.9562   82.0259 C   0  0  0  0  0  0  0  0  0  0  0  0
    1.8355   74.3867   82.6457 N   0  0  0  0  0  0  0  0  0  0  0  0
    2.7381   73.2300   82.8626 C   0  0  0  0  0  0  0  0  0  0  0  0
    1.9905   71.9026   83.0777 C   0  0  0  0  0  0  0  0  0  0  0  0
    2.5367   75.4416   81.8889 C   0  0  0  0  0  0  0  0  0  0  0  0
    3.6710   76.1214   82.6748 C   0  0  0  0  0  0  0  0  0  0  0  0
    3.2053   76.4193   83.9896 O   0  0  0  0  0  0  0  0  0  0  0  0
    4.2336   76.3561   84.9556 N   0  0  0  0  0  0  0  0  0  0  0  0
    4.1342   77.2270   85.8177 O   0  0  0  0  0  0  0  0  0  0  0  0
    5.0719   75.4611   84.8312 O   0  0  0  0  0  0  0  0  0  0  0  0
    4.1025   66.4952   84.8961 O   0  0  0  0  0  0  0  0  0  0  0  0
    5.2667   66.7652   85.6805 C   0  0  0  0  0  0  0  0  0  0  0  0
    7.3682   65.8746   84.5811 C   0  0  0  0  0  0  0  0  0  0  0  0
    6.2708   65.6164   85.6045 C   0  0  0  0  0  0  0  0  0  0  0  0
 44 45  1  0  0  0
 45 43  1  0  0  0
 43 42  1  0  0  0
 42  1  1  0  0  0
  1  2  1  0  0  0
  2  3  2  0  0  0
  3  4  1  0  0  0
  4 27  1  0  0  0
 27 28  2  0  0  0
 27 29  2  0  0  0
 27 30  1  0  0  0
 30 31  1  0  0  0
 31 32  1  0  0  0
 32 33  1  0  0  0
 33 36  1  0  0  0
 36 37  1  0  0  0
 37 38  1  0  0  0
 38 39  1  0  0  0
 39 40  2  0  0  0
 39 41  1  0  0  0
 33 34  1  0  0  0
 34 35  1  0  0  0
  4  5  2  0  0  0
  5  6  1  0  0  0
  6  7  1  0  0  0
  7  8  2  0  0  0
  8  9  1  0  0  0
  9 10  1  0  0  0
 10 24  1  0  0  0
 24 25  1  0  0  0
 25 26  1  0  0  0
 10 11  2  0  0  0
 11 18  1  0  0  0
 18 19  2  0  0  0
 19 20  1  0  0  0
 11 12  1  0  0  0
 12 22  1  0  0  0
 22 23  1  0  0  0
 12 13  1  0  0  0
 13 14  1  0  0  0
 14 15  2  0  0  0
 14 16  1  0  0  0
  6  1  2  0  0  0
 16  7  1  0  0  0
 35 30  1  0  0  0
 13  9  2  0  0  0
 20 21  1  0  0  0
 16 17  1  0  0  0
M  CHG 1  39   1
M  CHG 1  41  -1
M  END
> <minimizedAffinity>
-9.27690

$$$$



 45 48  0  0  0  0  0  0  0  0999 V2000
    1.0656   65.3716   82.8067 C   0  0  0  0  0  0  0  0  0  0  0  0
    1.5954   66.4838   83.4785 C   0  0  0  0  0  0  0  0  0  0  0  0
    1.7276   67.7183   82.8341 C   0  0  0  0  0  0  0  0  0  0  0  0
    1.3447   67.8442   81.5016 C   0  0  0  0  0  0  0  0  0  0  0  0
    0.8601   66.7401   80.8021 C   0  0  0  0  0  0  0  0  0  0  0  0
    0.6907   65.5046   81.4509 C   0  0  0  0  0  0  0  0  0  0  0  0
    0.0622   64.4101   80.6354 C   0  0  0  0  0  0  0  0  0  0  0  0
   -0.8959   63.6990   81.1610 N   0  0  0  0  0  0  0  0  0  0  0  0
   -1.4027   62.7035   80.3271 C   0  0  0  0  0  0  0  0  0  0  0  0
   -2.4406   61.8079   80.6379 C   0  0  0  0  0  0  0  0  0  0  0  0
   -2.6030   60.9901   79.5117 C   0  0  0  0  0  0  0  0  0  0  0  0
   -1.6555   61.3960   78.5701 N   0  0  0  0  0  0  0  0  0  0  0  0
   -0.9421   62.4629   79.0665 C   0  0  0  0  0  0  0  0  0  0  0  0
    0.1035   63.2482   78.4892 C   0  0  0  0  0  0  0  0  0  0  0  0
    0.5835   63.1107   77.3691 O   0  0  0  0  0  0  0  0  0  0  0  0
    0.5486   64.2217   79.3522 N   0  0  0  0  0  0  0  0  0  0  0  0
    1.3151   64.7898   79.0170 H   0  0  0  0  0  0  0  0  0  0  0  0
   -3.5784   59.9273   79.3719 C   0  0  0  0  0  0  0  0  0  0  0  0
   -3.4672   58.7883   79.9780 N   0  0  0  0  0  0  0  0  0  0  0  0
   -4.5560   57.9759   79.6353 O   0  0  0  0  0  0  0  0  0  0  0  0
   -4.3664   57.1531   80.1242 H   0  0  0  0  0  0  0  0  0  0  0  0
   -1.4041   60.7831   77.2728 C   0  0  0  0  0  0  0  0  0  0  0  0
   -0.6227   59.4858   77.3853 C   0  0  0  0  0  0  0  0  0  0  0  0
   -3.2047   61.7803   81.9265 C   0  0  0  0  0  0  0  0  0  0  0  0
   -2.4015   61.1397   83.0598 C   0  0  0  0  0  0  0  0  0  0  0  0
   -2.6187   61.8664   84.3776 C   0  0  0  0  0  0  0  0  0  0  0  0
    1.5162   69.4039   80.6687 S   0  0  0  0  0  0  0  0  0  0  0  0
    0.2338   70.0745   80.6876 O   0  0  0  0  0  0  0  0  0  0  0  0
    2.2061   69.1561   79.4204 O   0  0  0  0  0  0  0  0  0  0  0  0
    2.5749   70.2680   81.6951 N   0  0  0  0  0  0  0  0  0  0  0  0
    1.9392   71.3820   82.4777 C   0  0  0  0  0  0  0  0  0  0  0  0
    2.9524   72.4759   82.8645 C   0  0  0  0  0  0  0  0  0  0  0  0
    3.6345   73.1190   81.7218 N   0  0  0  0  0  0  0  0  0  0  0  0
    3.7641   72.1772   80.5833 C   0  0  0  0  0  0  0  0  0  0  0  0
    3.8428   70.7026   81.0152 C   0  0  0  0  0  0  0  0  0  0  0  0
    2.9909   74.3691   81.2743 C   0  0  0  0  0  0  0  0  0  0  0  0
    1.7112   74.1493   80.4495 C   0  0  0  0  0  0  0  0  0  0  0  0
    0.7806   75.1848   80.7595 O   0  0  0  0  0  0  0  0  0  0  0  0
   -0.1164   74.8172   81.7865 N   0  0  0  0  0  0  0  0  0  0  0  0
   -0.3889   75.7497   82.5400 O   0  0  0  0  0  0  0  0  0  0  0  0
   -0.5142   73.6507   81.7988 O   0  0  0  0  0  0  0  0  0  0  0  0
    0.8930   64.1421   83.3862 O   0  0  0  0  0  0  0  0  0  0  0  0
    0.0656   64.0036   84.5437 C   0  0  0  0  0  0  0  0  0  0  0  0
    0.1338   63.9617   87.0759 C   0  0  0  0  0  0  0  0  0  0  0  0
    0.7795   64.4919   85.8030 C   0  0  0  0  0  0  0  0  0  0  0  0
 44 45  1  0  0  0
 45 43  1  0  0  0
 43 42  1  0  0  0
 42  1  1  0  0  0
  1  2  1  0  0  0
  2  3  2  0  0  0
  3  4  1  0  0  0
  4 27  1  0  0  0
 27 28  2  0  0  0
 27 29  2  0  0  0
 27 30  1  0  0  0
 30 31  1  0  0  0
 31 32  1  0  0  0
 32 33  1  0  0  0
 33 36  1  0  0  0
 36 37  1  0  0  0
 37 38  1  0  0  0
 38 39  1  0  0  0
 39 40  2  0  0  0
 39 41  1  0  0  0
 33 34  1  0  0  0
 34 35  1  0  0  0
  4  5  2  0  0  0
  5  6  1  0  0  0
  6  7  1  0  0  0
  7  8  2  0  0  0
  8  9  1  0  0  0
  9 10  1  0  0  0
 10 24  1  0  0  0
 24 25  1  0  0  0
 25 26  1  0  0  0
 10 11  2  0  0  0
 11 18  1  0  0  0
 18 19  2  0  0  0
 19 20  1  0  0  0
 11 12  1  0  0  0
 12 22  1  0  0  0
 22 23  1  0  0  0
 12 13  1  0  0  0
 13 14  1  0  0  0
 14 15  2  0  0  0
 14 16  1  0  0  0
  6  1  2  0  0  0
 16  7  1  0  0  0
 35 30  1  0  0  0
 13  9  2  0  0  0
 20 21  1  0  0  0
 16 17  1  0  0  0
M  CHG 1  39   1
M  CHG 1  41  -1
M  END
> <minimizedAffinity>
-9.18351

$$$$



 45 48  0  0  0  0  0  0  0  0999 V2000
    1.1177   65.4403   83.9207 C   0  0  0  0  0  0  0  0  0  0  0  0
    1.8597   66.5220   84.4192 C   0  0  0  0  0  0  0  0  0  0  0  0
    2.0948   67.6561   83.6348 C   0  0  0  0  0  0  0  0  0  0  0  0
    1.6013   67.7083   82.3342 C   0  0  0  0  0  0  0  0  0  0  0  0
    0.9022   66.6254   81.8035 C   0  0  0  0  0  0  0  0  0  0  0  0
    0.6307   65.4962   82.5955 C   0  0  0  0  0  0  0  0  0  0  0  0
   -0.2205   64.4327   81.9612 C   0  0  0  0  0  0  0  0  0  0  0  0
   -0.0574   64.1616   80.6964 N   0  0  0  0  0  0  0  0  0  0  0  0
   -0.9026   63.1688   80.2031 C   0  0  0  0  0  0  0  0  0  0  0  0
   -0.9282   62.6782   78.8861 C   0  0  0  0  0  0  0  0  0  0  0  0
   -1.9341   61.7033   78.8504 C   0  0  0  0  0  0  0  0  0  0  0  0
   -2.4962   61.6473   80.1272 N   0  0  0  0  0  0  0  0  0  0  0  0
   -1.8415   62.5287   80.9567 C   0  0  0  0  0  0  0  0  0  0  0  0
   -2.0141   62.8222   82.3450 C   0  0  0  0  0  0  0  0  0  0  0  0
   -2.8262   62.3031   83.1033 O   0  0  0  0  0  0  0  0  0  0  0  0
   -1.1422   63.7947   82.7748 N   0  0  0  0  0  0  0  0  0  0  0  0
   -1.2379   64.0751   83.7417 H   0  0  0  0  0  0  0  0  0  0  0  0
   -2.3054   60.9131   77.6938 C   0  0  0  0  0  0  0  0  0  0  0  0
   -2.1840   59.6243   77.6558 N   0  0  0  0  0  0  0  0  0  0  0  0
   -2.6159   59.1574   76.4074 O   0  0  0  0  0  0  0  0  0  0  0  0
   -2.4684   58.1958   76.4802 H   0  0  0  0  0  0  0  0  0  0  0  0
   -3.6267   60.8276   80.5420 C   0  0  0  0  0  0  0  0  0  0  0  0
   -3.1946   59.4857   81.1065 C   0  0  0  0  0  0  0  0  0  0  0  0
   -0.0279   63.1278   77.7760 C   0  0  0  0  0  0  0  0  0  0  0  0
   -0.3528   64.5477   77.3089 C   0  0  0  0  0  0  0  0  0  0  0  0
   -1.5807   64.5729   76.4125 C   0  0  0  0  0  0  0  0  0  0  0  0
    1.9009   69.1387   81.3242 S   0  0  0  0  0  0  0  0  0  0  0  0
    1.3281   68.9018   80.0163 O   0  0  0  0  0  0  0  0  0  0  0  0
    3.2979   69.4889   81.4704 O   0  0  0  0  0  0  0  0  0  0  0  0
    0.9697   70.3482   82.0931 N   0  0  0  0  0  0  0  0  0  0  0  0
   -0.2297   70.8195   81.3205 C   0  0  0  0  0  0  0  0  0  0  0  0
   -0.6453   72.2522   81.7043 C   0  0  0  0  0  0  0  0  0  0  0  0
    0.4004   73.2760   81.4969 N   0  0  0  0  0  0  0  0  0  0  0  0
    1.7540   72.6912   81.6565 C   0  0  0  0  0  0  0  0  0  0  0  0
    1.7923   71.4909   82.6184 C   0  0  0  0  0  0  0  0  0  0  0  0
    0.2993   73.9726   80.2001 C   0  0  0  0  0  0  0  0  0  0  0  0
   -1.0754   74.6136   79.9439 C   0  0  0  0  0  0  0  0  0  0  0  0
   -1.5588   74.1739   78.6760 O   0  0  0  0  0  0  0  0  0  0  0  0
   -2.7594   73.4376   78.7799 N   0  0  0  0  0  0  0  0  0  0  0  0
   -3.7624   74.1441   78.6990 O   0  0  0  0  0  0  0  0  0  0  0  0
   -2.6636   72.2171   78.9228 O   0  0  0  0  0  0  0  0  0  0  0  0
    0.8370   64.3109   84.6438 O   0  0  0  0  0  0  0  0  0  0  0  0
    0.7405   64.3758   86.0685 C   0  0  0  0  0  0  0  0  0  0  0  0
   -0.6466   62.2595   85.9450 C   0  0  0  0  0  0  0  0  0  0  0  0
   -0.4940   63.6352   86.5796 C   0  0  0  0  0  0  0  0  0  0  0  0
 44 45  1  0  0  0
 45 43  1  0  0  0
 43 42  1  0  0  0
 42  1  1  0  0  0
  1  2  1  0  0  0
  2  3  2  0  0  0
  3  4  1  0  0  0
  4 27  1  0  0  0
 27 28  2  0  0  0
 27 29  2  0  0  0
 27 30  1  0  0  0
 30 31  1  0  0  0
 31 32  1  0  0  0
 32 33  1  0  0  0
 33 36  1  0  0  0
 36 37  1  0  0  0
 37 38  1  0  0  0
 38 39  1  0  0  0
 39 40  2  0  0  0
 39 41  1  0  0  0
 33 34  1  0  0  0
 34 35  1  0  0  0
  4  5  2  0  0  0
  5  6  1  0  0  0
  6  7  1  0  0  0
  7  8  2  0  0  0
  8  9  1  0  0  0
  9 10  1  0  0  0
 10 24  1  0  0  0
 24 25  1  0  0  0
 25 26  1  0  0  0
 10 11  2  0  0  0
 11 18  1  0  0  0
 18 19  2  0  0  0
 19 20  1  0  0  0
 11 12  1  0  0  0
 12 22  1  0  0  0
 22 23  1  0  0  0
 12 13  1  0  0  0
 13 14  1  0  0  0
 14 15  2  0  0  0
 14 16  1  0  0  0
  6  1  2  0  0  0
 16  7  1  0  0  0
 35 30  1  0  0  0
 13  9  2  0  0  0
 20 21  1  0  0  0
 16 17  1  0  0  0
M  CHG 1  39   1
M  CHG 1  41  -1
M  END
> <minimizedAffinity>
-9.13110

$$$$



 45 48  0  0  0  0  0  0  0  0999 V2000
   -0.1689   63.2718   85.5547 C   0  0  0  0  0  0  0  0  0  0  0  0
   -1.0832   62.2107   85.4700 C   0  0  0  0  0  0  0  0  0  0  0  0
   -1.6134   61.8139   84.2379 C   0  0  0  0  0  0  0  0  0  0  0  0
   -1.2434   62.4904   83.0789 C   0  0  0  0  0  0  0  0  0  0  0  0
   -0.3729   63.5771   83.1466 C   0  0  0  0  0  0  0  0  0  0  0  0
    0.1921   63.9610   84.3753 C   0  0  0  0  0  0  0  0  0  0  0  0
    1.1987   65.0755   84.3207 C   0  0  0  0  0  0  0  0  0  0  0  0
    0.9802   66.0881   83.5291 N   0  0  0  0  0  0  0  0  0  0  0  0
    1.9783   67.0611   83.5443 C   0  0  0  0  0  0  0  0  0  0  0  0
    1.9879   68.2534   82.7999 C   0  0  0  0  0  0  0  0  0  0  0  0
    3.1820   68.9099   83.1266 C   0  0  0  0  0  0  0  0  0  0  0  0
    3.8629   68.0953   84.0334 N   0  0  0  0  0  0  0  0  0  0  0  0
    3.1073   66.9777   84.3044 C   0  0  0  0  0  0  0  0  0  0  0  0
    3.3418   65.8702   85.1771 C   0  0  0  0  0  0  0  0  0  0  0  0
    4.3206   65.7053   85.8973 O   0  0  0  0  0  0  0  0  0  0  0  0
    2.3163   64.9554   85.1301 N   0  0  0  0  0  0  0  0  0  0  0  0
    2.4384   64.1280   85.6986 H   0  0  0  0  0  0  0  0  0  0  0  0
    3.6105   70.1936   82.6084 C   0  0  0  0  0  0  0  0  0  0  0  0
    2.9466   71.2877   82.8067 N   0  0  0  0  0  0  0  0  0  0  0  0
    3.6088   72.3492   82.1760 O   0  0  0  0  0  0  0  0  0  0  0  0
    3.0255   73.1065   82.3713 H   0  0  0  0  0  0  0  0  0  0  0  0
    5.1857   68.3376   84.5931 C   0  0  0  0  0  0  0  0  0  0  0  0
    6.2532   67.4626   83.9599 C   0  0  0  0  0  0  0  0  0  0  0  0
    0.9054   68.7004   81.8654 C   0  0  0  0  0  0  0  0  0  0  0  0
    0.9168   67.9162   80.5521 C   0  0  0  0  0  0  0  0  0  0  0  0
   -0.4831   67.4788   80.1512 C   0  0  0  0  0  0  0  0  0  0  0  0
   -1.9165   62.0026   81.5089 S   0  0  0  0  0  0  0  0  0  0  0  0
   -3.1354   62.7494   81.2833 O   0  0  0  0  0  0  0  0  0  0  0  0
   -1.9137   60.5555   81.4659 O   0  0  0  0  0  0  0  0  0  0  0  0
   -0.7434   62.5664   80.4011 N   0  0  0  0  0  0  0  0  0  0  0  0
   -1.2874   63.3318   79.2282 C   0  0  0  0  0  0  0  0  0  0  0  0
   -0.3529   63.2681   78.0054 C   0  0  0  0  0  0  0  0  0  0  0  0
   -0.0769   61.9038   77.5084 N   0  0  0  0  0  0  0  0  0  0  0  0
   -0.1315   60.9159   78.6133 C   0  0  0  0  0  0  0  0  0  0  0  0
    0.2397   61.5094   79.9834 C   0  0  0  0  0  0  0  0  0  0  0  0
   -0.9651   61.4826   76.4080 C   0  0  0  0  0  0  0  0  0  0  0  0
   -1.8709   60.2905   76.7612 C   0  0  0  0  0  0  0  0  0  0  0  0
   -3.1539   60.7844   77.1410 O   0  0  0  0  0  0  0  0  0  0  0  0
   -3.5628   60.3124   78.4076 N   0  0  0  0  0  0  0  0  0  0  0  0
   -4.2806   61.1107   79.0068 O   0  0  0  0  0  0  0  0  0  0  0  0
   -3.1751   59.1923   78.7456 O   0  0  0  0  0  0  0  0  0  0  0  0
    0.3999   63.6960   86.7267 O   0  0  0  0  0  0  0  0  0  0  0  0
   -0.4146   64.2586   87.7580 C   0  0  0  0  0  0  0  0  0  0  0  0
    0.2845   62.2283   89.1023 C   0  0  0  0  0  0  0  0  0  0  0  0
   -0.8406   63.2003   88.7739 C   0  0  0  0  0  0  0  0  0  0  0  0
 44 45  1  0  0  0
 45 43  1  0  0  0
 43 42  1  0  0  0
 42  1  1  0  0  0
  1  2  1  0  0  0
  2  3  2  0  0  0
  3  4  1  0  0  0
  4 27  1  0  0  0
 27 28  2  0  0  0
 27 29  2  0  0  0
 27 30  1  0  0  0
 30 31  1  0  0  0
 31 32  1  0  0  0
 32 33  1  0  0  0
 33 36  1  0  0  0
 36 37  1  0  0  0
 37 38  1  0  0  0
 38 39  1  0  0  0
 39 40  2  0  0  0
 39 41  1  0  0  0
 33 34  1  0  0  0
 34 35  1  0  0  0
  4  5  2  0  0  0
  5  6  1  0  0  0
  6  7  1  0  0  0
  7  8  2  0  0  0
  8  9  1  0  0  0
  9 10  1  0  0  0
 10 24  1  0  0  0
 24 25  1  0  0  0
 25 26  1  0  0  0
 10 11  2  0  0  0
 11 18  1  0  0  0
 18 19  2  0  0  0
 19 20  1  0  0  0
 11 12  1  0  0  0
 12 22  1  0  0  0
 22 23  1  0  0  0
 12 13  1  0  0  0
 13 14  1  0  0  0
 14 15  2  0  0  0
 14 16  1  0  0  0
  6  1  2  0  0  0
 16  7  1  0  0  0
 35 30  1  0  0  0
 13  9  2  0  0  0
 20 21  1  0  0  0
 16 17  1  0  0  0
M  CHG 1  39   1
M  CHG 1  41  -1
M  END
> <minimizedAffinity>
-9.07631

$$$$
