


 37 41  0  0  0  0  0  0  0  0999 V2000
   -0.7299   62.8208   84.3950 C   0  0  0  0  0  0  0  0  0  0  0  0
    0.0886   63.8965   84.4231 N   0  0  0  0  0  0  0  0  0  0  0  0
    0.6050   64.3550   85.5932 C   0  0  0  0  0  0  0  0  0  0  0  0
    0.2736   63.6486   86.7594 C   0  0  0  0  0  0  0  0  0  0  0  0
    0.6278   63.8062   88.0853 N   0  0  0  0  0  0  0  0  0  0  0  0
    0.0041   62.8321   88.7151 C   0  0  0  0  0  0  0  0  0  0  0  0
   -0.7251   62.0533   87.8571 N   0  0  0  0  0  0  0  0  0  0  0  0
   -0.5583   62.5590   86.6011 C   0  0  0  0  0  0  0  0  0  0  0  0
   -1.0920   62.0930   85.4672 N   0  0  0  0  0  0  0  0  0  0  0  0
   -1.2873   61.2497   88.0928 H   0  0  0  0  0  0  0  0  0  0  0  0
   -1.1974   62.5214   83.1169 N   0  0  0  0  0  0  0  0  0  0  0  0
   -2.1534   62.2011   83.2040 H   0  0  0  0  0  0  0  0  0  0  0  0
    0.1606   63.8686   79.9551 C   0  0  0  0  0  0  0  0  0  0  0  0
    0.4758   62.7175   79.2364 C   0  0  0  0  0  0  0  0  0  0  0  0
    0.2285   61.4771   79.8149 C   0  0  0  0  0  0  0  0  0  0  0  0
   -0.3262   61.3958   81.0992 C   0  0  0  0  0  0  0  0  0  0  0  0
   -0.6398   62.5442   81.8367 C   0  0  0  0  0  0  0  0  0  0  0  0
   -0.3847   63.7882   81.2426 C   0  0  0  0  0  0  0  0  0  0  0  0
    0.4453   65.4711   79.2492 S   0  0  0  0  0  0  0  0  0  0  0  0
   -0.6466   65.7729   78.3496 O   0  0  0  0  0  0  0  0  0  0  0  0
    1.8187   65.4893   78.7928 O   0  0  0  0  0  0  0  0  0  0  0  0
    0.9426   70.0271   81.6352 C   0  0  0  0  0  0  0  0  0  0  0  0
    1.0861   69.3768   80.3352 N   0  0  0  0  0  0  0  0  0  0  0  0
   -0.2012   68.8544   79.8347 C   0  0  0  0  0  0  0  0  0  0  0  0
   -0.7139   67.5789   80.5372 C   0  0  0  0  0  0  0  0  0  0  0  0
    0.3184   66.4985   80.6024 N   0  0  0  0  0  0  0  0  0  0  0  0
    1.6199   67.0191   81.1201 C   0  0  0  0  0  0  0  0  0  0  0  0
    2.0790   68.2830   80.3685 C   0  0  0  0  0  0  0  0  0  0  0  0
    1.4247   65.4897   85.6310 N   0  0  0  0  0  0  0  0  0  0  0  0
    1.8170   65.5840   86.5655 H   0  0  0  0  0  0  0  0  0  0  0  0
    2.3974   65.6033   84.5552 C   0  0  0  0  0  0  0  0  0  0  0  0
    3.8164   65.7440   85.0615 C   0  0  0  0  0  0  0  0  0  0  0  0
    4.2360   65.0887   86.2290 C   0  0  0  0  0  0  0  0  0  0  0  0
    5.5549   65.2001   86.6726 C   0  0  0  0  0  0  0  0  0  0  0  0
    6.4719   65.9620   85.9510 C   0  0  0  0  0  0  0  0  0  0  0  0
    6.0712   66.6138   84.7863 C   0  0  0  0  0  0  0  0  0  0  0  0
    4.7519   66.5035   84.3420 C   0  0  0  0  0  0  0  0  0  0  0  0
 22 23  1  0  0  0
 23 24  1  0  0  0
 24 25  1  0  0  0
 25 26  1  0  0  0
 26 19  1  0  0  0
 19 20  2  0  0  0
 19 21  2  0  0  0
 19 13  1  0  0  0
 13 14  2  0  0  0
 14 15  1  0  0  0
 15 16  2  0  0  0
 16 17  1  0  0  0
 17 11  1  0  0  0
 11  1  1  0  0  0
  1  2  2  0  0  0
  2  3  1  0  0  0
  3 29  1  0  0  0
 29 31  1  0  0  0
 31 32  1  0  0  0
 32 33  2  0  0  0
 33 34  1  0  0  0
 34 35  2  0  0  0
 35 36  1  0  0  0
 36 37  2  0  0  0
  3  4  2  0  0  0
  4  5  1  0  0  0
  5  6  2  0  0  0
  6  7  1  0  0  0
  7  8  1  0  0  0
  8  9  2  0  0  0
 17 18  2  0  0  0
 26 27  1  0  0  0
 27 28  1  0  0  0
 28 23  1  0  0  0
 18 13  1  0  0  0
  9  1  1  0  0  0
 37 32  1  0  0  0
  8  4  1  0  0  0
 11 12  1  0  0  0
 29 30  1  0  0  0
  7 10  1  0  0  0
M  END
> <minimizedAffinity>
-10.27691

$$$$



 37 41  0  0  0  0  0  0  0  0999 V2000
   -1.1893   63.5275   81.3966 C   0  0  0  0  0  0  0  0  0  0  0  0
   -1.2818   63.1458   82.6902 N   0  0  0  0  0  0  0  0  0  0  0  0
   -1.8701   61.9706   83.0348 C   0  0  0  0  0  0  0  0  0  0  0  0
   -2.3494   61.1645   81.9910 C   0  0  0  0  0  0  0  0  0  0  0  0
   -2.9626   59.9270   81.9659 N   0  0  0  0  0  0  0  0  0  0  0  0
   -3.1753   59.6861   80.6887 C   0  0  0  0  0  0  0  0  0  0  0  0
   -2.7209   60.7042   79.8940 N   0  0  0  0  0  0  0  0  0  0  0  0
   -2.1842   61.6551   80.7117 C   0  0  0  0  0  0  0  0  0  0  0  0
   -1.6229   62.8113   80.3433 N   0  0  0  0  0  0  0  0  0  0  0  0
   -2.7659   60.7575   78.8878 H   0  0  0  0  0  0  0  0  0  0  0  0
   -0.5962   64.7782   81.2355 N   0  0  0  0  0  0  0  0  0  0  0  0
   -0.8298   65.1148   80.3102 H   0  0  0  0  0  0  0  0  0  0  0  0
    1.5250   67.6347   82.2340 C   0  0  0  0  0  0  0  0  0  0  0  0
    1.9021   67.3029   83.5334 C   0  0  0  0  0  0  0  0  0  0  0  0
    1.4441   66.1089   84.0803 C   0  0  0  0  0  0  0  0  0  0  0  0
    0.6165   65.2617   83.3313 C   0  0  0  0  0  0  0  0  0  0  0  0
    0.2222   65.5865   82.0274 C   0  0  0  0  0  0  0  0  0  0  0  0
    0.6900   66.7932   81.4883 C   0  0  0  0  0  0  0  0  0  0  0  0
    2.0988   69.1405   81.4919 S   0  0  0  0  0  0  0  0  0  0  0  0
    1.7276   69.1293   80.0937 O   0  0  0  0  0  0  0  0  0  0  0  0
    3.4773   69.3092   81.8996 O   0  0  0  0  0  0  0  0  0  0  0  0
   -0.1929   73.7621   81.7845 C   0  0  0  0  0  0  0  0  0  0  0  0
    0.5746   72.9028   80.8867 N   0  0  0  0  0  0  0  0  0  0  0  0
   -0.1461   71.6537   80.5689 C   0  0  0  0  0  0  0  0  0  0  0  0
   -0.1905   70.6098   81.7054 C   0  0  0  0  0  0  0  0  0  0  0  0
    1.1596   70.3225   82.2815 N   0  0  0  0  0  0  0  0  0  0  0  0
    1.8885   71.5832   82.6165 C   0  0  0  0  0  0  0  0  0  0  0  0
    1.9059   72.5739   81.4369 C   0  0  0  0  0  0  0  0  0  0  0  0
   -1.9995   61.5879   84.3756 N   0  0  0  0  0  0  0  0  0  0  0  0
   -1.1271   61.1646   84.6850 H   0  0  0  0  0  0  0  0  0  0  0  0
   -2.5288   62.6020   85.2744 C   0  0  0  0  0  0  0  0  0  0  0  0
   -1.5754   62.9428   86.3989 C   0  0  0  0  0  0  0  0  0  0  0  0
   -0.2936   63.4470   86.1323 C   0  0  0  0  0  0  0  0  0  0  0  0
    0.5687   63.7868   87.1763 C   0  0  0  0  0  0  0  0  0  0  0  0
    0.1576   63.6332   88.4989 C   0  0  0  0  0  0  0  0  0  0  0  0
   -1.1149   63.1391   88.7791 C   0  0  0  0  0  0  0  0  0  0  0  0
   -1.9779   62.7984   87.7356 C   0  0  0  0  0  0  0  0  0  0  0  0
 22 23  1  0  0  0
 23 24  1  0  0  0
 24 25  1  0  0  0
 25 26  1  0  0  0
 26 19  1  0  0  0
 19 20  2  0  0  0
 19 21  2  0  0  0
 19 13  1  0  0  0
 13 14  2  0  0  0
 14 15  1  0  0  0
 15 16  2  0  0  0
 16 17  1  0  0  0
 17 11  1  0  0  0
 11  1  1  0  0  0
  1  2  2  0  0  0
  2  3  1  0  0  0
  3 29  1  0  0  0
 29 31  1  0  0  0
 31 32  1  0  0  0
 32 33  2  0  0  0
 33 34  1  0  0  0
 34 35  2  0  0  0
 35 36  1  0  0  0
 36 37  2  0  0  0
  3  4  2  0  0  0
  4  5  1  0  0  0
  5  6  2  0  0  0
  6  7  1  0  0  0
  7  8  1  0  0  0
  8  9  2  0  0  0
 17 18  2  0  0  0
 26 27  1  0  0  0
 27 28  1  0  0  0
 28 23  1  0  0  0
 18 13  1  0  0  0
  9  1  1  0  0  0
 37 32  1  0  0  0
  8  4  1  0  0  0
 11 12  1  0  0  0
 29 30  1  0  0  0
  7 10  1  0  0  0
M  END
> <minimizedAffinity>
-10.13746

$$$$



 37 41  0  0  0  0  0  0  0  0999 V2000
   -0.5801   62.7273   81.0920 C   0  0  0  0  0  0  0  0  0  0  0  0
   -0.8666   62.5870   82.4058 N   0  0  0  0  0  0  0  0  0  0  0  0
   -1.6869   61.5963   82.8433 C   0  0  0  0  0  0  0  0  0  0  0  0
   -2.1975   60.7151   81.8780 C   0  0  0  0  0  0  0  0  0  0  0  0
   -3.0169   59.6059   81.9590 N   0  0  0  0  0  0  0  0  0  0  0  0
   -3.1424   59.1926   80.7149 C   0  0  0  0  0  0  0  0  0  0  0  0
   -2.4369   59.9769   79.8421 N   0  0  0  0  0  0  0  0  0  0  0  0
   -1.8218   60.9519   80.5714 C   0  0  0  0  0  0  0  0  0  0  0  0
   -1.0290   61.9246   80.1099 N   0  0  0  0  0  0  0  0  0  0  0  0
   -2.3722   59.8679   78.8415 H   0  0  0  0  0  0  0  0  0  0  0  0
    0.2403   63.8213   80.8239 N   0  0  0  0  0  0  0  0  0  0  0  0
    0.6404   63.6902   79.9037 H   0  0  0  0  0  0  0  0  0  0  0  0
    1.0676   67.3578   81.5058 C   0  0  0  0  0  0  0  0  0  0  0  0
    1.3833   67.3474   82.8627 C   0  0  0  0  0  0  0  0  0  0  0  0
    1.3217   66.1434   83.5562 C   0  0  0  0  0  0  0  0  0  0  0  0
    0.9455   64.9667   82.8945 C   0  0  0  0  0  0  0  0  0  0  0  0
    0.6169   64.9638   81.5333 C   0  0  0  0  0  0  0  0  0  0  0  0
    0.6821   66.1841   80.8461 C   0  0  0  0  0  0  0  0  0  0  0  0
    1.1478   68.8686   80.5793 S   0  0  0  0  0  0  0  0  0  0  0  0
   -0.1987   69.3672   80.4039 O   0  0  0  0  0  0  0  0  0  0  0  0
    2.0074   68.6171   79.4423 O   0  0  0  0  0  0  0  0  0  0  0  0
    3.8222   73.1481   81.6886 C   0  0  0  0  0  0  0  0  0  0  0  0
    3.1312   72.4617   80.6000 N   0  0  0  0  0  0  0  0  0  0  0  0
    1.6881   72.3080   80.8731 C   0  0  0  0  0  0  0  0  0  0  0  0
    1.3255   71.2364   81.9235 C   0  0  0  0  0  0  0  0  0  0  0  0
    1.9665   69.9136   81.6471 N   0  0  0  0  0  0  0  0  0  0  0  0
    3.4297   70.0619   81.3824 C   0  0  0  0  0  0  0  0  0  0  0  0
    3.7201   71.1364   80.3173 C   0  0  0  0  0  0  0  0  0  0  0  0
   -2.0143   61.4689   84.1988 N   0  0  0  0  0  0  0  0  0  0  0  0
   -1.2783   60.9466   84.6697 H   0  0  0  0  0  0  0  0  0  0  0  0
   -2.4069   62.6969   84.8727 C   0  0  0  0  0  0  0  0  0  0  0  0
   -1.5524   62.9988   86.0844 C   0  0  0  0  0  0  0  0  0  0  0  0
   -0.2599   63.5262   85.9446 C   0  0  0  0  0  0  0  0  0  0  0  0
    0.5104   63.8295   87.0687 C   0  0  0  0  0  0  0  0  0  0  0  0
   -0.0046   63.6158   88.3458 C   0  0  0  0  0  0  0  0  0  0  0  0
   -1.2890   63.0980   88.5004 C   0  0  0  0  0  0  0  0  0  0  0  0
   -2.0601   62.7937   87.3766 C   0  0  0  0  0  0  0  0  0  0  0  0
 22 23  1  0  0  0
 23 24  1  0  0  0
 24 25  1  0  0  0
 25 26  1  0  0  0
 26 19  1  0  0  0
 19 20  2  0  0  0
 19 21  2  0  0  0
 19 13  1  0  0  0
 13 14  2  0  0  0
 14 15  1  0  0  0
 15 16  2  0  0  0
 16 17  1  0  0  0
 17 11  1  0  0  0
 11  1  1  0  0  0
  1  2  2  0  0  0
  2  3  1  0  0  0
  3 29  1  0  0  0
 29 31  1  0  0  0
 31 32  1  0  0  0
 32 33  2  0  0  0
 33 34  1  0  0  0
 34 35  2  0  0  0
 35 36  1  0  0  0
 36 37  2  0  0  0
  3  4  2  0  0  0
  4  5  1  0  0  0
  5  6  2  0  0  0
  6  7  1  0  0  0
  7  8  1  0  0  0
  8  9  2  0  0  0
 17 18  2  0  0  0
 26 27  1  0  0  0
 27 28  1  0  0  0
 28 23  1  0  0  0
 18 13  1  0  0  0
  9  1  1  0  0  0
 37 32  1  0  0  0
  8  4  1  0  0  0
 11 12  1  0  0  0
 29 30  1  0  0  0
  7 10  1  0  0  0
M  END
> <minimizedAffinity>
-10.07217

$$$$



 37 41  0  0  0  0  0  0  0  0999 V2000
    2.2498   66.0906   84.9690 C   0  0  0  0  0  0  0  0  0  0  0  0
    2.1805   67.3514   84.4859 N   0  0  0  0  0  0  0  0  0  0  0  0
    3.3064   68.0596   84.2089 C   0  0  0  0  0  0  0  0  0  0  0  0
    4.5354   67.4163   84.4203 C   0  0  0  0  0  0  0  0  0  0  0  0
    5.8459   67.8082   84.2271 N   0  0  0  0  0  0  0  0  0  0  0  0
    6.5633   66.7697   84.6027 C   0  0  0  0  0  0  0  0  0  0  0  0
    5.7770   65.7289   85.0187 N   0  0  0  0  0  0  0  0  0  0  0  0
    4.4767   66.1245   84.9023 C   0  0  0  0  0  0  0  0  0  0  0  0
    3.3868   65.4082   85.1965 N   0  0  0  0  0  0  0  0  0  0  0  0
    6.0854   64.8283   85.3522 H   0  0  0  0  0  0  0  0  0  0  0  0
    0.9992   65.5363   85.2350 N   0  0  0  0  0  0  0  0  0  0  0  0
    0.5279   66.1390   85.8972 H   0  0  0  0  0  0  0  0  0  0  0  0
   -0.8382   63.1947   83.0448 C   0  0  0  0  0  0  0  0  0  0  0  0
   -1.0607   62.0998   83.8771 C   0  0  0  0  0  0  0  0  0  0  0  0
   -0.5935   62.1469   85.1862 C   0  0  0  0  0  0  0  0  0  0  0  0
    0.0900   63.2786   85.6510 C   0  0  0  0  0  0  0  0  0  0  0  0
    0.3286   64.3826   84.8232 C   0  0  0  0  0  0  0  0  0  0  0  0
   -0.1467   64.3221   83.5056 C   0  0  0  0  0  0  0  0  0  0  0  0
   -1.4304   63.1832   81.3725 S   0  0  0  0  0  0  0  0  0  0  0  0
   -0.6971   64.1799   80.6230 O   0  0  0  0  0  0  0  0  0  0  0  0
   -2.8759   63.2105   81.4402 O   0  0  0  0  0  0  0  0  0  0  0  0
   -1.0280   59.5002   77.7710 C   0  0  0  0  0  0  0  0  0  0  0  0
   -1.4784   60.8739   77.9800 N   0  0  0  0  0  0  0  0  0  0  0  0
   -0.3660   61.7671   78.3610 C   0  0  0  0  0  0  0  0  0  0  0  0
    0.1483   61.6012   79.8071 C   0  0  0  0  0  0  0  0  0  0  0  0
   -0.9502   61.6443   80.8214 N   0  0  0  0  0  0  0  0  0  0  0  0
   -2.0734   60.7325   80.4470 C   0  0  0  0  0  0  0  0  0  0  0  0
   -2.5458   60.9590   78.9983 C   0  0  0  0  0  0  0  0  0  0  0  0
    3.2395   69.3780   83.7418 N   0  0  0  0  0  0  0  0  0  0  0  0
    3.8542   69.9610   84.3061 H   0  0  0  0  0  0  0  0  0  0  0  0
    3.3984   69.5490   82.3058 C   0  0  0  0  0  0  0  0  0  0  0  0
    2.1472   69.1948   81.5321 C   0  0  0  0  0  0  0  0  0  0  0  0
    2.0698   68.0092   80.7859 C   0  0  0  0  0  0  0  0  0  0  0  0
    0.9011   67.6758   80.0991 C   0  0  0  0  0  0  0  0  0  0  0  0
   -0.2064   68.5197   80.1555 C   0  0  0  0  0  0  0  0  0  0  0  0
   -0.1463   69.6978   80.8975 C   0  0  0  0  0  0  0  0  0  0  0  0
    1.0225   70.0326   81.5843 C   0  0  0  0  0  0  0  0  0  0  0  0
 22 23  1  0  0  0
 23 24  1  0  0  0
 24 25  1  0  0  0
 25 26  1  0  0  0
 26 19  1  0  0  0
 19 20  2  0  0  0
 19 21  2  0  0  0
 19 13  1  0  0  0
 13 14  2  0  0  0
 14 15  1  0  0  0
 15 16  2  0  0  0
 16 17  1  0  0  0
 17 11  1  0  0  0
 11  1  1  0  0  0
  1  2  2  0  0  0
  2  3  1  0  0  0
  3 29  1  0  0  0
 29 31  1  0  0  0
 31 32  1  0  0  0
 32 33  2  0  0  0
 33 34  1  0  0  0
 34 35  2  0  0  0
 35 36  1  0  0  0
 36 37  2  0  0  0
  3  4  2  0  0  0
  4  5  1  0  0  0
  5  6  2  0  0  0
  6  7  1  0  0  0
  7  8  1  0  0  0
  8  9  2  0  0  0
 17 18  2  0  0  0
 26 27  1  0  0  0
 27 28  1  0  0  0
 28 23  1  0  0  0
 18 13  1  0  0  0
  9  1  1  0  0  0
 37 32  1  0  0  0
  8  4  1  0  0  0
 11 12  1  0  0  0
 29 30  1  0  0  0
  7 10  1  0  0  0
M  END
> <minimizedAffinity>
-10.03563

$$$$



 37 41  0  0  0  0  0  0  0  0999 V2000
    1.1823   67.7191   80.3843 C   0  0  0  0  0  0  0  0  0  0  0  0
    1.4148   67.6432   81.7139 N   0  0  0  0  0  0  0  0  0  0  0  0
    2.2877   68.4876   82.3231 C   0  0  0  0  0  0  0  0  0  0  0  0
    2.9116   69.4530   81.5183 C   0  0  0  0  0  0  0  0  0  0  0  0
    3.8101   70.4658   81.7926 N   0  0  0  0  0  0  0  0  0  0  0  0
    4.0275   71.0428   80.6289 C   0  0  0  0  0  0  0  0  0  0  0  0
    3.3062   70.4553   79.6244 N   0  0  0  0  0  0  0  0  0  0  0  0
    2.5823   69.4402   80.1782 C   0  0  0  0  0  0  0  0  0  0  0  0
    1.7394   68.6148   79.5491 N   0  0  0  0  0  0  0  0  0  0  0  0
    3.2987   70.7129   78.6493 H   0  0  0  0  0  0  0  0  0  0  0  0
    0.2931   66.7484   79.9273 N   0  0  0  0  0  0  0  0  0  0  0  0
   -0.6149   67.1834   79.8258 H   0  0  0  0  0  0  0  0  0  0  0  0
    0.2171   63.0860   80.4144 C   0  0  0  0  0  0  0  0  0  0  0  0
    0.5734   62.5978   79.1591 C   0  0  0  0  0  0  0  0  0  0  0  0
    0.8450   63.5039   78.1396 C   0  0  0  0  0  0  0  0  0  0  0  0
    0.7572   64.8820   78.3788 C   0  0  0  0  0  0  0  0  0  0  0  0
    0.3916   65.3868   79.6328 C   0  0  0  0  0  0  0  0  0  0  0  0
    0.1196   64.4628   80.6515 C   0  0  0  0  0  0  0  0  0  0  0  0
   -0.1229   61.9659   81.7475 S   0  0  0  0  0  0  0  0  0  0  0  0
    1.1372   61.5324   82.3104 O   0  0  0  0  0  0  0  0  0  0  0  0
   -1.0912   61.0099   81.2542 O   0  0  0  0  0  0  0  0  0  0  0  0
   -2.6710   62.8133   86.1617 C   0  0  0  0  0  0  0  0  0  0  0  0
   -2.0172   61.7648   85.3827 N   0  0  0  0  0  0  0  0  0  0  0  0
   -0.5735   62.0239   85.2117 C   0  0  0  0  0  0  0  0  0  0  0  0
   -0.2178   63.1415   84.2080 C   0  0  0  0  0  0  0  0  0  0  0  0
   -0.8959   62.9705   82.8858 N   0  0  0  0  0  0  0  0  0  0  0  0
   -2.3597   62.7203   83.0526 C   0  0  0  0  0  0  0  0  0  0  0  0
   -2.6435   61.5867   84.0563 C   0  0  0  0  0  0  0  0  0  0  0  0
    2.5580   68.3894   83.6936 N   0  0  0  0  0  0  0  0  0  0  0  0
    1.9200   68.9986   84.2015 H   0  0  0  0  0  0  0  0  0  0  0  0
    2.6513   67.0382   84.2246 C   0  0  0  0  0  0  0  0  0  0  0  0
    4.0557   66.6736   84.6539 C   0  0  0  0  0  0  0  0  0  0  0  0
    4.3124   65.4848   85.3533 C   0  0  0  0  0  0  0  0  0  0  0  0
    5.6151   65.1418   85.7196 C   0  0  0  0  0  0  0  0  0  0  0  0
    6.6774   65.9793   85.3851 C   0  0  0  0  0  0  0  0  0  0  0  0
    6.4385   67.1605   84.6854 C   0  0  0  0  0  0  0  0  0  0  0  0
    5.1357   67.5049   84.3191 C   0  0  0  0  0  0  0  0  0  0  0  0
 22 23  1  0  0  0
 23 24  1  0  0  0
 24 25  1  0  0  0
 25 26  1  0  0  0
 26 19  1  0  0  0
 19 20  2  0  0  0
 19 21  2  0  0  0
 19 13  1  0  0  0
 13 14  2  0  0  0
 14 15  1  0  0  0
 15 16  2  0  0  0
 16 17  1  0  0  0
 17 11  1  0  0  0
 11  1  1  0  0  0
  1  2  2  0  0  0
  2  3  1  0  0  0
  3 29  1  0  0  0
 29 31  1  0  0  0
 31 32  1  0  0  0
 32 33  2  0  0  0
 33 34  1  0  0  0
 34 35  2  0  0  0
 35 36  1  0  0  0
 36 37  2  0  0  0
  3  4  2  0  0  0
  4  5  1  0  0  0
  5  6  2  0  0  0
  6  7  1  0  0  0
  7  8  1  0  0  0
  8  9  2  0  0  0
 17 18  2  0  0  0
 26 27  1  0  0  0
 27 28  1  0  0  0
 28 23  1  0  0  0
 18 13  1  0  0  0
  9  1  1  0  0  0
 37 32  1  0  0  0
  8  4  1  0  0  0
 11 12  1  0  0  0
 29 30  1  0  0  0
  7 10  1  0  0  0
M  END
> <minimizedAffinity>
-10.02048

$$$$



 37 41  0  0  0  0  0  0  0  0999 V2000
    0.9808   65.6528   83.9689 C   0  0  0  0  0  0  0  0  0  0  0  0
    1.7248   66.6182   84.5538 N   0  0  0  0  0  0  0  0  0  0  0  0
    2.1976   67.6710   83.8368 C   0  0  0  0  0  0  0  0  0  0  0  0
    1.8573   67.7234   82.4766 C   0  0  0  0  0  0  0  0  0  0  0  0
    2.1303   68.6345   81.4747 N   0  0  0  0  0  0  0  0  0  0  0  0
    1.5375   68.1429   80.4064 C   0  0  0  0  0  0  0  0  0  0  0  0
    0.8911   66.9665   80.6763 N   0  0  0  0  0  0  0  0  0  0  0  0
    1.0811   66.6875   81.9981 C   0  0  0  0  0  0  0  0  0  0  0  0
    0.6134   65.6335   82.6747 N   0  0  0  0  0  0  0  0  0  0  0  0
    0.3659   66.3981   80.0295 H   0  0  0  0  0  0  0  0  0  0  0  0
    0.6207   64.6316   84.8460 N   0  0  0  0  0  0  0  0  0  0  0  0
    1.3246   64.5839   85.5714 H   0  0  0  0  0  0  0  0  0  0  0  0
   -1.6620   61.9184   83.8049 C   0  0  0  0  0  0  0  0  0  0  0  0
   -2.5247   61.8030   84.8928 C   0  0  0  0  0  0  0  0  0  0  0  0
   -2.3424   62.6443   85.9852 C   0  0  0  0  0  0  0  0  0  0  0  0
   -1.3054   63.5869   85.9842 C   0  0  0  0  0  0  0  0  0  0  0  0
   -0.4254   63.7081   84.9017 C   0  0  0  0  0  0  0  0  0  0  0  0
   -0.6195   62.8535   83.8073 C   0  0  0  0  0  0  0  0  0  0  0  0
   -1.8679   60.8759   82.3842 S   0  0  0  0  0  0  0  0  0  0  0  0
   -2.7734   59.8033   82.7340 O   0  0  0  0  0  0  0  0  0  0  0  0
   -0.5426   60.6002   81.8719 O   0  0  0  0  0  0  0  0  0  0  0  0
   -3.4988   62.1865   77.6599 C   0  0  0  0  0  0  0  0  0  0  0  0
   -2.8240   61.1237   78.4007 N   0  0  0  0  0  0  0  0  0  0  0  0
   -3.6994   60.5270   79.4293 C   0  0  0  0  0  0  0  0  0  0  0  0
   -3.9352   61.3983   80.6817 C   0  0  0  0  0  0  0  0  0  0  0  0
   -2.6629   61.9047   81.2834 N   0  0  0  0  0  0  0  0  0  0  0  0
   -1.7785   62.5210   80.2485 C   0  0  0  0  0  0  0  0  0  0  0  0
   -1.5751   61.5955   79.0339 C   0  0  0  0  0  0  0  0  0  0  0  0
    2.9979   68.6545   84.4310 N   0  0  0  0  0  0  0  0  0  0  0  0
    2.7544   68.7290   85.4165 H   0  0  0  0  0  0  0  0  0  0  0  0
    4.4253   68.5513   84.1696 C   0  0  0  0  0  0  0  0  0  0  0  0
    5.1058   67.5144   85.0364 C   0  0  0  0  0  0  0  0  0  0  0  0
    5.8008   66.4378   84.4651 C   0  0  0  0  0  0  0  0  0  0  0  0
    6.4508   65.5021   85.2719 C   0  0  0  0  0  0  0  0  0  0  0  0
    6.4198   65.6351   86.6587 C   0  0  0  0  0  0  0  0  0  0  0  0
    5.7384   66.7026   87.2402 C   0  0  0  0  0  0  0  0  0  0  0  0
    5.0874   67.6387   86.4341 C   0  0  0  0  0  0  0  0  0  0  0  0
 22 23  1  0  0  0
 23 24  1  0  0  0
 24 25  1  0  0  0
 25 26  1  0  0  0
 26 19  1  0  0  0
 19 20  2  0  0  0
 19 21  2  0  0  0
 19 13  1  0  0  0
 13 14  2  0  0  0
 14 15  1  0  0  0
 15 16  2  0  0  0
 16 17  1  0  0  0
 17 11  1  0  0  0
 11  1  1  0  0  0
  1  2  2  0  0  0
  2  3  1  0  0  0
  3 29  1  0  0  0
 29 31  1  0  0  0
 31 32  1  0  0  0
 32 33  2  0  0  0
 33 34  1  0  0  0
 34 35  2  0  0  0
 35 36  1  0  0  0
 36 37  2  0  0  0
  3  4  2  0  0  0
  4  5  1  0  0  0
  5  6  2  0  0  0
  6  7  1  0  0  0
  7  8  1  0  0  0
  8  9  2  0  0  0
 17 18  2  0  0  0
 26 27  1  0  0  0
 27 28  1  0  0  0
 28 23  1  0  0  0
 18 13  1  0  0  0
  9  1  1  0  0  0
 37 32  1  0  0  0
  8  4  1  0  0  0
 11 12  1  0  0  0
 29 30  1  0  0  0
  7 10  1  0  0  0
M  END
> <minimizedAffinity>
-10.00696

$$$$



 37 41  0  0  0  0  0  0  0  0999 V2000
   -1.5411   62.6409   85.4004 C   0  0  0  0  0  0  0  0  0  0  0  0
   -0.6691   63.6059   85.0317 N   0  0  0  0  0  0  0  0  0  0  0  0
    0.2600   64.0816   85.9015 C   0  0  0  0  0  0  0  0  0  0  0  0
    0.2899   63.5095   87.1824 C   0  0  0  0  0  0  0  0  0  0  0  0
    1.0940   63.7189   88.2859 N   0  0  0  0  0  0  0  0  0  0  0  0
    0.6407   62.8787   89.1931 C   0  0  0  0  0  0  0  0  0  0  0  0
   -0.4083   62.1354   88.7224 N   0  0  0  0  0  0  0  0  0  0  0  0
   -0.6412   62.5227   87.4352 C   0  0  0  0  0  0  0  0  0  0  0  0
   -1.5745   62.0445   86.6060 N   0  0  0  0  0  0  0  0  0  0  0  0
   -0.9249   61.4272   89.2213 H   0  0  0  0  0  0  0  0  0  0  0  0
   -2.4475   62.3086   84.3954 N   0  0  0  0  0  0  0  0  0  0  0  0
   -3.2874   62.8533   84.5433 H   0  0  0  0  0  0  0  0  0  0  0  0
   -1.6534   60.8924   81.0758 C   0  0  0  0  0  0  0  0  0  0  0  0
   -2.3581   59.6906   81.0736 C   0  0  0  0  0  0  0  0  0  0  0  0
   -3.1095   59.3519   82.1938 C   0  0  0  0  0  0  0  0  0  0  0  0
   -3.1497   60.2092   83.3017 C   0  0  0  0  0  0  0  0  0  0  0  0
   -2.4395   61.4159   83.3215 C   0  0  0  0  0  0  0  0  0  0  0  0
   -1.6852   61.7450   82.1864 C   0  0  0  0  0  0  0  0  0  0  0  0
   -0.6945   61.3709   79.6619 S   0  0  0  0  0  0  0  0  0  0  0  0
   -0.8699   60.3694   78.6328 O   0  0  0  0  0  0  0  0  0  0  0  0
    0.6226   61.7218   80.1488 O   0  0  0  0  0  0  0  0  0  0  0  0
   -1.4032   65.3219   76.4086 C   0  0  0  0  0  0  0  0  0  0  0  0
   -0.6304   64.0963   76.5940 N   0  0  0  0  0  0  0  0  0  0  0  0
   -1.4942   62.8990   76.6233 C   0  0  0  0  0  0  0  0  0  0  0  0
   -2.3128   62.7071   77.9180 C   0  0  0  0  0  0  0  0  0  0  0  0
   -1.4738   62.7978   79.1530 N   0  0  0  0  0  0  0  0  0  0  0  0
   -0.6066   64.0147   79.1342 C   0  0  0  0  0  0  0  0  0  0  0  0
    0.1905   64.1383   77.8218 C   0  0  0  0  0  0  0  0  0  0  0  0
    1.1420   65.1057   85.5350 N   0  0  0  0  0  0  0  0  0  0  0  0
    1.9876   65.0315   86.0967 H   0  0  0  0  0  0  0  0  0  0  0  0
    1.3787   65.2557   84.1074 C   0  0  0  0  0  0  0  0  0  0  0  0
    1.9911   66.5932   83.7529 C   0  0  0  0  0  0  0  0  0  0  0  0
    3.1528   67.0493   84.3940 C   0  0  0  0  0  0  0  0  0  0  0  0
    3.7279   68.2711   84.0399 C   0  0  0  0  0  0  0  0  0  0  0  0
    3.1529   69.0481   83.0361 C   0  0  0  0  0  0  0  0  0  0  0  0
    2.0024   68.6053   82.3864 C   0  0  0  0  0  0  0  0  0  0  0  0
    1.4260   67.3837   82.7403 C   0  0  0  0  0  0  0  0  0  0  0  0
 22 23  1  0  0  0
 23 24  1  0  0  0
 24 25  1  0  0  0
 25 26  1  0  0  0
 26 19  1  0  0  0
 19 20  2  0  0  0
 19 21  2  0  0  0
 19 13  1  0  0  0
 13 14  2  0  0  0
 14 15  1  0  0  0
 15 16  2  0  0  0
 16 17  1  0  0  0
 17 11  1  0  0  0
 11  1  1  0  0  0
  1  2  2  0  0  0
  2  3  1  0  0  0
  3 29  1  0  0  0
 29 31  1  0  0  0
 31 32  1  0  0  0
 32 33  2  0  0  0
 33 34  1  0  0  0
 34 35  2  0  0  0
 35 36  1  0  0  0
 36 37  2  0  0  0
  3  4  2  0  0  0
  4  5  1  0  0  0
  5  6  2  0  0  0
  6  7  1  0  0  0
  7  8  1  0  0  0
  8  9  2  0  0  0
 17 18  2  0  0  0
 26 27  1  0  0  0
 27 28  1  0  0  0
 28 23  1  0  0  0
 18 13  1  0  0  0
  9  1  1  0  0  0
 37 32  1  0  0  0
  8  4  1  0  0  0
 11 12  1  0  0  0
 29 30  1  0  0  0
  7 10  1  0  0  0
M  END
> <minimizedAffinity>
-9.99324

$$$$



 37 41  0  0  0  0  0  0  0  0999 V2000
    0.9546   67.9260   81.7567 C   0  0  0  0  0  0  0  0  0  0  0  0
    1.9432   67.9726   82.6776 N   0  0  0  0  0  0  0  0  0  0  0  0
    2.3885   69.1581   83.1698 C   0  0  0  0  0  0  0  0  0  0  0  0
    1.7602   70.3221   82.7013 C   0  0  0  0  0  0  0  0  0  0  0  0
    1.9279   71.6619   82.9927 N   0  0  0  0  0  0  0  0  0  0  0  0
    1.0439   72.2805   82.2375 C   0  0  0  0  0  0  0  0  0  0  0  0
    0.3124   71.4027   81.4834 N   0  0  0  0  0  0  0  0  0  0  0  0
    0.7544   70.1451   81.7731 C   0  0  0  0  0  0  0  0  0  0  0  0
    0.3047   68.9948   81.2610 N   0  0  0  0  0  0  0  0  0  0  0  0
   -0.4222   71.6270   80.8296 H   0  0  0  0  0  0  0  0  0  0  0  0
    0.6588   66.6309   81.3355 N   0  0  0  0  0  0  0  0  0  0  0  0
    0.5937   66.6410   80.3258 H   0  0  0  0  0  0  0  0  0  0  0  0
   -0.1386   63.0531   81.8042 C   0  0  0  0  0  0  0  0  0  0  0  0
   -0.0949   62.9034   83.1886 C   0  0  0  0  0  0  0  0  0  0  0  0
    0.2016   64.0123   83.9739 C   0  0  0  0  0  0  0  0  0  0  0  0
    0.4528   65.2541   83.3748 C   0  0  0  0  0  0  0  0  0  0  0  0
    0.4211   65.4173   81.9844 C   0  0  0  0  0  0  0  0  0  0  0  0
    0.1219   64.2915   81.2042 C   0  0  0  0  0  0  0  0  0  0  0  0
   -0.5279   61.6685   80.7656 S   0  0  0  0  0  0  0  0  0  0  0  0
   -1.2599   60.7005   81.5528 O   0  0  0  0  0  0  0  0  0  0  0  0
    0.6925   61.3054   80.0774 O   0  0  0  0  0  0  0  0  0  0  0  0
   -3.4949   61.4707   76.5400 C   0  0  0  0  0  0  0  0  0  0  0  0
   -2.6481   60.6502   77.4022 N   0  0  0  0  0  0  0  0  0  0  0  0
   -3.1801   60.5642   78.7771 C   0  0  0  0  0  0  0  0  0  0  0  0
   -3.0049   61.8366   79.6335 C   0  0  0  0  0  0  0  0  0  0  0  0
   -1.5997   62.3491   79.6294 N   0  0  0  0  0  0  0  0  0  0  0  0
   -1.0606   62.4499   78.2394 C   0  0  0  0  0  0  0  0  0  0  0  0
   -1.2562   61.1443   77.4455 C   0  0  0  0  0  0  0  0  0  0  0  0
    3.4361   69.2129   84.0973 N   0  0  0  0  0  0  0  0  0  0  0  0
    3.0647   69.0320   85.0276 H   0  0  0  0  0  0  0  0  0  0  0  0
    4.6202   68.4377   83.7605 C   0  0  0  0  0  0  0  0  0  0  0  0
    5.0001   67.4495   84.8415 C   0  0  0  0  0  0  0  0  0  0  0  0
    5.2036   66.0938   84.5429 C   0  0  0  0  0  0  0  0  0  0  0  0
    5.5829   65.1945   85.5411 C   0  0  0  0  0  0  0  0  0  0  0  0
    5.7700   65.6407   86.8479 C   0  0  0  0  0  0  0  0  0  0  0  0
    5.5773   66.9854   87.1583 C   0  0  0  0  0  0  0  0  0  0  0  0
    5.1973   67.8857   86.1608 C   0  0  0  0  0  0  0  0  0  0  0  0
 22 23  1  0  0  0
 23 24  1  0  0  0
 24 25  1  0  0  0
 25 26  1  0  0  0
 26 19  1  0  0  0
 19 20  2  0  0  0
 19 21  2  0  0  0
 19 13  1  0  0  0
 13 14  2  0  0  0
 14 15  1  0  0  0
 15 16  2  0  0  0
 16 17  1  0  0  0
 17 11  1  0  0  0
 11  1  1  0  0  0
  1  2  2  0  0  0
  2  3  1  0  0  0
  3 29  1  0  0  0
 29 31  1  0  0  0
 31 32  1  0  0  0
 32 33  2  0  0  0
 33 34  1  0  0  0
 34 35  2  0  0  0
 35 36  1  0  0  0
 36 37  2  0  0  0
  3  4  2  0  0  0
  4  5  1  0  0  0
  5  6  2  0  0  0
  6  7  1  0  0  0
  7  8  1  0  0  0
  8  9  2  0  0  0
 17 18  2  0  0  0
 26 27  1  0  0  0
 27 28  1  0  0  0
 28 23  1  0  0  0
 18 13  1  0  0  0
  9  1  1  0  0  0
 37 32  1  0  0  0
  8  4  1  0  0  0
 11 12  1  0  0  0
 29 30  1  0  0  0
  7 10  1  0  0  0
M  END
> <minimizedAffinity>
-9.95429

$$$$



 37 41  0  0  0  0  0  0  0  0999 V2000
    2.1490   66.2688   84.4987 C   0  0  0  0  0  0  0  0  0  0  0  0
    2.1794   67.5679   84.1256 N   0  0  0  0  0  0  0  0  0  0  0  0
    3.3443   68.2669   84.1114 C   0  0  0  0  0  0  0  0  0  0  0  0
    4.5103   67.5752   84.4732 C   0  0  0  0  0  0  0  0  0  0  0  0
    5.8388   67.9470   84.5448 N   0  0  0  0  0  0  0  0  0  0  0  0
    6.4679   66.8611   84.9441 C   0  0  0  0  0  0  0  0  0  0  0  0
    5.6093   65.8098   85.1235 N   0  0  0  0  0  0  0  0  0  0  0  0
    4.3538   66.2487   84.8204 C   0  0  0  0  0  0  0  0  0  0  0  0
    3.2212   65.5391   84.8570 N   0  0  0  0  0  0  0  0  0  0  0  0
    5.8446   64.8759   85.4233 H   0  0  0  0  0  0  0  0  0  0  0  0
    0.8650   65.7274   84.4943 N   0  0  0  0  0  0  0  0  0  0  0  0
    0.2053   66.4947   84.5001 H   0  0  0  0  0  0  0  0  0  0  0  0
   -0.2094   62.4092   83.2730 C   0  0  0  0  0  0  0  0  0  0  0  0
   -0.6993   61.7975   84.4248 C   0  0  0  0  0  0  0  0  0  0  0  0
   -0.6727   62.5041   85.6224 C   0  0  0  0  0  0  0  0  0  0  0  0
   -0.1583   63.8071   85.6614 C   0  0  0  0  0  0  0  0  0  0  0  0
    0.3456   64.4312   84.5135 C   0  0  0  0  0  0  0  0  0  0  0  0
    0.3138   63.7077   83.3130 C   0  0  0  0  0  0  0  0  0  0  0  0
   -0.2383   61.5500   81.7211 S   0  0  0  0  0  0  0  0  0  0  0  0
   -1.2412   60.5101   81.7952 O   0  0  0  0  0  0  0  0  0  0  0  0
    1.1361   61.2427   81.3872 O   0  0  0  0  0  0  0  0  0  0  0  0
   -1.4458   63.3157   77.0178 C   0  0  0  0  0  0  0  0  0  0  0  0
   -1.0025   62.1194   77.7292 N   0  0  0  0  0  0  0  0  0  0  0  0
   -2.0058   61.6571   78.7091 C   0  0  0  0  0  0  0  0  0  0  0  0
   -2.1178   62.5095   79.9913 C   0  0  0  0  0  0  0  0  0  0  0  0
   -0.7943   62.7487   80.6457 N   0  0  0  0  0  0  0  0  0  0  0  0
    0.2217   63.2288   79.6606 C   0  0  0  0  0  0  0  0  0  0  0  0
    0.2906   62.3277   78.4131 C   0  0  0  0  0  0  0  0  0  0  0  0
    3.3749   69.6220   83.7596 N   0  0  0  0  0  0  0  0  0  0  0  0
    4.0352   70.1064   84.3641 H   0  0  0  0  0  0  0  0  0  0  0  0
    3.5380   69.9037   82.3417 C   0  0  0  0  0  0  0  0  0  0  0  0
    2.2623   69.7001   81.5538 C   0  0  0  0  0  0  0  0  0  0  0  0
    2.1912   68.7474   80.5263 C   0  0  0  0  0  0  0  0  0  0  0  0
    1.0015   68.5455   79.8244 C   0  0  0  0  0  0  0  0  0  0  0  0
   -0.1329   69.2882   80.1455 C   0  0  0  0  0  0  0  0  0  0  0  0
   -0.0790   70.2340   81.1676 C   0  0  0  0  0  0  0  0  0  0  0  0
    1.1107   70.4372   81.8699 C   0  0  0  0  0  0  0  0  0  0  0  0
 22 23  1  0  0  0
 23 24  1  0  0  0
 24 25  1  0  0  0
 25 26  1  0  0  0
 26 19  1  0  0  0
 19 20  2  0  0  0
 19 21  2  0  0  0
 19 13  1  0  0  0
 13 14  2  0  0  0
 14 15  1  0  0  0
 15 16  2  0  0  0
 16 17  1  0  0  0
 17 11  1  0  0  0
 11  1  1  0  0  0
  1  2  2  0  0  0
  2  3  1  0  0  0
  3 29  1  0  0  0
 29 31  1  0  0  0
 31 32  1  0  0  0
 32 33  2  0  0  0
 33 34  1  0  0  0
 34 35  2  0  0  0
 35 36  1  0  0  0
 36 37  2  0  0  0
  3  4  2  0  0  0
  4  5  1  0  0  0
  5  6  2  0  0  0
  6  7  1  0  0  0
  7  8  1  0  0  0
  8  9  2  0  0  0
 17 18  2  0  0  0
 26 27  1  0  0  0
 27 28  1  0  0  0
 28 23  1  0  0  0
 18 13  1  0  0  0
  9  1  1  0  0  0
 37 32  1  0  0  0
  8  4  1  0  0  0
 11 12  1  0  0  0
 29 30  1  0  0  0
  7 10  1  0  0  0
M  END
> <minimizedAffinity>
-9.94477

$$$$
