


 35 37  0  0  0  0  0  0  0  0999 V2000
    1.6714   66.6331   83.3902 C   0  0  0  0  0  0  0  0  0  0  0  0
    1.8806   67.3179   82.1868 C   0  0  0  0  0  0  0  0  0  0  0  0
    1.2658   66.8988   81.0004 C   0  0  0  0  0  0  0  0  0  0  0  0
    0.4309   65.7867   80.9913 C   0  0  0  0  0  0  0  0  0  0  0  0
    0.2158   65.0984   82.1885 C   0  0  0  0  0  0  0  0  0  0  0  0
    0.8251   65.5050   83.3932 C   0  0  0  0  0  0  0  0  0  0  0  0
    0.5143   64.6840   84.6134 C   0  0  0  0  0  0  0  0  0  0  0  0
   -0.5567   63.9564   84.6664 N   0  0  0  0  0  0  0  0  0  0  0  0
   -0.8114   63.2181   85.8029 C   0  0  0  0  0  0  0  0  0  0  0  0
   -0.0019   63.1969   86.8825 C   0  0  0  0  0  0  0  0  0  0  0  0
    1.2209   64.0381   86.8145 C   0  0  0  0  0  0  0  0  0  0  0  0
    2.0266   64.1112   87.7369 O   0  0  0  0  0  0  0  0  0  0  0  0
    1.3940   64.7316   85.6584 N   0  0  0  0  0  0  0  0  0  0  0  0
    2.2227   65.3087   85.5991 H   0  0  0  0  0  0  0  0  0  0  0  0
   -2.1015   62.4248   85.7082 C   0  0  0  0  0  0  0  0  0  0  0  0
   -2.4493   62.0765   84.2665 C   0  0  0  0  0  0  0  0  0  0  0  0
   -0.1852   62.4051   88.1496 C   0  0  0  0  0  0  0  0  0  0  0  0
   -0.9110   63.2055   89.2215 C   0  0  0  0  0  0  0  0  0  0  0  0
   -0.2233   65.3074   79.8444 N   0  0  0  0  0  0  0  0  0  0  0  0
    0.3399   64.7624   78.7052 C   0  0  0  0  0  0  0  0  0  0  0  0
    1.5221   64.5613   78.4765 O   0  0  0  0  0  0  0  0  0  0  0  0
   -1.2422   65.3027   79.8475 H   0  0  0  0  0  0  0  0  0  0  0  0
   -0.7568   64.3808   77.6766 C   0  0  0  0  0  0  0  0  0  0  0  0
   -1.0180   65.2134   76.8086 O   0  0  0  0  0  0  0  0  0  0  0  0
   -1.3603   63.1319   77.7578 N   0  0  0  0  0  0  0  0  0  0  0  0
   -2.4664   62.8143   76.8552 C   0  0  0  0  0  0  0  0  0  0  0  0
   -3.4759   61.8663   77.5245 C   0  0  0  0  0  0  0  0  0  0  0  0
   -2.8892   60.5755   77.9409 N   0  0  0  0  0  0  0  0  0  0  0  0
   -3.6513   59.9939   79.0427 C   0  0  0  0  0  0  0  0  0  0  0  0
   -1.4522   60.6824   78.2596 C   0  0  0  0  0  0  0  0  0  0  0  0
   -0.9711   62.0788   78.7010 C   0  0  0  0  0  0  0  0  0  0  0  0
    2.2491   67.0031   84.5779 O   0  0  0  0  0  0  0  0  0  0  0  0
    3.6053   67.4562   84.5627 C   0  0  0  0  0  0  0  0  0  0  0  0
    4.8336   65.6947   85.8843 C   0  0  0  0  0  0  0  0  0  0  0  0
    4.5018   66.2232   84.5006 C   0  0  0  0  0  0  0  0  0  0  0  0
 34 35  1  0  0  0
 35 33  1  0  0  0
 33 32  1  0  0  0
 32  1  1  0  0  0
  1  2  1  0  0  0
  2  3  2  0  0  0
  3  4  1  0  0  0
  4 19  1  0  0  0
 19 20  1  0  0  0
 20 21  2  0  0  0
 20 23  1  0  0  0
 23 24  2  0  0  0
 23 25  1  0  0  0
 25 26  1  0  0  0
 26 27  1  0  0  0
 27 28  1  0  0  0
 28 29  1  0  0  0
 28 30  1  0  0  0
 30 31  1  0  0  0
  4  5  2  0  0  0
  5  6  1  0  0  0
  6  7  1  0  0  0
  7  8  2  0  0  0
  8  9  1  0  0  0
  9 15  1  0  0  0
 15 16  1  0  0  0
  9 10  2  0  0  0
 10 17  1  0  0  0
 17 18  1  0  0  0
 10 11  1  0  0  0
 11 12  2  0  0  0
 11 13  1  0  0  0
  6  1  2  0  0  0
 13  7  1  0  0  0
 31 25  1  0  0  0
 19 22  1  0  0  0
 13 14  1  0  0  0
M  END
> <minimizedAffinity>
-9.99704

$$$$



 35 37  0  0  0  0  0  0  0  0999 V2000
    4.0343   66.4337   84.5541 C   0  0  0  0  0  0  0  0  0  0  0  0
    4.8104   67.5600   84.2542 C   0  0  0  0  0  0  0  0  0  0  0  0
    4.2150   68.7607   83.8478 C   0  0  0  0  0  0  0  0  0  0  0  0
    2.8329   68.8605   83.7311 C   0  0  0  0  0  0  0  0  0  0  0  0
    2.0509   67.7413   84.0299 C   0  0  0  0  0  0  0  0  0  0  0  0
    2.6314   66.5240   84.4411 C   0  0  0  0  0  0  0  0  0  0  0  0
    1.6846   65.3940   84.7347 C   0  0  0  0  0  0  0  0  0  0  0  0
    1.1598   64.7032   83.7721 N   0  0  0  0  0  0  0  0  0  0  0  0
    0.2931   63.6753   84.0783 C   0  0  0  0  0  0  0  0  0  0  0  0
   -0.0476   63.3294   85.3375 C   0  0  0  0  0  0  0  0  0  0  0  0
    0.5551   64.1303   86.4342 C   0  0  0  0  0  0  0  0  0  0  0  0
    0.3125   63.9199   87.6184 O   0  0  0  0  0  0  0  0  0  0  0  0
    1.3976   65.1225   86.0431 N   0  0  0  0  0  0  0  0  0  0  0  0
    1.8147   65.6758   86.7802 H   0  0  0  0  0  0  0  0  0  0  0  0
   -0.2351   62.9682   82.8440 C   0  0  0  0  0  0  0  0  0  0  0  0
    0.7154   61.8790   82.3632 C   0  0  0  0  0  0  0  0  0  0  0  0
   -0.9603   62.2114   85.7652 C   0  0  0  0  0  0  0  0  0  0  0  0
   -2.4199   62.6423   85.7821 C   0  0  0  0  0  0  0  0  0  0  0  0
    2.1625   70.0291   83.3335 N   0  0  0  0  0  0  0  0  0  0  0  0
    2.1858   70.6482   82.0973 C   0  0  0  0  0  0  0  0  0  0  0  0
    2.7737   70.2878   81.0899 O   0  0  0  0  0  0  0  0  0  0  0  0
    1.5342   70.4667   84.0057 H   0  0  0  0  0  0  0  0  0  0  0  0
    1.3100   71.9285   82.1054 C   0  0  0  0  0  0  0  0  0  0  0  0
    0.1193   71.7887   81.8267 O   0  0  0  0  0  0  0  0  0  0  0  0
    1.8867   73.1447   82.4503 N   0  0  0  0  0  0  0  0  0  0  0  0
    1.0871   74.3656   82.3549 C   0  0  0  0  0  0  0  0  0  0  0  0
    1.9612   75.5755   81.9838 C   0  0  0  0  0  0  0  0  0  0  0  0
    3.0351   75.8515   82.9608 N   0  0  0  0  0  0  0  0  0  0  0  0
    4.1445   76.5554   82.3229 C   0  0  0  0  0  0  0  0  0  0  0  0
    3.4854   74.6362   83.6667 C   0  0  0  0  0  0  0  0  0  0  0  0
    3.2686   73.3099   82.9116 C   0  0  0  0  0  0  0  0  0  0  0  0
    4.5683   65.2361   84.9563 O   0  0  0  0  0  0  0  0  0  0  0  0
    5.5711   65.2465   85.9756 C   0  0  0  0  0  0  0  0  0  0  0  0
    5.5981   65.5747   88.4755 C   0  0  0  0  0  0  0  0  0  0  0  0
    4.8838   64.9314   87.3008 C   0  0  0  0  0  0  0  0  0  0  0  0
 34 35  1  0  0  0
 35 33  1  0  0  0
 33 32  1  0  0  0
 32  1  1  0  0  0
  1  2  1  0  0  0
  2  3  2  0  0  0
  3  4  1  0  0  0
  4 19  1  0  0  0
 19 20  1  0  0  0
 20 21  2  0  0  0
 20 23  1  0  0  0
 23 24  2  0  0  0
 23 25  1  0  0  0
 25 26  1  0  0  0
 26 27  1  0  0  0
 27 28  1  0  0  0
 28 29  1  0  0  0
 28 30  1  0  0  0
 30 31  1  0  0  0
  4  5  2  0  0  0
  5  6  1  0  0  0
  6  7  1  0  0  0
  7  8  2  0  0  0
  8  9  1  0  0  0
  9 15  1  0  0  0
 15 16  1  0  0  0
  9 10  2  0  0  0
 10 17  1  0  0  0
 17 18  1  0  0  0
 10 11  1  0  0  0
 11 12  2  0  0  0
 11 13  1  0  0  0
  6  1  2  0  0  0
 13  7  1  0  0  0
 31 25  1  0  0  0
 19 22  1  0  0  0
 13 14  1  0  0  0
M  END
> <minimizedAffinity>
-9.54456

$$$$



 35 37  0  0  0  0  0  0  0  0999 V2000
    3.7943   66.4239   84.6691 C   0  0  0  0  0  0  0  0  0  0  0  0
    4.5551   67.5240   84.2546 C   0  0  0  0  0  0  0  0  0  0  0  0
    3.9661   68.5922   83.5666 C   0  0  0  0  0  0  0  0  0  0  0  0
    2.6059   68.5829   83.2774 C   0  0  0  0  0  0  0  0  0  0  0  0
    1.8391   67.4892   83.6889 C   0  0  0  0  0  0  0  0  0  0  0  0
    2.4134   66.4046   84.3829 C   0  0  0  0  0  0  0  0  0  0  0  0
    1.4844   65.2891   84.7726 C   0  0  0  0  0  0  0  0  0  0  0  0
    0.9550   64.5231   83.8712 N   0  0  0  0  0  0  0  0  0  0  0  0
    0.1049   63.5113   84.2649 C   0  0  0  0  0  0  0  0  0  0  0  0
   -0.2147   63.2558   85.5509 C   0  0  0  0  0  0  0  0  0  0  0  0
    0.3930   64.1423   86.5768 C   0  0  0  0  0  0  0  0  0  0  0  0
    0.1688   64.0174   87.7766 O   0  0  0  0  0  0  0  0  0  0  0  0
    1.2182   65.1121   86.1015 N   0  0  0  0  0  0  0  0  0  0  0  0
    1.6385   65.7229   86.7897 H   0  0  0  0  0  0  0  0  0  0  0  0
   -0.4313   62.7090   83.0938 C   0  0  0  0  0  0  0  0  0  0  0  0
    0.5968   61.7151   82.5683 C   0  0  0  0  0  0  0  0  0  0  0  0
   -1.1081   62.1626   86.0730 C   0  0  0  0  0  0  0  0  0  0  0  0
   -2.5673   62.5926   86.1190 C   0  0  0  0  0  0  0  0  0  0  0  0
    1.9427   69.6165   82.5955 N   0  0  0  0  0  0  0  0  0  0  0  0
    1.9834   69.9122   81.2454 C   0  0  0  0  0  0  0  0  0  0  0  0
    2.5839   69.3160   80.3656 O   0  0  0  0  0  0  0  0  0  0  0  0
    1.3062   70.2050   83.1310 H   0  0  0  0  0  0  0  0  0  0  0  0
    1.1095   71.1537   80.9266 C   0  0  0  0  0  0  0  0  0  0  0  0
   -0.0898   70.9543   80.7352 O   0  0  0  0  0  0  0  0  0  0  0  0
    1.6985   72.4119   80.9030 N   0  0  0  0  0  0  0  0  0  0  0  0
    0.8974   73.5668   80.4988 C   0  0  0  0  0  0  0  0  0  0  0  0
    1.7600   74.6181   79.7800 C   0  0  0  0  0  0  0  0  0  0  0  0
    2.8659   75.1426   80.6080 N   0  0  0  0  0  0  0  0  0  0  0  0
    3.9542   75.6314   79.7656 C   0  0  0  0  0  0  0  0  0  0  0  0
    3.3382   74.1654   81.6081 C   0  0  0  0  0  0  0  0  0  0  0  0
    3.0952   72.6843   81.2568 C   0  0  0  0  0  0  0  0  0  0  0  0
    4.3229   65.3541   85.3454 O   0  0  0  0  0  0  0  0  0  0  0  0
    5.7457   65.2336   85.4224 C   0  0  0  0  0  0  0  0  0  0  0  0
    5.2350   65.2719   87.8913 C   0  0  0  0  0  0  0  0  0  0  0  0
    6.1767   65.7386   86.7961 C   0  0  0  0  0  0  0  0  0  0  0  0
 34 35  1  0  0  0
 35 33  1  0  0  0
 33 32  1  0  0  0
 32  1  1  0  0  0
  1  2  1  0  0  0
  2  3  2  0  0  0
  3  4  1  0  0  0
  4 19  1  0  0  0
 19 20  1  0  0  0
 20 21  2  0  0  0
 20 23  1  0  0  0
 23 24  2  0  0  0
 23 25  1  0  0  0
 25 26  1  0  0  0
 26 27  1  0  0  0
 27 28  1  0  0  0
 28 29  1  0  0  0
 28 30  1  0  0  0
 30 31  1  0  0  0
  4  5  2  0  0  0
  5  6  1  0  0  0
  6  7  1  0  0  0
  7  8  2  0  0  0
  8  9  1  0  0  0
  9 15  1  0  0  0
 15 16  1  0  0  0
  9 10  2  0  0  0
 10 17  1  0  0  0
 17 18  1  0  0  0
 10 11  1  0  0  0
 11 12  2  0  0  0
 11 13  1  0  0  0
  6  1  2  0  0  0
 13  7  1  0  0  0
 31 25  1  0  0  0
 19 22  1  0  0  0
 13 14  1  0  0  0
M  END
> <minimizedAffinity>
-9.32587

$$$$



 35 37  0  0  0  0  0  0  0  0999 V2000
    4.0188   66.5650   84.4708 C   0  0  0  0  0  0  0  0  0  0  0  0
    4.7808   67.7211   84.2622 C   0  0  0  0  0  0  0  0  0  0  0  0
    4.1791   68.9210   83.8626 C   0  0  0  0  0  0  0  0  0  0  0  0
    2.8048   68.9902   83.6617 C   0  0  0  0  0  0  0  0  0  0  0  0
    2.0368   67.8410   83.8691 C   0  0  0  0  0  0  0  0  0  0  0  0
    2.6238   66.6240   84.2720 C   0  0  0  0  0  0  0  0  0  0  0  0
    1.6921   65.4600   84.4633 C   0  0  0  0  0  0  0  0  0  0  0  0
    1.2077   65.1853   85.6335 N   0  0  0  0  0  0  0  0  0  0  0  0
    0.3580   64.1082   85.7725 C   0  0  0  0  0  0  0  0  0  0  0  0
   -0.0152   63.3086   84.7514 C   0  0  0  0  0  0  0  0  0  0  0  0
    0.5493   63.6282   83.4148 C   0  0  0  0  0  0  0  0  0  0  0  0
    0.2943   62.9673   82.4129 O   0  0  0  0  0  0  0  0  0  0  0  0
    1.3763   64.7058   83.3681 N   0  0  0  0  0  0  0  0  0  0  0  0
    1.7678   64.9342   82.4637 H   0  0  0  0  0  0  0  0  0  0  0  0
   -0.1187   63.9197   87.2007 C   0  0  0  0  0  0  0  0  0  0  0  0
    0.9849   63.3788   88.1010 C   0  0  0  0  0  0  0  0  0  0  0  0
   -0.9534   62.1326   84.8045 C   0  0  0  0  0  0  0  0  0  0  0  0
   -2.4078   62.5571   84.6603 C   0  0  0  0  0  0  0  0  0  0  0  0
    2.1286   70.1557   83.2649 N   0  0  0  0  0  0  0  0  0  0  0  0
    2.2038   70.8154   82.0520 C   0  0  0  0  0  0  0  0  0  0  0  0
    2.8540   70.5016   81.0676 O   0  0  0  0  0  0  0  0  0  0  0  0
    1.4543   70.5566   83.9151 H   0  0  0  0  0  0  0  0  0  0  0  0
    1.2978   72.0746   82.0523 C   0  0  0  0  0  0  0  0  0  0  0  0
    0.1371   71.9238   81.6719 O   0  0  0  0  0  0  0  0  0  0  0  0
    1.8142   73.2836   82.5021 N   0  0  0  0  0  0  0  0  0  0  0  0
    0.9939   74.4904   82.4027 C   0  0  0  0  0  0  0  0  0  0  0  0
    1.8638   75.7362   82.1634 C   0  0  0  0  0  0  0  0  0  0  0  0
    2.8491   75.9847   83.2362 N   0  0  0  0  0  0  0  0  0  0  0  0
    3.9875   76.7439   82.7254 C   0  0  0  0  0  0  0  0  0  0  0  0
    3.2726   74.7449   83.9156 C   0  0  0  0  0  0  0  0  0  0  0  0
    3.1503   73.4545   83.0811 C   0  0  0  0  0  0  0  0  0  0  0  0
    4.5594   65.3668   84.8625 O   0  0  0  0  0  0  0  0  0  0  0  0
    5.5593   65.3734   85.8847 C   0  0  0  0  0  0  0  0  0  0  0  0
    5.4989   65.5518   88.3992 C   0  0  0  0  0  0  0  0  0  0  0  0
    4.9040   64.8841   87.1728 C   0  0  0  0  0  0  0  0  0  0  0  0
 34 35  1  0  0  0
 35 33  1  0  0  0
 33 32  1  0  0  0
 32  1  1  0  0  0
  1  2  1  0  0  0
  2  3  2  0  0  0
  3  4  1  0  0  0
  4 19  1  0  0  0
 19 20  1  0  0  0
 20 21  2  0  0  0
 20 23  1  0  0  0
 23 24  2  0  0  0
 23 25  1  0  0  0
 25 26  1  0  0  0
 26 27  1  0  0  0
 27 28  1  0  0  0
 28 29  1  0  0  0
 28 30  1  0  0  0
 30 31  1  0  0  0
  4  5  2  0  0  0
  5  6  1  0  0  0
  6  7  1  0  0  0
  7  8  2  0  0  0
  8  9  1  0  0  0
  9 15  1  0  0  0
 15 16  1  0  0  0
  9 10  2  0  0  0
 10 17  1  0  0  0
 17 18  1  0  0  0
 10 11  1  0  0  0
 11 12  2  0  0  0
 11 13  1  0  0  0
  6  1  2  0  0  0
 13  7  1  0  0  0
 31 25  1  0  0  0
 19 22  1  0  0  0
 13 14  1  0  0  0
M  END
> <minimizedAffinity>
-9.12078

$$$$



 35 37  0  0  0  0  0  0  0  0999 V2000
    0.1355   63.9410   84.7904 C   0  0  0  0  0  0  0  0  0  0  0  0
    0.7973   65.0448   85.3421 C   0  0  0  0  0  0  0  0  0  0  0  0
    1.2777   66.0797   84.5299 C   0  0  0  0  0  0  0  0  0  0  0  0
    1.1082   66.0325   83.1504 C   0  0  0  0  0  0  0  0  0  0  0  0
    0.4475   64.9348   82.5919 C   0  0  0  0  0  0  0  0  0  0  0  0
   -0.0437   63.8835   83.3927 C   0  0  0  0  0  0  0  0  0  0  0  0
   -0.7372   62.7598   82.6744 C   0  0  0  0  0  0  0  0  0  0  0  0
   -0.3990   62.4385   81.4654 N   0  0  0  0  0  0  0  0  0  0  0  0
   -1.0587   61.4040   80.8360 C   0  0  0  0  0  0  0  0  0  0  0  0
   -2.0480   60.6856   81.4071 C   0  0  0  0  0  0  0  0  0  0  0  0
   -2.4323   61.0645   82.7914 C   0  0  0  0  0  0  0  0  0  0  0  0
   -3.3251   60.4943   83.4105 O   0  0  0  0  0  0  0  0  0  0  0  0
   -1.7308   62.0936   83.3355 N   0  0  0  0  0  0  0  0  0  0  0  0
   -1.9827   62.3620   84.2778 H   0  0  0  0  0  0  0  0  0  0  0  0
   -0.5484   61.1550   79.4288 C   0  0  0  0  0  0  0  0  0  0  0  0
    0.3900   62.2604   78.9612 C   0  0  0  0  0  0  0  0  0  0  0  0
   -2.8028   59.5287   80.8089 C   0  0  0  0  0  0  0  0  0  0  0  0
   -3.7341   59.9734   79.6903 C   0  0  0  0  0  0  0  0  0  0  0  0
    1.5580   67.0313   82.2711 N   0  0  0  0  0  0  0  0  0  0  0  0
    0.8428   67.6869   81.2859 C   0  0  0  0  0  0  0  0  0  0  0  0
   -0.3357   67.5494   80.9986 O   0  0  0  0  0  0  0  0  0  0  0  0
    2.5125   67.3689   82.3863 H   0  0  0  0  0  0  0  0  0  0  0  0
    1.7414   68.7070   80.5388 C   0  0  0  0  0  0  0  0  0  0  0  0
    2.3353   68.2979   79.5415 O   0  0  0  0  0  0  0  0  0  0  0  0
    1.8104   70.0166   80.9980 N   0  0  0  0  0  0  0  0  0  0  0  0
    2.7380   70.9487   80.3580 C   0  0  0  0  0  0  0  0  0  0  0  0
    3.2770   71.9776   81.3664 C   0  0  0  0  0  0  0  0  0  0  0  0
    2.2215   72.7994   81.9944 N   0  0  0  0  0  0  0  0  0  0  0  0
    2.6593   73.2939   83.2971 C   0  0  0  0  0  0  0  0  0  0  0  0
    0.9280   72.0939   82.0780 C   0  0  0  0  0  0  0  0  0  0  0  0
    1.0105   70.5548   82.1027 C   0  0  0  0  0  0  0  0  0  0  0  0
   -0.3537   62.9029   85.5417 O   0  0  0  0  0  0  0  0  0  0  0  0
   -0.2814   63.0013   86.9665 C   0  0  0  0  0  0  0  0  0  0  0  0
   -2.7574   62.5969   86.7134 C   0  0  0  0  0  0  0  0  0  0  0  0
   -1.6783   63.3442   87.4756 C   0  0  0  0  0  0  0  0  0  0  0  0
 34 35  1  0  0  0
 35 33  1  0  0  0
 33 32  1  0  0  0
 32  1  1  0  0  0
  1  2  1  0  0  0
  2  3  2  0  0  0
  3  4  1  0  0  0
  4 19  1  0  0  0
 19 20  1  0  0  0
 20 21  2  0  0  0
 20 23  1  0  0  0
 23 24  2  0  0  0
 23 25  1  0  0  0
 25 26  1  0  0  0
 26 27  1  0  0  0
 27 28  1  0  0  0
 28 29  1  0  0  0
 28 30  1  0  0  0
 30 31  1  0  0  0
  4  5  2  0  0  0
  5  6  1  0  0  0
  6  7  1  0  0  0
  7  8  2  0  0  0
  8  9  1  0  0  0
  9 15  1  0  0  0
 15 16  1  0  0  0
  9 10  2  0  0  0
 10 17  1  0  0  0
 17 18  1  0  0  0
 10 11  1  0  0  0
 11 12  2  0  0  0
 11 13  1  0  0  0
  6  1  2  0  0  0
 13  7  1  0  0  0
 31 25  1  0  0  0
 19 22  1  0  0  0
 13 14  1  0  0  0
M  END
> <minimizedAffinity>
-9.03889

$$$$



 35 37  0  0  0  0  0  0  0  0999 V2000
    0.0039   63.8640   83.9246 C   0  0  0  0  0  0  0  0  0  0  0  0
    0.6550   64.6633   84.8721 C   0  0  0  0  0  0  0  0  0  0  0  0
    1.3272   65.8319   84.4926 C   0  0  0  0  0  0  0  0  0  0  0  0
    1.3640   66.2250   83.1592 C   0  0  0  0  0  0  0  0  0  0  0  0
    0.7155   65.4333   82.2073 C   0  0  0  0  0  0  0  0  0  0  0  0
    0.0331   64.2539   82.5695 C   0  0  0  0  0  0  0  0  0  0  0  0
   -0.6256   63.4900   81.4551 C   0  0  0  0  0  0  0  0  0  0  0  0
   -0.0577   63.3911   80.2945 N   0  0  0  0  0  0  0  0  0  0  0  0
   -0.6923   62.6848   79.2944 C   0  0  0  0  0  0  0  0  0  0  0  0
   -1.8852   62.0726   79.4473 C   0  0  0  0  0  0  0  0  0  0  0  0
   -2.5309   62.1958   80.7797 C   0  0  0  0  0  0  0  0  0  0  0  0
   -3.6207   61.6940   81.0365 O   0  0  0  0  0  0  0  0  0  0  0  0
   -1.8365   62.9079   81.7061 N   0  0  0  0  0  0  0  0  0  0  0  0
   -2.2652   62.9997   82.6178 H   0  0  0  0  0  0  0  0  0  0  0  0
    0.0991   62.6648   77.9998 C   0  0  0  0  0  0  0  0  0  0  0  0
   -0.1573   63.9087   77.1584 C   0  0  0  0  0  0  0  0  0  0  0  0
   -2.6366   61.2622   78.4253 C   0  0  0  0  0  0  0  0  0  0  0  0
   -3.5012   62.1364   77.5285 C   0  0  0  0  0  0  0  0  0  0  0  0
    2.0135   67.3833   82.7015 N   0  0  0  0  0  0  0  0  0  0  0  0
    2.5304   68.4247   83.4501 C   0  0  0  0  0  0  0  0  0  0  0  0
    2.5517   68.5350   84.6657 O   0  0  0  0  0  0  0  0  0  0  0  0
    2.1826   67.4672   81.7002 H   0  0  0  0  0  0  0  0  0  0  0  0
    3.1478   69.5110   82.5308 C   0  0  0  0  0  0  0  0  0  0  0  0
    4.3561   69.4311   82.3106 O   0  0  0  0  0  0  0  0  0  0  0  0
    2.3237   70.4860   81.9821 N   0  0  0  0  0  0  0  0  0  0  0  0
    2.9221   71.5695   81.2031 C   0  0  0  0  0  0  0  0  0  0  0  0
    2.1204   72.8733   81.3563 C   0  0  0  0  0  0  0  0  0  0  0  0
    0.7162   72.7602   80.9100 N   0  0  0  0  0  0  0  0  0  0  0  0
   -0.1223   73.7434   81.5908 C   0  0  0  0  0  0  0  0  0  0  0  0
    0.1852   71.3904   81.0500 C   0  0  0  0  0  0  0  0  0  0  0  0
    0.8649   70.5206   82.1259 C   0  0  0  0  0  0  0  0  0  0  0  0
   -0.6680   62.7118   84.2447 O   0  0  0  0  0  0  0  0  0  0  0  0
   -0.9195   62.4320   85.6243 C   0  0  0  0  0  0  0  0  0  0  0  0
   -2.7516   62.9447   87.2792 C   0  0  0  0  0  0  0  0  0  0  0  0
   -2.4238   62.5492   85.8509 C   0  0  0  0  0  0  0  0  0  0  0  0
 34 35  1  0  0  0
 35 33  1  0  0  0
 33 32  1  0  0  0
 32  1  1  0  0  0
  1  2  1  0  0  0
  2  3  2  0  0  0
  3  4  1  0  0  0
  4 19  1  0  0  0
 19 20  1  0  0  0
 20 21  2  0  0  0
 20 23  1  0  0  0
 23 24  2  0  0  0
 23 25  1  0  0  0
 25 26  1  0  0  0
 26 27  1  0  0  0
 27 28  1  0  0  0
 28 29  1  0  0  0
 28 30  1  0  0  0
 30 31  1  0  0  0
  4  5  2  0  0  0
  5  6  1  0  0  0
  6  7  1  0  0  0
  7  8  2  0  0  0
  8  9  1  0  0  0
  9 15  1  0  0  0
 15 16  1  0  0  0
  9 10  2  0  0  0
 10 17  1  0  0  0
 17 18  1  0  0  0
 10 11  1  0  0  0
 11 12  2  0  0  0
 11 13  1  0  0  0
  6  1  2  0  0  0
 13  7  1  0  0  0
 31 25  1  0  0  0
 19 22  1  0  0  0
 13 14  1  0  0  0
M  END
> <minimizedAffinity>
-8.91005

$$$$



 35 37  0  0  0  0  0  0  0  0999 V2000
    2.1436   67.1318   82.8814 C   0  0  0  0  0  0  0  0  0  0  0  0
    1.1281   67.1932   81.9193 C   0  0  0  0  0  0  0  0  0  0  0  0
    0.2186   66.1401   81.7601 C   0  0  0  0  0  0  0  0  0  0  0  0
    0.3059   65.0040   82.5572 C   0  0  0  0  0  0  0  0  0  0  0  0
    1.3158   64.9354   83.5209 C   0  0  0  0  0  0  0  0  0  0  0  0
    2.2404   65.9852   83.6968 C   0  0  0  0  0  0  0  0  0  0  0  0
    3.2787   65.7932   84.7666 C   0  0  0  0  0  0  0  0  0  0  0  0
    4.4743   66.2718   84.6221 N   0  0  0  0  0  0  0  0  0  0  0  0
    5.4022   66.0742   85.6229 C   0  0  0  0  0  0  0  0  0  0  0  0
    5.1427   65.4083   86.7676 C   0  0  0  0  0  0  0  0  0  0  0  0
    3.7710   64.8590   86.9221 C   0  0  0  0  0  0  0  0  0  0  0  0
    3.4190   64.2249   87.9118 O   0  0  0  0  0  0  0  0  0  0  0  0
    2.9211   65.1005   85.8892 N   0  0  0  0  0  0  0  0  0  0  0  0
    1.9837   64.7315   85.9816 H   0  0  0  0  0  0  0  0  0  0  0  0
    6.7503   66.6921   85.3010 C   0  0  0  0  0  0  0  0  0  0  0  0
    7.6834   65.6971   84.6225 C   0  0  0  0  0  0  0  0  0  0  0  0
    6.0807   65.1677   87.9202 C   0  0  0  0  0  0  0  0  0  0  0  0
    5.6066   65.8538   89.1933 C   0  0  0  0  0  0  0  0  0  0  0  0
   -0.5694   63.9097   82.4601 N   0  0  0  0  0  0  0  0  0  0  0  0
   -0.2657   62.5992   82.1403 C   0  0  0  0  0  0  0  0  0  0  0  0
    0.8323   62.1209   81.9039 O   0  0  0  0  0  0  0  0  0  0  0  0
   -1.5478   64.0630   82.6998 H   0  0  0  0  0  0  0  0  0  0  0  0
   -1.5458   61.7231   82.1317 C   0  0  0  0  0  0  0  0  0  0  0  0
   -1.9472   61.3155   83.2215 O   0  0  0  0  0  0  0  0  0  0  0  0
   -2.1877   61.4686   80.9259 N   0  0  0  0  0  0  0  0  0  0  0  0
   -3.3312   60.5571   80.9052 C   0  0  0  0  0  0  0  0  0  0  0  0
   -3.4061   59.7887   79.5748 C   0  0  0  0  0  0  0  0  0  0  0  0
   -3.5450   60.6645   78.3927 N   0  0  0  0  0  0  0  0  0  0  0  0
   -3.0262   60.0043   77.1977 C   0  0  0  0  0  0  0  0  0  0  0  0
   -2.9370   61.9935   78.5971 C   0  0  0  0  0  0  0  0  0  0  0  0
   -1.8010   62.0521   79.6375 C   0  0  0  0  0  0  0  0  0  0  0  0
    3.0578   68.1355   83.0771 O   0  0  0  0  0  0  0  0  0  0  0  0
    2.6311   69.4886   82.8988 C   0  0  0  0  0  0  0  0  0  0  0  0
    3.1341   69.9320   80.4681 C   0  0  0  0  0  0  0  0  0  0  0  0
    3.5829   70.1439   81.9026 C   0  0  0  0  0  0  0  0  0  0  0  0
 34 35  1  0  0  0
 35 33  1  0  0  0
 33 32  1  0  0  0
 32  1  1  0  0  0
  1  2  1  0  0  0
  2  3  2  0  0  0
  3  4  1  0  0  0
  4 19  1  0  0  0
 19 20  1  0  0  0
 20 21  2  0  0  0
 20 23  1  0  0  0
 23 24  2  0  0  0
 23 25  1  0  0  0
 25 26  1  0  0  0
 26 27  1  0  0  0
 27 28  1  0  0  0
 28 29  1  0  0  0
 28 30  1  0  0  0
 30 31  1  0  0  0
  4  5  2  0  0  0
  5  6  1  0  0  0
  6  7  1  0  0  0
  7  8  2  0  0  0
  8  9  1  0  0  0
  9 15  1  0  0  0
 15 16  1  0  0  0
  9 10  2  0  0  0
 10 17  1  0  0  0
 17 18  1  0  0  0
 10 11  1  0  0  0
 11 12  2  0  0  0
 11 13  1  0  0  0
  6  1  2  0  0  0
 13  7  1  0  0  0
 31 25  1  0  0  0
 19 22  1  0  0  0
 13 14  1  0  0  0
M  END
> <minimizedAffinity>
-8.87143

$$$$



 35 37  0  0  0  0  0  0  0  0999 V2000
    1.5978   65.6192   84.7811 C   0  0  0  0  0  0  0  0  0  0  0  0
    1.1787   64.5517   85.5846 C   0  0  0  0  0  0  0  0  0  0  0  0
    0.2742   63.5967   85.1037 C   0  0  0  0  0  0  0  0  0  0  0  0
   -0.2311   63.6891   83.8114 C   0  0  0  0  0  0  0  0  0  0  0  0
    0.1832   64.7508   83.0024 C   0  0  0  0  0  0  0  0  0  0  0  0
    1.0933   65.7219   83.4680 C   0  0  0  0  0  0  0  0  0  0  0  0
    1.4625   66.8136   82.5030 C   0  0  0  0  0  0  0  0  0  0  0  0
    1.6350   66.5546   81.2450 N   0  0  0  0  0  0  0  0  0  0  0  0
    1.9760   67.5804   80.3889 C   0  0  0  0  0  0  0  0  0  0  0  0
    2.1394   68.8619   80.7789 C   0  0  0  0  0  0  0  0  0  0  0  0
    1.9445   69.1483   82.2237 C   0  0  0  0  0  0  0  0  0  0  0  0
    2.0775   70.2711   82.7002 O   0  0  0  0  0  0  0  0  0  0  0  0
    1.6097   68.0803   82.9948 N   0  0  0  0  0  0  0  0  0  0  0  0
    1.4743   68.2615   83.9809 H   0  0  0  0  0  0  0  0  0  0  0  0
    2.1436   67.1140   78.9546 C   0  0  0  0  0  0  0  0  0  0  0  0
    1.6489   65.6862   78.7605 C   0  0  0  0  0  0  0  0  0  0  0  0
    2.4837   70.0456   79.9150 C   0  0  0  0  0  0  0  0  0  0  0  0
    3.9521   70.4283   80.0316 C   0  0  0  0  0  0  0  0  0  0  0  0
   -1.1374   62.7703   83.2570 N   0  0  0  0  0  0  0  0  0  0  0  0
   -0.8573   61.6075   82.5630 C   0  0  0  0  0  0  0  0  0  0  0  0
    0.2377   61.1283   82.3151 O   0  0  0  0  0  0  0  0  0  0  0  0
   -2.1311   62.9306   83.4155 H   0  0  0  0  0  0  0  0  0  0  0  0
   -2.1655   60.9044   82.1150 C   0  0  0  0  0  0  0  0  0  0  0  0
   -2.8106   60.3234   82.9874 O   0  0  0  0  0  0  0  0  0  0  0  0
   -2.5603   60.9860   80.7853 N   0  0  0  0  0  0  0  0  0  0  0  0
   -3.7351   60.2355   80.3429 C   0  0  0  0  0  0  0  0  0  0  0  0
   -3.5864   59.7801   78.8813 C   0  0  0  0  0  0  0  0  0  0  0  0
   -3.4172   60.8966   77.9280 N   0  0  0  0  0  0  0  0  0  0  0  0
   -2.7095   60.4500   76.7310 C   0  0  0  0  0  0  0  0  0  0  0  0
   -2.7741   62.0742   78.5424 C   0  0  0  0  0  0  0  0  0  0  0  0
   -1.8764   61.7815   79.7609 C   0  0  0  0  0  0  0  0  0  0  0  0
    2.4811   66.5793   85.2043 O   0  0  0  0  0  0  0  0  0  0  0  0
    3.8801   66.2884   85.1490 C   0  0  0  0  0  0  0  0  0  0  0  0
    5.3622   67.8456   86.4667 C   0  0  0  0  0  0  0  0  0  0  0  0
    4.6275   67.6185   85.1580 C   0  0  0  0  0  0  0  0  0  0  0  0
 34 35  1  0  0  0
 35 33  1  0  0  0
 33 32  1  0  0  0
 32  1  1  0  0  0
  1  2  1  0  0  0
  2  3  2  0  0  0
  3  4  1  0  0  0
  4 19  1  0  0  0
 19 20  1  0  0  0
 20 21  2  0  0  0
 20 23  1  0  0  0
 23 24  2  0  0  0
 23 25  1  0  0  0
 25 26  1  0  0  0
 26 27  1  0  0  0
 27 28  1  0  0  0
 28 29  1  0  0  0
 28 30  1  0  0  0
 30 31  1  0  0  0
  4  5  2  0  0  0
  5  6  1  0  0  0
  6  7  1  0  0  0
  7  8  2  0  0  0
  8  9  1  0  0  0
  9 15  1  0  0  0
 15 16  1  0  0  0
  9 10  2  0  0  0
 10 17  1  0  0  0
 17 18  1  0  0  0
 10 11  1  0  0  0
 11 12  2  0  0  0
 11 13  1  0  0  0
  6  1  2  0  0  0
 13  7  1  0  0  0
 31 25  1  0  0  0
 19 22  1  0  0  0
 13 14  1  0  0  0
M  END
> <minimizedAffinity>
-8.76526

$$$$



 35 37  0  0  0  0  0  0  0  0999 V2000
    1.3400   65.5557   83.1265 C   0  0  0  0  0  0  0  0  0  0  0  0
    0.5034   65.9947   82.0929 C   0  0  0  0  0  0  0  0  0  0  0  0
    0.7037   67.2376   81.4794 C   0  0  0  0  0  0  0  0  0  0  0  0
    1.7424   68.0678   81.8866 C   0  0  0  0  0  0  0  0  0  0  0  0
    2.5828   67.6365   82.9167 C   0  0  0  0  0  0  0  0  0  0  0  0
    2.3978   66.3887   83.5463 C   0  0  0  0  0  0  0  0  0  0  0  0
    3.3679   66.0378   84.6396 C   0  0  0  0  0  0  0  0  0  0  0  0
    4.5996   66.4370   84.5849 N   0  0  0  0  0  0  0  0  0  0  0  0
    5.4625   66.0941   85.6043 C   0  0  0  0  0  0  0  0  0  0  0  0
    5.1028   65.3616   86.6791 C   0  0  0  0  0  0  0  0  0  0  0  0
    3.6901   64.9042   86.7306 C   0  0  0  0  0  0  0  0  0  0  0  0
    3.2479   64.2223   87.6498 O   0  0  0  0  0  0  0  0  0  0  0  0
    2.9095   65.2875   85.6861 N   0  0  0  0  0  0  0  0  0  0  0  0
    1.9453   64.9824   85.7086 H   0  0  0  0  0  0  0  0  0  0  0  0
    6.8643   66.6345   85.3907 C   0  0  0  0  0  0  0  0  0  0  0  0
    7.7255   65.6743   84.5799 C   0  0  0  0  0  0  0  0  0  0  0  0
    5.9655   64.9633   87.8467 C   0  0  0  0  0  0  0  0  0  0  0  0
    5.6559   65.7845   89.0901 C   0  0  0  0  0  0  0  0  0  0  0  0
    2.0092   69.3247   81.3190 N   0  0  0  0  0  0  0  0  0  0  0  0
    2.5997   70.4232   81.9162 C   0  0  0  0  0  0  0  0  0  0  0  0
    3.0351   70.5142   83.0530 O   0  0  0  0  0  0  0  0  0  0  0  0
    1.7972   69.4527   80.3307 H   0  0  0  0  0  0  0  0  0  0  0  0
    2.6834   71.6119   80.9230 C   0  0  0  0  0  0  0  0  0  0  0  0
    3.5125   71.5221   80.0179 O   0  0  0  0  0  0  0  0  0  0  0  0
    1.8169   72.6875   81.0751 N   0  0  0  0  0  0  0  0  0  0  0  0
    1.9674   73.8530   80.2047 C   0  0  0  0  0  0  0  0  0  0  0  0
    1.5697   75.1474   80.9344 C   0  0  0  0  0  0  0  0  0  0  0  0
    0.1696   75.1537   81.4072 N   0  0  0  0  0  0  0  0  0  0  0  0
    0.0141   76.0535   82.5471 C   0  0  0  0  0  0  0  0  0  0  0  0
   -0.3359   73.7986   81.7007 C   0  0  0  0  0  0  0  0  0  0  0  0
    0.7369   72.7531   82.0647 C   0  0  0  0  0  0  0  0  0  0  0  0
    1.1864   64.3482   83.7588 O   0  0  0  0  0  0  0  0  0  0  0  0
   -0.1355   63.9214   84.0983 C   0  0  0  0  0  0  0  0  0  0  0  0
   -0.1763   63.8282   86.6178 C   0  0  0  0  0  0  0  0  0  0  0  0
   -0.0289   63.0323   85.3337 C   0  0  0  0  0  0  0  0  0  0  0  0
 34 35  1  0  0  0
 35 33  1  0  0  0
 33 32  1  0  0  0
 32  1  1  0  0  0
  1  2  1  0  0  0
  2  3  2  0  0  0
  3  4  1  0  0  0
  4 19  1  0  0  0
 19 20  1  0  0  0
 20 21  2  0  0  0
 20 23  1  0  0  0
 23 24  2  0  0  0
 23 25  1  0  0  0
 25 26  1  0  0  0
 26 27  1  0  0  0
 27 28  1  0  0  0
 28 29  1  0  0  0
 28 30  1  0  0  0
 30 31  1  0  0  0
  4  5  2  0  0  0
  5  6  1  0  0  0
  6  7  1  0  0  0
  7  8  2  0  0  0
  8  9  1  0  0  0
  9 15  1  0  0  0
 15 16  1  0  0  0
  9 10  2  0  0  0
 10 17  1  0  0  0
 17 18  1  0  0  0
 10 11  1  0  0  0
 11 12  2  0  0  0
 11 13  1  0  0  0
  6  1  2  0  0  0
 13  7  1  0  0  0
 31 25  1  0  0  0
 19 22  1  0  0  0
 13 14  1  0  0  0
M  END
> <minimizedAffinity>
-8.67196

$$$$
