


 28 30  0  0  0  0  0  0  0  0999 V2000
   -1.6133   62.1429   83.9001 C   0  0  0  0  0  0  0  0  0  0  0  0
   -2.3125   61.1322   83.3999 N   0  0  0  0  0  0  0  0  0  0  0  0
   -2.0195   61.0990   82.0566 C   0  0  0  0  0  0  0  0  0  0  0  0
   -2.5107   60.2026   81.0347 C   0  0  0  0  0  0  0  0  0  0  0  0
   -3.3061   59.2960   81.2685 O   0  0  0  0  0  0  0  0  0  0  0  0
   -1.9846   60.4814   79.7600 N   0  0  0  0  0  0  0  0  0  0  0  0
   -2.4148   59.6414   78.6601 C   0  0  0  0  0  0  0  0  0  0  0  0
   -1.0755   61.5096   79.4313 C   0  0  0  0  0  0  0  0  0  0  0  0
   -0.6800   61.6720   78.2729 O   0  0  0  0  0  0  0  0  0  0  0  0
   -0.6362   62.3442   80.4753 N   0  0  0  0  0  0  0  0  0  0  0  0
   -1.1373   62.0887   81.7327 C   0  0  0  0  0  0  0  0  0  0  0  0
   -0.8811   62.7440   82.8957 N   0  0  0  0  0  0  0  0  0  0  0  0
   -0.2778   63.5404   83.0449 H   0  0  0  0  0  0  0  0  0  0  0  0
   -0.5207   63.3038   85.8846 C   0  0  0  0  0  0  0  0  0  0  0  0
   -0.5922   63.6825   87.2331 C   0  0  0  0  0  0  0  0  0  0  0  0
   -1.7096   63.3593   88.0066 C   0  0  0  0  0  0  0  0  0  0  0  0
   -2.7674   62.6556   87.4441 C   0  0  0  0  0  0  0  0  0  0  0  0
   -2.7085   62.2733   86.1046 C   0  0  0  0  0  0  0  0  0  0  0  0
   -1.5942   62.5862   85.3050 C   0  0  0  0  0  0  0  0  0  0  0  0
    0.5492   63.5928   85.0695 O   0  0  0  0  0  0  0  0  0  0  0  0
    1.1986   64.8554   85.2337 C   0  0  0  0  0  0  0  0  0  0  0  0
    0.9689   65.6543   83.9526 C   0  0  0  0  0  0  0  0  0  0  0  0
    2.4411   67.1881   82.6070 C   0  0  0  0  0  0  0  0  0  0  0  0
    1.7602   66.9584   83.9470 C   0  0  0  0  0  0  0  0  0  0  0  0
    0.3021   63.4235   80.1695 C   0  0  0  0  0  0  0  0  0  0  0  0
   -0.3734   64.6803   79.5878 C   0  0  0  0  0  0  0  0  0  0  0  0
    0.3190   65.0798   78.2828 C   0  0  0  0  0  0  0  0  0  0  0  0
   -0.3520   65.8575   80.5642 C   0  0  0  0  0  0  0  0  0  0  0  0
 23 24  1  0  0  0
 24 22  1  0  0  0
 22 21  1  0  0  0
 21 20  1  0  0  0
 20 14  1  0  0  0
 14 15  2  0  0  0
 15 16  1  0  0  0
 16 17  2  0  0  0
 17 18  1  0  0  0
 18 19  2  0  0  0
 19  1  1  0  0  0
  1  2  2  0  0  0
  2  3  1  0  0  0
  3  4  1  0  0  0
  4  5  2  0  0  0
  4  6  1  0  0  0
  6  7  1  0  0  0
  6  8  1  0  0  0
  8  9  2  0  0  0
  8 10  1  0  0  0
 10 25  1  0  0  0
 25 26  1  0  0  0
 26 27  1  0  0  0
 26 28  1  0  0  0
 10 11  1  0  0  0
 11 12  1  0  0  0
 19 14  1  0  0  0
 12  1  1  0  0  0
 11  3  2  0  0  0
 12 13  1  0  0  0
M  END
> <minimizedAffinity>
-8.98414

$$$$



 28 30  0  0  0  0  0  0  0  0999 V2000
    1.2311   65.7394   83.8034 C   0  0  0  0  0  0  0  0  0  0  0  0
    0.6854   65.0373   82.8187 N   0  0  0  0  0  0  0  0  0  0  0  0
   -0.1198   64.1011   83.4242 C   0  0  0  0  0  0  0  0  0  0  0  0
   -0.9422   63.0755   82.8233 C   0  0  0  0  0  0  0  0  0  0  0  0
   -1.0235   62.9121   81.6084 O   0  0  0  0  0  0  0  0  0  0  0  0
   -1.6281   62.2952   83.7720 N   0  0  0  0  0  0  0  0  0  0  0  0
   -2.4810   61.2341   83.2750 C   0  0  0  0  0  0  0  0  0  0  0  0
   -1.5689   62.4321   85.1754 C   0  0  0  0  0  0  0  0  0  0  0  0
   -2.2098   61.6859   85.9217 O   0  0  0  0  0  0  0  0  0  0  0  0
   -0.7507   63.4531   85.6928 N   0  0  0  0  0  0  0  0  0  0  0  0
   -0.0703   64.2308   84.7819 C   0  0  0  0  0  0  0  0  0  0  0  0
    0.7798   65.2647   85.0188 N   0  0  0  0  0  0  0  0  0  0  0  0
    1.0677   65.6460   85.9088 H   0  0  0  0  0  0  0  0  0  0  0  0
    3.4648   66.8760   84.2488 C   0  0  0  0  0  0  0  0  0  0  0  0
    4.2955   67.9901   84.0599 C   0  0  0  0  0  0  0  0  0  0  0  0
    3.8648   69.0805   83.3002 C   0  0  0  0  0  0  0  0  0  0  0  0
    2.6020   69.0716   82.7209 C   0  0  0  0  0  0  0  0  0  0  0  0
    1.7666   67.9701   82.9013 C   0  0  0  0  0  0  0  0  0  0  0  0
    2.1768   66.8603   83.6623 C   0  0  0  0  0  0  0  0  0  0  0  0
    3.8299   65.7714   84.9830 O   0  0  0  0  0  0  0  0  0  0  0  0
    5.2242   65.5075   85.1536 C   0  0  0  0  0  0  0  0  0  0  0  0
    5.4090   64.9295   86.5550 C   0  0  0  0  0  0  0  0  0  0  0  0
    5.6833   65.4376   89.0039 C   0  0  0  0  0  0  0  0  0  0  0  0
    5.5222   66.0248   87.6107 C   0  0  0  0  0  0  0  0  0  0  0  0
   -0.6617   63.6202   87.1429 C   0  0  0  0  0  0  0  0  0  0  0  0
    0.5158   62.8570   87.7797 C   0  0  0  0  0  0  0  0  0  0  0  0
    0.1029   62.3277   89.1549 C   0  0  0  0  0  0  0  0  0  0  0  0
    1.7672   63.7258   87.9158 C   0  0  0  0  0  0  0  0  0  0  0  0
 23 24  1  0  0  0
 24 22  1  0  0  0
 22 21  1  0  0  0
 21 20  1  0  0  0
 20 14  1  0  0  0
 14 15  2  0  0  0
 15 16  1  0  0  0
 16 17  2  0  0  0
 17 18  1  0  0  0
 18 19  2  0  0  0
 19  1  1  0  0  0
  1  2  2  0  0  0
  2  3  1  0  0  0
  3  4  1  0  0  0
  4  5  2  0  0  0
  4  6  1  0  0  0
  6  7  1  0  0  0
  6  8  1  0  0  0
  8  9  2  0  0  0
  8 10  1  0  0  0
 10 25  1  0  0  0
 25 26  1  0  0  0
 26 27  1  0  0  0
 26 28  1  0  0  0
 10 11  1  0  0  0
 11 12  1  0  0  0
 19 14  1  0  0  0
 12  1  1  0  0  0
 11  3  2  0  0  0
 12 13  1  0  0  0
M  END
> <minimizedAffinity>
-8.93413

$$$$



 28 30  0  0  0  0  0  0  0  0999 V2000
   -1.3469   61.8121   81.9608 C   0  0  0  0  0  0  0  0  0  0  0  0
   -2.0455   60.8381   81.3918 N   0  0  0  0  0  0  0  0  0  0  0  0
   -1.6503   60.8102   80.0748 C   0  0  0  0  0  0  0  0  0  0  0  0
   -2.0964   59.9484   79.0035 C   0  0  0  0  0  0  0  0  0  0  0  0
   -2.9438   59.0729   79.1605 O   0  0  0  0  0  0  0  0  0  0  0  0
   -1.4617   60.2216   77.7780 N   0  0  0  0  0  0  0  0  0  0  0  0
   -1.8387   59.4147   76.6347 C   0  0  0  0  0  0  0  0  0  0  0  0
   -0.4889   61.2152   77.5372 C   0  0  0  0  0  0  0  0  0  0  0  0
    0.0020   61.3760   76.4157 O   0  0  0  0  0  0  0  0  0  0  0  0
   -0.0986   62.0171   78.6255 N   0  0  0  0  0  0  0  0  0  0  0  0
   -0.7061   61.7664   79.8361 C   0  0  0  0  0  0  0  0  0  0  0  0
   -0.5149   62.3952   81.0259 N   0  0  0  0  0  0  0  0  0  0  0  0
    0.1068   63.1637   81.2342 H   0  0  0  0  0  0  0  0  0  0  0  0
   -0.4210   63.0118   84.0061 C   0  0  0  0  0  0  0  0  0  0  0  0
   -0.5771   63.3661   85.3541 C   0  0  0  0  0  0  0  0  0  0  0  0
   -1.7053   62.9621   86.0720 C   0  0  0  0  0  0  0  0  0  0  0  0
   -2.6896   62.2009   85.4538 C   0  0  0  0  0  0  0  0  0  0  0  0
   -2.5462   61.8419   84.1142 C   0  0  0  0  0  0  0  0  0  0  0  0
   -1.4193   62.2359   83.3700 C   0  0  0  0  0  0  0  0  0  0  0  0
    0.6638   63.3793   83.2442 O   0  0  0  0  0  0  0  0  0  0  0  0
    1.2141   64.6835   83.4416 C   0  0  0  0  0  0  0  0  0  0  0  0
    0.5781   65.6067   82.4046 C   0  0  0  0  0  0  0  0  0  0  0  0
    1.9344   67.3416   83.6216 C   0  0  0  0  0  0  0  0  0  0  0  0
    1.3244   66.9321   82.2904 C   0  0  0  0  0  0  0  0  0  0  0  0
    0.9037   63.0601   78.4107 C   0  0  0  0  0  0  0  0  0  0  0  0
    0.3395   64.4894   78.5255 C   0  0  0  0  0  0  0  0  0  0  0  0
   -0.4793   64.8217   77.2760 C   0  0  0  0  0  0  0  0  0  0  0  0
    1.4388   65.5358   78.7151 C   0  0  0  0  0  0  0  0  0  0  0  0
 23 24  1  0  0  0
 24 22  1  0  0  0
 22 21  1  0  0  0
 21 20  1  0  0  0
 20 14  1  0  0  0
 14 15  2  0  0  0
 15 16  1  0  0  0
 16 17  2  0  0  0
 17 18  1  0  0  0
 18 19  2  0  0  0
 19  1  1  0  0  0
  1  2  2  0  0  0
  2  3  1  0  0  0
  3  4  1  0  0  0
  4  5  2  0  0  0
  4  6  1  0  0  0
  6  7  1  0  0  0
  6  8  1  0  0  0
  8  9  2  0  0  0
  8 10  1  0  0  0
 10 25  1  0  0  0
 25 26  1  0  0  0
 26 27  1  0  0  0
 26 28  1  0  0  0
 10 11  1  0  0  0
 11 12  1  0  0  0
 19 14  1  0  0  0
 12  1  1  0  0  0
 11  3  2  0  0  0
 12 13  1  0  0  0
M  END
> <minimizedAffinity>
-8.89584

$$$$



 28 30  0  0  0  0  0  0  0  0999 V2000
    1.0807   65.7210   83.2633 C   0  0  0  0  0  0  0  0  0  0  0  0
    0.4242   65.3868   82.1598 N   0  0  0  0  0  0  0  0  0  0  0  0
   -0.3451   64.2968   82.4941 C   0  0  0  0  0  0  0  0  0  0  0  0
   -1.2492   63.5274   81.6696 C   0  0  0  0  0  0  0  0  0  0  0  0
   -1.4509   63.7808   80.4845 O   0  0  0  0  0  0  0  0  0  0  0  0
   -1.8626   62.4698   82.3658 N   0  0  0  0  0  0  0  0  0  0  0  0
   -2.7881   61.6319   81.6298 C   0  0  0  0  0  0  0  0  0  0  0  0
   -1.6657   62.1282   83.7208 C   0  0  0  0  0  0  0  0  0  0  0  0
   -2.2527   61.1709   84.2343 O   0  0  0  0  0  0  0  0  0  0  0  0
   -0.7738   62.9212   84.4660 N   0  0  0  0  0  0  0  0  0  0  0  0
   -0.1624   63.9637   83.8049 C   0  0  0  0  0  0  0  0  0  0  0  0
    0.7347   64.8632   84.2883 N   0  0  0  0  0  0  0  0  0  0  0  0
    1.1169   64.9255   85.2213 H   0  0  0  0  0  0  0  0  0  0  0  0
    3.2065   66.7539   84.2089 C   0  0  0  0  0  0  0  0  0  0  0  0
    4.0599   67.8638   84.2904 C   0  0  0  0  0  0  0  0  0  0  0  0
    3.7697   69.0396   83.5940 C   0  0  0  0  0  0  0  0  0  0  0  0
    2.6261   69.1211   82.8093 C   0  0  0  0  0  0  0  0  0  0  0  0
    1.7694   68.0247   82.7201 C   0  0  0  0  0  0  0  0  0  0  0  0
    2.0392   66.8299   83.4120 C   0  0  0  0  0  0  0  0  0  0  0  0
    3.4365   65.5681   84.8675 O   0  0  0  0  0  0  0  0  0  0  0  0
    4.3859   65.5649   85.9358 C   0  0  0  0  0  0  0  0  0  0  0  0
    5.7006   65.0285   85.3736 C   0  0  0  0  0  0  0  0  0  0  0  0
    8.0012   65.8301   84.7449 C   0  0  0  0  0  0  0  0  0  0  0  0
    6.8876   65.8970   85.7780 C   0  0  0  0  0  0  0  0  0  0  0  0
   -0.5420   62.5925   85.8719 C   0  0  0  0  0  0  0  0  0  0  0  0
   -1.2897   63.5170   86.8520 C   0  0  0  0  0  0  0  0  0  0  0  0
   -0.4310   63.7500   88.0971 C   0  0  0  0  0  0  0  0  0  0  0  0
   -2.6505   62.9519   87.2623 C   0  0  0  0  0  0  0  0  0  0  0  0
 23 24  1  0  0  0
 24 22  1  0  0  0
 22 21  1  0  0  0
 21 20  1  0  0  0
 20 14  1  0  0  0
 14 15  2  0  0  0
 15 16  1  0  0  0
 16 17  2  0  0  0
 17 18  1  0  0  0
 18 19  2  0  0  0
 19  1  1  0  0  0
  1  2  2  0  0  0
  2  3  1  0  0  0
  3  4  1  0  0  0
  4  5  2  0  0  0
  4  6  1  0  0  0
  6  7  1  0  0  0
  6  8  1  0  0  0
  8  9  2  0  0  0
  8 10  1  0  0  0
 10 25  1  0  0  0
 25 26  1  0  0  0
 26 27  1  0  0  0
 26 28  1  0  0  0
 10 11  1  0  0  0
 11 12  1  0  0  0
 19 14  1  0  0  0
 12  1  1  0  0  0
 11  3  2  0  0  0
 12 13  1  0  0  0
M  END
> <minimizedAffinity>
-8.73160

$$$$



 28 30  0  0  0  0  0  0  0  0999 V2000
    1.4302   66.3120   83.8035 C   0  0  0  0  0  0  0  0  0  0  0  0
    1.3085   66.0207   85.0923 N   0  0  0  0  0  0  0  0  0  0  0  0
    0.5852   64.8523   85.1483 C   0  0  0  0  0  0  0  0  0  0  0  0
    0.1595   64.0940   86.3029 C   0  0  0  0  0  0  0  0  0  0  0  0
    0.4175   64.4322   87.4554 O   0  0  0  0  0  0  0  0  0  0  0  0
   -0.5744   62.9425   85.9640 N   0  0  0  0  0  0  0  0  0  0  0  0
   -1.0524   62.1100   87.0497 C   0  0  0  0  0  0  0  0  0  0  0  0
   -0.9055   62.5084   84.6626 C   0  0  0  0  0  0  0  0  0  0  0  0
   -1.5634   61.4804   84.4757 O   0  0  0  0  0  0  0  0  0  0  0  0
   -0.4569   63.2928   83.5841 N   0  0  0  0  0  0  0  0  0  0  0  0
    0.2652   64.4247   83.8923 C   0  0  0  0  0  0  0  0  0  0  0  0
    0.8000   65.3446   83.0465 N   0  0  0  0  0  0  0  0  0  0  0  0
    0.7601   65.3637   82.0373 H   0  0  0  0  0  0  0  0  0  0  0  0
    3.3751   67.9505   83.6919 C   0  0  0  0  0  0  0  0  0  0  0  0
    3.9577   69.0713   83.0825 C   0  0  0  0  0  0  0  0  0  0  0  0
    3.3165   69.7232   82.0264 C   0  0  0  0  0  0  0  0  0  0  0  0
    2.0882   69.2646   81.5666 C   0  0  0  0  0  0  0  0  0  0  0  0
    1.4983   68.1515   82.1641 C   0  0  0  0  0  0  0  0  0  0  0  0
    2.1236   67.4782   83.2293 C   0  0  0  0  0  0  0  0  0  0  0  0
    3.9553   67.2637   84.7332 O   0  0  0  0  0  0  0  0  0  0  0  0
    5.3068   67.5778   85.0763 C   0  0  0  0  0  0  0  0  0  0  0  0
    5.4797   67.2762   86.5633 C   0  0  0  0  0  0  0  0  0  0  0  0
    5.5792   65.4903   88.3328 C   0  0  0  0  0  0  0  0  0  0  0  0
    5.4682   65.7768   86.8438 C   0  0  0  0  0  0  0  0  0  0  0  0
   -0.7865   62.8753   82.2219 C   0  0  0  0  0  0  0  0  0  0  0  0
    0.4331   62.3911   81.4141 C   0  0  0  0  0  0  0  0  0  0  0  0
   -0.0022   62.0269   79.9929 C   0  0  0  0  0  0  0  0  0  0  0  0
    1.1238   61.1917   82.0653 C   0  0  0  0  0  0  0  0  0  0  0  0
 23 24  1  0  0  0
 24 22  1  0  0  0
 22 21  1  0  0  0
 21 20  1  0  0  0
 20 14  1  0  0  0
 14 15  2  0  0  0
 15 16  1  0  0  0
 16 17  2  0  0  0
 17 18  1  0  0  0
 18 19  2  0  0  0
 19  1  1  0  0  0
  1  2  2  0  0  0
  2  3  1  0  0  0
  3  4  1  0  0  0
  4  5  2  0  0  0
  4  6  1  0  0  0
  6  7  1  0  0  0
  6  8  1  0  0  0
  8  9  2  0  0  0
  8 10  1  0  0  0
 10 25  1  0  0  0
 25 26  1  0  0  0
 26 27  1  0  0  0
 26 28  1  0  0  0
 10 11  1  0  0  0
 11 12  1  0  0  0
 19 14  1  0  0  0
 12  1  1  0  0  0
 11  3  2  0  0  0
 12 13  1  0  0  0
M  END
> <minimizedAffinity>
-8.62710

$$$$



 28 30  0  0  0  0  0  0  0  0999 V2000
    1.0034   65.0161   85.0608 C   0  0  0  0  0  0  0  0  0  0  0  0
    0.5425   65.5765   83.9499 N   0  0  0  0  0  0  0  0  0  0  0  0
    1.4904   66.4979   83.5707 C   0  0  0  0  0  0  0  0  0  0  0  0
    1.4940   67.3932   82.4360 C   0  0  0  0  0  0  0  0  0  0  0  0
    0.5804   67.4344   81.6157 O   0  0  0  0  0  0  0  0  0  0  0  0
    2.6439   68.2019   82.3776 N   0  0  0  0  0  0  0  0  0  0  0  0
    2.7473   69.1397   81.2776 C   0  0  0  0  0  0  0  0  0  0  0  0
    3.7192   68.2028   83.2916 C   0  0  0  0  0  0  0  0  0  0  0  0
    4.6825   68.9622   83.1501 O   0  0  0  0  0  0  0  0  0  0  0  0
    3.6521   67.3040   84.3720 N   0  0  0  0  0  0  0  0  0  0  0  0
    2.5355   66.5010   84.4485 C   0  0  0  0  0  0  0  0  0  0  0  0
    2.2277   65.5655   85.3854 N   0  0  0  0  0  0  0  0  0  0  0  0
    2.7637   65.2939   86.1975 H   0  0  0  0  0  0  0  0  0  0  0  0
   -0.4847   62.9638   85.2912 C   0  0  0  0  0  0  0  0  0  0  0  0
   -1.0750   62.0057   86.1282 C   0  0  0  0  0  0  0  0  0  0  0  0
   -0.8561   62.0316   87.5077 C   0  0  0  0  0  0  0  0  0  0  0  0
   -0.0464   63.0125   88.0671 C   0  0  0  0  0  0  0  0  0  0  0  0
    0.5461   63.9707   87.2458 C   0  0  0  0  0  0  0  0  0  0  0  0
    0.3407   63.9664   85.8541 C   0  0  0  0  0  0  0  0  0  0  0  0
   -0.6588   62.9918   83.9268 O   0  0  0  0  0  0  0  0  0  0  0  0
   -0.3364   61.8148   83.1829 C   0  0  0  0  0  0  0  0  0  0  0  0
    0.9453   62.1056   82.4054 C   0  0  0  0  0  0  0  0  0  0  0  0
    2.7163   60.3712   81.9741 C   0  0  0  0  0  0  0  0  0  0  0  0
    1.3665   60.9212   81.5412 C   0  0  0  0  0  0  0  0  0  0  0  0
    4.7469   67.2819   85.3413 C   0  0  0  0  0  0  0  0  0  0  0  0
    5.6397   66.0307   85.2334 C   0  0  0  0  0  0  0  0  0  0  0  0
    5.9036   65.4643   86.6303 C   0  0  0  0  0  0  0  0  0  0  0  0
    6.9692   66.3226   84.5357 C   0  0  0  0  0  0  0  0  0  0  0  0
 23 24  1  0  0  0
 24 22  1  0  0  0
 22 21  1  0  0  0
 21 20  1  0  0  0
 20 14  1  0  0  0
 14 15  2  0  0  0
 15 16  1  0  0  0
 16 17  2  0  0  0
 17 18  1  0  0  0
 18 19  2  0  0  0
 19  1  1  0  0  0
  1  2  2  0  0  0
  2  3  1  0  0  0
  3  4  1  0  0  0
  4  5  2  0  0  0
  4  6  1  0  0  0
  6  7  1  0  0  0
  6  8  1  0  0  0
  8  9  2  0  0  0
  8 10  1  0  0  0
 10 25  1  0  0  0
 25 26  1  0  0  0
 26 27  1  0  0  0
 26 28  1  0  0  0
 10 11  1  0  0  0
 11 12  1  0  0  0
 19 14  1  0  0  0
 12  1  1  0  0  0
 11  3  2  0  0  0
 12 13  1  0  0  0
M  END
> <minimizedAffinity>
-8.58803

$$$$



 28 30  0  0  0  0  0  0  0  0999 V2000
   -1.9029   61.7669   82.8102 C   0  0  0  0  0  0  0  0  0  0  0  0
   -2.4974   61.4961   83.9651 N   0  0  0  0  0  0  0  0  0  0  0  0
   -1.7872   62.1795   84.9243 C   0  0  0  0  0  0  0  0  0  0  0  0
   -1.9968   62.2330   86.3534 C   0  0  0  0  0  0  0  0  0  0  0  0
   -2.9055   61.6286   86.9177 O   0  0  0  0  0  0  0  0  0  0  0  0
   -1.0560   63.0418   87.0169 N   0  0  0  0  0  0  0  0  0  0  0  0
   -1.1742   63.1626   88.4563 C   0  0  0  0  0  0  0  0  0  0  0  0
    0.0093   63.7527   86.4242 C   0  0  0  0  0  0  0  0  0  0  0  0
    0.7857   64.4316   87.1030 O   0  0  0  0  0  0  0  0  0  0  0  0
    0.1536   63.6584   85.0277 N   0  0  0  0  0  0  0  0  0  0  0  0
   -0.7575   62.8728   84.3569 C   0  0  0  0  0  0  0  0  0  0  0  0
   -0.8333   62.6131   83.0248 N   0  0  0  0  0  0  0  0  0  0  0  0
   -0.2303   62.9488   82.2871 H   0  0  0  0  0  0  0  0  0  0  0  0
   -2.0383   61.9554   80.2753 C   0  0  0  0  0  0  0  0  0  0  0  0
   -2.4506   61.3954   79.0573 C   0  0  0  0  0  0  0  0  0  0  0  0
   -3.1089   60.1636   79.0250 C   0  0  0  0  0  0  0  0  0  0  0  0
   -3.3627   59.4773   80.2061 C   0  0  0  0  0  0  0  0  0  0  0  0
   -2.9581   60.0234   81.4234 C   0  0  0  0  0  0  0  0  0  0  0  0
   -2.2942   61.2623   81.4825 C   0  0  0  0  0  0  0  0  0  0  0  0
   -1.3848   63.1619   80.3746 O   0  0  0  0  0  0  0  0  0  0  0  0
   -0.1455   63.3153   79.6794 C   0  0  0  0  0  0  0  0  0  0  0  0
   -0.3130   64.4778   78.7035 C   0  0  0  0  0  0  0  0  0  0  0  0
   -1.3109   64.8737   76.4280 C   0  0  0  0  0  0  0  0  0  0  0  0
   -0.3834   63.9993   77.2568 C   0  0  0  0  0  0  0  0  0  0  0  0
    1.2500   64.3781   84.3808 C   0  0  0  0  0  0  0  0  0  0  0  0
    0.8597   65.7872   83.8947 C   0  0  0  0  0  0  0  0  0  0  0  0
    0.6761   65.7754   82.3755 C   0  0  0  0  0  0  0  0  0  0  0  0
    1.8958   66.8441   84.2808 C   0  0  0  0  0  0  0  0  0  0  0  0
 23 24  1  0  0  0
 24 22  1  0  0  0
 22 21  1  0  0  0
 21 20  1  0  0  0
 20 14  1  0  0  0
 14 15  2  0  0  0
 15 16  1  0  0  0
 16 17  2  0  0  0
 17 18  1  0  0  0
 18 19  2  0  0  0
 19  1  1  0  0  0
  1  2  2  0  0  0
  2  3  1  0  0  0
  3  4  1  0  0  0
  4  5  2  0  0  0
  4  6  1  0  0  0
  6  7  1  0  0  0
  6  8  1  0  0  0
  8  9  2  0  0  0
  8 10  1  0  0  0
 10 25  1  0  0  0
 25 26  1  0  0  0
 26 27  1  0  0  0
 26 28  1  0  0  0
 10 11  1  0  0  0
 11 12  1  0  0  0
 19 14  1  0  0  0
 12  1  1  0  0  0
 11  3  2  0  0  0
 12 13  1  0  0  0
M  END
> <minimizedAffinity>
-8.55100

$$$$



 28 30  0  0  0  0  0  0  0  0999 V2000
    0.9247   65.3685   84.0860 C   0  0  0  0  0  0  0  0  0  0  0  0
    1.5026   65.1617   85.2623 N   0  0  0  0  0  0  0  0  0  0  0  0
    0.7284   64.2228   85.9031 C   0  0  0  0  0  0  0  0  0  0  0  0
    0.8960   63.6394   87.2149 C   0  0  0  0  0  0  0  0  0  0  0  0
    1.8227   63.9374   87.9643 O   0  0  0  0  0  0  0  0  0  0  0  0
   -0.1077   62.7064   87.5337 N   0  0  0  0  0  0  0  0  0  0  0  0
   -0.0355   62.0626   88.8300 C   0  0  0  0  0  0  0  0  0  0  0  0
   -1.1962   62.3298   86.7182 C   0  0  0  0  0  0  0  0  0  0  0  0
   -2.0287   61.5014   87.0994 O   0  0  0  0  0  0  0  0  0  0  0  0
   -1.2971   62.9350   85.4520 N   0  0  0  0  0  0  0  0  0  0  0  0
   -0.3242   63.8511   85.1179 C   0  0  0  0  0  0  0  0  0  0  0  0
   -0.1977   64.5725   83.9728 N   0  0  0  0  0  0  0  0  0  0  0  0
   -0.7991   64.5678   83.1611 H   0  0  0  0  0  0  0  0  0  0  0  0
    1.2102   66.0548   81.6514 C   0  0  0  0  0  0  0  0  0  0  0  0
    1.6791   66.9968   80.7242 C   0  0  0  0  0  0  0  0  0  0  0  0
    2.3098   68.1672   81.1531 C   0  0  0  0  0  0  0  0  0  0  0  0
    2.4795   68.4107   82.5104 C   0  0  0  0  0  0  0  0  0  0  0  0
    2.0180   67.4820   83.4423 C   0  0  0  0  0  0  0  0  0  0  0  0
    1.3803   66.2958   83.0357 C   0  0  0  0  0  0  0  0  0  0  0  0
    0.5798   64.8853   81.2943 O   0  0  0  0  0  0  0  0  0  0  0  0
   -0.0766   64.8349   80.0256 C   0  0  0  0  0  0  0  0  0  0  0  0
    0.5186   63.6601   79.2526 C   0  0  0  0  0  0  0  0  0  0  0  0
    0.6660   61.5361   80.5933 C   0  0  0  0  0  0  0  0  0  0  0  0
   -0.1639   62.3428   79.6072 C   0  0  0  0  0  0  0  0  0  0  0  0
   -2.4157   62.5720   84.5828 C   0  0  0  0  0  0  0  0  0  0  0  0
   -1.9868   62.1991   83.1505 C   0  0  0  0  0  0  0  0  0  0  0  0
   -2.5889   63.1952   82.1569 C   0  0  0  0  0  0  0  0  0  0  0  0
   -2.4015   60.7768   82.7703 C   0  0  0  0  0  0  0  0  0  0  0  0
 23 24  1  0  0  0
 24 22  1  0  0  0
 22 21  1  0  0  0
 21 20  1  0  0  0
 20 14  1  0  0  0
 14 15  2  0  0  0
 15 16  1  0  0  0
 16 17  2  0  0  0
 17 18  1  0  0  0
 18 19  2  0  0  0
 19  1  1  0  0  0
  1  2  2  0  0  0
  2  3  1  0  0  0
  3  4  1  0  0  0
  4  5  2  0  0  0
  4  6  1  0  0  0
  6  7  1  0  0  0
  6  8  1  0  0  0
  8  9  2  0  0  0
  8 10  1  0  0  0
 10 25  1  0  0  0
 25 26  1  0  0  0
 26 27  1  0  0  0
 26 28  1  0  0  0
 10 11  1  0  0  0
 11 12  1  0  0  0
 19 14  1  0  0  0
 12  1  1  0  0  0
 11  3  2  0  0  0
 12 13  1  0  0  0
M  END
> <minimizedAffinity>
-8.54568

$$$$



 28 30  0  0  0  0  0  0  0  0999 V2000
   -1.0651   63.0762   82.9079 C   0  0  0  0  0  0  0  0  0  0  0  0
   -0.9796   62.0585   82.0609 N   0  0  0  0  0  0  0  0  0  0  0  0
   -0.7536   62.6153   80.8238 C   0  0  0  0  0  0  0  0  0  0  0  0
   -0.5872   61.9646   79.5439 C   0  0  0  0  0  0  0  0  0  0  0  0
   -0.6298   60.7447   79.4051 O   0  0  0  0  0  0  0  0  0  0  0  0
   -0.3757   62.8718   78.4895 N   0  0  0  0  0  0  0  0  0  0  0  0
   -0.1989   62.3231   77.1599 C   0  0  0  0  0  0  0  0  0  0  0  0
   -0.3233   64.2787   78.5877 C   0  0  0  0  0  0  0  0  0  0  0  0
   -0.1378   64.9861   77.5928 O   0  0  0  0  0  0  0  0  0  0  0  0
   -0.4905   64.8458   79.8644 N   0  0  0  0  0  0  0  0  0  0  0  0
   -0.6976   63.9761   80.9124 C   0  0  0  0  0  0  0  0  0  0  0  0
   -0.8922   64.2644   82.2264 N   0  0  0  0  0  0  0  0  0  0  0  0
   -0.9230   65.1717   82.6696 H   0  0  0  0  0  0  0  0  0  0  0  0
   -0.3898   63.4563   85.3326 C   0  0  0  0  0  0  0  0  0  0  0  0
   -0.7066   63.3318   86.6931 C   0  0  0  0  0  0  0  0  0  0  0  0
   -1.9145   62.7562   87.0947 C   0  0  0  0  0  0  0  0  0  0  0  0
   -2.8191   62.2990   86.1443 C   0  0  0  0  0  0  0  0  0  0  0  0
   -2.5159   62.4168   84.7886 C   0  0  0  0  0  0  0  0  0  0  0  0
   -1.3061   62.9920   84.3589 C   0  0  0  0  0  0  0  0  0  0  0  0
    0.7803   64.0146   84.8725 O   0  0  0  0  0  0  0  0  0  0  0  0
    1.1635   65.2925   85.3855 C   0  0  0  0  0  0  0  0  0  0  0  0
    1.3623   66.2211   84.1896 C   0  0  0  0  0  0  0  0  0  0  0  0
    2.8626   68.2403   84.1424 C   0  0  0  0  0  0  0  0  0  0  0  0
    2.7998   66.7220   84.0923 C   0  0  0  0  0  0  0  0  0  0  0  0
   -0.4471   66.3010   80.0020 C   0  0  0  0  0  0  0  0  0  0  0  0
    0.7928   66.8111   80.7615 C   0  0  0  0  0  0  0  0  0  0  0  0
    0.6168   68.2935   81.0981 C   0  0  0  0  0  0  0  0  0  0  0  0
    2.0847   66.6124   79.9671 C   0  0  0  0  0  0  0  0  0  0  0  0
 23 24  1  0  0  0
 24 22  1  0  0  0
 22 21  1  0  0  0
 21 20  1  0  0  0
 20 14  1  0  0  0
 14 15  2  0  0  0
 15 16  1  0  0  0
 16 17  2  0  0  0
 17 18  1  0  0  0
 18 19  2  0  0  0
 19  1  1  0  0  0
  1  2  2  0  0  0
  2  3  1  0  0  0
  3  4  1  0  0  0
  4  5  2  0  0  0
  4  6  1  0  0  0
  6  7  1  0  0  0
  6  8  1  0  0  0
  8  9  2  0  0  0
  8 10  1  0  0  0
 10 25  1  0  0  0
 25 26  1  0  0  0
 26 27  1  0  0  0
 26 28  1  0  0  0
 10 11  1  0  0  0
 11 12  1  0  0  0
 19 14  1  0  0  0
 12  1  1  0  0  0
 11  3  2  0  0  0
 12 13  1  0  0  0
M  END
> <minimizedAffinity>
-8.46417

$$$$
