
     RDKit          3D

 45 47  0  0  0  0  0  0  0  0999 V2000
    3.0902   -0.4128   -5.1467 C   0  0  0  0  0  0  0  0  0  0  0  0
    2.1381   -0.3085   -3.9692 C   0  0  0  0  0  0  0  0  0  0  0  0
    2.8814   -0.0933   -2.6542 C   0  0  0  0  0  0  0  0  0  0  0  0
    1.9025   -0.0089   -1.6140 O   0  0  0  0  0  0  0  0  0  0  0  0
    2.3286    0.1911   -0.3254 C   0  0  0  0  0  0  0  0  0  0  0  0
    3.6832    0.3082    0.0238 C   0  0  0  0  0  0  0  0  0  0  0  0
    4.0681    0.5115    1.3523 C   0  0  0  0  0  0  0  0  0  0  0  0
    3.0931    0.5995    2.3479 C   0  0  0  0  0  0  0  0  0  0  0  0
    3.4952    0.8129    3.7446 N   0  0  0  0  0  0  0  0  0  0  0  0
    2.6014    0.8834    4.5987 O   0  0  0  0  0  0  0  0  0  0  0  0
    4.7072    0.9096    3.9837 O   0  0  0  0  0  0  0  0  0  0  0  0
    1.7381    0.4852    2.0216 C   0  0  0  0  0  0  0  0  0  0  0  0
    1.3415    0.2802    0.6848 C   0  0  0  0  0  0  0  0  0  0  0  0
   -0.1396    0.1697    0.4335 C   0  0  0  0  0  0  0  0  0  0  0  0
   -0.9817    0.2761    1.4281 N   0  0  0  0  0  0  0  0  0  0  0  0
   -2.2827    0.1567    1.0645 C   0  0  0  0  0  0  0  0  0  0  0  0
   -2.7874   -0.0583   -0.1933 C   0  0  0  0  0  0  0  0  0  0  0  0
   -4.1851   -0.1119   -0.0479 C   0  0  0  0  0  0  0  0  0  0  0  0
   -5.2037   -0.3250   -1.1029 C   0  0  0  0  0  0  0  0  0  0  0  0
   -4.5469    0.0593    1.2349 N   0  0  0  0  0  0  0  0  0  0  0  0
   -3.3702    0.2211    1.8899 N   0  0  0  0  0  0  0  0  0  0  0  0
   -3.3646    0.4362    3.3223 C   0  0  0  0  0  0  0  0  0  0  0  0
   -3.2833   -0.8675    4.0957 C   0  0  0  0  0  0  0  0  0  0  0  0
   -1.8699   -0.1740   -1.2861 C   0  0  0  0  0  0  0  0  0  0  0  0
   -2.1923   -0.3642   -2.4528 O   0  0  0  0  0  0  0  0  0  0  0  0
   -0.5549   -0.0469   -0.8792 N   0  0  0  0  0  0  0  0  0  0  0  0
    3.7782   -1.2550   -5.0214 H   0  0  0  0  0  0  0  0  0  0  0  0
    2.5307   -0.5666   -6.0747 H   0  0  0  0  0  0  0  0  0  0  0  0
    3.6822    0.5016   -5.2546 H   0  0  0  0  0  0  0  0  0  0  0  0
    1.4331    0.5157   -4.1318 H   0  0  0  0  0  0  0  0  0  0  0  0
    1.5278   -1.2173   -3.9017 H   0  0  0  0  0  0  0  0  0  0  0  0
    3.5517   -0.9412   -2.4704 H   0  0  0  0  0  0  0  0  0  0  0  0
    3.4545    0.8399   -2.7069 H   0  0  0  0  0  0  0  0  0  0  0  0
    4.4751    0.2457   -0.7176 H   0  0  0  0  0  0  0  0  0  0  0  0
    5.1275    0.5981    1.5891 H   0  0  0  0  0  0  0  0  0  0  0  0
    0.9840    0.5548    2.8050 H   0  0  0  0  0  0  0  0  0  0  0  0
   -6.2181   -0.3164   -0.6908 H   0  0  0  0  0  0  0  0  0  0  0  0
   -5.1399    0.4634   -1.8596 H   0  0  0  0  0  0  0  0  0  0  0  0
   -5.0471   -1.2902   -1.5949 H   0  0  0  0  0  0  0  0  0  0  0  0
   -2.5143    1.0826    3.5643 H   0  0  0  0  0  0  0  0  0  0  0  0
   -4.2791    0.9816    3.5807 H   0  0  0  0  0  0  0  0  0  0  0  0
   -3.2862   -0.6717    5.1723 H   0  0  0  0  0  0  0  0  0  0  0  0
   -4.1335   -1.5177    3.8638 H   0  0  0  0  0  0  0  0  0  0  0  0
   -2.3675   -1.4159    3.8506 H   0  0  0  0  0  0  0  0  0  0  0  0
    0.1346   -0.1210   -1.6154 H   0  0  0  0  0  0  0  0  0  0  0  0
  1  2  1  0
  2  3  1  0
  3  4  1  0
  4  5  1  0
  5  6  1  0
  6  7  2  0
  7  8  1  0
  8  9  1  0
  9 10  2  0
  9 11  1  0
  8 12  2  0
 12 13  1  0
 13 14  1  0
 14 15  2  0
 15 16  1  0
 16 17  2  0
 17 18  1  0
 18 19  1  0
 18 20  2  0
 20 21  1  0
 21 22  1  0
 22 23  1  0
 17 24  1  0
 24 25  2  0
 24 26  1  0
 13  5  2  0
 26 14  1  0
 21 16  1  0
  1 27  1  0
  1 28  1  0
  1 29  1  0
  2 30  1  0
  2 31  1  0
  3 32  1  0
  3 33  1  0
  6 34  1  0
  7 35  1  0
 12 36  1  0
 19 37  1  0
 19 38  1  0
 19 39  1  0
 22 40  1  0
 22 41  1  0
 23 42  1  0
 23 43  1  0
 23 44  1  0
 26 45  1  0
M  CHG  2   9   1  11  -1
M  END
$$$$
