
     RDKit          3D

 64 67  0  0  0  0  0  0  0  0999 V2000
   -3.2500   -4.3266    1.6192 C   0  0  0  0  0  0  0  0  0  0  0  0
   -3.7357   -2.9774    1.1162 C   0  0  0  0  0  0  0  0  0  0  0  0
   -3.3304   -2.7443   -0.3396 C   0  0  0  0  0  0  0  0  0  0  0  0
   -3.7955   -1.4512   -0.8297 N   0  0  0  0  0  0  0  0  0  0  0  0
   -5.0653   -1.3390   -1.4048 C   0  0  0  0  0  0  0  0  0  0  0  0
   -5.8105   -2.3160   -1.5275 O   0  0  0  0  0  0  0  0  0  0  0  0
   -5.4664   -0.0578   -1.8404 N   0  0  0  0  0  0  0  0  0  0  0  0
   -6.7801    0.0336   -2.4456 C   0  0  0  0  0  0  0  0  0  0  0  0
   -4.7272    1.1187   -1.6931 C   0  0  0  0  0  0  0  0  0  0  0  0
   -5.0985    2.2329   -2.0472 O   0  0  0  0  0  0  0  0  0  0  0  0
   -3.4738    0.8977   -1.0722 C   0  0  0  0  0  0  0  0  0  0  0  0
   -2.4784    1.7658   -0.7460 N   0  0  0  0  0  0  0  0  0  0  0  0
   -1.4654    1.0428   -0.1456 C   0  0  0  0  0  0  0  0  0  0  0  0
   -0.2111    1.6296    0.3561 C   0  0  0  0  0  0  0  0  0  0  0  0
    0.6787    0.7760    1.0336 C   0  0  0  0  0  0  0  0  0  0  0  0
    1.8964    1.2588    1.5139 C   0  0  0  0  0  0  0  0  0  0  0  0
    3.0067    0.1764    2.3782 S   0  0  0  0  0  0  0  0  0  0  0  0
    2.3013   -1.0389    2.7224 O   0  0  0  0  0  0  0  0  0  0  0  0
    3.6674    0.9658    3.3968 O   0  0  0  0  0  0  0  0  0  0  0  0
    4.1613   -0.2075    1.1816 N   0  0  0  0  0  0  0  0  0  0  0  0
    3.6118   -0.8881   -0.0401 C   0  0  0  0  0  0  0  0  0  0  0  0
    4.7290   -1.5941   -0.8301 C   0  0  0  0  0  0  0  0  0  0  0  0
    5.3617   -2.6917   -0.0715 N   0  0  0  0  0  0  0  0  0  0  0  0
    6.6890   -2.9889   -0.6028 C   0  0  0  0  0  0  0  0  0  0  0  0
    5.3959   -2.4002    1.3765 C   0  0  0  0  0  0  0  0  0  0  0  0
    5.3785   -0.9013    1.7262 C   0  0  0  0  0  0  0  0  0  0  0  0
    2.2386    2.5998    1.3537 C   0  0  0  0  0  0  0  0  0  0  0  0
    1.3619    3.4617    0.6915 C   0  0  0  0  0  0  0  0  0  0  0  0
    0.1391    2.9918    0.1880 C   0  0  0  0  0  0  0  0  0  0  0  0
   -0.7633    3.7882   -0.4761 O   0  0  0  0  0  0  0  0  0  0  0  0
   -0.4483    5.1718   -0.6388 C   0  0  0  0  0  0  0  0  0  0  0  0
   -1.6011    5.8244   -1.3807 C   0  0  0  0  0  0  0  0  0  0  0  0
   -1.8008   -0.2416   -0.0949 N   0  0  0  0  0  0  0  0  0  0  0  0
   -3.0344   -0.3190   -0.6644 C   0  0  0  0  0  0  0  0  0  0  0  0
   -2.1587   -4.3949    1.5665 H   0  0  0  0  0  0  0  0  0  0  0  0
   -3.6749   -5.1426    1.0260 H   0  0  0  0  0  0  0  0  0  0  0  0
   -3.5495   -4.4728    2.6617 H   0  0  0  0  0  0  0  0  0  0  0  0
   -4.8263   -2.9246    1.2151 H   0  0  0  0  0  0  0  0  0  0  0  0
   -3.3230   -2.1852    1.7520 H   0  0  0  0  0  0  0  0  0  0  0  0
   -2.2409   -2.7999   -0.4529 H   0  0  0  0  0  0  0  0  0  0  0  0
   -3.7526   -3.5356   -0.9706 H   0  0  0  0  0  0  0  0  0  0  0  0
   -6.8562   -0.6966   -3.2580 H   0  0  0  0  0  0  0  0  0  0  0  0
   -6.9880    1.0293   -2.8453 H   0  0  0  0  0  0  0  0  0  0  0  0
   -7.5325   -0.2111   -1.6888 H   0  0  0  0  0  0  0  0  0  0  0  0
   -2.4618    2.7656   -0.9056 H   0  0  0  0  0  0  0  0  0  0  0  0
    0.4134   -0.2712    1.1810 H   0  0  0  0  0  0  0  0  0  0  0  0
    3.1571   -0.1274   -0.6837 H   0  0  0  0  0  0  0  0  0  0  0  0
    2.8401   -1.6173    0.2314 H   0  0  0  0  0  0  0  0  0  0  0  0
    5.4746   -0.8389   -1.1150 H   0  0  0  0  0  0  0  0  0  0  0  0
    4.3112   -2.0033   -1.7571 H   0  0  0  0  0  0  0  0  0  0  0  0
    7.3848   -2.1529   -0.4696 H   0  0  0  0  0  0  0  0  0  0  0  0
    7.1113   -3.8710   -0.1090 H   0  0  0  0  0  0  0  0  0  0  0  0
    6.6319   -3.2252   -1.6712 H   0  0  0  0  0  0  0  0  0  0  0  0
    6.2576   -2.8807    1.8562 H   0  0  0  0  0  0  0  0  0  0  0  0
    4.5102   -2.8703    1.8229 H   0  0  0  0  0  0  0  0  0  0  0  0
    6.2610   -0.4011    1.3090 H   0  0  0  0  0  0  0  0  0  0  0  0
    5.4475   -0.7858    2.8130 H   0  0  0  0  0  0  0  0  0  0  0  0
    3.1821    2.9787    1.7427 H   0  0  0  0  0  0  0  0  0  0  0  0
    1.6668    4.4985    0.5877 H   0  0  0  0  0  0  0  0  0  0  0  0
   -0.3338    5.6537    0.3388 H   0  0  0  0  0  0  0  0  0  0  0  0
    0.4675    5.2859   -1.2297 H   0  0  0  0  0  0  0  0  0  0  0  0
   -2.5352    5.7068   -0.8212 H   0  0  0  0  0  0  0  0  0  0  0  0
   -1.4127    6.8906   -1.5343 H   0  0  0  0  0  0  0  0  0  0  0  0
   -1.7517    5.3473   -2.3549 H   0  0  0  0  0  0  0  0  0  0  0  0
  1  2  1  0
  2  3  1  0
  3  4  1  0
  4  5  1  0
  5  6  2  0
  5  7  1  0
  7  8  1  0
  7  9  1  0
  9 10  2  0
  9 11  1  0
 11 12  1  0
 12 13  1  0
 13 14  1  0
 14 15  1  0
 15 16  2  0
 16 17  1  0
 17 18  2  0
 17 19  2  0
 17 20  1  0
 20 21  1  0
 21 22  1  0
 22 23  1  0
 23 24  1  0
 23 25  1  0
 25 26  1  0
 16 27  1  0
 27 28  2  0
 28 29  1  0
 29 30  1  0
 30 31  1  0
 31 32  1  0
 13 33  2  0
 33 34  1  0
 34  4  1  0
 34 11  2  0
 29 14  2  0
 26 20  1  0
  1 35  1  0
  1 36  1  0
  1 37  1  0
  2 38  1  0
  2 39  1  0
  3 40  1  0
  3 41  1  0
  8 42  1  0
  8 43  1  0
  8 44  1  0
 12 45  1  0
 15 46  1  0
 21 47  1  0
 21 48  1  0
 22 49  1  0
 22 50  1  0
 24 51  1  0
 24 52  1  0
 24 53  1  0
 25 54  1  0
 25 55  1  0
 26 56  1  0
 26 57  1  0
 27 58  1  0
 28 59  1  0
 31 60  1  0
 31 61  1  0
 32 62  1  0
 32 63  1  0
 32 64  1  0
M  END
$$$$
