


 36 40  0  0  0  0  0  0  0  0999 V2000
    0.9327   65.5959   84.9980 N   0  0  0  0  0  0  0  0  0  0  0  0
    0.3497   66.3490   85.3339 H   0  0  0  0  0  0  0  0  0  0  0  0
    2.2263   66.0821   84.8212 C   0  0  0  0  0  0  0  0  0  0  0  0
    2.2946   67.2963   84.2587 N   0  0  0  0  0  0  0  0  0  0  0  0
    3.5070   67.8433   84.0629 C   0  0  0  0  0  0  0  0  0  0  0  0
    4.6889   67.1675   84.4031 C   0  0  0  0  0  0  0  0  0  0  0  0
    6.0046   67.6528   84.1841 C   0  0  0  0  0  0  0  0  0  0  0  0
    7.1151   66.9061   84.5702 C   0  0  0  0  0  0  0  0  0  0  0  0
    6.9263   65.6705   85.1729 C   0  0  0  0  0  0  0  0  0  0  0  0
    5.6295   65.1902   85.3764 C   0  0  0  0  0  0  0  0  0  0  0  0
    4.5066   65.9164   84.9962 C   0  0  0  0  0  0  0  0  0  0  0  0
    3.2995   65.3881   85.2100 N   0  0  0  0  0  0  0  0  0  0  0  0
    3.5886   69.1210   83.4717 N   0  0  0  0  0  0  0  0  0  0  0  0
    3.1232   69.7996   84.0660 H   0  0  0  0  0  0  0  0  0  0  0  0
    3.1041   69.2065   82.0968 C   0  0  0  0  0  0  0  0  0  0  0  0
    1.9038   70.1060   81.9658 C   0  0  0  0  0  0  0  0  0  0  0  0
    0.6297   69.7757   81.5439 C   0  0  0  0  0  0  0  0  0  0  0  0
   -0.2519   70.8950   81.5548 C   0  0  0  0  0  0  0  0  0  0  0  0
    0.3763   72.0412   81.9869 C   0  0  0  0  0  0  0  0  0  0  0  0
    2.0182   71.7662   82.3765 S   0  0  0  0  0  0  0  0  0  0  0  0
   -0.9311   63.1416   82.9545 C   0  0  0  0  0  0  0  0  0  0  0  0
   -1.1100   62.0758   83.8337 C   0  0  0  0  0  0  0  0  0  0  0  0
   -0.6065   62.1810   85.1256 C   0  0  0  0  0  0  0  0  0  0  0  0
    0.0748   63.3387   85.5250 C   0  0  0  0  0  0  0  0  0  0  0  0
    0.2852   64.4073   84.6446 C   0  0  0  0  0  0  0  0  0  0  0  0
   -0.2398   64.2943   83.3492 C   0  0  0  0  0  0  0  0  0  0  0  0
   -1.5768   63.0591   81.3041 S   0  0  0  0  0  0  0  0  0  0  0  0
   -0.8997   64.0518   80.4988 O   0  0  0  0  0  0  0  0  0  0  0  0
   -3.0197   63.0447   81.4186 O   0  0  0  0  0  0  0  0  0  0  0  0
   -1.0967   59.3181   77.7735 C   0  0  0  0  0  0  0  0  0  0  0  0
   -1.5683   60.6884   77.9559 N   0  0  0  0  0  0  0  0  0  0  0  0
   -0.4715   61.6047   78.3272 C   0  0  0  0  0  0  0  0  0  0  0  0
    0.0363   61.4719   79.7790 C   0  0  0  0  0  0  0  0  0  0  0  0
   -1.0685   61.5167   80.7866 N   0  0  0  0  0  0  0  0  0  0  0  0
   -2.1764   60.5821   80.4212 C   0  0  0  0  0  0  0  0  0  0  0  0
   -2.6429   60.7760   78.9660 C   0  0  0  0  0  0  0  0  0  0  0  0
 30 31  1  0  0  0
 31 32  1  0  0  0
 32 33  1  0  0  0
 33 34  1  0  0  0
 34 27  1  0  0  0
 27 28  2  0  0  0
 27 29  2  0  0  0
 27 21  1  0  0  0
 21 22  2  0  0  0
 22 23  1  0  0  0
 23 24  2  0  0  0
 24 25  1  0  0  0
 25  1  1  0  0  0
  1  3  1  0  0  0
  3  4  2  0  0  0
  4  5  1  0  0  0
  5 13  1  0  0  0
 13 15  1  0  0  0
 15 16  1  0  0  0
 16 17  2  0  0  0
 17 18  1  0  0  0
 18 19  2  0  0  0
 19 20  1  0  0  0
  5  6  2  0  0  0
  6  7  1  0  0  0
  7  8  2  0  0  0
  8  9  1  0  0  0
  9 10  2  0  0  0
 10 11  1  0  0  0
 11 12  2  0  0  0
 25 26  2  0  0  0
 34 35  1  0  0  0
 35 36  1  0  0  0
 36 31  1  0  0  0
 26 21  1  0  0  0
 12  3  1  0  0  0
 20 16  1  0  0  0
 11  6  1  0  0  0
  1  2  1  0  0  0
 13 14  1  0  0  0
M  END
> <minimizedAffinity>
-10.46491

$$$$



 36 40  0  0  0  0  0  0  0  0999 V2000
    0.7701   65.6465   84.5097 N   0  0  0  0  0  0  0  0  0  0  0  0
    0.1233   66.4066   84.3555 H   0  0  0  0  0  0  0  0  0  0  0  0
    2.0623   66.1656   84.5492 C   0  0  0  0  0  0  0  0  0  0  0  0
    2.1580   67.4538   84.1930 N   0  0  0  0  0  0  0  0  0  0  0  0
    3.3700   68.0353   84.2146 C   0  0  0  0  0  0  0  0  0  0  0  0
    4.5269   67.3245   84.5691 C   0  0  0  0  0  0  0  0  0  0  0  0
    5.8456   67.8495   84.5694 C   0  0  0  0  0  0  0  0  0  0  0  0
    6.9286   67.0609   84.9503 C   0  0  0  0  0  0  0  0  0  0  0  0
    6.7095   65.7443   85.3298 C   0  0  0  0  0  0  0  0  0  0  0  0
    5.4112   65.2267   85.3172 C   0  0  0  0  0  0  0  0  0  0  0  0
    4.3158   65.9941   84.9375 C   0  0  0  0  0  0  0  0  0  0  0  0
    3.1067   65.4284   84.9371 N   0  0  0  0  0  0  0  0  0  0  0  0
    3.4802   69.3907   83.8416 N   0  0  0  0  0  0  0  0  0  0  0  0
    2.8598   69.9518   84.4166 H   0  0  0  0  0  0  0  0  0  0  0  0
    3.2758   69.6678   82.4225 C   0  0  0  0  0  0  0  0  0  0  0  0
    1.9929   70.4116   82.1616 C   0  0  0  0  0  0  0  0  0  0  0  0
    0.8076   69.9184   81.6497 C   0  0  0  0  0  0  0  0  0  0  0  0
   -0.1982   70.9226   81.5480 C   0  0  0  0  0  0  0  0  0  0  0  0
    0.2507   72.1474   81.9878 C   0  0  0  0  0  0  0  0  0  0  0  0
    1.8745   72.0837   82.5195 S   0  0  0  0  0  0  0  0  0  0  0  0
   -0.2773   62.3920   83.1013 C   0  0  0  0  0  0  0  0  0  0  0  0
   -0.8526   61.7494   84.1954 C   0  0  0  0  0  0  0  0  0  0  0  0
   -0.8955   62.4138   85.4163 C   0  0  0  0  0  0  0  0  0  0  0  0
   -0.3597   63.7031   85.5369 C   0  0  0  0  0  0  0  0  0  0  0  0
    0.2452   64.3512   84.4527 C   0  0  0  0  0  0  0  0  0  0  0  0
    0.2693   63.6759   83.2239 C   0  0  0  0  0  0  0  0  0  0  0  0
   -0.2215   61.5903   81.5196 S   0  0  0  0  0  0  0  0  0  0  0  0
   -1.2289   60.5526   81.4979 O   0  0  0  0  0  0  0  0  0  0  0  0
    1.1687   61.2904   81.2503 O   0  0  0  0  0  0  0  0  0  0  0  0
   -0.8708   63.6410   76.8223 C   0  0  0  0  0  0  0  0  0  0  0  0
   -0.4393   62.4262   77.5090 N   0  0  0  0  0  0  0  0  0  0  0  0
   -1.5334   61.8158   78.2905 C   0  0  0  0  0  0  0  0  0  0  0  0
   -1.9019   62.5520   79.5964 C   0  0  0  0  0  0  0  0  0  0  0  0
   -0.7130   62.8318   80.4602 N   0  0  0  0  0  0  0  0  0  0  0  0
    0.3935   63.4605   79.6759 C   0  0  0  0  0  0  0  0  0  0  0  0
    0.7182   62.6700   78.3943 C   0  0  0  0  0  0  0  0  0  0  0  0
 30 31  1  0  0  0
 31 32  1  0  0  0
 32 33  1  0  0  0
 33 34  1  0  0  0
 34 27  1  0  0  0
 27 28  2  0  0  0
 27 29  2  0  0  0
 27 21  1  0  0  0
 21 22  2  0  0  0
 22 23  1  0  0  0
 23 24  2  0  0  0
 24 25  1  0  0  0
 25  1  1  0  0  0
  1  3  1  0  0  0
  3  4  2  0  0  0
  4  5  1  0  0  0
  5 13  1  0  0  0
 13 15  1  0  0  0
 15 16  1  0  0  0
 16 17  2  0  0  0
 17 18  1  0  0  0
 18 19  2  0  0  0
 19 20  1  0  0  0
  5  6  2  0  0  0
  6  7  1  0  0  0
  7  8  2  0  0  0
  8  9  1  0  0  0
  9 10  2  0  0  0
 10 11  1  0  0  0
 11 12  2  0  0  0
 25 26  2  0  0  0
 34 35  1  0  0  0
 35 36  1  0  0  0
 36 31  1  0  0  0
 26 21  1  0  0  0
 12  3  1  0  0  0
 20 16  1  0  0  0
 11  6  1  0  0  0
  1  2  1  0  0  0
 13 14  1  0  0  0
M  END
> <minimizedAffinity>
-10.35397

$$$$



 36 40  0  0  0  0  0  0  0  0999 V2000
   -1.3252   62.4848   82.8946 N   0  0  0  0  0  0  0  0  0  0  0  0
   -2.3264   62.3642   82.9499 H   0  0  0  0  0  0  0  0  0  0  0  0
   -0.8459   62.7980   84.1647 C   0  0  0  0  0  0  0  0  0  0  0  0
   -0.1482   63.9400   84.2325 N   0  0  0  0  0  0  0  0  0  0  0  0
    0.3406   64.3212   85.4255 C   0  0  0  0  0  0  0  0  0  0  0  0
    0.1639   63.5450   86.5813 C   0  0  0  0  0  0  0  0  0  0  0  0
    0.6884   63.8510   87.8641 C   0  0  0  0  0  0  0  0  0  0  0  0
    0.4452   63.0173   88.9530 C   0  0  0  0  0  0  0  0  0  0  0  0
   -0.3176   61.8720   88.7741 C   0  0  0  0  0  0  0  0  0  0  0  0
   -0.8229   61.5673   87.5070 C   0  0  0  0  0  0  0  0  0  0  0  0
   -0.5900   62.3827   86.4053 C   0  0  0  0  0  0  0  0  0  0  0  0
   -1.0933   62.0211   85.2229 N   0  0  0  0  0  0  0  0  0  0  0  0
    1.0759   65.5217   85.5064 N   0  0  0  0  0  0  0  0  0  0  0  0
    0.5011   66.2431   85.9299 H   0  0  0  0  0  0  0  0  0  0  0  0
    1.6591   65.9842   84.2501 C   0  0  0  0  0  0  0  0  0  0  0  0
    3.0642   66.4967   84.4236 C   0  0  0  0  0  0  0  0  0  0  0  0
    4.1713   65.8149   84.8923 C   0  0  0  0  0  0  0  0  0  0  0  0
    5.3408   66.6288   84.9120 C   0  0  0  0  0  0  0  0  0  0  0  0
    5.0891   67.9029   84.4554 C   0  0  0  0  0  0  0  0  0  0  0  0
    3.4528   68.1133   84.0064 S   0  0  0  0  0  0  0  0  0  0  0  0
    0.0755   63.7990   79.7349 C   0  0  0  0  0  0  0  0  0  0  0  0
    0.3189   62.6427   78.9970 C   0  0  0  0  0  0  0  0  0  0  0  0
    0.0062   61.4102   79.5601 C   0  0  0  0  0  0  0  0  0  0  0  0
   -0.5358   61.3414   80.8506 C   0  0  0  0  0  0  0  0  0  0  0  0
   -0.7614   62.4934   81.6144 C   0  0  0  0  0  0  0  0  0  0  0  0
   -0.4549   63.7305   81.0296 C   0  0  0  0  0  0  0  0  0  0  0  0
    0.4383   65.3935   79.0466 S   0  0  0  0  0  0  0  0  0  0  0  0
   -0.6732   65.7942   78.2121 O   0  0  0  0  0  0  0  0  0  0  0  0
    1.7846   65.3261   78.5193 O   0  0  0  0  0  0  0  0  0  0  0  0
    0.9572   69.9566   81.4131 C   0  0  0  0  0  0  0  0  0  0  0  0
    0.9322   69.3291   80.0943 N   0  0  0  0  0  0  0  0  0  0  0  0
   -0.3742   68.7046   79.8050 C   0  0  0  0  0  0  0  0  0  0  0  0
   -0.6561   67.3859   80.5565 C   0  0  0  0  0  0  0  0  0  0  0  0
    0.4565   66.3944   80.4261 N   0  0  0  0  0  0  0  0  0  0  0  0
    1.7803   67.0190   80.7293 C   0  0  0  0  0  0  0  0  0  0  0  0
    2.0019   68.3220   79.9382 C   0  0  0  0  0  0  0  0  0  0  0  0
 30 31  1  0  0  0
 31 32  1  0  0  0
 32 33  1  0  0  0
 33 34  1  0  0  0
 34 27  1  0  0  0
 27 28  2  0  0  0
 27 29  2  0  0  0
 27 21  1  0  0  0
 21 22  2  0  0  0
 22 23  1  0  0  0
 23 24  2  0  0  0
 24 25  1  0  0  0
 25  1  1  0  0  0
  1  3  1  0  0  0
  3  4  2  0  0  0
  4  5  1  0  0  0
  5 13  1  0  0  0
 13 15  1  0  0  0
 15 16  1  0  0  0
 16 17  2  0  0  0
 17 18  1  0  0  0
 18 19  2  0  0  0
 19 20  1  0  0  0
  5  6  2  0  0  0
  6  7  1  0  0  0
  7  8  2  0  0  0
  8  9  1  0  0  0
  9 10  2  0  0  0
 10 11  1  0  0  0
 11 12  2  0  0  0
 25 26  2  0  0  0
 34 35  1  0  0  0
 35 36  1  0  0  0
 36 31  1  0  0  0
 26 21  1  0  0  0
 12  3  1  0  0  0
 20 16  1  0  0  0
 11  6  1  0  0  0
  1  2  1  0  0  0
 13 14  1  0  0  0
M  END
> <minimizedAffinity>
-10.25014

$$$$



 36 40  0  0  0  0  0  0  0  0999 V2000
    0.5612   64.3967   85.0318 N   0  0  0  0  0  0  0  0  0  0  0  0
    1.1369   64.3923   85.8615 H   0  0  0  0  0  0  0  0  0  0  0  0
    0.9564   65.4608   84.2241 C   0  0  0  0  0  0  0  0  0  0  0  0
    1.6879   66.3941   84.8480 N   0  0  0  0  0  0  0  0  0  0  0  0
    2.1195   67.4500   84.1365 C   0  0  0  0  0  0  0  0  0  0  0  0
    1.8006   67.6096   82.7792 C   0  0  0  0  0  0  0  0  0  0  0  0
    2.1740   68.7160   81.9724 C   0  0  0  0  0  0  0  0  0  0  0  0
    1.8153   68.7734   80.6279 C   0  0  0  0  0  0  0  0  0  0  0  0
    1.0799   67.7337   80.0765 C   0  0  0  0  0  0  0  0  0  0  0  0
    0.7036   66.6512   80.8766 C   0  0  0  0  0  0  0  0  0  0  0  0
    1.0473   66.5743   82.2215 C   0  0  0  0  0  0  0  0  0  0  0  0
    0.6415   65.5162   82.9270 N   0  0  0  0  0  0  0  0  0  0  0  0
    2.8902   68.4371   84.7848 N   0  0  0  0  0  0  0  0  0  0  0  0
    2.4895   69.3521   84.6046 H   0  0  0  0  0  0  0  0  0  0  0  0
    4.3176   68.4184   84.4777 C   0  0  0  0  0  0  0  0  0  0  0  0
    5.0297   67.2615   85.1271 C   0  0  0  0  0  0  0  0  0  0  0  0
    5.3986   66.0568   84.5589 C   0  0  0  0  0  0  0  0  0  0  0  0
    6.0646   65.2025   85.4846 C   0  0  0  0  0  0  0  0  0  0  0  0
    6.1848   65.7834   86.7269 C   0  0  0  0  0  0  0  0  0  0  0  0
    5.4984   67.3487   86.7736 S   0  0  0  0  0  0  0  0  0  0  0  0
   -1.7845   61.8165   83.8015 C   0  0  0  0  0  0  0  0  0  0  0  0
   -2.7236   61.7344   84.8273 C   0  0  0  0  0  0  0  0  0  0  0  0
   -2.5737   62.5546   85.9402 C   0  0  0  0  0  0  0  0  0  0  0  0
   -1.4898   63.4389   86.0239 C   0  0  0  0  0  0  0  0  0  0  0  0
   -0.5237   63.5138   85.0129 C   0  0  0  0  0  0  0  0  0  0  0  0
   -0.6941   62.6915   83.8898 C   0  0  0  0  0  0  0  0  0  0  0  0
   -1.9494   60.8049   82.3534 S   0  0  0  0  0  0  0  0  0  0  0  0
   -2.8567   59.7197   82.6554 O   0  0  0  0  0  0  0  0  0  0  0  0
   -0.6105   60.5485   81.8665 O   0  0  0  0  0  0  0  0  0  0  0  0
   -3.5057   62.1852   77.6243 C   0  0  0  0  0  0  0  0  0  0  0  0
   -2.8500   61.1088   78.3625 N   0  0  0  0  0  0  0  0  0  0  0  0
   -3.7442   60.5074   79.3719 C   0  0  0  0  0  0  0  0  0  0  0  0
   -3.9902   61.3664   80.6309 C   0  0  0  0  0  0  0  0  0  0  0  0
   -2.7224   61.8557   81.2564 N   0  0  0  0  0  0  0  0  0  0  0  0
   -1.8184   62.4759   80.2402 C   0  0  0  0  0  0  0  0  0  0  0  0
   -1.6061   61.5626   79.0181 C   0  0  0  0  0  0  0  0  0  0  0  0
 30 31  1  0  0  0
 31 32  1  0  0  0
 32 33  1  0  0  0
 33 34  1  0  0  0
 34 27  1  0  0  0
 27 28  2  0  0  0
 27 29  2  0  0  0
 27 21  1  0  0  0
 21 22  2  0  0  0
 22 23  1  0  0  0
 23 24  2  0  0  0
 24 25  1  0  0  0
 25  1  1  0  0  0
  1  3  1  0  0  0
  3  4  2  0  0  0
  4  5  1  0  0  0
  5 13  1  0  0  0
 13 15  1  0  0  0
 15 16  1  0  0  0
 16 17  2  0  0  0
 17 18  1  0  0  0
 18 19  2  0  0  0
 19 20  1  0  0  0
  5  6  2  0  0  0
  6  7  1  0  0  0
  7  8  2  0  0  0
  8  9  1  0  0  0
  9 10  2  0  0  0
 10 11  1  0  0  0
 11 12  2  0  0  0
 25 26  2  0  0  0
 34 35  1  0  0  0
 35 36  1  0  0  0
 36 31  1  0  0  0
 26 21  1  0  0  0
 12  3  1  0  0  0
 20 16  1  0  0  0
 11  6  1  0  0  0
  1  2  1  0  0  0
 13 14  1  0  0  0
M  END
> <minimizedAffinity>
-10.17907

$$$$



 36 40  0  0  0  0  0  0  0  0999 V2000
    1.3793   66.4412   82.7609 N   0  0  0  0  0  0  0  0  0  0  0  0
    1.0897   67.3976   82.9076 H   0  0  0  0  0  0  0  0  0  0  0  0
    2.1882   66.0548   83.8274 C   0  0  0  0  0  0  0  0  0  0  0  0
    1.5653   65.3309   84.7672 N   0  0  0  0  0  0  0  0  0  0  0  0
    2.2780   64.9080   85.8259 C   0  0  0  0  0  0  0  0  0  0  0  0
    3.6354   65.2284   85.9815 C   0  0  0  0  0  0  0  0  0  0  0  0
    4.4435   64.8641   87.0900 C   0  0  0  0  0  0  0  0  0  0  0  0
    5.7880   65.2236   87.1430 C   0  0  0  0  0  0  0  0  0  0  0  0
    6.3381   65.9506   86.0969 C   0  0  0  0  0  0  0  0  0  0  0  0
    5.5368   66.3180   85.0121 C   0  0  0  0  0  0  0  0  0  0  0  0
    4.1919   65.9734   84.9395 C   0  0  0  0  0  0  0  0  0  0  0  0
    3.4853   66.3704   83.8788 N   0  0  0  0  0  0  0  0  0  0  0  0
    1.6309   64.1453   86.8199 N   0  0  0  0  0  0  0  0  0  0  0  0
    1.6500   63.1643   86.5601 H   0  0  0  0  0  0  0  0  0  0  0  0
    0.2757   64.5742   87.1545 C   0  0  0  0  0  0  0  0  0  0  0  0
   -0.7711   63.6201   86.6439 C   0  0  0  0  0  0  0  0  0  0  0  0
   -0.9193   63.1179   85.3648 C   0  0  0  0  0  0  0  0  0  0  0  0
   -2.0290   62.2307   85.2561 C   0  0  0  0  0  0  0  0  0  0  0  0
   -2.6891   62.0824   86.4551 C   0  0  0  0  0  0  0  0  0  0  0  0
   -1.9730   63.0079   87.7017 S   0  0  0  0  0  0  0  0  0  0  0  0
    0.1057   64.0027   80.2903 C   0  0  0  0  0  0  0  0  0  0  0  0
    0.4490   64.5848   79.0721 C   0  0  0  0  0  0  0  0  0  0  0  0
    1.1184   65.8037   79.0769 C   0  0  0  0  0  0  0  0  0  0  0  0
    1.4307   66.4321   80.2899 C   0  0  0  0  0  0  0  0  0  0  0  0
    1.0688   65.8720   81.5214 C   0  0  0  0  0  0  0  0  0  0  0  0
    0.4067   64.6360   81.5030 C   0  0  0  0  0  0  0  0  0  0  0  0
   -0.7289   62.4376   80.3312 S   0  0  0  0  0  0  0  0  0  0  0  0
   -1.8554   62.5443   81.2323 O   0  0  0  0  0  0  0  0  0  0  0  0
    0.2880   61.4250   80.5201 O   0  0  0  0  0  0  0  0  0  0  0  0
   -2.9431   59.8275   76.4613 C   0  0  0  0  0  0  0  0  0  0  0  0
   -2.5592   59.7165   77.8662 N   0  0  0  0  0  0  0  0  0  0  0  0
   -3.2815   60.6859   78.7140 C   0  0  0  0  0  0  0  0  0  0  0  0
   -2.8103   62.1508   78.5896 C   0  0  0  0  0  0  0  0  0  0  0  0
   -1.3294   62.2989   78.7421 N   0  0  0  0  0  0  0  0  0  0  0  0
   -0.5934   61.3272   77.8770 C   0  0  0  0  0  0  0  0  0  0  0  0
   -1.1042   59.8854   78.0593 C   0  0  0  0  0  0  0  0  0  0  0  0
 30 31  1  0  0  0
 31 32  1  0  0  0
 32 33  1  0  0  0
 33 34  1  0  0  0
 34 27  1  0  0  0
 27 28  2  0  0  0
 27 29  2  0  0  0
 27 21  1  0  0  0
 21 22  2  0  0  0
 22 23  1  0  0  0
 23 24  2  0  0  0
 24 25  1  0  0  0
 25  1  1  0  0  0
  1  3  1  0  0  0
  3  4  2  0  0  0
  4  5  1  0  0  0
  5 13  1  0  0  0
 13 15  1  0  0  0
 15 16  1  0  0  0
 16 17  2  0  0  0
 17 18  1  0  0  0
 18 19  2  0  0  0
 19 20  1  0  0  0
  5  6  2  0  0  0
  6  7  1  0  0  0
  7  8  2  0  0  0
  8  9  1  0  0  0
  9 10  2  0  0  0
 10 11  1  0  0  0
 11 12  2  0  0  0
 25 26  2  0  0  0
 34 35  1  0  0  0
 35 36  1  0  0  0
 36 31  1  0  0  0
 26 21  1  0  0  0
 12  3  1  0  0  0
 20 16  1  0  0  0
 11  6  1  0  0  0
  1  2  1  0  0  0
 13 14  1  0  0  0
M  END
> <minimizedAffinity>
-10.06069

$$$$



 36 40  0  0  0  0  0  0  0  0999 V2000
    0.9458   65.4759   83.7266 N   0  0  0  0  0  0  0  0  0  0  0  0
    0.3209   65.3700   84.5128 H   0  0  0  0  0  0  0  0  0  0  0  0
    2.1252   66.0670   84.1747 C   0  0  0  0  0  0  0  0  0  0  0  0
    2.2462   67.3678   83.8770 N   0  0  0  0  0  0  0  0  0  0  0  0
    3.3512   68.0170   84.2834 C   0  0  0  0  0  0  0  0  0  0  0  0
    4.3811   67.3643   84.9781 C   0  0  0  0  0  0  0  0  0  0  0  0
    5.5974   67.9638   85.3973 C   0  0  0  0  0  0  0  0  0  0  0  0
    6.5538   67.2285   86.0932 C   0  0  0  0  0  0  0  0  0  0  0  0
    6.3103   65.8916   86.3741 C   0  0  0  0  0  0  0  0  0  0  0  0
    5.1167   65.3010   85.9496 C   0  0  0  0  0  0  0  0  0  0  0  0
    4.1494   66.0143   85.2507 C   0  0  0  0  0  0  0  0  0  0  0  0
    3.0396   65.3805   84.8655 N   0  0  0  0  0  0  0  0  0  0  0  0
    3.4871   69.3862   83.9748 N   0  0  0  0  0  0  0  0  0  0  0  0
    2.8488   69.9278   84.5488 H   0  0  0  0  0  0  0  0  0  0  0  0
    3.3417   69.7268   82.5622 C   0  0  0  0  0  0  0  0  0  0  0  0
    2.0785   70.4976   82.2844 C   0  0  0  0  0  0  0  0  0  0  0  0
    0.8744   70.0206   81.8019 C   0  0  0  0  0  0  0  0  0  0  0  0
   -0.1027   71.0495   81.6709 C   0  0  0  0  0  0  0  0  0  0  0  0
    0.3860   72.2762   82.0600 C   0  0  0  0  0  0  0  0  0  0  0  0
    2.0123   72.1848   82.5795 S   0  0  0  0  0  0  0  0  0  0  0  0
   -0.4148   63.5290   80.8927 C   0  0  0  0  0  0  0  0  0  0  0  0
   -0.5908   64.4964   79.9058 C   0  0  0  0  0  0  0  0  0  0  0  0
   -0.2457   65.8134   80.1893 C   0  0  0  0  0  0  0  0  0  0  0  0
    0.2614   66.1538   81.4506 C   0  0  0  0  0  0  0  0  0  0  0  0
    0.4191   65.1971   82.4611 C   0  0  0  0  0  0  0  0  0  0  0  0
    0.0806   63.8705   82.1577 C   0  0  0  0  0  0  0  0  0  0  0  0
   -0.8208   61.8330   80.5667 S   0  0  0  0  0  0  0  0  0  0  0  0
   -1.8567   61.4258   81.4904 O   0  0  0  0  0  0  0  0  0  0  0  0
    0.4311   61.1115   80.4796 O   0  0  0  0  0  0  0  0  0  0  0  0
   -3.1025   59.7362   76.4328 C   0  0  0  0  0  0  0  0  0  0  0  0
   -2.6360   59.4282   77.7823 N   0  0  0  0  0  0  0  0  0  0  0  0
   -3.3612   60.2049   78.8076 C   0  0  0  0  0  0  0  0  0  0  0  0
   -2.9769   61.6972   78.8993 C   0  0  0  0  0  0  0  0  0  0  0  0
   -1.5000   61.9106   79.0053 N   0  0  0  0  0  0  0  0  0  0  0  0
   -0.7619   61.1353   77.9620 C   0  0  0  0  0  0  0  0  0  0  0  0
   -1.1837   59.6541   77.9329 C   0  0  0  0  0  0  0  0  0  0  0  0
 30 31  1  0  0  0
 31 32  1  0  0  0
 32 33  1  0  0  0
 33 34  1  0  0  0
 34 27  1  0  0  0
 27 28  2  0  0  0
 27 29  2  0  0  0
 27 21  1  0  0  0
 21 22  2  0  0  0
 22 23  1  0  0  0
 23 24  2  0  0  0
 24 25  1  0  0  0
 25  1  1  0  0  0
  1  3  1  0  0  0
  3  4  2  0  0  0
  4  5  1  0  0  0
  5 13  1  0  0  0
 13 15  1  0  0  0
 15 16  1  0  0  0
 16 17  2  0  0  0
 17 18  1  0  0  0
 18 19  2  0  0  0
 19 20  1  0  0  0
  5  6  2  0  0  0
  6  7  1  0  0  0
  7  8  2  0  0  0
  8  9  1  0  0  0
  9 10  2  0  0  0
 10 11  1  0  0  0
 11 12  2  0  0  0
 25 26  2  0  0  0
 34 35  1  0  0  0
 35 36  1  0  0  0
 36 31  1  0  0  0
 26 21  1  0  0  0
 12  3  1  0  0  0
 20 16  1  0  0  0
 11  6  1  0  0  0
  1  2  1  0  0  0
 13 14  1  0  0  0
M  END
> <minimizedAffinity>
-9.99987

$$$$



 36 40  0  0  0  0  0  0  0  0999 V2000
    0.9537   65.5652   81.7210 N   0  0  0  0  0  0  0  0  0  0  0  0
    1.6071   65.2650   81.0119 H   0  0  0  0  0  0  0  0  0  0  0  0
    1.1219   66.9326   81.9280 C   0  0  0  0  0  0  0  0  0  0  0  0
    2.0085   67.2482   82.8818 N   0  0  0  0  0  0  0  0  0  0  0  0
    2.2382   68.5481   83.1367 C   0  0  0  0  0  0  0  0  0  0  0  0
    1.5574   69.5688   82.4555 C   0  0  0  0  0  0  0  0  0  0  0  0
    1.7054   70.9592   82.6989 C   0  0  0  0  0  0  0  0  0  0  0  0
    0.9887   71.8949   81.9568 C   0  0  0  0  0  0  0  0  0  0  0  0
    0.1171   71.4555   80.9704 C   0  0  0  0  0  0  0  0  0  0  0  0
   -0.0352   70.0851   80.7411 C   0  0  0  0  0  0  0  0  0  0  0  0
    0.6670   69.1333   81.4717 C   0  0  0  0  0  0  0  0  0  0  0  0
    0.4604   67.8415   81.2062 N   0  0  0  0  0  0  0  0  0  0  0  0
    3.1699   68.8898   84.1387 N   0  0  0  0  0  0  0  0  0  0  0  0
    3.2242   69.9000   84.2204 H   0  0  0  0  0  0  0  0  0  0  0  0
    4.4980   68.3026   83.9847 C   0  0  0  0  0  0  0  0  0  0  0  0
    4.7994   67.2779   85.0460 C   0  0  0  0  0  0  0  0  0  0  0  0
    4.5827   65.9135   85.0032 C   0  0  0  0  0  0  0  0  0  0  0  0
    5.0014   65.2606   86.1985 C   0  0  0  0  0  0  0  0  0  0  0  0
    5.5262   66.1464   87.1123 C   0  0  0  0  0  0  0  0  0  0  0  0
    5.5130   67.7539   86.5300 S   0  0  0  0  0  0  0  0  0  0  0  0
   -1.4333   62.7975   82.2828 C   0  0  0  0  0  0  0  0  0  0  0  0
   -1.3038   62.5462   83.6469 C   0  0  0  0  0  0  0  0  0  0  0  0
   -0.4123   63.3142   84.3881 C   0  0  0  0  0  0  0  0  0  0  0  0
    0.3443   64.3153   83.7642 C   0  0  0  0  0  0  0  0  0  0  0  0
    0.2442   64.5618   82.3893 C   0  0  0  0  0  0  0  0  0  0  0  0
   -0.6685   63.7898   81.6560 C   0  0  0  0  0  0  0  0  0  0  0  0
   -2.5751   61.8569   81.3033 S   0  0  0  0  0  0  0  0  0  0  0  0
   -3.7905   62.6268   81.1538 O   0  0  0  0  0  0  0  0  0  0  0  0
   -2.5989   60.5194   81.8562 O   0  0  0  0  0  0  0  0  0  0  0  0
   -2.1572   60.2598   76.4078 C   0  0  0  0  0  0  0  0  0  0  0  0
   -3.0331   60.2064   77.5755 N   0  0  0  0  0  0  0  0  0  0  0  0
   -3.5263   61.5449   77.9572 C   0  0  0  0  0  0  0  0  0  0  0  0
   -2.4889   62.4595   78.6431 C   0  0  0  0  0  0  0  0  0  0  0  0
   -1.7955   61.7930   79.7890 N   0  0  0  0  0  0  0  0  0  0  0  0
   -1.2841   60.4421   79.4043 C   0  0  0  0  0  0  0  0  0  0  0  0
   -2.3715   59.5783   78.7377 C   0  0  0  0  0  0  0  0  0  0  0  0
 30 31  1  0  0  0
 31 32  1  0  0  0
 32 33  1  0  0  0
 33 34  1  0  0  0
 34 27  1  0  0  0
 27 28  2  0  0  0
 27 29  2  0  0  0
 27 21  1  0  0  0
 21 22  2  0  0  0
 22 23  1  0  0  0
 23 24  2  0  0  0
 24 25  1  0  0  0
 25  1  1  0  0  0
  1  3  1  0  0  0
  3  4  2  0  0  0
  4  5  1  0  0  0
  5 13  1  0  0  0
 13 15  1  0  0  0
 15 16  1  0  0  0
 16 17  2  0  0  0
 17 18  1  0  0  0
 18 19  2  0  0  0
 19 20  1  0  0  0
  5  6  2  0  0  0
  6  7  1  0  0  0
  7  8  2  0  0  0
  8  9  1  0  0  0
  9 10  2  0  0  0
 10 11  1  0  0  0
 11 12  2  0  0  0
 25 26  2  0  0  0
 34 35  1  0  0  0
 35 36  1  0  0  0
 36 31  1  0  0  0
 26 21  1  0  0  0
 12  3  1  0  0  0
 20 16  1  0  0  0
 11  6  1  0  0  0
  1  2  1  0  0  0
 13 14  1  0  0  0
M  END
> <minimizedAffinity>
-9.96567

$$$$



 36 40  0  0  0  0  0  0  0  0999 V2000
    1.3486   65.1598   83.2611 N   0  0  0  0  0  0  0  0  0  0  0  0
    1.6205   64.6022   82.4642 H   0  0  0  0  0  0  0  0  0  0  0  0
    0.4106   64.4449   84.0027 C   0  0  0  0  0  0  0  0  0  0  0  0
   -0.4857   63.7712   83.2691 N   0  0  0  0  0  0  0  0  0  0  0  0
   -1.4200   63.0458   83.9081 C   0  0  0  0  0  0  0  0  0  0  0  0
   -1.4947   63.0022   85.3088 C   0  0  0  0  0  0  0  0  0  0  0  0
   -2.4771   62.3029   86.0575 C   0  0  0  0  0  0  0  0  0  0  0  0
   -2.4562   62.3140   87.4501 C   0  0  0  0  0  0  0  0  0  0  0  0
   -1.4615   63.0230   88.1085 C   0  0  0  0  0  0  0  0  0  0  0  0
   -0.5024   63.7203   87.3684 C   0  0  0  0  0  0  0  0  0  0  0  0
   -0.5057   63.7262   85.9781 C   0  0  0  0  0  0  0  0  0  0  0  0
    0.4341   64.4257   85.3383 N   0  0  0  0  0  0  0  0  0  0  0  0
   -2.3672   62.3333   83.1442 N   0  0  0  0  0  0  0  0  0  0  0  0
   -3.0772   61.9480   83.7587 H   0  0  0  0  0  0  0  0  0  0  0  0
   -1.8169   61.3043   82.2664 C   0  0  0  0  0  0  0  0  0  0  0  0
   -2.3536   61.3997   80.8628 C   0  0  0  0  0  0  0  0  0  0  0  0
   -3.6189   61.7777   80.4550 C   0  0  0  0  0  0  0  0  0  0  0  0
   -3.7611   61.7539   79.0374 C   0  0  0  0  0  0  0  0  0  0  0  0
   -2.6001   61.3619   78.4100 C   0  0  0  0  0  0  0  0  0  0  0  0
   -1.3487   61.0257   79.5254 S   0  0  0  0  0  0  0  0  0  0  0  0
    1.7962   68.6987   82.2870 C   0  0  0  0  0  0  0  0  0  0  0  0
    2.7278   69.1617   83.2137 C   0  0  0  0  0  0  0  0  0  0  0  0
    3.2155   68.2794   84.1715 C   0  0  0  0  0  0  0  0  0  0  0  0
    2.7663   66.9523   84.2020 C   0  0  0  0  0  0  0  0  0  0  0  0
    1.8109   66.4797   83.2937 C   0  0  0  0  0  0  0  0  0  0  0  0
    1.3376   67.3756   82.3243 C   0  0  0  0  0  0  0  0  0  0  0  0
    1.1644   69.7839   81.0337 S   0  0  0  0  0  0  0  0  0  0  0  0
   -0.0036   69.1681   80.4430 O   0  0  0  0  0  0  0  0  0  0  0  0
    2.2919   70.1856   80.2196 O   0  0  0  0  0  0  0  0  0  0  0  0
   -0.2719   74.7230   81.5163 C   0  0  0  0  0  0  0  0  0  0  0  0
    0.0920   73.7113   80.5276 N   0  0  0  0  0  0  0  0  0  0  0  0
   -0.8601   72.5827   80.5168 C   0  0  0  0  0  0  0  0  0  0  0  0
   -0.7457   71.6114   81.7112 C   0  0  0  0  0  0  0  0  0  0  0  0
    0.6538   71.1344   81.9394 N   0  0  0  0  0  0  0  0  0  0  0  0
    1.6202   72.2746   81.9627 C   0  0  0  0  0  0  0  0  0  0  0  0
    1.4605   73.1958   80.7385 C   0  0  0  0  0  0  0  0  0  0  0  0
 30 31  1  0  0  0
 31 32  1  0  0  0
 32 33  1  0  0  0
 33 34  1  0  0  0
 34 27  1  0  0  0
 27 28  2  0  0  0
 27 29  2  0  0  0
 27 21  1  0  0  0
 21 22  2  0  0  0
 22 23  1  0  0  0
 23 24  2  0  0  0
 24 25  1  0  0  0
 25  1  1  0  0  0
  1  3  1  0  0  0
  3  4  2  0  0  0
  4  5  1  0  0  0
  5 13  1  0  0  0
 13 15  1  0  0  0
 15 16  1  0  0  0
 16 17  2  0  0  0
 17 18  1  0  0  0
 18 19  2  0  0  0
 19 20  1  0  0  0
  5  6  2  0  0  0
  6  7  1  0  0  0
  7  8  2  0  0  0
  8  9  1  0  0  0
  9 10  2  0  0  0
 10 11  1  0  0  0
 11 12  2  0  0  0
 25 26  2  0  0  0
 34 35  1  0  0  0
 35 36  1  0  0  0
 36 31  1  0  0  0
 26 21  1  0  0  0
 12  3  1  0  0  0
 20 16  1  0  0  0
 11  6  1  0  0  0
  1  2  1  0  0  0
 13 14  1  0  0  0
M  END
> <minimizedAffinity>
-9.92400

$$$$



 36 40  0  0  0  0  0  0  0  0999 V2000
   -0.3671   66.6893   79.7585 N   0  0  0  0  0  0  0  0  0  0  0  0
   -1.1011   67.0778   79.1838 H   0  0  0  0  0  0  0  0  0  0  0  0
    0.2207   67.7227   80.4847 C   0  0  0  0  0  0  0  0  0  0  0  0
    1.3153   67.3699   81.1724 N   0  0  0  0  0  0  0  0  0  0  0  0
    1.9502   68.3117   81.8916 C   0  0  0  0  0  0  0  0  0  0  0  0
    1.4817   69.6327   81.9610 C   0  0  0  0  0  0  0  0  0  0  0  0
    2.0637   70.6710   82.7342 C   0  0  0  0  0  0  0  0  0  0  0  0
    1.5261   71.9558   82.7253 C   0  0  0  0  0  0  0  0  0  0  0  0
    0.4044   72.2171   81.9512 C   0  0  0  0  0  0  0  0  0  0  0  0
   -0.1734   71.1896   81.2001 C   0  0  0  0  0  0  0  0  0  0  0  0
    0.3438   69.8991   81.1964 C   0  0  0  0  0  0  0  0  0  0  0  0
   -0.2689   68.9655   80.4651 N   0  0  0  0  0  0  0  0  0  0  0  0
    3.1032   67.9496   82.6183 N   0  0  0  0  0  0  0  0  0  0  0  0
    3.8304   67.6543   81.9747 H   0  0  0  0  0  0  0  0  0  0  0  0
    2.8948   66.9560   83.6680 C   0  0  0  0  0  0  0  0  0  0  0  0
    3.9301   67.0461   84.7576 C   0  0  0  0  0  0  0  0  0  0  0  0
    4.3277   68.1623   85.4691 C   0  0  0  0  0  0  0  0  0  0  0  0
    5.3342   67.8611   86.4317 C   0  0  0  0  0  0  0  0  0  0  0  0
    5.6695   66.5259   86.4257 C   0  0  0  0  0  0  0  0  0  0  0  0
    4.7746   65.6439   85.2661 S   0  0  0  0  0  0  0  0  0  0  0  0
    0.0977   63.0824   80.4273 C   0  0  0  0  0  0  0  0  0  0  0  0
    0.6536   62.6140   79.2388 C   0  0  0  0  0  0  0  0  0  0  0  0
    0.8804   63.5152   78.2043 C   0  0  0  0  0  0  0  0  0  0  0  0
    0.5449   64.8669   78.3601 C   0  0  0  0  0  0  0  0  0  0  0  0
   -0.0386   65.3474   79.5390 C   0  0  0  0  0  0  0  0  0  0  0  0
   -0.2491   64.4311   80.5795 C   0  0  0  0  0  0  0  0  0  0  0  0
   -0.1878   61.9718   81.7811 S   0  0  0  0  0  0  0  0  0  0  0  0
    1.0929   61.5731   82.3224 O   0  0  0  0  0  0  0  0  0  0  0  0
   -1.1458   60.9886   81.3219 O   0  0  0  0  0  0  0  0  0  0  0  0
   -2.6740   62.8089   86.2319 C   0  0  0  0  0  0  0  0  0  0  0  0
   -2.0130   61.7675   85.4495 N   0  0  0  0  0  0  0  0  0  0  0  0
   -0.5780   62.0534   85.2510 C   0  0  0  0  0  0  0  0  0  0  0  0
   -0.2624   63.1695   84.2321 C   0  0  0  0  0  0  0  0  0  0  0  0
   -0.9598   62.9743   82.9231 N   0  0  0  0  0  0  0  0  0  0  0  0
   -2.4155   62.6959   83.1182 C   0  0  0  0  0  0  0  0  0  0  0  0
   -2.6587   61.5655   84.1361 C   0  0  0  0  0  0  0  0  0  0  0  0
 30 31  1  0  0  0
 31 32  1  0  0  0
 32 33  1  0  0  0
 33 34  1  0  0  0
 34 27  1  0  0  0
 27 28  2  0  0  0
 27 29  2  0  0  0
 27 21  1  0  0  0
 21 22  2  0  0  0
 22 23  1  0  0  0
 23 24  2  0  0  0
 24 25  1  0  0  0
 25  1  1  0  0  0
  1  3  1  0  0  0
  3  4  2  0  0  0
  4  5  1  0  0  0
  5 13  1  0  0  0
 13 15  1  0  0  0
 15 16  1  0  0  0
 16 17  2  0  0  0
 17 18  1  0  0  0
 18 19  2  0  0  0
 19 20  1  0  0  0
  5  6  2  0  0  0
  6  7  1  0  0  0
  7  8  2  0  0  0
  8  9  1  0  0  0
  9 10  2  0  0  0
 10 11  1  0  0  0
 11 12  2  0  0  0
 25 26  2  0  0  0
 34 35  1  0  0  0
 35 36  1  0  0  0
 36 31  1  0  0  0
 26 21  1  0  0  0
 12  3  1  0  0  0
 20 16  1  0  0  0
 11  6  1  0  0  0
  1  2  1  0  0  0
 13 14  1  0  0  0
M  END
> <minimizedAffinity>
-9.90477

$$$$
