


 35 38  0  0  0  0  0  0  0  0999 V2000
    0.5730   64.2440   83.7021 C   0  0  0  0  0  0  0  0  0  0  0  0
    0.2639   63.4986   82.5536 C   0  0  0  0  0  0  0  0  0  0  0  0
   -0.4749   62.3230   82.6737 C   0  0  0  0  0  0  0  0  0  0  0  0
   -0.8855   61.8689   83.9270 C   0  0  0  0  0  0  0  0  0  0  0  0
   -0.5777   62.6137   85.0705 C   0  0  0  0  0  0  0  0  0  0  0  0
    0.1473   63.8103   84.9726 C   0  0  0  0  0  0  0  0  0  0  0  0
    4.3049   67.2530   84.4228 C   0  0  0  0  0  0  0  0  0  0  0  0
    4.5957   68.4661   83.9830 N   0  0  0  0  0  0  0  0  0  0  0  0
    3.5463   68.8290   83.1616 C   0  0  0  0  0  0  0  0  0  0  0  0
    2.6229   67.8115   83.1165 C   0  0  0  0  0  0  0  0  0  0  0  0
    1.3912   67.5459   82.5082 C   0  0  0  0  0  0  0  0  0  0  0  0
    0.9027   68.5129   81.7224 O   0  0  0  0  0  0  0  0  0  0  0  0
    0.7453   66.4519   82.6796 N   0  0  0  0  0  0  0  0  0  0  0  0
    1.3380   65.5079   83.4970 C   0  0  0  0  0  0  0  0  0  0  0  0
    2.4727   65.6462   84.1244 N   0  0  0  0  0  0  0  0  0  0  0  0
    3.1043   66.8214   83.9084 N   0  0  0  0  0  0  0  0  0  0  0  0
    0.0569   68.1938   81.3675 H   0  0  0  0  0  0  0  0  0  0  0  0
    3.5418   70.1549   82.4882 C   0  0  0  0  0  0  0  0  0  0  0  0
    3.9930   70.0677   81.0390 C   0  0  0  0  0  0  0  0  0  0  0  0
    5.1289   66.4214   85.3451 C   0  0  0  0  0  0  0  0  0  0  0  0
    7.4523   65.7743   84.6153 C   0  0  0  0  0  0  0  0  0  0  0  0
    6.6018   66.8287   85.3058 C   0  0  0  0  0  0  0  0  0  0  0  0
   -0.8683   61.3687   81.2281 S   0  0  0  0  0  0  0  0  0  0  0  0
   -1.6731   60.2495   81.6697 O   0  0  0  0  0  0  0  0  0  0  0  0
    0.3532   61.1555   80.4832 O   0  0  0  0  0  0  0  0  0  0  0  0
   -1.8647   62.4289   80.3484 N   0  0  0  0  0  0  0  0  0  0  0  0
   -1.3765   62.8785   79.0060 C   0  0  0  0  0  0  0  0  0  0  0  0
   -1.6614   61.8488   77.8929 C   0  0  0  0  0  0  0  0  0  0  0  0
   -3.0839   61.4562   77.8338 N   0  0  0  0  0  0  0  0  0  0  0  0
   -3.2906   60.4325   76.8099 C   0  0  0  0  0  0  0  0  0  0  0  0
   -3.5252   60.9632   79.1550 C   0  0  0  0  0  0  0  0  0  0  0  0
   -3.2995   62.0117   80.2600 C   0  0  0  0  0  0  0  0  0  0  0  0
    0.4248   64.6220   86.0394 O   0  0  0  0  0  0  0  0  0  0  0  0
   -0.0134   64.2078   87.3314 C   0  0  0  0  0  0  0  0  0  0  0  0
    1.1783   63.6076   88.0557 C   0  0  0  0  0  0  0  0  0  0  0  0
 21 22  1  0  0  0
 22 20  1  0  0  0
 20  7  1  0  0  0
  7  8  2  0  0  0
  8  9  1  0  0  0
  9 18  1  0  0  0
 18 19  1  0  0  0
  9 10  2  0  0  0
 10 11  1  0  0  0
 11 12  1  0  0  0
 11 13  2  0  0  0
 13 14  1  0  0  0
 14  1  1  0  0  0
  1  2  1  0  0  0
  2  3  2  0  0  0
  3 23  1  0  0  0
 23 24  2  0  0  0
 23 25  2  0  0  0
 23 26  1  0  0  0
 26 27  1  0  0  0
 27 28  1  0  0  0
 28 29  1  0  0  0
 29 30  1  0  0  0
 29 31  1  0  0  0
 31 32  1  0  0  0
  3  4  1  0  0  0
  4  5  2  0  0  0
  5  6  1  0  0  0
  6 33  1  0  0  0
 33 34  1  0  0  0
 34 35  1  0  0  0
 14 15  2  0  0  0
 15 16  1  0  0  0
 16  7  1  0  0  0
 16 10  1  0  0  0
  6  1  2  0  0  0
 32 26  1  0  0  0
 12 17  1  0  0  0
M  END
> <minimizedAffinity>
-9.75953

$$$$



 35 38  0  0  0  0  0  0  0  0999 V2000
    2.0586   66.7191   83.7704 C   0  0  0  0  0  0  0  0  0  0  0  0
    1.3858   67.5359   82.8483 C   0  0  0  0  0  0  0  0  0  0  0  0
    2.0594   68.5993   82.2503 C   0  0  0  0  0  0  0  0  0  0  0  0
    3.3865   68.8734   82.5810 C   0  0  0  0  0  0  0  0  0  0  0  0
    4.0559   68.0575   83.4993 C   0  0  0  0  0  0  0  0  0  0  0  0
    3.4050   66.9696   84.0990 C   0  0  0  0  0  0  0  0  0  0  0  0
   -0.6135   62.6825   83.5126 C   0  0  0  0  0  0  0  0  0  0  0  0
   -1.1858   61.9088   84.4201 N   0  0  0  0  0  0  0  0  0  0  0  0
   -0.8800   62.4747   85.6423 C   0  0  0  0  0  0  0  0  0  0  0  0
   -0.1139   63.5999   85.4507 C   0  0  0  0  0  0  0  0  0  0  0  0
    0.4986   64.5902   86.2264 C   0  0  0  0  0  0  0  0  0  0  0  0
    0.3432   64.4796   87.5511 O   0  0  0  0  0  0  0  0  0  0  0  0
    1.1704   65.5597   85.7241 N   0  0  0  0  0  0  0  0  0  0  0  0
    1.2872   65.5801   84.3470 C   0  0  0  0  0  0  0  0  0  0  0  0
    0.7536   64.7218   83.5230 N   0  0  0  0  0  0  0  0  0  0  0  0
    0.0540   63.7260   84.1109 N   0  0  0  0  0  0  0  0  0  0  0  0
    0.8191   65.2217   87.9584 H   0  0  0  0  0  0  0  0  0  0  0  0
   -1.3724   61.8561   86.9019 C   0  0  0  0  0  0  0  0  0  0  0  0
   -2.6657   62.4899   87.3889 C   0  0  0  0  0  0  0  0  0  0  0  0
   -0.6504   62.4947   82.0346 C   0  0  0  0  0  0  0  0  0  0  0  0
    1.4556   61.1116   82.0724 C   0  0  0  0  0  0  0  0  0  0  0  0
    0.0062   61.1786   81.6179 C   0  0  0  0  0  0  0  0  0  0  0  0
    1.2173   69.6427   81.0852 S   0  0  0  0  0  0  0  0  0  0  0  0
    0.0908   68.8861   80.5813 O   0  0  0  0  0  0  0  0  0  0  0  0
    2.2026   70.1958   80.1820 O   0  0  0  0  0  0  0  0  0  0  0  0
    0.6228   70.8916   82.0738 N   0  0  0  0  0  0  0  0  0  0  0  0
    1.5289   72.0553   82.3331 C   0  0  0  0  0  0  0  0  0  0  0  0
    1.5120   73.0902   81.1889 C   0  0  0  0  0  0  0  0  0  0  0  0
    0.1472   73.5466   80.8569 N   0  0  0  0  0  0  0  0  0  0  0  0
    0.1780   74.4735   79.7260 C   0  0  0  0  0  0  0  0  0  0  0  0
   -0.7115   72.3839   80.5498 C   0  0  0  0  0  0  0  0  0  0  0  0
   -0.7467   71.3770   81.7143 C   0  0  0  0  0  0  0  0  0  0  0  0
    4.0174   66.0919   84.9525 O   0  0  0  0  0  0  0  0  0  0  0  0
    5.1816   66.5318   85.6480 C   0  0  0  0  0  0  0  0  0  0  0  0
    6.3085   65.5674   85.3237 C   0  0  0  0  0  0  0  0  0  0  0  0
 21 22  1  0  0  0
 22 20  1  0  0  0
 20  7  1  0  0  0
  7  8  2  0  0  0
  8  9  1  0  0  0
  9 18  1  0  0  0
 18 19  1  0  0  0
  9 10  2  0  0  0
 10 11  1  0  0  0
 11 12  1  0  0  0
 11 13  2  0  0  0
 13 14  1  0  0  0
 14  1  1  0  0  0
  1  2  1  0  0  0
  2  3  2  0  0  0
  3 23  1  0  0  0
 23 24  2  0  0  0
 23 25  2  0  0  0
 23 26  1  0  0  0
 26 27  1  0  0  0
 27 28  1  0  0  0
 28 29  1  0  0  0
 29 30  1  0  0  0
 29 31  1  0  0  0
 31 32  1  0  0  0
  3  4  1  0  0  0
  4  5  2  0  0  0
  5  6  1  0  0  0
  6 33  1  0  0  0
 33 34  1  0  0  0
 34 35  1  0  0  0
 14 15  2  0  0  0
 15 16  1  0  0  0
 16  7  1  0  0  0
 16 10  1  0  0  0
  6  1  2  0  0  0
 32 26  1  0  0  0
 12 17  1  0  0  0
M  END
> <minimizedAffinity>
-9.42749

$$$$



 35 38  0  0  0  0  0  0  0  0999 V2000
    0.2476   64.2799   84.4944 C   0  0  0  0  0  0  0  0  0  0  0  0
   -0.2395   64.0131   83.2053 C   0  0  0  0  0  0  0  0  0  0  0  0
   -1.3589   63.1984   83.0469 C   0  0  0  0  0  0  0  0  0  0  0  0
   -1.9813   62.6257   84.1561 C   0  0  0  0  0  0  0  0  0  0  0  0
   -1.4954   62.8937   85.4403 C   0  0  0  0  0  0  0  0  0  0  0  0
   -0.3825   63.7267   85.6260 C   0  0  0  0  0  0  0  0  0  0  0  0
    2.8544   68.1952   83.3214 C   0  0  0  0  0  0  0  0  0  0  0  0
    4.0350   68.6524   83.7043 N   0  0  0  0  0  0  0  0  0  0  0  0
    4.5097   67.7400   84.6262 C   0  0  0  0  0  0  0  0  0  0  0  0
    3.5921   66.7293   84.7892 C   0  0  0  0  0  0  0  0  0  0  0  0
    3.4584   65.5504   85.5307 C   0  0  0  0  0  0  0  0  0  0  0  0
    4.4765   65.2495   86.3456 O   0  0  0  0  0  0  0  0  0  0  0  0
    2.4346   64.7830   85.4503 N   0  0  0  0  0  0  0  0  0  0  0  0
    1.4285   65.1857   84.5923 C   0  0  0  0  0  0  0  0  0  0  0  0
    1.4453   66.2540   83.8446 N   0  0  0  0  0  0  0  0  0  0  0  0
    2.5516   67.0202   83.9694 N   0  0  0  0  0  0  0  0  0  0  0  0
    4.2483   64.4194   86.7950 H   0  0  0  0  0  0  0  0  0  0  0  0
    5.8346   67.9417   85.2708 C   0  0  0  0  0  0  0  0  0  0  0  0
    6.9035   67.0293   84.6907 C   0  0  0  0  0  0  0  0  0  0  0  0
    1.9357   68.8267   82.3322 C   0  0  0  0  0  0  0  0  0  0  0  0
    1.9442   67.1918   80.4148 C   0  0  0  0  0  0  0  0  0  0  0  0
    2.3885   68.5640   80.8960 C   0  0  0  0  0  0  0  0  0  0  0  0
   -1.9819   62.8498   81.4204 S   0  0  0  0  0  0  0  0  0  0  0  0
   -1.2465   63.6906   80.4997 O   0  0  0  0  0  0  0  0  0  0  0  0
   -3.4268   62.8941   81.4726 O   0  0  0  0  0  0  0  0  0  0  0  0
   -1.4947   61.2390   81.1782 N   0  0  0  0  0  0  0  0  0  0  0  0
   -2.5712   60.2076   81.0378 C   0  0  0  0  0  0  0  0  0  0  0  0
   -3.1499   60.1409   79.6091 C   0  0  0  0  0  0  0  0  0  0  0  0
   -2.1049   59.9576   78.5817 N   0  0  0  0  0  0  0  0  0  0  0  0
   -2.6950   59.9671   77.2435 C   0  0  0  0  0  0  0  0  0  0  0  0
   -1.0857   61.0203   78.7054 C   0  0  0  0  0  0  0  0  0  0  0  0
   -0.4607   61.0508   80.1124 C   0  0  0  0  0  0  0  0  0  0  0  0
    0.1041   64.0850   86.8543 O   0  0  0  0  0  0  0  0  0  0  0  0
   -0.6047   63.6486   88.0118 C   0  0  0  0  0  0  0  0  0  0  0  0
    0.3440   62.8085   88.8480 C   0  0  0  0  0  0  0  0  0  0  0  0
 21 22  1  0  0  0
 22 20  1  0  0  0
 20  7  1  0  0  0
  7  8  2  0  0  0
  8  9  1  0  0  0
  9 18  1  0  0  0
 18 19  1  0  0  0
  9 10  2  0  0  0
 10 11  1  0  0  0
 11 12  1  0  0  0
 11 13  2  0  0  0
 13 14  1  0  0  0
 14  1  1  0  0  0
  1  2  1  0  0  0
  2  3  2  0  0  0
  3 23  1  0  0  0
 23 24  2  0  0  0
 23 25  2  0  0  0
 23 26  1  0  0  0
 26 27  1  0  0  0
 27 28  1  0  0  0
 28 29  1  0  0  0
 29 30  1  0  0  0
 29 31  1  0  0  0
 31 32  1  0  0  0
  3  4  1  0  0  0
  4  5  2  0  0  0
  5  6  1  0  0  0
  6 33  1  0  0  0
 33 34  1  0  0  0
 34 35  1  0  0  0
 14 15  2  0  0  0
 15 16  1  0  0  0
 16  7  1  0  0  0
 16 10  1  0  0  0
  6  1  2  0  0  0
 32 26  1  0  0  0
 12 17  1  0  0  0
M  END
> <minimizedAffinity>
-9.31825

$$$$



 35 38  0  0  0  0  0  0  0  0999 V2000
    2.0878   67.2700   83.1094 C   0  0  0  0  0  0  0  0  0  0  0  0
    1.5223   68.2403   82.2675 C   0  0  0  0  0  0  0  0  0  0  0  0
    2.1924   69.4438   82.0563 C   0  0  0  0  0  0  0  0  0  0  0  0
    3.4054   69.7013   82.6952 C   0  0  0  0  0  0  0  0  0  0  0  0
    3.9682   68.7324   83.5329 C   0  0  0  0  0  0  0  0  0  0  0  0
    3.3222   67.5058   83.7450 C   0  0  0  0  0  0  0  0  0  0  0  0
   -0.0559   63.7493   85.6609 C   0  0  0  0  0  0  0  0  0  0  0  0
   -0.6717   62.6273   85.3270 N   0  0  0  0  0  0  0  0  0  0  0  0
   -0.6279   62.5713   83.9477 C   0  0  0  0  0  0  0  0  0  0  0  0
    0.0239   63.6798   83.4618 C   0  0  0  0  0  0  0  0  0  0  0  0
    0.3964   64.2121   82.2226 C   0  0  0  0  0  0  0  0  0  0  0  0
    0.0517   63.4945   81.1467 O   0  0  0  0  0  0  0  0  0  0  0  0
    1.0346   65.3168   82.0965 N   0  0  0  0  0  0  0  0  0  0  0  0
    1.3329   65.9929   83.2646 C   0  0  0  0  0  0  0  0  0  0  0  0
    1.0483   65.5921   84.4724 N   0  0  0  0  0  0  0  0  0  0  0  0
    0.3797   64.4195   84.5414 N   0  0  0  0  0  0  0  0  0  0  0  0
    0.3654   63.9797   80.3661 H   0  0  0  0  0  0  0  0  0  0  0  0
   -1.2340   61.4236   83.2217 C   0  0  0  0  0  0  0  0  0  0  0  0
   -2.5952   61.7648   82.6367 C   0  0  0  0  0  0  0  0  0  0  0  0
    0.1605   64.2667   87.0418 C   0  0  0  0  0  0  0  0  0  0  0  0
    0.3419   62.7528   89.0479 C   0  0  0  0  0  0  0  0  0  0  0  0
   -0.6040   63.4426   88.0778 C   0  0  0  0  0  0  0  0  0  0  0  0
    1.4847   70.6814   80.9966 S   0  0  0  0  0  0  0  0  0  0  0  0
    0.4287   70.0370   80.2450 O   0  0  0  0  0  0  0  0  0  0  0  0
    2.5646   71.3661   80.3203 O   0  0  0  0  0  0  0  0  0  0  0  0
    0.7722   71.7524   82.1083 N   0  0  0  0  0  0  0  0  0  0  0  0
    1.5754   72.9445   82.5279 C   0  0  0  0  0  0  0  0  0  0  0  0
    1.4953   74.1042   81.5135 C   0  0  0  0  0  0  0  0  0  0  0  0
    0.1042   74.4881   81.1993 N   0  0  0  0  0  0  0  0  0  0  0  0
    0.0802   75.5430   80.1866 C   0  0  0  0  0  0  0  0  0  0  0  0
   -0.6510   73.3065   80.7336 C   0  0  0  0  0  0  0  0  0  0  0  0
   -0.6255   72.1679   81.7701 C   0  0  0  0  0  0  0  0  0  0  0  0
    3.8468   66.4888   84.4962 O   0  0  0  0  0  0  0  0  0  0  0  0
    5.2650   66.4019   84.6136 C   0  0  0  0  0  0  0  0  0  0  0  0
    5.5860   65.2065   85.4928 C   0  0  0  0  0  0  0  0  0  0  0  0
 21 22  1  0  0  0
 22 20  1  0  0  0
 20  7  1  0  0  0
  7  8  2  0  0  0
  8  9  1  0  0  0
  9 18  1  0  0  0
 18 19  1  0  0  0
  9 10  2  0  0  0
 10 11  1  0  0  0
 11 12  1  0  0  0
 11 13  2  0  0  0
 13 14  1  0  0  0
 14  1  1  0  0  0
  1  2  1  0  0  0
  2  3  2  0  0  0
  3 23  1  0  0  0
 23 24  2  0  0  0
 23 25  2  0  0  0
 23 26  1  0  0  0
 26 27  1  0  0  0
 27 28  1  0  0  0
 28 29  1  0  0  0
 29 30  1  0  0  0
 29 31  1  0  0  0
 31 32  1  0  0  0
  3  4  1  0  0  0
  4  5  2  0  0  0
  5  6  1  0  0  0
  6 33  1  0  0  0
 33 34  1  0  0  0
 34 35  1  0  0  0
 14 15  2  0  0  0
 15 16  1  0  0  0
 16  7  1  0  0  0
 16 10  1  0  0  0
  6  1  2  0  0  0
 32 26  1  0  0  0
 12 17  1  0  0  0
M  END
> <minimizedAffinity>
-9.28671

$$$$



 35 38  0  0  0  0  0  0  0  0999 V2000
    0.6163   65.0209   81.2796 C   0  0  0  0  0  0  0  0  0  0  0  0
    0.0881   64.1638   80.3016 C   0  0  0  0  0  0  0  0  0  0  0  0
    0.2667   64.4649   78.9527 C   0  0  0  0  0  0  0  0  0  0  0  0
    0.9419   65.6235   78.5685 C   0  0  0  0  0  0  0  0  0  0  0  0
    1.4688   66.4759   79.5446 C   0  0  0  0  0  0  0  0  0  0  0  0
    1.3192   66.1834   80.9081 C   0  0  0  0  0  0  0  0  0  0  0  0
   -1.6608   62.7196   84.8879 C   0  0  0  0  0  0  0  0  0  0  0  0
   -1.4695   62.6604   86.1953 N   0  0  0  0  0  0  0  0  0  0  0  0
   -0.3681   63.4539   86.4497 C   0  0  0  0  0  0  0  0  0  0  0  0
    0.0972   63.9883   85.2717 C   0  0  0  0  0  0  0  0  0  0  0  0
    1.1244   64.8365   84.8440 C   0  0  0  0  0  0  0  0  0  0  0  0
    1.9368   65.3043   85.7993 O   0  0  0  0  0  0  0  0  0  0  0  0
    1.2974   65.1663   83.6173 N   0  0  0  0  0  0  0  0  0  0  0  0
    0.4164   64.6207   82.7025 C   0  0  0  0  0  0  0  0  0  0  0  0
   -0.5822   63.8302   82.9824 N   0  0  0  0  0  0  0  0  0  0  0  0
   -0.7162   63.5223   84.2916 N   0  0  0  0  0  0  0  0  0  0  0  0
    2.5967   65.8680   85.3635 H   0  0  0  0  0  0  0  0  0  0  0  0
    0.1343   63.6204   87.8395 C   0  0  0  0  0  0  0  0  0  0  0  0
   -0.7144   62.8702   88.8537 C   0  0  0  0  0  0  0  0  0  0  0  0
   -2.7319   62.0294   84.1147 C   0  0  0  0  0  0  0  0  0  0  0  0
   -3.2243   60.2384   82.4121 C   0  0  0  0  0  0  0  0  0  0  0  0
   -2.1482   61.1056   83.0458 C   0  0  0  0  0  0  0  0  0  0  0  0
   -0.4010   63.3903   77.7059 S   0  0  0  0  0  0  0  0  0  0  0  0
    0.6894   62.5614   77.2377 O   0  0  0  0  0  0  0  0  0  0  0  0
   -1.1698   64.1955   76.7822 O   0  0  0  0  0  0  0  0  0  0  0  0
   -1.4699   62.4138   78.5971 N   0  0  0  0  0  0  0  0  0  0  0  0
   -2.8329   62.1817   78.0221 C   0  0  0  0  0  0  0  0  0  0  0  0
   -2.8500   61.0591   76.9639 C   0  0  0  0  0  0  0  0  0  0  0  0
   -2.2659   59.7984   77.4646 N   0  0  0  0  0  0  0  0  0  0  0  0
   -2.2446   58.7882   76.4072 C   0  0  0  0  0  0  0  0  0  0  0  0
   -0.9006   60.0437   77.9736 C   0  0  0  0  0  0  0  0  0  0  0  0
   -0.8867   61.1205   79.0744 C   0  0  0  0  0  0  0  0  0  0  0  0
    1.8657   66.9355   81.9128 O   0  0  0  0  0  0  0  0  0  0  0  0
    1.6376   68.3428   81.8994 C   0  0  0  0  0  0  0  0  0  0  0  0
    2.6356   68.9840   82.8470 C   0  0  0  0  0  0  0  0  0  0  0  0
 21 22  1  0  0  0
 22 20  1  0  0  0
 20  7  1  0  0  0
  7  8  2  0  0  0
  8  9  1  0  0  0
  9 18  1  0  0  0
 18 19  1  0  0  0
  9 10  2  0  0  0
 10 11  1  0  0  0
 11 12  1  0  0  0
 11 13  2  0  0  0
 13 14  1  0  0  0
 14  1  1  0  0  0
  1  2  1  0  0  0
  2  3  2  0  0  0
  3 23  1  0  0  0
 23 24  2  0  0  0
 23 25  2  0  0  0
 23 26  1  0  0  0
 26 27  1  0  0  0
 27 28  1  0  0  0
 28 29  1  0  0  0
 29 30  1  0  0  0
 29 31  1  0  0  0
 31 32  1  0  0  0
  3  4  1  0  0  0
  4  5  2  0  0  0
  5  6  1  0  0  0
  6 33  1  0  0  0
 33 34  1  0  0  0
 34 35  1  0  0  0
 14 15  2  0  0  0
 15 16  1  0  0  0
 16  7  1  0  0  0
 16 10  1  0  0  0
  6  1  2  0  0  0
 32 26  1  0  0  0
 12 17  1  0  0  0
M  END
> <minimizedAffinity>
-9.16369

$$$$



 35 38  0  0  0  0  0  0  0  0999 V2000
    1.0486   66.1404   82.1182 C   0  0  0  0  0  0  0  0  0  0  0  0
    1.7463   67.2719   82.5688 C   0  0  0  0  0  0  0  0  0  0  0  0
    2.2062   68.2099   81.6465 C   0  0  0  0  0  0  0  0  0  0  0  0
    2.0021   68.0192   80.2798 C   0  0  0  0  0  0  0  0  0  0  0  0
    1.3054   66.8915   79.8326 C   0  0  0  0  0  0  0  0  0  0  0  0
    0.8155   65.9440   80.7432 C   0  0  0  0  0  0  0  0  0  0  0  0
   -1.6670   62.4726   83.7536 C   0  0  0  0  0  0  0  0  0  0  0  0
   -1.8141   61.9056   84.9395 N   0  0  0  0  0  0  0  0  0  0  0  0
   -0.9654   62.5877   85.7894 C   0  0  0  0  0  0  0  0  0  0  0  0
   -0.3070   63.5720   85.0912 C   0  0  0  0  0  0  0  0  0  0  0  0
    0.6387   64.5729   85.3389 C   0  0  0  0  0  0  0  0  0  0  0  0
    1.0854   64.6615   86.5974 O   0  0  0  0  0  0  0  0  0  0  0  0
    1.0660   65.3743   84.4340 N   0  0  0  0  0  0  0  0  0  0  0  0
    0.5567   65.1948   83.1616 C   0  0  0  0  0  0  0  0  0  0  0  0
   -0.3333   64.3073   82.8140 N   0  0  0  0  0  0  0  0  0  0  0  0
   -0.7485   63.4950   83.8112 N   0  0  0  0  0  0  0  0  0  0  0  0
    1.7316   65.3861   86.6218 H   0  0  0  0  0  0  0  0  0  0  0  0
   -0.8757   62.2105   87.2251 C   0  0  0  0  0  0  0  0  0  0  0  0
   -1.6851   63.1382   88.1171 C   0  0  0  0  0  0  0  0  0  0  0  0
   -2.3696   62.0942   82.4949 C   0  0  0  0  0  0  0  0  0  0  0  0
   -2.8891   59.6450   82.2102 C   0  0  0  0  0  0  0  0  0  0  0  0
   -1.8767   60.7508   81.9571 C   0  0  0  0  0  0  0  0  0  0  0  0
    3.0944   69.6436   82.2041 S   0  0  0  0  0  0  0  0  0  0  0  0
    4.3285   69.6933   81.4492 O   0  0  0  0  0  0  0  0  0  0  0  0
    3.1100   69.6291   83.6506 O   0  0  0  0  0  0  0  0  0  0  0  0
    2.0976   70.9185   81.6830 N   0  0  0  0  0  0  0  0  0  0  0  0
    1.5628   71.8466   82.7294 C   0  0  0  0  0  0  0  0  0  0  0  0
    2.5762   72.9380   83.1320 C   0  0  0  0  0  0  0  0  0  0  0  0
    3.0905   73.6912   81.9703 N   0  0  0  0  0  0  0  0  0  0  0  0
    4.0940   74.6664   82.3956 C   0  0  0  0  0  0  0  0  0  0  0  0
    3.6637   72.7574   80.9790 C   0  0  0  0  0  0  0  0  0  0  0  0
    2.6365   71.7028   80.5276 C   0  0  0  0  0  0  0  0  0  0  0  0
    0.0691   64.8550   80.3815 O   0  0  0  0  0  0  0  0  0  0  0  0
    0.4008   64.1858   79.1671 C   0  0  0  0  0  0  0  0  0  0  0  0
    0.3944   62.6929   79.4428 C   0  0  0  0  0  0  0  0  0  0  0  0
 21 22  1  0  0  0
 22 20  1  0  0  0
 20  7  1  0  0  0
  7  8  2  0  0  0
  8  9  1  0  0  0
  9 18  1  0  0  0
 18 19  1  0  0  0
  9 10  2  0  0  0
 10 11  1  0  0  0
 11 12  1  0  0  0
 11 13  2  0  0  0
 13 14  1  0  0  0
 14  1  1  0  0  0
  1  2  1  0  0  0
  2  3  2  0  0  0
  3 23  1  0  0  0
 23 24  2  0  0  0
 23 25  2  0  0  0
 23 26  1  0  0  0
 26 27  1  0  0  0
 27 28  1  0  0  0
 28 29  1  0  0  0
 29 30  1  0  0  0
 29 31  1  0  0  0
 31 32  1  0  0  0
  3  4  1  0  0  0
  4  5  2  0  0  0
  5  6  1  0  0  0
  6 33  1  0  0  0
 33 34  1  0  0  0
 34 35  1  0  0  0
 14 15  2  0  0  0
 15 16  1  0  0  0
 16  7  1  0  0  0
 16 10  1  0  0  0
  6  1  2  0  0  0
 32 26  1  0  0  0
 12 17  1  0  0  0
M  END
> <minimizedAffinity>
-9.13316

$$$$



 35 38  0  0  0  0  0  0  0  0999 V2000
    0.2248   64.3393   83.3959 C   0  0  0  0  0  0  0  0  0  0  0  0
   -0.4958   64.0056   82.2385 C   0  0  0  0  0  0  0  0  0  0  0  0
   -1.3564   62.9096   82.2551 C   0  0  0  0  0  0  0  0  0  0  0  0
   -1.4863   62.1277   83.4028 C   0  0  0  0  0  0  0  0  0  0  0  0
   -0.7683   62.4625   84.5559 C   0  0  0  0  0  0  0  0  0  0  0  0
    0.0886   63.5727   84.5695 C   0  0  0  0  0  0  0  0  0  0  0  0
    4.1752   66.9383   84.4639 C   0  0  0  0  0  0  0  0  0  0  0  0
    4.5837   68.1525   84.1349 N   0  0  0  0  0  0  0  0  0  0  0  0
    3.5975   68.6721   83.3194 C   0  0  0  0  0  0  0  0  0  0  0  0
    2.5922   67.7474   83.1651 C   0  0  0  0  0  0  0  0  0  0  0  0
    1.3633   67.6418   82.5045 C   0  0  0  0  0  0  0  0  0  0  0  0
    0.9863   68.7087   81.7898 O   0  0  0  0  0  0  0  0  0  0  0  0
    0.6203   66.5989   82.5667 N   0  0  0  0  0  0  0  0  0  0  0  0
    1.1020   65.5431   83.3176 C   0  0  0  0  0  0  0  0  0  0  0  0
    2.2228   65.5292   83.9840 N   0  0  0  0  0  0  0  0  0  0  0  0
    2.9599   66.6576   83.8837 N   0  0  0  0  0  0  0  0  0  0  0  0
    0.1286   68.4955   81.3873 H   0  0  0  0  0  0  0  0  0  0  0  0
    3.7295   70.0435   82.7595 C   0  0  0  0  0  0  0  0  0  0  0  0
    4.0356   70.0318   81.2703 C   0  0  0  0  0  0  0  0  0  0  0  0
    4.8933   65.9650   85.3348 C   0  0  0  0  0  0  0  0  0  0  0  0
    5.6460   65.5903   87.7101 C   0  0  0  0  0  0  0  0  0  0  0  0
    5.3890   66.6218   86.6231 C   0  0  0  0  0  0  0  0  0  0  0  0
   -2.2702   62.4747   80.7952 S   0  0  0  0  0  0  0  0  0  0  0  0
   -1.7527   63.2904   79.7171 O   0  0  0  0  0  0  0  0  0  0  0  0
   -3.6786   62.4882   81.1250 O   0  0  0  0  0  0  0  0  0  0  0  0
   -1.7890   60.8664   80.5267 N   0  0  0  0  0  0  0  0  0  0  0  0
   -2.8694   59.8438   80.3550 C   0  0  0  0  0  0  0  0  0  0  0  0
   -3.4336   59.8081   78.9195 C   0  0  0  0  0  0  0  0  0  0  0  0
   -2.3790   59.6392   77.8994 N   0  0  0  0  0  0  0  0  0  0  0  0
   -2.9551   59.6780   76.5557 C   0  0  0  0  0  0  0  0  0  0  0  0
   -1.3556   60.6937   78.0543 C   0  0  0  0  0  0  0  0  0  0  0  0
   -0.7450   60.6933   79.4680 C   0  0  0  0  0  0  0  0  0  0  0  0
    0.7681   63.9966   85.6796 O   0  0  0  0  0  0  0  0  0  0  0  0
    0.0171   64.2972   86.8537 C   0  0  0  0  0  0  0  0  0  0  0  0
    0.5339   63.4130   87.9745 C   0  0  0  0  0  0  0  0  0  0  0  0
 21 22  1  0  0  0
 22 20  1  0  0  0
 20  7  1  0  0  0
  7  8  2  0  0  0
  8  9  1  0  0  0
  9 18  1  0  0  0
 18 19  1  0  0  0
  9 10  2  0  0  0
 10 11  1  0  0  0
 11 12  1  0  0  0
 11 13  2  0  0  0
 13 14  1  0  0  0
 14  1  1  0  0  0
  1  2  1  0  0  0
  2  3  2  0  0  0
  3 23  1  0  0  0
 23 24  2  0  0  0
 23 25  2  0  0  0
 23 26  1  0  0  0
 26 27  1  0  0  0
 27 28  1  0  0  0
 28 29  1  0  0  0
 29 30  1  0  0  0
 29 31  1  0  0  0
 31 32  1  0  0  0
  3  4  1  0  0  0
  4  5  2  0  0  0
  5  6  1  0  0  0
  6 33  1  0  0  0
 33 34  1  0  0  0
 34 35  1  0  0  0
 14 15  2  0  0  0
 15 16  1  0  0  0
 16  7  1  0  0  0
 16 10  1  0  0  0
  6  1  2  0  0  0
 32 26  1  0  0  0
 12 17  1  0  0  0
M  END
> <minimizedAffinity>
-9.09077

$$$$



 35 38  0  0  0  0  0  0  0  0999 V2000
   -0.1287   64.2074   83.6276 C   0  0  0  0  0  0  0  0  0  0  0  0
   -0.7716   63.5860   82.5456 C   0  0  0  0  0  0  0  0  0  0  0  0
   -1.5356   62.4411   82.7636 C   0  0  0  0  0  0  0  0  0  0  0  0
   -1.6439   61.8941   84.0422 C   0  0  0  0  0  0  0  0  0  0  0  0
   -1.0035   62.5155   85.1197 C   0  0  0  0  0  0  0  0  0  0  0  0
   -0.2456   63.6799   84.9282 C   0  0  0  0  0  0  0  0  0  0  0  0
    1.7050   67.6064   80.6976 C   0  0  0  0  0  0  0  0  0  0  0  0
    2.4661   68.6693   80.8989 N   0  0  0  0  0  0  0  0  0  0  0  0
    2.7115   68.7031   82.2577 C   0  0  0  0  0  0  0  0  0  0  0  0
    2.0832   67.6426   82.8662 C   0  0  0  0  0  0  0  0  0  0  0  0
    1.9367   67.1151   84.1538 C   0  0  0  0  0  0  0  0  0  0  0  0
    2.5556   67.7810   85.1360 O   0  0  0  0  0  0  0  0  0  0  0  0
    1.2597   66.0559   84.4056 N   0  0  0  0  0  0  0  0  0  0  0  0
    0.6451   65.4468   83.3277 C   0  0  0  0  0  0  0  0  0  0  0  0
    0.7185   65.8381   82.0860 N   0  0  0  0  0  0  0  0  0  0  0  0
    1.4492   66.9568   81.8828 N   0  0  0  0  0  0  0  0  0  0  0  0
    2.3658   67.3112   85.9646 H   0  0  0  0  0  0  0  0  0  0  0  0
    3.5497   69.7825   82.8441 C   0  0  0  0  0  0  0  0  0  0  0  0
    3.0330   71.1689   82.4943 C   0  0  0  0  0  0  0  0  0  0  0  0
    1.1671   67.1338   79.3904 C   0  0  0  0  0  0  0  0  0  0  0  0
    1.0442   64.7426   78.6054 C   0  0  0  0  0  0  0  0  0  0  0  0
    1.9528   65.9351   78.8587 C   0  0  0  0  0  0  0  0  0  0  0  0
   -2.3502   61.6432   81.4015 S   0  0  0  0  0  0  0  0  0  0  0  0
   -3.6302   62.2984   81.2353 O   0  0  0  0  0  0  0  0  0  0  0  0
   -2.2699   60.2132   81.6041 O   0  0  0  0  0  0  0  0  0  0  0  0
   -1.3601   62.0632   80.0848 N   0  0  0  0  0  0  0  0  0  0  0  0
   -0.5204   60.9800   79.4814 C   0  0  0  0  0  0  0  0  0  0  0  0
   -1.3051   60.1048   78.4820 C   0  0  0  0  0  0  0  0  0  0  0  0
   -1.9738   60.9013   77.4335 N   0  0  0  0  0  0  0  0  0  0  0  0
   -2.7562   60.0347   76.5526 C   0  0  0  0  0  0  0  0  0  0  0  0
   -2.8396   61.9250   78.0546 C   0  0  0  0  0  0  0  0  0  0  0  0
   -2.0482   62.8407   79.0066 C   0  0  0  0  0  0  0  0  0  0  0  0
    0.3506   64.3762   85.9449 O   0  0  0  0  0  0  0  0  0  0  0  0
   -0.0738   64.1120   87.2801 C   0  0  0  0  0  0  0  0  0  0  0  0
    1.0961   63.4952   88.0257 C   0  0  0  0  0  0  0  0  0  0  0  0
 21 22  1  0  0  0
 22 20  1  0  0  0
 20  7  1  0  0  0
  7  8  2  0  0  0
  8  9  1  0  0  0
  9 18  1  0  0  0
 18 19  1  0  0  0
  9 10  2  0  0  0
 10 11  1  0  0  0
 11 12  1  0  0  0
 11 13  2  0  0  0
 13 14  1  0  0  0
 14  1  1  0  0  0
  1  2  1  0  0  0
  2  3  2  0  0  0
  3 23  1  0  0  0
 23 24  2  0  0  0
 23 25  2  0  0  0
 23 26  1  0  0  0
 26 27  1  0  0  0
 27 28  1  0  0  0
 28 29  1  0  0  0
 29 30  1  0  0  0
 29 31  1  0  0  0
 31 32  1  0  0  0
  3  4  1  0  0  0
  4  5  2  0  0  0
  5  6  1  0  0  0
  6 33  1  0  0  0
 33 34  1  0  0  0
 34 35  1  0  0  0
 14 15  2  0  0  0
 15 16  1  0  0  0
 16  7  1  0  0  0
 16 10  1  0  0  0
  6  1  2  0  0  0
 32 26  1  0  0  0
 12 17  1  0  0  0
M  END
> <minimizedAffinity>
-8.98377

$$$$



 35 38  0  0  0  0  0  0  0  0999 V2000
    0.4223   63.9962   83.6935 C   0  0  0  0  0  0  0  0  0  0  0  0
    1.4574   64.9341   83.5551 C   0  0  0  0  0  0  0  0  0  0  0  0
    1.9693   65.5669   84.6863 C   0  0  0  0  0  0  0  0  0  0  0  0
    1.4433   65.2954   85.9494 C   0  0  0  0  0  0  0  0  0  0  0  0
    0.4126   64.3594   86.0857 C   0  0  0  0  0  0  0  0  0  0  0  0
   -0.1051   63.6950   84.9642 C   0  0  0  0  0  0  0  0  0  0  0  0
   -0.6013   63.8275   78.9581 C   0  0  0  0  0  0  0  0  0  0  0  0
   -1.1067   62.8952   78.1675 N   0  0  0  0  0  0  0  0  0  0  0  0
   -1.3413   61.8022   78.9786 C   0  0  0  0  0  0  0  0  0  0  0  0
   -0.9665   62.0961   80.2681 C   0  0  0  0  0  0  0  0  0  0  0  0
   -0.9440   61.4671   81.5178 C   0  0  0  0  0  0  0  0  0  0  0  0
   -1.4009   60.2096   81.5515 O   0  0  0  0  0  0  0  0  0  0  0  0
   -0.5207   62.0393   82.5840 N   0  0  0  0  0  0  0  0  0  0  0  0
   -0.0550   63.3333   82.4456 C   0  0  0  0  0  0  0  0  0  0  0  0
   -0.0367   64.0236   81.3394 N   0  0  0  0  0  0  0  0  0  0  0  0
   -0.4993   63.3691   80.2511 N   0  0  0  0  0  0  0  0  0  0  0  0
   -1.3224   59.9006   82.4688 H   0  0  0  0  0  0  0  0  0  0  0  0
   -1.9190   60.5547   78.4114 C   0  0  0  0  0  0  0  0  0  0  0  0
   -3.4214   60.4648   78.6267 C   0  0  0  0  0  0  0  0  0  0  0  0
   -0.1795   65.1995   78.5567 C   0  0  0  0  0  0  0  0  0  0  0  0
    1.7983   66.4429   79.5007 C   0  0  0  0  0  0  0  0  0  0  0  0
    1.3424   65.3426   78.5555 C   0  0  0  0  0  0  0  0  0  0  0  0
    3.2760   66.7590   84.5234 S   0  0  0  0  0  0  0  0  0  0  0  0
    2.6843   68.0628   84.7362 O   0  0  0  0  0  0  0  0  0  0  0  0
    4.0049   66.4648   83.3090 O   0  0  0  0  0  0  0  0  0  0  0  0
    4.2692   66.3992   85.8555 N   0  0  0  0  0  0  0  0  0  0  0  0
    5.1375   65.1830   85.7587 C   0  0  0  0  0  0  0  0  0  0  0  0
    6.4453   65.4447   84.9830 C   0  0  0  0  0  0  0  0  0  0  0  0
    7.2027   66.5937   85.5191 N   0  0  0  0  0  0  0  0  0  0  0  0
    8.3968   66.8416   84.7118 C   0  0  0  0  0  0  0  0  0  0  0  0
    6.3411   67.7936   85.5509 C   0  0  0  0  0  0  0  0  0  0  0  0
    5.0627   67.5568   86.3760 C   0  0  0  0  0  0  0  0  0  0  0  0
   -1.0645   62.7209   85.0318 O   0  0  0  0  0  0  0  0  0  0  0  0
   -1.4709   62.2655   86.3202 C   0  0  0  0  0  0  0  0  0  0  0  0
   -2.8445   62.8457   86.6059 C   0  0  0  0  0  0  0  0  0  0  0  0
 21 22  1  0  0  0
 22 20  1  0  0  0
 20  7  1  0  0  0
  7  8  2  0  0  0
  8  9  1  0  0  0
  9 18  1  0  0  0
 18 19  1  0  0  0
  9 10  2  0  0  0
 10 11  1  0  0  0
 11 12  1  0  0  0
 11 13  2  0  0  0
 13 14  1  0  0  0
 14  1  1  0  0  0
  1  2  1  0  0  0
  2  3  2  0  0  0
  3 23  1  0  0  0
 23 24  2  0  0  0
 23 25  2  0  0  0
 23 26  1  0  0  0
 26 27  1  0  0  0
 27 28  1  0  0  0
 28 29  1  0  0  0
 29 30  1  0  0  0
 29 31  1  0  0  0
 31 32  1  0  0  0
  3  4  1  0  0  0
  4  5  2  0  0  0
  5  6  1  0  0  0
  6 33  1  0  0  0
 33 34  1  0  0  0
 34 35  1  0  0  0
 14 15  2  0  0  0
 15 16  1  0  0  0
 16  7  1  0  0  0
 16 10  1  0  0  0
  6  1  2  0  0  0
 32 26  1  0  0  0
 12 17  1  0  0  0
M  END
> <minimizedAffinity>
-8.86727

$$$$
