
     RDKit          3D

 55 58  0  0  0  0  0  0  0  0999 V2000
   -4.9711    2.6410    0.4539 C   0  0  0  0  0  0  0  0  0  0  0  0
   -3.6020    2.5210    1.1091 C   0  0  0  0  0  0  0  0  0  0  0  0
   -3.5303    1.4033    2.1522 C   0  0  0  0  0  0  0  0  0  0  0  0
   -3.6414    0.0361    1.5707 C   0  0  0  0  0  0  0  0  0  0  0  0
   -4.7756   -0.6798    1.6963 N   0  0  0  0  0  0  0  0  0  0  0  0
   -4.5031   -1.8436    1.0553 N   0  0  0  0  0  0  0  0  0  0  0  0
   -5.5080   -2.8764    0.9797 C   0  0  0  0  0  0  0  0  0  0  0  0
   -3.2465   -1.8859    0.5392 C   0  0  0  0  0  0  0  0  0  0  0  0
   -2.5646   -2.8890   -0.1902 C   0  0  0  0  0  0  0  0  0  0  0  0
   -3.0205   -3.9800   -0.5114 O   0  0  0  0  0  0  0  0  0  0  0  0
   -1.2881   -2.4892   -0.5117 N   0  0  0  0  0  0  0  0  0  0  0  0
   -0.7333   -1.2591   -0.1719 C   0  0  0  0  0  0  0  0  0  0  0  0
    0.6848   -1.0030   -0.6205 C   0  0  0  0  0  0  0  0  0  0  0  0
    1.2529    0.2306   -0.2389 C   0  0  0  0  0  0  0  0  0  0  0  0
    2.5612    0.5837   -0.5947 C   0  0  0  0  0  0  0  0  0  0  0  0
    3.1075    1.8849   -0.1868 C   0  0  0  0  0  0  0  0  0  0  0  0
    2.4946    3.1235   -0.2157 C   0  0  0  0  0  0  0  0  0  0  0  0
    3.3346    4.1619    0.2803 C   0  0  0  0  0  0  0  0  0  0  0  0
    4.5691    3.6959    0.6899 C   0  0  0  0  0  0  0  0  0  0  0  0
    5.6542    4.4891    1.2460 C   0  0  0  0  0  0  0  0  0  0  0  0
    5.5903    5.7091    1.4130 O   0  0  0  0  0  0  0  0  0  0  0  0
    6.7905    3.8038    1.6212 N   0  0  0  0  0  0  0  0  0  0  0  0
    7.7657    4.5374    2.3363 O   0  0  0  0  0  0  0  0  0  0  0  0
    4.6908    2.0033    0.4634 S   0  0  0  0  0  0  0  0  0  0  0  0
    3.3053   -0.3208   -1.3560 C   0  0  0  0  0  0  0  0  0  0  0  0
    2.7612   -1.5503   -1.7444 C   0  0  0  0  0  0  0  0  0  0  0  0
    1.4548   -1.9060   -1.3848 C   0  0  0  0  0  0  0  0  0  0  0  0
    0.8766   -3.0982   -1.7416 O   0  0  0  0  0  0  0  0  0  0  0  0
    1.6392   -4.0155   -2.5290 C   0  0  0  0  0  0  0  0  0  0  0  0
    0.7722   -5.2348   -2.7871 C   0  0  0  0  0  0  0  0  0  0  0  0
   -1.3724   -0.3400    0.5023 N   0  0  0  0  0  0  0  0  0  0  0  0
   -2.6746   -0.6922    0.8588 C   0  0  0  0  0  0  0  0  0  0  0  0
   -5.7538    2.7901    1.2045 H   0  0  0  0  0  0  0  0  0  0  0  0
   -4.9876    3.4981   -0.2270 H   0  0  0  0  0  0  0  0  0  0  0  0
   -5.2163    1.7480   -0.1289 H   0  0  0  0  0  0  0  0  0  0  0  0
   -3.3694    3.4726    1.6019 H   0  0  0  0  0  0  0  0  0  0  0  0
   -2.8421    2.3712    0.3329 H   0  0  0  0  0  0  0  0  0  0  0  0
   -2.5714    1.4786    2.6806 H   0  0  0  0  0  0  0  0  0  0  0  0
   -4.3089    1.5559    2.9102 H   0  0  0  0  0  0  0  0  0  0  0  0
   -5.1185   -3.7742    1.4657 H   0  0  0  0  0  0  0  0  0  0  0  0
   -5.7276   -3.0686   -0.0733 H   0  0  0  0  0  0  0  0  0  0  0  0
   -6.4141   -2.5419    1.4916 H   0  0  0  0  0  0  0  0  0  0  0  0
   -0.7392   -3.1553   -1.0392 H   0  0  0  0  0  0  0  0  0  0  0  0
    0.6661    0.9274    0.3591 H   0  0  0  0  0  0  0  0  0  0  0  0
    1.4875    3.2843   -0.5839 H   0  0  0  0  0  0  0  0  0  0  0  0
    3.0489    5.2068    0.3389 H   0  0  0  0  0  0  0  0  0  0  0  0
    6.7991    2.7956    1.7278 H   0  0  0  0  0  0  0  0  0  0  0  0
    7.3811    5.4417    2.3499 H   0  0  0  0  0  0  0  0  0  0  0  0
    4.3185   -0.0775   -1.6706 H   0  0  0  0  0  0  0  0  0  0  0  0
    3.3942   -2.2054   -2.3352 H   0  0  0  0  0  0  0  0  0  0  0  0
    2.5392   -4.3250   -1.9859 H   0  0  0  0  0  0  0  0  0  0  0  0
    1.9098   -3.5594   -3.4881 H   0  0  0  0  0  0  0  0  0  0  0  0
   -0.1466   -4.9504   -3.3109 H   0  0  0  0  0  0  0  0  0  0  0  0
    1.3079   -5.9743   -3.3887 H   0  0  0  0  0  0  0  0  0  0  0  0
    0.4690   -5.6988   -1.8426 H   0  0  0  0  0  0  0  0  0  0  0  0
  1  2  1  0
  2  3  1  0
  3  4  1  0
  4  5  2  0
  5  6  1  0
  6  7  1  0
  6  8  1  0
  8  9  1  0
  9 10  2  0
  9 11  1  0
 11 12  1  0
 12 13  1  0
 13 14  1  0
 14 15  2  0
 15 16  1  0
 16 17  2  0
 17 18  1  0
 18 19  2  0
 19 20  1  0
 20 21  2  0
 20 22  1  0
 22 23  1  0
 19 24  1  0
 15 25  1  0
 25 26  2  0
 26 27  1  0
 27 28  1  0
 28 29  1  0
 29 30  1  0
 12 31  2  0
 31 32  1  0
 32  4  1  0
 32  8  2  0
 27 13  2  0
 24 16  1  0
  1 33  1  0
  1 34  1  0
  1 35  1  0
  2 36  1  0
  2 37  1  0
  3 38  1  0
  3 39  1  0
  7 40  1  0
  7 41  1  0
  7 42  1  0
 11 43  1  0
 14 44  1  0
 17 45  1  0
 18 46  1  0
 22 47  1  0
 23 48  1  0
 25 49  1  0
 26 50  1  0
 29 51  1  0
 29 52  1  0
 30 53  1  0
 30 54  1  0
 30 55  1  0
M  END
$$$$
