
     RDKit          3D

 69 71  0  0  0  0  0  0  0  0999 V2000
   -5.1448   -4.5495    0.4505 C   0  0  0  0  0  0  0  0  0  0  0  0
   -5.3093   -3.1506   -0.1238 C   0  0  0  0  0  0  0  0  0  0  0  0
   -4.4911   -2.1261    0.6623 C   0  0  0  0  0  0  0  0  0  0  0  0
   -4.7035   -0.6859    0.1877 C   0  0  0  0  0  0  0  0  0  0  0  0
   -4.3296   -0.4073   -1.2730 C   0  0  0  0  0  0  0  0  0  0  0  0
   -2.8835   -0.7436   -1.6385 C   0  0  0  0  0  0  0  0  0  0  0  0
   -2.0114   -0.0735   -0.7322 O   0  0  0  0  0  0  0  0  0  0  0  0
   -0.6753   -0.0545   -1.0214 C   0  0  0  0  0  0  0  0  0  0  0  0
   -0.0569   -0.9030   -1.9475 C   0  0  0  0  0  0  0  0  0  0  0  0
    1.3276   -0.8518   -2.1436 C   0  0  0  0  0  0  0  0  0  0  0  0
    2.0984    0.0461   -1.4030 C   0  0  0  0  0  0  0  0  0  0  0  0
    3.8566    0.1251   -1.6343 S   0  0  0  0  0  0  0  0  0  0  0  0
    4.1905    1.5145   -1.8569 O   0  0  0  0  0  0  0  0  0  0  0  0
    4.2472   -0.9097   -2.5679 O   0  0  0  0  0  0  0  0  0  0  0  0
    4.4402   -0.3264   -0.0983 N   0  0  0  0  0  0  0  0  0  0  0  0
    4.1903   -1.7515    0.3028 C   0  0  0  0  0  0  0  0  0  0  0  0
    5.4724   -2.5977    0.2169 C   0  0  0  0  0  0  0  0  0  0  0  0
    6.5261   -2.1325    1.1422 N   0  0  0  0  0  0  0  0  0  0  0  0
    7.8371   -2.6070    0.7046 C   0  0  0  0  0  0  0  0  0  0  0  0
    6.4974   -0.6646    1.3069 C   0  0  0  0  0  0  0  0  0  0  0  0
    5.8616    0.0998    0.1315 C   0  0  0  0  0  0  0  0  0  0  0  0
    1.5043    0.9040   -0.4764 C   0  0  0  0  0  0  0  0  0  0  0  0
    0.1187    0.8462   -0.2888 C   0  0  0  0  0  0  0  0  0  0  0  0
   -0.4938    1.7692    0.6892 C   0  0  0  0  0  0  0  0  0  0  0  0
   -1.3907    2.6287    0.3357 N   0  0  0  0  0  0  0  0  0  0  0  0
   -1.9350    3.4558    1.3020 C   0  0  0  0  0  0  0  0  0  0  0  0
   -2.9964    4.4089    0.7468 C   0  0  0  0  0  0  0  0  0  0  0  0
   -2.3833    5.3888   -0.2585 C   0  0  0  0  0  0  0  0  0  0  0  0
   -4.1554    3.6361    0.1075 C   0  0  0  0  0  0  0  0  0  0  0  0
   -1.5727    3.4206    2.6030 C   0  0  0  0  0  0  0  0  0  0  0  0
   -2.2536    4.4981    3.9689 Br  0  0  0  0  0  0  0  0  0  0  0  0
   -0.5320    2.4238    2.9883 C   0  0  0  0  0  0  0  0  0  0  0  0
   -0.1234    2.2722    4.1362 O   0  0  0  0  0  0  0  0  0  0  0  0
   -0.0391    1.6575    1.9737 N   0  0  0  0  0  0  0  0  0  0  0  0
   -5.7354   -5.2679   -0.1266 H   0  0  0  0  0  0  0  0  0  0  0  0
   -4.0974   -4.8660    0.4173 H   0  0  0  0  0  0  0  0  0  0  0  0
   -5.4837   -4.5894    1.4906 H   0  0  0  0  0  0  0  0  0  0  0  0
   -6.3702   -2.8758   -0.1025 H   0  0  0  0  0  0  0  0  0  0  0  0
   -4.9964   -3.1644   -1.1733 H   0  0  0  0  0  0  0  0  0  0  0  0
   -4.7738   -2.1789    1.7213 H   0  0  0  0  0  0  0  0  0  0  0  0
   -3.4267   -2.3843    0.6162 H   0  0  0  0  0  0  0  0  0  0  0  0
   -4.1281   -0.0176    0.8406 H   0  0  0  0  0  0  0  0  0  0  0  0
   -5.7570   -0.4151    0.3316 H   0  0  0  0  0  0  0  0  0  0  0  0
   -4.4914    0.6633   -1.4509 H   0  0  0  0  0  0  0  0  0  0  0  0
   -5.0083   -0.9410   -1.9475 H   0  0  0  0  0  0  0  0  0  0  0  0
   -2.7242   -1.8259   -1.5802 H   0  0  0  0  0  0  0  0  0  0  0  0
   -2.6999   -0.4071   -2.6664 H   0  0  0  0  0  0  0  0  0  0  0  0
   -0.6257   -1.6243   -2.5268 H   0  0  0  0  0  0  0  0  0  0  0  0
    1.7913   -1.5142   -2.8726 H   0  0  0  0  0  0  0  0  0  0  0  0
    3.4133   -2.2081   -0.3183 H   0  0  0  0  0  0  0  0  0  0  0  0
    3.7993   -1.7475    1.3278 H   0  0  0  0  0  0  0  0  0  0  0  0
    5.8301   -2.5786   -0.8213 H   0  0  0  0  0  0  0  0  0  0  0  0
    5.2313   -3.6394    0.4580 H   0  0  0  0  0  0  0  0  0  0  0  0
    7.8403   -3.6988    0.6127 H   0  0  0  0  0  0  0  0  0  0  0  0
    8.6036   -2.3525    1.4450 H   0  0  0  0  0  0  0  0  0  0  0  0
    8.1320   -2.1770   -0.2593 H   0  0  0  0  0  0  0  0  0  0  0  0
    5.9101   -0.4541    2.2103 H   0  0  0  0  0  0  0  0  0  0  0  0
    7.4998   -0.2666    1.5077 H   0  0  0  0  0  0  0  0  0  0  0  0
    6.4590   -0.0620   -0.7739 H   0  0  0  0  0  0  0  0  0  0  0  0
    5.8645    1.1713    0.3603 H   0  0  0  0  0  0  0  0  0  0  0  0
    2.1117    1.6210    0.0720 H   0  0  0  0  0  0  0  0  0  0  0  0
   -3.4350    5.0148    1.5453 H   0  0  0  0  0  0  0  0  0  0  0  0
   -1.9915    4.8747   -1.1431 H   0  0  0  0  0  0  0  0  0  0  0  0
   -3.1347    6.1094   -0.5995 H   0  0  0  0  0  0  0  0  0  0  0  0
   -1.5624    5.9536    0.1969 H   0  0  0  0  0  0  0  0  0  0  0  0
   -3.8336    3.0764   -0.7776 H   0  0  0  0  0  0  0  0  0  0  0  0
   -4.9477    4.3242   -0.2070 H   0  0  0  0  0  0  0  0  0  0  0  0
   -4.5926    2.9261    0.8182 H   0  0  0  0  0  0  0  0  0  0  0  0
    0.6412    0.9615    2.2395 H   0  0  0  0  0  0  0  0  0  0  0  0
  1  2  1  0
  2  3  1  0
  3  4  1  0
  4  5  1  0
  5  6  1  0
  6  7  1  0
  7  8  1  0
  8  9  1  0
  9 10  2  0
 10 11  1  0
 11 12  1  0
 12 13  2  0
 12 14  2  0
 12 15  1  0
 15 16  1  0
 16 17  1  0
 17 18  1  0
 18 19  1  0
 18 20  1  0
 20 21  1  0
 11 22  2  0
 22 23  1  0
 23 24  1  0
 24 25  2  0
 25 26  1  0
 26 27  1  0
 27 28  1  0
 27 29  1  0
 26 30  2  0
 30 31  1  0
 30 32  1  0
 32 33  2  0
 32 34  1  0
 23  8  2  0
 34 24  1  0
 21 15  1  0
  1 35  1  0
  1 36  1  0
  1 37  1  0
  2 38  1  0
  2 39  1  0
  3 40  1  0
  3 41  1  0
  4 42  1  0
  4 43  1  0
  5 44  1  0
  5 45  1  0
  6 46  1  0
  6 47  1  0
  9 48  1  0
 10 49  1  0
 16 50  1  0
 16 51  1  0
 17 52  1  0
 17 53  1  0
 19 54  1  0
 19 55  1  0
 19 56  1  0
 20 57  1  0
 20 58  1  0
 21 59  1  0
 21 60  1  0
 22 61  1  0
 27 62  1  0
 28 63  1  0
 28 64  1  0
 28 65  1  0
 29 66  1  0
 29 67  1  0
 29 68  1  0
 34 69  1  0
M  END
$$$$
