
     RDKit          3D

 66 68  0  0  0  0  0  0  0  0999 V2000
   -3.0619   -6.7564    1.0237 C   0  0  0  0  0  0  0  0  0  0  0  0
   -3.2729   -5.2570    0.9175 C   0  0  0  0  0  0  0  0  0  0  0  0
   -1.9830   -4.5253    0.5587 C   0  0  0  0  0  0  0  0  0  0  0  0
   -2.2854   -3.1297    0.4834 O   0  0  0  0  0  0  0  0  0  0  0  0
   -1.2733   -2.2588    0.1694 C   0  0  0  0  0  0  0  0  0  0  0  0
    0.0432   -2.6665   -0.0782 C   0  0  0  0  0  0  0  0  0  0  0  0
    1.0407   -1.7358   -0.3947 C   0  0  0  0  0  0  0  0  0  0  0  0
    0.7434   -0.3795   -0.4718 C   0  0  0  0  0  0  0  0  0  0  0  0
    1.6881    0.6134   -0.7797 N   0  0  0  0  0  0  0  0  0  0  0  0
    3.0230    0.4513   -1.1019 C   0  0  0  0  0  0  0  0  0  0  0  0
    3.6458   -0.5929   -1.2114 O   0  0  0  0  0  0  0  0  0  0  0  0
    3.7002    1.8243   -1.3522 C   0  0  0  0  0  0  0  0  0  0  0  0
    2.9658    2.7525   -1.6897 O   0  0  0  0  0  0  0  0  0  0  0  0
    5.0701    1.9523   -1.1580 N   0  0  0  0  0  0  0  0  0  0  0  0
    5.7231    3.2166   -1.4958 C   0  0  0  0  0  0  0  0  0  0  0  0
    7.1629    2.9857   -1.9853 C   0  0  0  0  0  0  0  0  0  0  0  0
    8.0269    2.3193   -0.9887 N   0  0  0  0  0  0  0  0  0  0  0  0
    9.1183    1.6060   -1.6469 C   0  0  0  0  0  0  0  0  0  0  0  0
    7.2675    1.4442   -0.0747 C   0  0  0  0  0  0  0  0  0  0  0  0
    5.9387    0.8952   -0.6308 C   0  0  0  0  0  0  0  0  0  0  0  0
   -0.5680    0.0359   -0.2247 C   0  0  0  0  0  0  0  0  0  0  0  0
   -1.5859   -0.8855    0.0959 C   0  0  0  0  0  0  0  0  0  0  0  0
   -2.9549   -0.3153    0.3411 C   0  0  0  0  0  0  0  0  0  0  0  0
   -3.1643    0.9611    0.2615 N   0  0  0  0  0  0  0  0  0  0  0  0
   -4.4325    1.4494    0.4955 C   0  0  0  0  0  0  0  0  0  0  0  0
   -4.5110    2.9593    0.3663 C   0  0  0  0  0  0  0  0  0  0  0  0
   -3.8484    3.6650    1.5427 C   0  0  0  0  0  0  0  0  0  0  0  0
   -5.4924    0.6723    0.8019 C   0  0  0  0  0  0  0  0  0  0  0  0
   -6.9109    1.1127    1.0467 C   0  0  0  0  0  0  0  0  0  0  0  0
   -7.1952    1.3215    2.5272 C   0  0  0  0  0  0  0  0  0  0  0  0
   -5.2416   -0.7891    0.8959 C   0  0  0  0  0  0  0  0  0  0  0  0
   -6.1220   -1.5953    1.1794 O   0  0  0  0  0  0  0  0  0  0  0  0
   -3.9644   -1.1835    0.6497 N   0  0  0  0  0  0  0  0  0  0  0  0
   -2.3276   -6.9950    1.7997 H   0  0  0  0  0  0  0  0  0  0  0  0
   -4.0018   -7.2546    1.2809 H   0  0  0  0  0  0  0  0  0  0  0  0
   -2.7065   -7.1708    0.0749 H   0  0  0  0  0  0  0  0  0  0  0  0
   -4.0396   -5.0409    0.1636 H   0  0  0  0  0  0  0  0  0  0  0  0
   -3.6647   -4.8677    1.8650 H   0  0  0  0  0  0  0  0  0  0  0  0
   -1.6177   -4.8837   -0.4109 H   0  0  0  0  0  0  0  0  0  0  0  0
   -1.2325   -4.7055    1.3374 H   0  0  0  0  0  0  0  0  0  0  0  0
    0.3405   -3.7099   -0.0352 H   0  0  0  0  0  0  0  0  0  0  0  0
    2.0438   -2.1109   -0.5756 H   0  0  0  0  0  0  0  0  0  0  0  0
    1.3629    1.5778   -0.8282 H   0  0  0  0  0  0  0  0  0  0  0  0
    5.1480    3.7407   -2.2669 H   0  0  0  0  0  0  0  0  0  0  0  0
    5.7158    3.8423   -0.5953 H   0  0  0  0  0  0  0  0  0  0  0  0
    7.6138    3.9477   -2.2541 H   0  0  0  0  0  0  0  0  0  0  0  0
    7.1067    2.3847   -2.9035 H   0  0  0  0  0  0  0  0  0  0  0  0
    9.6871    2.2836   -2.2934 H   0  0  0  0  0  0  0  0  0  0  0  0
    9.8239    1.2149   -0.9057 H   0  0  0  0  0  0  0  0  0  0  0  0
    8.7568    0.7686   -2.2544 H   0  0  0  0  0  0  0  0  0  0  0  0
    7.8845    0.6152    0.2937 H   0  0  0  0  0  0  0  0  0  0  0  0
    7.0325    2.0485    0.8115 H   0  0  0  0  0  0  0  0  0  0  0  0
    6.1365    0.1943   -1.4499 H   0  0  0  0  0  0  0  0  0  0  0  0
    5.4134    0.3617    0.1676 H   0  0  0  0  0  0  0  0  0  0  0  0
   -0.8112    1.0957   -0.2816 H   0  0  0  0  0  0  0  0  0  0  0  0
   -5.5397    3.3181    0.2800 H   0  0  0  0  0  0  0  0  0  0  0  0
   -4.0147    3.2634   -0.5642 H   0  0  0  0  0  0  0  0  0  0  0  0
   -4.3308    3.3961    2.4881 H   0  0  0  0  0  0  0  0  0  0  0  0
   -3.9240    4.7504    1.4213 H   0  0  0  0  0  0  0  0  0  0  0  0
   -2.7860    3.4097    1.6165 H   0  0  0  0  0  0  0  0  0  0  0  0
   -7.1448    2.0321    0.5018 H   0  0  0  0  0  0  0  0  0  0  0  0
   -7.6104    0.3694    0.6445 H   0  0  0  0  0  0  0  0  0  0  0  0
   -6.5524    2.1013    2.9484 H   0  0  0  0  0  0  0  0  0  0  0  0
   -8.2358    1.6298    2.6707 H   0  0  0  0  0  0  0  0  0  0  0  0
   -7.0356    0.4016    3.0994 H   0  0  0  0  0  0  0  0  0  0  0  0
   -3.7799   -2.1763    0.7107 H   0  0  0  0  0  0  0  0  0  0  0  0
  1  2  1  0
  2  3  1  0
  3  4  1  0
  4  5  1  0
  5  6  1  0
  6  7  2  0
  7  8  1  0
  8  9  1  0
  9 10  1  0
 10 11  2  0
 10 12  1  0
 12 13  2  0
 12 14  1  0
 14 15  1  0
 15 16  1  0
 16 17  1  0
 17 18  1  0
 17 19  1  0
 19 20  1  0
  8 21  2  0
 21 22  1  0
 22 23  1  0
 23 24  2  0
 24 25  1  0
 25 26  1  0
 26 27  1  0
 25 28  2  0
 28 29  1  0
 29 30  1  0
 28 31  1  0
 31 32  2  0
 31 33  1  0
 22  5  2  0
 33 23  1  0
 20 14  1  0
  1 34  1  0
  1 35  1  0
  1 36  1  0
  2 37  1  0
  2 38  1  0
  3 39  1  0
  3 40  1  0
  6 41  1  0
  7 42  1  0
  9 43  1  0
 15 44  1  0
 15 45  1  0
 16 46  1  0
 16 47  1  0
 18 48  1  0
 18 49  1  0
 18 50  1  0
 19 51  1  0
 19 52  1  0
 20 53  1  0
 20 54  1  0
 21 55  1  0
 26 56  1  0
 26 57  1  0
 27 58  1  0
 27 59  1  0
 27 60  1  0
 29 61  1  0
 29 62  1  0
 30 63  1  0
 30 64  1  0
 30 65  1  0
 33 66  1  0
M  END
$$$$
