


 34 36  0  0  0  0  0  0  0  0999 V2000
    0.8199   64.8493   84.9647 N   0  0  0  0  0  0  0  0  0  0  0  0
    0.6265   64.2538   86.1881 C   0  0  0  0  0  0  0  0  0  0  0  0
    1.3697   64.2726   87.1607 O   0  0  0  0  0  0  0  0  0  0  0  0
    0.1075   64.7190   84.2577 H   0  0  0  0  0  0  0  0  0  0  0  0
   -0.6729   63.5067   86.2548 C   0  0  0  0  0  0  0  0  0  0  0  0
   -1.3339   63.3666   87.4668 C   0  0  0  0  0  0  0  0  0  0  0  0
   -2.5339   62.6664   87.4789 C   0  0  0  0  0  0  0  0  0  0  0  0
   -3.0284   62.1371   86.2893 C   0  0  0  0  0  0  0  0  0  0  0  0
   -2.3109   62.3251   85.1072 C   0  0  0  0  0  0  0  0  0  0  0  0
   -1.1306   62.9973   85.0717 N   0  0  0  0  0  0  0  0  0  0  0  0
   -2.8219   61.7483   83.8031 C   0  0  0  0  0  0  0  0  0  0  0  0
   -1.9233   60.8018   83.2181 O   0  0  0  0  0  0  0  0  0  0  0  0
   -1.3788   61.0912   81.9976 C   0  0  0  0  0  0  0  0  0  0  0  0
   -2.0716   61.2339   80.7948 C   0  0  0  0  0  0  0  0  0  0  0  0
   -1.3783   61.5223   79.6145 C   0  0  0  0  0  0  0  0  0  0  0  0
    0.0076   61.6671   79.6301 C   0  0  0  0  0  0  0  0  0  0  0  0
    0.7047   61.5209   80.8262 C   0  0  0  0  0  0  0  0  0  0  0  0
    0.0122   61.2319   82.0031 C   0  0  0  0  0  0  0  0  0  0  0  0
    3.9385   66.4719   84.5136 C   0  0  0  0  0  0  0  0  0  0  0  0
    3.2742   67.2709   83.5963 C   0  0  0  0  0  0  0  0  0  0  0  0
    1.6254   66.8108   83.4956 S   0  0  0  0  0  0  0  0  0  0  0  0
    1.9163   65.5940   84.6553 C   0  0  0  0  0  0  0  0  0  0  0  0
    3.1368   65.5103   85.1142 N   0  0  0  0  0  0  0  0  0  0  0  0
    5.3904   66.5401   84.9181 C   0  0  0  0  0  0  0  0  0  0  0  0
    5.6224   67.7575   85.7943 C   0  0  0  0  0  0  0  0  0  0  0  0
    6.6532   68.4031   85.9077 O   0  0  0  0  0  0  0  0  0  0  0  0
    4.5059   68.1566   86.4408 O   0  0  0  0  0  0  0  0  0  0  0  0
    4.7961   68.9257   86.9752 H   0  0  0  0  0  0  0  0  0  0  0  0
    5.8428   65.2603   85.6485 C   0  0  0  0  0  0  0  0  0  0  0  0
    6.4108   65.5005   87.0504 C   0  0  0  0  0  0  0  0  0  0  0  0
    5.5275   65.5014   89.3246 O   0  0  0  0  0  0  0  0  0  0  0  0
    5.3999   65.2590   88.1378 C   0  0  0  0  0  0  0  0  0  0  0  0
    4.2799   64.6764   87.6708 O   0  0  0  0  0  0  0  0  0  0  0  0
    3.7160   64.5779   88.4671 H   0  0  0  0  0  0  0  0  0  0  0  0
 31 32  2  0  0  0
 32 33  1  0  0  0
 32 30  1  0  0  0
 30 29  1  0  0  0
 29 24  1  0  0  0
 24 25  1  0  0  0
 25 26  2  0  0  0
 25 27  1  0  0  0
 24 19  1  0  0  0
 19 20  2  0  0  0
 20 21  1  0  0  0
 21 22  1  0  0  0
 22  1  1  0  0  0
  1  2  1  0  0  0
  2  3  2  0  0  0
  2  5  1  0  0  0
  5  6  1  0  0  0
  6  7  2  0  0  0
  7  8  1  0  0  0
  8  9  2  0  0  0
  9 11  1  0  0  0
 11 12  1  0  0  0
 12 13  1  0  0  0
 13 14  2  0  0  0
 14 15  1  0  0  0
 15 16  2  0  0  0
 16 17  1  0  0  0
 17 18  2  0  0  0
  9 10  1  0  0  0
 22 23  2  0  0  0
 23 19  1  0  0  0
 10  5  2  0  0  0
 18 13  1  0  0  0
 33 34  1  0  0  0
 27 28  1  0  0  0
  1  4  1  0  0  0
M  END
> <minimizedAffinity>
-9.70792

$$$$



 34 36  0  0  0  0  0  0  0  0999 V2000
    0.1183   64.0489   80.5852 N   0  0  0  0  0  0  0  0  0  0  0  0
    0.0717   65.4218   80.6262 C   0  0  0  0  0  0  0  0  0  0  0  0
   -0.5033   66.1791   79.8553 O   0  0  0  0  0  0  0  0  0  0  0  0
    0.6588   63.5728   81.2963 H   0  0  0  0  0  0  0  0  0  0  0  0
    0.8486   65.9802   81.7819 C   0  0  0  0  0  0  0  0  0  0  0  0
    1.7366   67.0277   81.5826 C   0  0  0  0  0  0  0  0  0  0  0  0
    2.4334   67.5112   82.6829 C   0  0  0  0  0  0  0  0  0  0  0  0
    2.2190   66.9376   83.9339 C   0  0  0  0  0  0  0  0  0  0  0  0
    1.3039   65.8914   84.0581 C   0  0  0  0  0  0  0  0  0  0  0  0
    0.6180   65.3947   82.9955 N   0  0  0  0  0  0  0  0  0  0  0  0
    1.0627   65.2430   85.4057 C   0  0  0  0  0  0  0  0  0  0  0  0
    0.7283   63.8557   85.3089 O   0  0  0  0  0  0  0  0  0  0  0  0
   -0.4381   63.4272   85.8797 C   0  0  0  0  0  0  0  0  0  0  0  0
   -1.5068   62.8176   85.2216 C   0  0  0  0  0  0  0  0  0  0  0  0
   -2.6482   62.4387   85.9361 C   0  0  0  0  0  0  0  0  0  0  0  0
   -2.7277   62.6684   87.3083 C   0  0  0  0  0  0  0  0  0  0  0  0
   -1.6667   63.2808   87.9695 C   0  0  0  0  0  0  0  0  0  0  0  0
   -0.5287   63.6596   87.2554 C   0  0  0  0  0  0  0  0  0  0  0  0
   -1.9241   62.0454   78.4933 C   0  0  0  0  0  0  0  0  0  0  0  0
   -0.9312   62.2086   77.5402 C   0  0  0  0  0  0  0  0  0  0  0  0
    0.3420   63.1687   78.1707 S   0  0  0  0  0  0  0  0  0  0  0  0
   -0.5150   63.3024   79.6396 C   0  0  0  0  0  0  0  0  0  0  0  0
   -1.6647   62.6843   79.6984 N   0  0  0  0  0  0  0  0  0  0  0  0
   -3.2104   61.2674   78.3641 C   0  0  0  0  0  0  0  0  0  0  0  0
   -2.9441   59.9486   77.6615 C   0  0  0  0  0  0  0  0  0  0  0  0
   -1.9785   59.2144   77.8052 O   0  0  0  0  0  0  0  0  0  0  0  0
   -3.9583   59.5731   76.8528 O   0  0  0  0  0  0  0  0  0  0  0  0
   -3.6531   58.7306   76.4550 H   0  0  0  0  0  0  0  0  0  0  0  0
   -3.8713   61.0205   79.7345 C   0  0  0  0  0  0  0  0  0  0  0  0
   -3.4442   59.7171   80.4160 C   0  0  0  0  0  0  0  0  0  0  0  0
   -3.1523   59.8469   82.8347 O   0  0  0  0  0  0  0  0  0  0  0  0
   -2.7061   59.9488   81.7060 C   0  0  0  0  0  0  0  0  0  0  0  0
   -1.4358   60.3442   81.5011 O   0  0  0  0  0  0  0  0  0  0  0  0
   -1.0754   60.4573   82.4062 H   0  0  0  0  0  0  0  0  0  0  0  0
 31 32  2  0  0  0
 32 33  1  0  0  0
 32 30  1  0  0  0
 30 29  1  0  0  0
 29 24  1  0  0  0
 24 25  1  0  0  0
 25 26  2  0  0  0
 25 27  1  0  0  0
 24 19  1  0  0  0
 19 20  2  0  0  0
 20 21  1  0  0  0
 21 22  1  0  0  0
 22  1  1  0  0  0
  1  2  1  0  0  0
  2  3  2  0  0  0
  2  5  1  0  0  0
  5  6  1  0  0  0
  6  7  2  0  0  0
  7  8  1  0  0  0
  8  9  2  0  0  0
  9 11  1  0  0  0
 11 12  1  0  0  0
 12 13  1  0  0  0
 13 14  2  0  0  0
 14 15  1  0  0  0
 15 16  2  0  0  0
 16 17  1  0  0  0
 17 18  2  0  0  0
  9 10  1  0  0  0
 22 23  2  0  0  0
 23 19  1  0  0  0
 10  5  2  0  0  0
 18 13  1  0  0  0
 33 34  1  0  0  0
 27 28  1  0  0  0
  1  4  1  0  0  0
M  END
> <minimizedAffinity>
-9.64503

$$$$



 34 36  0  0  0  0  0  0  0  0999 V2000
    0.0053   64.9252   81.9810 N   0  0  0  0  0  0  0  0  0  0  0  0
    0.4376   65.6781   80.9157 C   0  0  0  0  0  0  0  0  0  0  0  0
    0.6152   65.3155   79.7601 O   0  0  0  0  0  0  0  0  0  0  0  0
   -0.0711   65.3807   82.8817 H   0  0  0  0  0  0  0  0  0  0  0  0
    0.7069   67.1028   81.3017 C   0  0  0  0  0  0  0  0  0  0  0  0
   -0.0024   68.1328   80.7006 C   0  0  0  0  0  0  0  0  0  0  0  0
    0.2819   69.4356   81.0905 C   0  0  0  0  0  0  0  0  0  0  0  0
    1.2553   69.6618   82.0607 C   0  0  0  0  0  0  0  0  0  0  0  0
    1.9223   68.5742   82.6260 C   0  0  0  0  0  0  0  0  0  0  0  0
    1.6690   67.2920   82.2542 N   0  0  0  0  0  0  0  0  0  0  0  0
    2.9936   68.7953   83.6740 C   0  0  0  0  0  0  0  0  0  0  0  0
    3.0380   67.7584   84.6582 O   0  0  0  0  0  0  0  0  0  0  0  0
    4.1948   67.0424   84.7958 C   0  0  0  0  0  0  0  0  0  0  0  0
    4.3155   65.7585   85.3284 C   0  0  0  0  0  0  0  0  0  0  0  0
    5.5718   65.1497   85.4172 C   0  0  0  0  0  0  0  0  0  0  0  0
    6.7113   65.8203   84.9770 C   0  0  0  0  0  0  0  0  0  0  0  0
    6.5978   67.1035   84.4493 C   0  0  0  0  0  0  0  0  0  0  0  0
    5.3439   67.7106   84.3623 C   0  0  0  0  0  0  0  0  0  0  0  0
   -1.2767   61.6595   81.4781 C   0  0  0  0  0  0  0  0  0  0  0  0
   -0.1366   61.2216   82.1334 C   0  0  0  0  0  0  0  0  0  0  0  0
    0.8316   62.5597   82.5944 S   0  0  0  0  0  0  0  0  0  0  0  0
   -0.3163   63.6059   81.8889 C   0  0  0  0  0  0  0  0  0  0  0  0
   -1.3618   63.0392   81.3475 N   0  0  0  0  0  0  0  0  0  0  0  0
   -2.3993   60.8222   80.9168 C   0  0  0  0  0  0  0  0  0  0  0  0
   -2.9381   59.8980   81.9936 C   0  0  0  0  0  0  0  0  0  0  0  0
   -3.2310   60.1909   83.1427 O   0  0  0  0  0  0  0  0  0  0  0  0
   -3.1567   58.6434   81.5442 O   0  0  0  0  0  0  0  0  0  0  0  0
   -3.4798   58.1560   82.3311 H   0  0  0  0  0  0  0  0  0  0  0  0
   -3.5332   61.6941   80.3426 C   0  0  0  0  0  0  0  0  0  0  0  0
   -3.7614   61.5227   78.8378 C   0  0  0  0  0  0  0  0  0  0  0  0
   -2.7373   59.6595   77.6413 O   0  0  0  0  0  0  0  0  0  0  0  0
   -3.5985   60.0984   78.3823 C   0  0  0  0  0  0  0  0  0  0  0  0
   -4.5702   59.2978   78.8585 O   0  0  0  0  0  0  0  0  0  0  0  0
   -4.3482   58.4151   78.4933 H   0  0  0  0  0  0  0  0  0  0  0  0
 31 32  2  0  0  0
 32 33  1  0  0  0
 32 30  1  0  0  0
 30 29  1  0  0  0
 29 24  1  0  0  0
 24 25  1  0  0  0
 25 26  2  0  0  0
 25 27  1  0  0  0
 24 19  1  0  0  0
 19 20  2  0  0  0
 20 21  1  0  0  0
 21 22  1  0  0  0
 22  1  1  0  0  0
  1  2  1  0  0  0
  2  3  2  0  0  0
  2  5  1  0  0  0
  5  6  1  0  0  0
  6  7  2  0  0  0
  7  8  1  0  0  0
  8  9  2  0  0  0
  9 11  1  0  0  0
 11 12  1  0  0  0
 12 13  1  0  0  0
 13 14  2  0  0  0
 14 15  1  0  0  0
 15 16  2  0  0  0
 16 17  1  0  0  0
 17 18  2  0  0  0
  9 10  1  0  0  0
 22 23  2  0  0  0
 23 19  1  0  0  0
 10  5  2  0  0  0
 18 13  1  0  0  0
 33 34  1  0  0  0
 27 28  1  0  0  0
  1  4  1  0  0  0
M  END
> <minimizedAffinity>
-9.50962

$$$$



 34 36  0  0  0  0  0  0  0  0999 V2000
   -0.0269   63.6424   80.7901 N   0  0  0  0  0  0  0  0  0  0  0  0
   -0.0827   62.9320   81.9653 C   0  0  0  0  0  0  0  0  0  0  0  0
   -0.3864   61.7564   82.1208 O   0  0  0  0  0  0  0  0  0  0  0  0
    0.2281   64.6206   80.8407 H   0  0  0  0  0  0  0  0  0  0  0  0
    0.2816   63.7733   83.1530 C   0  0  0  0  0  0  0  0  0  0  0  0
   -0.0625   63.3584   84.4317 C   0  0  0  0  0  0  0  0  0  0  0  0
    0.2962   64.1708   85.5002 C   0  0  0  0  0  0  0  0  0  0  0  0
    0.9822   65.3581   85.2560 C   0  0  0  0  0  0  0  0  0  0  0  0
    1.3005   65.7058   83.9426 C   0  0  0  0  0  0  0  0  0  0  0  0
    0.9520   64.9331   82.8806 N   0  0  0  0  0  0  0  0  0  0  0  0
    2.0350   66.9980   83.6507 C   0  0  0  0  0  0  0  0  0  0  0  0
    3.4487   66.8228   83.5220 O   0  0  0  0  0  0  0  0  0  0  0  0
    4.2085   66.8144   84.6589 C   0  0  0  0  0  0  0  0  0  0  0  0
    4.5445   67.9218   85.4384 C   0  0  0  0  0  0  0  0  0  0  0  0
    5.3427   67.7641   86.5763 C   0  0  0  0  0  0  0  0  0  0  0  0
    5.8095   66.5022   86.9389 C   0  0  0  0  0  0  0  0  0  0  0  0
    5.4817   65.3942   86.1623 C   0  0  0  0  0  0  0  0  0  0  0  0
    4.6863   65.5528   85.0263 C   0  0  0  0  0  0  0  0  0  0  0  0
   -1.1580   61.9909   77.8652 C   0  0  0  0  0  0  0  0  0  0  0  0
   -0.1111   62.6322   77.2219 C   0  0  0  0  0  0  0  0  0  0  0  0
    0.7668   63.5955   78.3361 S   0  0  0  0  0  0  0  0  0  0  0  0
   -0.3018   63.1031   79.5711 C   0  0  0  0  0  0  0  0  0  0  0  0
   -1.2506   62.2757   79.2211 N   0  0  0  0  0  0  0  0  0  0  0  0
   -2.1686   61.0435   77.2676 C   0  0  0  0  0  0  0  0  0  0  0  0
   -1.6076   59.6332   77.2592 C   0  0  0  0  0  0  0  0  0  0  0  0
   -1.9387   58.7085   76.5329 O   0  0  0  0  0  0  0  0  0  0  0  0
   -0.5877   59.4712   78.1294 O   0  0  0  0  0  0  0  0  0  0  0  0
   -0.3365   58.5280   78.0368 H   0  0  0  0  0  0  0  0  0  0  0  0
   -3.5097   61.0821   78.0265 C   0  0  0  0  0  0  0  0  0  0  0  0
   -3.7077   59.9316   79.0178 C   0  0  0  0  0  0  0  0  0  0  0  0
   -3.9696   60.9723   81.2088 O   0  0  0  0  0  0  0  0  0  0  0  0
   -3.3231   60.3016   80.4242 C   0  0  0  0  0  0  0  0  0  0  0  0
   -2.1055   59.8348   80.7580 O   0  0  0  0  0  0  0  0  0  0  0  0
   -1.9812   60.1405   81.6816 H   0  0  0  0  0  0  0  0  0  0  0  0
 31 32  2  0  0  0
 32 33  1  0  0  0
 32 30  1  0  0  0
 30 29  1  0  0  0
 29 24  1  0  0  0
 24 25  1  0  0  0
 25 26  2  0  0  0
 25 27  1  0  0  0
 24 19  1  0  0  0
 19 20  2  0  0  0
 20 21  1  0  0  0
 21 22  1  0  0  0
 22  1  1  0  0  0
  1  2  1  0  0  0
  2  3  2  0  0  0
  2  5  1  0  0  0
  5  6  1  0  0  0
  6  7  2  0  0  0
  7  8  1  0  0  0
  8  9  2  0  0  0
  9 11  1  0  0  0
 11 12  1  0  0  0
 12 13  1  0  0  0
 13 14  2  0  0  0
 14 15  1  0  0  0
 15 16  2  0  0  0
 16 17  1  0  0  0
 17 18  2  0  0  0
  9 10  1  0  0  0
 22 23  2  0  0  0
 23 19  1  0  0  0
 10  5  2  0  0  0
 18 13  1  0  0  0
 33 34  1  0  0  0
 27 28  1  0  0  0
  1  4  1  0  0  0
M  END
> <minimizedAffinity>
-9.22075

$$$$



 34 36  0  0  0  0  0  0  0  0999 V2000
   -0.6674   62.8044   81.8491 N   0  0  0  0  0  0  0  0  0  0  0  0
   -0.6968   62.3530   83.1468 C   0  0  0  0  0  0  0  0  0  0  0  0
   -1.1316   61.2873   83.5638 O   0  0  0  0  0  0  0  0  0  0  0  0
   -0.2856   63.7260   81.6777 H   0  0  0  0  0  0  0  0  0  0  0  0
   -0.1119   63.3479   84.1055 C   0  0  0  0  0  0  0  0  0  0  0  0
   -0.4051   63.2655   85.4594 C   0  0  0  0  0  0  0  0  0  0  0  0
    0.1599   64.2091   86.3083 C   0  0  0  0  0  0  0  0  0  0  0  0
    0.9927   65.1924   85.7797 C   0  0  0  0  0  0  0  0  0  0  0  0
    1.2476   65.2071   84.4078 C   0  0  0  0  0  0  0  0  0  0  0  0
    0.6991   64.3015   83.5562 N   0  0  0  0  0  0  0  0  0  0  0  0
    2.1400   66.2739   83.8077 C   0  0  0  0  0  0  0  0  0  0  0  0
    2.9371   66.9520   84.7826 O   0  0  0  0  0  0  0  0  0  0  0  0
    4.2799   66.6956   84.8163 C   0  0  0  0  0  0  0  0  0  0  0  0
    5.2901   67.5018   84.2908 C   0  0  0  0  0  0  0  0  0  0  0  0
    6.6281   67.1058   84.3896 C   0  0  0  0  0  0  0  0  0  0  0  0
    6.9621   65.9040   85.0109 C   0  0  0  0  0  0  0  0  0  0  0  0
    5.9581   65.0930   85.5327 C   0  0  0  0  0  0  0  0  0  0  0  0
    4.6232   65.4884   85.4324 C   0  0  0  0  0  0  0  0  0  0  0  0
   -1.3444   60.8534   78.9686 C   0  0  0  0  0  0  0  0  0  0  0  0
   -2.6811   61.0237   79.2930 C   0  0  0  0  0  0  0  0  0  0  0  0
   -2.8293   61.9780   80.7099 S   0  0  0  0  0  0  0  0  0  0  0  0
   -1.1286   62.0833   80.7910 C   0  0  0  0  0  0  0  0  0  0  0  0
   -0.4642   61.4732   79.8456 N   0  0  0  0  0  0  0  0  0  0  0  0
   -0.7663   60.0962   77.7987 C   0  0  0  0  0  0  0  0  0  0  0  0
   -1.7588   59.0509   77.3232 C   0  0  0  0  0  0  0  0  0  0  0  0
   -2.6000   59.1729   76.4459 O   0  0  0  0  0  0  0  0  0  0  0  0
   -1.5934   57.8574   77.9332 O   0  0  0  0  0  0  0  0  0  0  0  0
   -2.2977   57.2906   77.5537 H   0  0  0  0  0  0  0  0  0  0  0  0
   -0.3826   61.0370   76.6397 C   0  0  0  0  0  0  0  0  0  0  0  0
   -1.1326   62.3724   76.6356 C   0  0  0  0  0  0  0  0  0  0  0  0
   -0.4561   64.7163   76.6615 O   0  0  0  0  0  0  0  0  0  0  0  0
   -0.2344   63.5460   76.9159 C   0  0  0  0  0  0  0  0  0  0  0  0
    0.9327   63.1717   77.4723 O   0  0  0  0  0  0  0  0  0  0  0  0
    1.4139   64.0165   77.6011 H   0  0  0  0  0  0  0  0  0  0  0  0
 31 32  2  0  0  0
 32 33  1  0  0  0
 32 30  1  0  0  0
 30 29  1  0  0  0
 29 24  1  0  0  0
 24 25  1  0  0  0
 25 26  2  0  0  0
 25 27  1  0  0  0
 24 19  1  0  0  0
 19 20  2  0  0  0
 20 21  1  0  0  0
 21 22  1  0  0  0
 22  1  1  0  0  0
  1  2  1  0  0  0
  2  3  2  0  0  0
  2  5  1  0  0  0
  5  6  1  0  0  0
  6  7  2  0  0  0
  7  8  1  0  0  0
  8  9  2  0  0  0
  9 11  1  0  0  0
 11 12  1  0  0  0
 12 13  1  0  0  0
 13 14  2  0  0  0
 14 15  1  0  0  0
 15 16  2  0  0  0
 16 17  1  0  0  0
 17 18  2  0  0  0
  9 10  1  0  0  0
 22 23  2  0  0  0
 23 19  1  0  0  0
 10  5  2  0  0  0
 18 13  1  0  0  0
 33 34  1  0  0  0
 27 28  1  0  0  0
  1  4  1  0  0  0
M  END
> <minimizedAffinity>
-9.16962

$$$$



 34 36  0  0  0  0  0  0  0  0999 V2000
    0.1231   64.4568   80.3324 N   0  0  0  0  0  0  0  0  0  0  0  0
    0.5610   64.8486   81.5747 C   0  0  0  0  0  0  0  0  0  0  0  0
    0.4672   64.2400   82.6327 O   0  0  0  0  0  0  0  0  0  0  0  0
    0.2657   65.0934   79.5584 H   0  0  0  0  0  0  0  0  0  0  0  0
    1.2163   66.1980   81.5443 C   0  0  0  0  0  0  0  0  0  0  0  0
    1.3423   66.8838   80.3445 C   0  0  0  0  0  0  0  0  0  0  0  0
    1.9562   68.1299   80.3662 C   0  0  0  0  0  0  0  0  0  0  0  0
    2.4171   68.6439   81.5759 C   0  0  0  0  0  0  0  0  0  0  0  0
    2.2480   67.8989   82.7437 C   0  0  0  0  0  0  0  0  0  0  0  0
    1.6599   66.6740   82.7465 N   0  0  0  0  0  0  0  0  0  0  0  0
    2.7519   68.4311   84.0694 C   0  0  0  0  0  0  0  0  0  0  0  0
    4.1766   68.3855   84.1871 O   0  0  0  0  0  0  0  0  0  0  0  0
    4.7334   67.4086   84.9652 C   0  0  0  0  0  0  0  0  0  0  0  0
    4.9524   66.0809   84.5965 C   0  0  0  0  0  0  0  0  0  0  0  0
    5.5249   65.1845   85.5051 C   0  0  0  0  0  0  0  0  0  0  0  0
    5.8787   65.6091   86.7843 C   0  0  0  0  0  0  0  0  0  0  0  0
    5.6580   66.9314   87.1596 C   0  0  0  0  0  0  0  0  0  0  0  0
    5.0855   67.8248   86.2527 C   0  0  0  0  0  0  0  0  0  0  0  0
   -1.9249   61.5924   79.9292 C   0  0  0  0  0  0  0  0  0  0  0  0
   -0.8117   61.0042   79.3498 C   0  0  0  0  0  0  0  0  0  0  0  0
    0.5034   62.1045   79.3442 S   0  0  0  0  0  0  0  0  0  0  0  0
   -0.4946   63.2680   80.0926 C   0  0  0  0  0  0  0  0  0  0  0  0
   -1.7211   62.8993   80.3518 N   0  0  0  0  0  0  0  0  0  0  0  0
   -3.2863   60.9796   80.1468 C   0  0  0  0  0  0  0  0  0  0  0  0
   -3.4210   59.7191   79.3120 C   0  0  0  0  0  0  0  0  0  0  0  0
   -3.5765   59.6445   78.1027 O   0  0  0  0  0  0  0  0  0  0  0  0
   -3.2768   58.5915   80.0410 O   0  0  0  0  0  0  0  0  0  0  0  0
   -3.4030   57.8658   79.3940 H   0  0  0  0  0  0  0  0  0  0  0  0
   -3.5436   60.6672   81.6341 C   0  0  0  0  0  0  0  0  0  0  0  0
   -2.2918   60.7159   82.5153 C   0  0  0  0  0  0  0  0  0  0  0  0
   -2.7933   61.4598   84.7841 O   0  0  0  0  0  0  0  0  0  0  0  0
   -2.4160   61.6953   83.6502 C   0  0  0  0  0  0  0  0  0  0  0  0
   -2.0933   62.9481   83.2784 O   0  0  0  0  0  0  0  0  0  0  0  0
   -2.2145   63.4752   84.0966 H   0  0  0  0  0  0  0  0  0  0  0  0
 31 32  2  0  0  0
 32 33  1  0  0  0
 32 30  1  0  0  0
 30 29  1  0  0  0
 29 24  1  0  0  0
 24 25  1  0  0  0
 25 26  2  0  0  0
 25 27  1  0  0  0
 24 19  1  0  0  0
 19 20  2  0  0  0
 20 21  1  0  0  0
 21 22  1  0  0  0
 22  1  1  0  0  0
  1  2  1  0  0  0
  2  3  2  0  0  0
  2  5  1  0  0  0
  5  6  1  0  0  0
  6  7  2  0  0  0
  7  8  1  0  0  0
  8  9  2  0  0  0
  9 11  1  0  0  0
 11 12  1  0  0  0
 12 13  1  0  0  0
 13 14  2  0  0  0
 14 15  1  0  0  0
 15 16  2  0  0  0
 16 17  1  0  0  0
 17 18  2  0  0  0
  9 10  1  0  0  0
 22 23  2  0  0  0
 23 19  1  0  0  0
 10  5  2  0  0  0
 18 13  1  0  0  0
 33 34  1  0  0  0
 27 28  1  0  0  0
  1  4  1  0  0  0
M  END
> <minimizedAffinity>
-9.14351

$$$$



 34 36  0  0  0  0  0  0  0  0999 V2000
    0.2124   64.6581   79.5877 N   0  0  0  0  0  0  0  0  0  0  0  0
    0.3776   64.8256   80.9417 C   0  0  0  0  0  0  0  0  0  0  0  0
    0.0032   64.0868   81.8431 O   0  0  0  0  0  0  0  0  0  0  0  0
    0.5708   65.3795   78.9749 H   0  0  0  0  0  0  0  0  0  0  0  0
    1.1098   66.0934   81.2700 C   0  0  0  0  0  0  0  0  0  0  0  0
    1.4695   66.9716   80.2576 C   0  0  0  0  0  0  0  0  0  0  0  0
    2.1462   68.1325   80.6103 C   0  0  0  0  0  0  0  0  0  0  0  0
    2.4355   68.3745   81.9511 C   0  0  0  0  0  0  0  0  0  0  0  0
    2.0350   67.4480   82.9147 C   0  0  0  0  0  0  0  0  0  0  0  0
    1.3811   66.3010   82.5936 N   0  0  0  0  0  0  0  0  0  0  0  0
    2.3490   67.6829   84.3778 C   0  0  0  0  0  0  0  0  0  0  0  0
    3.6839   68.1474   84.5975 O   0  0  0  0  0  0  0  0  0  0  0  0
    4.6719   67.2206   84.7840 C   0  0  0  0  0  0  0  0  0  0  0  0
    4.5214   65.9510   85.3428 C   0  0  0  0  0  0  0  0  0  0  0  0
    5.6294   65.1085   85.4818 C   0  0  0  0  0  0  0  0  0  0  0  0
    6.8907   65.5304   85.0656 C   0  0  0  0  0  0  0  0  0  0  0  0
    7.0479   66.7980   84.5119 C   0  0  0  0  0  0  0  0  0  0  0  0
    5.9419   67.6384   84.3749 C   0  0  0  0  0  0  0  0  0  0  0  0
   -1.8380   62.0025   78.4450 C   0  0  0  0  0  0  0  0  0  0  0  0
   -0.7540   61.6387   77.6617 C   0  0  0  0  0  0  0  0  0  0  0  0
    0.5527   62.7181   77.9218 S   0  0  0  0  0  0  0  0  0  0  0  0
   -0.4105   63.5825   79.0330 C   0  0  0  0  0  0  0  0  0  0  0  0
   -1.6193   63.1270   79.2297 N   0  0  0  0  0  0  0  0  0  0  0  0
   -3.1824   61.3237   78.5354 C   0  0  0  0  0  0  0  0  0  0  0  0
   -3.0920   59.9263   77.9499 C   0  0  0  0  0  0  0  0  0  0  0  0
   -2.4459   58.9831   78.3801 O   0  0  0  0  0  0  0  0  0  0  0  0
   -3.8911   59.7575   76.8745 O   0  0  0  0  0  0  0  0  0  0  0  0
   -3.7241   58.8343   76.5898 H   0  0  0  0  0  0  0  0  0  0  0  0
   -3.6983   61.2642   79.9867 C   0  0  0  0  0  0  0  0  0  0  0  0
   -2.6177   60.9630   81.0293 C   0  0  0  0  0  0  0  0  0  0  0  0
   -3.0708   59.8482   83.1516 O   0  0  0  0  0  0  0  0  0  0  0  0
   -2.9858   59.8213   81.9369 C   0  0  0  0  0  0  0  0  0  0  0  0
   -3.1893   58.6770   81.2578 O   0  0  0  0  0  0  0  0  0  0  0  0
   -3.4183   58.0267   81.9554 H   0  0  0  0  0  0  0  0  0  0  0  0
 31 32  2  0  0  0
 32 33  1  0  0  0
 32 30  1  0  0  0
 30 29  1  0  0  0
 29 24  1  0  0  0
 24 25  1  0  0  0
 25 26  2  0  0  0
 25 27  1  0  0  0
 24 19  1  0  0  0
 19 20  2  0  0  0
 20 21  1  0  0  0
 21 22  1  0  0  0
 22  1  1  0  0  0
  1  2  1  0  0  0
  2  3  2  0  0  0
  2  5  1  0  0  0
  5  6  1  0  0  0
  6  7  2  0  0  0
  7  8  1  0  0  0
  8  9  2  0  0  0
  9 11  1  0  0  0
 11 12  1  0  0  0
 12 13  1  0  0  0
 13 14  2  0  0  0
 14 15  1  0  0  0
 15 16  2  0  0  0
 16 17  1  0  0  0
 17 18  2  0  0  0
  9 10  1  0  0  0
 22 23  2  0  0  0
 23 19  1  0  0  0
 10  5  2  0  0  0
 18 13  1  0  0  0
 33 34  1  0  0  0
 27 28  1  0  0  0
  1  4  1  0  0  0
M  END
> <minimizedAffinity>
-9.11760

$$$$



 34 36  0  0  0  0  0  0  0  0999 V2000
    0.2564   65.4139   81.0716 N   0  0  0  0  0  0  0  0  0  0  0  0
    1.0963   66.2657   80.3950 C   0  0  0  0  0  0  0  0  0  0  0  0
    1.7032   66.0545   79.3530 O   0  0  0  0  0  0  0  0  0  0  0  0
   -0.1543   65.7430   81.9362 H   0  0  0  0  0  0  0  0  0  0  0  0
    1.2358   67.5902   81.0859 C   0  0  0  0  0  0  0  0  0  0  0  0
    0.6028   68.7132   80.5724 C   0  0  0  0  0  0  0  0  0  0  0  0
    0.7612   69.9175   81.2467 C   0  0  0  0  0  0  0  0  0  0  0  0
    1.5382   69.9569   82.4020 C   0  0  0  0  0  0  0  0  0  0  0  0
    2.1382   68.7841   82.8624 C   0  0  0  0  0  0  0  0  0  0  0  0
    2.0062   67.5968   82.2151 N   0  0  0  0  0  0  0  0  0  0  0  0
    2.9979   68.8042   84.1095 C   0  0  0  0  0  0  0  0  0  0  0  0
    4.2521   68.1385   83.9369 O   0  0  0  0  0  0  0  0  0  0  0  0
    4.7220   67.3624   84.9600 C   0  0  0  0  0  0  0  0  0  0  0  0
    5.2305   67.8165   86.1774 C   0  0  0  0  0  0  0  0  0  0  0  0
    5.6878   66.9026   87.1326 C   0  0  0  0  0  0  0  0  0  0  0  0
    5.6409   65.5337   86.8758 C   0  0  0  0  0  0  0  0  0  0  0  0
    5.1391   65.0749   85.6610 C   0  0  0  0  0  0  0  0  0  0  0  0
    4.6843   65.9877   84.7079 C   0  0  0  0  0  0  0  0  0  0  0  0
   -0.6992   62.3812   79.5059 C   0  0  0  0  0  0  0  0  0  0  0  0
   -0.2400   61.7613   80.6573 C   0  0  0  0  0  0  0  0  0  0  0  0
    0.3430   62.9313   81.7670 S   0  0  0  0  0  0  0  0  0  0  0  0
   -0.0435   64.1567   80.6450 C   0  0  0  0  0  0  0  0  0  0  0  0
   -0.5773   63.7643   79.5187 N   0  0  0  0  0  0  0  0  0  0  0  0
   -1.3026   61.7326   78.2846 C   0  0  0  0  0  0  0  0  0  0  0  0
   -0.3254   61.8116   77.1259 C   0  0  0  0  0  0  0  0  0  0  0  0
    0.0621   60.8934   76.4196 O   0  0  0  0  0  0  0  0  0  0  0  0
    0.0675   63.0758   76.8588 O   0  0  0  0  0  0  0  0  0  0  0  0
    0.6995   62.9821   76.1152 H   0  0  0  0  0  0  0  0  0  0  0  0
   -1.7004   60.2674   78.5509 C   0  0  0  0  0  0  0  0  0  0  0  0
   -3.2010   60.0497   78.7668 C   0  0  0  0  0  0  0  0  0  0  0  0
   -3.3207   59.6560   81.1715 O   0  0  0  0  0  0  0  0  0  0  0  0
   -3.5035   59.2846   80.0261 C   0  0  0  0  0  0  0  0  0  0  0  0
   -3.9888   58.0554   79.7702 O   0  0  0  0  0  0  0  0  0  0  0  0
   -4.1409   57.6723   80.6601 H   0  0  0  0  0  0  0  0  0  0  0  0
 31 32  2  0  0  0
 32 33  1  0  0  0
 32 30  1  0  0  0
 30 29  1  0  0  0
 29 24  1  0  0  0
 24 25  1  0  0  0
 25 26  2  0  0  0
 25 27  1  0  0  0
 24 19  1  0  0  0
 19 20  2  0  0  0
 20 21  1  0  0  0
 21 22  1  0  0  0
 22  1  1  0  0  0
  1  2  1  0  0  0
  2  3  2  0  0  0
  2  5  1  0  0  0
  5  6  1  0  0  0
  6  7  2  0  0  0
  7  8  1  0  0  0
  8  9  2  0  0  0
  9 11  1  0  0  0
 11 12  1  0  0  0
 12 13  1  0  0  0
 13 14  2  0  0  0
 14 15  1  0  0  0
 15 16  2  0  0  0
 16 17  1  0  0  0
 17 18  2  0  0  0
  9 10  1  0  0  0
 22 23  2  0  0  0
 23 19  1  0  0  0
 10  5  2  0  0  0
 18 13  1  0  0  0
 33 34  1  0  0  0
 27 28  1  0  0  0
  1  4  1  0  0  0
M  END
> <minimizedAffinity>
-9.10764

$$$$



 34 36  0  0  0  0  0  0  0  0999 V2000
   -1.0057   62.4490   82.2013 N   0  0  0  0  0  0  0  0  0  0  0  0
   -1.4116   62.0123   83.4395 C   0  0  0  0  0  0  0  0  0  0  0  0
   -2.1565   61.0767   83.7012 O   0  0  0  0  0  0  0  0  0  0  0  0
   -0.3961   63.2560   82.1611 H   0  0  0  0  0  0  0  0  0  0  0  0
   -0.8315   62.8387   84.5493 C   0  0  0  0  0  0  0  0  0  0  0  0
   -1.1138   62.5253   85.8713 C   0  0  0  0  0  0  0  0  0  0  0  0
   -0.5539   63.3194   86.8643 C   0  0  0  0  0  0  0  0  0  0  0  0
    0.2635   64.3884   86.5050 C   0  0  0  0  0  0  0  0  0  0  0  0
    0.5080   64.6376   85.1539 C   0  0  0  0  0  0  0  0  0  0  0  0
   -0.0359   63.8816   84.1645 N   0  0  0  0  0  0  0  0  0  0  0  0
    1.3834   65.8018   84.7377 C   0  0  0  0  0  0  0  0  0  0  0  0
    1.1348   66.2400   83.3991 O   0  0  0  0  0  0  0  0  0  0  0  0
    1.8048   67.3404   82.9407 C   0  0  0  0  0  0  0  0  0  0  0  0
    1.5529   68.0279   81.7530 C   0  0  0  0  0  0  0  0  0  0  0  0
    2.3301   69.1377   81.4050 C   0  0  0  0  0  0  0  0  0  0  0  0
    3.3617   69.5637   82.2394 C   0  0  0  0  0  0  0  0  0  0  0  0
    3.6211   68.8787   83.4233 C   0  0  0  0  0  0  0  0  0  0  0  0
    2.8458   67.7706   83.7690 C   0  0  0  0  0  0  0  0  0  0  0  0
   -1.4657   60.7972   79.0994 C   0  0  0  0  0  0  0  0  0  0  0  0
   -2.8120   61.0824   79.2636 C   0  0  0  0  0  0  0  0  0  0  0  0
   -3.0608   61.9401   80.7274 S   0  0  0  0  0  0  0  0  0  0  0  0
   -1.3847   61.8601   81.0342 C   0  0  0  0  0  0  0  0  0  0  0  0
   -0.6584   61.2549   80.1322 N   0  0  0  0  0  0  0  0  0  0  0  0
   -0.8079   60.0716   77.9517 C   0  0  0  0  0  0  0  0  0  0  0  0
   -1.7481   59.0110   77.4087 C   0  0  0  0  0  0  0  0  0  0  0  0
   -2.5296   59.1209   76.4763 O   0  0  0  0  0  0  0  0  0  0  0  0
   -1.6048   57.8192   78.0274 O   0  0  0  0  0  0  0  0  0  0  0  0
   -2.2721   57.2417   77.6003 H   0  0  0  0  0  0  0  0  0  0  0  0
   -0.3854   61.0389   76.8284 C   0  0  0  0  0  0  0  0  0  0  0  0
   -1.1042   62.3910   76.8558 C   0  0  0  0  0  0  0  0  0  0  0  0
   -0.2556   64.6763   76.7596 O   0  0  0  0  0  0  0  0  0  0  0  0
   -0.1819   63.5348   77.1778 C   0  0  0  0  0  0  0  0  0  0  0  0
    0.8255   63.1628   77.9895 O   0  0  0  0  0  0  0  0  0  0  0  0
    1.3413   63.9871   78.1177 H   0  0  0  0  0  0  0  0  0  0  0  0
 31 32  2  0  0  0
 32 33  1  0  0  0
 32 30  1  0  0  0
 30 29  1  0  0  0
 29 24  1  0  0  0
 24 25  1  0  0  0
 25 26  2  0  0  0
 25 27  1  0  0  0
 24 19  1  0  0  0
 19 20  2  0  0  0
 20 21  1  0  0  0
 21 22  1  0  0  0
 22  1  1  0  0  0
  1  2  1  0  0  0
  2  3  2  0  0  0
  2  5  1  0  0  0
  5  6  1  0  0  0
  6  7  2  0  0  0
  7  8  1  0  0  0
  8  9  2  0  0  0
  9 11  1  0  0  0
 11 12  1  0  0  0
 12 13  1  0  0  0
 13 14  2  0  0  0
 14 15  1  0  0  0
 15 16  2  0  0  0
 16 17  1  0  0  0
 17 18  2  0  0  0
  9 10  1  0  0  0
 22 23  2  0  0  0
 23 19  1  0  0  0
 10  5  2  0  0  0
 18 13  1  0  0  0
 33 34  1  0  0  0
 27 28  1  0  0  0
  1  4  1  0  0  0
M  END
> <minimizedAffinity>
-9.00838

$$$$
