


 24 26  0  0  0  0  0  0  0  0999 V2000
    4.7275   67.0908   84.8016 C   0  0  0  0  0  0  0  0  0  0  0  0
    5.0331   68.1833   84.0759 N   0  0  0  0  0  0  0  0  0  0  0  0
    3.9140   68.4186   83.3465 N   0  0  0  0  0  0  0  0  0  0  0  0
    3.8735   69.5312   82.4282 C   0  0  0  0  0  0  0  0  0  0  0  0
    2.9202   67.5240   83.5929 C   0  0  0  0  0  0  0  0  0  0  0  0
    1.6113   67.4088   83.0649 C   0  0  0  0  0  0  0  0  0  0  0  0
    1.1037   68.1567   82.2387 O   0  0  0  0  0  0  0  0  0  0  0  0
    0.9424   66.3308   83.6056 N   0  0  0  0  0  0  0  0  0  0  0  0
    1.4969   65.4733   84.5503 C   0  0  0  0  0  0  0  0  0  0  0  0
    2.6978   65.5893   85.0439 N   0  0  0  0  0  0  0  0  0  0  0  0
    3.4206   66.6618   84.5206 C   0  0  0  0  0  0  0  0  0  0  0  0
    0.0080   66.1956   83.2346 H   0  0  0  0  0  0  0  0  0  0  0  0
    0.6284   64.3776   85.0593 C   0  0  0  0  0  0  0  0  0  0  0  0
    0.4688   64.2944   86.4515 C   0  0  0  0  0  0  0  0  0  0  0  0
   -0.2955   63.2712   87.0231 C   0  0  0  0  0  0  0  0  0  0  0  0
   -0.8994   62.3072   86.2154 C   0  0  0  0  0  0  0  0  0  0  0  0
   -0.7398   62.3608   84.8319 C   0  0  0  0  0  0  0  0  0  0  0  0
    0.0224   63.3959   84.2707 C   0  0  0  0  0  0  0  0  0  0  0  0
    0.1713   63.3997   82.8369 N   0  0  0  0  0  0  0  0  0  0  0  0
    1.0007   62.6247   82.3491 O   0  0  0  0  0  0  0  0  0  0  0  0
   -0.5712   64.1672   82.2085 O   0  0  0  0  0  0  0  0  0  0  0  0
    5.7137   66.5001   85.7484 C   0  0  0  0  0  0  0  0  0  0  0  0
    8.0586   66.0864   84.9209 C   0  0  0  0  0  0  0  0  0  0  0  0
    6.6566   65.5144   85.0571 C   0  0  0  0  0  0  0  0  0  0  0  0
 23 24  1  0  0  0
 24 22  1  0  0  0
 22  1  1  0  0  0
  1  2  2  0  0  0
  2  3  1  0  0  0
  3  4  1  0  0  0
  3  5  1  0  0  0
  5  6  1  0  0  0
  6  7  2  0  0  0
  6  8  1  0  0  0
  8  9  1  0  0  0
  9 13  1  0  0  0
 13 14  2  0  0  0
 14 15  1  0  0  0
 15 16  2  0  0  0
 16 17  1  0  0  0
 17 18  2  0  0  0
 18 19  1  0  0  0
 19 20  2  0  0  0
 19 21  1  0  0  0
  9 10  2  0  0  0
 10 11  1  0  0  0
 11  1  1  0  0  0
 11  5  2  0  0  0
 18 13  1  0  0  0
  8 12  1  0  0  0
M  CHG 1  19   1
M  CHG 1  21  -1
M  END
> <minimizedAffinity>
-8.43323

$$$$



 24 26  0  0  0  0  0  0  0  0999 V2000
   -1.7243   62.1220   79.1379 C   0  0  0  0  0  0  0  0  0  0  0  0
   -2.4452   61.0600   78.7306 N   0  0  0  0  0  0  0  0  0  0  0  0
   -2.7233   60.3906   79.8771 N   0  0  0  0  0  0  0  0  0  0  0  0
   -3.4913   59.1696   79.8302 C   0  0  0  0  0  0  0  0  0  0  0  0
   -2.2133   60.9949   80.9832 C   0  0  0  0  0  0  0  0  0  0  0  0
   -2.2733   60.6444   82.3539 C   0  0  0  0  0  0  0  0  0  0  0  0
   -2.8461   59.6671   82.8191 O   0  0  0  0  0  0  0  0  0  0  0  0
   -1.6005   61.5579   83.1381 N   0  0  0  0  0  0  0  0  0  0  0  0
   -0.9497   62.6783   82.6317 C   0  0  0  0  0  0  0  0  0  0  0  0
   -0.9069   63.0052   81.3706 N   0  0  0  0  0  0  0  0  0  0  0  0
   -1.5664   62.1053   80.5328 C   0  0  0  0  0  0  0  0  0  0  0  0
   -1.5962   61.3302   84.1266 H   0  0  0  0  0  0  0  0  0  0  0  0
   -0.3004   63.5844   83.6172 C   0  0  0  0  0  0  0  0  0  0  0  0
    0.6092   64.5237   83.1065 C   0  0  0  0  0  0  0  0  0  0  0  0
    1.2992   65.3888   83.9628 C   0  0  0  0  0  0  0  0  0  0  0  0
    1.1034   65.3193   85.3425 C   0  0  0  0  0  0  0  0  0  0  0  0
    0.2180   64.3826   85.8723 C   0  0  0  0  0  0  0  0  0  0  0  0
   -0.4734   63.5263   85.0027 C   0  0  0  0  0  0  0  0  0  0  0  0
   -1.3660   62.5643   85.5993 N   0  0  0  0  0  0  0  0  0  0  0  0
   -0.8622   61.5483   86.0892 O   0  0  0  0  0  0  0  0  0  0  0  0
   -2.5707   62.8542   85.5940 O   0  0  0  0  0  0  0  0  0  0  0  0
   -1.2144   63.1220   78.1591 C   0  0  0  0  0  0  0  0  0  0  0  0
    0.9712   64.3345   78.4871 C   0  0  0  0  0  0  0  0  0  0  0  0
    0.3056   63.0550   78.0061 C   0  0  0  0  0  0  0  0  0  0  0  0
 23 24  1  0  0  0
 24 22  1  0  0  0
 22  1  1  0  0  0
  1  2  2  0  0  0
  2  3  1  0  0  0
  3  4  1  0  0  0
  3  5  1  0  0  0
  5  6  1  0  0  0
  6  7  2  0  0  0
  6  8  1  0  0  0
  8  9  1  0  0  0
  9 13  1  0  0  0
 13 14  2  0  0  0
 14 15  1  0  0  0
 15 16  2  0  0  0
 16 17  1  0  0  0
 17 18  2  0  0  0
 18 19  1  0  0  0
 19 20  2  0  0  0
 19 21  1  0  0  0
  9 10  2  0  0  0
 10 11  1  0  0  0
 11  1  1  0  0  0
 11  5  2  0  0  0
 18 13  1  0  0  0
  8 12  1  0  0  0
M  CHG 1  19   1
M  CHG 1  21  -1
M  END
> <minimizedAffinity>
-8.36148

$$$$



 24 26  0  0  0  0  0  0  0  0999 V2000
   -2.3895   62.1769   84.6868 C   0  0  0  0  0  0  0  0  0  0  0  0
   -2.9554   61.0703   84.1685 N   0  0  0  0  0  0  0  0  0  0  0  0
   -2.3891   60.9538   82.9415 N   0  0  0  0  0  0  0  0  0  0  0  0
   -2.7660   59.8631   82.0748 C   0  0  0  0  0  0  0  0  0  0  0  0
   -1.4876   61.9364   82.6759 C   0  0  0  0  0  0  0  0  0  0  0  0
   -0.6796   62.1842   81.5398 C   0  0  0  0  0  0  0  0  0  0  0  0
   -0.6413   61.5002   80.5248 O   0  0  0  0  0  0  0  0  0  0  0  0
    0.0934   63.3140   81.7073 N   0  0  0  0  0  0  0  0  0  0  0  0
    0.0713   64.1010   82.8543 C   0  0  0  0  0  0  0  0  0  0  0  0
   -0.6643   63.8632   83.9037 N   0  0  0  0  0  0  0  0  0  0  0  0
   -1.4737   62.7335   83.7799 C   0  0  0  0  0  0  0  0  0  0  0  0
    0.6695   63.5436   80.9045 H   0  0  0  0  0  0  0  0  0  0  0  0
    0.9937   65.2680   82.8897 C   0  0  0  0  0  0  0  0  0  0  0  0
    1.7714   65.4222   84.0482 C   0  0  0  0  0  0  0  0  0  0  0  0
    2.6359   66.5135   84.1883 C   0  0  0  0  0  0  0  0  0  0  0  0
    2.7261   67.4751   83.1814 C   0  0  0  0  0  0  0  0  0  0  0  0
    1.9502   67.3508   82.0304 C   0  0  0  0  0  0  0  0  0  0  0  0
    1.0933   66.2482   81.8986 C   0  0  0  0  0  0  0  0  0  0  0  0
    0.3000   66.1720   80.6975 N   0  0  0  0  0  0  0  0  0  0  0  0
   -0.7803   66.7713   80.6903 O   0  0  0  0  0  0  0  0  0  0  0  0
    0.7862   65.5288   79.7567 O   0  0  0  0  0  0  0  0  0  0  0  0
   -2.7536   62.6569   86.0488 C   0  0  0  0  0  0  0  0  0  0  0  0
   -1.4589   63.3167   88.1086 C   0  0  0  0  0  0  0  0  0  0  0  0
   -1.7435   62.2097   87.1062 C   0  0  0  0  0  0  0  0  0  0  0  0
 23 24  1  0  0  0
 24 22  1  0  0  0
 22  1  1  0  0  0
  1  2  2  0  0  0
  2  3  1  0  0  0
  3  4  1  0  0  0
  3  5  1  0  0  0
  5  6  1  0  0  0
  6  7  2  0  0  0
  6  8  1  0  0  0
  8  9  1  0  0  0
  9 13  1  0  0  0
 13 14  2  0  0  0
 14 15  1  0  0  0
 15 16  2  0  0  0
 16 17  1  0  0  0
 17 18  2  0  0  0
 18 19  1  0  0  0
 19 20  2  0  0  0
 19 21  1  0  0  0
  9 10  2  0  0  0
 10 11  1  0  0  0
 11  1  1  0  0  0
 11  5  2  0  0  0
 18 13  1  0  0  0
  8 12  1  0  0  0
M  CHG 1  19   1
M  CHG 1  21  -1
M  END
> <minimizedAffinity>
-8.34976

$$$$



 24 26  0  0  0  0  0  0  0  0999 V2000
    2.6398   67.6604   83.6663 C   0  0  0  0  0  0  0  0  0  0  0  0
    2.6925   68.1516   82.4135 N   0  0  0  0  0  0  0  0  0  0  0  0
    1.8365   67.3651   81.7144 N   0  0  0  0  0  0  0  0  0  0  0  0
    1.6354   67.5954   80.3040 C   0  0  0  0  0  0  0  0  0  0  0  0
    1.2459   66.4093   82.4801 C   0  0  0  0  0  0  0  0  0  0  0  0
    0.3022   65.4033   82.1599 C   0  0  0  0  0  0  0  0  0  0  0  0
   -0.1914   65.2093   81.0562 O   0  0  0  0  0  0  0  0  0  0  0  0
   -0.0193   64.6432   83.2648 N   0  0  0  0  0  0  0  0  0  0  0  0
    0.5235   64.8509   84.5288 C   0  0  0  0  0  0  0  0  0  0  0  0
    1.3825   65.7860   84.8234 N   0  0  0  0  0  0  0  0  0  0  0  0
    1.7481   66.5782   83.7346 C   0  0  0  0  0  0  0  0  0  0  0  0
   -0.6740   63.8923   83.0738 H   0  0  0  0  0  0  0  0  0  0  0  0
    0.0439   63.9641   85.6231 C   0  0  0  0  0  0  0  0  0  0  0  0
    0.2432   64.4186   86.9363 C   0  0  0  0  0  0  0  0  0  0  0  0
   -0.1371   63.6327   88.0297 C   0  0  0  0  0  0  0  0  0  0  0  0
   -0.7081   62.3756   87.8296 C   0  0  0  0  0  0  0  0  0  0  0  0
   -0.8993   61.8974   86.5345 C   0  0  0  0  0  0  0  0  0  0  0  0
   -0.5209   62.6981   85.4468 C   0  0  0  0  0  0  0  0  0  0  0  0
   -0.7241   62.1535   84.1276 N   0  0  0  0  0  0  0  0  0  0  0  0
   -1.8522   62.2609   83.6355 O   0  0  0  0  0  0  0  0  0  0  0  0
    0.2659   61.6439   83.5841 O   0  0  0  0  0  0  0  0  0  0  0  0
    3.4548   68.2604   84.7588 C   0  0  0  0  0  0  0  0  0  0  0  0
    5.3066   67.8541   86.4202 C   0  0  0  0  0  0  0  0  0  0  0  0
    4.6543   67.3871   85.1288 C   0  0  0  0  0  0  0  0  0  0  0  0
 23 24  1  0  0  0
 24 22  1  0  0  0
 22  1  1  0  0  0
  1  2  2  0  0  0
  2  3  1  0  0  0
  3  4  1  0  0  0
  3  5  1  0  0  0
  5  6  1  0  0  0
  6  7  2  0  0  0
  6  8  1  0  0  0
  8  9  1  0  0  0
  9 13  1  0  0  0
 13 14  2  0  0  0
 14 15  1  0  0  0
 15 16  2  0  0  0
 16 17  1  0  0  0
 17 18  2  0  0  0
 18 19  1  0  0  0
 19 20  2  0  0  0
 19 21  1  0  0  0
  9 10  2  0  0  0
 10 11  1  0  0  0
 11  1  1  0  0  0
 11  5  2  0  0  0
 18 13  1  0  0  0
  8 12  1  0  0  0
M  CHG 1  19   1
M  CHG 1  21  -1
M  END
> <minimizedAffinity>
-8.31571

$$$$



 24 26  0  0  0  0  0  0  0  0999 V2000
   -0.5841   62.6613   83.7862 C   0  0  0  0  0  0  0  0  0  0  0  0
   -1.3007   61.8949   84.6303 N   0  0  0  0  0  0  0  0  0  0  0  0
   -0.9159   62.3122   85.8623 N   0  0  0  0  0  0  0  0  0  0  0  0
   -1.4818   61.6990   87.0398 C   0  0  0  0  0  0  0  0  0  0  0  0
    0.0042   63.3124   85.8221 C   0  0  0  0  0  0  0  0  0  0  0  0
    0.6551   64.0286   86.8558 C   0  0  0  0  0  0  0  0  0  0  0  0
    0.4833   63.8668   88.0574 O   0  0  0  0  0  0  0  0  0  0  0  0
    1.5284   64.9668   86.3469 N   0  0  0  0  0  0  0  0  0  0  0  0
    1.7333   65.1724   84.9863 C   0  0  0  0  0  0  0  0  0  0  0  0
    1.1232   64.5201   84.0368 N   0  0  0  0  0  0  0  0  0  0  0  0
    0.2338   63.5505   84.5011 C   0  0  0  0  0  0  0  0  0  0  0  0
    2.0366   65.4857   87.0551 H   0  0  0  0  0  0  0  0  0  0  0  0
    2.6851   66.2497   84.6024 C   0  0  0  0  0  0  0  0  0  0  0  0
    2.1792   67.2795   83.7936 C   0  0  0  0  0  0  0  0  0  0  0  0
    3.0114   68.3125   83.3484 C   0  0  0  0  0  0  0  0  0  0  0  0
    4.3638   68.3254   83.6910 C   0  0  0  0  0  0  0  0  0  0  0  0
    4.8909   67.3036   84.4788 C   0  0  0  0  0  0  0  0  0  0  0  0
    4.0445   66.2779   84.9251 C   0  0  0  0  0  0  0  0  0  0  0  0
    4.6393   65.2357   85.7238 N   0  0  0  0  0  0  0  0  0  0  0  0
    5.4891   64.5200   85.1836 O   0  0  0  0  0  0  0  0  0  0  0  0
    4.2639   65.1636   86.9024 O   0  0  0  0  0  0  0  0  0  0  0  0
   -0.7194   62.5082   82.3110 C   0  0  0  0  0  0  0  0  0  0  0  0
    1.3566   61.1246   81.9501 C   0  0  0  0  0  0  0  0  0  0  0  0
   -0.1570   61.1750   81.8163 C   0  0  0  0  0  0  0  0  0  0  0  0
 23 24  1  0  0  0
 24 22  1  0  0  0
 22  1  1  0  0  0
  1  2  2  0  0  0
  2  3  1  0  0  0
  3  4  1  0  0  0
  3  5  1  0  0  0
  5  6  1  0  0  0
  6  7  2  0  0  0
  6  8  1  0  0  0
  8  9  1  0  0  0
  9 13  1  0  0  0
 13 14  2  0  0  0
 14 15  1  0  0  0
 15 16  2  0  0  0
 16 17  1  0  0  0
 17 18  2  0  0  0
 18 19  1  0  0  0
 19 20  2  0  0  0
 19 21  1  0  0  0
  9 10  2  0  0  0
 10 11  1  0  0  0
 11  1  1  0  0  0
 11  5  2  0  0  0
 18 13  1  0  0  0
  8 12  1  0  0  0
M  CHG 1  19   1
M  CHG 1  21  -1
M  END
> <minimizedAffinity>
-8.11948

$$$$



 24 26  0  0  0  0  0  0  0  0999 V2000
   -0.0068   65.2149   81.7916 C   0  0  0  0  0  0  0  0  0  0  0  0
   -0.3617   64.7092   80.5950 N   0  0  0  0  0  0  0  0  0  0  0  0
   -0.8179   63.4651   80.8848 N   0  0  0  0  0  0  0  0  0  0  0  0
   -1.2883   62.6054   79.8252 C   0  0  0  0  0  0  0  0  0  0  0  0
   -0.7704   63.1766   82.2127 C   0  0  0  0  0  0  0  0  0  0  0  0
   -1.1475   62.0177   82.9336 C   0  0  0  0  0  0  0  0  0  0  0  0
   -1.6274   60.9991   82.4523 O   0  0  0  0  0  0  0  0  0  0  0  0
   -0.9160   62.1667   84.2850 N   0  0  0  0  0  0  0  0  0  0  0  0
   -0.3791   63.3172   84.8536 C   0  0  0  0  0  0  0  0  0  0  0  0
   -0.0447   64.3874   84.1888 N   0  0  0  0  0  0  0  0  0  0  0  0
   -0.2512   64.2832   82.8129 C   0  0  0  0  0  0  0  0  0  0  0  0
   -1.1481   61.3479   84.8370 H   0  0  0  0  0  0  0  0  0  0  0  0
   -0.2253   63.3299   86.3336 C   0  0  0  0  0  0  0  0  0  0  0  0
    1.0369   63.6871   86.8334 C   0  0  0  0  0  0  0  0  0  0  0  0
    1.2867   63.6857   88.2102 C   0  0  0  0  0  0  0  0  0  0  0  0
    0.2855   63.3133   89.1078 C   0  0  0  0  0  0  0  0  0  0  0  0
   -0.9697   62.9384   88.6323 C   0  0  0  0  0  0  0  0  0  0  0  0
   -1.2098   62.9514   87.2504 C   0  0  0  0  0  0  0  0  0  0  0  0
   -2.5183   62.5405   86.8066 N   0  0  0  0  0  0  0  0  0  0  0  0
   -2.6749   61.3479   86.5248 O   0  0  0  0  0  0  0  0  0  0  0  0
   -3.3891   63.4213   86.7714 O   0  0  0  0  0  0  0  0  0  0  0  0
    0.5551   66.5894   81.9056 C   0  0  0  0  0  0  0  0  0  0  0  0
    2.2615   67.1175   83.6844 C   0  0  0  0  0  0  0  0  0  0  0  0
    2.0374   66.5762   82.2815 C   0  0  0  0  0  0  0  0  0  0  0  0
 23 24  1  0  0  0
 24 22  1  0  0  0
 22  1  1  0  0  0
  1  2  2  0  0  0
  2  3  1  0  0  0
  3  4  1  0  0  0
  3  5  1  0  0  0
  5  6  1  0  0  0
  6  7  2  0  0  0
  6  8  1  0  0  0
  8  9  1  0  0  0
  9 13  1  0  0  0
 13 14  2  0  0  0
 14 15  1  0  0  0
 15 16  2  0  0  0
 16 17  1  0  0  0
 17 18  2  0  0  0
 18 19  1  0  0  0
 19 20  2  0  0  0
 19 21  1  0  0  0
  9 10  2  0  0  0
 10 11  1  0  0  0
 11  1  1  0  0  0
 11  5  2  0  0  0
 18 13  1  0  0  0
  8 12  1  0  0  0
M  CHG 1  19   1
M  CHG 1  21  -1
M  END
> <minimizedAffinity>
-8.02254

$$$$



 24 26  0  0  0  0  0  0  0  0999 V2000
   -0.1696   63.7537   85.8299 C   0  0  0  0  0  0  0  0  0  0  0  0
   -0.9203   62.6718   85.5480 N   0  0  0  0  0  0  0  0  0  0  0  0
   -1.0335   62.6919   84.1964 N   0  0  0  0  0  0  0  0  0  0  0  0
   -1.7917   61.6657   83.5218 C   0  0  0  0  0  0  0  0  0  0  0  0
   -0.3781   63.7360   83.6228 C   0  0  0  0  0  0  0  0  0  0  0  0
   -0.2353   64.1219   82.2679 C   0  0  0  0  0  0  0  0  0  0  0  0
   -0.7046   63.5333   81.3021 O   0  0  0  0  0  0  0  0  0  0  0  0
    0.5224   65.2679   82.1470 N   0  0  0  0  0  0  0  0  0  0  0  0
    1.0711   65.9479   83.2295 C   0  0  0  0  0  0  0  0  0  0  0  0
    0.9485   65.5831   84.4749 N   0  0  0  0  0  0  0  0  0  0  0  0
    0.1808   64.4316   84.6515 C   0  0  0  0  0  0  0  0  0  0  0  0
    0.6279   65.5950   81.1926 H   0  0  0  0  0  0  0  0  0  0  0  0
    1.8937   67.1497   82.9247 C   0  0  0  0  0  0  0  0  0  0  0  0
    2.7413   67.6092   83.9450 C   0  0  0  0  0  0  0  0  0  0  0  0
    3.5205   68.7572   83.7637 C   0  0  0  0  0  0  0  0  0  0  0  0
    3.4543   69.4723   82.5675 C   0  0  0  0  0  0  0  0  0  0  0  0
    2.6066   69.0437   81.5477 C   0  0  0  0  0  0  0  0  0  0  0  0
    1.8365   67.8871   81.7390 C   0  0  0  0  0  0  0  0  0  0  0  0
    0.9636   67.4930   80.6615 N   0  0  0  0  0  0  0  0  0  0  0  0
   -0.2001   67.9067   80.6920 O   0  0  0  0  0  0  0  0  0  0  0  0
    1.4671   66.7890   79.7749 O   0  0  0  0  0  0  0  0  0  0  0  0
    0.1870   64.0930   87.2355 C   0  0  0  0  0  0  0  0  0  0  0  0
    0.2640   62.4109   89.1114 C   0  0  0  0  0  0  0  0  0  0  0  0
   -0.6287   63.2870   88.2472 C   0  0  0  0  0  0  0  0  0  0  0  0
 23 24  1  0  0  0
 24 22  1  0  0  0
 22  1  1  0  0  0
  1  2  2  0  0  0
  2  3  1  0  0  0
  3  4  1  0  0  0
  3  5  1  0  0  0
  5  6  1  0  0  0
  6  7  2  0  0  0
  6  8  1  0  0  0
  8  9  1  0  0  0
  9 13  1  0  0  0
 13 14  2  0  0  0
 14 15  1  0  0  0
 15 16  2  0  0  0
 16 17  1  0  0  0
 17 18  2  0  0  0
 18 19  1  0  0  0
 19 20  2  0  0  0
 19 21  1  0  0  0
  9 10  2  0  0  0
 10 11  1  0  0  0
 11  1  1  0  0  0
 11  5  2  0  0  0
 18 13  1  0  0  0
  8 12  1  0  0  0
M  CHG 1  19   1
M  CHG 1  21  -1
M  END
> <minimizedAffinity>
-8.01392

$$$$



 24 26  0  0  0  0  0  0  0  0999 V2000
    0.6303   64.3279   85.4898 C   0  0  0  0  0  0  0  0  0  0  0  0
    0.1726   64.3683   86.7557 N   0  0  0  0  0  0  0  0  0  0  0  0
   -0.8755   63.5073   86.7552 N   0  0  0  0  0  0  0  0  0  0  0  0
   -1.6320   63.2928   87.9654 C   0  0  0  0  0  0  0  0  0  0  0  0
   -1.0856   62.9253   85.5445 C   0  0  0  0  0  0  0  0  0  0  0  0
   -2.0483   61.9804   85.1138 C   0  0  0  0  0  0  0  0  0  0  0  0
   -2.9200   61.4770   85.8111 O   0  0  0  0  0  0  0  0  0  0  0  0
   -1.8890   61.6704   83.7794 N   0  0  0  0  0  0  0  0  0  0  0  0
   -0.9016   62.2243   82.9711 C   0  0  0  0  0  0  0  0  0  0  0  0
   -0.0087   63.0845   83.3736 N   0  0  0  0  0  0  0  0  0  0  0  0
   -0.1335   63.4388   84.7173 C   0  0  0  0  0  0  0  0  0  0  0  0
   -2.5761   61.0151   83.4223 H   0  0  0  0  0  0  0  0  0  0  0  0
   -0.8436   61.7562   81.5599 C   0  0  0  0  0  0  0  0  0  0  0  0
    0.2177   62.2395   80.7782 C   0  0  0  0  0  0  0  0  0  0  0  0
    0.3293   61.8870   79.4288 C   0  0  0  0  0  0  0  0  0  0  0  0
   -0.6244   61.0595   78.8352 C   0  0  0  0  0  0  0  0  0  0  0  0
   -1.6957   60.5824   79.5882 C   0  0  0  0  0  0  0  0  0  0  0  0
   -1.7920   60.9368   80.9420 C   0  0  0  0  0  0  0  0  0  0  0  0
   -2.9259   60.4315   81.6747 N   0  0  0  0  0  0  0  0  0  0  0  0
   -3.9726   61.0858   81.6252 O   0  0  0  0  0  0  0  0  0  0  0  0
   -2.7603   59.3601   82.2747 O   0  0  0  0  0  0  0  0  0  0  0  0
    1.7982   65.1519   85.0714 C   0  0  0  0  0  0  0  0  0  0  0  0
    1.7572   66.2680   82.8115 C   0  0  0  0  0  0  0  0  0  0  0  0
    1.3755   66.3891   84.2781 C   0  0  0  0  0  0  0  0  0  0  0  0
 23 24  1  0  0  0
 24 22  1  0  0  0
 22  1  1  0  0  0
  1  2  2  0  0  0
  2  3  1  0  0  0
  3  4  1  0  0  0
  3  5  1  0  0  0
  5  6  1  0  0  0
  6  7  2  0  0  0
  6  8  1  0  0  0
  8  9  1  0  0  0
  9 13  1  0  0  0
 13 14  2  0  0  0
 14 15  1  0  0  0
 15 16  2  0  0  0
 16 17  1  0  0  0
 17 18  2  0  0  0
 18 19  1  0  0  0
 19 20  2  0  0  0
 19 21  1  0  0  0
  9 10  2  0  0  0
 10 11  1  0  0  0
 11  1  1  0  0  0
 11  5  2  0  0  0
 18 13  1  0  0  0
  8 12  1  0  0  0
M  CHG 1  19   1
M  CHG 1  21  -1
M  END
> <minimizedAffinity>
-7.99624

$$$$



 24 26  0  0  0  0  0  0  0  0999 V2000
   -0.5856   62.5800   83.5767 C   0  0  0  0  0  0  0  0  0  0  0  0
   -1.0604   61.7922   84.5604 N   0  0  0  0  0  0  0  0  0  0  0  0
   -0.6810   62.4225   85.7000 N   0  0  0  0  0  0  0  0  0  0  0  0
   -1.0162   61.8539   86.9834 C   0  0  0  0  0  0  0  0  0  0  0  0
    0.0031   63.5745   85.4686 C   0  0  0  0  0  0  0  0  0  0  0  0
    0.5644   64.5250   86.3555 C   0  0  0  0  0  0  0  0  0  0  0  0
    0.5205   64.4771   87.5784 O   0  0  0  0  0  0  0  0  0  0  0  0
    1.1809   65.5513   85.6709 N   0  0  0  0  0  0  0  0  0  0  0  0
    1.2360   65.6293   84.2831 C   0  0  0  0  0  0  0  0  0  0  0  0
    0.7074   64.7593   83.4690 N   0  0  0  0  0  0  0  0  0  0  0  0
    0.0785   63.6940   84.1141 C   0  0  0  0  0  0  0  0  0  0  0  0
    1.6203   66.2423   86.2696 H   0  0  0  0  0  0  0  0  0  0  0  0
    1.9092   66.8215   83.7005 C   0  0  0  0  0  0  0  0  0  0  0  0
    1.2136   67.5095   82.6937 C   0  0  0  0  0  0  0  0  0  0  0  0
    1.7863   68.6169   82.0586 C   0  0  0  0  0  0  0  0  0  0  0  0
    3.0674   69.0453   82.4078 C   0  0  0  0  0  0  0  0  0  0  0  0
    3.7827   68.3664   83.3926 C   0  0  0  0  0  0  0  0  0  0  0  0
    3.1944   67.2625   84.0272 C   0  0  0  0  0  0  0  0  0  0  0  0
    3.9797   66.5839   85.0276 N   0  0  0  0  0  0  0  0  0  0  0  0
    4.0945   65.3581   84.9257 O   0  0  0  0  0  0  0  0  0  0  0  0
    4.4996   67.2979   85.8967 O   0  0  0  0  0  0  0  0  0  0  0  0
   -0.7954   62.2275   82.1450 C   0  0  0  0  0  0  0  0  0  0  0  0
    1.4118   61.0130   82.0587 C   0  0  0  0  0  0  0  0  0  0  0  0
    0.5259   62.0549   81.3948 C   0  0  0  0  0  0  0  0  0  0  0  0
 23 24  1  0  0  0
 24 22  1  0  0  0
 22  1  1  0  0  0
  1  2  2  0  0  0
  2  3  1  0  0  0
  3  4  1  0  0  0
  3  5  1  0  0  0
  5  6  1  0  0  0
  6  7  2  0  0  0
  6  8  1  0  0  0
  8  9  1  0  0  0
  9 13  1  0  0  0
 13 14  2  0  0  0
 14 15  1  0  0  0
 15 16  2  0  0  0
 16 17  1  0  0  0
 17 18  2  0  0  0
 18 19  1  0  0  0
 19 20  2  0  0  0
 19 21  1  0  0  0
  9 10  2  0  0  0
 10 11  1  0  0  0
 11  1  1  0  0  0
 11  5  2  0  0  0
 18 13  1  0  0  0
  8 12  1  0  0  0
M  CHG 1  19   1
M  CHG 1  21  -1
M  END
> <minimizedAffinity>
-7.98260

$$$$
