
     RDKit          3D

 79 82  0  0  0  0  0  0  0  0999 V2000
   -3.1893   -5.5788    3.1056 C   0  0  0  0  0  0  0  0  0  0  0  0
   -1.9700   -5.2332    3.9495 C   0  0  0  0  0  0  0  0  0  0  0  0
   -1.7556   -3.7252    4.0685 C   0  0  0  0  0  0  0  0  0  0  0  0
   -1.5957   -3.1160    2.7853 O   0  0  0  0  0  0  0  0  0  0  0  0
   -0.3477   -2.9881    2.2331 C   0  0  0  0  0  0  0  0  0  0  0  0
    0.8080   -3.5675    2.7798 C   0  0  0  0  0  0  0  0  0  0  0  0
    2.0565   -3.3885    2.1766 C   0  0  0  0  0  0  0  0  0  0  0  0
    2.1519   -2.6452    1.0040 C   0  0  0  0  0  0  0  0  0  0  0  0
    3.7383   -2.3793    0.2511 S   0  0  0  0  0  0  0  0  0  0  0  0
    3.7777   -3.2086   -0.9329 O   0  0  0  0  0  0  0  0  0  0  0  0
    4.7459   -2.4870    1.2858 O   0  0  0  0  0  0  0  0  0  0  0  0
    3.6746   -0.7451   -0.2233 N   0  0  0  0  0  0  0  0  0  0  0  0
    3.5313    0.2660    0.8603 C   0  0  0  0  0  0  0  0  0  0  0  0
    4.7152    1.2248    0.9074 C   0  0  0  0  0  0  0  0  0  0  0  0
    4.9115    1.9793   -0.4199 C   0  0  0  0  0  0  0  0  0  0  0  0
    4.1469    3.3196   -0.4850 C   0  0  0  0  0  0  0  0  0  0  0  0
    4.6440    4.3895    0.4836 C   0  0  0  0  0  0  0  0  0  0  0  0
    6.0222    4.6445    0.2597 O   0  0  0  0  0  0  0  0  0  0  0  0
    4.5055    1.0985   -1.6178 C   0  0  0  0  0  0  0  0  0  0  0  0
    4.6358   -0.3851   -1.2968 C   0  0  0  0  0  0  0  0  0  0  0  0
    1.0150   -2.0753    0.4320 C   0  0  0  0  0  0  0  0  0  0  0  0
   -0.2411   -2.2304    1.0436 C   0  0  0  0  0  0  0  0  0  0  0  0
   -1.3948   -1.5270    0.3832 C   0  0  0  0  0  0  0  0  0  0  0  0
   -1.1540   -0.6029   -0.5040 N   0  0  0  0  0  0  0  0  0  0  0  0
   -2.2909   -0.0071   -1.0492 C   0  0  0  0  0  0  0  0  0  0  0  0
   -2.3170    1.0262   -2.0056 C   0  0  0  0  0  0  0  0  0  0  0  0
   -1.1062    1.6553   -2.6262 C   0  0  0  0  0  0  0  0  0  0  0  0
   -0.6202    2.8761   -1.8432 C   0  0  0  0  0  0  0  0  0  0  0  0
    0.6025    3.5033   -2.4935 C   0  0  0  0  0  0  0  0  0  0  0  0
   -3.6697    1.3297   -2.2156 C   0  0  0  0  0  0  0  0  0  0  0  0
   -4.2546    2.3544   -3.0585 C   0  0  0  0  0  0  0  0  0  0  0  0
   -3.5309    3.1537   -3.7769 N   0  0  0  0  0  0  0  0  0  0  0  0
   -4.3674    4.0352   -4.4743 O   0  0  0  0  0  0  0  0  0  0  0  0
   -4.4105    0.4444   -1.4301 N   0  0  0  0  0  0  0  0  0  0  0  0
   -5.8637    0.3519   -1.3900 C   0  0  0  0  0  0  0  0  0  0  0  0
   -6.4709    1.2623   -0.3375 C   0  0  0  0  0  0  0  0  0  0  0  0
   -3.5631   -0.3455   -0.6944 C   0  0  0  0  0  0  0  0  0  0  0  0
   -3.8270   -1.3508    0.2854 C   0  0  0  0  0  0  0  0  0  0  0  0
   -4.9326   -1.6900    0.6936 O   0  0  0  0  0  0  0  0  0  0  0  0
   -2.6694   -1.9151    0.7646 N   0  0  0  0  0  0  0  0  0  0  0  0
   -4.0953   -5.1278    3.5228 H   0  0  0  0  0  0  0  0  0  0  0  0
   -3.3326   -6.6636    3.0770 H   0  0  0  0  0  0  0  0  0  0  0  0
   -3.0731   -5.2282    2.0753 H   0  0  0  0  0  0  0  0  0  0  0  0
   -1.0941   -5.7081    3.4951 H   0  0  0  0  0  0  0  0  0  0  0  0
   -2.0919   -5.6590    4.9516 H   0  0  0  0  0  0  0  0  0  0  0  0
   -2.6525   -3.2757    4.5114 H   0  0  0  0  0  0  0  0  0  0  0  0
   -0.9368   -3.4758    4.7522 H   0  0  0  0  0  0  0  0  0  0  0  0
    0.7788   -4.1715    3.6813 H   0  0  0  0  0  0  0  0  0  0  0  0
    2.9431   -3.8360    2.6225 H   0  0  0  0  0  0  0  0  0  0  0  0
    2.6010    0.8185    0.6827 H   0  0  0  0  0  0  0  0  0  0  0  0
    3.4254   -0.2143    1.8387 H   0  0  0  0  0  0  0  0  0  0  0  0
    5.6245    0.6458    1.1186 H   0  0  0  0  0  0  0  0  0  0  0  0
    4.5982    1.9132    1.7492 H   0  0  0  0  0  0  0  0  0  0  0  0
    5.9842    2.1940   -0.5145 H   0  0  0  0  0  0  0  0  0  0  0  0
    3.0774    3.1507   -0.3120 H   0  0  0  0  0  0  0  0  0  0  0  0
    4.2492    3.7181   -1.5031 H   0  0  0  0  0  0  0  0  0  0  0  0
    4.0907    5.3201    0.3194 H   0  0  0  0  0  0  0  0  0  0  0  0
    4.5048    4.0914    1.5260 H   0  0  0  0  0  0  0  0  0  0  0  0
    6.2835    5.3604    0.8641 H   0  0  0  0  0  0  0  0  0  0  0  0
    5.1312    1.3506   -2.4823 H   0  0  0  0  0  0  0  0  0  0  0  0
    3.4682    1.3067   -1.9114 H   0  0  0  0  0  0  0  0  0  0  0  0
    5.6607   -0.6287   -0.9950 H   0  0  0  0  0  0  0  0  0  0  0  0
    4.3953   -0.9582   -2.1988 H   0  0  0  0  0  0  0  0  0  0  0  0
    1.1113   -1.5033   -0.4904 H   0  0  0  0  0  0  0  0  0  0  0  0
   -0.2986    0.9127   -2.6717 H   0  0  0  0  0  0  0  0  0  0  0  0
   -1.3098    1.9244   -3.6684 H   0  0  0  0  0  0  0  0  0  0  0  0
   -0.3709    2.5866   -0.8149 H   0  0  0  0  0  0  0  0  0  0  0  0
   -1.4164    3.6268   -1.7751 H   0  0  0  0  0  0  0  0  0  0  0  0
    1.4277    2.7866   -2.5505 H   0  0  0  0  0  0  0  0  0  0  0  0
    0.9415    4.3658   -1.9113 H   0  0  0  0  0  0  0  0  0  0  0  0
    0.3742    3.8462   -3.5077 H   0  0  0  0  0  0  0  0  0  0  0  0
   -5.3529    2.4568   -3.0737 H   0  0  0  0  0  0  0  0  0  0  0  0
   -3.7265    4.5726   -4.9769 H   0  0  0  0  0  0  0  0  0  0  0  0
   -6.2497    0.5939   -2.3850 H   0  0  0  0  0  0  0  0  0  0  0  0
   -6.1377   -0.6919   -1.2094 H   0  0  0  0  0  0  0  0  0  0  0  0
   -6.1047    1.0117    0.6635 H   0  0  0  0  0  0  0  0  0  0  0  0
   -7.5609    1.1656   -0.3357 H   0  0  0  0  0  0  0  0  0  0  0  0
   -6.2221    2.3113   -0.5294 H   0  0  0  0  0  0  0  0  0  0  0  0
   -2.7847   -2.6116    1.4884 H   0  0  0  0  0  0  0  0  0  0  0  0
  1  2  1  0
  2  3  1  0
  3  4  1  0
  4  5  1  0
  5  6  1  0
  6  7  2  0
  7  8  1  0
  8  9  1  0
  9 10  2  0
  9 11  2  0
  9 12  1  0
 12 13  1  0
 13 14  1  0
 14 15  1  0
 15 16  1  0
 16 17  1  0
 17 18  1  0
 15 19  1  0
 19 20  1  0
  8 21  2  0
 21 22  1  0
 22 23  1  0
 23 24  2  0
 24 25  1  0
 25 26  1  0
 26 27  1  0
 27 28  1  0
 28 29  1  0
 26 30  2  0
 30 31  1  0
 31 32  2  0
 32 33  1  0
 30 34  1  0
 34 35  1  0
 35 36  1  0
 34 37  1  0
 37 38  1  0
 38 39  2  0
 38 40  1  0
 22  5  2  0
 40 23  1  0
 20 12  1  0
 37 25  2  0
  1 41  1  0
  1 42  1  0
  1 43  1  0
  2 44  1  0
  2 45  1  0
  3 46  1  0
  3 47  1  0
  6 48  1  0
  7 49  1  0
 13 50  1  0
 13 51  1  0
 14 52  1  0
 14 53  1  0
 15 54  1  0
 16 55  1  0
 16 56  1  0
 17 57  1  0
 17 58  1  0
 18 59  1  0
 19 60  1  0
 19 61  1  0
 20 62  1  0
 20 63  1  0
 21 64  1  0
 27 65  1  0
 27 66  1  0
 28 67  1  0
 28 68  1  0
 29 69  1  0
 29 70  1  0
 29 71  1  0
 31 72  1  0
 33 73  1  0
 35 74  1  0
 35 75  1  0
 36 76  1  0
 36 77  1  0
 36 78  1  0
 40 79  1  0
M  END
$$$$
