
     RDKit          3D

 54 59  0  0  0  0  0  0  0  0999 V2000
    1.5109    1.7349    1.2279 O   0  0  0  0  0  0  0  0  0  0  0  0
    1.4679    1.5879   -0.2124 S   0  0  0  0  0  0  0  0  0  0  0  0
    1.1878    2.7243   -1.0653 O   0  0  0  0  0  0  0  0  0  0  0  0
    2.9653    0.9017   -0.7654 C   0  0  0  0  0  0  0  0  0  0  0  0
    3.7433    0.2083    0.0798 C   0  0  0  0  0  0  0  0  0  0  0  0
    5.0213   -0.4032   -0.3058 C   0  0  0  0  0  0  0  0  0  0  0  0
    6.0613   -0.4398    0.6323 C   0  0  0  0  0  0  0  0  0  0  0  0
    7.2841   -1.0374    0.3168 C   0  0  0  0  0  0  0  0  0  0  0  0
    7.4754   -1.6148   -0.9363 C   0  0  0  0  0  0  0  0  0  0  0  0
    6.4437   -1.5992   -1.8722 C   0  0  0  0  0  0  0  0  0  0  0  0
    5.2205   -1.0009   -1.5575 C   0  0  0  0  0  0  0  0  0  0  0  0
    0.3228    0.4264   -0.5634 N   0  0  0  0  0  0  0  0  0  0  0  0
    0.3983   -0.8940    0.1149 C   0  0  0  0  0  0  0  0  0  0  0  0
   -0.9708   -1.4661   -0.0199 C   0  0  0  0  0  0  0  0  0  0  0  0
   -1.8559   -0.5136   -0.4862 C   0  0  0  0  0  0  0  0  0  0  0  0
   -3.1619   -0.7379   -0.7171 N   0  0  0  0  0  0  0  0  0  0  0  0
   -3.6208   -1.9744   -0.4533 C   0  0  0  0  0  0  0  0  0  0  0  0
   -4.9664   -2.2223   -0.6811 C   0  0  0  0  0  0  0  0  0  0  0  0
   -5.5395   -3.4725   -0.4422 C   0  0  0  0  0  0  0  0  0  0  0  0
   -4.7525   -4.5101    0.0356 C   0  0  0  0  0  0  0  0  0  0  0  0
   -3.3953   -4.2941    0.2763 C   0  0  0  0  0  0  0  0  0  0  0  0
   -2.8027   -3.0282    0.0429 C   0  0  0  0  0  0  0  0  0  0  0  0
   -1.4388   -2.7286    0.2626 C   0  0  0  0  0  0  0  0  0  0  0  0
   -0.5235   -3.6181    0.7485 O   0  0  0  0  0  0  0  0  0  0  0  0
   -1.1227    0.8108   -0.6937 C   0  0  0  0  0  0  0  0  0  0  0  0
   -1.6323    1.9023    0.2370 C   0  0  0  0  0  0  0  0  0  0  0  0
   -1.6874    1.7249    1.6428 C   0  0  0  0  0  0  0  0  0  0  0  0
   -2.1566    2.7385    2.4858 C   0  0  0  0  0  0  0  0  0  0  0  0
   -2.5629    3.9183    1.9054 C   0  0  0  0  0  0  0  0  0  0  0  0
   -2.5130    4.1083    0.5459 C   0  0  0  0  0  0  0  0  0  0  0  0
   -2.0550    3.1287   -0.3103 C   0  0  0  0  0  0  0  0  0  0  0  0
   -2.9568    5.3400    0.1771 O   0  0  0  0  0  0  0  0  0  0  0  0
   -3.2720    5.9090    1.4642 C   0  0  0  0  0  0  0  0  0  0  0  0
   -3.0434    5.0058    2.5654 O   0  0  0  0  0  0  0  0  0  0  0  0
    3.2151    1.0812   -1.8008 H   0  0  0  0  0  0  0  0  0  0  0  0
    3.4619    0.0923    1.1253 H   0  0  0  0  0  0  0  0  0  0  0  0
    5.9337    0.0067    1.6164 H   0  0  0  0  0  0  0  0  0  0  0  0
    8.0863   -1.0511    1.0502 H   0  0  0  0  0  0  0  0  0  0  0  0
    8.4267   -2.0798   -1.1819 H   0  0  0  0  0  0  0  0  0  0  0  0
    6.5888   -2.0565   -2.8477 H   0  0  0  0  0  0  0  0  0  0  0  0
    4.4274   -1.0192   -2.3006 H   0  0  0  0  0  0  0  0  0  0  0  0
    0.6534   -0.7870    1.1734 H   0  0  0  0  0  0  0  0  0  0  0  0
    1.1299   -1.5263   -0.3964 H   0  0  0  0  0  0  0  0  0  0  0  0
   -5.5912   -1.4145   -1.0571 H   0  0  0  0  0  0  0  0  0  0  0  0
   -6.5983   -3.6283   -0.6331 H   0  0  0  0  0  0  0  0  0  0  0  0
   -5.1926   -5.4872    0.2195 H   0  0  0  0  0  0  0  0  0  0  0  0
   -2.8147   -5.1353    0.6415 H   0  0  0  0  0  0  0  0  0  0  0  0
   -0.9692   -4.4354    1.0187 H   0  0  0  0  0  0  0  0  0  0  0  0
   -1.2835    1.1016   -1.7401 H   0  0  0  0  0  0  0  0  0  0  0  0
   -1.3515    0.7937    2.0937 H   0  0  0  0  0  0  0  0  0  0  0  0
   -2.1921    2.6032    3.5605 H   0  0  0  0  0  0  0  0  0  0  0  0
   -2.0172    3.3183   -1.3783 H   0  0  0  0  0  0  0  0  0  0  0  0
   -2.6575    6.8048    1.6119 H   0  0  0  0  0  0  0  0  0  0  0  0
   -4.3277    6.2038    1.4672 H   0  0  0  0  0  0  0  0  0  0  0  0
  1  2  2  0
  2  3  2  0
  2  4  1  0
  4  5  2  0
  5  6  1  0
  6  7  2  0
  7  8  1  0
  8  9  2  0
  9 10  1  0
 10 11  2  0
  2 12  1  0
 12 13  1  0
 13 14  1  0
 14 15  1  0
 15 16  2  0
 16 17  1  0
 17 18  2  0
 18 19  1  0
 19 20  2  0
 20 21  1  0
 21 22  2  0
 22 23  1  0
 23 24  1  0
 15 25  1  0
 25 26  1  0
 26 27  1  0
 27 28  2  0
 28 29  1  0
 29 30  2  0
 30 31  1  0
 30 32  1  0
 32 33  1  0
 33 34  1  0
 11  6  1  0
 25 12  1  0
 31 26  2  0
 23 14  2  0
 34 29  1  0
 22 17  1  0
  4 35  1  0
  5 36  1  0
  7 37  1  0
  8 38  1  0
  9 39  1  0
 10 40  1  0
 11 41  1  0
 13 42  1  0
 13 43  1  0
 18 44  1  0
 19 45  1  0
 20 46  1  0
 21 47  1  0
 24 48  1  0
 25 49  1  0
 27 50  1  0
 28 51  1  0
 31 52  1  0
 33 53  1  0
 33 54  1  0
M  END
$$$$
