
     RDKit          3D

 46 48  0  0  0  0  0  0  0  0999 V2000
   -1.4004    4.5305    0.4655 C   0  0  0  0  0  0  0  0  0  0  0  0
   -2.0545    3.8593    1.6652 C   0  0  0  0  0  0  0  0  0  0  0  0
   -2.6374    2.4901    1.3201 C   0  0  0  0  0  0  0  0  0  0  0  0
   -1.5659    1.6163    0.9544 O   0  0  0  0  0  0  0  0  0  0  0  0
   -1.8686    0.3273    0.5973 C   0  0  0  0  0  0  0  0  0  0  0  0
   -3.1721   -0.1813    0.5842 C   0  0  0  0  0  0  0  0  0  0  0  0
   -3.4295   -1.5067    0.2085 C   0  0  0  0  0  0  0  0  0  0  0  0
   -2.3920   -2.3590   -0.1494 C   0  0  0  0  0  0  0  0  0  0  0  0
   -2.5538   -3.7005   -0.5576 N   0  0  0  0  0  0  0  0  0  0  0  0
   -3.5956   -4.5844   -0.4131 C   0  0  0  0  0  0  0  0  0  0  0  0
   -3.3827   -5.7250   -1.1414 N   0  0  0  0  0  0  0  0  0  0  0  0
   -4.9715   -4.5065    0.5127 S   0  0  0  0  0  0  0  0  0  0  0  0
   -1.0887   -1.8481   -0.1586 C   0  0  0  0  0  0  0  0  0  0  0  0
   -0.8072   -0.5181    0.2167 C   0  0  0  0  0  0  0  0  0  0  0  0
    0.6378   -0.0980    0.1764 C   0  0  0  0  0  0  0  0  0  0  0  0
    1.5488   -0.9085   -0.2993 N   0  0  0  0  0  0  0  0  0  0  0  0
    2.8066   -0.4001   -0.2731 C   0  0  0  0  0  0  0  0  0  0  0  0
    3.2046    0.8324    0.1818 C   0  0  0  0  0  0  0  0  0  0  0  0
    4.5972    0.8862   -0.0047 C   0  0  0  0  0  0  0  0  0  0  0  0
    5.5182    2.0004    0.3214 C   0  0  0  0  0  0  0  0  0  0  0  0
    5.0579   -0.2529   -0.5487 N   0  0  0  0  0  0  0  0  0  0  0  0
    3.9482   -1.0171   -0.7000 N   0  0  0  0  0  0  0  0  0  0  0  0
    4.0725   -2.3357   -1.2668 C   0  0  0  0  0  0  0  0  0  0  0  0
    2.2116    1.7234    0.7013 C   0  0  0  0  0  0  0  0  0  0  0  0
    2.4387    2.8495    1.1275 O   0  0  0  0  0  0  0  0  0  0  0  0
    0.9465    1.1697    0.6673 N   0  0  0  0  0  0  0  0  0  0  0  0
   -0.5599    3.9417    0.0859 H   0  0  0  0  0  0  0  0  0  0  0  0
   -1.0190    5.5170    0.7474 H   0  0  0  0  0  0  0  0  0  0  0  0
   -2.1205    4.6651   -0.3478 H   0  0  0  0  0  0  0  0  0  0  0  0
   -2.8510    4.5060    2.0493 H   0  0  0  0  0  0  0  0  0  0  0  0
   -1.3018    3.7496    2.4547 H   0  0  0  0  0  0  0  0  0  0  0  0
   -3.1504    2.0960    2.2053 H   0  0  0  0  0  0  0  0  0  0  0  0
   -3.3468    2.5930    0.4904 H   0  0  0  0  0  0  0  0  0  0  0  0
   -4.0303    0.4265    0.8551 H   0  0  0  0  0  0  0  0  0  0  0  0
   -4.4663   -1.8223    0.1817 H   0  0  0  0  0  0  0  0  0  0  0  0
   -1.7084   -4.1496   -0.8879 H   0  0  0  0  0  0  0  0  0  0  0  0
   -4.1578   -6.3805   -1.1479 H   0  0  0  0  0  0  0  0  0  0  0  0
   -2.8882   -5.6528   -2.0207 H   0  0  0  0  0  0  0  0  0  0  0  0
   -0.2660   -2.4991   -0.4484 H   0  0  0  0  0  0  0  0  0  0  0  0
    5.4784    2.2275    1.3915 H   0  0  0  0  0  0  0  0  0  0  0  0
    6.5542    1.7542    0.0666 H   0  0  0  0  0  0  0  0  0  0  0  0
    5.2387    2.9014   -0.2340 H   0  0  0  0  0  0  0  0  0  0  0  0
    4.4839   -2.2392   -2.2748 H   0  0  0  0  0  0  0  0  0  0  0  0
    3.0941   -2.8191   -1.3113 H   0  0  0  0  0  0  0  0  0  0  0  0
    4.7452   -2.9202   -0.6340 H   0  0  0  0  0  0  0  0  0  0  0  0
    0.2031    1.7615    1.0141 H   0  0  0  0  0  0  0  0  0  0  0  0
  1  2  1  0
  2  3  1  0
  3  4  1  0
  4  5  1  0
  5  6  1  0
  6  7  2  0
  7  8  1  0
  8  9  1  0
  9 10  1  0
 10 11  1  0
 10 12  2  0
  8 13  2  0
 13 14  1  0
 14 15  1  0
 15 16  2  0
 16 17  1  0
 17 18  2  0
 18 19  1  0
 19 20  1  0
 19 21  2  0
 21 22  1  0
 22 23  1  0
 18 24  1  0
 24 25  2  0
 24 26  1  0
 14  5  2  0
 26 15  1  0
 22 17  1  0
  1 27  1  0
  1 28  1  0
  1 29  1  0
  2 30  1  0
  2 31  1  0
  3 32  1  0
  3 33  1  0
  6 34  1  0
  7 35  1  0
  9 36  1  0
 11 37  1  0
 11 38  1  0
 13 39  1  0
 20 40  1  0
 20 41  1  0
 20 42  1  0
 23 43  1  0
 23 44  1  0
 23 45  1  0
 26 46  1  0
M  END
$$$$
