
     RDKit          3D

 46 50  0  0  0  0  0  0  0  0999 V2000
    1.2664   -2.0201   -3.2703 C   0  0  0  0  0  0  0  0  0  0  0  0
    1.0442   -1.0411   -2.2251 N   0  0  0  0  0  0  0  0  0  0  0  0
   -0.2546   -0.5831   -1.9697 C   0  0  0  0  0  0  0  0  0  0  0  0
   -1.2458   -0.9797   -2.5760 O   0  0  0  0  0  0  0  0  0  0  0  0
   -0.3247    0.4046   -0.9225 C   0  0  0  0  0  0  0  0  0  0  0  0
    0.7719    0.8293   -0.2271 C   0  0  0  0  0  0  0  0  0  0  0  0
    0.4717    1.7615    0.7026 N   0  0  0  0  0  0  0  0  0  0  0  0
   -0.8455    1.9342    0.6110 C   0  0  0  0  0  0  0  0  0  0  0  0
   -1.6732    2.8623    1.4485 C   0  0  0  0  0  0  0  0  0  0  0  0
   -2.5967    3.5364    0.7114 F   0  0  0  0  0  0  0  0  0  0  0  0
   -0.9236    3.8100    2.0705 F   0  0  0  0  0  0  0  0  0  0  0  0
   -2.3544    2.2057    2.4208 F   0  0  0  0  0  0  0  0  0  0  0  0
   -1.3739    1.1133   -0.3831 N   0  0  0  0  0  0  0  0  0  0  0  0
   -2.7640    1.0539   -0.8229 C   0  0  0  0  0  0  0  0  0  0  0  0
   -3.6232    0.2365    0.1068 C   0  0  0  0  0  0  0  0  0  0  0  0
   -4.6262    0.8490    0.8731 C   0  0  0  0  0  0  0  0  0  0  0  0
   -5.4242    0.0935    1.7342 C   0  0  0  0  0  0  0  0  0  0  0  0
   -5.2367   -1.2830    1.8328 C   0  0  0  0  0  0  0  0  0  0  0  0
   -4.2545   -1.9065    1.0674 C   0  0  0  0  0  0  0  0  0  0  0  0
   -3.4544   -1.1529    0.2070 C   0  0  0  0  0  0  0  0  0  0  0  0
    1.9764    0.3307   -0.4902 N   0  0  0  0  0  0  0  0  0  0  0  0
    2.1323   -0.5721   -1.5022 C   0  0  0  0  0  0  0  0  0  0  0  0
    3.3584   -0.9635   -1.7443 N   0  0  0  0  0  0  0  0  0  0  0  0
    4.1868   -0.1906   -0.7600 C   0  0  2  0  0  0  0  0  0  0  0  0
    4.8760   -1.1390    0.2172 C   0  0  0  0  0  0  0  0  0  0  0  0
    4.7836   -0.4223    1.5552 C   0  0  0  0  0  0  0  0  0  0  0  0
    3.3941    0.1968    1.5292 C   0  0  0  0  0  0  0  0  0  0  0  0
    3.2304    0.6873    0.0942 C   0  0  2  0  0  0  0  0  0  0  0  0
    1.9295   -1.5870   -4.0261 H   0  0  0  0  0  0  0  0  0  0  0  0
    1.7590   -2.8974   -2.8388 H   0  0  0  0  0  0  0  0  0  0  0  0
    0.3355   -2.3328   -3.7493 H   0  0  0  0  0  0  0  0  0  0  0  0
   -3.1278    2.0820   -0.9135 H   0  0  0  0  0  0  0  0  0  0  0  0
   -2.8091    0.6434   -1.8349 H   0  0  0  0  0  0  0  0  0  0  0  0
   -4.7956    1.9225    0.8128 H   0  0  0  0  0  0  0  0  0  0  0  0
   -6.1931    0.5799    2.3292 H   0  0  0  0  0  0  0  0  0  0  0  0
   -5.8586   -1.8705    2.5032 H   0  0  0  0  0  0  0  0  0  0  0  0
   -4.1127   -2.9822    1.1371 H   0  0  0  0  0  0  0  0  0  0  0  0
   -2.7036   -1.6654   -0.3915 H   0  0  0  0  0  0  0  0  0  0  0  0
    4.9127    0.4311   -1.2962 H   0  0  0  0  0  0  0  0  0  0  0  0
    5.9131   -1.3383   -0.0695 H   0  0  0  0  0  0  0  0  0  0  0  0
    4.3560   -2.1035    0.2703 H   0  0  0  0  0  0  0  0  0  0  0  0
    5.5471    0.3622    1.6190 H   0  0  0  0  0  0  0  0  0  0  0  0
    4.9195   -1.1023    2.4010 H   0  0  0  0  0  0  0  0  0  0  0  0
    3.3009    1.0147    2.2506 H   0  0  0  0  0  0  0  0  0  0  0  0
    2.6420   -0.5585    1.7896 H   0  0  0  0  0  0  0  0  0  0  0  0
    3.4684    1.7512   -0.0172 H   0  0  0  0  0  0  0  0  0  0  0  0
  1  2  1  0
  2  3  1  0
  3  4  2  0
  3  5  1  0
  5  6  2  0
  6  7  1  0
  7  8  2  0
  8  9  1  0
  9 10  1  0
  9 11  1  0
  9 12  1  0
  8 13  1  0
 13 14  1  0
 14 15  1  0
 15 16  2  0
 16 17  1  0
 17 18  2  0
 18 19  1  0
 19 20  2  0
  6 21  1  0
 21 22  1  0
 22 23  2  0
 23 24  1  0
 24 25  1  0
 25 26  1  0
 26 27  1  0
 27 28  1  0
 22  2  1  0
 28 24  1  0
 13  5  1  0
 20 15  1  0
 28 21  1  0
  1 29  1  0
  1 30  1  0
  1 31  1  0
 14 32  1  0
 14 33  1  0
 16 34  1  0
 17 35  1  0
 18 36  1  0
 19 37  1  0
 20 38  1  0
 24 39  1  6
 25 40  1  0
 25 41  1  0
 26 42  1  0
 26 43  1  0
 27 44  1  0
 27 45  1  0
 28 46  1  1
M  END
$$$$
