
     RDKit          3D

 54 57  0  0  0  0  0  0  0  0999 V2000
    0.1232   -5.9599   -1.2317 C   0  0  0  0  0  0  0  0  0  0  0  0
    0.8336   -4.9702   -0.3256 C   0  0  0  0  0  0  0  0  0  0  0  0
    0.3523   -3.6633   -0.6472 O   0  0  0  0  0  0  0  0  0  0  0  0
    0.8141   -2.5995    0.0855 C   0  0  0  0  0  0  0  0  0  0  0  0
    1.8013   -2.7182    1.0713 C   0  0  0  0  0  0  0  0  0  0  0  0
    2.2366   -1.6001    1.7923 C   0  0  0  0  0  0  0  0  0  0  0  0
    1.7032   -0.3288    1.5526 C   0  0  0  0  0  0  0  0  0  0  0  0
    2.1582    0.8449    2.3134 C   0  0  0  0  0  0  0  0  0  0  0  0
    3.5196    1.1441    2.4664 C   0  0  0  0  0  0  0  0  0  0  0  0
    3.9201    2.2641    3.1951 C   0  0  0  0  0  0  0  0  0  0  0  0
    2.9377    3.0660    3.7576 C   0  0  0  0  0  0  0  0  0  0  0  0
    3.3250    4.2708    4.5509 C   0  0  0  0  0  0  0  0  0  0  0  0
    4.4941    4.5516    4.8007 O   0  0  0  0  0  0  0  0  0  0  0  0
    2.2652    5.0177    5.0060 N   0  0  0  0  0  0  0  0  0  0  0  0
    2.5604    6.0322    5.9424 O   0  0  0  0  0  0  0  0  0  0  0  0
    1.6050    2.8197    3.6430 N   0  0  0  0  0  0  0  0  0  0  0  0
    1.2577    1.7226    2.9253 C   0  0  0  0  0  0  0  0  0  0  0  0
    0.7176   -0.2150    0.5598 C   0  0  0  0  0  0  0  0  0  0  0  0
    0.2627   -1.3285   -0.1791 C   0  0  0  0  0  0  0  0  0  0  0  0
   -0.8040   -1.0618   -1.2122 C   0  0  0  0  0  0  0  0  0  0  0  0
   -1.3339    0.1296   -1.2986 N   0  0  0  0  0  0  0  0  0  0  0  0
   -2.3055    0.2531   -2.2926 C   0  0  0  0  0  0  0  0  0  0  0  0
   -3.0709    1.3682   -2.6705 C   0  0  0  0  0  0  0  0  0  0  0  0
   -3.0506    2.7419   -2.0992 C   0  0  0  0  0  0  0  0  0  0  0  0
   -1.9706    3.6119   -2.7236 C   0  0  0  0  0  0  0  0  0  0  0  0
   -3.8964    1.0535   -3.6872 N   0  0  0  0  0  0  0  0  0  0  0  0
   -3.6354   -0.2551   -3.9303 N   0  0  0  0  0  0  0  0  0  0  0  0
   -4.3466   -0.9490   -4.9767 C   0  0  0  0  0  0  0  0  0  0  0  0
   -2.6815   -0.7693   -3.1098 C   0  0  0  0  0  0  0  0  0  0  0  0
   -2.1168   -2.0643   -3.0234 C   0  0  0  0  0  0  0  0  0  0  0  0
   -2.4143   -3.0267   -3.7208 O   0  0  0  0  0  0  0  0  0  0  0  0
   -1.1637   -2.1261   -2.0332 N   0  0  0  0  0  0  0  0  0  0  0  0
    0.3178   -5.7273   -2.2841 H   0  0  0  0  0  0  0  0  0  0  0  0
    0.4543   -6.9822   -1.0284 H   0  0  0  0  0  0  0  0  0  0  0  0
   -0.9611   -5.9035   -1.0886 H   0  0  0  0  0  0  0  0  0  0  0  0
    0.6068   -5.2141    0.7185 H   0  0  0  0  0  0  0  0  0  0  0  0
    1.9127   -5.0308   -0.5060 H   0  0  0  0  0  0  0  0  0  0  0  0
    2.2608   -3.6719    1.3128 H   0  0  0  0  0  0  0  0  0  0  0  0
    2.9965   -1.7404    2.5602 H   0  0  0  0  0  0  0  0  0  0  0  0
    4.2797    0.5153    2.0073 H   0  0  0  0  0  0  0  0  0  0  0  0
    4.9722    2.5039    3.3148 H   0  0  0  0  0  0  0  0  0  0  0  0
    1.3178    4.6474    4.9746 H   0  0  0  0  0  0  0  0  0  0  0  0
    3.5394    5.9863    5.9961 H   0  0  0  0  0  0  0  0  0  0  0  0
    0.1839    1.5550    2.8603 H   0  0  0  0  0  0  0  0  0  0  0  0
    0.3025    0.7698    0.3432 H   0  0  0  0  0  0  0  0  0  0  0  0
   -2.8887    2.6863   -1.0160 H   0  0  0  0  0  0  0  0  0  0  0  0
   -4.0271    3.2201   -2.2433 H   0  0  0  0  0  0  0  0  0  0  0  0
   -2.1206    3.7140   -3.8038 H   0  0  0  0  0  0  0  0  0  0  0  0
   -0.9748    3.1851   -2.5621 H   0  0  0  0  0  0  0  0  0  0  0  0
   -1.9869    4.6131   -2.2814 H   0  0  0  0  0  0  0  0  0  0  0  0
   -3.6205   -1.2991   -5.7145 H   0  0  0  0  0  0  0  0  0  0  0  0
   -4.8839   -1.7898   -4.5314 H   0  0  0  0  0  0  0  0  0  0  0  0
   -5.0564   -0.2659   -5.4506 H   0  0  0  0  0  0  0  0  0  0  0  0
   -0.7219   -3.0271   -1.9049 H   0  0  0  0  0  0  0  0  0  0  0  0
  1  2  1  0
  2  3  1  0
  3  4  1  0
  4  5  1  0
  5  6  2  0
  6  7  1  0
  7  8  1  0
  8  9  2  0
  9 10  1  0
 10 11  2  0
 11 12  1  0
 12 13  2  0
 12 14  1  0
 14 15  1  0
 11 16  1  0
 16 17  2  0
  7 18  2  0
 18 19  1  0
 19 20  1  0
 20 21  2  0
 21 22  1  0
 22 23  1  0
 23 24  1  0
 24 25  1  0
 23 26  2  0
 26 27  1  0
 27 28  1  0
 27 29  1  0
 29 30  1  0
 30 31  2  0
 30 32  1  0
 19  4  2  0
 32 20  1  0
 17  8  1  0
 29 22  2  0
  1 33  1  0
  1 34  1  0
  1 35  1  0
  2 36  1  0
  2 37  1  0
  5 38  1  0
  6 39  1  0
  9 40  1  0
 10 41  1  0
 14 42  1  0
 15 43  1  0
 17 44  1  0
 18 45  1  0
 24 46  1  0
 24 47  1  0
 25 48  1  0
 25 49  1  0
 25 50  1  0
 28 51  1  0
 28 52  1  0
 28 53  1  0
 32 54  1  0
M  END
$$$$
