


 27 29  0  0  0  0  0  0  0  0999 V2000
    1.3544   65.3193   84.7265 C   0  0  0  0  0  0  0  0  0  0  0  0
    0.8671   64.4677   83.8622 N   0  0  0  0  0  0  0  0  0  0  0  0
    0.0499   63.5337   84.4088 C   0  0  0  0  0  0  0  0  0  0  0  0
   -0.3065   63.3967   85.7269 C   0  0  0  0  0  0  0  0  0  0  0  0
   -1.1706   62.2887   85.7833 C   0  0  0  0  0  0  0  0  0  0  0  0
   -1.8402   61.7148   86.9742 C   0  0  0  0  0  0  0  0  0  0  0  0
   -1.3529   61.7524   84.5648 N   0  0  0  0  0  0  0  0  0  0  0  0
   -0.5986   62.5287   83.7473 N   0  0  0  0  0  0  0  0  0  0  0  0
    0.2255   64.3255   86.6776 C   0  0  0  0  0  0  0  0  0  0  0  0
   -0.0133   64.3101   87.8793 O   0  0  0  0  0  0  0  0  0  0  0  0
    1.0532   65.2614   86.0861 N   0  0  0  0  0  0  0  0  0  0  0  0
    1.4560   65.9421   86.7163 H   0  0  0  0  0  0  0  0  0  0  0  0
    3.6268   66.5448   84.6747 C   0  0  0  0  0  0  0  0  0  0  0  0
    4.3974   67.6091   84.1806 C   0  0  0  0  0  0  0  0  0  0  0  0
    3.8515   68.5399   83.2918 C   0  0  0  0  0  0  0  0  0  0  0  0
    2.5210   68.4114   82.8884 C   0  0  0  0  0  0  0  0  0  0  0  0
    1.7357   67.3587   83.3690 C   0  0  0  0  0  0  0  0  0  0  0  0
    2.2783   66.4160   84.2653 C   0  0  0  0  0  0  0  0  0  0  0  0
    1.9451   69.3884   81.9547 N   0  0  0  0  0  0  0  0  0  0  0  0
    1.3329   70.3528   82.4326 O   0  0  0  0  0  0  0  0  0  0  0  0
    2.1075   69.1875   80.7428 O   0  0  0  0  0  0  0  0  0  0  0  0
    4.1178   65.6075   85.5479 O   0  0  0  0  0  0  0  0  0  0  0  0
    5.4961   65.2357   85.4505 C   0  0  0  0  0  0  0  0  0  0  0  0
    5.4225   65.4209   87.9641 C   0  0  0  0  0  0  0  0  0  0  0  0
    6.2007   65.7485   86.7029 C   0  0  0  0  0  0  0  0  0  0  0  0
   -0.5459   62.2448   82.3279 C   0  0  0  0  0  0  0  0  0  0  0  0
    0.6363   61.3646   81.9646 C   0  0  0  0  0  0  0  0  0  0  0  0
 24 25  1  0  0  0
 25 23  1  0  0  0
 23 22  1  0  0  0
 22 13  1  0  0  0
 13 14  1  0  0  0
 14 15  2  0  0  0
 15 16  1  0  0  0
 16 19  1  0  0  0
 19 20  2  0  0  0
 19 21  1  0  0  0
 16 17  2  0  0  0
 17 18  1  0  0  0
 18  1  1  0  0  0
  1  2  2  0  0  0
  2  3  1  0  0  0
  3  4  2  0  0  0
  4  5  1  0  0  0
  5  6  1  0  0  0
  5  7  2  0  0  0
  7  8  1  0  0  0
  8 26  1  0  0  0
 26 27  1  0  0  0
  4  9  1  0  0  0
  9 10  2  0  0  0
  9 11  1  0  0  0
 18 13  2  0  0  0
 11  1  1  0  0  0
  8  3  1  0  0  0
 11 12  1  0  0  0
M  CHG 1  19   1
M  CHG 1  21  -1
M  END
> <minimizedAffinity>
-9.20783

$$$$



 27 29  0  0  0  0  0  0  0  0999 V2000
    1.4209   65.5056   84.4943 C   0  0  0  0  0  0  0  0  0  0  0  0
    2.5870   65.8211   84.9946 N   0  0  0  0  0  0  0  0  0  0  0  0
    3.1906   66.8636   84.3718 C   0  0  0  0  0  0  0  0  0  0  0  0
    2.7198   67.5957   83.3110 C   0  0  0  0  0  0  0  0  0  0  0  0
    3.7035   68.5629   83.0383 C   0  0  0  0  0  0  0  0  0  0  0  0
    3.6881   69.6074   81.9873 C   0  0  0  0  0  0  0  0  0  0  0  0
    4.7427   68.4501   83.8828 N   0  0  0  0  0  0  0  0  0  0  0  0
    4.4050   67.4083   84.6830 N   0  0  0  0  0  0  0  0  0  0  0  0
    1.4443   67.2535   82.7583 C   0  0  0  0  0  0  0  0  0  0  0  0
    0.9152   67.8262   81.8132 O   0  0  0  0  0  0  0  0  0  0  0  0
    0.8593   66.1878   83.4164 N   0  0  0  0  0  0  0  0  0  0  0  0
   -0.0456   65.9057   83.0635 H   0  0  0  0  0  0  0  0  0  0  0  0
   -0.0007   63.3568   84.3204 C   0  0  0  0  0  0  0  0  0  0  0  0
   -0.7132   62.3412   84.9772 C   0  0  0  0  0  0  0  0  0  0  0  0
   -0.8063   62.3150   86.3719 C   0  0  0  0  0  0  0  0  0  0  0  0
   -0.1826   63.3122   87.1244 C   0  0  0  0  0  0  0  0  0  0  0  0
    0.5319   64.3332   86.4899 C   0  0  0  0  0  0  0  0  0  0  0  0
    0.6307   64.3670   85.0844 C   0  0  0  0  0  0  0  0  0  0  0  0
   -0.2793   63.2868   88.5900 N   0  0  0  0  0  0  0  0  0  0  0  0
   -1.3957   63.1001   89.0922 O   0  0  0  0  0  0  0  0  0  0  0  0
    0.7647   63.4541   89.2362 O   0  0  0  0  0  0  0  0  0  0  0  0
    0.1185   63.4248   82.9554 O   0  0  0  0  0  0  0  0  0  0  0  0
   -0.5780   62.4624   82.1579 C   0  0  0  0  0  0  0  0  0  0  0  0
    1.4762   61.0030   82.0636 C   0  0  0  0  0  0  0  0  0  0  0  0
    0.4490   61.7792   81.2597 C   0  0  0  0  0  0  0  0  0  0  0  0
    5.3049   66.9852   85.7362 C   0  0  0  0  0  0  0  0  0  0  0  0
    6.2190   65.8589   85.2887 C   0  0  0  0  0  0  0  0  0  0  0  0
 24 25  1  0  0  0
 25 23  1  0  0  0
 23 22  1  0  0  0
 22 13  1  0  0  0
 13 14  1  0  0  0
 14 15  2  0  0  0
 15 16  1  0  0  0
 16 19  1  0  0  0
 19 20  2  0  0  0
 19 21  1  0  0  0
 16 17  2  0  0  0
 17 18  1  0  0  0
 18  1  1  0  0  0
  1  2  2  0  0  0
  2  3  1  0  0  0
  3  4  2  0  0  0
  4  5  1  0  0  0
  5  6  1  0  0  0
  5  7  2  0  0  0
  7  8  1  0  0  0
  8 26  1  0  0  0
 26 27  1  0  0  0
  4  9  1  0  0  0
  9 10  2  0  0  0
  9 11  1  0  0  0
 18 13  2  0  0  0
 11  1  1  0  0  0
  8  3  1  0  0  0
 11 12  1  0  0  0
M  CHG 1  19   1
M  CHG 1  21  -1
M  END
> <minimizedAffinity>
-9.16462

$$$$



 27 29  0  0  0  0  0  0  0  0999 V2000
    1.2730   65.3821   84.5945 C   0  0  0  0  0  0  0  0  0  0  0  0
    0.5266   64.6389   83.8198 N   0  0  0  0  0  0  0  0  0  0  0  0
   -0.1203   63.6401   84.4702 C   0  0  0  0  0  0  0  0  0  0  0  0
   -0.0750   63.3414   85.8087 C   0  0  0  0  0  0  0  0  0  0  0  0
   -0.9168   62.2293   85.9881 C   0  0  0  0  0  0  0  0  0  0  0  0
   -1.2214   61.5105   87.2476 C   0  0  0  0  0  0  0  0  0  0  0  0
   -1.4672   61.8441   84.8243 N   0  0  0  0  0  0  0  0  0  0  0  0
   -0.9653   62.7190   83.9174 N   0  0  0  0  0  0  0  0  0  0  0  0
    0.7419   64.1510   86.6612 C   0  0  0  0  0  0  0  0  0  0  0  0
    0.8687   63.9880   87.8690 O   0  0  0  0  0  0  0  0  0  0  0  0
    1.3856   65.1571   85.9654 N   0  0  0  0  0  0  0  0  0  0  0  0
    1.9770   65.7587   86.5233 H   0  0  0  0  0  0  0  0  0  0  0  0
    3.3952   66.8315   84.3423 C   0  0  0  0  0  0  0  0  0  0  0  0
    4.0239   67.9314   83.7377 C   0  0  0  0  0  0  0  0  0  0  0  0
    3.3421   68.7322   82.8166 C   0  0  0  0  0  0  0  0  0  0  0  0
    2.0169   68.4359   82.4919 C   0  0  0  0  0  0  0  0  0  0  0  0
    1.3718   67.3450   83.0830 C   0  0  0  0  0  0  0  0  0  0  0  0
    2.0518   66.5326   84.0125 C   0  0  0  0  0  0  0  0  0  0  0  0
    1.2984   69.2761   81.5245 N   0  0  0  0  0  0  0  0  0  0  0  0
    0.6241   70.2167   81.9650 O   0  0  0  0  0  0  0  0  0  0  0  0
    1.4111   68.9918   80.3237 O   0  0  0  0  0  0  0  0  0  0  0  0
    4.0225   66.0174   85.2511 O   0  0  0  0  0  0  0  0  0  0  0  0
    5.1451   66.5332   85.9729 C   0  0  0  0  0  0  0  0  0  0  0  0
    7.1503   65.9817   84.5470 C   0  0  0  0  0  0  0  0  0  0  0  0
    6.3144   65.5791   85.7482 C   0  0  0  0  0  0  0  0  0  0  0  0
   -1.3431   62.6103   82.5233 C   0  0  0  0  0  0  0  0  0  0  0  0
   -2.5274   63.4962   82.1814 C   0  0  0  0  0  0  0  0  0  0  0  0
 24 25  1  0  0  0
 25 23  1  0  0  0
 23 22  1  0  0  0
 22 13  1  0  0  0
 13 14  1  0  0  0
 14 15  2  0  0  0
 15 16  1  0  0  0
 16 19  1  0  0  0
 19 20  2  0  0  0
 19 21  1  0  0  0
 16 17  2  0  0  0
 17 18  1  0  0  0
 18  1  1  0  0  0
  1  2  2  0  0  0
  2  3  1  0  0  0
  3  4  2  0  0  0
  4  5  1  0  0  0
  5  6  1  0  0  0
  5  7  2  0  0  0
  7  8  1  0  0  0
  8 26  1  0  0  0
 26 27  1  0  0  0
  4  9  1  0  0  0
  9 10  2  0  0  0
  9 11  1  0  0  0
 18 13  2  0  0  0
 11  1  1  0  0  0
  8  3  1  0  0  0
 11 12  1  0  0  0
M  CHG 1  19   1
M  CHG 1  21  -1
M  END
> <minimizedAffinity>
-9.14671

$$$$



 27 29  0  0  0  0  0  0  0  0999 V2000
    1.4469   65.5118   84.2363 C   0  0  0  0  0  0  0  0  0  0  0  0
    2.6183   65.8208   84.7282 N   0  0  0  0  0  0  0  0  0  0  0  0
    3.1929   66.9027   84.1465 C   0  0  0  0  0  0  0  0  0  0  0  0
    2.6888   67.6790   83.1334 C   0  0  0  0  0  0  0  0  0  0  0  0
    3.6518   68.6744   82.8899 C   0  0  0  0  0  0  0  0  0  0  0  0
    3.5986   69.7697   81.8931 C   0  0  0  0  0  0  0  0  0  0  0  0
    4.7101   68.5365   83.7064 N   0  0  0  0  0  0  0  0  0  0  0  0
    4.4050   67.4508   84.4600 N   0  0  0  0  0  0  0  0  0  0  0  0
    1.4073   67.3442   82.5902 C   0  0  0  0  0  0  0  0  0  0  0  0
    0.8499   67.9547   81.6858 O   0  0  0  0  0  0  0  0  0  0  0  0
    0.8525   66.2377   83.2056 N   0  0  0  0  0  0  0  0  0  0  0  0
   -0.0552   65.9589   82.8573 H   0  0  0  0  0  0  0  0  0  0  0  0
    0.2968   63.2103   84.0153 C   0  0  0  0  0  0  0  0  0  0  0  0
   -0.4109   62.1661   84.6313 C   0  0  0  0  0  0  0  0  0  0  0  0
   -0.7340   62.2204   85.9904 C   0  0  0  0  0  0  0  0  0  0  0  0
   -0.3485   63.3282   86.7480 C   0  0  0  0  0  0  0  0  0  0  0  0
    0.3568   64.3794   86.1538 C   0  0  0  0  0  0  0  0  0  0  0  0
    0.6865   64.3326   84.7843 C   0  0  0  0  0  0  0  0  0  0  0  0
   -0.6871   63.3875   88.1762 N   0  0  0  0  0  0  0  0  0  0  0  0
   -1.8286   63.0467   88.5139 O   0  0  0  0  0  0  0  0  0  0  0  0
    0.1924   63.7759   88.9580 O   0  0  0  0  0  0  0  0  0  0  0  0
    0.6362   63.2022   82.6861 O   0  0  0  0  0  0  0  0  0  0  0  0
   -0.3466   62.7927   81.7302 C   0  0  0  0  0  0  0  0  0  0  0  0
   -2.7331   63.5364   82.0619 C   0  0  0  0  0  0  0  0  0  0  0  0
   -1.3487   63.9338   81.5829 C   0  0  0  0  0  0  0  0  0  0  0  0
    5.3332   66.9903   85.4722 C   0  0  0  0  0  0  0  0  0  0  0  0
    5.3862   67.9254   86.6669 C   0  0  0  0  0  0  0  0  0  0  0  0
 24 25  1  0  0  0
 25 23  1  0  0  0
 23 22  1  0  0  0
 22 13  1  0  0  0
 13 14  1  0  0  0
 14 15  2  0  0  0
 15 16  1  0  0  0
 16 19  1  0  0  0
 19 20  2  0  0  0
 19 21  1  0  0  0
 16 17  2  0  0  0
 17 18  1  0  0  0
 18  1  1  0  0  0
  1  2  2  0  0  0
  2  3  1  0  0  0
  3  4  2  0  0  0
  4  5  1  0  0  0
  5  6  1  0  0  0
  5  7  2  0  0  0
  7  8  1  0  0  0
  8 26  1  0  0  0
 26 27  1  0  0  0
  4  9  1  0  0  0
  9 10  2  0  0  0
  9 11  1  0  0  0
 18 13  2  0  0  0
 11  1  1  0  0  0
  8  3  1  0  0  0
 11 12  1  0  0  0
M  CHG 1  19   1
M  CHG 1  21  -1
M  END
> <minimizedAffinity>
-9.04412

$$$$



 27 29  0  0  0  0  0  0  0  0999 V2000
    0.8767   65.4375   84.1140 C   0  0  0  0  0  0  0  0  0  0  0  0
    0.6366   65.5746   82.8360 N   0  0  0  0  0  0  0  0  0  0  0  0
    1.2411   66.6504   82.2735 C   0  0  0  0  0  0  0  0  0  0  0  0
    2.0505   67.5746   82.8848 C   0  0  0  0  0  0  0  0  0  0  0  0
    2.4294   68.4842   81.8814 C   0  0  0  0  0  0  0  0  0  0  0  0
    3.3021   69.6746   82.0128 C   0  0  0  0  0  0  0  0  0  0  0  0
    1.8892   68.1531   80.6964 N   0  0  0  0  0  0  0  0  0  0  0  0
    1.1706   67.0341   80.9635 N   0  0  0  0  0  0  0  0  0  0  0  0
    2.3153   67.4302   84.2842 C   0  0  0  0  0  0  0  0  0  0  0  0
    3.0176   68.1864   84.9447 O   0  0  0  0  0  0  0  0  0  0  0  0
    1.6837   66.3252   84.8236 N   0  0  0  0  0  0  0  0  0  0  0  0
    1.8390   66.1780   85.8121 H   0  0  0  0  0  0  0  0  0  0  0  0
   -0.3303   63.1598   84.2670 C   0  0  0  0  0  0  0  0  0  0  0  0
   -0.8624   62.1435   85.0761 C   0  0  0  0  0  0  0  0  0  0  0  0
   -0.8035   62.2296   86.4702 C   0  0  0  0  0  0  0  0  0  0  0  0
   -0.2076   63.3414   87.0687 C   0  0  0  0  0  0  0  0  0  0  0  0
    0.3283   64.3652   86.2812 C   0  0  0  0  0  0  0  0  0  0  0  0
    0.2731   64.2863   84.8751 C   0  0  0  0  0  0  0  0  0  0  0  0
   -0.1447   63.4341   88.5335 N   0  0  0  0  0  0  0  0  0  0  0  0
   -1.1820   63.2103   89.1715 O   0  0  0  0  0  0  0  0  0  0  0  0
    0.9452   63.7313   89.0427 O   0  0  0  0  0  0  0  0  0  0  0  0
   -0.3646   63.1202   82.8961 O   0  0  0  0  0  0  0  0  0  0  0  0
   -0.8607   61.9401   82.2568 C   0  0  0  0  0  0  0  0  0  0  0  0
    1.4684   61.0035   82.0194 C   0  0  0  0  0  0  0  0  0  0  0  0
    0.2152   61.4532   81.2906 C   0  0  0  0  0  0  0  0  0  0  0  0
    0.4327   66.3793   79.9029 C   0  0  0  0  0  0  0  0  0  0  0  0
    1.3470   65.6399   78.9428 C   0  0  0  0  0  0  0  0  0  0  0  0
 24 25  1  0  0  0
 25 23  1  0  0  0
 23 22  1  0  0  0
 22 13  1  0  0  0
 13 14  1  0  0  0
 14 15  2  0  0  0
 15 16  1  0  0  0
 16 19  1  0  0  0
 19 20  2  0  0  0
 19 21  1  0  0  0
 16 17  2  0  0  0
 17 18  1  0  0  0
 18  1  1  0  0  0
  1  2  2  0  0  0
  2  3  1  0  0  0
  3  4  2  0  0  0
  4  5  1  0  0  0
  5  6  1  0  0  0
  5  7  2  0  0  0
  7  8  1  0  0  0
  8 26  1  0  0  0
 26 27  1  0  0  0
  4  9  1  0  0  0
  9 10  2  0  0  0
  9 11  1  0  0  0
 18 13  2  0  0  0
 11  1  1  0  0  0
  8  3  1  0  0  0
 11 12  1  0  0  0
M  CHG 1  19   1
M  CHG 1  21  -1
M  END
> <minimizedAffinity>
-8.98437

$$$$



 27 29  0  0  0  0  0  0  0  0999 V2000
   -1.0964   62.5088   83.3672 C   0  0  0  0  0  0  0  0  0  0  0  0
   -0.8292   63.0305   82.1984 N   0  0  0  0  0  0  0  0  0  0  0  0
   -1.3221   62.3220   81.1524 C   0  0  0  0  0  0  0  0  0  0  0  0
   -2.0473   61.1577   81.1932 C   0  0  0  0  0  0  0  0  0  0  0  0
   -2.3263   60.8259   79.8554 C   0  0  0  0  0  0  0  0  0  0  0  0
   -3.0835   59.6590   79.3447 C   0  0  0  0  0  0  0  0  0  0  0  0
   -1.8059   61.7328   79.0114 N   0  0  0  0  0  0  0  0  0  0  0  0
   -1.2000   62.6316   79.8268 N   0  0  0  0  0  0  0  0  0  0  0  0
   -2.3412   60.5814   82.4702 C   0  0  0  0  0  0  0  0  0  0  0  0
   -2.9763   59.5476   82.6414 O   0  0  0  0  0  0  0  0  0  0  0  0
   -1.8238   61.3287   83.5117 N   0  0  0  0  0  0  0  0  0  0  0  0
   -2.0041   60.9633   84.4374 H   0  0  0  0  0  0  0  0  0  0  0  0
    0.4438   64.1256   84.6642 C   0  0  0  0  0  0  0  0  0  0  0  0
    0.8108   64.6954   85.8935 C   0  0  0  0  0  0  0  0  0  0  0  0
    0.1467   64.3481   87.0736 C   0  0  0  0  0  0  0  0  0  0  0  0
   -0.8968   63.4213   87.0316 C   0  0  0  0  0  0  0  0  0  0  0  0
   -1.2781   62.8416   85.8174 C   0  0  0  0  0  0  0  0  0  0  0  0
   -0.6139   63.1862   84.6231 C   0  0  0  0  0  0  0  0  0  0  0  0
   -1.5960   63.0547   88.2704 N   0  0  0  0  0  0  0  0  0  0  0  0
   -0.9967   63.2173   89.3417 O   0  0  0  0  0  0  0  0  0  0  0  0
   -2.7456   62.6039   88.1678 O   0  0  0  0  0  0  0  0  0  0  0  0
    1.0653   64.4345   83.4808 O   0  0  0  0  0  0  0  0  0  0  0  0
    1.4416   65.7937   83.2388 C   0  0  0  0  0  0  0  0  0  0  0  0
    1.8135   66.6165   80.8844 C   0  0  0  0  0  0  0  0  0  0  0  0
    0.7856   66.2268   81.9311 C   0  0  0  0  0  0  0  0  0  0  0  0
   -0.5151   63.7748   79.2592 C   0  0  0  0  0  0  0  0  0  0  0  0
    0.7129   63.3687   78.4644 C   0  0  0  0  0  0  0  0  0  0  0  0
 24 25  1  0  0  0
 25 23  1  0  0  0
 23 22  1  0  0  0
 22 13  1  0  0  0
 13 14  1  0  0  0
 14 15  2  0  0  0
 15 16  1  0  0  0
 16 19  1  0  0  0
 19 20  2  0  0  0
 19 21  1  0  0  0
 16 17  2  0  0  0
 17 18  1  0  0  0
 18  1  1  0  0  0
  1  2  2  0  0  0
  2  3  1  0  0  0
  3  4  2  0  0  0
  4  5  1  0  0  0
  5  6  1  0  0  0
  5  7  2  0  0  0
  7  8  1  0  0  0
  8 26  1  0  0  0
 26 27  1  0  0  0
  4  9  1  0  0  0
  9 10  2  0  0  0
  9 11  1  0  0  0
 18 13  2  0  0  0
 11  1  1  0  0  0
  8  3  1  0  0  0
 11 12  1  0  0  0
M  CHG 1  19   1
M  CHG 1  21  -1
M  END
> <minimizedAffinity>
-8.75483

$$$$



 27 29  0  0  0  0  0  0  0  0999 V2000
    1.7135   65.2233   84.7224 C   0  0  0  0  0  0  0  0  0  0  0  0
    1.3383   64.8045   85.9029 N   0  0  0  0  0  0  0  0  0  0  0  0
    0.2507   63.9947   85.8808 C   0  0  0  0  0  0  0  0  0  0  0  0
   -0.4687   63.5833   84.7870 C   0  0  0  0  0  0  0  0  0  0  0  0
   -1.4911   62.7547   85.2828 C   0  0  0  0  0  0  0  0  0  0  0  0
   -2.5461   62.0509   84.5162 C   0  0  0  0  0  0  0  0  0  0  0  0
   -1.4225   62.6462   86.6204 N   0  0  0  0  0  0  0  0  0  0  0  0
   -0.3543   63.4108   86.9583 N   0  0  0  0  0  0  0  0  0  0  0  0
   -0.0631   64.0402   83.4923 C   0  0  0  0  0  0  0  0  0  0  0  0
   -0.6203   63.7474   82.4411 O   0  0  0  0  0  0  0  0  0  0  0  0
    1.0465   64.8625   83.5530 N   0  0  0  0  0  0  0  0  0  0  0  0
    1.3739   65.2132   82.6627 H   0  0  0  0  0  0  0  0  0  0  0  0
    2.8887   67.3807   83.9268 C   0  0  0  0  0  0  0  0  0  0  0  0
    4.0646   68.1446   83.8628 C   0  0  0  0  0  0  0  0  0  0  0  0
    5.2512   67.6876   84.4437 C   0  0  0  0  0  0  0  0  0  0  0  0
    5.2695   66.4539   85.0974 C   0  0  0  0  0  0  0  0  0  0  0  0
    4.1092   65.6770   85.1723 C   0  0  0  0  0  0  0  0  0  0  0  0
    2.9088   66.1303   84.5893 C   0  0  0  0  0  0  0  0  0  0  0  0
    6.5153   65.9715   85.7084 N   0  0  0  0  0  0  0  0  0  0  0  0
    7.5302   65.9360   84.9999 O   0  0  0  0  0  0  0  0  0  0  0  0
    6.4746   65.6286   86.8985 O   0  0  0  0  0  0  0  0  0  0  0  0
    1.7013   67.7867   83.3723 O   0  0  0  0  0  0  0  0  0  0  0  0
    1.7216   68.3893   82.0746 C   0  0  0  0  0  0  0  0  0  0  0  0
    0.4309   66.8025   80.5999 C   0  0  0  0  0  0  0  0  0  0  0  0
    1.8059   67.2650   81.0465 C   0  0  0  0  0  0  0  0  0  0  0  0
    0.0323   63.5375   88.3485 C   0  0  0  0  0  0  0  0  0  0  0  0
    0.2138   62.1866   89.0167 C   0  0  0  0  0  0  0  0  0  0  0  0
 24 25  1  0  0  0
 25 23  1  0  0  0
 23 22  1  0  0  0
 22 13  1  0  0  0
 13 14  1  0  0  0
 14 15  2  0  0  0
 15 16  1  0  0  0
 16 19  1  0  0  0
 19 20  2  0  0  0
 19 21  1  0  0  0
 16 17  2  0  0  0
 17 18  1  0  0  0
 18  1  1  0  0  0
  1  2  2  0  0  0
  2  3  1  0  0  0
  3  4  2  0  0  0
  4  5  1  0  0  0
  5  6  1  0  0  0
  5  7  2  0  0  0
  7  8  1  0  0  0
  8 26  1  0  0  0
 26 27  1  0  0  0
  4  9  1  0  0  0
  9 10  2  0  0  0
  9 11  1  0  0  0
 18 13  2  0  0  0
 11  1  1  0  0  0
  8  3  1  0  0  0
 11 12  1  0  0  0
M  CHG 1  19   1
M  CHG 1  21  -1
M  END
> <minimizedAffinity>
-8.74849

$$$$



 27 29  0  0  0  0  0  0  0  0999 V2000
   -0.1664   64.2244   83.7535 C   0  0  0  0  0  0  0  0  0  0  0  0
    0.5414   65.2990   83.9854 N   0  0  0  0  0  0  0  0  0  0  0  0
    1.0663   65.8651   82.8705 C   0  0  0  0  0  0  0  0  0  0  0  0
    0.9341   65.4426   81.5716 C   0  0  0  0  0  0  0  0  0  0  0  0
    1.6539   66.3621   80.7881 C   0  0  0  0  0  0  0  0  0  0  0  0
    1.8306   66.3640   79.3168 C   0  0  0  0  0  0  0  0  0  0  0  0
    2.2122   67.3176   81.5505 N   0  0  0  0  0  0  0  0  0  0  0  0
    1.8393   66.9908   82.8130 N   0  0  0  0  0  0  0  0  0  0  0  0
    0.1615   64.2657   81.3122 C   0  0  0  0  0  0  0  0  0  0  0  0
   -0.0305   63.7859   80.2012 O   0  0  0  0  0  0  0  0  0  0  0  0
   -0.3568   63.7159   82.4698 N   0  0  0  0  0  0  0  0  0  0  0  0
   -0.9118   62.8803   82.3408 H   0  0  0  0  0  0  0  0  0  0  0  0
   -1.9119   62.6058   84.7544 C   0  0  0  0  0  0  0  0  0  0  0  0
   -2.4365   61.9711   85.8913 C   0  0  0  0  0  0  0  0  0  0  0  0
   -1.8892   62.1972   87.1576 C   0  0  0  0  0  0  0  0  0  0  0  0
   -0.8054   63.0665   87.2962 C   0  0  0  0  0  0  0  0  0  0  0  0
   -0.2679   63.7093   86.1766 C   0  0  0  0  0  0  0  0  0  0  0  0
   -0.8136   63.4868   84.8964 C   0  0  0  0  0  0  0  0  0  0  0  0
   -0.2288   63.3058   88.6260 N   0  0  0  0  0  0  0  0  0  0  0  0
    0.9560   63.6607   88.6865 O   0  0  0  0  0  0  0  0  0  0  0  0
   -0.9648   63.1376   89.6086 O   0  0  0  0  0  0  0  0  0  0  0  0
   -2.4148   62.4158   83.4922 O   0  0  0  0  0  0  0  0  0  0  0  0
   -2.6689   61.0789   83.0498 C   0  0  0  0  0  0  0  0  0  0  0  0
   -3.2807   62.3072   80.9343 C   0  0  0  0  0  0  0  0  0  0  0  0
   -2.6108   61.0800   81.5251 C   0  0  0  0  0  0  0  0  0  0  0  0
    2.2659   67.8119   83.9275 C   0  0  0  0  0  0  0  0  0  0  0  0
    3.5907   67.3476   84.5052 C   0  0  0  0  0  0  0  0  0  0  0  0
 24 25  1  0  0  0
 25 23  1  0  0  0
 23 22  1  0  0  0
 22 13  1  0  0  0
 13 14  1  0  0  0
 14 15  2  0  0  0
 15 16  1  0  0  0
 16 19  1  0  0  0
 19 20  2  0  0  0
 19 21  1  0  0  0
 16 17  2  0  0  0
 17 18  1  0  0  0
 18  1  1  0  0  0
  1  2  2  0  0  0
  2  3  1  0  0  0
  3  4  2  0  0  0
  4  5  1  0  0  0
  5  6  1  0  0  0
  5  7  2  0  0  0
  7  8  1  0  0  0
  8 26  1  0  0  0
 26 27  1  0  0  0
  4  9  1  0  0  0
  9 10  2  0  0  0
  9 11  1  0  0  0
 18 13  2  0  0  0
 11  1  1  0  0  0
  8  3  1  0  0  0
 11 12  1  0  0  0
M  CHG 1  19   1
M  CHG 1  21  -1
M  END
> <minimizedAffinity>
-8.66206

$$$$



 27 29  0  0  0  0  0  0  0  0999 V2000
    1.7884   65.3560   84.6936 C   0  0  0  0  0  0  0  0  0  0  0  0
    1.1084   64.9864   83.6397 N   0  0  0  0  0  0  0  0  0  0  0  0
    0.0439   64.1943   83.9201 C   0  0  0  0  0  0  0  0  0  0  0  0
   -0.3783   63.7586   85.1509 C   0  0  0  0  0  0  0  0  0  0  0  0
   -1.5213   62.9740   84.9150 C   0  0  0  0  0  0  0  0  0  0  0  0
   -2.3631   62.2678   85.9093 C   0  0  0  0  0  0  0  0  0  0  0  0
   -1.8087   62.9165   83.6036 N   0  0  0  0  0  0  0  0  0  0  0  0
   -0.8404   63.6669   83.0213 N   0  0  0  0  0  0  0  0  0  0  0  0
    0.3636   64.1590   86.3079 C   0  0  0  0  0  0  0  0  0  0  0  0
    0.0921   63.8374   87.4586 O   0  0  0  0  0  0  0  0  0  0  0  0
    1.4401   64.9638   85.9849 N   0  0  0  0  0  0  0  0  0  0  0  0
    1.9984   65.2745   86.7689 H   0  0  0  0  0  0  0  0  0  0  0  0
    2.9746   67.5234   83.9429 C   0  0  0  0  0  0  0  0  0  0  0  0
    4.1654   68.2610   83.8500 C   0  0  0  0  0  0  0  0  0  0  0  0
    5.3702   67.7454   84.3367 C   0  0  0  0  0  0  0  0  0  0  0  0
    5.3921   66.4788   84.9239 C   0  0  0  0  0  0  0  0  0  0  0  0
    4.2172   65.7272   85.0261 C   0  0  0  0  0  0  0  0  0  0  0  0
    2.9984   66.2397   84.5380 C   0  0  0  0  0  0  0  0  0  0  0  0
    6.6570   65.9348   85.4358 N   0  0  0  0  0  0  0  0  0  0  0  0
    7.5929   65.7987   84.6365 O   0  0  0  0  0  0  0  0  0  0  0  0
    6.7107   65.6445   86.6393 O   0  0  0  0  0  0  0  0  0  0  0  0
    1.7692   67.9868   83.4800 O   0  0  0  0  0  0  0  0  0  0  0  0
    1.7194   68.5916   82.1841 C   0  0  0  0  0  0  0  0  0  0  0  0
    1.9159   66.6895   80.5405 C   0  0  0  0  0  0  0  0  0  0  0  0
    0.9717   67.6362   81.2589 C   0  0  0  0  0  0  0  0  0  0  0  0
   -0.8249   63.8361   81.5828 C   0  0  0  0  0  0  0  0  0  0  0  0
    0.1151   62.8575   80.9023 C   0  0  0  0  0  0  0  0  0  0  0  0
 24 25  1  0  0  0
 25 23  1  0  0  0
 23 22  1  0  0  0
 22 13  1  0  0  0
 13 14  1  0  0  0
 14 15  2  0  0  0
 15 16  1  0  0  0
 16 19  1  0  0  0
 19 20  2  0  0  0
 19 21  1  0  0  0
 16 17  2  0  0  0
 17 18  1  0  0  0
 18  1  1  0  0  0
  1  2  2  0  0  0
  2  3  1  0  0  0
  3  4  2  0  0  0
  4  5  1  0  0  0
  5  6  1  0  0  0
  5  7  2  0  0  0
  7  8  1  0  0  0
  8 26  1  0  0  0
 26 27  1  0  0  0
  4  9  1  0  0  0
  9 10  2  0  0  0
  9 11  1  0  0  0
 18 13  2  0  0  0
 11  1  1  0  0  0
  8  3  1  0  0  0
 11 12  1  0  0  0
M  CHG 1  19   1
M  CHG 1  21  -1
M  END
> <minimizedAffinity>
-8.62813

$$$$
