
     RDKit          3D

 60 64  0  0  0  0  0  0  0  0999 V2000
    7.0677    2.3862   -1.4111 C   0  0  0  0  0  0  0  0  0  0  0  0
    7.1179    1.5733   -0.1986 N   0  0  0  0  0  0  0  0  0  0  0  0
    6.4138    0.2864   -0.3674 C   0  0  0  0  0  0  0  0  0  0  0  0
    4.8725    0.3735   -0.3743 C   0  0  0  0  0  0  0  0  0  0  0  0
    4.3292    1.1368    0.7920 N   0  0  0  0  0  0  0  0  0  0  0  0
    4.0864    0.2658    2.2368 S   0  0  0  0  0  0  0  0  0  0  0  0
    5.2927   -0.4791    2.5236 O   0  0  0  0  0  0  0  0  0  0  0  0
    3.5105    1.1642    3.2148 O   0  0  0  0  0  0  0  0  0  0  0  0
    2.8134   -0.8833    1.7822 C   0  0  0  0  0  0  0  0  0  0  0  0
    3.0660   -2.2533    1.7936 C   0  0  0  0  0  0  0  0  0  0  0  0
    2.0510   -3.1250    1.4144 C   0  0  0  0  0  0  0  0  0  0  0  0
    0.7970   -2.6260    1.0371 C   0  0  0  0  0  0  0  0  0  0  0  0
    0.5202   -1.2532    1.0459 C   0  0  0  0  0  0  0  0  0  0  0  0
   -0.7028   -0.6995    0.6528 N   0  0  0  0  0  0  0  0  0  0  0  0
   -1.8987   -1.2341    0.1785 C   0  0  0  0  0  0  0  0  0  0  0  0
   -2.8956   -0.3477    0.0522 N   0  0  0  0  0  0  0  0  0  0  0  0
   -4.0815   -0.7803   -0.4104 C   0  0  0  0  0  0  0  0  0  0  0  0
   -5.1364    0.1455   -0.5468 N   0  0  0  0  0  0  0  0  0  0  0  0
   -4.8058    1.5259   -0.2039 C   0  0  0  0  0  0  0  0  0  0  0  0
   -5.9391    2.4755   -0.4884 C   0  0  0  0  0  0  0  0  0  0  0  0
   -6.1610    3.2249   -1.6283 C   0  0  0  0  0  0  0  0  0  0  0  0
   -7.3470    4.0096   -1.5386 C   0  0  0  0  0  0  0  0  0  0  0  0
   -7.9925    3.8315   -0.3358 C   0  0  0  0  0  0  0  0  0  0  0  0
   -7.1717    2.7247    0.6764 S   0  0  0  0  0  0  0  0  0  0  0  0
   -4.3048   -2.1279   -0.7322 C   0  0  0  0  0  0  0  0  0  0  0  0
   -5.5374   -2.6725   -1.1779 C   0  0  0  0  0  0  0  0  0  0  0  0
   -5.6517   -4.0267   -1.4827 C   0  0  0  0  0  0  0  0  0  0  0  0
   -4.5433   -4.8499   -1.3432 C   0  0  0  0  0  0  0  0  0  0  0  0
   -3.3340   -4.3128   -0.8928 C   0  0  0  0  0  0  0  0  0  0  0  0
   -3.1976   -2.9652   -0.5794 C   0  0  0  0  0  0  0  0  0  0  0  0
   -2.0154   -2.5257   -0.1422 N   0  0  0  0  0  0  0  0  0  0  0  0
    1.5565   -0.3843    1.4168 C   0  0  0  0  0  0  0  0  0  0  0  0
    5.0311    2.4458    0.9602 C   0  0  0  0  0  0  0  0  0  0  0  0
    6.5631    2.2856    0.9709 C   0  0  0  0  0  0  0  0  0  0  0  0
    7.6314    3.3152   -1.2707 H   0  0  0  0  0  0  0  0  0  0  0  0
    6.0503    2.6487   -1.7172 H   0  0  0  0  0  0  0  0  0  0  0  0
    7.5454    1.8566   -2.2429 H   0  0  0  0  0  0  0  0  0  0  0  0
    6.7511   -0.2050   -1.2886 H   0  0  0  0  0  0  0  0  0  0  0  0
    6.7357   -0.3783    0.4424 H   0  0  0  0  0  0  0  0  0  0  0  0
    4.5276    0.8760   -1.2862 H   0  0  0  0  0  0  0  0  0  0  0  0
    4.4464   -0.6336   -0.4120 H   0  0  0  0  0  0  0  0  0  0  0  0
    4.0361   -2.6448    2.0895 H   0  0  0  0  0  0  0  0  0  0  0  0
    2.2257   -4.1983    1.4109 H   0  0  0  0  0  0  0  0  0  0  0  0
    0.0350   -3.3446    0.7489 H   0  0  0  0  0  0  0  0  0  0  0  0
   -0.8496    0.2767    0.8659 H   0  0  0  0  0  0  0  0  0  0  0  0
   -5.5220    0.0840   -1.4837 H   0  0  0  0  0  0  0  0  0  0  0  0
   -4.5304    1.5961    0.8568 H   0  0  0  0  0  0  0  0  0  0  0  0
   -3.9380    1.8625   -0.7878 H   0  0  0  0  0  0  0  0  0  0  0  0
   -5.5016    3.2130   -2.4881 H   0  0  0  0  0  0  0  0  0  0  0  0
   -7.7090    4.6709   -2.3163 H   0  0  0  0  0  0  0  0  0  0  0  0
   -8.9088    4.2970    0.0005 H   0  0  0  0  0  0  0  0  0  0  0  0
   -6.4164   -2.0383   -1.2705 H   0  0  0  0  0  0  0  0  0  0  0  0
   -6.6011   -4.4350   -1.8194 H   0  0  0  0  0  0  0  0  0  0  0  0
   -4.6141   -5.9097   -1.5741 H   0  0  0  0  0  0  0  0  0  0  0  0
   -2.4729   -4.9678   -0.7778 H   0  0  0  0  0  0  0  0  0  0  0  0
    1.3937    0.6917    1.4218 H   0  0  0  0  0  0  0  0  0  0  0  0
    4.7017    2.9469    1.8763 H   0  0  0  0  0  0  0  0  0  0  0  0
    4.7185    3.1013    0.1385 H   0  0  0  0  0  0  0  0  0  0  0  0
    7.0323    3.2731    1.0615 H   0  0  0  0  0  0  0  0  0  0  0  0
    6.8603    1.7373    1.8736 H   0  0  0  0  0  0  0  0  0  0  0  0
  1  2  1  0
  2  3  1  0
  3  4  1  0
  4  5  1  0
  5  6  1  0
  6  7  2  0
  6  8  2  0
  6  9  1  0
  9 10  2  0
 10 11  1  0
 11 12  2  0
 12 13  1  0
 13 14  1  0
 14 15  1  0
 15 16  2  0
 16 17  1  0
 17 18  1  0
 18 19  1  0
 19 20  1  0
 20 21  2  0
 21 22  1  0
 22 23  2  0
 23 24  1  0
 17 25  2  0
 25 26  1  0
 26 27  2  0
 27 28  1  0
 28 29  2  0
 29 30  1  0
 30 31  2  0
 13 32  2  0
  5 33  1  0
 33 34  1  0
 34  2  1  0
 32  9  1  0
 31 15  1  0
 24 20  1  0
 30 25  1  0
  1 35  1  0
  1 36  1  0
  1 37  1  0
  3 38  1  0
  3 39  1  0
  4 40  1  0
  4 41  1  0
 10 42  1  0
 11 43  1  0
 12 44  1  0
 14 45  1  0
 18 46  1  0
 19 47  1  0
 19 48  1  0
 21 49  1  0
 22 50  1  0
 23 51  1  0
 26 52  1  0
 27 53  1  0
 28 54  1  0
 29 55  1  0
 32 56  1  0
 33 57  1  0
 33 58  1  0
 34 59  1  0
 34 60  1  0
M  END
$$$$
