
     RDKit          3D

 54 56  0  0  0  0  0  0  0  0999 V2000
   -4.4659    3.7480    1.1376 C   0  0  0  0  0  0  0  0  0  0  0  0
   -4.4993    3.7786   -0.3841 C   0  0  0  0  0  0  0  0  0  0  0  0
   -3.1689    3.3554   -1.0040 C   0  0  0  0  0  0  0  0  0  0  0  0
   -2.9219    1.9884   -0.6654 O   0  0  0  0  0  0  0  0  0  0  0  0
   -1.7431    1.4163   -1.0729 C   0  0  0  0  0  0  0  0  0  0  0  0
   -0.8104    2.0756   -1.8895 C   0  0  0  0  0  0  0  0  0  0  0  0
    0.3779    1.4479   -2.2713 C   0  0  0  0  0  0  0  0  0  0  0  0
    0.6361    0.1495   -1.8406 C   0  0  0  0  0  0  0  0  0  0  0  0
    2.1425   -0.6667   -2.3127 S   0  0  0  0  0  0  0  0  0  0  0  0
    1.7535   -1.8438   -3.0573 O   0  0  0  0  0  0  0  0  0  0  0  0
    3.0259    0.3272   -2.8822 O   0  0  0  0  0  0  0  0  0  0  0  0
    2.7857   -1.1526   -0.8154 N   0  0  0  0  0  0  0  0  0  0  0  0
    3.2340   -0.0715    0.1145 C   0  0  0  0  0  0  0  0  0  0  0  0
    4.6853    0.3821   -0.1537 C   0  0  0  0  0  0  0  0  0  0  0  0
    5.6826   -0.7037   -0.2336 N   0  0  0  0  0  0  0  0  0  0  0  0
    5.9936   -1.2563    1.0826 C   0  0  0  0  0  0  0  0  0  0  0  0
    5.2051   -1.7414   -1.1711 C   0  0  0  0  0  0  0  0  0  0  0  0
    3.7840   -2.2621   -0.8851 C   0  0  0  0  0  0  0  0  0  0  0  0
   -0.2792   -0.5287   -1.0337 C   0  0  0  0  0  0  0  0  0  0  0  0
   -1.4751    0.0963   -0.6399 C   0  0  0  0  0  0  0  0  0  0  0  0
   -2.3922   -0.7014    0.2423 C   0  0  0  0  0  0  0  0  0  0  0  0
   -1.9913   -1.8116    0.7812 N   0  0  0  0  0  0  0  0  0  0  0  0
   -2.8741   -2.5164    1.5862 C   0  0  0  0  0  0  0  0  0  0  0  0
   -2.3728   -3.8152    2.1953 C   0  0  0  0  0  0  0  0  0  0  0  0
   -3.3101   -4.4233    2.9739 F   0  0  0  0  0  0  0  0  0  0  0  0
   -2.0165   -4.7215    1.2477 F   0  0  0  0  0  0  0  0  0  0  0  0
   -1.2862   -3.6207    2.9887 F   0  0  0  0  0  0  0  0  0  0  0  0
   -4.1235   -2.0958    1.8414 C   0  0  0  0  0  0  0  0  0  0  0  0
   -4.5728   -0.8359    1.2446 C   0  0  0  0  0  0  0  0  0  0  0  0
   -5.6901   -0.3866    1.4637 O   0  0  0  0  0  0  0  0  0  0  0  0
   -3.6586   -0.2192    0.4495 N   0  0  0  0  0  0  0  0  0  0  0  0
   -3.6851    4.4102    1.5250 H   0  0  0  0  0  0  0  0  0  0  0  0
   -5.4262    4.0829    1.5423 H   0  0  0  0  0  0  0  0  0  0  0  0
   -4.2772    2.7378    1.5135 H   0  0  0  0  0  0  0  0  0  0  0  0
   -4.7494    4.7914   -0.7187 H   0  0  0  0  0  0  0  0  0  0  0  0
   -5.2945    3.1065   -0.7272 H   0  0  0  0  0  0  0  0  0  0  0  0
   -3.2428    3.4579   -2.0929 H   0  0  0  0  0  0  0  0  0  0  0  0
   -2.3659    3.9964   -0.6211 H   0  0  0  0  0  0  0  0  0  0  0  0
   -0.9779    3.0850   -2.2540 H   0  0  0  0  0  0  0  0  0  0  0  0
    1.0868    1.9751   -2.9074 H   0  0  0  0  0  0  0  0  0  0  0  0
    2.5618    0.7906    0.0569 H   0  0  0  0  0  0  0  0  0  0  0  0
    3.1410   -0.4553    1.1377 H   0  0  0  0  0  0  0  0  0  0  0  0
    4.9840    1.1075    0.6135 H   0  0  0  0  0  0  0  0  0  0  0  0
    4.7224    0.9370   -1.0981 H   0  0  0  0  0  0  0  0  0  0  0  0
    6.7634   -2.0316    0.9984 H   0  0  0  0  0  0  0  0  0  0  0  0
    6.4080   -0.4775    1.7325 H   0  0  0  0  0  0  0  0  0  0  0  0
    5.1259   -1.6917    1.5878 H   0  0  0  0  0  0  0  0  0  0  0  0
    5.9075   -2.5839   -1.1826 H   0  0  0  0  0  0  0  0  0  0  0  0
    5.2350   -1.3213   -2.1844 H   0  0  0  0  0  0  0  0  0  0  0  0
    3.7554   -2.8000    0.0701 H   0  0  0  0  0  0  0  0  0  0  0  0
    3.4954   -2.9967   -1.6439 H   0  0  0  0  0  0  0  0  0  0  0  0
   -0.0560   -1.5475   -0.7183 H   0  0  0  0  0  0  0  0  0  0  0  0
   -4.8271   -2.6273    2.4688 H   0  0  0  0  0  0  0  0  0  0  0  0
   -3.9387    0.6632    0.0392 H   0  0  0  0  0  0  0  0  0  0  0  0
  1  2  1  0
  2  3  1  0
  3  4  1  0
  4  5  1  0
  5  6  1  0
  6  7  2  0
  7  8  1  0
  8  9  1  0
  9 10  2  0
  9 11  2  0
  9 12  1  0
 12 13  1  0
 13 14  1  0
 14 15  1  0
 15 16  1  0
 15 17  1  0
 17 18  1  0
  8 19  2  0
 19 20  1  0
 20 21  1  0
 21 22  2  0
 22 23  1  0
 23 24  1  0
 24 25  1  0
 24 26  1  0
 24 27  1  0
 23 28  2  0
 28 29  1  0
 29 30  2  0
 29 31  1  0
 20  5  2  0
 31 21  1  0
 18 12  1  0
  1 32  1  0
  1 33  1  0
  1 34  1  0
  2 35  1  0
  2 36  1  0
  3 37  1  0
  3 38  1  0
  6 39  1  0
  7 40  1  0
 13 41  1  0
 13 42  1  0
 14 43  1  0
 14 44  1  0
 16 45  1  0
 16 46  1  0
 16 47  1  0
 17 48  1  0
 17 49  1  0
 18 50  1  0
 18 51  1  0
 19 52  1  0
 28 53  1  0
 31 54  1  0
M  END
$$$$
