


 32 36  0  0  0  0  0  0  0  0999 V2000
   -0.0484   63.4544   83.2575 N   0  0  0  0  0  0  0  0  0  0  0  0
    1.0087   64.3031   83.0890 N   0  0  0  0  0  0  0  0  0  0  0  0
    1.3016   64.7505   84.3144 C   0  0  0  0  0  0  0  0  0  0  0  0
    0.4107   64.2360   85.2902 C   0  0  0  0  0  0  0  0  0  0  0  0
    0.2552   64.3934   86.6810 C   0  0  0  0  0  0  0  0  0  0  0  0
   -0.7675   63.7010   87.3241 C   0  0  0  0  0  0  0  0  0  0  0  0
   -0.9230   63.8450   88.6471 F   0  0  0  0  0  0  0  0  0  0  0  0
   -1.6292   62.8669   86.6279 C   0  0  0  0  0  0  0  0  0  0  0  0
   -1.4918   62.6975   85.2469 C   0  0  0  0  0  0  0  0  0  0  0  0
   -0.4588   63.3961   84.5900 C   0  0  0  0  0  0  0  0  0  0  0  0
   -1.3758   59.7668   78.0867 C   0  0  0  0  0  0  0  0  0  0  0  0
   -2.3260   60.5385   79.0043 C   0  0  0  0  0  0  0  0  0  0  0  0
   -3.4669   61.1959   78.2253 C   0  0  0  0  0  0  0  0  0  0  0  0
   -2.9490   59.5301   80.0017 C   0  0  0  0  0  0  0  0  0  0  0  0
   -3.6321   58.5561   79.7346 O   0  0  0  0  0  0  0  0  0  0  0  0
   -2.5903   59.9320   81.2714 N   0  0  0  0  0  0  0  0  0  0  0  0
   -1.8136   61.0712   81.2436 C   0  0  0  0  0  0  0  0  0  0  0  0
   -1.3456   61.6491   82.3452 N   0  0  0  0  0  0  0  0  0  0  0  0
   -0.6060   62.7527   82.1255 C   0  0  0  0  0  0  0  0  0  0  0  0
   -0.3499   63.2470   80.8883 N   0  0  0  0  0  0  0  0  0  0  0  0
   -0.8584   62.6072   79.8149 C   0  0  0  0  0  0  0  0  0  0  0  0
   -0.3846   63.4760   77.9786 I   0  0  0  0  0  0  0  0  0  0  0  0
   -1.6187   61.4825   79.9427 C   0  0  0  0  0  0  0  0  0  0  0  0
   -2.8612   59.4531   82.1157 H   0  0  0  0  0  0  0  0  0  0  0  0
    2.4336   65.7077   84.5084 C   0  0  0  0  0  0  0  0  0  0  0  0
    2.1188   66.9153   83.6639 C   0  0  0  0  0  0  0  0  0  0  0  0
    1.2887   66.8149   82.5355 C   0  0  0  0  0  0  0  0  0  0  0  0
    1.0041   67.9418   81.7599 C   0  0  0  0  0  0  0  0  0  0  0  0
    1.5422   69.1822   82.1020 C   0  0  0  0  0  0  0  0  0  0  0  0
    2.3651   69.2958   83.2207 C   0  0  0  0  0  0  0  0  0  0  0  0
    2.6449   68.1689   83.9889 C   0  0  0  0  0  0  0  0  0  0  0  0
    3.4354   68.3038   85.0637 F   0  0  0  0  0  0  0  0  0  0  0  0
 11 12  1  0  0  0
 12 13  1  0  0  0
 12 14  1  0  0  0
 14 15  2  0  0  0
 14 16  1  0  0  0
 16 17  1  0  0  0
 17 18  2  0  0  0
 18 19  1  0  0  0
 19  1  1  0  0  0
  1  2  1  0  0  0
  2  3  2  0  0  0
  3 25  1  0  0  0
 25 26  1  0  0  0
 26 27  2  0  0  0
 27 28  1  0  0  0
 28 29  2  0  0  0
 29 30  1  0  0  0
 30 31  2  0  0  0
 31 32  1  0  0  0
  3  4  1  0  0  0
  4  5  2  0  0  0
  5  6  1  0  0  0
  6  7  1  0  0  0
  6  8  2  0  0  0
  8  9  1  0  0  0
  9 10  2  0  0  0
 19 20  2  0  0  0
 20 21  1  0  0  0
 21 22  1  0  0  0
 21 23  2  0  0  0
 23 12  1  0  0  0
 23 17  1  0  0  0
 10  1  1  0  0  0
 31 26  1  0  0  0
 10  4  1  0  0  0
 16 24  1  0  0  0
M  END
> <minimizedAffinity>
-12.48849

$$$$



 32 36  0  0  0  0  0  0  0  0999 V2000
    0.0961   64.1613   82.9740 N   0  0  0  0  0  0  0  0  0  0  0  0
    0.7436   65.3621   82.9025 N   0  0  0  0  0  0  0  0  0  0  0  0
    1.0458   65.6765   84.1664 C   0  0  0  0  0  0  0  0  0  0  0  0
    0.5587   64.7086   85.0812 C   0  0  0  0  0  0  0  0  0  0  0  0
    0.5761   64.5618   86.4816 C   0  0  0  0  0  0  0  0  0  0  0  0
   -0.0213   63.4374   87.0455 C   0  0  0  0  0  0  0  0  0  0  0  0
   -0.0097   63.2897   88.3772 F   0  0  0  0  0  0  0  0  0  0  0  0
   -0.6284   62.4678   86.2619 C   0  0  0  0  0  0  0  0  0  0  0  0
   -0.6567   62.5952   84.8699 C   0  0  0  0  0  0  0  0  0  0  0  0
   -0.0541   63.7313   84.2930 C   0  0  0  0  0  0  0  0  0  0  0  0
   -0.6394   60.8615   77.4362 C   0  0  0  0  0  0  0  0  0  0  0  0
   -1.6981   61.3720   78.4155 C   0  0  0  0  0  0  0  0  0  0  0  0
   -2.9327   61.9146   77.6932 C   0  0  0  0  0  0  0  0  0  0  0  0
   -2.1470   60.1792   79.2963 C   0  0  0  0  0  0  0  0  0  0  0  0
   -2.6654   59.1411   78.9221 O   0  0  0  0  0  0  0  0  0  0  0  0
   -1.8530   60.5004   80.6051 N   0  0  0  0  0  0  0  0  0  0  0  0
   -1.2699   61.7463   80.7040 C   0  0  0  0  0  0  0  0  0  0  0  0
   -0.8969   62.2751   81.8649 N   0  0  0  0  0  0  0  0  0  0  0  0
   -0.3454   63.4998   81.7690 C   0  0  0  0  0  0  0  0  0  0  0  0
   -0.1767   64.1536   80.5923 N   0  0  0  0  0  0  0  0  0  0  0  0
   -0.5796   63.5546   79.4525 C   0  0  0  0  0  0  0  0  0  0  0  0
   -0.2585   64.6728   77.7211 I   0  0  0  0  0  0  0  0  0  0  0  0
   -1.1485   62.3153   79.4547 C   0  0  0  0  0  0  0  0  0  0  0  0
   -2.0402   59.8999   81.3923 H   0  0  0  0  0  0  0  0  0  0  0  0
    1.7804   66.9440   84.4648 C   0  0  0  0  0  0  0  0  0  0  0  0
    3.2311   66.5677   84.6224 C   0  0  0  0  0  0  0  0  0  0  0  0
    3.6058   65.3782   85.2683 C   0  0  0  0  0  0  0  0  0  0  0  0
    4.9543   65.0400   85.4086 C   0  0  0  0  0  0  0  0  0  0  0  0
    5.9444   65.8829   84.9044 C   0  0  0  0  0  0  0  0  0  0  0  0
    5.5857   67.0647   84.2591 C   0  0  0  0  0  0  0  0  0  0  0  0
    4.2403   67.3958   84.1231 C   0  0  0  0  0  0  0  0  0  0  0  0
    3.9195   68.5359   83.4940 F   0  0  0  0  0  0  0  0  0  0  0  0
 11 12  1  0  0  0
 12 13  1  0  0  0
 12 14  1  0  0  0
 14 15  2  0  0  0
 14 16  1  0  0  0
 16 17  1  0  0  0
 17 18  2  0  0  0
 18 19  1  0  0  0
 19  1  1  0  0  0
  1  2  1  0  0  0
  2  3  2  0  0  0
  3 25  1  0  0  0
 25 26  1  0  0  0
 26 27  2  0  0  0
 27 28  1  0  0  0
 28 29  2  0  0  0
 29 30  1  0  0  0
 30 31  2  0  0  0
 31 32  1  0  0  0
  3  4  1  0  0  0
  4  5  2  0  0  0
  5  6  1  0  0  0
  6  7  1  0  0  0
  6  8  2  0  0  0
  8  9  1  0  0  0
  9 10  2  0  0  0
 19 20  2  0  0  0
 20 21  1  0  0  0
 21 22  1  0  0  0
 21 23  2  0  0  0
 23 12  1  0  0  0
 23 17  1  0  0  0
 10  1  1  0  0  0
 31 26  1  0  0  0
 10  4  1  0  0  0
 16 24  1  0  0  0
M  END
> <minimizedAffinity>
-12.34514

$$$$



 32 36  0  0  0  0  0  0  0  0999 V2000
    0.0716   63.9376   82.1576 N   0  0  0  0  0  0  0  0  0  0  0  0
    0.8601   64.9631   81.7187 N   0  0  0  0  0  0  0  0  0  0  0  0
    1.3183   65.5558   82.8261 C   0  0  0  0  0  0  0  0  0  0  0  0
    0.7977   64.9539   83.9998 C   0  0  0  0  0  0  0  0  0  0  0  0
    0.9277   65.1874   85.3824 C   0  0  0  0  0  0  0  0  0  0  0  0
    0.2449   64.3592   86.2695 C   0  0  0  0  0  0  0  0  0  0  0  0
    0.3624   64.5742   87.5868 F   0  0  0  0  0  0  0  0  0  0  0  0
   -0.5542   63.3180   85.8221 C   0  0  0  0  0  0  0  0  0  0  0  0
   -0.6967   63.0700   84.4535 C   0  0  0  0  0  0  0  0  0  0  0  0
   -0.0085   63.9052   83.5505 C   0  0  0  0  0  0  0  0  0  0  0  0
   -1.5925   59.4620   77.7648 C   0  0  0  0  0  0  0  0  0  0  0  0
   -2.4809   60.3248   78.6631 C   0  0  0  0  0  0  0  0  0  0  0  0
   -3.7340   60.8111   77.9326 C   0  0  0  0  0  0  0  0  0  0  0  0
   -2.9354   59.4544   79.8614 C   0  0  0  0  0  0  0  0  0  0  0  0
   -3.5871   58.4248   79.8188 O   0  0  0  0  0  0  0  0  0  0  0  0
   -2.4658   60.0573   81.0096 N   0  0  0  0  0  0  0  0  0  0  0  0
   -1.7621   61.2094   80.7275 C   0  0  0  0  0  0  0  0  0  0  0  0
   -1.2119   61.9650   81.6723 N   0  0  0  0  0  0  0  0  0  0  0  0
   -0.5638   63.0515   81.2112 C   0  0  0  0  0  0  0  0  0  0  0  0
   -0.4702   63.3632   79.8942 N   0  0  0  0  0  0  0  0  0  0  0  0
   -1.0540   62.5490   78.9906 C   0  0  0  0  0  0  0  0  0  0  0  0
   -0.8297   63.1490   77.0053 I   0  0  0  0  0  0  0  0  0  0  0  0
   -1.7315   61.4270   79.3670 C   0  0  0  0  0  0  0  0  0  0  0  0
   -2.6170   59.7009   81.9399 H   0  0  0  0  0  0  0  0  0  0  0  0
    2.2363   66.7309   82.7183 C   0  0  0  0  0  0  0  0  0  0  0  0
    1.4315   67.8435   82.0975 C   0  0  0  0  0  0  0  0  0  0  0  0
    0.5326   67.5904   81.0485 C   0  0  0  0  0  0  0  0  0  0  0  0
   -0.2080   68.6304   80.4807 C   0  0  0  0  0  0  0  0  0  0  0  0
   -0.0624   69.9342   80.9539 C   0  0  0  0  0  0  0  0  0  0  0  0
    0.8242   70.1982   81.9960 C   0  0  0  0  0  0  0  0  0  0  0  0
    1.5593   69.1574   82.5570 C   0  0  0  0  0  0  0  0  0  0  0  0
    2.4026   69.4351   83.5621 F   0  0  0  0  0  0  0  0  0  0  0  0
 11 12  1  0  0  0
 12 13  1  0  0  0
 12 14  1  0  0  0
 14 15  2  0  0  0
 14 16  1  0  0  0
 16 17  1  0  0  0
 17 18  2  0  0  0
 18 19  1  0  0  0
 19  1  1  0  0  0
  1  2  1  0  0  0
  2  3  2  0  0  0
  3 25  1  0  0  0
 25 26  1  0  0  0
 26 27  2  0  0  0
 27 28  1  0  0  0
 28 29  2  0  0  0
 29 30  1  0  0  0
 30 31  2  0  0  0
 31 32  1  0  0  0
  3  4  1  0  0  0
  4  5  2  0  0  0
  5  6  1  0  0  0
  6  7  1  0  0  0
  6  8  2  0  0  0
  8  9  1  0  0  0
  9 10  2  0  0  0
 19 20  2  0  0  0
 20 21  1  0  0  0
 21 22  1  0  0  0
 21 23  2  0  0  0
 23 12  1  0  0  0
 23 17  1  0  0  0
 10  1  1  0  0  0
 31 26  1  0  0  0
 10  4  1  0  0  0
 16 24  1  0  0  0
M  END
> <minimizedAffinity>
-12.32744

$$$$



 32 36  0  0  0  0  0  0  0  0999 V2000
    1.6609   66.2591   83.9284 N   0  0  0  0  0  0  0  0  0  0  0  0
    2.7959   66.7962   84.4665 N   0  0  0  0  0  0  0  0  0  0  0  0
    3.2552   67.6486   83.5446 C   0  0  0  0  0  0  0  0  0  0  0  0
    2.4523   67.6436   82.3757 C   0  0  0  0  0  0  0  0  0  0  0  0
    2.4925   68.3083   81.1349 C   0  0  0  0  0  0  0  0  0  0  0  0
    1.4954   68.0435   80.1996 C   0  0  0  0  0  0  0  0  0  0  0  0
    1.5260   68.6711   79.0162 F   0  0  0  0  0  0  0  0  0  0  0  0
    0.4724   67.1455   80.4635 C   0  0  0  0  0  0  0  0  0  0  0  0
    0.4148   66.4751   81.6891 C   0  0  0  0  0  0  0  0  0  0  0  0
    1.4215   66.7384   82.6398 C   0  0  0  0  0  0  0  0  0  0  0  0
   -0.8723   61.2003   87.1046 C   0  0  0  0  0  0  0  0  0  0  0  0
   -1.3113   62.6658   87.0960 C   0  0  0  0  0  0  0  0  0  0  0  0
   -2.8345   62.8077   87.0887 C   0  0  0  0  0  0  0  0  0  0  0  0
   -0.7767   63.3309   88.3890 C   0  0  0  0  0  0  0  0  0  0  0  0
   -1.0388   63.0220   89.5390 O   0  0  0  0  0  0  0  0  0  0  0  0
    0.0650   64.3548   88.0076 N   0  0  0  0  0  0  0  0  0  0  0  0
    0.1564   64.4531   86.6350 C   0  0  0  0  0  0  0  0  0  0  0  0
    0.9088   65.3653   86.0283 N   0  0  0  0  0  0  0  0  0  0  0  0
    0.8754   65.3116   84.6832 C   0  0  0  0  0  0  0  0  0  0  0  0
    0.1402   64.4069   83.9892 N   0  0  0  0  0  0  0  0  0  0  0  0
   -0.6003   63.5099   84.6727 C   0  0  0  0  0  0  0  0  0  0  0  0
   -1.6775   62.1807   83.4792 I   0  0  0  0  0  0  0  0  0  0  0  0
   -0.6272   63.4905   86.0359 C   0  0  0  0  0  0  0  0  0  0  0  0
    0.5535   64.9570   88.6510 H   0  0  0  0  0  0  0  0  0  0  0  0
    4.4997   68.4339   83.8085 C   0  0  0  0  0  0  0  0  0  0  0  0
    5.4131   67.5310   84.5966 C   0  0  0  0  0  0  0  0  0  0  0  0
    6.2900   66.6439   83.9510 C   0  0  0  0  0  0  0  0  0  0  0  0
    7.1321   65.8113   84.6926 C   0  0  0  0  0  0  0  0  0  0  0  0
    7.1113   65.8554   86.0864 C   0  0  0  0  0  0  0  0  0  0  0  0
    6.2478   66.7330   86.7391 C   0  0  0  0  0  0  0  0  0  0  0  0
    5.4111   67.5596   85.9941 C   0  0  0  0  0  0  0  0  0  0  0  0
    4.5923   68.3993   86.6444 F   0  0  0  0  0  0  0  0  0  0  0  0
 11 12  1  0  0  0
 12 13  1  0  0  0
 12 14  1  0  0  0
 14 15  2  0  0  0
 14 16  1  0  0  0
 16 17  1  0  0  0
 17 18  2  0  0  0
 18 19  1  0  0  0
 19  1  1  0  0  0
  1  2  1  0  0  0
  2  3  2  0  0  0
  3 25  1  0  0  0
 25 26  1  0  0  0
 26 27  2  0  0  0
 27 28  1  0  0  0
 28 29  2  0  0  0
 29 30  1  0  0  0
 30 31  2  0  0  0
 31 32  1  0  0  0
  3  4  1  0  0  0
  4  5  2  0  0  0
  5  6  1  0  0  0
  6  7  1  0  0  0
  6  8  2  0  0  0
  8  9  1  0  0  0
  9 10  2  0  0  0
 19 20  2  0  0  0
 20 21  1  0  0  0
 21 22  1  0  0  0
 21 23  2  0  0  0
 23 12  1  0  0  0
 23 17  1  0  0  0
 10  1  1  0  0  0
 31 26  1  0  0  0
 10  4  1  0  0  0
 16 24  1  0  0  0
M  END
> <minimizedAffinity>
-12.28854

$$$$



 32 36  0  0  0  0  0  0  0  0999 V2000
    0.0761   63.8279   82.4470 N   0  0  0  0  0  0  0  0  0  0  0  0
    0.2463   63.3733   83.7238 N   0  0  0  0  0  0  0  0  0  0  0  0
    0.7813   64.3981   84.3956 C   0  0  0  0  0  0  0  0  0  0  0  0
    1.0097   65.5172   83.5552 C   0  0  0  0  0  0  0  0  0  0  0  0
    1.5543   66.8037   83.7331 C   0  0  0  0  0  0  0  0  0  0  0  0
    1.6148   67.6634   82.6393 C   0  0  0  0  0  0  0  0  0  0  0  0
    2.1317   68.8891   82.7992 F   0  0  0  0  0  0  0  0  0  0  0  0
    1.1537   67.2809   81.3888 C   0  0  0  0  0  0  0  0  0  0  0  0
    0.6099   66.0080   81.1914 C   0  0  0  0  0  0  0  0  0  0  0  0
    0.5464   65.1329   82.2945 C   0  0  0  0  0  0  0  0  0  0  0  0
   -1.4390   59.4846   77.8712 C   0  0  0  0  0  0  0  0  0  0  0  0
   -2.3565   60.3559   78.7312 C   0  0  0  0  0  0  0  0  0  0  0  0
   -3.5486   60.8917   77.9360 C   0  0  0  0  0  0  0  0  0  0  0  0
   -2.9075   59.4769   79.8817 C   0  0  0  0  0  0  0  0  0  0  0  0
   -3.5836   58.4675   79.7788 O   0  0  0  0  0  0  0  0  0  0  0  0
   -2.4926   60.0445   81.0684 N   0  0  0  0  0  0  0  0  0  0  0  0
   -1.7414   61.1808   80.8530 C   0  0  0  0  0  0  0  0  0  0  0  0
   -1.2294   61.9026   81.8446 N   0  0  0  0  0  0  0  0  0  0  0  0
   -0.5244   62.9783   81.4459 C   0  0  0  0  0  0  0  0  0  0  0  0
   -0.3417   63.3116   80.1435 N   0  0  0  0  0  0  0  0  0  0  0  0
   -0.8914   62.5315   79.1899 C   0  0  0  0  0  0  0  0  0  0  0  0
   -0.5293   63.1615   77.2345 I   0  0  0  0  0  0  0  0  0  0  0  0
   -1.6214   61.4227   79.5015 C   0  0  0  0  0  0  0  0  0  0  0  0
   -2.7103   59.6754   81.9803 H   0  0  0  0  0  0  0  0  0  0  0  0
    1.0953   64.2542   85.8502 C   0  0  0  0  0  0  0  0  0  0  0  0
   -0.1362   63.6731   86.4955 C   0  0  0  0  0  0  0  0  0  0  0  0
   -1.2806   63.3756   85.7376 C   0  0  0  0  0  0  0  0  0  0  0  0
   -2.4167   62.8372   86.3473 C   0  0  0  0  0  0  0  0  0  0  0  0
   -2.4239   62.5870   87.7193 C   0  0  0  0  0  0  0  0  0  0  0  0
   -1.2940   62.8751   88.4821 C   0  0  0  0  0  0  0  0  0  0  0  0
   -0.1655   63.4119   87.8684 C   0  0  0  0  0  0  0  0  0  0  0  0
    0.9116   63.6763   88.6223 F   0  0  0  0  0  0  0  0  0  0  0  0
 11 12  1  0  0  0
 12 13  1  0  0  0
 12 14  1  0  0  0
 14 15  2  0  0  0
 14 16  1  0  0  0
 16 17  1  0  0  0
 17 18  2  0  0  0
 18 19  1  0  0  0
 19  1  1  0  0  0
  1  2  1  0  0  0
  2  3  2  0  0  0
  3 25  1  0  0  0
 25 26  1  0  0  0
 26 27  2  0  0  0
 27 28  1  0  0  0
 28 29  2  0  0  0
 29 30  1  0  0  0
 30 31  2  0  0  0
 31 32  1  0  0  0
  3  4  1  0  0  0
  4  5  2  0  0  0
  5  6  1  0  0  0
  6  7  1  0  0  0
  6  8  2  0  0  0
  8  9  1  0  0  0
  9 10  2  0  0  0
 19 20  2  0  0  0
 20 21  1  0  0  0
 21 22  1  0  0  0
 21 23  2  0  0  0
 23 12  1  0  0  0
 23 17  1  0  0  0
 10  1  1  0  0  0
 31 26  1  0  0  0
 10  4  1  0  0  0
 16 24  1  0  0  0
M  END
> <minimizedAffinity>
-12.20206

$$$$



 32 36  0  0  0  0  0  0  0  0999 V2000
    1.3354   66.2858   82.3538 N   0  0  0  0  0  0  0  0  0  0  0  0
    1.8669   66.3356   83.6112 N   0  0  0  0  0  0  0  0  0  0  0  0
    2.5786   67.4667   83.6496 C   0  0  0  0  0  0  0  0  0  0  0  0
    2.5584   68.1447   82.4043 C   0  0  0  0  0  0  0  0  0  0  0  0
    3.1371   69.3262   81.9020 C   0  0  0  0  0  0  0  0  0  0  0  0
    2.8814   69.6898   80.5824 C   0  0  0  0  0  0  0  0  0  0  0  0
    3.4282   70.8122   80.0960 F   0  0  0  0  0  0  0  0  0  0  0  0
    2.0753   68.9177   79.7597 C   0  0  0  0  0  0  0  0  0  0  0  0
    1.4917   67.7411   80.2391 C   0  0  0  0  0  0  0  0  0  0  0  0
    1.7472   67.3673   81.5740 C   0  0  0  0  0  0  0  0  0  0  0  0
   -3.5170   62.2662   80.8064 C   0  0  0  0  0  0  0  0  0  0  0  0
   -2.0088   62.0925   80.6181 C   0  0  0  0  0  0  0  0  0  0  0  0
   -1.5564   60.6598   80.9065 C   0  0  0  0  0  0  0  0  0  0  0  0
   -1.6736   62.4095   79.1391 C   0  0  0  0  0  0  0  0  0  0  0  0
   -2.0939   61.8352   78.1491 O   0  0  0  0  0  0  0  0  0  0  0  0
   -0.7992   63.4762   79.1347 N   0  0  0  0  0  0  0  0  0  0  0  0
   -0.5135   63.9045   80.4141 C   0  0  0  0  0  0  0  0  0  0  0  0
    0.3058   64.9203   80.6657 N   0  0  0  0  0  0  0  0  0  0  0  0
    0.4662   65.1974   81.9736 C   0  0  0  0  0  0  0  0  0  0  0  0
   -0.1506   64.5068   82.9652 N   0  0  0  0  0  0  0  0  0  0  0  0
   -0.9694   63.4867   82.6345 C   0  0  0  0  0  0  0  0  0  0  0  0
   -1.8496   62.5159   84.2575 I   0  0  0  0  0  0  0  0  0  0  0  0
   -1.1907   63.1355   81.3357 C   0  0  0  0  0  0  0  0  0  0  0  0
   -0.4163   63.8922   78.3007 H   0  0  0  0  0  0  0  0  0  0  0  0
    3.3008   67.8519   84.9008 C   0  0  0  0  0  0  0  0  0  0  0  0
    4.5954   67.0807   84.8991 C   0  0  0  0  0  0  0  0  0  0  0  0
    5.7609   67.6211   84.3316 C   0  0  0  0  0  0  0  0  0  0  0  0
    6.9554   66.8962   84.3358 C   0  0  0  0  0  0  0  0  0  0  0  0
    7.0021   65.6252   84.9080 C   0  0  0  0  0  0  0  0  0  0  0  0
    5.8533   65.0788   85.4767 C   0  0  0  0  0  0  0  0  0  0  0  0
    4.6663   65.8062   85.4688 C   0  0  0  0  0  0  0  0  0  0  0  0
    3.5750   65.2616   86.0264 F   0  0  0  0  0  0  0  0  0  0  0  0
 11 12  1  0  0  0
 12 13  1  0  0  0
 12 14  1  0  0  0
 14 15  2  0  0  0
 14 16  1  0  0  0
 16 17  1  0  0  0
 17 18  2  0  0  0
 18 19  1  0  0  0
 19  1  1  0  0  0
  1  2  1  0  0  0
  2  3  2  0  0  0
  3 25  1  0  0  0
 25 26  1  0  0  0
 26 27  2  0  0  0
 27 28  1  0  0  0
 28 29  2  0  0  0
 29 30  1  0  0  0
 30 31  2  0  0  0
 31 32  1  0  0  0
  3  4  1  0  0  0
  4  5  2  0  0  0
  5  6  1  0  0  0
  6  7  1  0  0  0
  6  8  2  0  0  0
  8  9  1  0  0  0
  9 10  2  0  0  0
 19 20  2  0  0  0
 20 21  1  0  0  0
 21 22  1  0  0  0
 21 23  2  0  0  0
 23 12  1  0  0  0
 23 17  1  0  0  0
 10  1  1  0  0  0
 31 26  1  0  0  0
 10  4  1  0  0  0
 16 24  1  0  0  0
M  END
> <minimizedAffinity>
-12.17221

$$$$



 32 36  0  0  0  0  0  0  0  0999 V2000
    0.5988   65.2422   82.1682 N   0  0  0  0  0  0  0  0  0  0  0  0
    1.3927   66.3531   82.2117 N   0  0  0  0  0  0  0  0  0  0  0  0
    1.5746   66.7079   80.9355 C   0  0  0  0  0  0  0  0  0  0  0  0
    0.9409   65.8068   80.0426 C   0  0  0  0  0  0  0  0  0  0  0  0
    0.8364   65.6977   78.6425 C   0  0  0  0  0  0  0  0  0  0  0  0
    0.1015   64.6441   78.1048 C   0  0  0  0  0  0  0  0  0  0  0  0
   -0.0030   64.5324   76.7738 F   0  0  0  0  0  0  0  0  0  0  0  0
   -0.5238   63.7077   78.9141 C   0  0  0  0  0  0  0  0  0  0  0  0
   -0.4317   63.7981   80.3063 C   0  0  0  0  0  0  0  0  0  0  0  0
    0.3111   64.8620   80.8566 C   0  0  0  0  0  0  0  0  0  0  0  0
   -0.5220   61.4483   87.3109 C   0  0  0  0  0  0  0  0  0  0  0  0
   -0.9096   62.9091   87.0733 C   0  0  0  0  0  0  0  0  0  0  0  0
   -2.3076   63.2253   87.6082 C   0  0  0  0  0  0  0  0  0  0  0  0
    0.1043   63.8007   87.8331 C   0  0  0  0  0  0  0  0  0  0  0  0
    0.3184   63.8147   89.0333 O   0  0  0  0  0  0  0  0  0  0  0  0
    0.7370   64.5931   86.8981 N   0  0  0  0  0  0  0  0  0  0  0  0
    0.2751   64.3424   85.6231 C   0  0  0  0  0  0  0  0  0  0  0  0
    0.7347   64.9831   84.5532 N   0  0  0  0  0  0  0  0  0  0  0  0
    0.1673   64.6076   83.3912 C   0  0  0  0  0  0  0  0  0  0  0  0
   -0.7948   63.6553   83.3023 N   0  0  0  0  0  0  0  0  0  0  0  0
   -1.2127   63.0465   84.4315 C   0  0  0  0  0  0  0  0  0  0  0  0
   -2.6930   61.6047   84.1462 I   0  0  0  0  0  0  0  0  0  0  0  0
   -0.6944   63.3632   85.6523 C   0  0  0  0  0  0  0  0  0  0  0  0
    1.4491   65.2713   87.1180 H   0  0  0  0  0  0  0  0  0  0  0  0
    2.3996   67.9102   80.6056 C   0  0  0  0  0  0  0  0  0  0  0  0
    1.5803   69.1105   81.0042 C   0  0  0  0  0  0  0  0  0  0  0  0
    0.3575   69.3954   80.3750 C   0  0  0  0  0  0  0  0  0  0  0  0
   -0.3933   70.5115   80.7531 C   0  0  0  0  0  0  0  0  0  0  0  0
    0.0654   71.3549   81.7647 C   0  0  0  0  0  0  0  0  0  0  0  0
    1.2758   71.0818   82.3988 C   0  0  0  0  0  0  0  0  0  0  0  0
    2.0191   69.9683   82.0169 C   0  0  0  0  0  0  0  0  0  0  0  0
    3.1783   69.7232   82.6449 F   0  0  0  0  0  0  0  0  0  0  0  0
 11 12  1  0  0  0
 12 13  1  0  0  0
 12 14  1  0  0  0
 14 15  2  0  0  0
 14 16  1  0  0  0
 16 17  1  0  0  0
 17 18  2  0  0  0
 18 19  1  0  0  0
 19  1  1  0  0  0
  1  2  1  0  0  0
  2  3  2  0  0  0
  3 25  1  0  0  0
 25 26  1  0  0  0
 26 27  2  0  0  0
 27 28  1  0  0  0
 28 29  2  0  0  0
 29 30  1  0  0  0
 30 31  2  0  0  0
 31 32  1  0  0  0
  3  4  1  0  0  0
  4  5  2  0  0  0
  5  6  1  0  0  0
  6  7  1  0  0  0
  6  8  2  0  0  0
  8  9  1  0  0  0
  9 10  2  0  0  0
 19 20  2  0  0  0
 20 21  1  0  0  0
 21 22  1  0  0  0
 21 23  2  0  0  0
 23 12  1  0  0  0
 23 17  1  0  0  0
 10  1  1  0  0  0
 31 26  1  0  0  0
 10  4  1  0  0  0
 16 24  1  0  0  0
M  END
> <minimizedAffinity>
-12.14119

$$$$



 32 36  0  0  0  0  0  0  0  0999 V2000
    1.4887   66.3047   82.6880 N   0  0  0  0  0  0  0  0  0  0  0  0
    2.1064   66.3981   83.9029 N   0  0  0  0  0  0  0  0  0  0  0  0
    2.8070   67.5359   83.8567 C   0  0  0  0  0  0  0  0  0  0  0  0
    2.6924   68.1745   82.5958 C   0  0  0  0  0  0  0  0  0  0  0  0
    3.2219   69.3447   82.0184 C   0  0  0  0  0  0  0  0  0  0  0  0
    2.8707   69.6649   80.7095 C   0  0  0  0  0  0  0  0  0  0  0  0
    3.3700   70.7762   80.1520 F   0  0  0  0  0  0  0  0  0  0  0  0
    2.0172   68.8607   79.9694 C   0  0  0  0  0  0  0  0  0  0  0  0
    1.4812   67.6947   80.5243 C   0  0  0  0  0  0  0  0  0  0  0  0
    1.8334   67.3648   81.8486 C   0  0  0  0  0  0  0  0  0  0  0  0
   -1.3803   60.6349   81.3768 C   0  0  0  0  0  0  0  0  0  0  0  0
   -1.9977   61.9579   81.8338 C   0  0  0  0  0  0  0  0  0  0  0  0
   -3.3267   62.2429   81.1315 C   0  0  0  0  0  0  0  0  0  0  0  0
   -2.2748   61.8544   83.3545 C   0  0  0  0  0  0  0  0  0  0  0  0
   -3.0047   61.0565   83.9177 O   0  0  0  0  0  0  0  0  0  0  0  0
   -1.5379   62.8412   83.9753 N   0  0  0  0  0  0  0  0  0  0  0  0
   -0.8118   63.5815   83.0660 C   0  0  0  0  0  0  0  0  0  0  0  0
   -0.0241   64.5897   83.4258 N   0  0  0  0  0  0  0  0  0  0  0  0
    0.6068   65.1976   82.4032 C   0  0  0  0  0  0  0  0  0  0  0  0
    0.4617   64.8239   81.1071 N   0  0  0  0  0  0  0  0  0  0  0  0
   -0.3555   63.7905   80.8164 C   0  0  0  0  0  0  0  0  0  0  0  0
   -0.4822   63.3252   78.7869 I   0  0  0  0  0  0  0  0  0  0  0  0
   -1.0348   63.1166   81.7880 C   0  0  0  0  0  0  0  0  0  0  0  0
   -1.5298   63.0022   84.9700 H   0  0  0  0  0  0  0  0  0  0  0  0
    3.6108   67.9660   85.0417 C   0  0  0  0  0  0  0  0  0  0  0  0
    4.8886   67.1683   85.0009 C   0  0  0  0  0  0  0  0  0  0  0  0
    6.0303   67.6604   84.3474 C   0  0  0  0  0  0  0  0  0  0  0  0
    7.2094   66.9114   84.3160 C   0  0  0  0  0  0  0  0  0  0  0  0
    7.2645   65.6643   84.9379 C   0  0  0  0  0  0  0  0  0  0  0  0
    6.1395   65.1659   85.5920 C   0  0  0  0  0  0  0  0  0  0  0  0
    4.9677   65.9172   85.6191 C   0  0  0  0  0  0  0  0  0  0  0  0
    3.8996   65.4190   86.2588 F   0  0  0  0  0  0  0  0  0  0  0  0
 11 12  1  0  0  0
 12 13  1  0  0  0
 12 14  1  0  0  0
 14 15  2  0  0  0
 14 16  1  0  0  0
 16 17  1  0  0  0
 17 18  2  0  0  0
 18 19  1  0  0  0
 19  1  1  0  0  0
  1  2  1  0  0  0
  2  3  2  0  0  0
  3 25  1  0  0  0
 25 26  1  0  0  0
 26 27  2  0  0  0
 27 28  1  0  0  0
 28 29  2  0  0  0
 29 30  1  0  0  0
 30 31  2  0  0  0
 31 32  1  0  0  0
  3  4  1  0  0  0
  4  5  2  0  0  0
  5  6  1  0  0  0
  6  7  1  0  0  0
  6  8  2  0  0  0
  8  9  1  0  0  0
  9 10  2  0  0  0
 19 20  2  0  0  0
 20 21  1  0  0  0
 21 22  1  0  0  0
 21 23  2  0  0  0
 23 12  1  0  0  0
 23 17  1  0  0  0
 10  1  1  0  0  0
 31 26  1  0  0  0
 10  4  1  0  0  0
 16 24  1  0  0  0
M  END
> <minimizedAffinity>
-12.11303

$$$$



 32 36  0  0  0  0  0  0  0  0999 V2000
    2.5577   66.1203   84.7148 N   0  0  0  0  0  0  0  0  0  0  0  0
    2.2007   67.2059   83.9664 N   0  0  0  0  0  0  0  0  0  0  0  0
    3.3527   67.7762   83.5987 C   0  0  0  0  0  0  0  0  0  0  0  0
    4.4734   67.0973   84.1409 C   0  0  0  0  0  0  0  0  0  0  0  0
    5.8691   67.2792   84.0932 C   0  0  0  0  0  0  0  0  0  0  0  0
    6.6865   66.3775   84.7699 C   0  0  0  0  0  0  0  0  0  0  0  0
    8.0154   66.5431   84.7303 F   0  0  0  0  0  0  0  0  0  0  0  0
    6.1578   65.3130   85.4841 C   0  0  0  0  0  0  0  0  0  0  0  0
    4.7750   65.1152   85.5440 C   0  0  0  0  0  0  0  0  0  0  0  0
    3.9422   66.0248   84.8616 C   0  0  0  0  0  0  0  0  0  0  0  0
   -1.1240   61.2340   86.8749 C   0  0  0  0  0  0  0  0  0  0  0  0
   -1.3077   62.7432   87.0457 C   0  0  0  0  0  0  0  0  0  0  0  0
   -2.7753   63.1588   86.9278 C   0  0  0  0  0  0  0  0  0  0  0  0
   -0.8165   63.1255   88.4644 C   0  0  0  0  0  0  0  0  0  0  0  0
   -1.2529   62.7217   89.5288 O   0  0  0  0  0  0  0  0  0  0  0  0
    0.2218   64.0207   88.3132 N   0  0  0  0  0  0  0  0  0  0  0  0
    0.4805   64.2792   86.9834 C   0  0  0  0  0  0  0  0  0  0  0  0
    1.4378   65.1112   86.5860 N   0  0  0  0  0  0  0  0  0  0  0  0
    1.5457   65.2406   85.2500 C   0  0  0  0  0  0  0  0  0  0  0  0
    0.7512   64.5829   84.3686 N   0  0  0  0  0  0  0  0  0  0  0  0
   -0.2003   63.7536   84.8450 C   0  0  0  0  0  0  0  0  0  0  0  0
   -1.3454   62.8095   83.3790 I   0  0  0  0  0  0  0  0  0  0  0  0
   -0.3816   63.5615   86.1828 C   0  0  0  0  0  0  0  0  0  0  0  0
    0.7297   64.4349   89.0786 H   0  0  0  0  0  0  0  0  0  0  0  0
    3.3388   69.0043   82.7463 C   0  0  0  0  0  0  0  0  0  0  0  0
    2.1357   68.8839   81.8468 C   0  0  0  0  0  0  0  0  0  0  0  0
    2.0234   67.8323   80.9226 C   0  0  0  0  0  0  0  0  0  0  0  0
    0.9031   67.7313   80.0937 C   0  0  0  0  0  0  0  0  0  0  0  0
   -0.1191   68.6763   80.1784 C   0  0  0  0  0  0  0  0  0  0  0  0
   -0.0210   69.7230   81.0930 C   0  0  0  0  0  0  0  0  0  0  0  0
    1.0981   69.8179   81.9158 C   0  0  0  0  0  0  0  0  0  0  0  0
    1.1679   70.8311   82.7915 F   0  0  0  0  0  0  0  0  0  0  0  0
 11 12  1  0  0  0
 12 13  1  0  0  0
 12 14  1  0  0  0
 14 15  2  0  0  0
 14 16  1  0  0  0
 16 17  1  0  0  0
 17 18  2  0  0  0
 18 19  1  0  0  0
 19  1  1  0  0  0
  1  2  1  0  0  0
  2  3  2  0  0  0
  3 25  1  0  0  0
 25 26  1  0  0  0
 26 27  2  0  0  0
 27 28  1  0  0  0
 28 29  2  0  0  0
 29 30  1  0  0  0
 30 31  2  0  0  0
 31 32  1  0  0  0
  3  4  1  0  0  0
  4  5  2  0  0  0
  5  6  1  0  0  0
  6  7  1  0  0  0
  6  8  2  0  0  0
  8  9  1  0  0  0
  9 10  2  0  0  0
 19 20  2  0  0  0
 20 21  1  0  0  0
 21 22  1  0  0  0
 21 23  2  0  0  0
 23 12  1  0  0  0
 23 17  1  0  0  0
 10  1  1  0  0  0
 31 26  1  0  0  0
 10  4  1  0  0  0
 16 24  1  0  0  0
M  END
> <minimizedAffinity>
-12.08756

$$$$
