/home/hjpark/lecture_drug1/0905_agent/pde5_harness/sample_run/structures/work/ligand_ref.pdb


 34 37  0  0  0  0  0  0  0  0999 V2000
    0.4073   64.1291   83.8884 C   0  0  0  0  0  0  0  0  0  0  0  0
    0.1354   63.3919   82.6712 C   0  0  0  0  0  0  0  0  0  0  0  0
   -0.7069   62.1979   82.6835 C   0  0  0  0  0  0  0  0  0  0  0  0
   -1.2800   61.7716   83.9998 C   0  0  0  0  0  0  0  0  0  0  0  0
   -1.0177   62.4998   85.2368 C   0  0  0  0  0  0  0  0  0  0  0  0
   -0.1586   63.6993   85.2140 C   0  0  0  0  0  0  0  0  0  0  0  0
    4.3141   67.1039   84.8505 C   0  0  0  0  0  0  0  0  0  0  0  0
    4.6517   68.3318   84.2662 N   0  0  0  0  0  0  0  0  0  0  0  0
    3.7174   68.6473   83.3225 N   0  0  0  0  0  0  0  0  0  0  0  0
    3.7782   69.8756   82.5254 C   0  0  0  0  0  0  0  0  0  0  0  0
    2.7957   67.6312   83.3052 C   0  0  0  0  0  0  0  0  0  0  0  0
    1.6035   67.3870   82.5432 C   0  0  0  0  0  0  0  0  0  0  0  0
    1.1930   68.1457   81.6954 O   0  0  0  0  0  0  0  0  0  0  0  0
    0.8816   66.2217   82.7929 N   0  0  0  0  0  0  0  0  0  0  0  0
    1.2522   65.2637   83.7469 C   0  0  0  0  0  0  0  0  0  0  0  0
    2.4090   65.4560   84.5112 N   0  0  0  0  0  0  0  0  0  0  0  0
    3.1566   66.6434   84.2695 C   0  0  0  0  0  0  0  0  0  0  0  0
    2.6934   64.7987   85.1866 H   0  0  0  0  0  0  0  0  0  0  0  0
    5.1002   66.4203   85.9223 C   0  0  0  0  0  0  0  0  0  0  0  0
    7.4019   65.9017   84.9606 C   0  0  0  0  0  0  0  0  0  0  0  0
    5.9867   65.4128   85.1130 C   0  0  0  0  0  0  0  0  0  0  0  0
   -0.9908   61.3622   81.3477 S   0  0  0  0  0  0  0  0  0  0  0  0
    0.0702   60.8902   80.7198 O   0  0  0  0  0  0  0  0  0  0  0  0
   -1.7109   60.3054   81.6424 O   0  0  0  0  0  0  0  0  0  0  0  0
   -1.7973   62.4381   80.4988 N   0  0  0  0  0  0  0  0  0  0  0  0
   -3.2832   62.0344   80.1488 C   0  0  0  0  0  0  0  0  0  0  0  0
   -3.4997   61.1278   78.9218 C   0  0  0  0  0  0  0  0  0  0  0  0
   -2.6023   61.3805   77.7441 N   0  0  0  0  0  0  0  0  0  0  0  0
   -3.4429   61.8823   76.6129 C   0  0  0  0  0  0  0  0  0  0  0  0
   -1.3868   62.2952   77.9129 C   0  0  0  0  0  0  0  0  0  0  0  0
   -1.2434   63.1075   79.2557 C   0  0  0  0  0  0  0  0  0  0  0  0
    0.1787   64.4737   86.3893 O   0  0  0  0  0  0  0  0  0  0  0  0
   -0.2436   64.1654   87.7328 C   0  0  0  0  0  0  0  0  0  0  0  0
    0.8822   63.3272   88.3153 C   0  0  0  0  0  0  0  0  0  0  0  0
 20 21  1  0  0  0
 21 19  1  0  0  0
 19  7  1  0  0  0
  7 17  1  0  0  0
  7  8  2  0  0  0
  8  9  1  0  0  0
  9 10  1  0  0  0
 11  9  1  0  0  0
 11 12  1  0  0  0
 12 13  2  0  0  0
 14 12  1  0  0  0
 15 14  2  0  0  0
 16 17  1  0  0  0
 16 15  1  0  0  0
 16 18  1  0  0  0
 17 11  2  0  0  0
  1 15  1  0  0  0
  1  6  1  0  0  0
  2  1  2  0  0  0
  3  2  1  0  0  0
  3  4  2  0  0  0
  4  5  1  0  0  0
  5  6  2  0  0  0
  6 32  1  0  0  0
 32 33  1  0  0  0
 33 34  1  0  0  0
 22 24  2  0  0  0
 22 25  1  0  0  0
 22  3  1  0  0  0
 23 22  2  0  0  0
 25 26  1  0  0  0
 27 26  1  0  0  0
 28 29  1  0  0  0
 28 27  1  0  0  0
 30 28  1  0  0  0
 30 31  1  0  0  0
 31 25  1  0  0  0
M  END
> <minimizedAffinity>
-9.64338

$$$$
/home/hjpark/lecture_drug1/0905_agent/pde5_harness/sample_run/structures/work/ligand_ref.pdb


 34 37  0  0  0  0  0  0  0  0999 V2000
    0.1924   64.3169   84.1753 C   0  0  0  0  0  0  0  0  0  0  0  0
   -0.3990   63.7775   82.9677 C   0  0  0  0  0  0  0  0  0  0  0  0
   -1.3612   62.6792   83.0235 C   0  0  0  0  0  0  0  0  0  0  0  0
   -1.7141   62.1392   84.3751 C   0  0  0  0  0  0  0  0  0  0  0  0
   -1.1292   62.6680   85.6028 C   0  0  0  0  0  0  0  0  0  0  0  0
   -0.1520   63.7715   85.5341 C   0  0  0  0  0  0  0  0  0  0  0  0
    4.3198   67.0156   85.0237 C   0  0  0  0  0  0  0  0  0  0  0  0
    4.7550   68.1845   84.3855 N   0  0  0  0  0  0  0  0  0  0  0  0
    3.8511   68.5285   83.4223 N   0  0  0  0  0  0  0  0  0  0  0  0
    4.0110   69.7098   82.5699 C   0  0  0  0  0  0  0  0  0  0  0  0
    2.8519   67.5887   83.4461 C   0  0  0  0  0  0  0  0  0  0  0  0
    1.6461   67.4041   82.6888 C   0  0  0  0  0  0  0  0  0  0  0  0
    1.2992   68.1526   81.8042 O   0  0  0  0  0  0  0  0  0  0  0  0
    0.8337   66.3124   82.9874 N   0  0  0  0  0  0  0  0  0  0  0  0
    1.1248   65.3735   83.9870 C   0  0  0  0  0  0  0  0  0  0  0  0
    2.2912   65.5092   84.7488 N   0  0  0  0  0  0  0  0  0  0  0  0
    3.1310   66.6214   84.4573 C   0  0  0  0  0  0  0  0  0  0  0  0
    2.5210   64.8637   85.4556 H   0  0  0  0  0  0  0  0  0  0  0  0
    5.0465   66.3227   86.1309 C   0  0  0  0  0  0  0  0  0  0  0  0
    7.1253   65.6782   84.8062 C   0  0  0  0  0  0  0  0  0  0  0  0
    5.8228   65.1879   85.3790 C   0  0  0  0  0  0  0  0  0  0  0  0
   -1.9994   62.0594   81.6923 S   0  0  0  0  0  0  0  0  0  0  0  0
   -2.3593   60.7908   81.7553 O   0  0  0  0  0  0  0  0  0  0  0  0
   -3.0985   62.7115   81.3943 O   0  0  0  0  0  0  0  0  0  0  0  0
   -0.8245   62.3291   80.6552 N   0  0  0  0  0  0  0  0  0  0  0  0
   -1.1790   63.3370   79.4925 C   0  0  0  0  0  0  0  0  0  0  0  0
   -1.9246   62.7711   78.2685 C   0  0  0  0  0  0  0  0  0  0  0  0
   -1.5278   61.3902   77.8305 N   0  0  0  0  0  0  0  0  0  0  0  0
   -0.8872   61.4916   76.4824 C   0  0  0  0  0  0  0  0  0  0  0  0
   -0.6433   60.5407   78.7462 C   0  0  0  0  0  0  0  0  0  0  0  0
   -0.0056   61.2250   80.0145 C   0  0  0  0  0  0  0  0  0  0  0  0
    0.4994   64.3469   86.6914 O   0  0  0  0  0  0  0  0  0  0  0  0
    1.2662   63.6071   87.6625 C   0  0  0  0  0  0  0  0  0  0  0  0
    0.2690   63.2317   88.7461 C   0  0  0  0  0  0  0  0  0  0  0  0
 20 21  1  0  0  0
 21 19  1  0  0  0
 19  7  1  0  0  0
  7 17  1  0  0  0
  7  8  2  0  0  0
  8  9  1  0  0  0
  9 10  1  0  0  0
 11  9  1  0  0  0
 11 12  1  0  0  0
 12 13  2  0  0  0
 14 12  1  0  0  0
 15 14  2  0  0  0
 16 17  1  0  0  0
 16 15  1  0  0  0
 16 18  1  0  0  0
 17 11  2  0  0  0
  1 15  1  0  0  0
  1  6  1  0  0  0
  2  1  2  0  0  0
  3  2  1  0  0  0
  3  4  2  0  0  0
  4  5  1  0  0  0
  5  6  2  0  0  0
  6 32  1  0  0  0
 32 33  1  0  0  0
 33 34  1  0  0  0
 22 24  2  0  0  0
 22 25  1  0  0  0
 22  3  1  0  0  0
 23 22  2  0  0  0
 25 26  1  0  0  0
 27 26  1  0  0  0
 28 29  1  0  0  0
 28 27  1  0  0  0
 30 28  1  0  0  0
 30 31  1  0  0  0
 31 25  1  0  0  0
M  END
> <minimizedAffinity>
-9.55607

$$$$
/home/hjpark/lecture_drug1/0905_agent/pde5_harness/sample_run/structures/work/ligand_ref.pdb


 34 37  0  0  0  0  0  0  0  0999 V2000
    2.1313   67.1794   83.3151 C   0  0  0  0  0  0  0  0  0  0  0  0
    1.5821   68.1594   82.4002 C   0  0  0  0  0  0  0  0  0  0  0  0
    2.3312   69.3621   82.0429 C   0  0  0  0  0  0  0  0  0  0  0  0
    3.6870   69.5375   82.6544 C   0  0  0  0  0  0  0  0  0  0  0  0
    4.2575   68.5627   83.5782 C   0  0  0  0  0  0  0  0  0  0  0  0
    3.4886   67.3560   83.9387 C   0  0  0  0  0  0  0  0  0  0  0  0
   -0.1479   63.7300   86.1339 C   0  0  0  0  0  0  0  0  0  0  0  0
   -0.9979   62.6892   85.7372 N   0  0  0  0  0  0  0  0  0  0  0  0
   -1.1494   62.7307   84.3813 N   0  0  0  0  0  0  0  0  0  0  0  0
   -1.9795   61.7725   83.6461 C   0  0  0  0  0  0  0  0  0  0  0  0
   -0.4050   63.7866   83.9197 C   0  0  0  0  0  0  0  0  0  0  0  0
   -0.1649   64.3350   82.6146 C   0  0  0  0  0  0  0  0  0  0  0  0
   -0.6538   63.8807   81.6058 O   0  0  0  0  0  0  0  0  0  0  0  0
    0.6734   65.4421   82.5023 N   0  0  0  0  0  0  0  0  0  0  0  0
    1.2991   66.0609   83.5936 C   0  0  0  0  0  0  0  0  0  0  0  0
    1.0919   65.5646   84.8859 N   0  0  0  0  0  0  0  0  0  0  0  0
    0.2393   64.4318   85.0172 C   0  0  0  0  0  0  0  0  0  0  0  0
    1.5172   65.9807   85.6702 H   0  0  0  0  0  0  0  0  0  0  0  0
    0.2536   64.0178   87.5445 C   0  0  0  0  0  0  0  0  0  0  0  0
    0.2579   62.1276   89.2529 C   0  0  0  0  0  0  0  0  0  0  0  0
   -0.5983   62.9890   88.3641 C   0  0  0  0  0  0  0  0  0  0  0  0
    1.7208   70.4631   81.0536 S   0  0  0  0  0  0  0  0  0  0  0  0
    2.5816   71.0755   80.2620 O   0  0  0  0  0  0  0  0  0  0  0  0
    0.8612   69.8899   80.2446 O   0  0  0  0  0  0  0  0  0  0  0  0
    1.0244   71.4379   82.0994 N   0  0  0  0  0  0  0  0  0  0  0  0
   -0.4268   71.9166   81.7017 C   0  0  0  0  0  0  0  0  0  0  0  0
   -0.5376   73.1158   80.7405 C   0  0  0  0  0  0  0  0  0  0  0  0
    0.4777   74.2076   80.9228 N   0  0  0  0  0  0  0  0  0  0  0  0
   -0.2358   75.4397   81.3821 C   0  0  0  0  0  0  0  0  0  0  0  0
    1.6881   73.9599   81.8262 C   0  0  0  0  0  0  0  0  0  0  0  0
    1.7128   72.6486   82.6999 C   0  0  0  0  0  0  0  0  0  0  0  0
    3.9578   66.3452   84.8623 O   0  0  0  0  0  0  0  0  0  0  0  0
    5.3341   65.9485   85.0258 C   0  0  0  0  0  0  0  0  0  0  0  0
    5.3631   65.1584   86.3236 C   0  0  0  0  0  0  0  0  0  0  0  0
 20 21  1  0  0  0
 21 19  1  0  0  0
 19  7  1  0  0  0
  7 17  1  0  0  0
  7  8  2  0  0  0
  8  9  1  0  0  0
  9 10  1  0  0  0
 11  9  1  0  0  0
 11 12  1  0  0  0
 12 13  2  0  0  0
 14 12  1  0  0  0
 15 14  2  0  0  0
 16 17  1  0  0  0
 16 15  1  0  0  0
 16 18  1  0  0  0
 17 11  2  0  0  0
  1 15  1  0  0  0
  1  6  1  0  0  0
  2  1  2  0  0  0
  3  2  1  0  0  0
  3  4  2  0  0  0
  4  5  1  0  0  0
  5  6  2  0  0  0
  6 32  1  0  0  0
 32 33  1  0  0  0
 33 34  1  0  0  0
 22 24  2  0  0  0
 22 25  1  0  0  0
 22  3  1  0  0  0
 23 22  2  0  0  0
 25 26  1  0  0  0
 27 26  1  0  0  0
 28 29  1  0  0  0
 28 27  1  0  0  0
 30 28  1  0  0  0
 30 31  1  0  0  0
 31 25  1  0  0  0
M  END
> <minimizedAffinity>
-9.49322

$$$$
/home/hjpark/lecture_drug1/0905_agent/pde5_harness/sample_run/structures/work/ligand_ref.pdb


 34 37  0  0  0  0  0  0  0  0999 V2000
    2.0195   66.6893   83.5140 C   0  0  0  0  0  0  0  0  0  0  0  0
    1.5208   67.7878   82.7118 C   0  0  0  0  0  0  0  0  0  0  0  0
    2.2988   69.0130   82.5418 C   0  0  0  0  0  0  0  0  0  0  0  0
    3.6302   69.0849   83.2237 C   0  0  0  0  0  0  0  0  0  0  0  0
    4.1500   67.9900   84.0363 C   0  0  0  0  0  0  0  0  0  0  0  0
    3.3520   66.7608   84.2081 C   0  0  0  0  0  0  0  0  0  0  0  0
   -0.7795   63.2252   85.7951 C   0  0  0  0  0  0  0  0  0  0  0  0
   -1.5043   62.1668   85.2315 N   0  0  0  0  0  0  0  0  0  0  0  0
   -1.3503   62.1944   83.8756 N   0  0  0  0  0  0  0  0  0  0  0  0
   -1.9815   61.2163   82.9853 C   0  0  0  0  0  0  0  0  0  0  0  0
   -0.5375   63.2590   83.5788 C   0  0  0  0  0  0  0  0  0  0  0  0
   -0.0206   63.8006   82.3535 C   0  0  0  0  0  0  0  0  0  0  0  0
   -0.2656   63.3297   81.2667 O   0  0  0  0  0  0  0  0  0  0  0  0
    0.8052   64.9208   82.4176 N   0  0  0  0  0  0  0  0  0  0  0  0
    1.1628   65.5592   83.6135 C   0  0  0  0  0  0  0  0  0  0  0  0
    0.6801   65.0702   84.8330 N   0  0  0  0  0  0  0  0  0  0  0  0
   -0.1635   63.9242   84.7845 C   0  0  0  0  0  0  0  0  0  0  0  0
    0.9138   65.4999   85.6873 H   0  0  0  0  0  0  0  0  0  0  0  0
   -0.7068   63.5314   87.2563 C   0  0  0  0  0  0  0  0  0  0  0  0
    0.2161   62.2109   89.2301 C   0  0  0  0  0  0  0  0  0  0  0  0
   -0.4726   62.1196   87.8951 C   0  0  0  0  0  0  0  0  0  0  0  0
    1.7434   70.2421   81.6791 S   0  0  0  0  0  0  0  0  0  0  0  0
    1.7151   70.0692   80.3706 O   0  0  0  0  0  0  0  0  0  0  0  0
    0.4988   70.4826   82.0185 O   0  0  0  0  0  0  0  0  0  0  0  0
    2.7393   71.3930   82.1401 N   0  0  0  0  0  0  0  0  0  0  0  0
    2.1041   72.4858   83.0864 C   0  0  0  0  0  0  0  0  0  0  0  0
    1.3268   73.6357   82.4173 C   0  0  0  0  0  0  0  0  0  0  0  0
    1.8859   74.1474   81.1205 N   0  0  0  0  0  0  0  0  0  0  0  0
    2.3499   75.5539   81.3321 C   0  0  0  0  0  0  0  0  0  0  0  0
    2.9890   73.3534   80.4167 C   0  0  0  0  0  0  0  0  0  0  0  0
    3.6466   72.1450   81.1853 C   0  0  0  0  0  0  0  0  0  0  0  0
    3.7701   65.6321   85.0119 O   0  0  0  0  0  0  0  0  0  0  0  0
    5.1266   65.3635   85.4193 C   0  0  0  0  0  0  0  0  0  0  0  0
    5.0313   65.0156   86.8955 C   0  0  0  0  0  0  0  0  0  0  0  0
 20 21  1  0  0  0
 21 19  1  0  0  0
 19  7  1  0  0  0
  7 17  1  0  0  0
  7  8  2  0  0  0
  8  9  1  0  0  0
  9 10  1  0  0  0
 11  9  1  0  0  0
 11 12  1  0  0  0
 12 13  2  0  0  0
 14 12  1  0  0  0
 15 14  2  0  0  0
 16 17  1  0  0  0
 16 15  1  0  0  0
 16 18  1  0  0  0
 17 11  2  0  0  0
  1 15  1  0  0  0
  1  6  1  0  0  0
  2  1  2  0  0  0
  3  2  1  0  0  0
  3  4  2  0  0  0
  4  5  1  0  0  0
  5  6  2  0  0  0
  6 32  1  0  0  0
 32 33  1  0  0  0
 33 34  1  0  0  0
 22 24  2  0  0  0
 22 25  1  0  0  0
 22  3  1  0  0  0
 23 22  2  0  0  0
 25 26  1  0  0  0
 27 26  1  0  0  0
 28 29  1  0  0  0
 28 27  1  0  0  0
 30 28  1  0  0  0
 30 31  1  0  0  0
 31 25  1  0  0  0
M  END
> <minimizedAffinity>
-9.21617

$$$$
/home/hjpark/lecture_drug1/0905_agent/pde5_harness/sample_run/structures/work/ligand_ref.pdb


 34 37  0  0  0  0  0  0  0  0999 V2000
    2.1377   66.3126   84.0368 C   0  0  0  0  0  0  0  0  0  0  0  0
    1.6075   67.1877   83.0112 C   0  0  0  0  0  0  0  0  0  0  0  0
    2.4119   68.2733   82.4547 C   0  0  0  0  0  0  0  0  0  0  0  0
    3.8037   68.4407   82.9819 C   0  0  0  0  0  0  0  0  0  0  0  0
    4.3560   67.5706   84.0148 C   0  0  0  0  0  0  0  0  0  0  0  0
    3.5316   66.4829   84.5758 C   0  0  0  0  0  0  0  0  0  0  0  0
   -1.0275   62.4513   83.7048 C   0  0  0  0  0  0  0  0  0  0  0  0
   -1.7121   61.7826   84.7281 N   0  0  0  0  0  0  0  0  0  0  0  0
   -1.3856   62.3493   85.9262 N   0  0  0  0  0  0  0  0  0  0  0  0
   -1.9357   61.8815   87.2014 C   0  0  0  0  0  0  0  0  0  0  0  0
   -0.5022   63.3669   85.6689 C   0  0  0  0  0  0  0  0  0  0  0  0
    0.1897   64.3128   86.4985 C   0  0  0  0  0  0  0  0  0  0  0  0
    0.0745   64.3458   87.7021 O   0  0  0  0  0  0  0  0  0  0  0  0
    1.0328   65.2399   85.8896 N   0  0  0  0  0  0  0  0  0  0  0  0
    1.2520   65.3046   84.5064 C   0  0  0  0  0  0  0  0  0  0  0  0
    0.6029   64.4006   83.6574 N   0  0  0  0  0  0  0  0  0  0  0  0
   -0.2641   63.4482   84.2643 C   0  0  0  0  0  0  0  0  0  0  0  0
    0.7398   64.4224   82.6828 H   0  0  0  0  0  0  0  0  0  0  0  0
   -1.1195   62.1160   82.2512 C   0  0  0  0  0  0  0  0  0  0  0  0
    0.6907   61.5436   80.5520 C   0  0  0  0  0  0  0  0  0  0  0  0
    0.2380   61.3820   81.9781 C   0  0  0  0  0  0  0  0  0  0  0  0
    1.8246   69.2616   81.3403 S   0  0  0  0  0  0  0  0  0  0  0  0
    2.7006   69.7713   80.4944 O   0  0  0  0  0  0  0  0  0  0  0  0
    0.9667   68.6094   80.5915 O   0  0  0  0  0  0  0  0  0  0  0  0
    1.1290   70.3557   82.2611 N   0  0  0  0  0  0  0  0  0  0  0  0
   -0.3132   70.7998   81.7964 C   0  0  0  0  0  0  0  0  0  0  0  0
   -0.4024   71.8827   80.7038 C   0  0  0  0  0  0  0  0  0  0  0  0
    0.6228   72.9784   80.7712 N   0  0  0  0  0  0  0  0  0  0  0  0
   -0.0817   74.2616   81.0798 C   0  0  0  0  0  0  0  0  0  0  0  0
    1.8221   72.8237   81.7094 C   0  0  0  0  0  0  0  0  0  0  0  0
    1.8247   71.6204   82.7269 C   0  0  0  0  0  0  0  0  0  0  0  0
    3.9807   65.5840   85.6175 O   0  0  0  0  0  0  0  0  0  0  0  0
    5.3471   65.1733   85.8239 C   0  0  0  0  0  0  0  0  0  0  0  0
    5.6425   65.5090   87.2762 C   0  0  0  0  0  0  0  0  0  0  0  0
 20 21  1  0  0  0
 21 19  1  0  0  0
 19  7  1  0  0  0
  7 17  1  0  0  0
  7  8  2  0  0  0
  8  9  1  0  0  0
  9 10  1  0  0  0
 11  9  1  0  0  0
 11 12  1  0  0  0
 12 13  2  0  0  0
 14 12  1  0  0  0
 15 14  2  0  0  0
 16 17  1  0  0  0
 16 15  1  0  0  0
 16 18  1  0  0  0
 17 11  2  0  0  0
  1 15  1  0  0  0
  1  6  1  0  0  0
  2  1  2  0  0  0
  3  2  1  0  0  0
  3  4  2  0  0  0
  4  5  1  0  0  0
  5  6  2  0  0  0
  6 32  1  0  0  0
 32 33  1  0  0  0
 33 34  1  0  0  0
 22 24  2  0  0  0
 22 25  1  0  0  0
 22  3  1  0  0  0
 23 22  2  0  0  0
 25 26  1  0  0  0
 27 26  1  0  0  0
 28 29  1  0  0  0
 28 27  1  0  0  0
 30 28  1  0  0  0
 30 31  1  0  0  0
 31 25  1  0  0  0
M  END
> <minimizedAffinity>
-8.99562

$$$$
/home/hjpark/lecture_drug1/0905_agent/pde5_harness/sample_run/structures/work/ligand_ref.pdb


 34 37  0  0  0  0  0  0  0  0999 V2000
    0.9503   65.9789   82.0099 C   0  0  0  0  0  0  0  0  0  0  0  0
    1.4820   67.2134   82.5507 C   0  0  0  0  0  0  0  0  0  0  0  0
    2.0691   68.2287   81.6791 C   0  0  0  0  0  0  0  0  0  0  0  0
    2.0940   67.9449   80.2088 C   0  0  0  0  0  0  0  0  0  0  0  0
    1.5644   66.7079   79.6446 C   0  0  0  0  0  0  0  0  0  0  0  0
    0.9816   65.6857   80.5350 C   0  0  0  0  0  0  0  0  0  0  0  0
   -1.9171   62.2419   83.6983 C   0  0  0  0  0  0  0  0  0  0  0  0
   -2.0083   61.7175   84.9944 N   0  0  0  0  0  0  0  0  0  0  0  0
   -1.1502   62.3964   85.8104 N   0  0  0  0  0  0  0  0  0  0  0  0
   -1.0047   62.0931   87.2368 C   0  0  0  0  0  0  0  0  0  0  0  0
   -0.5189   63.3418   85.0425 C   0  0  0  0  0  0  0  0  0  0  0  0
    0.4739   64.3418   85.3185 C   0  0  0  0  0  0  0  0  0  0  0  0
    0.9570   64.5098   86.4146 O   0  0  0  0  0  0  0  0  0  0  0  0
    0.9007   65.1610   84.2755 N   0  0  0  0  0  0  0  0  0  0  0  0
    0.4198   65.0662   82.9620 C   0  0  0  0  0  0  0  0  0  0  0  0
   -0.5456   64.1039   82.6437 N   0  0  0  0  0  0  0  0  0  0  0  0
   -0.9939   63.2603   83.6995 C   0  0  0  0  0  0  0  0  0  0  0  0
   -0.8994   64.0141   81.7294 H   0  0  0  0  0  0  0  0  0  0  0  0
   -2.6980   61.7553   82.5204 C   0  0  0  0  0  0  0  0  0  0  0  0
   -1.0874   61.0801   80.6653 C   0  0  0  0  0  0  0  0  0  0  0  0
   -1.7731   60.6367   81.9295 C   0  0  0  0  0  0  0  0  0  0  0  0
    2.6830   69.5838   82.2709 S   0  0  0  0  0  0  0  0  0  0  0  0
    2.3192   69.8996   83.5000 O   0  0  0  0  0  0  0  0  0  0  0  0
    3.9906   69.4832   82.3172 O   0  0  0  0  0  0  0  0  0  0  0  0
    2.1854   70.6280   81.1796 N   0  0  0  0  0  0  0  0  0  0  0  0
    3.0874   71.9151   81.0275 C   0  0  0  0  0  0  0  0  0  0  0  0
    2.8471   73.0688   82.0203 C   0  0  0  0  0  0  0  0  0  0  0  0
    1.4188   73.3209   82.4107 N   0  0  0  0  0  0  0  0  0  0  0  0
    1.0168   74.6606   81.8799 C   0  0  0  0  0  0  0  0  0  0  0  0
    0.3494   72.2905   82.0403 C   0  0  0  0  0  0  0  0  0  0  0  0
    0.7510   71.1097   81.0770 C   0  0  0  0  0  0  0  0  0  0  0  0
    0.4532   64.4195   80.0742 O   0  0  0  0  0  0  0  0  0  0  0  0
   -0.0768   64.1744   78.7561 C   0  0  0  0  0  0  0  0  0  0  0  0
    0.9031   63.2074   78.1128 C   0  0  0  0  0  0  0  0  0  0  0  0
 20 21  1  0  0  0
 21 19  1  0  0  0
 19  7  1  0  0  0
  7 17  1  0  0  0
  7  8  2  0  0  0
  8  9  1  0  0  0
  9 10  1  0  0  0
 11  9  1  0  0  0
 11 12  1  0  0  0
 12 13  2  0  0  0
 14 12  1  0  0  0
 15 14  2  0  0  0
 16 17  1  0  0  0
 16 15  1  0  0  0
 16 18  1  0  0  0
 17 11  2  0  0  0
  1 15  1  0  0  0
  1  6  1  0  0  0
  2  1  2  0  0  0
  3  2  1  0  0  0
  3  4  2  0  0  0
  4  5  1  0  0  0
  5  6  2  0  0  0
  6 32  1  0  0  0
 32 33  1  0  0  0
 33 34  1  0  0  0
 22 24  2  0  0  0
 22 25  1  0  0  0
 22  3  1  0  0  0
 23 22  2  0  0  0
 25 26  1  0  0  0
 27 26  1  0  0  0
 28 29  1  0  0  0
 28 27  1  0  0  0
 30 28  1  0  0  0
 30 31  1  0  0  0
 31 25  1  0  0  0
M  END
> <minimizedAffinity>
-8.98270

$$$$
/home/hjpark/lecture_drug1/0905_agent/pde5_harness/sample_run/structures/work/ligand_ref.pdb


 34 37  0  0  0  0  0  0  0  0999 V2000
    0.5350   65.2587   81.4915 C   0  0  0  0  0  0  0  0  0  0  0  0
    0.8495   66.5311   80.8742 C   0  0  0  0  0  0  0  0  0  0  0  0
    1.4111   67.6311   81.6552 C   0  0  0  0  0  0  0  0  0  0  0  0
    1.6526   67.3890   83.1132 C   0  0  0  0  0  0  0  0  0  0  0  0
    1.3422   66.1153   83.7539 C   0  0  0  0  0  0  0  0  0  0  0  0
    0.7672   65.0142   82.9574 C   0  0  0  0  0  0  0  0  0  0  0  0
   -2.6908   61.7329   80.0078 C   0  0  0  0  0  0  0  0  0  0  0  0
   -2.6894   60.9777   78.8276 N   0  0  0  0  0  0  0  0  0  0  0  0
   -1.6210   61.3484   78.0634 N   0  0  0  0  0  0  0  0  0  0  0  0
   -1.3301   60.7446   76.7601 C   0  0  0  0  0  0  0  0  0  0  0  0
   -0.9500   62.3294   78.7486 C   0  0  0  0  0  0  0  0  0  0  0  0
    0.2270   63.1040   78.4722 C   0  0  0  0  0  0  0  0  0  0  0  0
    0.8761   62.9828   77.4588 O   0  0  0  0  0  0  0  0  0  0  0  0
    0.6450   64.0389   79.4169 N   0  0  0  0  0  0  0  0  0  0  0  0
   -0.0197   64.2746   80.6285 C   0  0  0  0  0  0  0  0  0  0  0  0
   -1.1741   63.5469   80.9402 N   0  0  0  0  0  0  0  0  0  0  0  0
   -1.6130   62.5857   79.9858 C   0  0  0  0  0  0  0  0  0  0  0  0
   -1.6616   63.6932   81.7829 H   0  0  0  0  0  0  0  0  0  0  0  0
   -3.7094   61.6202   81.0958 C   0  0  0  0  0  0  0  0  0  0  0  0
   -2.8959   59.4256   82.1024 C   0  0  0  0  0  0  0  0  0  0  0  0
   -2.9092   60.9234   82.2490 C   0  0  0  0  0  0  0  0  0  0  0  0
    1.7367   69.0490   80.9867 S   0  0  0  0  0  0  0  0  0  0  0  0
    3.0081   69.2924   80.7279 O   0  0  0  0  0  0  0  0  0  0  0  0
    1.1305   69.1302   79.8256 O   0  0  0  0  0  0  0  0  0  0  0  0
    1.1168   70.0307   82.0734 N   0  0  0  0  0  0  0  0  0  0  0  0
   -0.2819   70.6542   81.6888 C   0  0  0  0  0  0  0  0  0  0  0  0
   -0.2758   71.9029   80.7859 C   0  0  0  0  0  0  0  0  0  0  0  0
    0.8295   72.8907   81.0282 N   0  0  0  0  0  0  0  0  0  0  0  0
    0.2220   74.1579   81.5414 C   0  0  0  0  0  0  0  0  0  0  0  0
    2.0030   72.4943   81.9272 C   0  0  0  0  0  0  0  0  0  0  0  0
    1.9022   71.1459   82.7366 C   0  0  0  0  0  0  0  0  0  0  0  0
    0.4044   63.7247   83.5054 O   0  0  0  0  0  0  0  0  0  0  0  0
   -0.0190   63.4922   84.8637 C   0  0  0  0  0  0  0  0  0  0  0  0
   -0.5475   62.0675   84.8714 C   0  0  0  0  0  0  0  0  0  0  0  0
 20 21  1  0  0  0
 21 19  1  0  0  0
 19  7  1  0  0  0
  7 17  1  0  0  0
  7  8  2  0  0  0
  8  9  1  0  0  0
  9 10  1  0  0  0
 11  9  1  0  0  0
 11 12  1  0  0  0
 12 13  2  0  0  0
 14 12  1  0  0  0
 15 14  2  0  0  0
 16 17  1  0  0  0
 16 15  1  0  0  0
 16 18  1  0  0  0
 17 11  2  0  0  0
  1 15  1  0  0  0
  1  6  1  0  0  0
  2  1  2  0  0  0
  3  2  1  0  0  0
  3  4  2  0  0  0
  4  5  1  0  0  0
  5  6  2  0  0  0
  6 32  1  0  0  0
 32 33  1  0  0  0
 33 34  1  0  0  0
 22 24  2  0  0  0
 22 25  1  0  0  0
 22  3  1  0  0  0
 23 22  2  0  0  0
 25 26  1  0  0  0
 27 26  1  0  0  0
 28 29  1  0  0  0
 28 27  1  0  0  0
 30 28  1  0  0  0
 30 31  1  0  0  0
 31 25  1  0  0  0
M  END
> <minimizedAffinity>
-8.92433

$$$$
/home/hjpark/lecture_drug1/0905_agent/pde5_harness/sample_run/structures/work/ligand_ref.pdb


 34 37  0  0  0  0  0  0  0  0999 V2000
    0.3672   64.3993   84.5537 C   0  0  0  0  0  0  0  0  0  0  0  0
   -0.1810   64.1403   83.2379 C   0  0  0  0  0  0  0  0  0  0  0  0
   -1.3238   63.2476   83.0582 C   0  0  0  0  0  0  0  0  0  0  0  0
   -1.9069   62.6178   84.2854 C   0  0  0  0  0  0  0  0  0  0  0  0
   -1.3692   62.8652   85.6192 C   0  0  0  0  0  0  0  0  0  0  0  0
   -0.2093   63.7616   85.7880 C   0  0  0  0  0  0  0  0  0  0  0  0
    3.0305   68.5132   83.5433 C   0  0  0  0  0  0  0  0  0  0  0  0
    4.3320   68.8412   83.9454 N   0  0  0  0  0  0  0  0  0  0  0  0
    4.8296   67.8275   84.7122 N   0  0  0  0  0  0  0  0  0  0  0  0
    6.1753   67.8581   85.2917 C   0  0  0  0  0  0  0  0  0  0  0  0
    3.8556   66.8652   84.7984 C   0  0  0  0  0  0  0  0  0  0  0  0
    3.7772   65.5897   85.4531 C   0  0  0  0  0  0  0  0  0  0  0  0
    4.6813   65.1261   86.1093 O   0  0  0  0  0  0  0  0  0  0  0  0
    2.6050   64.8475   85.3254 N   0  0  0  0  0  0  0  0  0  0  0  0
    1.4873   65.2738   84.5944 C   0  0  0  0  0  0  0  0  0  0  0  0
    1.5151   66.5121   83.9422 N   0  0  0  0  0  0  0  0  0  0  0  0
    2.7070   67.2817   84.0613 C   0  0  0  0  0  0  0  0  0  0  0  0
    0.7439   66.8368   83.4237 H   0  0  0  0  0  0  0  0  0  0  0  0
    2.1521   69.3768   82.6969 C   0  0  0  0  0  0  0  0  0  0  0  0
    2.0344   68.1151   80.4865 C   0  0  0  0  0  0  0  0  0  0  0  0
    2.7546   69.1843   81.2631 C   0  0  0  0  0  0  0  0  0  0  0  0
   -1.9190   62.9350   81.6051 S   0  0  0  0  0  0  0  0  0  0  0  0
   -3.2231   63.0858   81.4654 O   0  0  0  0  0  0  0  0  0  0  0  0
   -1.3851   63.7565   80.7321 O   0  0  0  0  0  0  0  0  0  0  0  0
   -1.4351   61.4326   81.4110 N   0  0  0  0  0  0  0  0  0  0  0  0
   -0.2173   61.2461   80.4234 C   0  0  0  0  0  0  0  0  0  0  0  0
   -0.5323   61.1790   78.9165 C   0  0  0  0  0  0  0  0  0  0  0  0
   -1.7931   60.4576   78.5342 N   0  0  0  0  0  0  0  0  0  0  0  0
   -1.4166   59.2277   77.7703 C   0  0  0  0  0  0  0  0  0  0  0  0
   -2.8012   60.0850   79.6240 C   0  0  0  0  0  0  0  0  0  0  0  0
   -2.3801   60.2801   81.1300 C   0  0  0  0  0  0  0  0  0  0  0  0
    0.4092   64.0506   87.0642 O   0  0  0  0  0  0  0  0  0  0  0  0
   -0.2138   63.8536   88.3493 C   0  0  0  0  0  0  0  0  0  0  0  0
    0.4543   62.6153   88.9234 C   0  0  0  0  0  0  0  0  0  0  0  0
 20 21  1  0  0  0
 21 19  1  0  0  0
 19  7  1  0  0  0
  7 17  1  0  0  0
  7  8  2  0  0  0
  8  9  1  0  0  0
  9 10  1  0  0  0
 11  9  1  0  0  0
 11 12  1  0  0  0
 12 13  2  0  0  0
 14 12  1  0  0  0
 15 14  2  0  0  0
 16 17  1  0  0  0
 16 15  1  0  0  0
 16 18  1  0  0  0
 17 11  2  0  0  0
  1 15  1  0  0  0
  1  6  1  0  0  0
  2  1  2  0  0  0
  3  2  1  0  0  0
  3  4  2  0  0  0
  4  5  1  0  0  0
  5  6  2  0  0  0
  6 32  1  0  0  0
 32 33  1  0  0  0
 33 34  1  0  0  0
 22 24  2  0  0  0
 22 25  1  0  0  0
 22  3  1  0  0  0
 23 22  2  0  0  0
 25 26  1  0  0  0
 27 26  1  0  0  0
 28 29  1  0  0  0
 28 27  1  0  0  0
 30 28  1  0  0  0
 30 31  1  0  0  0
 31 25  1  0  0  0
M  END
> <minimizedAffinity>
-8.90887

$$$$
/home/hjpark/lecture_drug1/0905_agent/pde5_harness/sample_run/structures/work/ligand_ref.pdb


 34 37  0  0  0  0  0  0  0  0999 V2000
    0.0699   63.3394   84.0816 C   0  0  0  0  0  0  0  0  0  0  0  0
    0.9379   64.4069   83.6277 C   0  0  0  0  0  0  0  0  0  0  0  0
    1.5916   65.3044   84.5776 C   0  0  0  0  0  0  0  0  0  0  0  0
    1.3330   65.0737   86.0346 C   0  0  0  0  0  0  0  0  0  0  0  0
    0.4619   64.0049   86.5121 C   0  0  0  0  0  0  0  0  0  0  0  0
   -0.1999   63.1098   85.5435 C   0  0  0  0  0  0  0  0  0  0  0  0
   -0.5819   61.5364   79.4597 C   0  0  0  0  0  0  0  0  0  0  0  0
   -1.5189   60.6001   79.0031 N   0  0  0  0  0  0  0  0  0  0  0  0
   -2.2949   60.1993   80.0520 N   0  0  0  0  0  0  0  0  0  0  0  0
   -3.3772   59.2215   79.9101 C   0  0  0  0  0  0  0  0  0  0  0  0
   -1.8564   60.8720   81.1644 C   0  0  0  0  0  0  0  0  0  0  0  0
   -2.2600   60.8785   82.5423 C   0  0  0  0  0  0  0  0  0  0  0  0
   -3.1638   60.1981   82.9704 O   0  0  0  0  0  0  0  0  0  0  0  0
   -1.5809   61.7101   83.4303 N   0  0  0  0  0  0  0  0  0  0  0  0
   -0.5173   62.5447   83.0595 C   0  0  0  0  0  0  0  0  0  0  0  0
   -0.0854   62.5694   81.7283 N   0  0  0  0  0  0  0  0  0  0  0  0
   -0.7709   61.7267   80.8079 C   0  0  0  0  0  0  0  0  0  0  0  0
    0.6600   63.1445   81.4408 H   0  0  0  0  0  0  0  0  0  0  0  0
    0.4498   62.2017   78.6071 C   0  0  0  0  0  0  0  0  0  0  0  0
   -0.9182   63.4542   76.8603 C   0  0  0  0  0  0  0  0  0  0  0  0
   -0.2476   63.5461   78.2045 C   0  0  0  0  0  0  0  0  0  0  0  0
    2.5310   66.5030   84.0835 S   0  0  0  0  0  0  0  0  0  0  0  0
    3.1114   66.3415   82.9088 O   0  0  0  0  0  0  0  0  0  0  0  0
    1.8129   67.5947   83.9621 O   0  0  0  0  0  0  0  0  0  0  0  0
    3.5638   66.5780   85.2904 N   0  0  0  0  0  0  0  0  0  0  0  0
    4.4421   67.8894   85.3366 C   0  0  0  0  0  0  0  0  0  0  0  0
    5.7044   67.9269   84.4537 C   0  0  0  0  0  0  0  0  0  0  0  0
    6.4683   66.6391   84.3341 N   0  0  0  0  0  0  0  0  0  0  0  0
    7.8023   66.8226   84.9860 C   0  0  0  0  0  0  0  0  0  0  0  0
    5.8330   65.3428   84.8425 C   0  0  0  0  0  0  0  0  0  0  0  0
    4.4933   65.4402   85.6667 C   0  0  0  0  0  0  0  0  0  0  0  0
   -1.0983   62.0382   85.9169 O   0  0  0  0  0  0  0  0  0  0  0  0
   -1.7434   61.9084   87.1996 C   0  0  0  0  0  0  0  0  0  0  0  0
   -2.8816   62.9147   87.1699 C   0  0  0  0  0  0  0  0  0  0  0  0
 20 21  1  0  0  0
 21 19  1  0  0  0
 19  7  1  0  0  0
  7 17  1  0  0  0
  7  8  2  0  0  0
  8  9  1  0  0  0
  9 10  1  0  0  0
 11  9  1  0  0  0
 11 12  1  0  0  0
 12 13  2  0  0  0
 14 12  1  0  0  0
 15 14  2  0  0  0
 16 17  1  0  0  0
 16 15  1  0  0  0
 16 18  1  0  0  0
 17 11  2  0  0  0
  1 15  1  0  0  0
  1  6  1  0  0  0
  2  1  2  0  0  0
  3  2  1  0  0  0
  3  4  2  0  0  0
  4  5  1  0  0  0
  5  6  2  0  0  0
  6 32  1  0  0  0
 32 33  1  0  0  0
 33 34  1  0  0  0
 22 24  2  0  0  0
 22 25  1  0  0  0
 22  3  1  0  0  0
 23 22  2  0  0  0
 25 26  1  0  0  0
 27 26  1  0  0  0
 28 29  1  0  0  0
 28 27  1  0  0  0
 30 28  1  0  0  0
 30 31  1  0  0  0
 31 25  1  0  0  0
M  END
> <minimizedAffinity>
-8.67421

$$$$
