
     RDKit          3D

 32 36  0  0  0  0  0  0  0  0999 V2000
    0.5891   65.2035   82.1379 N   0  0  0  0  0  0  0  0  0  0  0  0
    1.3806   66.3165   82.1700 N   0  0  0  0  0  0  0  0  0  0  0  0
    1.5575   66.6615   80.8904 C   0  0  0  0  0  0  0  0  0  0  0  0
    0.9230   65.7518   80.0068 C   0  0  0  0  0  0  0  0  0  0  0  0
    0.8143   65.6313   78.6079 C   0  0  0  0  0  0  0  0  0  0  0  0
    0.0802   64.5718   78.0811 C   0  0  0  0  0  0  0  0  0  0  0  0
   -0.0284   64.4492   76.7513 F   0  0  0  0  0  0  0  0  0  0  0  0
   -0.5404   63.6404   78.8999 C   0  0  0  0  0  0  0  0  0  0  0  0
   -0.4440   63.7421   80.2910 C   0  0  0  0  0  0  0  0  0  0  0  0
    0.2981   64.8122   80.8304 C   0  0  0  0  0  0  0  0  0  0  0  0
   -0.5161   61.4422   87.3078 C   0  0  0  0  0  0  0  0  0  0  0  0
   -0.8961   62.9043   87.0661 C   0  0  0  0  0  0  0  0  0  0  0  0
   -2.2879   63.2322   87.6101 C   0  0  0  0  0  0  0  0  0  0  0  0
    0.1293   63.7930   87.8135 C   0  0  0  0  0  0  0  0  0  0  0  0
    0.3528   63.8115   89.0120 O   0  0  0  0  0  0  0  0  0  0  0  0
    0.7599   64.5767   86.8698 N   0  0  0  0  0  0  0  0  0  0  0  0
    0.2865   64.3227   85.5996 C   0  0  0  0  0  0  0  0  0  0  0  0
    0.7419   64.9552   84.5231 N   0  0  0  0  0  0  0  0  0  0  0  0
    0.1631   64.5777   83.3673 C   0  0  0  0  0  0  0  0  0  0  0  0
   -0.8058   63.6312   83.2906 N   0  0  0  0  0  0  0  0  0  0  0  0
   -1.2189   63.0307   84.4260 C   0  0  0  0  0  0  0  0  0  0  0  0
   -2.7106   61.5971   84.1593 I   0  0  0  0  0  0  0  0  0  0  0  0
   -0.6890   63.3500   85.6412 C   0  0  0  0  0  0  0  0  0  0  0  0
    1.4780   65.2513   87.0808 H   0  0  0  0  0  0  0  0  0  0  0  0
    2.3787   67.8630   80.5482 C   0  0  0  0  0  0  0  0  0  0  0  0
    1.5704   69.0638   80.9673 C   0  0  0  0  0  0  0  0  0  0  0  0
    0.3431   69.3623   80.3531 C   0  0  0  0  0  0  0  0  0  0  0  0
   -0.3974   70.4787   80.7501 C   0  0  0  0  0  0  0  0  0  0  0  0
    0.0762   71.3089   81.7657 C   0  0  0  0  0  0  0  0  0  0  0  0
    1.2911   71.0223   82.3850 C   0  0  0  0  0  0  0  0  0  0  0  0
    2.0241   69.9085   81.9843 C   0  0  0  0  0  0  0  0  0  0  0  0
    3.1880   69.6502   82.5983 F   0  0  0  0  0  0  0  0  0  0  0  0
 11 12  1  0
 12 13  1  0
 12 14  1  0
 14 15  2  0
 14 16  1  0
 16 17  1  0
 17 18  2  0
 18 19  1  0
 19  1  1  0
  1  2  1  0
  2  3  2  0
  3 25  1  0
 25 26  1  0
 26 27  2  0
 27 28  1  0
 28 29  2  0
 29 30  1  0
 30 31  2  0
 31 32  1  0
  3  4  1  0
  4  5  1  0
  5  6  2  0
  6  7  1  0
  6  8  1  0
  8  9  2  0
  9 10  1  0
 19 20  2  0
 20 21  1  0
 21 22  1  0
 21 23  2  0
 23 12  1  0
 23 17  1  0
 10  1  1  0
 31 26  1  0
 10  4  2  0
 16 24  1  0
M  END
>  <minimizedAffinity>  (1) 
-12.19464

$$$$
