
     RDKit          3D

 39 43  0  0  0  0  0  0  0  0999 V2000
    3.1171   67.0849   84.2631 C   0  0  0  0  0  0  0  0  0  0  0  0
    3.7747   68.1505   83.6329 C   0  0  0  0  0  0  0  0  0  0  0  0
    3.1916   68.7923   82.5389 C   0  0  0  0  0  0  0  0  0  0  0  0
    1.9596   68.3459   82.0561 C   0  0  0  0  0  0  0  0  0  0  0  0
    1.2913   67.2900   82.6813 C   0  0  0  0  0  0  0  0  0  0  0  0
    1.8760   66.6436   83.7808 C   0  0  0  0  0  0  0  0  0  0  0  0
    1.1361   65.4927   84.3718 C   0  0  0  0  0  0  0  0  0  0  0  0
    1.1395   65.3944   85.7544 N   0  0  0  0  0  0  0  0  0  0  0  0
    0.4949   64.3975   86.2486 C   0  0  0  0  0  0  0  0  0  0  0  0
    0.4310   64.1856   87.5730 O   0  0  0  0  0  0  0  0  0  0  0  0
   -0.1847   63.4713   85.4881 N   0  0  0  0  0  0  0  0  0  0  0  0
   -0.9307   62.3521   85.7767 C   0  0  0  0  0  0  0  0  0  0  0  0
   -1.1806   61.8457   87.1477 C   0  0  0  0  0  0  0  0  0  0  0  0
   -1.3870   61.8029   84.6653 N   0  0  0  0  0  0  0  0  0  0  0  0
   -0.9187   62.5888   83.6311 C   0  0  0  0  0  0  0  0  0  0  0  0
   -0.1671   63.6355   84.1259 C   0  0  0  0  0  0  0  0  0  0  0  0
    0.5074   64.6759   83.5692 N   0  0  0  0  0  0  0  0  0  0  0  0
    0.9430   64.8887   88.0076 H   0  0  0  0  0  0  0  0  0  0  0  0
   -1.2424   62.2691   82.2079 C   0  0  0  0  0  0  0  0  0  0  0  0
   -2.4145   63.1135   81.6747 C   0  0  0  0  0  0  0  0  0  0  0  0
   -3.3428   62.1310   80.9726 C   0  0  0  0  0  0  0  0  0  0  0  0
   -3.1610   60.8451   81.7581 C   0  0  0  0  0  0  0  0  0  0  0  0
   -1.6595   60.8027   82.0039 C   0  0  0  0  0  0  0  0  0  0  0  0
    1.1959   69.1615   80.6694 S   0  0  0  0  0  0  0  0  0  0  0  0
    2.0454   68.9306   79.5209 O   0  0  0  0  0  0  0  0  0  0  0  0
   -0.2000   68.7766   80.6556 O   0  0  0  0  0  0  0  0  0  0  0  0
    1.2786   70.7952   81.0786 N   0  0  0  0  0  0  0  0  0  0  0  0
    2.4404   71.5752   80.5629 C   0  0  0  0  0  0  0  0  0  0  0  0
    2.2165   73.0977   80.7076 C   0  0  0  0  0  0  0  0  0  0  0  0
    1.5212   73.5131   81.9421 N   0  0  0  0  0  0  0  0  0  0  0  0
    0.2077   72.8227   82.0334 C   0  0  0  0  0  0  0  0  0  0  0  0
    0.0213   71.5776   81.1321 C   0  0  0  0  0  0  0  0  0  0  0  0
    2.3132   73.2603   83.1671 C   0  0  0  0  0  0  0  0  0  0  0  0
    3.5042   74.2121   83.3853 C   0  0  0  0  0  0  0  0  0  0  0  0
    3.4241   74.8796   84.6439 O   0  0  0  0  0  0  0  0  0  0  0  0
    2.6195   75.4268   84.6277 H   0  0  0  0  0  0  0  0  0  0  0  0
    3.7510   66.4076   85.2722 O   0  0  0  0  0  0  0  0  0  0  0  0
    5.6019   65.0830   85.9906 C   0  0  0  0  0  0  0  0  0  0  0  0
    5.0532   65.9591   84.8790 C   0  0  0  0  0  0  0  0  0  0  0  0
 38 39  1  0
 39 37  1  0
 37  1  1  0
  1  2  1  0
  2  3  2  0
  3  4  1  0
  4 24  1  0
 24 25  2  0
 24 26  2  0
 24 27  1  0
 27 28  1  0
 28 29  1  0
 29 30  1  0
 30 33  1  0
 33 34  1  0
 34 35  1  0
 30 31  1  0
 31 32  1  0
  4  5  2  0
  5  6  1  0
  6  7  1  0
  7  8  1  0
  8  9  2  0
  9 10  1  0
  9 11  1  0
 11 12  1  0
 12 13  1  0
 12 14  2  0
 14 15  1  0
 15 19  1  0
 19 20  1  0
 20 21  1  0
 21 22  1  0
 22 23  1  0
 15 16  2  0
 16 17  1  0
  6  1  2  0
 17  7  2  0
 32 27  1  0
 16 11  1  0
 23 19  1  0
 35 36  1  0
 10 18  1  0
M  END
>  <minimizedAffinity>  (1) 
-9.72511

$$$$
