
     RDKit          3D

 33 37  0  0  0  0  0  0  0  0999 V2000
    1.9142   67.1420   82.8884 C   0  0  0  0  0  0  0  0  0  0  0  0
    3.1260   66.9934   83.4668 N   0  0  0  0  0  0  0  0  0  0  0  0
    3.6456   68.2413   83.5023 N   0  0  0  0  0  0  0  0  0  0  0  0
    2.8394   69.1857   82.9328 C   0  0  0  0  0  0  0  0  0  0  0  0
    3.1080   70.5020   82.7995 N   0  0  0  0  0  0  0  0  0  0  0  0
    2.1020   71.1876   82.2058 C   0  0  0  0  0  0  0  0  0  0  0  0
    0.9103   70.6362   81.7632 C   0  0  0  0  0  0  0  0  0  0  0  0
   -0.0190   71.4095   81.1871 F   0  0  0  0  0  0  0  0  0  0  0  0
    0.6792   69.2738   81.9162 C   0  0  0  0  0  0  0  0  0  0  0  0
    1.6922   68.5122   82.5287 C   0  0  0  0  0  0  0  0  0  0  0  0
   -1.5430   62.7636   82.2198 C   0  0  2  0  0  0  0  0  0  0  0  0
   -2.9567   63.1722   81.8111 C   0  0  0  0  0  0  0  0  0  0  0  0
   -1.4709   62.4119   83.7318 C   0  0  0  0  0  0  0  0  0  0  0  0
   -2.0762   61.5337   84.3230 O   0  0  0  0  0  0  0  0  0  0  0  0
   -0.5985   63.2981   84.3457 N   0  0  0  0  0  0  0  0  0  0  0  0
   -0.1223   64.2329   83.4527 C   0  0  0  0  0  0  0  0  0  0  0  0
    0.7058   65.2293   83.7536 N   0  0  0  0  0  0  0  0  0  0  0  0
    1.0016   66.0041   82.6828 C   0  0  0  0  0  0  0  0  0  0  0  0
    0.5144   65.8027   81.4196 N   0  0  0  0  0  0  0  0  0  0  0  0
   -0.3331   64.7648   81.1652 N   0  0  0  0  0  0  0  0  0  0  0  0
   -0.6420   63.9867   82.2039 C   0  0  0  0  0  0  0  0  0  0  0  0
   -0.3850   63.2910   85.3308 H   0  0  0  0  0  0  0  0  0  0  0  0
   -0.8969   61.6807   81.3291 C   0  0  0  0  0  0  0  0  0  0  0  0
    1.4571   61.0233   82.1425 C   0  0  0  0  0  0  0  0  0  0  0  0
    0.5979   61.5013   81.2354 C   0  0  0  0  0  0  0  0  0  0  0  0
    4.9632   68.4661   84.0780 C   0  0  0  0  0  0  0  0  0  0  0  0
    5.3629   67.3475   85.0021 C   0  0  0  0  0  0  0  0  0  0  0  0
    5.8747   66.1395   84.5023 C   0  0  0  0  0  0  0  0  0  0  0  0
    6.2354   65.1081   85.3730 C   0  0  0  0  0  0  0  0  0  0  0  0
    6.0916   65.2711   86.7507 C   0  0  0  0  0  0  0  0  0  0  0  0
    5.5878   66.4670   87.2579 C   0  0  0  0  0  0  0  0  0  0  0  0
    5.2296   67.4908   86.3849 C   0  0  0  0  0  0  0  0  0  0  0  0
    4.7597   68.6365   86.8975 F   0  0  0  0  0  0  0  0  0  0  0  0
 24 25  2  0
 25 23  1  0
 23 11  1  0
 11 12  1  6
 11 13  1  0
 13 14  2  0
 13 15  1  0
 15 16  1  0
 16 17  1  0
 17 18  2  0
 18  1  1  0
  1  2  2  0
  2  3  1  0
  3 26  1  0
 26 27  1  0
 27 28  2  0
 28 29  1  0
 29 30  2  0
 30 31  1  0
 31 32  2  0
 32 33  1  0
  3  4  1  0
  4  5  1  0
  5  6  2  0
  6  7  1  0
  7  8  1  0
  7  9  2  0
  9 10  1  0
 18 19  1  0
 19 20  2  0
 20 21  1  0
 21 11  1  0
 21 16  2  0
 10  1  1  0
 32 27  1  0
 10  4  2  0
 15 22  1  0
M  END
>  <minimizedAffinity>  (1) 
-10.98831

$$$$
