
     RDKit          3D

 31 32  0  0  0  0  0  0  0  0999 V2000
   -0.3980   64.2212   82.0864 C   0  0  0  0  0  0  0  0  0  0  0  0
   -1.1627   63.6610   81.0612 C   0  0  0  0  0  0  0  0  0  0  0  0
   -2.1325   62.7111   81.3736 C   0  0  0  0  0  0  0  0  0  0  0  0
   -2.3161   62.3359   82.6985 C   0  0  0  0  0  0  0  0  0  0  0  0
   -1.5137   62.9314   83.6610 C   0  0  0  0  0  0  0  0  0  0  0  0
   -0.5507   63.8594   83.3860 N   0  0  0  0  0  0  0  0  0  0  0  0
   -1.6728   62.5512   85.1030 C   0  0  0  0  0  0  0  0  0  0  0  0
   -2.4540   61.6762   85.4566 O   0  0  0  0  0  0  0  0  0  0  0  0
   -0.8571   63.2518   85.9684 N   0  0  0  0  0  0  0  0  0  0  0  0
   -0.1082   63.7623   85.5071 H   0  0  0  0  0  0  0  0  0  0  0  0
   -0.6542   62.8095   87.3434 C   0  0  2  0  0  0  0  0  0  0  0  0
   -1.9208   63.0467   88.1538 C   0  0  0  0  0  0  0  0  0  0  0  0
    0.5158   63.5359   88.0167 C   0  0  0  0  0  0  0  0  0  0  0  0
    1.5181   63.9539   87.4556 O   0  0  0  0  0  0  0  0  0  0  0  0
    0.4079   63.6510   89.3590 O   0  0  0  0  0  0  0  0  0  0  0  0
    1.2128   64.1491   89.6118 H   0  0  0  0  0  0  0  0  0  0  0  0
    0.6828   65.2334   81.7702 C   0  0  0  0  0  0  0  0  0  0  0  0
    0.6436   66.2944   82.7244 O   0  0  0  0  0  0  0  0  0  0  0  0
    2.4067   67.7582   83.2344 C   0  0  0  0  0  0  0  0  0  0  0  0
    3.5604   68.0866   83.9673 C   0  0  0  0  0  0  0  0  0  0  0  0
    4.0921   67.2064   84.9206 C   0  0  0  0  0  0  0  0  0  0  0  0
    3.4356   65.9960   85.1572 C   0  0  0  0  0  0  0  0  0  0  0  0
    3.8898   65.1336   86.1165 O   0  0  0  0  0  0  0  0  0  0  0  0
    2.2824   65.6567   84.4371 C   0  0  0  0  0  0  0  0  0  0  0  0
    1.7646   66.5306   83.4744 C   0  0  0  0  0  0  0  0  0  0  0  0
    3.2704   64.3914   86.2170 H   0  0  0  0  0  0  0  0  0  0  0  0
    5.3251   67.6437   85.6371 C   0  0  0  0  0  0  0  0  0  0  0  0
    6.6729   67.4600   84.9921 C   0  0  0  0  0  0  0  0  0  0  0  0
    5.2222   68.1713   86.7450 O   0  0  0  0  0  0  0  0  0  0  0  0
    2.4780   68.5480   80.8478 C   0  0  0  0  0  0  0  0  0  0  0  0
    1.8715   68.7528   82.2280 C   0  0  0  0  0  0  0  0  0  0  0  0
 30 31  1  0
 31 19  1  0
 19 20  2  0
 20 21  1  0
 21 27  1  0
 27 28  1  0
 27 29  2  0
 21 22  2  0
 22 23  1  0
 22 24  1  0
 24 25  2  0
 25 18  1  0
 18 17  1  0
 17  1  1  0
  1  2  1  0
  2  3  2  0
  3  4  1  0
  4  5  2  0
  5  7  1  0
  7  8  2  0
  7  9  1  0
  9 11  1  0
 11 12  1  1
 11 13  1  0
 13 14  2  0
 13 15  1  0
  5  6  1  0
 25 19  1  0
  6  1  2  0
 23 26  1  0
  9 10  1  0
 15 16  1  0
M  END
>  <minimizedAffinity>  (1) 
-9.08146

$$$$
