
     RDKit          3D

 33 36  0  0  0  0  0  0  0  0999 V2000
    0.5345   65.3016   84.0608 C   0  0  0  0  0  0  0  0  0  0  0  0
    0.2427   65.2340   82.7553 N   0  0  0  0  0  0  0  0  0  0  0  0
   -0.4208   64.2304   82.2139 N   0  0  0  0  0  0  0  0  0  0  0  0
   -0.8595   63.1885   82.9359 C   0  0  0  0  0  0  0  0  0  0  0  0
   -0.5908   63.1987   84.2854 C   0  0  0  0  0  0  0  0  0  0  0  0
   -1.0151   62.1612   85.0601 C   0  0  0  0  0  0  0  0  0  0  0  0
   -0.7699   62.1196   86.4269 C   0  0  0  0  0  0  0  0  0  0  0  0
   -0.0753   63.1698   86.9942 C   0  0  0  0  0  0  0  0  0  0  0  0
    0.3519   64.2182   86.2039 C   0  0  0  0  0  0  0  0  0  0  0  0
    0.1079   64.2575   84.8502 C   0  0  0  0  0  0  0  0  0  0  0  0
    1.2423   66.4072   84.5808 N   0  0  0  0  0  0  0  0  0  0  0  0
    1.1423   66.6948   85.6020 H   0  0  0  0  0  0  0  0  0  0  0  0
    2.1476   67.2413   83.8194 C   0  0  0  0  0  0  0  0  0  0  0  0
    6.1429   66.8485   85.2185 C   0  0  0  0  0  0  0  0  0  0  0  0
    5.8363   67.8757   84.3489 C   0  0  0  0  0  0  0  0  0  0  0  0
    4.5380   68.0566   83.8607 C   0  0  0  0  0  0  0  0  0  0  0  0
    3.5553   67.1837   84.2639 C   0  0  0  0  0  0  0  0  0  0  0  0
    3.8782   66.1455   85.1465 C   0  0  0  0  0  0  0  0  0  0  0  0
    5.1426   65.9617   85.6281 C   0  0  0  0  0  0  0  0  0  0  0  0
    5.5128   64.6521   86.7301 Cl  0  0  0  0  0  0  0  0  0  0  0  0
    8.3735   65.9984   84.9217 C   0  0  0  0  0  0  0  0  0  0  0  0
    7.4100   66.6285   85.7288 O   0  0  0  0  0  0  0  0  0  0  0  0
   -1.5594   62.1618   82.2656 N   0  0  0  0  0  0  0  0  0  0  0  0
   -2.5865   61.9645   82.3930 H   0  0  0  0  0  0  0  0  0  0  0  0
   -0.8954   61.2645   81.3140 C   0  0  0  0  0  0  0  0  0  0  0  0
   -1.6883   61.2414   80.0630 C   0  0  0  0  0  0  0  0  0  0  0  0
   -2.9750   61.7906   80.0534 C   0  0  0  0  0  0  0  0  0  0  0  0
   -3.7559   61.7840   78.9087 C   0  0  0  0  0  0  0  0  0  0  0  0
   -3.2324   61.2150   77.7554 C   0  0  0  0  0  0  0  0  0  0  0  0
   -1.9619   60.6731   77.7667 C   0  0  0  0  0  0  0  0  0  0  0  0
   -1.2596   60.7119   78.9067 N   0  0  0  0  0  0  0  0  0  0  0  0
    0.2011   63.1636   88.4171 C   0  0  0  0  0  0  0  0  0  0  0  0
    0.4146   63.1429   89.5469 N   0  0  0  0  0  0  0  0  0  0  0  0
 21 22  1  0
 22 14  1  0
 14 15  1  0
 15 16  2  0
 16 17  1  0
 17 13  1  0
 13 11  1  0
 11  1  1  0
  1  2  1  0
  2  3  2  0
  3  4  1  0
  4 23  1  0
 23 25  1  0
 25 26  1  0
 26 27  2  0
 27 28  1  0
 28 29  2  0
 29 30  1  0
 30 31  2  0
  4  5  2  0
  5  6  1  0
  6  7  2  0
  7  8  1  0
  8 32  1  0
 32 33  3  0
  8  9  2  0
  9 10  1  0
 17 18  2  0
 18 19  1  0
 19 20  1  0
 19 14  2  0
 10  1  2  0
 31 26  1  0
 10  5  1  0
 11 12  1  0
 23 24  1  0
M  END
>  <minimizedAffinity>  (1) 
-9.83573

$$$$
