
     RDKit          3D

 27 30  0  0  0  0  0  0  0  0999 V2000
   -1.0678   62.4863   87.0499 C   0  0  0  0  0  0  0  0  0  0  0  0
   -0.7688   62.5737   85.6367 N   0  0  0  0  0  0  0  0  0  0  0  0
   -1.5593   61.8576   84.7721 N   0  0  0  0  0  0  0  0  0  0  0  0
   -1.2565   62.1901   83.5499 C   0  0  0  0  0  0  0  0  0  0  0  0
   -0.0065   63.4138   83.3608 S   0  0  0  0  0  0  0  0  0  0  0  0
    0.0919   63.5161   85.1172 C   0  0  0  0  0  0  0  0  0  0  0  0
    0.8344   64.3340   85.7972 N   0  0  0  0  0  0  0  0  0  0  0  0
   -1.9200   61.5890   82.3639 C   0  0  0  0  0  0  0  0  0  0  0  0
   -2.5334   60.3275   82.3883 C   0  0  0  0  0  0  0  0  0  0  0  0
   -3.1429   59.8133   81.2375 C   0  0  0  0  0  0  0  0  0  0  0  0
   -3.1432   60.5548   80.0582 C   0  0  0  0  0  0  0  0  0  0  0  0
   -3.8931   59.9189   78.6475 Cl  0  0  0  0  0  0  0  0  0  0  0  0
   -2.5389   61.8081   80.0173 C   0  0  0  0  0  0  0  0  0  0  0  0
   -1.9296   62.3231   81.1660 C   0  0  0  0  0  0  0  0  0  0  0  0
    1.6654   65.2512   85.1432 C   0  0  0  0  0  0  0  0  0  0  0  0
    1.1250   66.1633   84.2342 C   0  0  0  0  0  0  0  0  0  0  0  0
    1.9511   67.0619   83.5610 C   0  0  0  0  0  0  0  0  0  0  0  0
    3.3288   67.0422   83.7865 C   0  0  0  0  0  0  0  0  0  0  0  0
    3.8942   66.1200   84.6802 C   0  0  0  0  0  0  0  0  0  0  0  0
    3.0487   65.2216   85.3482 C   0  0  0  0  0  0  0  0  0  0  0  0
    5.3368   66.1026   84.9017 C   0  0  0  0  0  0  0  0  0  0  0  0
    5.9467   65.3350   85.8277 N   0  0  0  0  0  0  0  0  0  0  0  0
    7.2999   65.6483   85.6743 O   0  0  0  0  0  0  0  0  0  0  0  0
    7.3499   66.5645   84.6810 C   0  0  0  0  0  0  0  0  0  0  0  0
    8.5370   67.0218   84.3486 O   0  0  0  0  0  0  0  0  0  0  0  0
    6.2006   66.8904   84.1658 N   0  0  0  0  0  0  0  0  0  0  0  0
    9.1394   66.5483   84.9435 H   0  0  0  0  0  0  0  0  0  0  0  0
  1  2  1  0
  2  3  1  0
  3  4  2  0
  4  8  1  0
  8  9  1  0
  9 10  2  0
 10 11  1  0
 11 12  1  0
 11 13  2  0
 13 14  1  0
  4  5  1  0
  5  6  1  0
  6  7  2  0
  7 15  1  0
 15 16  1  0
 16 17  2  0
 17 18  1  0
 18 19  2  0
 19 21  1  0
 21 22  2  0
 22 23  1  0
 23 24  1  0
 24 25  1  0
 24 26  2  0
 19 20  1  0
  6  2  1  0
 20 15  2  0
 14  8  2  0
 26 21  1  0
 25 27  1  0
M  END
>  <minimizedAffinity>  (1) 
-10.38039

$$$$
