
     RDKit          3D

 32 36  0  0  0  0  0  0  0  0999 V2000
    0.3609   65.1735   82.5457 C   0  0  0  0  0  0  0  0  0  0  0  0
    1.5537   65.8249   82.7876 N   0  0  0  0  0  0  0  0  0  0  0  0
    1.9659   65.6342   84.0923 C   0  0  0  0  0  0  0  0  0  0  0  0
    1.0186   64.8289   84.6995 C   0  0  0  0  0  0  0  0  0  0  0  0
    0.9202   64.2719   86.0318 C   0  0  0  0  0  0  0  0  0  0  0  0
    1.7551   64.3927   86.9191 O   0  0  0  0  0  0  0  0  0  0  0  0
   -0.3211   63.4751   86.2561 C   0  0  0  0  0  0  0  0  0  0  0  0
   -0.5653   62.9024   87.5094 C   0  0  0  0  0  0  0  0  0  0  0  0
   -1.7256   62.1537   87.7166 C   0  0  0  0  0  0  0  0  0  0  0  0
   -2.6409   61.9745   86.6768 C   0  0  0  0  0  0  0  0  0  0  0  0
   -2.4023   62.5422   85.4236 C   0  0  0  0  0  0  0  0  0  0  0  0
   -1.2450   63.2920   85.2107 C   0  0  0  0  0  0  0  0  0  0  0  0
   -1.0743   63.8213   83.9457 O   0  0  0  0  0  0  0  0  0  0  0  0
    0.0286   64.5649   83.7300 C   0  0  0  0  0  0  0  0  0  0  0  0
    2.0546   66.3782   82.1040 H   0  0  0  0  0  0  0  0  0  0  0  0
    3.1630   66.2364   84.5953 C   0  0  0  0  0  0  0  0  0  0  0  0
    4.3188   65.6235   85.0567 C   0  0  0  0  0  0  0  0  0  0  0  0
    5.2199   66.6501   85.4326 C   0  0  0  0  0  0  0  0  0  0  0  0
    4.5710   67.8313   85.1754 C   0  0  0  0  0  0  0  0  0  0  0  0
    3.3393   67.5917   84.6645 O   0  0  0  0  0  0  0  0  0  0  0  0
   -0.3478   65.2072   81.2306 C   0  0  0  0  0  0  0  0  0  0  0  0
   -0.7185   61.3758   79.2849 C   0  0  0  0  0  0  0  0  0  0  0  0
   -1.7571   61.8522   80.0811 C   0  0  0  0  0  0  0  0  0  0  0  0
   -1.6302   63.0815   80.7304 C   0  0  0  0  0  0  0  0  0  0  0  0
   -0.4715   63.8544   80.5649 C   0  0  0  0  0  0  0  0  0  0  0  0
    0.5479   63.3827   79.7241 C   0  0  0  0  0  0  0  0  0  0  0  0
    0.4171   62.1536   79.0757 C   0  0  0  0  0  0  0  0  0  0  0  0
   -0.8770   60.2070   78.5977 O   0  0  0  0  0  0  0  0  0  0  0  0
   -1.1957   61.5312   76.5214 C   0  0  0  0  0  0  0  0  0  0  0  0
   -1.5770   60.2850   77.3340 C   0  0  0  0  0  0  0  0  0  0  0  0
   -3.1009   60.1897   77.4978 C   0  0  0  0  0  0  0  0  0  0  0  0
   -1.1006   59.0442   76.5589 C   0  0  0  0  0  0  0  0  0  0  0  0
 29 30  1  0
 30 31  1  0
 30 32  1  0
 30 28  1  0
 28 22  1  0
 22 23  1  0
 23 24  2  0
 24 25  1  0
 25 21  1  0
 21  1  1  0
  1  2  1  0
  2  3  1  0
  3 16  1  0
 16 17  2  0
 17 18  1  0
 18 19  2  0
 19 20  1  0
  3  4  2  0
  4  5  1  0
  5  6  2  0
  5  7  1  0
  7  8  2  0
  8  9  1  0
  9 10  2  0
 10 11  1  0
 11 12  2  0
 12 13  1  0
 13 14  1  0
 25 26  2  0
 26 27  1  0
 27 22  2  0
 14  1  2  0
 20 16  1  0
 14  4  1  0
 12  7  1  0
  2 15  1  0
M  END
>  <minimizedAffinity>  (1) 
-10.25950

$$$$
