
     RDKit          3D

 32 34  0  0  0  0  0  0  0  0999 V2000
   -1.4341   61.9089   83.2914 N   0  0  0  0  0  0  0  0  0  0  0  0
   -1.9889   62.0360   84.5434 C   0  0  0  0  0  0  0  0  0  0  0  0
   -3.0759   61.6276   84.9308 O   0  0  0  0  0  0  0  0  0  0  0  0
   -0.5124   62.3135   83.1643 H   0  0  0  0  0  0  0  0  0  0  0  0
   -1.0878   62.7737   85.4910 C   0  0  0  0  0  0  0  0  0  0  0  0
   -1.2386   62.6182   86.8615 C   0  0  0  0  0  0  0  0  0  0  0  0
   -0.3792   63.3222   87.6957 C   0  0  0  0  0  0  0  0  0  0  0  0
    0.5896   64.1517   87.1358 C   0  0  0  0  0  0  0  0  0  0  0  0
    0.6754   64.2641   85.7469 C   0  0  0  0  0  0  0  0  0  0  0  0
   -0.1449   63.5742   84.9120 N   0  0  0  0  0  0  0  0  0  0  0  0
    1.7374   65.1427   85.1169 C   0  0  0  0  0  0  0  0  0  0  0  0
    1.1369   66.3413   84.6247 O   0  0  0  0  0  0  0  0  0  0  0  0
    1.4156   66.6892   83.3319 C   0  0  0  0  0  0  0  0  0  0  0  0
    2.0720   67.8480   82.9140 C   0  0  0  0  0  0  0  0  0  0  0  0
    2.2905   68.0778   81.5518 C   0  0  0  0  0  0  0  0  0  0  0  0
    1.8561   67.1528   80.6040 C   0  0  0  0  0  0  0  0  0  0  0  0
    1.2027   65.9944   81.0160 C   0  0  0  0  0  0  0  0  0  0  0  0
    0.9850   65.7655   82.3755 C   0  0  0  0  0  0  0  0  0  0  0  0
   -2.4428   60.9912   80.0370 C   0  0  0  0  0  0  0  0  0  0  0  0
   -3.0834   59.8922   80.5821 C   0  0  0  0  0  0  0  0  0  0  0  0
   -2.8801   59.8663   82.2818 S   0  0  0  0  0  0  0  0  0  0  0  0
   -1.9695   61.2989   82.1923 C   0  0  0  0  0  0  0  0  0  0  0  0
   -1.8098   61.7983   80.9868 N   0  0  0  0  0  0  0  0  0  0  0  0
   -1.3849   62.5845   78.3569 C   0  0  0  0  0  0  0  0  0  0  0  0
   -2.3498   61.4012   78.5725 C   0  0  0  0  0  0  0  0  0  0  0  0
   -3.7377   61.8256   78.0521 C   0  0  0  0  0  0  0  0  0  0  0  0
   -1.8470   60.1985   77.7437 C   0  0  0  0  0  0  0  0  0  0  0  0
   -2.5838   59.4444   77.1047 O   0  0  0  0  0  0  0  0  0  0  0  0
   -0.4812   59.9905   77.7772 N   0  0  0  0  0  0  0  0  0  0  0  0
   -0.0169   58.9804   76.8964 O   0  0  0  0  0  0  0  0  0  0  0  0
    0.1180   60.8140   77.8670 H   0  0  0  0  0  0  0  0  0  0  0  0
   -0.8532   58.6370   76.5115 H   0  0  0  0  0  0  0  0  0  0  0  0
 24 25  1  0
 25 26  1  0
 25 27  1  0
 27 28  2  0
 27 29  1  0
 29 30  1  0
 25 19  1  0
 19 20  2  0
 20 21  1  0
 21 22  1  0
 22  1  1  0
  1  2  1  0
  2  3  2  0
  2  5  1  0
  5  6  2  0
  6  7  1  0
  7  8  2  0
  8  9  1  0
  9 11  1  0
 11 12  1  0
 12 13  1  0
 13 14  2  0
 14 15  1  0
 15 16  2  0
 16 17  1  0
 17 18  2  0
  9 10  2  0
 22 23  2  0
 23 19  1  0
 10  5  1  0
 18 13  1  0
 29 31  1  0
 30 32  1  0
  1  4  1  0
M  END
>  <minimizedAffinity>  (1) 
-9.84739

$$$$
