
     RDKit          3D

 23 26  0  0  0  0  0  0  0  0999 V2000
    0.7359   65.0884   84.0491 C   0  0  0  0  0  0  0  0  0  0  0  0
    0.1754   64.1079   83.3220 N   0  0  0  0  0  0  0  0  0  0  0  0
   -0.3634   63.0689   83.9798 C   0  0  0  0  0  0  0  0  0  0  0  0
   -0.3830   63.0084   85.3845 C   0  0  0  0  0  0  0  0  0  0  0  0
   -0.9751   61.9700   86.1496 C   0  0  0  0  0  0  0  0  0  0  0  0
   -0.9349   61.9940   87.5420 C   0  0  0  0  0  0  0  0  0  0  0  0
   -0.3092   63.0522   88.1852 C   0  0  0  0  0  0  0  0  0  0  0  0
    0.2639   64.0800   87.4311 C   0  0  0  0  0  0  0  0  0  0  0  0
    0.2337   64.0792   86.0414 C   0  0  0  0  0  0  0  0  0  0  0  0
    0.7929   65.1022   85.3914 N   0  0  0  0  0  0  0  0  0  0  0  0
    2.5018   68.3988   81.9227 C   0  0  0  0  0  0  0  0  0  0  0  0
    1.8673   67.3776   81.2226 C   0  0  0  0  0  0  0  0  0  0  0  0
    1.2948   66.3050   81.9145 C   0  0  0  0  0  0  0  0  0  0  0  0
    1.3409   66.2238   83.3206 C   0  0  0  0  0  0  0  0  0  0  0  0
    1.9900   67.2737   83.9998 C   0  0  0  0  0  0  0  0  0  0  0  0
    2.5637   68.3481   83.3118 C   0  0  0  0  0  0  0  0  0  0  0  0
   -0.9464   62.0204   83.2343 N   0  0  0  0  0  0  0  0  0  0  0  0
   -0.3941   61.8659   82.3954 H   0  0  0  0  0  0  0  0  0  0  0  0
   -2.3772   62.1486   82.9390 C   0  0  0  0  0  0  0  0  0  0  0  0
   -2.9983   60.7447   82.9012 C   0  0  0  0  0  0  0  0  0  0  0  0
   -2.9503   60.3459   81.4348 C   0  0  0  0  0  0  0  0  0  0  0  0
   -3.3120   61.6373   80.7246 C   0  0  0  0  0  0  0  0  0  0  0  0
   -2.6155   62.7295   81.5324 C   0  0  0  0  0  0  0  0  0  0  0  0
 11 12  2  0
 12 13  1  0
 13 14  2  0
 14  1  1  0
  1  2  1  0
  2  3  2  0
  3 17  1  0
 17 19  1  0
 19 20  1  0
 20 21  1  0
 21 22  1  0
 22 23  1  0
  3  4  1  0
  4  5  2  0
  5  6  1  0
  6  7  2  0
  7  8  1  0
  8  9  2  0
  9 10  1  0
 14 15  1  0
 15 16  2  0
 16 11  1  0
 10  1  2  0
 23 19  1  0
  9  4  1  0
 17 18  1  0
M  END
>  <minimizedAffinity>  (1) 
-9.44366

$$$$
