
     RDKit          3D

 35 37  0  0  0  0  0  0  0  0999 V2000
    5.7537   67.1962   85.1134 C   0  0  0  0  0  0  0  0  0  0  0  0
    5.2175   68.1152   84.2080 C   0  0  0  0  0  0  0  0  0  0  0  0
    3.9760   67.8918   83.5846 C   0  0  0  0  0  0  0  0  0  0  0  0
    3.4756   68.8299   82.6741 C   0  0  0  0  0  0  0  0  0  0  0  0
    2.2491   68.6466   82.0182 C   0  0  0  0  0  0  0  0  0  0  0  0
    1.4725   67.5018   82.3039 C   0  0  0  0  0  0  0  0  0  0  0  0
    1.9736   66.5252   83.2123 C   0  0  0  0  0  0  0  0  0  0  0  0
    3.2361   66.7236   83.8631 C   0  0  0  0  0  0  0  0  0  0  0  0
    3.8032   65.8032   84.7819 C   0  0  0  0  0  0  0  0  0  0  0  0
    5.0369   66.0277   85.4064 C   0  0  0  0  0  0  0  0  0  0  0  0
    1.1985   65.2916   83.4693 C   0  0  0  0  0  0  0  0  0  0  0  0
    0.9894   64.3513   82.4485 C   0  0  0  0  0  0  0  0  0  0  0  0
    0.2538   63.1922   82.6923 C   0  0  0  0  0  0  0  0  0  0  0  0
   -0.2692   62.9600   83.9826 C   0  0  0  0  0  0  0  0  0  0  0  0
   -0.0977   63.9061   85.0096 C   0  0  0  0  0  0  0  0  0  0  0  0
    0.6493   65.0575   84.7423 C   0  0  0  0  0  0  0  0  0  0  0  0
   -0.0105   62.2108   81.7097 N   0  0  0  0  0  0  0  0  0  0  0  0
   -0.9333   62.2520   80.6870 C   0  0  0  0  0  0  0  0  0  0  0  0
   -0.9307   60.9931   79.8564 C   0  0  0  0  0  0  0  0  0  0  0  0
   -1.6775   63.1854   80.4076 O   0  0  0  0  0  0  0  0  0  0  0  0
    0.5788   61.3874   81.7935 H   0  0  0  0  0  0  0  0  0  0  0  0
   -0.9918   61.7906   84.1227 O   0  0  0  0  0  0  0  0  0  0  0  0
   -2.4061   61.9796   84.1051 C   0  0  0  0  0  0  0  0  0  0  0  0
   -0.6970   63.6441   86.2133 O   0  0  0  0  0  0  0  0  0  0  0  0
    0.0059   64.0086   87.3951 C   0  0  0  0  0  0  0  0  0  0  0  0
    1.7891   69.7114   81.0512 C   0  0  0  0  0  0  0  0  0  0  0  0
    2.1763   69.3757   79.7247 O   0  0  0  0  0  0  0  0  0  0  0  0
    2.3364   68.4164   79.6983 H   0  0  0  0  0  0  0  0  0  0  0  0
    0.1405   67.3053   81.6104 C   0  0  0  0  0  0  0  0  0  0  0  0
    0.3813   66.9036   80.2682 O   0  0  0  0  0  0  0  0  0  0  0  0
   -0.4923   66.8028   79.8547 H   0  0  0  0  0  0  0  0  0  0  0  0
    8.1353   66.9895   85.0501 C   0  0  0  0  0  0  0  0  0  0  0  0
    6.9568   67.3466   85.7567 O   0  0  0  0  0  0  0  0  0  0  0  0
    5.6227   65.1656   86.3007 O   0  0  0  0  0  0  0  0  0  0  0  0
    5.0879   65.1163   87.6159 C   0  0  0  0  0  0  0  0  0  0  0  0
 32 33  1  0
 33  1  1  0
  1  2  1  0
  2  3  2  0
  3  4  1  0
  4  5  2  0
  5 26  1  0
 26 27  1  0
  5  6  1  0
  6 29  1  0
 29 30  1  0
  6  7  2  0
  7 11  1  0
 11 12  1  0
 12 13  2  0
 13 17  1  0
 17 18  1  0
 18 19  1  0
 18 20  2  0
 13 14  1  0
 14 22  1  0
 22 23  1  0
 14 15  2  0
 15 24  1  0
 24 25  1  0
 15 16  1  0
  7  8  1  0
  8  9  2  0
  9 10  1  0
 10 34  1  0
 34 35  1  0
 10  1  2  0
  8  3  1  0
 16 11  2  0
 27 28  1  0
 30 31  1  0
 17 21  1  0
M  END
>  <minimizedAffinity>  (1) 
-8.84950

$$$$
