
     RDKit          3D

 36 40  0  0  0  0  0  0  0  0999 V2000
    3.4594   66.3118   84.7664 C   0  0  0  0  0  0  0  0  0  0  0  0
    4.2865   67.2997   84.2145 C   0  0  0  0  0  0  0  0  0  0  0  0
    3.8020   68.1731   83.2338 C   0  0  0  0  0  0  0  0  0  0  0  0
    2.4843   68.0566   82.7892 C   0  0  0  0  0  0  0  0  0  0  0  0
    1.6339   67.1083   83.3541 C   0  0  0  0  0  0  0  0  0  0  0  0
    2.1232   66.2298   84.3325 C   0  0  0  0  0  0  0  0  0  0  0  0
    1.1746   65.2017   84.8451 C   0  0  0  0  0  0  0  0  0  0  0  0
    1.0241   65.1459   86.2179 N   0  0  0  0  0  0  0  0  0  0  0  0
    0.2027   64.2697   86.6658 C   0  0  0  0  0  0  0  0  0  0  0  0
   -0.0054   64.1310   87.9809 O   0  0  0  0  0  0  0  0  0  0  0  0
   -0.5294   63.4134   85.8369 C   0  0  0  0  0  0  0  0  0  0  0  0
   -1.4619   62.4141   85.9700 C   0  0  0  0  0  0  0  0  0  0  0  0
   -2.0654   61.8476   87.1952 C   0  0  0  0  0  0  0  0  0  0  0  0
   -1.8212   61.9474   84.7225 N   0  0  0  0  0  0  0  0  0  0  0  0
   -1.1084   62.6482   83.8542 C   0  0  0  0  0  0  0  0  0  0  0  0
   -0.3119   63.5622   84.5071 N   0  0  0  0  0  0  0  0  0  0  0  0
    0.5384   64.4683   83.9740 N   0  0  0  0  0  0  0  0  0  0  0  0
    0.5632   64.7770   88.4311 H   0  0  0  0  0  0  0  0  0  0  0  0
   -1.1286   62.5372   82.3603 C   0  0  0  0  0  0  0  0  0  0  0  0
   -2.4406   63.0993   81.7812 C   0  0  0  0  0  0  0  0  0  0  0  0
   -3.0264   61.9927   80.9107 C   0  0  0  0  0  0  0  0  0  0  0  0
   -2.4915   60.7141   81.5299 C   0  0  0  0  0  0  0  0  0  0  0  0
   -1.0557   61.0820   81.8733 C   0  0  0  0  0  0  0  0  0  0  0  0
    1.8590   69.1656   81.5440 S   0  0  0  0  0  0  0  0  0  0  0  0
    0.6971   69.8252   82.1018 O   0  0  0  0  0  0  0  0  0  0  0  0
    1.7730   68.4154   80.3094 O   0  0  0  0  0  0  0  0  0  0  0  0
    3.0855   70.3168   81.3866 N   0  0  0  0  0  0  0  0  0  0  0  0
    2.9097   71.6445   82.0388 C   0  0  0  0  0  0  0  0  0  0  0  0
    2.8766   72.7886   81.0075 C   0  0  0  0  0  0  0  0  0  0  0  0
    4.0499   72.8588   80.1122 N   0  0  0  0  0  0  0  0  0  0  0  0
    4.9650   73.9310   80.4961 C   0  0  0  0  0  0  0  0  0  0  0  0
    4.7660   71.5681   80.0382 C   0  0  0  0  0  0  0  0  0  0  0  0
    3.8163   70.3577   80.0900 C   0  0  0  0  0  0  0  0  0  0  0  0
    3.8817   65.3805   85.6758 O   0  0  0  0  0  0  0  0  0  0  0  0
    5.7092   65.3604   87.1996 C   0  0  0  0  0  0  0  0  0  0  0  0
    5.2788   65.1111   85.7653 C   0  0  0  0  0  0  0  0  0  0  0  0
 35 36  1  0
 36 34  1  0
 34  1  1  0
  1  2  1  0
  2  3  2  0
  3  4  1  0
  4 24  1  0
 24 25  2  0
 24 26  2  0
 24 27  1  0
 27 28  1  0
 28 29  1  0
 29 30  1  0
 30 31  1  0
 30 32  1  0
 32 33  1  0
  4  5  2  0
  5  6  1  0
  6  7  1  0
  7  8  1  0
  8  9  2  0
  9 10  1  0
  9 11  1  0
 11 12  2  0
 12 13  1  0
 12 14  1  0
 14 15  2  0
 15 19  1  0
 19 20  1  0
 20 21  1  0
 21 22  1  0
 22 23  1  0
 15 16  1  0
 16 17  1  0
  6  1  2  0
 17  7  2  0
 33 27  1  0
 16 11  1  0
 23 19  1  0
 10 18  1  0
M  END
>  <minimizedAffinity>  (1) 
-10.17952

$$$$
