
     RDKit          3D

 37 43  0  0  0  0  0  0  0  0999 V2000
    0.6065   67.3735   81.9246 O   0  0  0  0  0  0  0  0  0  0  0  0
    0.4888   66.1496   81.8314 C   0  0  0  0  0  0  0  0  0  0  0  0
    0.6198   65.3511   82.9562 N   0  0  0  0  0  0  0  0  0  0  0  0
    0.1736   63.9627   83.0975 C   0  0  0  0  0  0  0  0  0  0  0  0
    0.1239   63.7479   84.5701 C   0  0  0  0  0  0  0  0  0  0  0  0
    0.5560   64.8712   85.2494 C   0  0  0  0  0  0  0  0  0  0  0  0
    0.5967   64.9802   86.5896 N   0  0  0  0  0  0  0  0  0  0  0  0
    0.2064   63.9058   87.2978 C   0  0  0  0  0  0  0  0  0  0  0  0
    0.2502   63.9977   88.6812 C   0  0  0  0  0  0  0  0  0  0  0  0
   -0.1398   62.9413   89.5062 C   0  0  0  0  0  0  0  0  0  0  0  0
   -0.5903   61.7573   88.9410 C   0  0  0  0  0  0  0  0  0  0  0  0
   -0.6457   61.6314   87.5526 C   0  0  0  0  0  0  0  0  0  0  0  0
   -0.2459   62.6940   86.7045 C   0  0  0  0  0  0  0  0  0  0  0  0
   -0.2707   62.6448   85.2921 C   0  0  0  0  0  0  0  0  0  0  0  0
   -0.6670   61.5568   84.5678 O   0  0  0  0  0  0  0  0  0  0  0  0
    0.9508   65.9539   84.2564 C   0  0  1  0  0  0  0  0  0  0  0  0
   -0.7866   60.7958   85.1556 H   0  0  0  0  0  0  0  0  0  0  0  0
    0.2013   65.5309   80.5462 C   0  0  0  0  0  0  0  0  0  0  0  0
   -0.3662   66.0871   79.4110 C   0  0  0  0  0  0  0  0  0  0  0  0
   -0.4089   65.0739   78.4206 C   0  0  0  0  0  0  0  0  0  0  0  0
   -0.8539   64.9843   77.0896 C   0  0  0  0  0  0  0  0  0  0  0  0
   -0.7178   63.7616   76.4147 C   0  0  0  0  0  0  0  0  0  0  0  0
   -0.1501   62.6604   77.0563 C   0  0  0  0  0  0  0  0  0  0  0  0
   -0.0132   61.4655   76.4077 O   0  0  0  0  0  0  0  0  0  0  0  0
    0.3005   62.7222   78.3740 C   0  0  0  0  0  0  0  0  0  0  0  0
    0.1500   63.9492   79.0129 C   0  0  0  0  0  0  0  0  0  0  0  0
    0.5232   64.2246   80.2913 O   0  0  0  0  0  0  0  0  0  0  0  0
   -0.3526   61.5586   75.5024 H   0  0  0  0  0  0  0  0  0  0  0  0
    2.4184   66.3496   84.3416 C   0  0  0  0  0  0  0  0  0  0  0  0
    2.8742   67.6086   83.8770 C   0  0  0  0  0  0  0  0  0  0  0  0
    4.2229   67.9667   83.9596 C   0  0  0  0  0  0  0  0  0  0  0  0
    5.0966   67.0621   84.5214 C   0  0  0  0  0  0  0  0  0  0  0  0
    4.6746   65.8268   84.9834 C   0  0  0  0  0  0  0  0  0  0  0  0
    3.3454   65.4494   84.8990 C   0  0  0  0  0  0  0  0  0  0  0  0
    5.8447   65.0614   85.4655 C   0  0  0  0  0  0  0  0  0  0  0  0
    6.8603   66.2020   85.5446 C   0  0  0  0  0  0  0  0  0  0  0  0
    6.4433   67.2735   84.6656 O   0  0  0  0  0  0  0  0  0  0  0  0
  1  2  2  0
  2 18  1  0
 18 19  2  0
 19 20  1  0
 20 21  1  0
 21 22  2  0
 22 23  1  0
 23 24  1  0
 23 25  2  0
 25 26  1  0
 26 27  1  0
  2  3  1  0
  3  4  1  0
  4  5  1  0
  5  6  1  0
  6  7  2  0
  7  8  1  0
  8  9  2  0
  9 10  1  0
 10 11  2  0
 11 12  1  0
 12 13  2  0
 13 14  1  0
 14 15  1  0
  6 16  1  0
 16 29  1  6
 29 30  1  0
 30 31  2  0
 31 32  1  0
 32 33  2  0
 33 34  1  0
 33 35  1  0
 35 36  1  0
 36 37  1  0
 27 18  1  0
 16  3  1  0
 34 29  2  0
 26 20  2  0
 14  5  2  0
 37 32  1  0
 13  8  1  0
 24 28  1  0
 15 17  1  0
M  END
>  <minimizedAffinity>  (1) 
-12.38122

$$$$
