
     RDKit          3D

 38 41  0  0  0  0  0  0  0  0999 V2000
   -1.8154    0.4059   -3.6975 C   0  0  0  0  0  0  0  0  0  0  0  0
   -1.8019    0.4450   -2.2510 N   0  0  0  0  0  0  0  0  0  0  0  0
   -2.8705   -0.1064   -1.5881 N   0  0  0  0  0  0  0  0  0  0  0  0
   -2.6068   -0.1351   -0.3131 C   0  0  0  0  0  0  0  0  0  0  0  0
   -3.5627   -0.6621    0.6952 C   0  0  0  0  0  0  0  0  0  0  0  0
   -3.2770   -0.7103    2.0679 C   0  0  0  0  0  0  0  0  0  0  0  0
   -4.2189   -1.2187    2.9705 C   0  0  0  0  0  0  0  0  0  0  0  0
   -5.4489   -1.6809    2.5080 C   0  0  0  0  0  0  0  0  0  0  0  0
   -6.6023   -2.3044    3.6205 Cl  0  0  0  0  0  0  0  0  0  0  0  0
   -5.7479   -1.6401    1.1491 C   0  0  0  0  0  0  0  0  0  0  0  0
   -4.8081   -1.1326    0.2462 C   0  0  0  0  0  0  0  0  0  0  0  0
   -1.0328    0.4833    0.1726 S   0  0  0  0  0  0  0  0  0  0  0  0
   -0.6767    0.7767   -1.5281 C   0  0  0  0  0  0  0  0  0  0  0  0
    0.4430    1.2182   -2.0119 N   0  0  0  0  0  0  0  0  0  0  0  0
    1.5166    1.5143   -1.1638 C   0  0  0  0  0  0  0  0  0  0  0  0
    1.6863    2.8109   -0.6735 C   0  0  0  0  0  0  0  0  0  0  0  0
    2.7679    3.1174    0.1508 C   0  0  0  0  0  0  0  0  0  0  0  0
    3.6947    2.1260    0.4784 C   0  0  0  0  0  0  0  0  0  0  0  0
    3.5539    0.8221   -0.0206 C   0  0  0  0  0  0  0  0  0  0  0  0
    4.5337   -0.2043    0.3214 C   0  0  0  0  0  0  0  0  0  0  0  0
    4.4674   -1.4809   -0.1084 N   0  0  0  0  0  0  0  0  0  0  0  0
    5.5950   -2.0781    0.4613 O   0  0  0  0  0  0  0  0  0  0  0  0
    6.2067   -1.0997    1.1664 C   0  0  0  0  0  0  0  0  0  0  0  0
    7.3100   -1.4228    1.8044 O   0  0  0  0  0  0  0  0  0  0  0  0
    5.6215    0.0617    1.1302 N   0  0  0  0  0  0  0  0  0  0  0  0
    2.4605    0.5310   -0.8501 C   0  0  0  0  0  0  0  0  0  0  0  0
   -2.8409    0.3636   -4.0801 H   0  0  0  0  0  0  0  0  0  0  0  0
   -1.3441    1.3002   -4.1183 H   0  0  0  0  0  0  0  0  0  0  0  0
   -1.2777   -0.4766   -4.0584 H   0  0  0  0  0  0  0  0  0  0  0  0
   -2.3289   -0.3598    2.4671 H   0  0  0  0  0  0  0  0  0  0  0  0
   -3.9842   -1.2502    4.0318 H   0  0  0  0  0  0  0  0  0  0  0  0
   -6.7065   -1.9997    0.7838 H   0  0  0  0  0  0  0  0  0  0  0  0
   -5.0596   -1.1082   -0.8130 H   0  0  0  0  0  0  0  0  0  0  0  0
    0.9696    3.5838   -0.9377 H   0  0  0  0  0  0  0  0  0  0  0  0
    2.8916    4.1268    0.5341 H   0  0  0  0  0  0  0  0  0  0  0  0
    4.5350    2.3804    1.1227 H   0  0  0  0  0  0  0  0  0  0  0  0
    7.4296   -2.3621    1.5934 H   0  0  0  0  0  0  0  0  0  0  0  0
    2.3290   -0.4668   -1.2623 H   0  0  0  0  0  0  0  0  0  0  0  0
  1  2  1  0
  2  3  1  0
  3  4  2  0
  4  5  1  0
  5  6  1  0
  6  7  2  0
  7  8  1  0
  8  9  1  0
  8 10  2  0
 10 11  1  0
  4 12  1  0
 12 13  1  0
 13 14  2  0
 14 15  1  0
 15 16  1  0
 16 17  2  0
 17 18  1  0
 18 19  2  0
 19 20  1  0
 20 21  2  0
 21 22  1  0
 22 23  1  0
 23 24  1  0
 23 25  2  0
 19 26  1  0
 13  2  1  0
 26 15  2  0
 11  5  2  0
 25 20  1  0
  1 27  1  0
  1 28  1  0
  1 29  1  0
  6 30  1  0
  7 31  1  0
 10 32  1  0
 11 33  1  0
 16 34  1  0
 17 35  1  0
 18 36  1  0
 24 37  1  0
 26 38  1  0
M  END
$$$$
