


 38 41  0  0  0  0  0  0  0  0999 V2000
   -0.4892   63.9359   83.3994 C   0  0  0  0  0  0  0  0  0  0  0  0
   -0.6304   63.5140   84.6751 N   0  0  0  0  0  0  0  0  0  0  0  0
    0.1216   64.0659   85.6425 C   0  0  0  0  0  0  0  0  0  0  0  0
    1.0114   65.0398   85.4012 N   0  0  0  0  0  0  0  0  0  0  0  0
    1.1449   65.4495   84.1239 C   0  0  0  0  0  0  0  0  0  0  0  0
    0.4322   64.9190   83.0740 C   0  0  0  0  0  0  0  0  0  0  0  0
   -0.0583   63.6415   86.9376 N   0  0  0  0  0  0  0  0  0  0  0  0
    1.0628   63.7134   87.8598 C   0  0  0  0  0  0  0  0  0  0  0  0
    0.5717   62.9091   89.0581 C   0  0  0  0  0  0  0  0  0  0  0  0
   -0.2273   61.7915   88.4018 C   0  0  0  0  0  0  0  0  0  0  0  0
   -0.9111   62.4772   87.2018 C   0  0  0  0  0  0  0  0  0  0  0  0
   -2.3462   62.9245   87.5214 C   0  0  0  0  0  0  0  0  0  0  0  0
   -3.1350   62.9924   86.3347 O   0  0  0  0  0  0  0  0  0  0  0  0
   -4.0104   63.3218   86.6019 H   0  0  0  0  0  0  0  0  0  0  0  0
    0.5742   65.4424   81.7033 C   0  0  0  0  0  0  0  0  0  0  0  0
    0.5833   64.6630   80.7552 O   0  0  0  0  0  0  0  0  0  0  0  0
    0.6739   66.8099   81.5743 N   0  0  0  0  0  0  0  0  0  0  0  0
    0.5555   67.4123   82.3867 H   0  0  0  0  0  0  0  0  0  0  0  0
    0.6085   67.4834   80.2839 C   0  0  0  0  0  0  0  0  0  0  0  0
   -0.3301   68.6903   80.3695 C   0  0  0  0  0  0  0  0  0  0  0  0
    0.1627   69.7662   81.3518 C   0  0  0  0  0  0  0  0  0  0  0  0
    1.6909   69.8032   81.5262 C   0  0  0  0  0  0  0  0  0  0  0  0
    2.3841   69.3497   80.2397 C   0  0  0  0  0  0  0  0  0  0  0  0
    2.0138   67.9155   79.8338 C   0  0  0  0  0  0  0  0  0  0  0  0
    2.0278   68.9362   82.6243 O   0  0  0  0  0  0  0  0  0  0  0  0
    3.3353   69.1675   83.1394 C   0  0  0  0  0  0  0  0  0  0  0  0
   -1.2150   63.2742   82.3899 N   0  0  0  0  0  0  0  0  0  0  0  0
   -2.0743   63.7974   82.1942 H   0  0  0  0  0  0  0  0  0  0  0  0
   -1.4639   61.8642   82.6350 C   0  0  0  0  0  0  0  0  0  0  0  0
   -2.3005   59.9589   78.8273 C   0  0  0  0  0  0  0  0  0  0  0  0
   -3.1049   59.7025   79.9426 C   0  0  0  0  0  0  0  0  0  0  0  0
   -2.8324   60.3127   81.1732 C   0  0  0  0  0  0  0  0  0  0  0  0
   -1.7458   61.1845   81.3150 C   0  0  0  0  0  0  0  0  0  0  0  0
   -0.9467   61.4528   80.1961 C   0  0  0  0  0  0  0  0  0  0  0  0
   -1.2184   60.8427   78.9675 C   0  0  0  0  0  0  0  0  0  0  0  0
   -0.1810   61.2163   77.6335 Cl  0  0  0  0  0  0  0  0  0  0  0  0
   -3.3857   60.0618   76.7017 C   0  0  0  0  0  0  0  0  0  0  0  0
   -2.4911   59.4042   77.5882 O   0  0  0  0  0  0  0  0  0  0  0  0
 37 38  1  0  0  0
 38 30  1  0  0  0
 30 31  1  0  0  0
 31 32  2  0  0  0
 32 33  1  0  0  0
 33 29  1  0  0  0
 29 27  1  0  0  0
 27  1  1  0  0  0
  1  2  2  0  0  0
  2  3  1  0  0  0
  3  7  1  0  0  0
  7  8  1  0  0  0
  8  9  1  0  0  0
  9 10  1  0  0  0
 10 11  1  0  0  0
 11 12  1  0  0  0
 12 13  1  0  0  0
  3  4  2  0  0  0
  4  5  1  0  0  0
  5  6  2  0  0  0
  6 15  1  0  0  0
 15 16  2  0  0  0
 15 17  1  0  0  0
 17 19  1  0  0  0
 19 20  1  0  0  0
 20 21  1  0  0  0
 21 22  1  0  0  0
 22 25  1  0  0  0
 25 26  1  0  0  0
 22 23  1  0  0  0
 23 24  1  0  0  0
 33 34  2  0  0  0
 34 35  1  0  0  0
 35 36  1  0  0  0
 35 30  2  0  0  0
  6  1  1  0  0  0
 24 19  1  0  0  0
 11  7  1  0  0  0
 27 28  1  0  0  0
 13 14  1  0  0  0
 17 18  1  0  0  0
M  END
> <minimizedAffinity>
-9.83284

$$$$



 38 41  0  0  0  0  0  0  0  0999 V2000
   -0.0289   64.6773   82.0535 C   0  0  0  0  0  0  0  0  0  0  0  0
   -0.0971   64.6866   83.4028 N   0  0  0  0  0  0  0  0  0  0  0  0
   -0.5209   63.5891   84.0523 C   0  0  0  0  0  0  0  0  0  0  0  0
   -0.8736   62.4623   83.4165 N   0  0  0  0  0  0  0  0  0  0  0  0
   -0.8041   62.4672   82.0702 C   0  0  0  0  0  0  0  0  0  0  0  0
   -0.4055   63.5561   81.3307 C   0  0  0  0  0  0  0  0  0  0  0  0
   -0.5558   63.6108   85.4264 N   0  0  0  0  0  0  0  0  0  0  0  0
    0.6056   64.1034   86.1482 C   0  0  0  0  0  0  0  0  0  0  0  0
    0.3065   63.7053   87.5891 C   0  0  0  0  0  0  0  0  0  0  0  0
   -0.3806   62.3566   87.4242 C   0  0  0  0  0  0  0  0  0  0  0  0
   -1.2280   62.5237   86.1468 C   0  0  0  0  0  0  0  0  0  0  0  0
   -2.6847   62.9042   86.4548 C   0  0  0  0  0  0  0  0  0  0  0  0
   -3.0017   62.6428   87.8210 O   0  0  0  0  0  0  0  0  0  0  0  0
   -3.9424   62.8627   87.9345 H   0  0  0  0  0  0  0  0  0  0  0  0
   -0.2919   63.4911   79.8624 C   0  0  0  0  0  0  0  0  0  0  0  0
    0.6794   63.9956   79.3070 O   0  0  0  0  0  0  0  0  0  0  0  0
   -1.3036   62.8364   79.1956 N   0  0  0  0  0  0  0  0  0  0  0  0
   -2.0295   62.3477   79.7163 H   0  0  0  0  0  0  0  0  0  0  0  0
   -1.2265   62.5103   77.7776 C   0  0  0  0  0  0  0  0  0  0  0  0
   -0.6068   61.1224   77.5919 C   0  0  0  0  0  0  0  0  0  0  0  0
   -1.4549   59.9981   78.2099 C   0  0  0  0  0  0  0  0  0  0  0  0
   -2.9607   60.3085   78.2683 C   0  0  0  0  0  0  0  0  0  0  0  0
   -3.3595   61.2277   77.1119 C   0  0  0  0  0  0  0  0  0  0  0  0
   -2.6228   62.5751   77.1368 C   0  0  0  0  0  0  0  0  0  0  0  0
   -3.2308   60.9322   79.5368 O   0  0  0  0  0  0  0  0  0  0  0  0
   -3.2106   60.0157   80.6268 C   0  0  0  0  0  0  0  0  0  0  0  0
    0.3220   65.8700   81.3915 N   0  0  0  0  0  0  0  0  0  0  0  0
    0.0845   65.7866   80.3980 H   0  0  0  0  0  0  0  0  0  0  0  0
    1.6896   66.3114   81.6031 C   0  0  0  0  0  0  0  0  0  0  0  0
    1.6691   70.5005   82.7343 C   0  0  0  0  0  0  0  0  0  0  0  0
    2.6029   69.6189   83.2888 C   0  0  0  0  0  0  0  0  0  0  0  0
    2.6068   68.2657   82.9285 C   0  0  0  0  0  0  0  0  0  0  0  0
    1.6722   67.7659   82.0132 C   0  0  0  0  0  0  0  0  0  0  0  0
    0.7445   68.6496   81.4469 C   0  0  0  0  0  0  0  0  0  0  0  0
    0.7402   70.0007   81.8075 C   0  0  0  0  0  0  0  0  0  0  0  0
   -0.4421   71.0288   81.0724 Cl  0  0  0  0  0  0  0  0  0  0  0  0
    2.7637   72.6199   82.8629 C   0  0  0  0  0  0  0  0  0  0  0  0
    1.5905   71.8365   83.0316 O   0  0  0  0  0  0  0  0  0  0  0  0
 37 38  1  0  0  0
 38 30  1  0  0  0
 30 31  1  0  0  0
 31 32  2  0  0  0
 32 33  1  0  0  0
 33 29  1  0  0  0
 29 27  1  0  0  0
 27  1  1  0  0  0
  1  2  2  0  0  0
  2  3  1  0  0  0
  3  7  1  0  0  0
  7  8  1  0  0  0
  8  9  1  0  0  0
  9 10  1  0  0  0
 10 11  1  0  0  0
 11 12  1  0  0  0
 12 13  1  0  0  0
  3  4  2  0  0  0
  4  5  1  0  0  0
  5  6  2  0  0  0
  6 15  1  0  0  0
 15 16  2  0  0  0
 15 17  1  0  0  0
 17 19  1  0  0  0
 19 20  1  0  0  0
 20 21  1  0  0  0
 21 22  1  0  0  0
 22 25  1  0  0  0
 25 26  1  0  0  0
 22 23  1  0  0  0
 23 24  1  0  0  0
 33 34  2  0  0  0
 34 35  1  0  0  0
 35 36  1  0  0  0
 35 30  2  0  0  0
  6  1  1  0  0  0
 24 19  1  0  0  0
 11  7  1  0  0  0
 27 28  1  0  0  0
 13 14  1  0  0  0
 17 18  1  0  0  0
M  END
> <minimizedAffinity>
-9.83274

$$$$



 38 41  0  0  0  0  0  0  0  0999 V2000
    0.4477   64.6540   83.3095 C   0  0  0  0  0  0  0  0  0  0  0  0
    0.3421   64.3983   84.6320 N   0  0  0  0  0  0  0  0  0  0  0  0
   -0.6547   63.6150   85.0778 C   0  0  0  0  0  0  0  0  0  0  0  0
   -1.5574   63.0554   84.2590 N   0  0  0  0  0  0  0  0  0  0  0  0
   -1.4429   63.3210   82.9424 C   0  0  0  0  0  0  0  0  0  0  0  0
   -0.4679   64.1317   82.4095 C   0  0  0  0  0  0  0  0  0  0  0  0
   -0.7268   63.3451   86.4238 N   0  0  0  0  0  0  0  0  0  0  0  0
    0.2586   63.9407   87.3108 C   0  0  0  0  0  0  0  0  0  0  0  0
    0.0330   63.1956   88.6216 C   0  0  0  0  0  0  0  0  0  0  0  0
   -0.2941   61.7857   88.1489 C   0  0  0  0  0  0  0  0  0  0  0  0
   -1.1256   62.0051   86.8690 C   0  0  0  0  0  0  0  0  0  0  0  0
   -2.6381   61.9566   87.1365 C   0  0  0  0  0  0  0  0  0  0  0  0
   -3.2023   63.2667   87.1118 O   0  0  0  0  0  0  0  0  0  0  0  0
   -4.1448   63.1671   87.3307 H   0  0  0  0  0  0  0  0  0  0  0  0
   -0.3518   64.3440   80.9554 C   0  0  0  0  0  0  0  0  0  0  0  0
   -0.0834   65.4620   80.5260 O   0  0  0  0  0  0  0  0  0  0  0  0
   -0.5418   63.2392   80.1553 N   0  0  0  0  0  0  0  0  0  0  0  0
   -0.6585   62.3175   80.5720 H   0  0  0  0  0  0  0  0  0  0  0  0
   -0.2550   63.2459   78.7268 C   0  0  0  0  0  0  0  0  0  0  0  0
    0.2520   61.8695   78.2874 C   0  0  0  0  0  0  0  0  0  0  0  0
   -0.7926   60.7564   78.4751 C   0  0  0  0  0  0  0  0  0  0  0  0
   -2.2496   61.2440   78.3950 C   0  0  0  0  0  0  0  0  0  0  0  0
   -2.3554   62.4529   77.4630 C   0  0  0  0  0  0  0  0  0  0  0  0
   -1.5086   63.6455   77.9311 C   0  0  0  0  0  0  0  0  0  0  0  0
   -2.6717   61.5847   79.7280 O   0  0  0  0  0  0  0  0  0  0  0  0
   -4.0879   61.6278   79.8729 C   0  0  0  0  0  0  0  0  0  0  0  0
    1.4389   65.5568   82.8780 N   0  0  0  0  0  0  0  0  0  0  0  0
    2.3253   65.0551   82.7635 H   0  0  0  0  0  0  0  0  0  0  0  0
    1.5761   66.7538   83.6896 C   0  0  0  0  0  0  0  0  0  0  0  0
    5.6604   67.0586   85.1225 C   0  0  0  0  0  0  0  0  0  0  0  0
    5.1294   68.0366   84.2750 C   0  0  0  0  0  0  0  0  0  0  0  0
    3.8132   67.9362   83.8077 C   0  0  0  0  0  0  0  0  0  0  0  0
    3.0049   66.8522   84.1718 C   0  0  0  0  0  0  0  0  0  0  0  0
    3.5305   65.8784   85.0308 C   0  0  0  0  0  0  0  0  0  0  0  0
    4.8452   65.9784   85.4967 C   0  0  0  0  0  0  0  0  0  0  0  0
    5.4266   64.7317   86.5470 Cl  0  0  0  0  0  0  0  0  0  0  0  0
    7.9785   66.5864   84.7903 C   0  0  0  0  0  0  0  0  0  0  0  0
    6.9364   67.0748   85.6234 O   0  0  0  0  0  0  0  0  0  0  0  0
 37 38  1  0  0  0
 38 30  1  0  0  0
 30 31  1  0  0  0
 31 32  2  0  0  0
 32 33  1  0  0  0
 33 29  1  0  0  0
 29 27  1  0  0  0
 27  1  1  0  0  0
  1  2  2  0  0  0
  2  3  1  0  0  0
  3  7  1  0  0  0
  7  8  1  0  0  0
  8  9  1  0  0  0
  9 10  1  0  0  0
 10 11  1  0  0  0
 11 12  1  0  0  0
 12 13  1  0  0  0
  3  4  2  0  0  0
  4  5  1  0  0  0
  5  6  2  0  0  0
  6 15  1  0  0  0
 15 16  2  0  0  0
 15 17  1  0  0  0
 17 19  1  0  0  0
 19 20  1  0  0  0
 20 21  1  0  0  0
 21 22  1  0  0  0
 22 25  1  0  0  0
 25 26  1  0  0  0
 22 23  1  0  0  0
 23 24  1  0  0  0
 33 34  2  0  0  0
 34 35  1  0  0  0
 35 36  1  0  0  0
 35 30  2  0  0  0
  6  1  1  0  0  0
 24 19  1  0  0  0
 11  7  1  0  0  0
 27 28  1  0  0  0
 13 14  1  0  0  0
 17 18  1  0  0  0
M  END
> <minimizedAffinity>
-9.82075

$$$$



 38 41  0  0  0  0  0  0  0  0999 V2000
    1.0035   64.8622   83.7830 C   0  0  0  0  0  0  0  0  0  0  0  0
    0.0379   64.0805   84.3139 N   0  0  0  0  0  0  0  0  0  0  0  0
    0.0507   63.8142   85.6310 C   0  0  0  0  0  0  0  0  0  0  0  0
    0.9838   64.3047   86.4600 N   0  0  0  0  0  0  0  0  0  0  0  0
    1.9433   65.0806   85.9173 C   0  0  0  0  0  0  0  0  0  0  0  0
    2.0154   65.3795   84.5767 C   0  0  0  0  0  0  0  0  0  0  0  0
   -0.9571   63.0398   86.1549 N   0  0  0  0  0  0  0  0  0  0  0  0
   -1.9305   62.4519   85.2498 C   0  0  0  0  0  0  0  0  0  0  0  0
   -3.0094   61.9369   86.1959 C   0  0  0  0  0  0  0  0  0  0  0  0
   -3.0381   63.0066   87.2790 C   0  0  0  0  0  0  0  0  0  0  0  0
   -1.5597   63.4148   87.4391 C   0  0  0  0  0  0  0  0  0  0  0  0
   -0.8680   62.6729   88.5935 C   0  0  0  0  0  0  0  0  0  0  0  0
   -0.0834   63.5696   89.3781 O   0  0  0  0  0  0  0  0  0  0  0  0
    0.3575   63.0309   90.0574 H   0  0  0  0  0  0  0  0  0  0  0  0
    3.0528   66.2802   84.0424 C   0  0  0  0  0  0  0  0  0  0  0  0
    2.7294   67.2070   83.3057 O   0  0  0  0  0  0  0  0  0  0  0  0
    4.3493   66.0233   84.4295 N   0  0  0  0  0  0  0  0  0  0  0  0
    4.5449   65.3052   85.1246 H   0  0  0  0  0  0  0  0  0  0  0  0
    5.4467   66.9419   84.1561 C   0  0  0  0  0  0  0  0  0  0  0  0
    5.5312   68.0006   85.2592 C   0  0  0  0  0  0  0  0  0  0  0  0
    5.8501   67.4048   86.6408 C   0  0  0  0  0  0  0  0  0  0  0  0
    6.6584   66.0967   86.5879 C   0  0  0  0  0  0  0  0  0  0  0  0
    7.5592   66.0777   85.3512 C   0  0  0  0  0  0  0  0  0  0  0  0
    6.7721   66.1717   84.0359 C   0  0  0  0  0  0  0  0  0  0  0  0
    5.7224   65.0040   86.5584 O   0  0  0  0  0  0  0  0  0  0  0  0
    4.9377   64.9068   87.7430 C   0  0  0  0  0  0  0  0  0  0  0  0
    1.0262   65.0450   82.3866 N   0  0  0  0  0  0  0  0  0  0  0  0
    1.4933   65.9312   82.1701 H   0  0  0  0  0  0  0  0  0  0  0  0
   -0.2626   64.9182   81.7287 C   0  0  0  0  0  0  0  0  0  0  0  0
    0.2096   62.6585   78.0546 C   0  0  0  0  0  0  0  0  0  0  0  0
    0.5754   62.1010   79.2843 C   0  0  0  0  0  0  0  0  0  0  0  0
    0.4285   62.8315   80.4698 C   0  0  0  0  0  0  0  0  0  0  0  0
   -0.0792   64.1363   80.4485 C   0  0  0  0  0  0  0  0  0  0  0  0
   -0.4584   64.6919   79.2196 C   0  0  0  0  0  0  0  0  0  0  0  0
   -0.3108   63.9625   78.0357 C   0  0  0  0  0  0  0  0  0  0  0  0
   -0.7924   64.7194   76.5557 Cl  0  0  0  0  0  0  0  0  0  0  0  0
   -0.6181   60.9948   76.5533 C   0  0  0  0  0  0  0  0  0  0  0  0
    0.3222   62.0185   76.8475 O   0  0  0  0  0  0  0  0  0  0  0  0
 37 38  1  0  0  0
 38 30  1  0  0  0
 30 31  1  0  0  0
 31 32  2  0  0  0
 32 33  1  0  0  0
 33 29  1  0  0  0
 29 27  1  0  0  0
 27  1  1  0  0  0
  1  2  2  0  0  0
  2  3  1  0  0  0
  3  7  1  0  0  0
  7  8  1  0  0  0
  8  9  1  0  0  0
  9 10  1  0  0  0
 10 11  1  0  0  0
 11 12  1  0  0  0
 12 13  1  0  0  0
  3  4  2  0  0  0
  4  5  1  0  0  0
  5  6  2  0  0  0
  6 15  1  0  0  0
 15 16  2  0  0  0
 15 17  1  0  0  0
 17 19  1  0  0  0
 19 20  1  0  0  0
 20 21  1  0  0  0
 21 22  1  0  0  0
 22 25  1  0  0  0
 25 26  1  0  0  0
 22 23  1  0  0  0
 23 24  1  0  0  0
 33 34  2  0  0  0
 34 35  1  0  0  0
 35 36  1  0  0  0
 35 30  2  0  0  0
  6  1  1  0  0  0
 24 19  1  0  0  0
 11  7  1  0  0  0
 27 28  1  0  0  0
 13 14  1  0  0  0
 17 18  1  0  0  0
M  END
> <minimizedAffinity>
-9.80716

$$$$



 38 41  0  0  0  0  0  0  0  0999 V2000
    0.6017   65.2544   81.2605 C   0  0  0  0  0  0  0  0  0  0  0  0
   -0.0302   64.4672   80.3625 N   0  0  0  0  0  0  0  0  0  0  0  0
    0.1975   64.6448   79.0500 C   0  0  0  0  0  0  0  0  0  0  0  0
    1.0448   65.5725   78.5810 N   0  0  0  0  0  0  0  0  0  0  0  0
    1.6663   66.3534   79.4872 C   0  0  0  0  0  0  0  0  0  0  0  0
    1.4689   66.2524   80.8446 C   0  0  0  0  0  0  0  0  0  0  0  0
   -0.4343   63.8144   78.1550 N   0  0  0  0  0  0  0  0  0  0  0  0
   -1.0449   64.3961   76.9712 C   0  0  0  0  0  0  0  0  0  0  0  0
   -1.8655   63.2416   76.4076 C   0  0  0  0  0  0  0  0  0  0  0  0
   -2.3733   62.5509   77.6660 C   0  0  0  0  0  0  0  0  0  0  0  0
   -1.1948   62.6632   78.6541 C   0  0  0  0  0  0  0  0  0  0  0  0
   -0.3157   61.4028   78.6642 C   0  0  0  0  0  0  0  0  0  0  0  0
    0.6407   61.4570   79.7214 O   0  0  0  0  0  0  0  0  0  0  0  0
    1.1875   60.6564   79.6422 H   0  0  0  0  0  0  0  0  0  0  0  0
    2.2172   67.0927   81.7970 C   0  0  0  0  0  0  0  0  0  0  0  0
    2.6388   66.5993   82.8386 O   0  0  0  0  0  0  0  0  0  0  0  0
    2.4117   68.4075   81.4361 N   0  0  0  0  0  0  0  0  0  0  0  0
    2.1299   68.7339   80.5136 H   0  0  0  0  0  0  0  0  0  0  0  0
    3.3031   69.2985   82.1672 C   0  0  0  0  0  0  0  0  0  0  0  0
    4.0750   70.1872   81.1878 C   0  0  0  0  0  0  0  0  0  0  0  0
    3.1616   71.1214   80.3764 C   0  0  0  0  0  0  0  0  0  0  0  0
    1.8555   71.5012   81.0956 C   0  0  0  0  0  0  0  0  0  0  0  0
    2.0674   71.5152   82.6109 C   0  0  0  0  0  0  0  0  0  0  0  0
    2.5051   70.1521   83.1667 C   0  0  0  0  0  0  0  0  0  0  0  0
    0.8548   70.5355   80.7258 O   0  0  0  0  0  0  0  0  0  0  0  0
   -0.4659   70.9340   81.0802 C   0  0  0  0  0  0  0  0  0  0  0  0
    0.2715   65.1162   82.6228 N   0  0  0  0  0  0  0  0  0  0  0  0
    1.1131   65.2597   83.1900 H   0  0  0  0  0  0  0  0  0  0  0  0
   -0.4294   63.8907   82.9646 C   0  0  0  0  0  0  0  0  0  0  0  0
   -0.4986   63.5010   87.2857 C   0  0  0  0  0  0  0  0  0  0  0  0
    0.4898   64.2650   86.6564 C   0  0  0  0  0  0  0  0  0  0  0  0
    0.5161   64.3869   85.2617 C   0  0  0  0  0  0  0  0  0  0  0  0
   -0.4400   63.7408   84.4684 C   0  0  0  0  0  0  0  0  0  0  0  0
   -1.4384   62.9858   85.0972 C   0  0  0  0  0  0  0  0  0  0  0  0
   -1.4641   62.8635   86.4900 C   0  0  0  0  0  0  0  0  0  0  0  0
   -2.7228   61.9064   87.1934 Cl  0  0  0  0  0  0  0  0  0  0  0  0
    0.2587   62.3661   89.2466 C   0  0  0  0  0  0  0  0  0  0  0  0
   -0.5981   63.3245   88.6415 O   0  0  0  0  0  0  0  0  0  0  0  0
 37 38  1  0  0  0
 38 30  1  0  0  0
 30 31  1  0  0  0
 31 32  2  0  0  0
 32 33  1  0  0  0
 33 29  1  0  0  0
 29 27  1  0  0  0
 27  1  1  0  0  0
  1  2  2  0  0  0
  2  3  1  0  0  0
  3  7  1  0  0  0
  7  8  1  0  0  0
  8  9  1  0  0  0
  9 10  1  0  0  0
 10 11  1  0  0  0
 11 12  1  0  0  0
 12 13  1  0  0  0
  3  4  2  0  0  0
  4  5  1  0  0  0
  5  6  2  0  0  0
  6 15  1  0  0  0
 15 16  2  0  0  0
 15 17  1  0  0  0
 17 19  1  0  0  0
 19 20  1  0  0  0
 20 21  1  0  0  0
 21 22  1  0  0  0
 22 25  1  0  0  0
 25 26  1  0  0  0
 22 23  1  0  0  0
 23 24  1  0  0  0
 33 34  2  0  0  0
 34 35  1  0  0  0
 35 36  1  0  0  0
 35 30  2  0  0  0
  6  1  1  0  0  0
 24 19  1  0  0  0
 11  7  1  0  0  0
 27 28  1  0  0  0
 13 14  1  0  0  0
 17 18  1  0  0  0
M  END
> <minimizedAffinity>
-9.77900

$$$$



 38 41  0  0  0  0  0  0  0  0999 V2000
    0.3003   64.3163   82.6020 C   0  0  0  0  0  0  0  0  0  0  0  0
   -0.0297   63.5922   83.6938 N   0  0  0  0  0  0  0  0  0  0  0  0
    0.2024   64.0960   84.9178 C   0  0  0  0  0  0  0  0  0  0  0  0
    0.7435   65.3077   85.1116 N   0  0  0  0  0  0  0  0  0  0  0  0
    1.0712   66.0186   84.0141 C   0  0  0  0  0  0  0  0  0  0  0  0
    0.8895   65.5645   82.7286 C   0  0  0  0  0  0  0  0  0  0  0  0
   -0.1670   63.3545   86.0148 N   0  0  0  0  0  0  0  0  0  0  0  0
   -1.3554   62.5221   85.9290 C   0  0  0  0  0  0  0  0  0  0  0  0
   -1.5890   62.1096   87.3779 C   0  0  0  0  0  0  0  0  0  0  0  0
   -1.1910   63.3619   88.1471 C   0  0  0  0  0  0  0  0  0  0  0  0
    0.0115   63.9177   87.3579 C   0  0  0  0  0  0  0  0  0  0  0  0
    1.3580   63.4742   87.9511 C   0  0  0  0  0  0  0  0  0  0  0  0
    2.4152   64.3222   87.5056 O   0  0  0  0  0  0  0  0  0  0  0  0
    3.2371   63.9609   87.8798 H   0  0  0  0  0  0  0  0  0  0  0  0
    1.2119   66.4051   81.5613 C   0  0  0  0  0  0  0  0  0  0  0  0
    1.8444   65.9252   80.6254 O   0  0  0  0  0  0  0  0  0  0  0  0
    0.7552   67.7040   81.5937 N   0  0  0  0  0  0  0  0  0  0  0  0
    0.1470   68.0157   82.3486 H   0  0  0  0  0  0  0  0  0  0  0  0
    0.8125   68.5853   80.4349 C   0  0  0  0  0  0  0  0  0  0  0  0
   -0.0283   69.8398   80.6883 C   0  0  0  0  0  0  0  0  0  0  0  0
    0.4980   70.6898   81.8571 C   0  0  0  0  0  0  0  0  0  0  0  0
    2.0129   70.5614   82.0932 C   0  0  0  0  0  0  0  0  0  0  0  0
    2.7336   70.2679   80.7758 C   0  0  0  0  0  0  0  0  0  0  0  0
    2.2699   68.9595   80.1185 C   0  0  0  0  0  0  0  0  0  0  0  0
    2.2202   69.4979   83.0402 O   0  0  0  0  0  0  0  0  0  0  0  0
    3.5966   69.2081   83.2642 C   0  0  0  0  0  0  0  0  0  0  0  0
    0.1401   63.7269   81.3328 N   0  0  0  0  0  0  0  0  0  0  0  0
    0.8115   64.1437   80.6802 H   0  0  0  0  0  0  0  0  0  0  0  0
   -1.2181   63.7359   80.8175 C   0  0  0  0  0  0  0  0  0  0  0  0
   -1.7483   60.2003   78.3586 C   0  0  0  0  0  0  0  0  0  0  0  0
   -0.9373   61.2538   77.9237 C   0  0  0  0  0  0  0  0  0  0  0  0
   -0.7700   62.3975   78.7141 C   0  0  0  0  0  0  0  0  0  0  0  0
   -1.4165   62.5140   79.9507 C   0  0  0  0  0  0  0  0  0  0  0  0
   -2.2187   61.4547   80.3942 C   0  0  0  0  0  0  0  0  0  0  0  0
   -2.3864   60.3129   79.6043 C   0  0  0  0  0  0  0  0  0  0  0  0
   -3.4002   59.0503   80.2152 Cl  0  0  0  0  0  0  0  0  0  0  0  0
   -1.2992   58.8974   76.4073 C   0  0  0  0  0  0  0  0  0  0  0  0
   -1.9711   59.0480   77.6501 O   0  0  0  0  0  0  0  0  0  0  0  0
 37 38  1  0  0  0
 38 30  1  0  0  0
 30 31  1  0  0  0
 31 32  2  0  0  0
 32 33  1  0  0  0
 33 29  1  0  0  0
 29 27  1  0  0  0
 27  1  1  0  0  0
  1  2  2  0  0  0
  2  3  1  0  0  0
  3  7  1  0  0  0
  7  8  1  0  0  0
  8  9  1  0  0  0
  9 10  1  0  0  0
 10 11  1  0  0  0
 11 12  1  0  0  0
 12 13  1  0  0  0
  3  4  2  0  0  0
  4  5  1  0  0  0
  5  6  2  0  0  0
  6 15  1  0  0  0
 15 16  2  0  0  0
 15 17  1  0  0  0
 17 19  1  0  0  0
 19 20  1  0  0  0
 20 21  1  0  0  0
 21 22  1  0  0  0
 22 25  1  0  0  0
 25 26  1  0  0  0
 22 23  1  0  0  0
 23 24  1  0  0  0
 33 34  2  0  0  0
 34 35  1  0  0  0
 35 36  1  0  0  0
 35 30  2  0  0  0
  6  1  1  0  0  0
 24 19  1  0  0  0
 11  7  1  0  0  0
 27 28  1  0  0  0
 13 14  1  0  0  0
 17 18  1  0  0  0
M  END
> <minimizedAffinity>
-9.56050

$$$$



 38 41  0  0  0  0  0  0  0  0999 V2000
    1.1599   65.3183   83.3899 C   0  0  0  0  0  0  0  0  0  0  0  0
    0.2358   64.3554   83.6005 N   0  0  0  0  0  0  0  0  0  0  0  0
    0.0528   63.8728   84.8412 C   0  0  0  0  0  0  0  0  0  0  0  0
    0.7455   64.3165   85.9004 N   0  0  0  0  0  0  0  0  0  0  0  0
    1.6667   65.2749   85.6762 C   0  0  0  0  0  0  0  0  0  0  0  0
    1.9319   65.8028   84.4342 C   0  0  0  0  0  0  0  0  0  0  0  0
   -0.9122   62.9137   85.0378 N   0  0  0  0  0  0  0  0  0  0  0  0
   -1.8198   62.6001   83.9467 C   0  0  0  0  0  0  0  0  0  0  0  0
   -2.8841   61.7434   84.6230 C   0  0  0  0  0  0  0  0  0  0  0  0
   -3.0136   62.3961   85.9925 C   0  0  0  0  0  0  0  0  0  0  0  0
   -1.5713   62.8127   86.3447 C   0  0  0  0  0  0  0  0  0  0  0  0
   -0.8594   61.7743   87.2259 C   0  0  0  0  0  0  0  0  0  0  0  0
   -0.0838   62.4119   88.2395 O   0  0  0  0  0  0  0  0  0  0  0  0
    0.3706   61.7038   88.7277 H   0  0  0  0  0  0  0  0  0  0  0  0
    2.9097   66.8907   84.2518 C   0  0  0  0  0  0  0  0  0  0  0  0
    2.5127   68.0353   84.0550 O   0  0  0  0  0  0  0  0  0  0  0  0
    4.2397   66.5424   84.3326 N   0  0  0  0  0  0  0  0  0  0  0  0
    4.5075   65.5974   84.6013 H   0  0  0  0  0  0  0  0  0  0  0  0
    5.3085   67.5314   84.3824 C   0  0  0  0  0  0  0  0  0  0  0  0
    5.3167   68.2260   85.7471 C   0  0  0  0  0  0  0  0  0  0  0  0
    5.6148   67.2638   86.9093 C   0  0  0  0  0  0  0  0  0  0  0  0
    6.4749   66.0508   86.5140 C   0  0  0  0  0  0  0  0  0  0  0  0
    7.4143   66.4173   85.3633 C   0  0  0  0  0  0  0  0  0  0  0  0
    6.6661   66.8670   84.0997 C   0  0  0  0  0  0  0  0  0  0  0  0
    5.5837   64.9878   86.1309 O   0  0  0  0  0  0  0  0  0  0  0  0
    4.7129   64.5811   87.1820 C   0  0  0  0  0  0  0  0  0  0  0  0
    1.4034   65.7364   82.0672 N   0  0  0  0  0  0  0  0  0  0  0  0
    2.3264   66.1792   82.0179 H   0  0  0  0  0  0  0  0  0  0  0  0
    0.3588   66.5569   81.4793 C   0  0  0  0  0  0  0  0  0  0  0  0
    1.9565   70.4911   80.5864 C   0  0  0  0  0  0  0  0  0  0  0  0
    2.7037   69.3411   80.3113 C   0  0  0  0  0  0  0  0  0  0  0  0
    2.1912   68.0713   80.6041 C   0  0  0  0  0  0  0  0  0  0  0  0
    0.9253   67.9267   81.1852 C   0  0  0  0  0  0  0  0  0  0  0  0
    0.1699   69.0765   81.4495 C   0  0  0  0  0  0  0  0  0  0  0  0
    0.6823   70.3445   81.1578 C   0  0  0  0  0  0  0  0  0  0  0  0
   -0.3060   71.7179   81.5215 Cl  0  0  0  0  0  0  0  0  0  0  0  0
    3.2888   72.3566   81.2585 C   0  0  0  0  0  0  0  0  0  0  0  0
    2.3802   71.7708   80.3366 O   0  0  0  0  0  0  0  0  0  0  0  0
 37 38  1  0  0  0
 38 30  1  0  0  0
 30 31  1  0  0  0
 31 32  2  0  0  0
 32 33  1  0  0  0
 33 29  1  0  0  0
 29 27  1  0  0  0
 27  1  1  0  0  0
  1  2  2  0  0  0
  2  3  1  0  0  0
  3  7  1  0  0  0
  7  8  1  0  0  0
  8  9  1  0  0  0
  9 10  1  0  0  0
 10 11  1  0  0  0
 11 12  1  0  0  0
 12 13  1  0  0  0
  3  4  2  0  0  0
  4  5  1  0  0  0
  5  6  2  0  0  0
  6 15  1  0  0  0
 15 16  2  0  0  0
 15 17  1  0  0  0
 17 19  1  0  0  0
 19 20  1  0  0  0
 20 21  1  0  0  0
 21 22  1  0  0  0
 22 25  1  0  0  0
 25 26  1  0  0  0
 22 23  1  0  0  0
 23 24  1  0  0  0
 33 34  2  0  0  0
 34 35  1  0  0  0
 35 36  1  0  0  0
 35 30  2  0  0  0
  6  1  1  0  0  0
 24 19  1  0  0  0
 11  7  1  0  0  0
 27 28  1  0  0  0
 13 14  1  0  0  0
 17 18  1  0  0  0
M  END
> <minimizedAffinity>
-9.45452

$$$$



 38 41  0  0  0  0  0  0  0  0999 V2000
    1.3644   65.9050   82.8033 C   0  0  0  0  0  0  0  0  0  0  0  0
    0.3122   65.0590   82.8524 N   0  0  0  0  0  0  0  0  0  0  0  0
   -0.0154   64.4762   84.0182 C   0  0  0  0  0  0  0  0  0  0  0  0
    0.6548   64.7067   85.1566 N   0  0  0  0  0  0  0  0  0  0  0  0
    1.7045   65.5502   85.0934 C   0  0  0  0  0  0  0  0  0  0  0  0
    2.1193   66.1667   83.9360 C   0  0  0  0  0  0  0  0  0  0  0  0
   -1.1067   63.6409   84.0516 N   0  0  0  0  0  0  0  0  0  0  0  0
   -1.4260   62.9560   85.2932 C   0  0  0  0  0  0  0  0  0  0  0  0
   -2.4767   61.9391   84.8620 C   0  0  0  0  0  0  0  0  0  0  0  0
   -1.9853   61.5195   83.4833 C   0  0  0  0  0  0  0  0  0  0  0  0
   -1.4215   62.8203   82.8768 C   0  0  0  0  0  0  0  0  0  0  0  0
   -2.4406   63.5383   81.9781 C   0  0  0  0  0  0  0  0  0  0  0  0
   -3.2084   62.5994   81.2270 O   0  0  0  0  0  0  0  0  0  0  0  0
   -3.7968   63.1186   80.6524 H   0  0  0  0  0  0  0  0  0  0  0  0
    3.2388   67.1256   83.9320 C   0  0  0  0  0  0  0  0  0  0  0  0
    3.0228   68.3079   83.6833 O   0  0  0  0  0  0  0  0  0  0  0  0
    4.4839   66.6189   84.2315 N   0  0  0  0  0  0  0  0  0  0  0  0
    4.5858   65.6511   84.5314 H   0  0  0  0  0  0  0  0  0  0  0  0
    5.6414   67.4709   84.4707 C   0  0  0  0  0  0  0  0  0  0  0  0
    5.5351   68.1241   85.8516 C   0  0  0  0  0  0  0  0  0  0  0  0
    5.5519   67.1033   87.0019 C   0  0  0  0  0  0  0  0  0  0  0  0
    6.3141   65.8066   86.6783 C   0  0  0  0  0  0  0  0  0  0  0  0
    7.4438   66.0874   85.6852 C   0  0  0  0  0  0  0  0  0  0  0  0
    6.9398   66.6561   84.3505 C   0  0  0  0  0  0  0  0  0  0  0  0
    5.3702   64.8684   86.1308 O   0  0  0  0  0  0  0  0  0  0  0  0
    4.3261   64.5304   87.0385 C   0  0  0  0  0  0  0  0  0  0  0  0
    1.7492   66.4249   81.5521 N   0  0  0  0  0  0  0  0  0  0  0  0
    2.6109   66.9685   81.6633 H   0  0  0  0  0  0  0  0  0  0  0  0
    0.7134   67.1593   80.8464 C   0  0  0  0  0  0  0  0  0  0  0  0
    1.8219   71.3543   80.8097 C   0  0  0  0  0  0  0  0  0  0  0  0
    0.5462   70.9596   81.2261 C   0  0  0  0  0  0  0  0  0  0  0  0
    0.1857   69.6065   81.2330 C   0  0  0  0  0  0  0  0  0  0  0  0
    1.0905   68.6224   80.8162 C   0  0  0  0  0  0  0  0  0  0  0  0
    2.3731   69.0143   80.4113 C   0  0  0  0  0  0  0  0  0  0  0  0
    2.7326   70.3656   80.4036 C   0  0  0  0  0  0  0  0  0  0  0  0
    4.3316   70.7727   79.8813 Cl  0  0  0  0  0  0  0  0  0  0  0  0
    1.3050   73.6589   80.4520 C   0  0  0  0  0  0  0  0  0  0  0  0
    2.2578   72.6533   80.7674 O   0  0  0  0  0  0  0  0  0  0  0  0
 37 38  1  0  0  0
 38 30  1  0  0  0
 30 31  1  0  0  0
 31 32  2  0  0  0
 32 33  1  0  0  0
 33 29  1  0  0  0
 29 27  1  0  0  0
 27  1  1  0  0  0
  1  2  2  0  0  0
  2  3  1  0  0  0
  3  7  1  0  0  0
  7  8  1  0  0  0
  8  9  1  0  0  0
  9 10  1  0  0  0
 10 11  1  0  0  0
 11 12  1  0  0  0
 12 13  1  0  0  0
  3  4  2  0  0  0
  4  5  1  0  0  0
  5  6  2  0  0  0
  6 15  1  0  0  0
 15 16  2  0  0  0
 15 17  1  0  0  0
 17 19  1  0  0  0
 19 20  1  0  0  0
 20 21  1  0  0  0
 21 22  1  0  0  0
 22 25  1  0  0  0
 25 26  1  0  0  0
 22 23  1  0  0  0
 23 24  1  0  0  0
 33 34  2  0  0  0
 34 35  1  0  0  0
 35 36  1  0  0  0
 35 30  2  0  0  0
  6  1  1  0  0  0
 24 19  1  0  0  0
 11  7  1  0  0  0
 27 28  1  0  0  0
 13 14  1  0  0  0
 17 18  1  0  0  0
M  END
> <minimizedAffinity>
-9.22956

$$$$



 38 41  0  0  0  0  0  0  0  0999 V2000
    0.4281   64.2389   81.4923 C   0  0  0  0  0  0  0  0  0  0  0  0
    0.4463   64.1577   82.8408 N   0  0  0  0  0  0  0  0  0  0  0  0
   -0.0567   63.0683   83.4458 C   0  0  0  0  0  0  0  0  0  0  0  0
   -0.5732   62.0351   82.7644 N   0  0  0  0  0  0  0  0  0  0  0  0
   -0.5883   62.1299   81.4198 C   0  0  0  0  0  0  0  0  0  0  0  0
   -0.1169   63.2202   80.7264 C   0  0  0  0  0  0  0  0  0  0  0  0
   -0.0024   62.9940   84.8174 N   0  0  0  0  0  0  0  0  0  0  0  0
   -0.8033   61.9889   85.4961 C   0  0  0  0  0  0  0  0  0  0  0  0
   -0.7052   62.4048   86.9595 C   0  0  0  0  0  0  0  0  0  0  0  0
   -0.7120   63.9249   86.8729 C   0  0  0  0  0  0  0  0  0  0  0  0
    0.1057   64.2295   85.6015 C   0  0  0  0  0  0  0  0  0  0  0  0
    1.5782   64.5410   85.9117 C   0  0  0  0  0  0  0  0  0  0  0  0
    2.0445   65.6352   85.1238 O   0  0  0  0  0  0  0  0  0  0  0  0
    2.9869   65.7484   85.3364 H   0  0  0  0  0  0  0  0  0  0  0  0
   -0.1039   63.2497   79.2527 C   0  0  0  0  0  0  0  0  0  0  0  0
    0.8834   63.6800   78.6641 O   0  0  0  0  0  0  0  0  0  0  0  0
   -1.2254   62.7642   78.6177 N   0  0  0  0  0  0  0  0  0  0  0  0
   -1.9699   62.3242   79.1555 H   0  0  0  0  0  0  0  0  0  0  0  0
   -1.2762   62.5355   77.1796 C   0  0  0  0  0  0  0  0  0  0  0  0
   -0.5997   61.2054   76.8361 C   0  0  0  0  0  0  0  0  0  0  0  0
   -1.3132   59.9912   77.4543 C   0  0  0  0  0  0  0  0  0  0  0  0
   -2.8203   60.1993   77.6831 C   0  0  0  0  0  0  0  0  0  0  0  0
   -3.3886   61.1632   76.6395 C   0  0  0  0  0  0  0  0  0  0  0  0
   -2.7324   62.5509   76.6863 C   0  0  0  0  0  0  0  0  0  0  0  0
   -2.9939   60.7213   79.0128 O   0  0  0  0  0  0  0  0  0  0  0  0
   -3.2671   59.7116   79.9795 C   0  0  0  0  0  0  0  0  0  0  0  0
    0.8686   65.4315   80.8861 N   0  0  0  0  0  0  0  0  0  0  0  0
    1.7239   65.7506   81.3521 H   0  0  0  0  0  0  0  0  0  0  0  0
   -0.1348   66.4769   80.7845 C   0  0  0  0  0  0  0  0  0  0  0  0
    1.5184   70.1768   82.3356 C   0  0  0  0  0  0  0  0  0  0  0  0
    0.5261   70.1996   81.3499 C   0  0  0  0  0  0  0  0  0  0  0  0
   -0.0040   69.0060   80.8448 C   0  0  0  0  0  0  0  0  0  0  0  0
    0.4530   67.7665   81.3092 C   0  0  0  0  0  0  0  0  0  0  0  0
    1.4373   67.7415   82.3056 C   0  0  0  0  0  0  0  0  0  0  0  0
    1.9673   68.9336   82.8093 C   0  0  0  0  0  0  0  0  0  0  0  0
    3.1869   68.8219   84.0322 Cl  0  0  0  0  0  0  0  0  0  0  0  0
    3.1288   71.9311   82.1458 C   0  0  0  0  0  0  0  0  0  0  0  0
    2.0949   71.2936   82.8831 O   0  0  0  0  0  0  0  0  0  0  0  0
 37 38  1  0  0  0
 38 30  1  0  0  0
 30 31  1  0  0  0
 31 32  2  0  0  0
 32 33  1  0  0  0
 33 29  1  0  0  0
 29 27  1  0  0  0
 27  1  1  0  0  0
  1  2  2  0  0  0
  2  3  1  0  0  0
  3  7  1  0  0  0
  7  8  1  0  0  0
  8  9  1  0  0  0
  9 10  1  0  0  0
 10 11  1  0  0  0
 11 12  1  0  0  0
 12 13  1  0  0  0
  3  4  2  0  0  0
  4  5  1  0  0  0
  5  6  2  0  0  0
  6 15  1  0  0  0
 15 16  2  0  0  0
 15 17  1  0  0  0
 17 19  1  0  0  0
 19 20  1  0  0  0
 20 21  1  0  0  0
 21 22  1  0  0  0
 22 25  1  0  0  0
 25 26  1  0  0  0
 22 23  1  0  0  0
 23 24  1  0  0  0
 33 34  2  0  0  0
 34 35  1  0  0  0
 35 36  1  0  0  0
 35 30  2  0  0  0
  6  1  1  0  0  0
 24 19  1  0  0  0
 11  7  1  0  0  0
 27 28  1  0  0  0
 13 14  1  0  0  0
 17 18  1  0  0  0
M  END
> <minimizedAffinity>
-9.03982

$$$$
