


 38 41  0  0  0  0  0  0  0  0999 V2000
   -0.8226   63.3680   84.1370 N   0  0  0  0  0  0  0  0  0  0  0  0
   -1.3010   62.5567   85.1711 C   0  0  0  0  0  0  0  0  0  0  0  0
   -2.1768   61.7080   84.9766 O   0  0  0  0  0  0  0  0  0  0  0  0
   -0.7433   62.7470   86.4535 N   0  0  0  0  0  0  0  0  0  0  0  0
   -1.2505   61.8911   87.5073 C   0  0  0  0  0  0  0  0  0  0  0  0
    0.2298   63.6933   86.7848 C   0  0  0  0  0  0  0  0  0  0  0  0
    0.6971   63.8606   87.9065 O   0  0  0  0  0  0  0  0  0  0  0  0
    0.6335   64.4687   85.6708 C   0  0  0  0  0  0  0  0  0  0  0  0
    1.5332   65.4851   85.5740 N   0  0  0  0  0  0  0  0  0  0  0  0
    1.5374   65.9230   84.2638 C   0  0  0  0  0  0  0  0  0  0  0  0
    0.6875   65.1973   83.5464 N   0  0  0  0  0  0  0  0  0  0  0  0
    0.1357   64.3118   84.4189 C   0  0  0  0  0  0  0  0  0  0  0  0
    2.0945   65.8787   86.3193 H   0  0  0  0  0  0  0  0  0  0  0  0
    2.3527   67.0414   83.7620 C   0  0  0  0  0  0  0  0  0  0  0  0
    1.8222   67.8052   82.7077 C   0  0  0  0  0  0  0  0  0  0  0  0
    2.5240   68.8993   82.2001 C   0  0  0  0  0  0  0  0  0  0  0  0
    3.7664   69.2485   82.7219 C   0  0  0  0  0  0  0  0  0  0  0  0
    4.3123   68.4915   83.7617 C   0  0  0  0  0  0  0  0  0  0  0  0
    3.6194   67.3903   84.2896 C   0  0  0  0  0  0  0  0  0  0  0  0
    1.7977   69.8649   80.9014 S   0  0  0  0  0  0  0  0  0  0  0  0
    1.0300   68.9583   80.0768 O   0  0  0  0  0  0  0  0  0  0  0  0
    2.8276   70.7123   80.3359 O   0  0  0  0  0  0  0  0  0  0  0  0
    0.7193   70.8812   81.7375 N   0  0  0  0  0  0  0  0  0  0  0  0
    1.3403   71.9976   82.5225 C   0  0  0  0  0  0  0  0  0  0  0  0
    1.1311   73.3568   81.8321 C   0  0  0  0  0  0  0  0  0  0  0  0
   -0.2947   73.7293   81.7141 N   0  0  0  0  0  0  0  0  0  0  0  0
   -0.4805   74.7080   80.6453 C   0  0  0  0  0  0  0  0  0  0  0  0
   -1.1524   72.5402   81.5277 C   0  0  0  0  0  0  0  0  0  0  0  0
   -0.4400   71.3281   80.9005 C   0  0  0  0  0  0  0  0  0  0  0  0
    4.0987   66.6154   85.3187 O   0  0  0  0  0  0  0  0  0  0  0  0
    5.2679   65.8303   85.0811 C   0  0  0  0  0  0  0  0  0  0  0  0
    5.5018   64.9670   86.3079 C   0  0  0  0  0  0  0  0  0  0  0  0
   -1.3654   63.2209   82.7906 C   0  0  0  0  0  0  0  0  0  0  0  0
   -0.3408   62.6992   81.7760 C   0  0  0  0  0  0  0  0  0  0  0  0
    0.2529   61.3408   82.1664 C   0  0  0  0  0  0  0  0  0  0  0  0
    1.6212   61.0809   81.5258 C   0  0  0  0  0  0  0  0  0  0  0  0
    3.9383   60.0048   81.7596 C   0  0  0  0  0  0  0  0  0  0  0  0
    2.6059   60.3185   82.4177 C   0  0  0  0  0  0  0  0  0  0  0  0
 37 38  1  0  0  0
 38 36  1  0  0  0
 36 35  1  0  0  0
 35 34  1  0  0  0
 34 33  1  0  0  0
 33  1  1  0  0  0
  1  2  1  0  0  0
  2  3  2  0  0  0
  2  4  1  0  0  0
  4  5  1  0  0  0
  4  6  1  0  0  0
  6  7  2  0  0  0
  6  8  1  0  0  0
  8  9  1  0  0  0
  9 10  1  0  0  0
 10 14  1  0  0  0
 14 15  1  0  0  0
 15 16  2  0  0  0
 16 20  1  0  0  0
 20 21  2  0  0  0
 20 22  2  0  0  0
 20 23  1  0  0  0
 23 24  1  0  0  0
 24 25  1  0  0  0
 25 26  1  0  0  0
 26 27  1  0  0  0
 26 28  1  0  0  0
 28 29  1  0  0  0
 16 17  1  0  0  0
 17 18  2  0  0  0
 18 19  1  0  0  0
 19 30  1  0  0  0
 30 31  1  0  0  0
 31 32  1  0  0  0
 10 11  2  0  0  0
 11 12  1  0  0  0
 12  1  1  0  0  0
 12  8  2  0  0  0
 19 14  2  0  0  0
 29 23  1  0  0  0
  9 13  1  0  0  0
M  END
> <minimizedAffinity>
-10.32541

$$$$



 38 41  0  0  0  0  0  0  0  0999 V2000
   -0.6039   63.1045   84.0105 N   0  0  0  0  0  0  0  0  0  0  0  0
   -1.2470   62.3894   85.0262 C   0  0  0  0  0  0  0  0  0  0  0  0
   -2.0368   61.4741   84.7742 O   0  0  0  0  0  0  0  0  0  0  0  0
   -0.9590   62.7569   86.3581 N   0  0  0  0  0  0  0  0  0  0  0  0
   -1.6326   61.9982   87.3930 C   0  0  0  0  0  0  0  0  0  0  0  0
   -0.1043   63.7904   86.7499 C   0  0  0  0  0  0  0  0  0  0  0  0
    0.1274   64.1114   87.9109 O   0  0  0  0  0  0  0  0  0  0  0  0
    0.4825   64.4563   85.6465 C   0  0  0  0  0  0  0  0  0  0  0  0
    1.3470   65.5062   85.5988 N   0  0  0  0  0  0  0  0  0  0  0  0
    1.5929   65.7917   84.2697 C   0  0  0  0  0  0  0  0  0  0  0  0
    0.9267   64.9403   83.4982 N   0  0  0  0  0  0  0  0  0  0  0  0
    0.2462   64.1289   84.3517 C   0  0  0  0  0  0  0  0  0  0  0  0
    1.7366   66.0144   86.3833 H   0  0  0  0  0  0  0  0  0  0  0  0
    2.4505   66.8916   83.7988 C   0  0  0  0  0  0  0  0  0  0  0  0
    1.9599   67.6899   82.7507 C   0  0  0  0  0  0  0  0  0  0  0  0
    2.7035   68.7693   82.2722 C   0  0  0  0  0  0  0  0  0  0  0  0
    3.9487   69.0695   82.8171 C   0  0  0  0  0  0  0  0  0  0  0  0
    4.4552   68.2779   83.8510 C   0  0  0  0  0  0  0  0  0  0  0  0
    3.7199   67.1906   84.3499 C   0  0  0  0  0  0  0  0  0  0  0  0
    2.0271   69.7798   80.9805 S   0  0  0  0  0  0  0  0  0  0  0  0
    1.3221   68.8979   80.0768 O   0  0  0  0  0  0  0  0  0  0  0  0
    3.0681   70.6699   80.5088 O   0  0  0  0  0  0  0  0  0  0  0  0
    0.8863   70.7380   81.8021 N   0  0  0  0  0  0  0  0  0  0  0  0
    1.4388   71.8755   82.6077 C   0  0  0  0  0  0  0  0  0  0  0  0
    1.1803   73.2291   81.9231 C   0  0  0  0  0  0  0  0  0  0  0  0
   -0.2587   73.5360   81.7791 N   0  0  0  0  0  0  0  0  0  0  0  0
   -0.4686   74.5139   80.7139 C   0  0  0  0  0  0  0  0  0  0  0  0
   -1.0562   72.3100   81.5667 C   0  0  0  0  0  0  0  0  0  0  0  0
   -0.2757   71.1375   80.9451 C   0  0  0  0  0  0  0  0  0  0  0  0
    4.1594   66.3834   85.3719 O   0  0  0  0  0  0  0  0  0  0  0  0
    5.2381   66.8519   86.1825 C   0  0  0  0  0  0  0  0  0  0  0  0
    5.5890   65.7501   87.1664 C   0  0  0  0  0  0  0  0  0  0  0  0
   -0.8661   62.7735   82.6138 C   0  0  0  0  0  0  0  0  0  0  0  0
   -2.0647   63.5273   82.0254 C   0  0  0  0  0  0  0  0  0  0  0  0
   -3.1353   62.5951   81.4466 C   0  0  0  0  0  0  0  0  0  0  0  0
   -2.6468   61.8122   80.2224 C   0  0  0  0  0  0  0  0  0  0  0  0
   -3.1259   62.1853   77.7298 C   0  0  0  0  0  0  0  0  0  0  0  0
   -3.6595   61.7280   79.0763 C   0  0  0  0  0  0  0  0  0  0  0  0
 37 38  1  0  0  0
 38 36  1  0  0  0
 36 35  1  0  0  0
 35 34  1  0  0  0
 34 33  1  0  0  0
 33  1  1  0  0  0
  1  2  1  0  0  0
  2  3  2  0  0  0
  2  4  1  0  0  0
  4  5  1  0  0  0
  4  6  1  0  0  0
  6  7  2  0  0  0
  6  8  1  0  0  0
  8  9  1  0  0  0
  9 10  1  0  0  0
 10 14  1  0  0  0
 14 15  1  0  0  0
 15 16  2  0  0  0
 16 20  1  0  0  0
 20 21  2  0  0  0
 20 22  2  0  0  0
 20 23  1  0  0  0
 23 24  1  0  0  0
 24 25  1  0  0  0
 25 26  1  0  0  0
 26 27  1  0  0  0
 26 28  1  0  0  0
 28 29  1  0  0  0
 16 17  1  0  0  0
 17 18  2  0  0  0
 18 19  1  0  0  0
 19 30  1  0  0  0
 30 31  1  0  0  0
 31 32  1  0  0  0
 10 11  2  0  0  0
 11 12  1  0  0  0
 12  1  1  0  0  0
 12  8  2  0  0  0
 19 14  2  0  0  0
 29 23  1  0  0  0
  9 13  1  0  0  0
M  END
> <minimizedAffinity>
-9.86457

$$$$



 38 41  0  0  0  0  0  0  0  0999 V2000
   -1.9755   62.3596   83.4775 N   0  0  0  0  0  0  0  0  0  0  0  0
   -2.5917   61.1926   83.0140 C   0  0  0  0  0  0  0  0  0  0  0  0
   -3.1782   60.4214   83.7798 O   0  0  0  0  0  0  0  0  0  0  0  0
   -2.5157   60.9268   81.6300 N   0  0  0  0  0  0  0  0  0  0  0  0
   -3.1662   59.7153   81.1726 C   0  0  0  0  0  0  0  0  0  0  0  0
   -1.8568   61.7176   80.6851 C   0  0  0  0  0  0  0  0  0  0  0  0
   -1.7840   61.4693   79.4861 O   0  0  0  0  0  0  0  0  0  0  0  0
   -1.2577   62.8642   81.2607 C   0  0  0  0  0  0  0  0  0  0  0  0
   -0.5261   63.8634   80.6963 N   0  0  0  0  0  0  0  0  0  0  0  0
   -0.1505   64.7327   81.7022 C   0  0  0  0  0  0  0  0  0  0  0  0
   -0.6435   64.3149   82.8624 N   0  0  0  0  0  0  0  0  0  0  0  0
   -1.3168   63.1669   82.5816 C   0  0  0  0  0  0  0  0  0  0  0  0
   -0.2737   63.9611   79.7205 H   0  0  0  0  0  0  0  0  0  0  0  0
    0.6882   65.9258   81.5018 C   0  0  0  0  0  0  0  0  0  0  0  0
    1.3434   66.4515   82.6291 C   0  0  0  0  0  0  0  0  0  0  0  0
    2.1791   67.5627   82.5108 C   0  0  0  0  0  0  0  0  0  0  0  0
    2.3717   68.1767   81.2766 C   0  0  0  0  0  0  0  0  0  0  0  0
    1.7177   67.6733   80.1492 C   0  0  0  0  0  0  0  0  0  0  0  0
    0.8769   66.5530   80.2465 C   0  0  0  0  0  0  0  0  0  0  0  0
    3.0239   68.1656   83.9495 S   0  0  0  0  0  0  0  0  0  0  0  0
    2.1181   68.0174   85.0670 O   0  0  0  0  0  0  0  0  0  0  0  0
    3.6183   69.4457   83.6233 O   0  0  0  0  0  0  0  0  0  0  0  0
    4.3005   67.0564   84.1365 N   0  0  0  0  0  0  0  0  0  0  0  0
    5.6261   67.6371   84.5284 C   0  0  0  0  0  0  0  0  0  0  0  0
    5.9587   67.3398   86.0010 C   0  0  0  0  0  0  0  0  0  0  0  0
    6.0849   65.8940   86.2824 N   0  0  0  0  0  0  0  0  0  0  0  0
    5.8838   65.6307   87.7054 C   0  0  0  0  0  0  0  0  0  0  0  0
    5.1703   65.0955   85.4395 C   0  0  0  0  0  0  0  0  0  0  0  0
    3.9244   65.8549   84.9484 C   0  0  0  0  0  0  0  0  0  0  0  0
    0.2164   66.0053   79.1727 O   0  0  0  0  0  0  0  0  0  0  0  0
    0.9808   65.2677   78.2179 C   0  0  0  0  0  0  0  0  0  0  0  0
    0.0171   64.4087   77.4189 C   0  0  0  0  0  0  0  0  0  0  0  0
   -2.0161   62.6846   84.8995 C   0  0  0  0  0  0  0  0  0  0  0  0
   -0.7500   62.2639   85.6553 C   0  0  0  0  0  0  0  0  0  0  0  0
    0.0783   63.4555   86.1495 C   0  0  0  0  0  0  0  0  0  0  0  0
   -0.4037   63.9990   87.4995 C   0  0  0  0  0  0  0  0  0  0  0  0
    0.3145   62.2285   89.2116 C   0  0  0  0  0  0  0  0  0  0  0  0
   -0.8343   62.9226   88.5006 C   0  0  0  0  0  0  0  0  0  0  0  0
 37 38  1  0  0  0
 38 36  1  0  0  0
 36 35  1  0  0  0
 35 34  1  0  0  0
 34 33  1  0  0  0
 33  1  1  0  0  0
  1  2  1  0  0  0
  2  3  2  0  0  0
  2  4  1  0  0  0
  4  5  1  0  0  0
  4  6  1  0  0  0
  6  7  2  0  0  0
  6  8  1  0  0  0
  8  9  1  0  0  0
  9 10  1  0  0  0
 10 14  1  0  0  0
 14 15  1  0  0  0
 15 16  2  0  0  0
 16 20  1  0  0  0
 20 21  2  0  0  0
 20 22  2  0  0  0
 20 23  1  0  0  0
 23 24  1  0  0  0
 24 25  1  0  0  0
 25 26  1  0  0  0
 26 27  1  0  0  0
 26 28  1  0  0  0
 28 29  1  0  0  0
 16 17  1  0  0  0
 17 18  2  0  0  0
 18 19  1  0  0  0
 19 30  1  0  0  0
 30 31  1  0  0  0
 31 32  1  0  0  0
 10 11  2  0  0  0
 11 12  1  0  0  0
 12  1  1  0  0  0
 12  8  2  0  0  0
 19 14  2  0  0  0
 29 23  1  0  0  0
  9 13  1  0  0  0
M  END
> <minimizedAffinity>
-9.77690

$$$$



 38 41  0  0  0  0  0  0  0  0999 V2000
   -0.5548   61.8491   79.3911 N   0  0  0  0  0  0  0  0  0  0  0  0
   -1.5348   61.0141   78.8441 C   0  0  0  0  0  0  0  0  0  0  0  0
   -1.5169   60.6876   77.6532 O   0  0  0  0  0  0  0  0  0  0  0  0
   -2.5522   60.5577   79.7092 N   0  0  0  0  0  0  0  0  0  0  0  0
   -3.5527   59.6896   79.1214 C   0  0  0  0  0  0  0  0  0  0  0  0
   -2.6786   60.8874   81.0611 C   0  0  0  0  0  0  0  0  0  0  0  0
   -3.5759   60.4970   81.8007 O   0  0  0  0  0  0  0  0  0  0  0  0
   -1.6452   61.7457   81.5087 C   0  0  0  0  0  0  0  0  0  0  0  0
   -1.4154   62.2987   82.7308 N   0  0  0  0  0  0  0  0  0  0  0  0
   -0.2834   63.0845   82.6335 C   0  0  0  0  0  0  0  0  0  0  0  0
    0.2036   63.0174   81.3998 N   0  0  0  0  0  0  0  0  0  0  0  0
   -0.6406   62.1978   80.7174 C   0  0  0  0  0  0  0  0  0  0  0  0
   -1.9722   62.1842   83.5689 H   0  0  0  0  0  0  0  0  0  0  0  0
    0.2719   63.8854   83.7369 C   0  0  0  0  0  0  0  0  0  0  0  0
    1.1029   64.9668   83.3955 C   0  0  0  0  0  0  0  0  0  0  0  0
    1.6413   65.7891   84.3860 C   0  0  0  0  0  0  0  0  0  0  0  0
    1.3733   65.5480   85.7305 C   0  0  0  0  0  0  0  0  0  0  0  0
    0.5592   64.4696   86.0862 C   0  0  0  0  0  0  0  0  0  0  0  0
    0.0037   63.6338   85.1041 C   0  0  0  0  0  0  0  0  0  0  0  0
    2.6464   67.1710   83.9098 S   0  0  0  0  0  0  0  0  0  0  0  0
    2.2928   68.2723   84.7778 O   0  0  0  0  0  0  0  0  0  0  0  0
    2.5900   67.2974   82.4678 O   0  0  0  0  0  0  0  0  0  0  0  0
    4.2188   66.6543   84.3038 N   0  0  0  0  0  0  0  0  0  0  0  0
    5.1243   67.6918   84.8968 C   0  0  0  0  0  0  0  0  0  0  0  0
    5.3273   67.4673   86.4055 C   0  0  0  0  0  0  0  0  0  0  0  0
    5.9825   66.1782   86.7128 N   0  0  0  0  0  0  0  0  0  0  0  0
    5.6970   65.7747   88.0878 C   0  0  0  0  0  0  0  0  0  0  0  0
    5.6025   65.1314   85.7411 C   0  0  0  0  0  0  0  0  0  0  0  0
    4.2435   65.3577   85.0539 C   0  0  0  0  0  0  0  0  0  0  0  0
   -0.8129   62.5661   85.3909 O   0  0  0  0  0  0  0  0  0  0  0  0
   -1.3317   62.4534   86.7169 C   0  0  0  0  0  0  0  0  0  0  0  0
   -2.7829   62.8985   86.6846 C   0  0  0  0  0  0  0  0  0  0  0  0
    0.5193   62.3569   78.5440 C   0  0  0  0  0  0  0  0  0  0  0  0
    0.0288   63.3074   77.4452 C   0  0  0  0  0  0  0  0  0  0  0  0
    0.0380   64.7787   77.8757 C   0  0  0  0  0  0  0  0  0  0  0  0
    1.2666   65.1477   78.7151 C   0  0  0  0  0  0  0  0  0  0  0  0
   -0.3803   66.3708   80.2556 C   0  0  0  0  0  0  0  0  0  0  0  0
    1.0358   66.2868   79.7128 C   0  0  0  0  0  0  0  0  0  0  0  0
 37 38  1  0  0  0
 38 36  1  0  0  0
 36 35  1  0  0  0
 35 34  1  0  0  0
 34 33  1  0  0  0
 33  1  1  0  0  0
  1  2  1  0  0  0
  2  3  2  0  0  0
  2  4  1  0  0  0
  4  5  1  0  0  0
  4  6  1  0  0  0
  6  7  2  0  0  0
  6  8  1  0  0  0
  8  9  1  0  0  0
  9 10  1  0  0  0
 10 14  1  0  0  0
 14 15  1  0  0  0
 15 16  2  0  0  0
 16 20  1  0  0  0
 20 21  2  0  0  0
 20 22  2  0  0  0
 20 23  1  0  0  0
 23 24  1  0  0  0
 24 25  1  0  0  0
 25 26  1  0  0  0
 26 27  1  0  0  0
 26 28  1  0  0  0
 28 29  1  0  0  0
 16 17  1  0  0  0
 17 18  2  0  0  0
 18 19  1  0  0  0
 19 30  1  0  0  0
 30 31  1  0  0  0
 31 32  1  0  0  0
 10 11  2  0  0  0
 11 12  1  0  0  0
 12  1  1  0  0  0
 12  8  2  0  0  0
 19 14  2  0  0  0
 29 23  1  0  0  0
  9 13  1  0  0  0
M  END
> <minimizedAffinity>
-9.67880

$$$$



 38 41  0  0  0  0  0  0  0  0999 V2000
   -0.9579   62.9910   83.9497 N   0  0  0  0  0  0  0  0  0  0  0  0
   -1.7339   62.3017   84.8874 C   0  0  0  0  0  0  0  0  0  0  0  0
   -2.5518   61.4419   84.5453 O   0  0  0  0  0  0  0  0  0  0  0  0
   -1.5474   62.6292   86.2475 N   0  0  0  0  0  0  0  0  0  0  0  0
   -2.3581   61.8980   87.2006 C   0  0  0  0  0  0  0  0  0  0  0  0
   -0.6705   63.6005   86.7372 C   0  0  0  0  0  0  0  0  0  0  0  0
   -0.5270   63.8879   87.9210 O   0  0  0  0  0  0  0  0  0  0  0  0
    0.0546   64.2457   85.7061 C   0  0  0  0  0  0  0  0  0  0  0  0
    0.9824   65.2398   85.7594 N   0  0  0  0  0  0  0  0  0  0  0  0
    1.3661   65.5303   84.4645 C   0  0  0  0  0  0  0  0  0  0  0  0
    0.7226   64.7348   83.6176 N   0  0  0  0  0  0  0  0  0  0  0  0
   -0.0817   63.9544   84.3884 C   0  0  0  0  0  0  0  0  0  0  0  0
    1.3288   65.7100   86.5867 H   0  0  0  0  0  0  0  0  0  0  0  0
    2.3289   66.5815   84.0969 C   0  0  0  0  0  0  0  0  0  0  0  0
    1.8947   67.5683   83.1947 C   0  0  0  0  0  0  0  0  0  0  0  0
    2.7417   68.6132   82.8233 C   0  0  0  0  0  0  0  0  0  0  0  0
    4.0350   68.6923   83.3318 C   0  0  0  0  0  0  0  0  0  0  0  0
    4.4852   67.7121   84.2200 C   0  0  0  0  0  0  0  0  0  0  0  0
    3.6464   66.6558   84.6100 C   0  0  0  0  0  0  0  0  0  0  0  0
    2.1385   69.8636   81.7189 S   0  0  0  0  0  0  0  0  0  0  0  0
    0.7509   70.0935   82.0552 O   0  0  0  0  0  0  0  0  0  0  0  0
    2.5414   69.5124   80.3725 O   0  0  0  0  0  0  0  0  0  0  0  0
    3.0388   71.2361   82.1667 N   0  0  0  0  0  0  0  0  0  0  0  0
    3.7550   71.9454   81.0568 C   0  0  0  0  0  0  0  0  0  0  0  0
    3.0608   73.2696   80.6932 C   0  0  0  0  0  0  0  0  0  0  0  0
    3.0473   74.2383   81.8099 N   0  0  0  0  0  0  0  0  0  0  0  0
    1.9802   75.2187   81.6233 C   0  0  0  0  0  0  0  0  0  0  0  0
    2.9473   73.5571   83.1177 C   0  0  0  0  0  0  0  0  0  0  0  0
    2.2867   72.1673   83.0675 C   0  0  0  0  0  0  0  0  0  0  0  0
    4.0278   65.6696   85.4882 O   0  0  0  0  0  0  0  0  0  0  0  0
    5.4159   65.3437   85.5719 C   0  0  0  0  0  0  0  0  0  0  0  0
    5.7806   65.2503   87.0427 C   0  0  0  0  0  0  0  0  0  0  0  0
   -1.1108   62.6993   82.5282 C   0  0  0  0  0  0  0  0  0  0  0  0
   -0.0683   61.7089   81.9956 C   0  0  0  0  0  0  0  0  0  0  0  0
    0.3408   61.9896   80.5451 C   0  0  0  0  0  0  0  0  0  0  0  0
   -0.4430   63.1478   79.9170 C   0  0  0  0  0  0  0  0  0  0  0  0
    0.1595   65.6234   80.2167 C   0  0  0  0  0  0  0  0  0  0  0  0
    0.4213   64.3292   79.4661 C   0  0  0  0  0  0  0  0  0  0  0  0
 37 38  1  0  0  0
 38 36  1  0  0  0
 36 35  1  0  0  0
 35 34  1  0  0  0
 34 33  1  0  0  0
 33  1  1  0  0  0
  1  2  1  0  0  0
  2  3  2  0  0  0
  2  4  1  0  0  0
  4  5  1  0  0  0
  4  6  1  0  0  0
  6  7  2  0  0  0
  6  8  1  0  0  0
  8  9  1  0  0  0
  9 10  1  0  0  0
 10 14  1  0  0  0
 14 15  1  0  0  0
 15 16  2  0  0  0
 16 20  1  0  0  0
 20 21  2  0  0  0
 20 22  2  0  0  0
 20 23  1  0  0  0
 23 24  1  0  0  0
 24 25  1  0  0  0
 25 26  1  0  0  0
 26 27  1  0  0  0
 26 28  1  0  0  0
 28 29  1  0  0  0
 16 17  1  0  0  0
 17 18  2  0  0  0
 18 19  1  0  0  0
 19 30  1  0  0  0
 30 31  1  0  0  0
 31 32  1  0  0  0
 10 11  2  0  0  0
 11 12  1  0  0  0
 12  1  1  0  0  0
 12  8  2  0  0  0
 19 14  2  0  0  0
 29 23  1  0  0  0
  9 13  1  0  0  0
M  END
> <minimizedAffinity>
-9.60736

$$$$
