


 36 39  0  0  0  0  0  0  0  0999 V2000
    1.0726   65.8572   82.2568 C   0  0  0  0  0  0  0  0  0  0  0  0
    1.6713   67.0995   82.5306 C   0  0  0  0  0  0  0  0  0  0  0  0
    2.0548   67.9482   81.4922 C   0  0  0  0  0  0  0  0  0  0  0  0
    1.9001   67.5478   80.1656 C   0  0  0  0  0  0  0  0  0  0  0  0
    1.3266   66.3064   79.8775 C   0  0  0  0  0  0  0  0  0  0  0  0
    0.9024   65.4570   80.9099 C   0  0  0  0  0  0  0  0  0  0  0  0
   -1.4957   62.7118   85.0511 N   0  0  0  0  0  0  0  0  0  0  0  0
   -1.3911   62.2855   86.3885 C   0  0  0  0  0  0  0  0  0  0  0  0
   -2.1955   61.4864   86.8754 O   0  0  0  0  0  0  0  0  0  0  0  0
   -0.3291   62.8118   87.1564 N   0  0  0  0  0  0  0  0  0  0  0  0
   -0.2497   62.3518   88.5287 C   0  0  0  0  0  0  0  0  0  0  0  0
    0.6193   63.7617   86.7370 C   0  0  0  0  0  0  0  0  0  0  0  0
    1.4927   64.2324   87.4611 O   0  0  0  0  0  0  0  0  0  0  0  0
    0.4566   64.1481   85.3543 C   0  0  0  0  0  0  0  0  0  0  0  0
    1.1982   65.0310   84.6055 N   0  0  0  0  0  0  0  0  0  0  0  0
    0.6369   65.0474   83.4044 C   0  0  0  0  0  0  0  0  0  0  0  0
   -0.4399   64.1835   83.3773 N   0  0  0  0  0  0  0  0  0  0  0  0
   -0.5584   63.6207   84.6098 C   0  0  0  0  0  0  0  0  0  0  0  0
   -1.0274   64.0429   82.5674 H   0  0  0  0  0  0  0  0  0  0  0  0
   -2.5834   62.1968   84.2140 C   0  0  0  0  0  0  0  0  0  0  0  0
   -2.1241   61.1591   83.1776 C   0  0  0  0  0  0  0  0  0  0  0  0
   -2.9009   62.6929   81.3460 C   0  0  0  0  0  0  0  0  0  0  0  0
   -2.5614   61.4704   81.7739 C   0  0  0  0  0  0  0  0  0  0  0  0
    2.8148   69.5169   81.8643 S   0  0  0  0  0  0  0  0  0  0  0  0
    3.3998   70.0054   80.6324 O   0  0  0  0  0  0  0  0  0  0  0  0
    3.6199   69.3365   83.0525 O   0  0  0  0  0  0  0  0  0  0  0  0
    1.5050   70.5121   82.2451 N   0  0  0  0  0  0  0  0  0  0  0  0
    0.3090   70.4508   81.3591 C   0  0  0  0  0  0  0  0  0  0  0  0
   -0.7123   71.5416   81.7339 C   0  0  0  0  0  0  0  0  0  0  0  0
   -0.1905   72.9233   81.6566 N   0  0  0  0  0  0  0  0  0  0  0  0
   -0.5301   73.5596   80.3853 C   0  0  0  0  0  0  0  0  0  0  0  0
    1.2677   72.9724   81.8900 C   0  0  0  0  0  0  0  0  0  0  0  0
    1.7811   71.8573   82.8200 C   0  0  0  0  0  0  0  0  0  0  0  0
    0.3253   64.2275   80.6951 O   0  0  0  0  0  0  0  0  0  0  0  0
    0.3253   63.7117   79.3631 C   0  0  0  0  0  0  0  0  0  0  0  0
    0.4120   62.1986   79.4555 C   0  0  0  0  0  0  0  0  0  0  0  0
 22 23  2  0  0  0
 23 21  1  0  0  0
 21 20  1  0  0  0
 20  7  1  0  0  0
  7  8  1  0  0  0
  8  9  2  0  0  0
  8 10  1  0  0  0
 10 11  1  0  0  0
 10 12  1  0  0  0
 12 13  2  0  0  0
 12 14  1  0  0  0
 14 15  1  0  0  0
 15 16  2  0  0  0
 16  1  1  0  0  0
  1  2  1  0  0  0
  2  3  2  0  0  0
  3 24  1  0  0  0
 24 25  2  0  0  0
 24 26  2  0  0  0
 24 27  1  0  0  0
 27 28  1  0  0  0
 28 29  1  0  0  0
 29 30  1  0  0  0
 30 31  1  0  0  0
 30 32  1  0  0  0
 32 33  1  0  0  0
  3  4  1  0  0  0
  4  5  2  0  0  0
  5  6  1  0  0  0
  6 34  1  0  0  0
 34 35  1  0  0  0
 35 36  1  0  0  0
 16 17  1  0  0  0
 17 18  1  0  0  0
 18  7  1  0  0  0
 18 14  2  0  0  0
  6  1  2  0  0  0
 33 27  1  0  0  0
 17 19  1  0  0  0
M  END
> <minimizedAffinity>
-9.49805

$$$$



 36 39  0  0  0  0  0  0  0  0999 V2000
    2.1822   66.7776   83.4142 C   0  0  0  0  0  0  0  0  0  0  0  0
    1.9246   67.7588   82.4408 C   0  0  0  0  0  0  0  0  0  0  0  0
    2.8103   68.8190   82.2482 C   0  0  0  0  0  0  0  0  0  0  0  0
    3.9360   68.9491   83.0606 C   0  0  0  0  0  0  0  0  0  0  0  0
    4.1942   67.9936   84.0473 C   0  0  0  0  0  0  0  0  0  0  0  0
    3.3326   66.9019   84.2292 C   0  0  0  0  0  0  0  0  0  0  0  0
   -0.8432   63.3668   85.2881 N   0  0  0  0  0  0  0  0  0  0  0  0
   -1.6154   62.3329   84.7260 C   0  0  0  0  0  0  0  0  0  0  0  0
   -2.2882   61.5748   85.4298 O   0  0  0  0  0  0  0  0  0  0  0  0
   -1.5880   62.1927   83.3209 N   0  0  0  0  0  0  0  0  0  0  0  0
   -2.3945   61.1192   82.7747 C   0  0  0  0  0  0  0  0  0  0  0  0
   -0.8278   62.9550   82.4161 C   0  0  0  0  0  0  0  0  0  0  0  0
   -0.7941   62.7578   81.2042 O   0  0  0  0  0  0  0  0  0  0  0  0
   -0.0667   64.0004   83.0606 C   0  0  0  0  0  0  0  0  0  0  0  0
    0.7682   64.9387   82.5011 N   0  0  0  0  0  0  0  0  0  0  0  0
    1.2358   65.6564   83.5132 C   0  0  0  0  0  0  0  0  0  0  0  0
    0.7041   65.1954   84.7012 N   0  0  0  0  0  0  0  0  0  0  0  0
   -0.1128   64.1457   84.4168 C   0  0  0  0  0  0  0  0  0  0  0  0
    0.9297   65.5839   85.6061 H   0  0  0  0  0  0  0  0  0  0  0  0
   -0.8356   63.5510   86.7424 C   0  0  0  0  0  0  0  0  0  0  0  0
    0.5758   63.6276   87.3458 C   0  0  0  0  0  0  0  0  0  0  0  0
    0.2277   62.0024   89.2295 C   0  0  0  0  0  0  0  0  0  0  0  0
    0.6445   63.1940   88.7831 C   0  0  0  0  0  0  0  0  0  0  0  0
    2.4605   70.0525   81.0100 S   0  0  0  0  0  0  0  0  0  0  0  0
    1.8571   69.3642   79.8872 O   0  0  0  0  0  0  0  0  0  0  0  0
    3.6567   70.8484   80.8421 O   0  0  0  0  0  0  0  0  0  0  0  0
    1.2706   71.0106   81.7293 N   0  0  0  0  0  0  0  0  0  0  0  0
    0.0576   71.3275   80.9248 C   0  0  0  0  0  0  0  0  0  0  0  0
   -0.8353   72.3509   81.6519 C   0  0  0  0  0  0  0  0  0  0  0  0
   -0.1724   73.6377   81.9551 N   0  0  0  0  0  0  0  0  0  0  0  0
   -0.4680   74.6502   80.9432 C   0  0  0  0  0  0  0  0  0  0  0  0
    1.2871   73.4770   82.1196 C   0  0  0  0  0  0  0  0  0  0  0  0
    1.6984   72.0935   82.6570 C   0  0  0  0  0  0  0  0  0  0  0  0
    3.5322   65.9245   85.1757 O   0  0  0  0  0  0  0  0  0  0  0  0
    4.8763   65.5369   85.4643 C   0  0  0  0  0  0  0  0  0  0  0  0
    4.9124   65.0315   86.8958 C   0  0  0  0  0  0  0  0  0  0  0  0
 22 23  2  0  0  0
 23 21  1  0  0  0
 21 20  1  0  0  0
 20  7  1  0  0  0
  7  8  1  0  0  0
  8  9  2  0  0  0
  8 10  1  0  0  0
 10 11  1  0  0  0
 10 12  1  0  0  0
 12 13  2  0  0  0
 12 14  1  0  0  0
 14 15  1  0  0  0
 15 16  2  0  0  0
 16  1  1  0  0  0
  1  2  1  0  0  0
  2  3  2  0  0  0
  3 24  1  0  0  0
 24 25  2  0  0  0
 24 26  2  0  0  0
 24 27  1  0  0  0
 27 28  1  0  0  0
 28 29  1  0  0  0
 29 30  1  0  0  0
 30 31  1  0  0  0
 30 32  1  0  0  0
 32 33  1  0  0  0
  3  4  1  0  0  0
  4  5  2  0  0  0
  5  6  1  0  0  0
  6 34  1  0  0  0
 34 35  1  0  0  0
 35 36  1  0  0  0
 16 17  1  0  0  0
 17 18  1  0  0  0
 18  7  1  0  0  0
 18 14  2  0  0  0
  6  1  2  0  0  0
 33 27  1  0  0  0
 17 19  1  0  0  0
M  END
> <minimizedAffinity>
-9.46019

$$$$



 36 39  0  0  0  0  0  0  0  0999 V2000
   -0.1560   63.8706   84.1067 C   0  0  0  0  0  0  0  0  0  0  0  0
   -0.8680   63.4408   82.9731 C   0  0  0  0  0  0  0  0  0  0  0  0
   -1.8293   62.4354   83.0762 C   0  0  0  0  0  0  0  0  0  0  0  0
   -2.0553   61.8037   84.2985 C   0  0  0  0  0  0  0  0  0  0  0  0
   -1.3400   62.2049   85.4300 C   0  0  0  0  0  0  0  0  0  0  0  0
   -0.3959   63.2391   85.3504 C   0  0  0  0  0  0  0  0  0  0  0  0
    3.7704   66.7961   84.6746 N   0  0  0  0  0  0  0  0  0  0  0  0
    4.1840   68.0011   84.0763 C   0  0  0  0  0  0  0  0  0  0  0  0
    5.2249   68.5678   84.4200 O   0  0  0  0  0  0  0  0  0  0  0  0
    3.3576   68.5415   83.0665 N   0  0  0  0  0  0  0  0  0  0  0  0
    3.8126   69.7821   82.4708 C   0  0  0  0  0  0  0  0  0  0  0  0
    2.1287   68.0229   82.6210 C   0  0  0  0  0  0  0  0  0  0  0  0
    1.4167   68.5610   81.7770 O   0  0  0  0  0  0  0  0  0  0  0  0
    1.7707   66.7837   83.2721 C   0  0  0  0  0  0  0  0  0  0  0  0
    0.6628   65.9915   83.0841 N   0  0  0  0  0  0  0  0  0  0  0  0
    0.7940   64.9791   83.9301 C   0  0  0  0  0  0  0  0  0  0  0  0
    1.9694   65.1115   84.6425 N   0  0  0  0  0  0  0  0  0  0  0  0
    2.5830   66.2540   84.2324 C   0  0  0  0  0  0  0  0  0  0  0  0
    2.2711   64.4616   85.3547 H   0  0  0  0  0  0  0  0  0  0  0  0
    4.5923   66.1969   85.7304 C   0  0  0  0  0  0  0  0  0  0  0  0
    5.7244   65.3046   85.1975 C   0  0  0  0  0  0  0  0  0  0  0  0
    8.1515   65.6621   84.6568 C   0  0  0  0  0  0  0  0  0  0  0  0
    7.1002   65.8468   85.4653 C   0  0  0  0  0  0  0  0  0  0  0  0
   -2.7167   61.9052   81.6241 S   0  0  0  0  0  0  0  0  0  0  0  0
   -3.5395   63.0202   81.2017 O   0  0  0  0  0  0  0  0  0  0  0  0
   -3.3022   60.6163   81.9215 O   0  0  0  0  0  0  0  0  0  0  0  0
   -1.5012   61.6935   80.4715 N   0  0  0  0  0  0  0  0  0  0  0  0
   -0.9783   62.9084   79.7862 C   0  0  0  0  0  0  0  0  0  0  0  0
   -0.0153   62.5277   78.6456 C   0  0  0  0  0  0  0  0  0  0  0  0
   -0.6114   61.6677   77.6005 N   0  0  0  0  0  0  0  0  0  0  0  0
   -1.0729   62.4495   76.4549 C   0  0  0  0  0  0  0  0  0  0  0  0
   -1.7067   60.8332   78.1362 C   0  0  0  0  0  0  0  0  0  0  0  0
   -1.5348   60.4705   79.6231 C   0  0  0  0  0  0  0  0  0  0  0  0
    0.3360   63.6858   86.4255 O   0  0  0  0  0  0  0  0  0  0  0  0
   -0.3507   63.9020   87.6592 C   0  0  0  0  0  0  0  0  0  0  0  0
    0.3523   63.0829   88.7271 C   0  0  0  0  0  0  0  0  0  0  0  0
 22 23  2  0  0  0
 23 21  1  0  0  0
 21 20  1  0  0  0
 20  7  1  0  0  0
  7  8  1  0  0  0
  8  9  2  0  0  0
  8 10  1  0  0  0
 10 11  1  0  0  0
 10 12  1  0  0  0
 12 13  2  0  0  0
 12 14  1  0  0  0
 14 15  1  0  0  0
 15 16  2  0  0  0
 16  1  1  0  0  0
  1  2  1  0  0  0
  2  3  2  0  0  0
  3 24  1  0  0  0
 24 25  2  0  0  0
 24 26  2  0  0  0
 24 27  1  0  0  0
 27 28  1  0  0  0
 28 29  1  0  0  0
 29 30  1  0  0  0
 30 31  1  0  0  0
 30 32  1  0  0  0
 32 33  1  0  0  0
  3  4  1  0  0  0
  4  5  2  0  0  0
  5  6  1  0  0  0
  6 34  1  0  0  0
 34 35  1  0  0  0
 35 36  1  0  0  0
 16 17  1  0  0  0
 17 18  1  0  0  0
 18  7  1  0  0  0
 18 14  2  0  0  0
  6  1  2  0  0  0
 33 27  1  0  0  0
 17 19  1  0  0  0
M  END
> <minimizedAffinity>
-9.34579

$$$$



 36 39  0  0  0  0  0  0  0  0999 V2000
    2.3518   66.3936   84.3267 C   0  0  0  0  0  0  0  0  0  0  0  0
    1.9675   67.4698   83.5077 C   0  0  0  0  0  0  0  0  0  0  0  0
    2.9036   68.4170   83.0926 C   0  0  0  0  0  0  0  0  0  0  0  0
    4.2240   68.3383   83.5335 C   0  0  0  0  0  0  0  0  0  0  0  0
    4.6165   67.2865   84.3658 C   0  0  0  0  0  0  0  0  0  0  0  0
    3.6955   66.3058   84.7625 C   0  0  0  0  0  0  0  0  0  0  0  0
   -1.1357   62.9373   83.8918 N   0  0  0  0  0  0  0  0  0  0  0  0
   -1.9412   62.2426   84.8136 C   0  0  0  0  0  0  0  0  0  0  0  0
   -2.7834   61.4205   84.4428 O   0  0  0  0  0  0  0  0  0  0  0  0
   -1.7514   62.5260   86.1841 N   0  0  0  0  0  0  0  0  0  0  0  0
   -2.5962   61.7932   87.1063 C   0  0  0  0  0  0  0  0  0  0  0  0
   -0.8656   63.4716   86.7307 C   0  0  0  0  0  0  0  0  0  0  0  0
   -0.7766   63.7229   87.9297 O   0  0  0  0  0  0  0  0  0  0  0  0
   -0.0671   64.1406   85.7293 C   0  0  0  0  0  0  0  0  0  0  0  0
    0.9023   65.1021   85.8905 N   0  0  0  0  0  0  0  0  0  0  0  0
    1.3220   65.4011   84.6689 C   0  0  0  0  0  0  0  0  0  0  0  0
    0.6428   64.6391   83.7391 N   0  0  0  0  0  0  0  0  0  0  0  0
   -0.2391   63.8481   84.4074 C   0  0  0  0  0  0  0  0  0  0  0  0
    0.7891   64.7073   82.7417 H   0  0  0  0  0  0  0  0  0  0  0  0
   -1.2974   62.6809   82.4575 C   0  0  0  0  0  0  0  0  0  0  0  0
   -0.6763   61.3531   81.9957 C   0  0  0  0  0  0  0  0  0  0  0  0
    1.7952   60.9290   82.1456 C   0  0  0  0  0  0  0  0  0  0  0  0
    0.7450   61.4806   81.5245 C   0  0  0  0  0  0  0  0  0  0  0  0
    2.3917   69.7744   82.0570 S   0  0  0  0  0  0  0  0  0  0  0  0
    3.5917   70.3296   81.4650 O   0  0  0  0  0  0  0  0  0  0  0  0
    1.4940   70.5985   82.8364 O   0  0  0  0  0  0  0  0  0  0  0  0
    1.5081   69.0251   80.8287 N   0  0  0  0  0  0  0  0  0  0  0  0
    0.1198   68.5864   81.1439 C   0  0  0  0  0  0  0  0  0  0  0  0
   -0.4765   67.7655   79.9847 C   0  0  0  0  0  0  0  0  0  0  0  0
    0.2898   66.5495   79.6362 N   0  0  0  0  0  0  0  0  0  0  0  0
   -0.2641   65.3586   80.2776 C   0  0  0  0  0  0  0  0  0  0  0  0
    1.7244   66.6945   79.9585 C   0  0  0  0  0  0  0  0  0  0  0  0
    2.2325   68.1457   79.8704 C   0  0  0  0  0  0  0  0  0  0  0  0
    4.0177   65.2430   85.5734 O   0  0  0  0  0  0  0  0  0  0  0  0
    5.3682   65.1308   86.0247 C   0  0  0  0  0  0  0  0  0  0  0  0
    5.3719   65.3561   87.5263 C   0  0  0  0  0  0  0  0  0  0  0  0
 22 23  2  0  0  0
 23 21  1  0  0  0
 21 20  1  0  0  0
 20  7  1  0  0  0
  7  8  1  0  0  0
  8  9  2  0  0  0
  8 10  1  0  0  0
 10 11  1  0  0  0
 10 12  1  0  0  0
 12 13  2  0  0  0
 12 14  1  0  0  0
 14 15  1  0  0  0
 15 16  2  0  0  0
 16  1  1  0  0  0
  1  2  1  0  0  0
  2  3  2  0  0  0
  3 24  1  0  0  0
 24 25  2  0  0  0
 24 26  2  0  0  0
 24 27  1  0  0  0
 27 28  1  0  0  0
 28 29  1  0  0  0
 29 30  1  0  0  0
 30 31  1  0  0  0
 30 32  1  0  0  0
 32 33  1  0  0  0
  3  4  1  0  0  0
  4  5  2  0  0  0
  5  6  1  0  0  0
  6 34  1  0  0  0
 34 35  1  0  0  0
 35 36  1  0  0  0
 16 17  1  0  0  0
 17 18  1  0  0  0
 18  7  1  0  0  0
 18 14  2  0  0  0
  6  1  2  0  0  0
 33 27  1  0  0  0
 17 19  1  0  0  0
M  END
> <minimizedAffinity>
-9.26505

$$$$



 36 39  0  0  0  0  0  0  0  0999 V2000
    0.4338   64.5730   83.0009 C   0  0  0  0  0  0  0  0  0  0  0  0
    1.3022   65.6717   82.8761 C   0  0  0  0  0  0  0  0  0  0  0  0
    1.8189   66.3017   84.0083 C   0  0  0  0  0  0  0  0  0  0  0  0
    1.4335   65.8832   85.2813 C   0  0  0  0  0  0  0  0  0  0  0  0
    0.5539   64.8063   85.4214 C   0  0  0  0  0  0  0  0  0  0  0  0
    0.0540   64.1391   84.2934 C   0  0  0  0  0  0  0  0  0  0  0  0
   -2.2964   62.0125   79.7934 N   0  0  0  0  0  0  0  0  0  0  0  0
   -2.1257   61.6385   78.4472 C   0  0  0  0  0  0  0  0  0  0  0  0
   -2.9657   60.9542   77.8566 O   0  0  0  0  0  0  0  0  0  0  0  0
   -0.9504   62.0743   77.7965 N   0  0  0  0  0  0  0  0  0  0  0  0
   -0.8062   61.6727   76.4113 C   0  0  0  0  0  0  0  0  0  0  0  0
    0.1013   62.8119   78.3687 C   0  0  0  0  0  0  0  0  0  0  0  0
    1.1320   63.1198   77.7758 O   0  0  0  0  0  0  0  0  0  0  0  0
   -0.1441   63.1664   79.7478 C   0  0  0  0  0  0  0  0  0  0  0  0
    0.6441   63.8876   80.6133 N   0  0  0  0  0  0  0  0  0  0  0  0
   -0.0173   63.9218   81.7619 C   0  0  0  0  0  0  0  0  0  0  0  0
   -1.2137   63.2441   81.6355 N   0  0  0  0  0  0  0  0  0  0  0  0
   -1.2912   62.7612   80.3663 C   0  0  0  0  0  0  0  0  0  0  0  0
   -1.8768   63.1290   82.3891 H   0  0  0  0  0  0  0  0  0  0  0  0
   -3.4983   61.5816   80.5138 C   0  0  0  0  0  0  0  0  0  0  0  0
   -3.4788   60.0971   80.9111 C   0  0  0  0  0  0  0  0  0  0  0  0
   -3.1427   60.6987   83.3270 C   0  0  0  0  0  0  0  0  0  0  0  0
   -2.9747   59.8498   82.3052 C   0  0  0  0  0  0  0  0  0  0  0  0
    2.9155   67.6948   83.8247 S   0  0  0  0  0  0  0  0  0  0  0  0
    2.4566   68.7171   84.7426 O   0  0  0  0  0  0  0  0  0  0  0  0
    3.0393   67.9642   82.4088 O   0  0  0  0  0  0  0  0  0  0  0  0
    4.3945   67.1135   84.3954 N   0  0  0  0  0  0  0  0  0  0  0  0
    4.4636   65.6833   84.8064 C   0  0  0  0  0  0  0  0  0  0  0  0
    5.8176   65.3638   85.4682 C   0  0  0  0  0  0  0  0  0  0  0  0
    6.1190   66.1714   86.6699 N   0  0  0  0  0  0  0  0  0  0  0  0
    5.7678   65.4635   87.8995 C   0  0  0  0  0  0  0  0  0  0  0  0
    5.4580   67.4919   86.6228 C   0  0  0  0  0  0  0  0  0  0  0  0
    5.2549   68.0292   85.1938 C   0  0  0  0  0  0  0  0  0  0  0  0
   -0.8082   63.0700   84.3617 O   0  0  0  0  0  0  0  0  0  0  0  0
   -0.8079   62.2852   85.5551 C   0  0  0  0  0  0  0  0  0  0  0  0
   -2.1165   62.5479   86.2791 C   0  0  0  0  0  0  0  0  0  0  0  0
 22 23  2  0  0  0
 23 21  1  0  0  0
 21 20  1  0  0  0
 20  7  1  0  0  0
  7  8  1  0  0  0
  8  9  2  0  0  0
  8 10  1  0  0  0
 10 11  1  0  0  0
 10 12  1  0  0  0
 12 13  2  0  0  0
 12 14  1  0  0  0
 14 15  1  0  0  0
 15 16  2  0  0  0
 16  1  1  0  0  0
  1  2  1  0  0  0
  2  3  2  0  0  0
  3 24  1  0  0  0
 24 25  2  0  0  0
 24 26  2  0  0  0
 24 27  1  0  0  0
 27 28  1  0  0  0
 28 29  1  0  0  0
 29 30  1  0  0  0
 30 31  1  0  0  0
 30 32  1  0  0  0
 32 33  1  0  0  0
  3  4  1  0  0  0
  4  5  2  0  0  0
  5  6  1  0  0  0
  6 34  1  0  0  0
 34 35  1  0  0  0
 35 36  1  0  0  0
 16 17  1  0  0  0
 17 18  1  0  0  0
 18  7  1  0  0  0
 18 14  2  0  0  0
  6  1  2  0  0  0
 33 27  1  0  0  0
 17 19  1  0  0  0
M  END
> <minimizedAffinity>
-9.18328

$$$$



 36 39  0  0  0  0  0  0  0  0999 V2000
    0.1692   63.9342   83.7754 C   0  0  0  0  0  0  0  0  0  0  0  0
    0.9995   65.0138   83.4265 C   0  0  0  0  0  0  0  0  0  0  0  0
    1.6331   65.7710   84.4119 C   0  0  0  0  0  0  0  0  0  0  0  0
    1.4041   65.4999   85.7603 C   0  0  0  0  0  0  0  0  0  0  0  0
    0.5640   64.4437   86.1232 C   0  0  0  0  0  0  0  0  0  0  0  0
   -0.0518   63.6501   85.1442 C   0  0  0  0  0  0  0  0  0  0  0  0
   -0.5148   61.8828   79.3457 N   0  0  0  0  0  0  0  0  0  0  0  0
   -1.5062   61.0452   78.8010 C   0  0  0  0  0  0  0  0  0  0  0  0
   -1.4650   60.6787   77.6234 O   0  0  0  0  0  0  0  0  0  0  0  0
   -2.5561   60.6418   79.6550 N   0  0  0  0  0  0  0  0  0  0  0  0
   -3.5596   59.7794   79.0630 C   0  0  0  0  0  0  0  0  0  0  0  0
   -2.7441   61.0280   80.9941 C   0  0  0  0  0  0  0  0  0  0  0  0
   -3.7064   60.6947   81.6809 O   0  0  0  0  0  0  0  0  0  0  0  0
   -1.6871   61.8801   81.4886 C   0  0  0  0  0  0  0  0  0  0  0  0
   -1.5290   62.4331   82.7374 N   0  0  0  0  0  0  0  0  0  0  0  0
   -0.4112   63.1439   82.6794 C   0  0  0  0  0  0  0  0  0  0  0  0
    0.1454   63.0423   81.4199 N   0  0  0  0  0  0  0  0  0  0  0  0
   -0.6631   62.2502   80.6657 C   0  0  0  0  0  0  0  0  0  0  0  0
    0.9951   63.5126   81.1414 H   0  0  0  0  0  0  0  0  0  0  0  0
    0.5940   62.3319   78.4983 C   0  0  0  0  0  0  0  0  0  0  0  0
    0.3149   63.6562   77.7701 C   0  0  0  0  0  0  0  0  0  0  0  0
    0.3778   65.6869   79.2478 C   0  0  0  0  0  0  0  0  0  0  0  0
    0.9832   64.8461   78.3995 C   0  0  0  0  0  0  0  0  0  0  0  0
    2.6785   67.1370   83.9448 S   0  0  0  0  0  0  0  0  0  0  0  0
    2.2482   68.2823   84.7206 O   0  0  0  0  0  0  0  0  0  0  0  0
    2.7092   67.1837   82.4993 O   0  0  0  0  0  0  0  0  0  0  0  0
    4.2044   66.6779   84.5031 N   0  0  0  0  0  0  0  0  0  0  0  0
    4.3443   65.3180   85.0948 C   0  0  0  0  0  0  0  0  0  0  0  0
    5.7412   65.1270   85.7158 C   0  0  0  0  0  0  0  0  0  0  0  0
    6.0767   66.0960   86.7814 N   0  0  0  0  0  0  0  0  0  0  0  0
    5.8148   65.5495   88.1116 C   0  0  0  0  0  0  0  0  0  0  0  0
    5.3688   67.3798   86.5977 C   0  0  0  0  0  0  0  0  0  0  0  0
    5.0731   67.7154   85.1240 C   0  0  0  0  0  0  0  0  0  0  0  0
   -0.8829   62.5935   85.4333 O   0  0  0  0  0  0  0  0  0  0  0  0
   -1.3169   62.4336   86.7847 C   0  0  0  0  0  0  0  0  0  0  0  0
   -2.7469   62.9367   86.8715 C   0  0  0  0  0  0  0  0  0  0  0  0
 22 23  2  0  0  0
 23 21  1  0  0  0
 21 20  1  0  0  0
 20  7  1  0  0  0
  7  8  1  0  0  0
  8  9  2  0  0  0
  8 10  1  0  0  0
 10 11  1  0  0  0
 10 12  1  0  0  0
 12 13  2  0  0  0
 12 14  1  0  0  0
 14 15  1  0  0  0
 15 16  2  0  0  0
 16  1  1  0  0  0
  1  2  1  0  0  0
  2  3  2  0  0  0
  3 24  1  0  0  0
 24 25  2  0  0  0
 24 26  2  0  0  0
 24 27  1  0  0  0
 27 28  1  0  0  0
 28 29  1  0  0  0
 29 30  1  0  0  0
 30 31  1  0  0  0
 30 32  1  0  0  0
 32 33  1  0  0  0
  3  4  1  0  0  0
  4  5  2  0  0  0
  5  6  1  0  0  0
  6 34  1  0  0  0
 34 35  1  0  0  0
 35 36  1  0  0  0
 16 17  1  0  0  0
 17 18  1  0  0  0
 18  7  1  0  0  0
 18 14  2  0  0  0
  6  1  2  0  0  0
 33 27  1  0  0  0
 17 19  1  0  0  0
M  END
> <minimizedAffinity>
-9.17336

$$$$



 36 39  0  0  0  0  0  0  0  0999 V2000
    2.3962   66.3336   84.1179 C   0  0  0  0  0  0  0  0  0  0  0  0
    2.1131   67.2242   83.0675 C   0  0  0  0  0  0  0  0  0  0  0  0
    3.0649   68.1532   82.6471 C   0  0  0  0  0  0  0  0  0  0  0  0
    4.2911   68.2474   83.3040 C   0  0  0  0  0  0  0  0  0  0  0  0
    4.5789   67.3837   84.3642 C   0  0  0  0  0  0  0  0  0  0  0  0
    3.6466   66.4197   84.7753 C   0  0  0  0  0  0  0  0  0  0  0  0
   -0.9891   62.7755   83.6965 N   0  0  0  0  0  0  0  0  0  0  0  0
   -1.8364   62.1217   84.6108 C   0  0  0  0  0  0  0  0  0  0  0  0
   -2.6377   61.2581   84.2435 O   0  0  0  0  0  0  0  0  0  0  0  0
   -1.7375   62.4956   85.9691 N   0  0  0  0  0  0  0  0  0  0  0  0
   -2.6232   61.8028   86.8838 C   0  0  0  0  0  0  0  0  0  0  0  0
   -0.9060   63.4945   86.5062 C   0  0  0  0  0  0  0  0  0  0  0  0
   -0.8964   63.8231   87.6896 O   0  0  0  0  0  0  0  0  0  0  0  0
   -0.0603   64.1173   85.5139 C   0  0  0  0  0  0  0  0  0  0  0  0
    0.8782   65.1097   85.6711 N   0  0  0  0  0  0  0  0  0  0  0  0
    1.3669   65.3407   84.4604 C   0  0  0  0  0  0  0  0  0  0  0  0
    0.7617   64.5056   83.5423 N   0  0  0  0  0  0  0  0  0  0  0  0
   -0.1442   63.7379   84.2056 C   0  0  0  0  0  0  0  0  0  0  0  0
    0.9681   64.5141   82.5533 H   0  0  0  0  0  0  0  0  0  0  0  0
   -1.0565   62.4251   82.2746 C   0  0  0  0  0  0  0  0  0  0  0  0
   -0.0157   61.3776   81.8487 C   0  0  0  0  0  0  0  0  0  0  0  0
    0.2879   62.6835   79.7242 C   0  0  0  0  0  0  0  0  0  0  0  0
    0.5353   61.5979   80.4679 C   0  0  0  0  0  0  0  0  0  0  0  0
    2.6815   69.2741   81.3152 S   0  0  0  0  0  0  0  0  0  0  0  0
    2.1351   68.4765   80.2364 O   0  0  0  0  0  0  0  0  0  0  0  0
    3.8412   70.1138   81.1091 O   0  0  0  0  0  0  0  0  0  0  0  0
    1.4325   70.2221   81.9415 N   0  0  0  0  0  0  0  0  0  0  0  0
    0.2247   70.4237   81.0930 C   0  0  0  0  0  0  0  0  0  0  0  0
   -0.7310   71.4515   81.7282 C   0  0  0  0  0  0  0  0  0  0  0  0
   -0.1355   72.7865   81.9523 N   0  0  0  0  0  0  0  0  0  0  0  0
   -0.4545   73.7106   80.8656 C   0  0  0  0  0  0  0  0  0  0  0  0
    1.3258   72.7077   82.1562 C   0  0  0  0  0  0  0  0  0  0  0  0
    1.7883   71.3865   82.7983 C   0  0  0  0  0  0  0  0  0  0  0  0
    3.8694   65.5363   85.8053 O   0  0  0  0  0  0  0  0  0  0  0  0
    5.2180   65.1528   86.0782 C   0  0  0  0  0  0  0  0  0  0  0  0
    5.5000   65.4679   87.5365 C   0  0  0  0  0  0  0  0  0  0  0  0
 22 23  2  0  0  0
 23 21  1  0  0  0
 21 20  1  0  0  0
 20  7  1  0  0  0
  7  8  1  0  0  0
  8  9  2  0  0  0
  8 10  1  0  0  0
 10 11  1  0  0  0
 10 12  1  0  0  0
 12 13  2  0  0  0
 12 14  1  0  0  0
 14 15  1  0  0  0
 15 16  2  0  0  0
 16  1  1  0  0  0
  1  2  1  0  0  0
  2  3  2  0  0  0
  3 24  1  0  0  0
 24 25  2  0  0  0
 24 26  2  0  0  0
 24 27  1  0  0  0
 27 28  1  0  0  0
 28 29  1  0  0  0
 29 30  1  0  0  0
 30 31  1  0  0  0
 30 32  1  0  0  0
 32 33  1  0  0  0
  3  4  1  0  0  0
  4  5  2  0  0  0
  5  6  1  0  0  0
  6 34  1  0  0  0
 34 35  1  0  0  0
 35 36  1  0  0  0
 16 17  1  0  0  0
 17 18  1  0  0  0
 18  7  1  0  0  0
 18 14  2  0  0  0
  6  1  2  0  0  0
 33 27  1  0  0  0
 17 19  1  0  0  0
M  END
> <minimizedAffinity>
-9.15886

$$$$



 36 39  0  0  0  0  0  0  0  0999 V2000
    0.8363   65.6253   82.5956 C   0  0  0  0  0  0  0  0  0  0  0  0
    1.0175   66.7364   81.7534 C   0  0  0  0  0  0  0  0  0  0  0  0
    1.7239   67.8553   82.1947 C   0  0  0  0  0  0  0  0  0  0  0  0
    2.2109   67.9074   83.5001 C   0  0  0  0  0  0  0  0  0  0  0  0
    2.0198   66.8196   84.3564 C   0  0  0  0  0  0  0  0  0  0  0  0
    1.3433   65.6725   83.9162 C   0  0  0  0  0  0  0  0  0  0  0  0
   -2.0922   61.6802   82.1980 N   0  0  0  0  0  0  0  0  0  0  0  0
   -2.3684   60.7708   81.1598 C   0  0  0  0  0  0  0  0  0  0  0  0
   -3.1424   59.8233   81.3213 O   0  0  0  0  0  0  0  0  0  0  0  0
   -1.7209   60.9819   79.9225 N   0  0  0  0  0  0  0  0  0  0  0  0
   -2.0278   60.0282   78.8750 C   0  0  0  0  0  0  0  0  0  0  0  0
   -0.7841   61.9882   79.6266 C   0  0  0  0  0  0  0  0  0  0  0  0
   -0.2040   62.0972   78.5494 O   0  0  0  0  0  0  0  0  0  0  0  0
   -0.5548   62.8879   80.7337 C   0  0  0  0  0  0  0  0  0  0  0  0
    0.2719   63.9841   80.8060 N   0  0  0  0  0  0  0  0  0  0  0  0
    0.1372   64.4583   82.0368 C   0  0  0  0  0  0  0  0  0  0  0  0
   -0.7670   63.6881   82.7408 N   0  0  0  0  0  0  0  0  0  0  0  0
   -1.1990   62.6924   81.9209 C   0  0  0  0  0  0  0  0  0  0  0  0
   -1.0169   63.8554   83.7053 H   0  0  0  0  0  0  0  0  0  0  0  0
   -2.7369   61.5015   83.5024 C   0  0  0  0  0  0  0  0  0  0  0  0
   -1.9407   62.1048   84.6704 C   0  0  0  0  0  0  0  0  0  0  0  0
   -2.3599   62.6070   87.0958 C   0  0  0  0  0  0  0  0  0  0  0  0
   -2.7955   62.5269   85.8322 C   0  0  0  0  0  0  0  0  0  0  0  0
    1.9378   69.2532   81.1097 S   0  0  0  0  0  0  0  0  0  0  0  0
    1.3946   68.8744   79.8213 O   0  0  0  0  0  0  0  0  0  0  0  0
    3.3085   69.6965   81.2404 O   0  0  0  0  0  0  0  0  0  0  0  0
    0.9240   70.4292   81.7730 N   0  0  0  0  0  0  0  0  0  0  0  0
   -0.2579   70.8551   80.9725 C   0  0  0  0  0  0  0  0  0  0  0  0
   -0.9685   72.0528   81.6313 C   0  0  0  0  0  0  0  0  0  0  0  0
   -0.1172   73.2487   81.8105 N   0  0  0  0  0  0  0  0  0  0  0  0
   -0.2988   74.2098   80.7243 C   0  0  0  0  0  0  0  0  0  0  0  0
    1.3088   72.8898   81.9548 C   0  0  0  0  0  0  0  0  0  0  0  0
    1.5350   71.5083   82.5968 C   0  0  0  0  0  0  0  0  0  0  0  0
    1.1276   64.5667   84.7046 O   0  0  0  0  0  0  0  0  0  0  0  0
    0.4130   64.7463   85.9283 C   0  0  0  0  0  0  0  0  0  0  0  0
    1.1347   63.9533   87.0034 C   0  0  0  0  0  0  0  0  0  0  0  0
 22 23  2  0  0  0
 23 21  1  0  0  0
 21 20  1  0  0  0
 20  7  1  0  0  0
  7  8  1  0  0  0
  8  9  2  0  0  0
  8 10  1  0  0  0
 10 11  1  0  0  0
 10 12  1  0  0  0
 12 13  2  0  0  0
 12 14  1  0  0  0
 14 15  1  0  0  0
 15 16  2  0  0  0
 16  1  1  0  0  0
  1  2  1  0  0  0
  2  3  2  0  0  0
  3 24  1  0  0  0
 24 25  2  0  0  0
 24 26  2  0  0  0
 24 27  1  0  0  0
 27 28  1  0  0  0
 28 29  1  0  0  0
 29 30  1  0  0  0
 30 31  1  0  0  0
 30 32  1  0  0  0
 32 33  1  0  0  0
  3  4  1  0  0  0
  4  5  2  0  0  0
  5  6  1  0  0  0
  6 34  1  0  0  0
 34 35  1  0  0  0
 35 36  1  0  0  0
 16 17  1  0  0  0
 17 18  1  0  0  0
 18  7  1  0  0  0
 18 14  2  0  0  0
  6  1  2  0  0  0
 33 27  1  0  0  0
 17 19  1  0  0  0
M  END
> <minimizedAffinity>
-9.04253

$$$$



 36 39  0  0  0  0  0  0  0  0999 V2000
   -0.2612   63.7807   84.5340 C   0  0  0  0  0  0  0  0  0  0  0  0
   -0.7034   63.2483   83.3102 C   0  0  0  0  0  0  0  0  0  0  0  0
   -1.7948   62.3808   83.2651 C   0  0  0  0  0  0  0  0  0  0  0  0
   -2.4260   61.9859   84.4439 C   0  0  0  0  0  0  0  0  0  0  0  0
   -1.9843   62.4895   85.6704 C   0  0  0  0  0  0  0  0  0  0  0  0
   -0.9113   63.3909   85.7292 C   0  0  0  0  0  0  0  0  0  0  0  0
    2.5064   67.6833   83.3475 N   0  0  0  0  0  0  0  0  0  0  0  0
    3.7880   68.1228   83.7290 C   0  0  0  0  0  0  0  0  0  0  0  0
    4.2848   69.1491   83.2571 O   0  0  0  0  0  0  0  0  0  0  0  0
    4.4884   67.3398   84.6730 N   0  0  0  0  0  0  0  0  0  0  0  0
    5.8043   67.8207   85.0445 C   0  0  0  0  0  0  0  0  0  0  0  0
    4.0567   66.1299   85.2452 C   0  0  0  0  0  0  0  0  0  0  0  0
    4.7276   65.4544   86.0213 O   0  0  0  0  0  0  0  0  0  0  0  0
    2.7326   65.7438   84.8148 C   0  0  0  0  0  0  0  0  0  0  0  0
    1.9889   64.6438   85.1717 N   0  0  0  0  0  0  0  0  0  0  0  0
    0.8540   64.7385   84.4929 C   0  0  0  0  0  0  0  0  0  0  0  0
    0.8624   65.8833   83.7210 N   0  0  0  0  0  0  0  0  0  0  0  0
    2.0507   66.5148   83.9186 C   0  0  0  0  0  0  0  0  0  0  0  0
    0.1052   66.1544   83.1094 H   0  0  0  0  0  0  0  0  0  0  0  0
    1.7408   68.4598   82.3676 C   0  0  0  0  0  0  0  0  0  0  0  0
    2.0275   68.0655   80.9102 C   0  0  0  0  0  0  0  0  0  0  0  0
   -0.2929   67.1727   80.5500 C   0  0  0  0  0  0  0  0  0  0  0  0
    1.0269   67.1029   80.3350 C   0  0  0  0  0  0  0  0  0  0  0  0
   -2.3348   61.7162   81.7018 S   0  0  0  0  0  0  0  0  0  0  0  0
   -3.4821   62.4964   81.2852 O   0  0  0  0  0  0  0  0  0  0  0  0
   -2.4228   60.2799   81.8496 O   0  0  0  0  0  0  0  0  0  0  0  0
   -1.0584   62.0746   80.6561 N   0  0  0  0  0  0  0  0  0  0  0  0
   -1.0279   63.4309   80.0409 C   0  0  0  0  0  0  0  0  0  0  0  0
    0.0866   63.5321   78.9822 C   0  0  0  0  0  0  0  0  0  0  0  0
   -0.0298   62.5600   77.8738 N   0  0  0  0  0  0  0  0  0  0  0  0
   -0.6855   63.1465   76.7065 C   0  0  0  0  0  0  0  0  0  0  0  0
   -0.7256   61.3271   78.2968 C   0  0  0  0  0  0  0  0  0  0  0  0
   -0.5291   60.9884   79.7863 C   0  0  0  0  0  0  0  0  0  0  0  0
   -0.4322   63.9281   86.9009 O   0  0  0  0  0  0  0  0  0  0  0  0
   -0.8724   63.3508   88.1310 C   0  0  0  0  0  0  0  0  0  0  0  0
    0.3605   62.9062   88.8979 C   0  0  0  0  0  0  0  0  0  0  0  0
 22 23  2  0  0  0
 23 21  1  0  0  0
 21 20  1  0  0  0
 20  7  1  0  0  0
  7  8  1  0  0  0
  8  9  2  0  0  0
  8 10  1  0  0  0
 10 11  1  0  0  0
 10 12  1  0  0  0
 12 13  2  0  0  0
 12 14  1  0  0  0
 14 15  1  0  0  0
 15 16  2  0  0  0
 16  1  1  0  0  0
  1  2  1  0  0  0
  2  3  2  0  0  0
  3 24  1  0  0  0
 24 25  2  0  0  0
 24 26  2  0  0  0
 24 27  1  0  0  0
 27 28  1  0  0  0
 28 29  1  0  0  0
 29 30  1  0  0  0
 30 31  1  0  0  0
 30 32  1  0  0  0
 32 33  1  0  0  0
  3  4  1  0  0  0
  4  5  2  0  0  0
  5  6  1  0  0  0
  6 34  1  0  0  0
 34 35  1  0  0  0
 35 36  1  0  0  0
 16 17  1  0  0  0
 17 18  1  0  0  0
 18  7  1  0  0  0
 18 14  2  0  0  0
  6  1  2  0  0  0
 33 27  1  0  0  0
 17 19  1  0  0  0
M  END
> <minimizedAffinity>
-8.98141

$$$$
