
     RDKit          3D

 32 34  0  0  0  0  0  0  0  0999 V2000
    3.3234   66.5572   84.5336 C   0  0  0  0  0  0  0  0  0  0  0  0
    4.0235   67.5788   83.8721 C   0  0  0  0  0  0  0  0  0  0  0  0
    3.4030   68.3511   82.8869 C   0  0  0  0  0  0  0  0  0  0  0  0
    2.0713   68.1071   82.5626 C   0  0  0  0  0  0  0  0  0  0  0  0
    1.3528   67.1014   83.2114 C   0  0  0  0  0  0  0  0  0  0  0  0
    1.9698   66.3156   84.2002 C   0  0  0  0  0  0  0  0  0  0  0  0
    1.1265   65.2456   84.8324 C   0  0  0  0  0  0  0  0  0  0  0  0
    0.2735   64.5712   84.1245 N   0  0  0  0  0  0  0  0  0  0  0  0
   -0.4862   63.5948   84.7519 C   0  0  0  0  0  0  0  0  0  0  0  0
   -0.3713   63.3087   86.0588 C   0  0  0  0  0  0  0  0  0  0  0  0
    0.6009   64.0600   86.8562 C   0  0  0  0  0  0  0  0  0  0  0  0
    0.7715   63.8248   88.0452 O   0  0  0  0  0  0  0  0  0  0  0  0
    1.2870   65.0152   86.1742 N   0  0  0  0  0  0  0  0  0  0  0  0
    1.9783   65.5366   86.6992 H   0  0  0  0  0  0  0  0  0  0  0  0
   -1.4794   62.8295   83.8934 C   0  0  0  0  0  0  0  0  0  0  0  0
   -2.5849   62.4454   84.5897 F   0  0  0  0  0  0  0  0  0  0  0  0
   -1.9260   63.5686   82.8443 F   0  0  0  0  0  0  0  0  0  0  0  0
   -0.9394   61.6931   83.3786 F   0  0  0  0  0  0  0  0  0  0  0  0
    1.2635   69.0762   81.3109 S   0  0  0  0  0  0  0  0  0  0  0  0
    2.2969   69.5020   80.3933 O   0  0  0  0  0  0  0  0  0  0  0  0
    0.1081   68.3356   80.8534 O   0  0  0  0  0  0  0  0  0  0  0  0
    0.7152   70.4278   82.1850 N   0  0  0  0  0  0  0  0  0  0  0  0
   -0.5770   71.0401   81.7495 C   0  0  0  0  0  0  0  0  0  0  0  0
   -0.3952   72.0756   80.6187 C   0  0  0  0  0  0  0  0  0  0  0  0
    0.6307   73.1083   80.8658 N   0  0  0  0  0  0  0  0  0  0  0  0
    0.1811   74.1018   81.8380 C   0  0  0  0  0  0  0  0  0  0  0  0
    1.8916   72.4588   81.2806 C   0  0  0  0  0  0  0  0  0  0  0  0
    1.7508   71.4708   82.4538 C   0  0  0  0  0  0  0  0  0  0  0  0
    3.8863   65.7672   85.5041 O   0  0  0  0  0  0  0  0  0  0  0  0
    5.1818   66.1148   85.9994 C   0  0  0  0  0  0  0  0  0  0  0  0
    7.3640   65.9370   84.7230 C   0  0  0  0  0  0  0  0  0  0  0  0
    6.2120   65.1797   85.3687 C   0  0  0  0  0  0  0  0  0  0  0  0
 31 32  1  0
 32 30  1  0
 30 29  1  0
 29  1  1  0
  1  2  1  0
  2  3  2  0
  3  4  1  0
  4 19  1  0
 19 20  2  0
 19 21  2  0
 19 22  1  0
 22 23  1  0
 23 24  1  0
 24 25  1  0
 25 26  1  0
 25 27  1  0
 27 28  1  0
  4  5  2  0
  5  6  1  0
  6  7  1  0
  7  8  2  0
  8  9  1  0
  9 15  1  0
 15 16  1  0
 15 17  1  0
 15 18  1  0
  9 10  2  0
 10 11  1  0
 11 12  2  0
 11 13  1  0
  6  1  2  0
 13  7  1  0
 28 22  1  0
 13 14  1  0
M  END
>  <minimizedAffinity>  (1) 
-9.49729

$$$$
