
     RDKit          3D

 70 73  0  0  0  0  0  0  0  0999 V2000
   -1.4225    3.8178    1.8828 C   0  0  0  0  0  0  0  0  0  0  0  0
   -0.3414    4.4628    1.0278 C   0  0  0  0  0  0  0  0  0  0  0  0
   -0.5092    4.1526   -0.4601 C   0  0  0  0  0  0  0  0  0  0  0  0
   -0.4860    2.7489   -0.7314 O   0  0  0  0  0  0  0  0  0  0  0  0
    0.7161    2.0852   -0.7948 C   0  0  0  0  0  0  0  0  0  0  0  0
    1.9652    2.7205   -0.7174 C   0  0  0  0  0  0  0  0  0  0  0  0
    3.1502    1.9821   -0.7729 C   0  0  0  0  0  0  0  0  0  0  0  0
    3.0906    0.5991   -0.9169 C   0  0  0  0  0  0  0  0  0  0  0  0
    4.5874   -0.3550   -0.9756 S   0  0  0  0  0  0  0  0  0  0  0  0
    5.6574    0.4706   -0.4580 O   0  0  0  0  0  0  0  0  0  0  0  0
    4.6574   -0.9290   -2.3013 O   0  0  0  0  0  0  0  0  0  0  0  0
    4.2933   -1.5970    0.1463 N   0  0  0  0  0  0  0  0  0  0  0  0
    4.1609   -1.2014    1.5810 C   0  0  0  0  0  0  0  0  0  0  0  0
    5.5218   -1.1338    2.3071 C   0  0  0  0  0  0  0  0  0  0  0  0
    6.3801   -2.3262    2.1565 N   0  0  0  0  0  0  0  0  0  0  0  0
    5.8939   -3.4503    2.9534 C   0  0  0  0  0  0  0  0  0  0  0  0
    6.4910   -2.6718    0.7236 C   0  0  0  0  0  0  0  0  0  0  0  0
    5.1448   -2.8128   -0.0116 C   0  0  0  0  0  0  0  0  0  0  0  0
    1.8600   -0.0524   -1.0034 C   0  0  0  0  0  0  0  0  0  0  0  0
    0.6596    0.6774   -0.9432 C   0  0  0  0  0  0  0  0  0  0  0  0
   -0.5973   -0.0825   -1.0339 C   0  0  0  0  0  0  0  0  0  0  0  0
   -0.7224   -1.3967   -0.9147 N   0  0  0  0  0  0  0  0  0  0  0  0
   -2.0581   -1.6652   -1.0932 C   0  0  0  0  0  0  0  0  0  0  0  0
   -2.7396   -2.9386   -1.0739 C   0  0  0  0  0  0  0  0  0  0  0  0
   -2.1580   -4.0044   -0.8863 O   0  0  0  0  0  0  0  0  0  0  0  0
   -4.1218   -2.8244   -1.3008 N   0  0  0  0  0  0  0  0  0  0  0  0
   -4.8905   -4.0532   -1.3237 C   0  0  0  0  0  0  0  0  0  0  0  0
   -4.8278   -1.6417   -1.6041 C   0  0  0  0  0  0  0  0  0  0  0  0
   -6.0271   -1.6713   -1.8955 O   0  0  0  0  0  0  0  0  0  0  0  0
   -4.1114   -0.4280   -1.5663 N   0  0  0  0  0  0  0  0  0  0  0  0
   -4.8167    0.8226   -1.8546 C   0  0  0  0  0  0  0  0  0  0  0  0
   -5.4187    1.5448   -0.6296 C   0  0  0  0  0  0  0  0  0  0  0  0
   -4.3559    2.0408    0.3488 C   0  0  0  0  0  0  0  0  0  0  0  0
   -6.4661    0.7117    0.1079 C   0  0  0  0  0  0  0  0  0  0  0  0
   -2.7555   -0.5145   -1.3257 C   0  0  0  0  0  0  0  0  0  0  0  0
   -1.8311    0.4844   -1.2857 N   0  0  0  0  0  0  0  0  0  0  0  0
   -1.4042    2.7271    1.7947 H   0  0  0  0  0  0  0  0  0  0  0  0
   -1.2718    4.0729    2.9365 H   0  0  0  0  0  0  0  0  0  0  0  0
   -2.4150    4.1729    1.5891 H   0  0  0  0  0  0  0  0  0  0  0  0
   -0.3687    5.5486    1.1725 H   0  0  0  0  0  0  0  0  0  0  0  0
    0.6317    4.1118    1.3863 H   0  0  0  0  0  0  0  0  0  0  0  0
   -1.4959    4.5075   -0.7815 H   0  0  0  0  0  0  0  0  0  0  0  0
    0.2101    4.6981   -1.0806 H   0  0  0  0  0  0  0  0  0  0  0  0
    2.0613    3.7957   -0.6085 H   0  0  0  0  0  0  0  0  0  0  0  0
    4.1089    2.4933   -0.7088 H   0  0  0  0  0  0  0  0  0  0  0  0
    3.6478   -0.2386    1.6711 H   0  0  0  0  0  0  0  0  0  0  0  0
    3.5079   -1.9354    2.0685 H   0  0  0  0  0  0  0  0  0  0  0  0
    6.0862   -0.2700    1.9372 H   0  0  0  0  0  0  0  0  0  0  0  0
    5.3529   -0.9278    3.3715 H   0  0  0  0  0  0  0  0  0  0  0  0
    5.8851   -3.1854    4.0166 H   0  0  0  0  0  0  0  0  0  0  0  0
    4.8859   -3.7758    2.6779 H   0  0  0  0  0  0  0  0  0  0  0  0
    6.5681   -4.3082    2.8534 H   0  0  0  0  0  0  0  0  0  0  0  0
    7.0690   -3.5969    0.6080 H   0  0  0  0  0  0  0  0  0  0  0  0
    7.0862   -1.8913    0.2329 H   0  0  0  0  0  0  0  0  0  0  0  0
    4.5818   -3.6704    0.3758 H   0  0  0  0  0  0  0  0  0  0  0  0
    5.3188   -3.0304   -1.0704 H   0  0  0  0  0  0  0  0  0  0  0  0
    1.8309   -1.1363   -1.1209 H   0  0  0  0  0  0  0  0  0  0  0  0
   -4.3581   -4.8845   -0.8542 H   0  0  0  0  0  0  0  0  0  0  0  0
   -5.1019   -4.3091   -2.3670 H   0  0  0  0  0  0  0  0  0  0  0  0
   -5.8414   -3.9094   -0.8006 H   0  0  0  0  0  0  0  0  0  0  0  0
   -4.1284    1.4969   -2.3791 H   0  0  0  0  0  0  0  0  0  0  0  0
   -5.6236    0.6118   -2.5675 H   0  0  0  0  0  0  0  0  0  0  0  0
   -5.9329    2.4345   -1.0179 H   0  0  0  0  0  0  0  0  0  0  0  0
   -3.6177    2.6645   -0.1645 H   0  0  0  0  0  0  0  0  0  0  0  0
   -3.8344    1.2128    0.8388 H   0  0  0  0  0  0  0  0  0  0  0  0
   -4.8125    2.6526    1.1346 H   0  0  0  0  0  0  0  0  0  0  0  0
   -6.9442    1.3054    0.8948 H   0  0  0  0  0  0  0  0  0  0  0  0
   -6.0231   -0.1690    0.5835 H   0  0  0  0  0  0  0  0  0  0  0  0
   -7.2534    0.3797   -0.5763 H   0  0  0  0  0  0  0  0  0  0  0  0
   -1.9784    1.4762   -1.4065 H   0  0  0  0  0  0  0  0  0  0  0  0
  1  2  1  0
  2  3  1  0
  3  4  1  0
  4  5  1  0
  5  6  1  0
  6  7  2  0
  7  8  1  0
  8  9  1  0
  9 10  2  0
  9 11  2  0
  9 12  1  0
 12 13  1  0
 13 14  1  0
 14 15  1  0
 15 16  1  0
 15 17  1  0
 17 18  1  0
  8 19  2  0
 19 20  1  0
 20 21  1  0
 21 22  2  0
 22 23  1  0
 23 24  1  0
 24 25  2  0
 24 26  1  0
 26 27  1  0
 26 28  1  0
 28 29  2  0
 28 30  1  0
 30 31  1  0
 31 32  1  0
 32 33  1  0
 32 34  1  0
 30 35  1  0
 35 36  1  0
 20  5  2  0
 36 21  1  0
 18 12  1  0
 35 23  2  0
  1 37  1  0
  1 38  1  0
  1 39  1  0
  2 40  1  0
  2 41  1  0
  3 42  1  0
  3 43  1  0
  6 44  1  0
  7 45  1  0
 13 46  1  0
 13 47  1  0
 14 48  1  0
 14 49  1  0
 16 50  1  0
 16 51  1  0
 16 52  1  0
 17 53  1  0
 17 54  1  0
 18 55  1  0
 18 56  1  0
 19 57  1  0
 27 58  1  0
 27 59  1  0
 27 60  1  0
 31 61  1  0
 31 62  1  0
 32 63  1  0
 33 64  1  0
 33 65  1  0
 33 66  1  0
 34 67  1  0
 34 68  1  0
 34 69  1  0
 36 70  1  0
M  END
$$$$
