


 32 36  0  0  0  0  0  0  0  0999 V2000
   -0.0985   63.4091   83.2651 N   0  0  0  0  0  0  0  0  0  0  0  0
    0.9536   64.2626   83.0894 N   0  0  0  0  0  0  0  0  0  0  0  0
    1.2581   64.7052   84.3137 C   0  0  0  0  0  0  0  0  0  0  0  0
    0.3796   64.1827   85.2966 C   0  0  0  0  0  0  0  0  0  0  0  0
    0.2386   64.3328   86.6897 C   0  0  0  0  0  0  0  0  0  0  0  0
   -0.7747   63.6336   87.3404 C   0  0  0  0  0  0  0  0  0  0  0  0
   -0.9164   63.7707   88.6657 F   0  0  0  0  0  0  0  0  0  0  0  0
   -1.6407   62.7997   86.6495 C   0  0  0  0  0  0  0  0  0  0  0  0
   -1.5176   62.6374   85.2663 C   0  0  0  0  0  0  0  0  0  0  0  0
   -0.4943   63.3429   84.6017 C   0  0  0  0  0  0  0  0  0  0  0  0
   -1.4635   59.7539   78.0812 C   0  0  0  0  0  0  0  0  0  0  0  0
   -2.4084   60.5035   79.0223 C   0  0  0  0  0  0  0  0  0  0  0  0
   -3.5712   61.1527   78.2694 C   0  0  0  0  0  0  0  0  0  0  0  0
   -3.0005   59.4770   80.0201 C   0  0  0  0  0  0  0  0  0  0  0  0
   -3.6747   58.4963   79.7550 O   0  0  0  0  0  0  0  0  0  0  0  0
   -2.6257   59.8714   81.2875 N   0  0  0  0  0  0  0  0  0  0  0  0
   -1.8652   61.0215   81.2578 C   0  0  0  0  0  0  0  0  0  0  0  0
   -1.3863   61.5950   82.3570 N   0  0  0  0  0  0  0  0  0  0  0  0
   -0.6657   62.7109   82.1359 C   0  0  0  0  0  0  0  0  0  0  0  0
   -0.4375   63.2206   80.8995 N   0  0  0  0  0  0  0  0  0  0  0  0
   -0.9555   62.5843   79.8285 C   0  0  0  0  0  0  0  0  0  0  0  0
   -0.5249   63.4774   77.9931 I   0  0  0  0  0  0  0  0  0  0  0  0
   -1.6981   61.4480   79.9580 C   0  0  0  0  0  0  0  0  0  0  0  0
   -2.8755   59.3807   82.1314 H   0  0  0  0  0  0  0  0  0  0  0  0
    2.3886   65.6656   84.5002 C   0  0  0  0  0  0  0  0  0  0  0  0
    2.0839   66.8557   83.6275 C   0  0  0  0  0  0  0  0  0  0  0  0
    1.2626   66.7332   82.4947 C   0  0  0  0  0  0  0  0  0  0  0  0
    0.9874   67.8439   81.6929 C   0  0  0  0  0  0  0  0  0  0  0  0
    1.5259   69.0900   82.0128 C   0  0  0  0  0  0  0  0  0  0  0  0
    2.3400   69.2255   83.1355 C   0  0  0  0  0  0  0  0  0  0  0  0
    2.6106   68.1146   83.9299 C   0  0  0  0  0  0  0  0  0  0  0  0
    3.3927   68.2706   85.0080 F   0  0  0  0  0  0  0  0  0  0  0  0
 11 12  1  0  0  0
 12 13  1  0  0  0
 12 14  1  0  0  0
 14 15  2  0  0  0
 14 16  1  0  0  0
 16 17  1  0  0  0
 17 18  2  0  0  0
 18 19  1  0  0  0
 19  1  1  0  0  0
  1  2  1  0  0  0
  2  3  2  0  0  0
  3 25  1  0  0  0
 25 26  1  0  0  0
 26 27  2  0  0  0
 27 28  1  0  0  0
 28 29  2  0  0  0
 29 30  1  0  0  0
 30 31  2  0  0  0
 31 32  1  0  0  0
  3  4  1  0  0  0
  4  5  2  0  0  0
  5  6  1  0  0  0
  6  7  1  0  0  0
  6  8  2  0  0  0
  8  9  1  0  0  0
  9 10  2  0  0  0
 19 20  2  0  0  0
 20 21  1  0  0  0
 21 22  1  0  0  0
 21 23  2  0  0  0
 23 12  1  0  0  0
 23 17  1  0  0  0
 10  1  1  0  0  0
 31 26  1  0  0  0
 10  4  1  0  0  0
 16 24  1  0  0  0
M  END
> <minimizedAffinity>
-12.50388

$$$$



 32 36  0  0  0  0  0  0  0  0999 V2000
    0.0961   64.1613   82.9740 N   0  0  0  0  0  0  0  0  0  0  0  0
    0.7436   65.3621   82.9025 N   0  0  0  0  0  0  0  0  0  0  0  0
    1.0458   65.6765   84.1664 C   0  0  0  0  0  0  0  0  0  0  0  0
    0.5587   64.7086   85.0812 C   0  0  0  0  0  0  0  0  0  0  0  0
    0.5761   64.5618   86.4816 C   0  0  0  0  0  0  0  0  0  0  0  0
   -0.0213   63.4374   87.0455 C   0  0  0  0  0  0  0  0  0  0  0  0
   -0.0097   63.2897   88.3772 F   0  0  0  0  0  0  0  0  0  0  0  0
   -0.6284   62.4678   86.2619 C   0  0  0  0  0  0  0  0  0  0  0  0
   -0.6567   62.5952   84.8699 C   0  0  0  0  0  0  0  0  0  0  0  0
   -0.0541   63.7313   84.2930 C   0  0  0  0  0  0  0  0  0  0  0  0
   -0.6394   60.8615   77.4362 C   0  0  0  0  0  0  0  0  0  0  0  0
   -1.6981   61.3720   78.4155 C   0  0  0  0  0  0  0  0  0  0  0  0
   -2.9327   61.9146   77.6932 C   0  0  0  0  0  0  0  0  0  0  0  0
   -2.1470   60.1792   79.2963 C   0  0  0  0  0  0  0  0  0  0  0  0
   -2.6654   59.1411   78.9221 O   0  0  0  0  0  0  0  0  0  0  0  0
   -1.8530   60.5004   80.6051 N   0  0  0  0  0  0  0  0  0  0  0  0
   -1.2699   61.7463   80.7040 C   0  0  0  0  0  0  0  0  0  0  0  0
   -0.8969   62.2751   81.8649 N   0  0  0  0  0  0  0  0  0  0  0  0
   -0.3454   63.4998   81.7690 C   0  0  0  0  0  0  0  0  0  0  0  0
   -0.1767   64.1536   80.5923 N   0  0  0  0  0  0  0  0  0  0  0  0
   -0.5796   63.5546   79.4525 C   0  0  0  0  0  0  0  0  0  0  0  0
   -0.2585   64.6728   77.7211 I   0  0  0  0  0  0  0  0  0  0  0  0
   -1.1485   62.3153   79.4547 C   0  0  0  0  0  0  0  0  0  0  0  0
   -2.0402   59.8999   81.3923 H   0  0  0  0  0  0  0  0  0  0  0  0
    1.7804   66.9440   84.4648 C   0  0  0  0  0  0  0  0  0  0  0  0
    3.2311   66.5677   84.6224 C   0  0  0  0  0  0  0  0  0  0  0  0
    3.6058   65.3782   85.2683 C   0  0  0  0  0  0  0  0  0  0  0  0
    4.9543   65.0400   85.4086 C   0  0  0  0  0  0  0  0  0  0  0  0
    5.9444   65.8829   84.9044 C   0  0  0  0  0  0  0  0  0  0  0  0
    5.5857   67.0647   84.2591 C   0  0  0  0  0  0  0  0  0  0  0  0
    4.2403   67.3958   84.1231 C   0  0  0  0  0  0  0  0  0  0  0  0
    3.9195   68.5359   83.4940 F   0  0  0  0  0  0  0  0  0  0  0  0
 11 12  1  0  0  0
 12 13  1  0  0  0
 12 14  1  0  0  0
 14 15  2  0  0  0
 14 16  1  0  0  0
 16 17  1  0  0  0
 17 18  2  0  0  0
 18 19  1  0  0  0
 19  1  1  0  0  0
  1  2  1  0  0  0
  2  3  2  0  0  0
  3 25  1  0  0  0
 25 26  1  0  0  0
 26 27  2  0  0  0
 27 28  1  0  0  0
 28 29  2  0  0  0
 29 30  1  0  0  0
 30 31  2  0  0  0
 31 32  1  0  0  0
  3  4  1  0  0  0
  4  5  2  0  0  0
  5  6  1  0  0  0
  6  7  1  0  0  0
  6  8  2  0  0  0
  8  9  1  0  0  0
  9 10  2  0  0  0
 19 20  2  0  0  0
 20 21  1  0  0  0
 21 22  1  0  0  0
 21 23  2  0  0  0
 23 12  1  0  0  0
 23 17  1  0  0  0
 10  1  1  0  0  0
 31 26  1  0  0  0
 10  4  1  0  0  0
 16 24  1  0  0  0
M  END
> <minimizedAffinity>
-12.38768

$$$$



 32 36  0  0  0  0  0  0  0  0999 V2000
    0.0676   63.9067   82.1764 N   0  0  0  0  0  0  0  0  0  0  0  0
    0.8611   64.9301   81.7415 N   0  0  0  0  0  0  0  0  0  0  0  0
    1.3153   65.5215   82.8512 C   0  0  0  0  0  0  0  0  0  0  0  0
    0.7871   64.9211   84.0223 C   0  0  0  0  0  0  0  0  0  0  0  0
    0.9107   65.1542   85.4056 C   0  0  0  0  0  0  0  0  0  0  0  0
    0.2211   64.3278   86.2892 C   0  0  0  0  0  0  0  0  0  0  0  0
    0.3326   64.5425   87.6070 F   0  0  0  0  0  0  0  0  0  0  0  0
   -0.5785   63.2888   85.8376 C   0  0  0  0  0  0  0  0  0  0  0  0
   -0.7146   63.0411   84.4683 C   0  0  0  0  0  0  0  0  0  0  0  0
   -0.0196   63.8745   83.5688 C   0  0  0  0  0  0  0  0  0  0  0  0
   -1.5857   59.4367   77.7739 C   0  0  0  0  0  0  0  0  0  0  0  0
   -2.4764   60.3007   78.6688 C   0  0  0  0  0  0  0  0  0  0  0  0
   -3.7255   60.7897   77.9332 C   0  0  0  0  0  0  0  0  0  0  0  0
   -2.9376   59.4304   79.8646 C   0  0  0  0  0  0  0  0  0  0  0  0
   -3.5910   58.4020   79.8186 O   0  0  0  0  0  0  0  0  0  0  0  0
   -2.4718   60.0318   81.0151 N   0  0  0  0  0  0  0  0  0  0  0  0
   -1.7649   61.1827   80.7368 C   0  0  0  0  0  0  0  0  0  0  0  0
   -1.2174   61.9368   81.6844 N   0  0  0  0  0  0  0  0  0  0  0  0
   -0.5652   63.0223   81.2267 C   0  0  0  0  0  0  0  0  0  0  0  0
   -0.4654   63.3347   79.9103 N   0  0  0  0  0  0  0  0  0  0  0  0
   -1.0468   62.5220   79.0038 C   0  0  0  0  0  0  0  0  0  0  0  0
   -0.8129   63.1228   77.0198 I   0  0  0  0  0  0  0  0  0  0  0  0
   -1.7280   61.4011   79.3765 C   0  0  0  0  0  0  0  0  0  0  0  0
   -2.6277   59.6751   81.9446 H   0  0  0  0  0  0  0  0  0  0  0  0
    2.2369   66.6942   82.7481 C   0  0  0  0  0  0  0  0  0  0  0  0
    1.4418   67.8053   82.1126 C   0  0  0  0  0  0  0  0  0  0  0  0
    0.5497   67.5480   81.0587 C   0  0  0  0  0  0  0  0  0  0  0  0
   -0.1820   68.5866   80.4772 C   0  0  0  0  0  0  0  0  0  0  0  0
   -0.0344   69.8934   80.9414 C   0  0  0  0  0  0  0  0  0  0  0  0
    0.8454   70.1617   81.9882 C   0  0  0  0  0  0  0  0  0  0  0  0
    1.5717   69.1222   82.5629 C   0  0  0  0  0  0  0  0  0  0  0  0
    2.4085   69.4041   83.5722 F   0  0  0  0  0  0  0  0  0  0  0  0
 11 12  1  0  0  0
 12 13  1  0  0  0
 12 14  1  0  0  0
 14 15  2  0  0  0
 14 16  1  0  0  0
 16 17  1  0  0  0
 17 18  2  0  0  0
 18 19  1  0  0  0
 19  1  1  0  0  0
  1  2  1  0  0  0
  2  3  2  0  0  0
  3 25  1  0  0  0
 25 26  1  0  0  0
 26 27  2  0  0  0
 27 28  1  0  0  0
 28 29  2  0  0  0
 29 30  1  0  0  0
 30 31  2  0  0  0
 31 32  1  0  0  0
  3  4  1  0  0  0
  4  5  2  0  0  0
  5  6  1  0  0  0
  6  7  1  0  0  0
  6  8  2  0  0  0
  8  9  1  0  0  0
  9 10  2  0  0  0
 19 20  2  0  0  0
 20 21  1  0  0  0
 21 22  1  0  0  0
 21 23  2  0  0  0
 23 12  1  0  0  0
 23 17  1  0  0  0
 10  1  1  0  0  0
 31 26  1  0  0  0
 10  4  1  0  0  0
 16 24  1  0  0  0
M  END
> <minimizedAffinity>
-12.36250

$$$$



 32 36  0  0  0  0  0  0  0  0999 V2000
    1.6541   66.2723   83.9226 N   0  0  0  0  0  0  0  0  0  0  0  0
    2.7987   66.7959   84.4536 N   0  0  0  0  0  0  0  0  0  0  0  0
    3.2504   67.6591   83.5380 C   0  0  0  0  0  0  0  0  0  0  0  0
    2.4324   67.6750   82.3798 C   0  0  0  0  0  0  0  0  0  0  0  0
    2.4601   68.3573   81.1482 C   0  0  0  0  0  0  0  0  0  0  0  0
    1.4497   68.1111   80.2222 C   0  0  0  0  0  0  0  0  0  0  0  0
    1.4682   68.7555   79.0477 F   0  0  0  0  0  0  0  0  0  0  0  0
    0.4255   67.2144   80.4865 C   0  0  0  0  0  0  0  0  0  0  0  0
    0.3802   66.5268   81.7030 C   0  0  0  0  0  0  0  0  0  0  0  0
    1.4005   66.7713   82.6443 C   0  0  0  0  0  0  0  0  0  0  0  0
   -0.8481   61.1923   87.0896 C   0  0  0  0  0  0  0  0  0  0  0  0
   -1.3012   62.6534   87.0769 C   0  0  0  0  0  0  0  0  0  0  0  0
   -2.8257   62.7805   87.0607 C   0  0  0  0  0  0  0  0  0  0  0  0
   -0.7807   63.3251   88.3722 C   0  0  0  0  0  0  0  0  0  0  0  0
   -1.0464   63.0148   89.5210 O   0  0  0  0  0  0  0  0  0  0  0  0
    0.0531   64.3568   87.9945 N   0  0  0  0  0  0  0  0  0  0  0  0
    0.1516   64.4545   86.6224 C   0  0  0  0  0  0  0  0  0  0  0  0
    0.8985   65.3734   86.0191 N   0  0  0  0  0  0  0  0  0  0  0  0
    0.8735   65.3179   84.6739 C   0  0  0  0  0  0  0  0  0  0  0  0
    0.1512   64.4054   83.9766 N   0  0  0  0  0  0  0  0  0  0  0  0
   -0.5845   63.5019   84.6568 C   0  0  0  0  0  0  0  0  0  0  0  0
   -1.6418   62.1611   83.4586 I   0  0  0  0  0  0  0  0  0  0  0  0
   -0.6191   63.4837   86.0198 C   0  0  0  0  0  0  0  0  0  0  0  0
    0.5321   64.9643   88.6402 H   0  0  0  0  0  0  0  0  0  0  0  0
    4.5023   68.4344   83.7970 C   0  0  0  0  0  0  0  0  0  0  0  0
    5.4031   67.5315   84.5996 C   0  0  0  0  0  0  0  0  0  0  0  0
    6.2823   66.6367   83.9682 C   0  0  0  0  0  0  0  0  0  0  0  0
    7.1126   65.8043   84.7232 C   0  0  0  0  0  0  0  0  0  0  0  0
    7.0775   65.8563   86.1164 C   0  0  0  0  0  0  0  0  0  0  0  0
    6.2116   66.7417   86.7551 C   0  0  0  0  0  0  0  0  0  0  0  0
    5.3867   67.5680   85.9968 C   0  0  0  0  0  0  0  0  0  0  0  0
    4.5653   68.4153   86.6339 F   0  0  0  0  0  0  0  0  0  0  0  0
 11 12  1  0  0  0
 12 13  1  0  0  0
 12 14  1  0  0  0
 14 15  2  0  0  0
 14 16  1  0  0  0
 16 17  1  0  0  0
 17 18  2  0  0  0
 18 19  1  0  0  0
 19  1  1  0  0  0
  1  2  1  0  0  0
  2  3  2  0  0  0
  3 25  1  0  0  0
 25 26  1  0  0  0
 26 27  2  0  0  0
 27 28  1  0  0  0
 28 29  2  0  0  0
 29 30  1  0  0  0
 30 31  2  0  0  0
 31 32  1  0  0  0
  3  4  1  0  0  0
  4  5  2  0  0  0
  5  6  1  0  0  0
  6  7  1  0  0  0
  6  8  2  0  0  0
  8  9  1  0  0  0
  9 10  2  0  0  0
 19 20  2  0  0  0
 20 21  1  0  0  0
 21 22  1  0  0  0
 21 23  2  0  0  0
 23 12  1  0  0  0
 23 17  1  0  0  0
 10  1  1  0  0  0
 31 26  1  0  0  0
 10  4  1  0  0  0
 16 24  1  0  0  0
M  END
> <minimizedAffinity>
-12.34591

$$$$



 32 36  0  0  0  0  0  0  0  0999 V2000
    0.0789   63.8331   82.4455 N   0  0  0  0  0  0  0  0  0  0  0  0
    0.2464   63.3792   83.7230 N   0  0  0  0  0  0  0  0  0  0  0  0
    0.7809   64.4039   84.3951 C   0  0  0  0  0  0  0  0  0  0  0  0
    1.0118   65.5224   83.5545 C   0  0  0  0  0  0  0  0  0  0  0  0
    1.5571   66.8085   83.7324 C   0  0  0  0  0  0  0  0  0  0  0  0
    1.6203   67.6674   82.6382 C   0  0  0  0  0  0  0  0  0  0  0  0
    2.1379   68.8929   82.7983 F   0  0  0  0  0  0  0  0  0  0  0  0
    1.1612   67.2845   81.3871 C   0  0  0  0  0  0  0  0  0  0  0  0
    0.6168   66.0119   81.1896 C   0  0  0  0  0  0  0  0  0  0  0  0
    0.5505   65.1376   82.2931 C   0  0  0  0  0  0  0  0  0  0  0  0
   -1.4296   59.4921   77.8653 C   0  0  0  0  0  0  0  0  0  0  0  0
   -2.3485   60.3598   78.7274 C   0  0  0  0  0  0  0  0  0  0  0  0
   -3.5428   60.8936   77.9342 C   0  0  0  0  0  0  0  0  0  0  0  0
   -2.8959   59.4778   79.8773 C   0  0  0  0  0  0  0  0  0  0  0  0
   -3.5696   58.4668   79.7737 O   0  0  0  0  0  0  0  0  0  0  0  0
   -2.4814   60.0449   81.0643 N   0  0  0  0  0  0  0  0  0  0  0  0
   -1.7333   61.1834   80.8497 C   0  0  0  0  0  0  0  0  0  0  0  0
   -1.2222   61.9052   81.8419 N   0  0  0  0  0  0  0  0  0  0  0  0
   -0.5204   62.9832   81.4439 C   0  0  0  0  0  0  0  0  0  0  0  0
   -0.3399   63.3188   80.1418 N   0  0  0  0  0  0  0  0  0  0  0  0
   -0.8885   62.5386   79.1876 C   0  0  0  0  0  0  0  0  0  0  0  0
   -0.5301   63.1723   77.2328 I   0  0  0  0  0  0  0  0  0  0  0  0
   -1.6153   61.4275   79.4985 C   0  0  0  0  0  0  0  0  0  0  0  0
   -2.6972   59.6740   81.9760 H   0  0  0  0  0  0  0  0  0  0  0  0
    1.0921   64.2608   85.8504 C   0  0  0  0  0  0  0  0  0  0  0  0
   -0.1383   63.6736   86.4925 C   0  0  0  0  0  0  0  0  0  0  0  0
   -1.2820   63.3779   85.7328 C   0  0  0  0  0  0  0  0  0  0  0  0
   -2.4170   62.8338   86.3395 C   0  0  0  0  0  0  0  0  0  0  0  0
   -2.4239   62.5762   87.7101 C   0  0  0  0  0  0  0  0  0  0  0  0
   -1.2946   62.8626   88.4746 C   0  0  0  0  0  0  0  0  0  0  0  0
   -0.1671   63.4050   87.8639 C   0  0  0  0  0  0  0  0  0  0  0  0
    0.9093   63.6676   88.6193 F   0  0  0  0  0  0  0  0  0  0  0  0
 11 12  1  0  0  0
 12 13  1  0  0  0
 12 14  1  0  0  0
 14 15  2  0  0  0
 14 16  1  0  0  0
 16 17  1  0  0  0
 17 18  2  0  0  0
 18 19  1  0  0  0
 19  1  1  0  0  0
  1  2  1  0  0  0
  2  3  2  0  0  0
  3 25  1  0  0  0
 25 26  1  0  0  0
 26 27  2  0  0  0
 27 28  1  0  0  0
 28 29  2  0  0  0
 29 30  1  0  0  0
 30 31  2  0  0  0
 31 32  1  0  0  0
  3  4  1  0  0  0
  4  5  2  0  0  0
  5  6  1  0  0  0
  6  7  1  0  0  0
  6  8  2  0  0  0
  8  9  1  0  0  0
  9 10  2  0  0  0
 19 20  2  0  0  0
 20 21  1  0  0  0
 21 22  1  0  0  0
 21 23  2  0  0  0
 23 12  1  0  0  0
 23 17  1  0  0  0
 10  1  1  0  0  0
 31 26  1  0  0  0
 10  4  1  0  0  0
 16 24  1  0  0  0
M  END
> <minimizedAffinity>
-12.25362

$$$$



 32 36  0  0  0  0  0  0  0  0999 V2000
    1.3389   66.2870   82.3619 N   0  0  0  0  0  0  0  0  0  0  0  0
    1.8717   66.3362   83.6188 N   0  0  0  0  0  0  0  0  0  0  0  0
    2.5823   67.4681   83.6575 C   0  0  0  0  0  0  0  0  0  0  0  0
    2.5599   68.1472   82.4129 C   0  0  0  0  0  0  0  0  0  0  0  0
    3.1369   69.3298   81.9111 C   0  0  0  0  0  0  0  0  0  0  0  0
    2.8794   69.6944   80.5921 C   0  0  0  0  0  0  0  0  0  0  0  0
    3.4244   70.8178   80.1062 F   0  0  0  0  0  0  0  0  0  0  0  0
    2.0732   68.9222   79.7696 C   0  0  0  0  0  0  0  0  0  0  0  0
    1.4914   67.7445   80.2485 C   0  0  0  0  0  0  0  0  0  0  0  0
    1.7487   67.3697   81.5827 C   0  0  0  0  0  0  0  0  0  0  0  0
   -3.5108   62.2638   80.8158 C   0  0  0  0  0  0  0  0  0  0  0  0
   -2.0026   62.0918   80.6258 C   0  0  0  0  0  0  0  0  0  0  0  0
   -1.5485   60.6593   80.9125 C   0  0  0  0  0  0  0  0  0  0  0  0
   -1.6692   62.4104   79.1468 C   0  0  0  0  0  0  0  0  0  0  0  0
   -2.0898   61.8366   78.1566 O   0  0  0  0  0  0  0  0  0  0  0  0
   -0.7960   63.4780   79.1424 N   0  0  0  0  0  0  0  0  0  0  0  0
   -0.5094   63.9056   80.4219 C   0  0  0  0  0  0  0  0  0  0  0  0
    0.3091   64.9220   80.6736 N   0  0  0  0  0  0  0  0  0  0  0  0
    0.4705   65.1980   81.9817 C   0  0  0  0  0  0  0  0  0  0  0  0
   -0.1446   64.5059   82.9732 N   0  0  0  0  0  0  0  0  0  0  0  0
   -0.9627   63.4853   82.6424 C   0  0  0  0  0  0  0  0  0  0  0  0
   -1.8403   62.5122   84.2655 I   0  0  0  0  0  0  0  0  0  0  0  0
   -1.1849   63.1351   81.3435 C   0  0  0  0  0  0  0  0  0  0  0  0
   -0.4142   63.8952   78.3084 H   0  0  0  0  0  0  0  0  0  0  0  0
    3.3054   67.8528   84.9083 C   0  0  0  0  0  0  0  0  0  0  0  0
    4.6011   67.0835   84.9041 C   0  0  0  0  0  0  0  0  0  0  0  0
    5.7648   67.6257   84.3345 C   0  0  0  0  0  0  0  0  0  0  0  0
    6.9604   66.9026   84.3364 C   0  0  0  0  0  0  0  0  0  0  0  0
    7.0100   65.6316   84.9084 C   0  0  0  0  0  0  0  0  0  0  0  0
    5.8631   65.0834   85.4792 C   0  0  0  0  0  0  0  0  0  0  0  0
    4.6749   65.8091   85.4735 C   0  0  0  0  0  0  0  0  0  0  0  0
    3.5856   65.2628   86.0331 F   0  0  0  0  0  0  0  0  0  0  0  0
 11 12  1  0  0  0
 12 13  1  0  0  0
 12 14  1  0  0  0
 14 15  2  0  0  0
 14 16  1  0  0  0
 16 17  1  0  0  0
 17 18  2  0  0  0
 18 19  1  0  0  0
 19  1  1  0  0  0
  1  2  1  0  0  0
  2  3  2  0  0  0
  3 25  1  0  0  0
 25 26  1  0  0  0
 26 27  2  0  0  0
 27 28  1  0  0  0
 28 29  2  0  0  0
 29 30  1  0  0  0
 30 31  2  0  0  0
 31 32  1  0  0  0
  3  4  1  0  0  0
  4  5  2  0  0  0
  5  6  1  0  0  0
  6  7  1  0  0  0
  6  8  2  0  0  0
  8  9  1  0  0  0
  9 10  2  0  0  0
 19 20  2  0  0  0
 20 21  1  0  0  0
 21 22  1  0  0  0
 21 23  2  0  0  0
 23 12  1  0  0  0
 23 17  1  0  0  0
 10  1  1  0  0  0
 31 26  1  0  0  0
 10  4  1  0  0  0
 16 24  1  0  0  0
M  END
> <minimizedAffinity>
-12.20799

$$$$



 32 36  0  0  0  0  0  0  0  0999 V2000
    0.5891   65.2035   82.1379 N   0  0  0  0  0  0  0  0  0  0  0  0
    1.3806   66.3165   82.1700 N   0  0  0  0  0  0  0  0  0  0  0  0
    1.5575   66.6615   80.8904 C   0  0  0  0  0  0  0  0  0  0  0  0
    0.9230   65.7518   80.0068 C   0  0  0  0  0  0  0  0  0  0  0  0
    0.8143   65.6313   78.6079 C   0  0  0  0  0  0  0  0  0  0  0  0
    0.0802   64.5718   78.0811 C   0  0  0  0  0  0  0  0  0  0  0  0
   -0.0284   64.4492   76.7513 F   0  0  0  0  0  0  0  0  0  0  0  0
   -0.5404   63.6404   78.8999 C   0  0  0  0  0  0  0  0  0  0  0  0
   -0.4440   63.7421   80.2910 C   0  0  0  0  0  0  0  0  0  0  0  0
    0.2981   64.8122   80.8304 C   0  0  0  0  0  0  0  0  0  0  0  0
   -0.5161   61.4422   87.3078 C   0  0  0  0  0  0  0  0  0  0  0  0
   -0.8961   62.9043   87.0661 C   0  0  0  0  0  0  0  0  0  0  0  0
   -2.2879   63.2322   87.6101 C   0  0  0  0  0  0  0  0  0  0  0  0
    0.1293   63.7930   87.8135 C   0  0  0  0  0  0  0  0  0  0  0  0
    0.3528   63.8115   89.0120 O   0  0  0  0  0  0  0  0  0  0  0  0
    0.7599   64.5767   86.8698 N   0  0  0  0  0  0  0  0  0  0  0  0
    0.2865   64.3227   85.5996 C   0  0  0  0  0  0  0  0  0  0  0  0
    0.7419   64.9552   84.5231 N   0  0  0  0  0  0  0  0  0  0  0  0
    0.1631   64.5777   83.3673 C   0  0  0  0  0  0  0  0  0  0  0  0
   -0.8058   63.6312   83.2906 N   0  0  0  0  0  0  0  0  0  0  0  0
   -1.2189   63.0307   84.4260 C   0  0  0  0  0  0  0  0  0  0  0  0
   -2.7106   61.5971   84.1593 I   0  0  0  0  0  0  0  0  0  0  0  0
   -0.6890   63.3500   85.6412 C   0  0  0  0  0  0  0  0  0  0  0  0
    1.4780   65.2513   87.0808 H   0  0  0  0  0  0  0  0  0  0  0  0
    2.3787   67.8630   80.5482 C   0  0  0  0  0  0  0  0  0  0  0  0
    1.5704   69.0638   80.9673 C   0  0  0  0  0  0  0  0  0  0  0  0
    0.3431   69.3623   80.3531 C   0  0  0  0  0  0  0  0  0  0  0  0
   -0.3974   70.4787   80.7501 C   0  0  0  0  0  0  0  0  0  0  0  0
    0.0762   71.3089   81.7657 C   0  0  0  0  0  0  0  0  0  0  0  0
    1.2911   71.0223   82.3850 C   0  0  0  0  0  0  0  0  0  0  0  0
    2.0241   69.9085   81.9843 C   0  0  0  0  0  0  0  0  0  0  0  0
    3.1880   69.6502   82.5983 F   0  0  0  0  0  0  0  0  0  0  0  0
 11 12  1  0  0  0
 12 13  1  0  0  0
 12 14  1  0  0  0
 14 15  2  0  0  0
 14 16  1  0  0  0
 16 17  1  0  0  0
 17 18  2  0  0  0
 18 19  1  0  0  0
 19  1  1  0  0  0
  1  2  1  0  0  0
  2  3  2  0  0  0
  3 25  1  0  0  0
 25 26  1  0  0  0
 26 27  2  0  0  0
 27 28  1  0  0  0
 28 29  2  0  0  0
 29 30  1  0  0  0
 30 31  2  0  0  0
 31 32  1  0  0  0
  3  4  1  0  0  0
  4  5  2  0  0  0
  5  6  1  0  0  0
  6  7  1  0  0  0
  6  8  2  0  0  0
  8  9  1  0  0  0
  9 10  2  0  0  0
 19 20  2  0  0  0
 20 21  1  0  0  0
 21 22  1  0  0  0
 21 23  2  0  0  0
 23 12  1  0  0  0
 23 17  1  0  0  0
 10  1  1  0  0  0
 31 26  1  0  0  0
 10  4  1  0  0  0
 16 24  1  0  0  0
M  END
> <minimizedAffinity>
-12.19464

$$$$



 32 36  0  0  0  0  0  0  0  0999 V2000
    1.4992   66.3228   82.6783 N   0  0  0  0  0  0  0  0  0  0  0  0
    2.1223   66.4127   83.8906 N   0  0  0  0  0  0  0  0  0  0  0  0
    2.8223   67.5509   83.8448 C   0  0  0  0  0  0  0  0  0  0  0  0
    2.7019   68.1933   82.5863 C   0  0  0  0  0  0  0  0  0  0  0  0
    3.2285   69.3653   82.0101 C   0  0  0  0  0  0  0  0  0  0  0  0
    2.8713   69.6894   80.7037 C   0  0  0  0  0  0  0  0  0  0  0  0
    3.3678   70.8025   80.1473 F   0  0  0  0  0  0  0  0  0  0  0  0
    2.0147   68.8872   79.9651 C   0  0  0  0  0  0  0  0  0  0  0  0
    1.4816   67.7194   80.5188 C   0  0  0  0  0  0  0  0  0  0  0  0
    1.8398   67.3856   81.8406 C   0  0  0  0  0  0  0  0  0  0  0  0
   -1.3749   60.6546   81.3713 C   0  0  0  0  0  0  0  0  0  0  0  0
   -1.9913   61.9788   81.8265 C   0  0  0  0  0  0  0  0  0  0  0  0
   -3.3195   62.2644   81.1231 C   0  0  0  0  0  0  0  0  0  0  0  0
   -2.2695   61.8771   83.3471 C   0  0  0  0  0  0  0  0  0  0  0  0
   -3.0005   61.0806   83.9108 O   0  0  0  0  0  0  0  0  0  0  0  0
   -1.5319   62.8639   83.9674 N   0  0  0  0  0  0  0  0  0  0  0  0
   -0.8045   63.6024   83.0578 C   0  0  0  0  0  0  0  0  0  0  0  0
   -0.0159   64.6102   83.4170 N   0  0  0  0  0  0  0  0  0  0  0  0
    0.6162   65.2163   82.3941 C   0  0  0  0  0  0  0  0  0  0  0  0
    0.4716   64.8414   81.0983 N   0  0  0  0  0  0  0  0  0  0  0  0
   -0.3465   63.8086   80.8082 C   0  0  0  0  0  0  0  0  0  0  0  0
   -0.4724   63.3413   78.7791 I   0  0  0  0  0  0  0  0  0  0  0  0
   -1.0271   63.1364   81.7800 C   0  0  0  0  0  0  0  0  0  0  0  0
   -1.5242   63.0259   84.9619 H   0  0  0  0  0  0  0  0  0  0  0  0
    3.6313   67.9776   85.0274 C   0  0  0  0  0  0  0  0  0  0  0  0
    4.9036   67.1712   84.9855 C   0  0  0  0  0  0  0  0  0  0  0  0
    6.0489   67.6566   84.3333 C   0  0  0  0  0  0  0  0  0  0  0  0
    7.2229   66.8996   84.3009 C   0  0  0  0  0  0  0  0  0  0  0  0
    7.2691   65.6511   84.9206 C   0  0  0  0  0  0  0  0  0  0  0  0
    6.1405   65.1592   85.5734 C   0  0  0  0  0  0  0  0  0  0  0  0
    4.9739   65.9185   85.6015 C   0  0  0  0  0  0  0  0  0  0  0  0
    3.9022   65.4265   86.2400 F   0  0  0  0  0  0  0  0  0  0  0  0
 11 12  1  0  0  0
 12 13  1  0  0  0
 12 14  1  0  0  0
 14 15  2  0  0  0
 14 16  1  0  0  0
 16 17  1  0  0  0
 17 18  2  0  0  0
 18 19  1  0  0  0
 19  1  1  0  0  0
  1  2  1  0  0  0
  2  3  2  0  0  0
  3 25  1  0  0  0
 25 26  1  0  0  0
 26 27  2  0  0  0
 27 28  1  0  0  0
 28 29  2  0  0  0
 29 30  1  0  0  0
 30 31  2  0  0  0
 31 32  1  0  0  0
  3  4  1  0  0  0
  4  5  2  0  0  0
  5  6  1  0  0  0
  6  7  1  0  0  0
  6  8  2  0  0  0
  8  9  1  0  0  0
  9 10  2  0  0  0
 19 20  2  0  0  0
 20 21  1  0  0  0
 21 22  1  0  0  0
 21 23  2  0  0  0
 23 12  1  0  0  0
 23 17  1  0  0  0
 10  1  1  0  0  0
 31 26  1  0  0  0
 10  4  1  0  0  0
 16 24  1  0  0  0
M  END
> <minimizedAffinity>
-12.15668

$$$$



 32 36  0  0  0  0  0  0  0  0999 V2000
    2.5612   66.1143   84.7138 N   0  0  0  0  0  0  0  0  0  0  0  0
    2.2054   67.1879   83.9479 N   0  0  0  0  0  0  0  0  0  0  0  0
    3.3578   67.7597   83.5835 C   0  0  0  0  0  0  0  0  0  0  0  0
    4.4770   67.0942   84.1451 C   0  0  0  0  0  0  0  0  0  0  0  0
    5.8720   67.2832   84.1082 C   0  0  0  0  0  0  0  0  0  0  0  0
    6.6878   66.3950   84.8043 C   0  0  0  0  0  0  0  0  0  0  0  0
    8.0161   66.5675   84.7750 F   0  0  0  0  0  0  0  0  0  0  0  0
    6.1581   65.3371   85.5275 C   0  0  0  0  0  0  0  0  0  0  0  0
    4.7759   65.1324   85.5770 C   0  0  0  0  0  0  0  0  0  0  0  0
    3.9447   66.0284   84.8749 C   0  0  0  0  0  0  0  0  0  0  0  0
   -1.1223   61.2338   86.8842 C   0  0  0  0  0  0  0  0  0  0  0  0
   -1.3050   62.7434   87.0524 C   0  0  0  0  0  0  0  0  0  0  0  0
   -2.7725   63.1597   86.9345 C   0  0  0  0  0  0  0  0  0  0  0  0
   -0.8130   63.1280   88.4702 C   0  0  0  0  0  0  0  0  0  0  0  0
   -1.2491   62.7262   89.5356 O   0  0  0  0  0  0  0  0  0  0  0  0
    0.2258   64.0223   88.3169 N   0  0  0  0  0  0  0  0  0  0  0  0
    0.4840   64.2783   86.9866 C   0  0  0  0  0  0  0  0  0  0  0  0
    1.4415   65.1091   86.5873 N   0  0  0  0  0  0  0  0  0  0  0  0
    1.5489   65.2361   85.2511 C   0  0  0  0  0  0  0  0  0  0  0  0
    0.7537   64.5773   84.3712 N   0  0  0  0  0  0  0  0  0  0  0  0
   -0.1981   63.7493   84.8494 C   0  0  0  0  0  0  0  0  0  0  0  0
   -1.3444   62.8033   83.3857 I   0  0  0  0  0  0  0  0  0  0  0  0
   -0.3788   63.5597   86.1876 C   0  0  0  0  0  0  0  0  0  0  0  0
    0.7342   64.4375   89.0814 H   0  0  0  0  0  0  0  0  0  0  0  0
    3.3452   68.9765   82.7149 C   0  0  0  0  0  0  0  0  0  0  0  0
    2.1365   68.8503   81.8238 C   0  0  0  0  0  0  0  0  0  0  0  0
    2.0286   67.8056   80.8914 C   0  0  0  0  0  0  0  0  0  0  0  0
    0.9030   67.6992   80.0704 C   0  0  0  0  0  0  0  0  0  0  0  0
   -0.1290   68.6318   80.1715 C   0  0  0  0  0  0  0  0  0  0  0  0
   -0.0354   69.6715   81.0945 C   0  0  0  0  0  0  0  0  0  0  0  0
    1.0891   69.7719   81.9092 C   0  0  0  0  0  0  0  0  0  0  0  0
    1.1544   70.7782   82.7933 F   0  0  0  0  0  0  0  0  0  0  0  0
 11 12  1  0  0  0
 12 13  1  0  0  0
 12 14  1  0  0  0
 14 15  2  0  0  0
 14 16  1  0  0  0
 16 17  1  0  0  0
 17 18  2  0  0  0
 18 19  1  0  0  0
 19  1  1  0  0  0
  1  2  1  0  0  0
  2  3  2  0  0  0
  3 25  1  0  0  0
 25 26  1  0  0  0
 26 27  2  0  0  0
 27 28  1  0  0  0
 28 29  2  0  0  0
 29 30  1  0  0  0
 30 31  2  0  0  0
 31 32  1  0  0  0
  3  4  1  0  0  0
  4  5  2  0  0  0
  5  6  1  0  0  0
  6  7  1  0  0  0
  6  8  2  0  0  0
  8  9  1  0  0  0
  9 10  2  0  0  0
 19 20  2  0  0  0
 20 21  1  0  0  0
 21 22  1  0  0  0
 21 23  2  0  0  0
 23 12  1  0  0  0
 23 17  1  0  0  0
 10  1  1  0  0  0
 31 26  1  0  0  0
 10  4  1  0  0  0
 16 24  1  0  0  0
M  END
> <minimizedAffinity>
-12.12402

$$$$
