
     RDKit          3D

 37 41  0  0  0  0  0  0  0  0999 V2000
   -0.6592    1.2646    2.4640 C   0  0  0  0  0  0  0  0  0  0  0  0
   -0.1984    1.5162    1.2341 N   0  0  0  0  0  0  0  0  0  0  0  0
   -0.8732    0.9729    0.2077 C   0  0  0  0  0  0  0  0  0  0  0  0
   -0.4318    1.2150   -1.1123 N   0  0  0  0  0  0  0  0  0  0  0  0
    0.8085    1.9708   -1.2540 C   0  0  0  0  0  0  0  0  0  0  0  0
    2.0189    1.0765   -1.1000 C   0  0  0  0  0  0  0  0  0  0  0  0
    2.2430    0.0149   -2.0096 C   0  0  0  0  0  0  0  0  0  0  0  0
    3.3597   -0.8179   -1.8872 C   0  0  0  0  0  0  0  0  0  0  0  0
    4.2313   -0.5698   -0.8501 C   0  0  0  0  0  0  0  0  0  0  0  0
    4.0227    0.4557    0.0415 C   0  0  0  0  0  0  0  0  0  0  0  0
    2.9316    1.2934   -0.0545 C   0  0  0  0  0  0  0  0  0  0  0  0
    4.9966    0.5262    0.9886 O   0  0  0  0  0  0  0  0  0  0  0  0
    5.8336   -0.5815    0.5976 C   0  0  0  0  0  0  0  0  0  0  0  0
    5.3623   -1.2738   -0.5768 O   0  0  0  0  0  0  0  0  0  0  0  0
   -2.0135    0.1725    0.4101 C   0  0  0  0  0  0  0  0  0  0  0  0
   -2.7520   -0.4490   -0.6301 C   0  0  0  0  0  0  0  0  0  0  0  0
   -3.8512   -1.2022   -0.2925 C   0  0  0  0  0  0  0  0  0  0  0  0
   -4.2296   -1.3595    1.0139 C   0  0  0  0  0  0  0  0  0  0  0  0
   -3.5263   -0.7756    2.0457 C   0  0  0  0  0  0  0  0  0  0  0  0
   -2.4058   -0.0047    1.7572 C   0  0  0  0  0  0  0  0  0  0  0  0
   -1.7387    0.5397    2.7759 N   0  0  0  0  0  0  0  0  0  0  0  0
   -5.3370   -2.1378    1.1431 O   0  0  0  0  0  0  0  0  0  0  0  0
   -5.6054   -2.4607   -0.2376 C   0  0  0  0  0  0  0  0  0  0  0  0
   -4.6676   -1.8598   -1.1558 O   0  0  0  0  0  0  0  0  0  0  0  0
   -0.1047    1.6957    3.2905 H   0  0  0  0  0  0  0  0  0  0  0  0
   -1.1921    1.6592   -1.6183 H   0  0  0  0  0  0  0  0  0  0  0  0
    0.8484    2.8415   -0.5874 H   0  0  0  0  0  0  0  0  0  0  0  0
    0.8406    2.3862   -2.2697 H   0  0  0  0  0  0  0  0  0  0  0  0
    1.5292   -0.1660   -2.8110 H   0  0  0  0  0  0  0  0  0  0  0  0
    3.5310   -1.6343   -2.5789 H   0  0  0  0  0  0  0  0  0  0  0  0
    2.7820    2.0860    0.6707 H   0  0  0  0  0  0  0  0  0  0  0  0
    5.8826   -1.2945    1.4289 H   0  0  0  0  0  0  0  0  0  0  0  0
    6.8434   -0.2040    0.3995 H   0  0  0  0  0  0  0  0  0  0  0  0
   -2.4586   -0.3540   -1.6699 H   0  0  0  0  0  0  0  0  0  0  0  0
   -3.8400   -0.9192    3.0742 H   0  0  0  0  0  0  0  0  0  0  0  0
   -6.6141   -2.1138   -0.4894 H   0  0  0  0  0  0  0  0  0  0  0  0
   -5.5664   -3.5495   -0.3580 H   0  0  0  0  0  0  0  0  0  0  0  0
  1  2  2  0
  2  3  1  0
  3  4  1  0
  4  5  1  0
  5  6  1  0
  6  7  1  0
  7  8  2  0
  8  9  1  0
  9 10  2  0
 10 11  1  0
 10 12  1  0
 12 13  1  0
 13 14  1  0
  3 15  2  0
 15 16  1  0
 16 17  2  0
 17 18  1  0
 18 19  2  0
 19 20  1  0
 20 21  2  0
 18 22  1  0
 22 23  1  0
 23 24  1  0
 21  1  1  0
 11  6  2  0
 20 15  1  0
 14  9  1  0
 24 17  1  0
  1 25  1  0
  4 26  1  0
  5 27  1  0
  5 28  1  0
  7 29  1  0
  8 30  1  0
 11 31  1  0
 13 32  1  0
 13 33  1  0
 16 34  1  0
 19 35  1  0
 23 36  1  0
 23 37  1  0
M  END
$$$$
