
     RDKit          3D

 48 50  0  0  0  0  0  0  0  0999 V2000
   -6.0143   -1.3198    3.2119 C   0  0  0  0  0  0  0  0  0  0  0  0
   -6.0326   -0.6718    1.9435 O   0  0  0  0  0  0  0  0  0  0  0  0
   -4.8356   -0.4806    1.3008 C   0  0  0  0  0  0  0  0  0  0  0  0
   -3.5993   -0.8303    1.8551 C   0  0  0  0  0  0  0  0  0  0  0  0
   -2.4130   -0.6253    1.1424 C   0  0  0  0  0  0  0  0  0  0  0  0
   -2.4323   -0.0669   -0.1367 C   0  0  0  0  0  0  0  0  0  0  0  0
   -1.1940    0.1030   -0.7773 N   0  0  0  0  0  0  0  0  0  0  0  0
   -0.9346    0.6559   -2.0176 C   0  0  0  0  0  0  0  0  0  0  0  0
   -1.7479    1.1181   -2.8070 O   0  0  0  0  0  0  0  0  0  0  0  0
    0.5285    0.6579   -2.3555 C   0  0  0  0  0  0  0  0  0  0  0  0
    0.9659    1.2155   -3.5486 C   0  0  0  0  0  0  0  0  0  0  0  0
    2.3292    1.1988   -3.8153 C   0  0  0  0  0  0  0  0  0  0  0  0
    3.1995    0.6305   -2.8882 C   0  0  0  0  0  0  0  0  0  0  0  0
    2.6852    0.0910   -1.7075 C   0  0  0  0  0  0  0  0  0  0  0  0
    3.6150   -0.5544   -0.7011 C   0  0  0  0  0  0  0  0  0  0  0  0
    4.6431    0.3701   -0.3447 O   0  0  0  0  0  0  0  0  0  0  0  0
    5.5882   -0.0643    0.5431 C   0  0  0  0  0  0  0  0  0  0  0  0
    5.6429   -1.3267    1.1361 C   0  0  0  0  0  0  0  0  0  0  0  0
    6.6731   -1.6379    2.0296 C   0  0  0  0  0  0  0  0  0  0  0  0
    7.6499   -0.6913    2.3340 C   0  0  0  0  0  0  0  0  0  0  0  0
    7.5989    0.5697    1.7459 C   0  0  0  0  0  0  0  0  0  0  0  0
    6.5708    0.8796    0.8542 C   0  0  0  0  0  0  0  0  0  0  0  0
    1.3558    0.0893   -1.4280 N   0  0  0  0  0  0  0  0  0  0  0  0
   -3.6595    0.2850   -0.6967 C   0  0  0  0  0  0  0  0  0  0  0  0
   -4.8637    0.0899    0.0115 C   0  0  0  0  0  0  0  0  0  0  0  0
   -6.1185    0.5096   -0.6887 C   0  0  0  0  0  0  0  0  0  0  0  0
   -6.1425    0.7137   -1.9017 O   0  0  0  0  0  0  0  0  0  0  0  0
   -7.2574    0.6492    0.0699 N   0  0  0  0  0  0  0  0  0  0  0  0
   -8.4561    0.8318   -0.6601 O   0  0  0  0  0  0  0  0  0  0  0  0
   -5.4766   -0.7186    3.9522 H   0  0  0  0  0  0  0  0  0  0  0  0
   -7.0503   -1.4155    3.5509 H   0  0  0  0  0  0  0  0  0  0  0  0
   -5.5949   -2.3282    3.1348 H   0  0  0  0  0  0  0  0  0  0  0  0
   -3.5151   -1.2678    2.8448 H   0  0  0  0  0  0  0  0  0  0  0  0
   -1.4712   -0.9091    1.6069 H   0  0  0  0  0  0  0  0  0  0  0  0
   -0.3554   -0.2006   -0.2864 H   0  0  0  0  0  0  0  0  0  0  0  0
    0.2634    1.6539   -4.2505 H   0  0  0  0  0  0  0  0  0  0  0  0
    2.7125    1.6279   -4.7374 H   0  0  0  0  0  0  0  0  0  0  0  0
    4.2689    0.6149   -3.0819 H   0  0  0  0  0  0  0  0  0  0  0  0
    3.0376   -0.8326    0.1890 H   0  0  0  0  0  0  0  0  0  0  0  0
    4.0437   -1.4526   -1.1623 H   0  0  0  0  0  0  0  0  0  0  0  0
    4.9040   -2.0935    0.9300 H   0  0  0  0  0  0  0  0  0  0  0  0
    6.7127   -2.6222    2.4898 H   0  0  0  0  0  0  0  0  0  0  0  0
    8.4488   -0.9361    3.0291 H   0  0  0  0  0  0  0  0  0  0  0  0
    8.3567    1.3126    1.9801 H   0  0  0  0  0  0  0  0  0  0  0  0
    6.5346    1.8664    0.3988 H   0  0  0  0  0  0  0  0  0  0  0  0
   -3.7094    0.7206   -1.6918 H   0  0  0  0  0  0  0  0  0  0  0  0
   -7.3337    0.2110    0.9842 H   0  0  0  0  0  0  0  0  0  0  0  0
   -8.1212    0.8846   -1.5830 H   0  0  0  0  0  0  0  0  0  0  0  0
  1  2  1  0
  2  3  1  0
  3  4  1  0
  4  5  2  0
  5  6  1  0
  6  7  1  0
  7  8  1  0
  8  9  2  0
  8 10  1  0
 10 11  1  0
 11 12  2  0
 12 13  1  0
 13 14  2  0
 14 15  1  0
 15 16  1  0
 16 17  1  0
 17 18  2  0
 18 19  1  0
 19 20  2  0
 20 21  1  0
 21 22  2  0
 14 23  1  0
  6 24  2  0
 24 25  1  0
 25 26  1  0
 26 27  2  0
 26 28  1  0
 28 29  1  0
 25  3  2  0
 23 10  2  0
 22 17  1  0
  1 30  1  0
  1 31  1  0
  1 32  1  0
  4 33  1  0
  5 34  1  0
  7 35  1  0
 11 36  1  0
 12 37  1  0
 13 38  1  0
 15 39  1  0
 15 40  1  0
 18 41  1  0
 19 42  1  0
 20 43  1  0
 21 44  1  0
 22 45  1  0
 24 46  1  0
 28 47  1  0
 29 48  1  0
M  END
$$$$
