


 34 39  0  0  0  0  0  0  0  0999 V2000
    1.1401   66.2476   79.8957 C   0  0  0  0  0  0  0  0  0  0  0  0
    1.5332   66.7503   81.2656 C   0  0  0  0  0  0  0  0  0  0  0  0
    2.2139   67.8513   81.2765 N   0  0  0  0  0  0  0  0  0  0  0  0
    2.6015   68.3643   82.4852 N   0  0  0  0  0  0  0  0  0  0  0  0
    2.3180   67.7767   83.7079 C   0  0  0  0  0  0  0  0  0  0  0  0
    2.6770   68.2550   84.7852 O   0  0  0  0  0  0  0  0  0  0  0  0
    1.5322   66.4882   83.6684 C   0  0  0  0  0  0  0  0  0  0  0  0
    1.2633   65.8959   84.9001 N   0  0  0  0  0  0  0  0  0  0  0  0
    0.5862   64.7785   84.9429 C   0  0  0  0  0  0  0  0  0  0  0  0
    0.1346   64.2264   83.7264 N   0  0  0  0  0  0  0  0  0  0  0  0
   -0.6248   63.1156   83.6665 N   0  0  0  0  0  0  0  0  0  0  0  0
   -0.8547   62.9123   82.3617 C   0  0  0  0  0  0  0  0  0  0  0  0
   -0.2427   63.9385   81.5894 C   0  0  0  0  0  0  0  0  0  0  0  0
    0.3779   64.7805   82.4864 C   0  0  0  0  0  0  0  0  0  0  0  0
    1.1367   65.9856   82.4805 C   0  0  0  0  0  0  0  0  0  0  0  0
    0.3365   64.1808   86.2863 C   0  0  0  0  0  0  0  0  0  0  0  0
   -0.9071   63.6996   86.7000 C   0  0  0  0  0  0  0  0  0  0  0  0
   -1.0441   63.1482   87.9738 C   0  0  0  0  0  0  0  0  0  0  0  0
    0.0720   63.0876   88.7916 C   0  0  0  0  0  0  0  0  0  0  0  0
    1.2927   63.5270   88.4220 N   0  0  0  0  0  0  0  0  0  0  0  0
    1.4000   64.0542   87.1756 C   0  0  0  0  0  0  0  0  0  0  0  0
   -1.6474   61.7701   81.8916 C   0  0  0  0  0  0  0  0  0  0  0  0
   -1.7070   61.4634   80.5228 C   0  0  0  0  0  0  0  0  0  0  0  0
   -2.4555   60.3765   80.0632 C   0  0  0  0  0  0  0  0  0  0  0  0
   -3.1570   59.5824   80.9664 C   0  0  0  0  0  0  0  0  0  0  0  0
   -3.1116   59.8746   82.3276 C   0  0  0  0  0  0  0  0  0  0  0  0
   -2.3620   60.9618   82.7884 C   0  0  0  0  0  0  0  0  0  0  0  0
    3.2958   69.6484   82.4512 C   0  0  0  0  0  0  0  0  0  0  0  0
    2.3346   70.8118   82.3621 C   0  0  0  0  0  0  0  0  0  0  0  0
    2.7336   72.0968   82.7573 C   0  0  0  0  0  0  0  0  0  0  0  0
    1.8510   73.1737   82.6603 C   0  0  0  0  0  0  0  0  0  0  0  0
    0.5647   72.9787   82.1604 C   0  0  0  0  0  0  0  0  0  0  0  0
    0.1613   71.7086   81.7520 C   0  0  0  0  0  0  0  0  0  0  0  0
    1.0424   70.6305   81.8488 C   0  0  0  0  0  0  0  0  0  0  0  0
  1  2  1  0  0  0
  2  3  2  0  0  0
  3  4  1  0  0  0
  4 28  1  0  0  0
 28 29  1  0  0  0
 29 30  2  0  0  0
 30 31  1  0  0  0
 31 32  2  0  0  0
 32 33  1  0  0  0
 33 34  2  0  0  0
  4  5  1  0  0  0
  5  6  2  0  0  0
  5  7  1  0  0  0
  7  8  1  0  0  0
  8  9  2  0  0  0
  9 16  1  0  0  0
 16 17  1  0  0  0
 17 18  2  0  0  0
 18 19  1  0  0  0
 19 20  2  0  0  0
 20 21  1  0  0  0
  9 10  1  0  0  0
 10 11  1  0  0  0
 11 12  2  0  0  0
 12 22  1  0  0  0
 22 23  2  0  0  0
 23 24  1  0  0  0
 24 25  2  0  0  0
 25 26  1  0  0  0
 26 27  2  0  0  0
 12 13  1  0  0  0
 13 14  2  0  0  0
 14 15  1  0  0  0
 15  2  1  0  0  0
 34 29  1  0  0  0
 15  7  2  0  0  0
 21 16  2  0  0  0
 14 10  1  0  0  0
 27 22  1  0  0  0
M  END
> <minimizedAffinity>
-12.06475

$$$$



 34 39  0  0  0  0  0  0  0  0999 V2000
    1.1805   66.2310   79.8509 C   0  0  0  0  0  0  0  0  0  0  0  0
    1.5648   66.7423   81.2201 C   0  0  0  0  0  0  0  0  0  0  0  0
    2.2476   67.8419   81.2284 N   0  0  0  0  0  0  0  0  0  0  0  0
    2.6276   68.3625   82.4362 N   0  0  0  0  0  0  0  0  0  0  0  0
    2.3342   67.7838   83.6609 C   0  0  0  0  0  0  0  0  0  0  0  0
    2.6864   68.2688   84.7374 O   0  0  0  0  0  0  0  0  0  0  0  0
    1.5460   66.4967   83.6246 C   0  0  0  0  0  0  0  0  0  0  0  0
    1.2670   65.9134   84.8583 N   0  0  0  0  0  0  0  0  0  0  0  0
    0.5874   64.7976   84.9039 C   0  0  0  0  0  0  0  0  0  0  0  0
    0.1434   64.2381   83.6880 N   0  0  0  0  0  0  0  0  0  0  0  0
   -0.6179   63.1285   83.6302 N   0  0  0  0  0  0  0  0  0  0  0  0
   -0.8389   62.9167   82.3252 C   0  0  0  0  0  0  0  0  0  0  0  0
   -0.2192   63.9363   81.5504 C   0  0  0  0  0  0  0  0  0  0  0  0
    0.3967   64.7832   82.4460 C   0  0  0  0  0  0  0  0  0  0  0  0
    1.1580   65.9867   82.4374 C   0  0  0  0  0  0  0  0  0  0  0  0
    0.3268   64.2097   86.2495 C   0  0  0  0  0  0  0  0  0  0  0  0
   -0.9214   63.7367   86.6586 C   0  0  0  0  0  0  0  0  0  0  0  0
   -1.0687   63.1941   87.9351 C   0  0  0  0  0  0  0  0  0  0  0  0
    0.0421   63.1338   88.7602 C   0  0  0  0  0  0  0  0  0  0  0  0
    1.2670   63.5655   88.3952 N   0  0  0  0  0  0  0  0  0  0  0  0
    1.3843   64.0842   87.1462 C   0  0  0  0  0  0  0  0  0  0  0  0
   -1.6305   61.7729   81.8574 C   0  0  0  0  0  0  0  0  0  0  0  0
   -2.3579   60.9928   82.7705 C   0  0  0  0  0  0  0  0  0  0  0  0
   -3.1180   59.9032   82.3371 C   0  0  0  0  0  0  0  0  0  0  0  0
   -3.1593   59.5772   80.9841 C   0  0  0  0  0  0  0  0  0  0  0  0
   -2.4407   60.3384   80.0650 C   0  0  0  0  0  0  0  0  0  0  0  0
   -1.6804   61.4295   80.4981 C   0  0  0  0  0  0  0  0  0  0  0  0
    3.3248   69.6449   82.3984 C   0  0  0  0  0  0  0  0  0  0  0  0
    2.3662   70.8101   82.3059 C   0  0  0  0  0  0  0  0  0  0  0  0
    1.0815   70.6346   81.7717 C   0  0  0  0  0  0  0  0  0  0  0  0
    0.1912   71.7072   81.7008 C   0  0  0  0  0  0  0  0  0  0  0  0
    0.5728   72.9629   82.1700 C   0  0  0  0  0  0  0  0  0  0  0  0
    1.8423   73.1463   82.7153 C   0  0  0  0  0  0  0  0  0  0  0  0
    2.7340   72.0750   82.7865 C   0  0  0  0  0  0  0  0  0  0  0  0
  1  2  1  0  0  0
  2  3  2  0  0  0
  3  4  1  0  0  0
  4 28  1  0  0  0
 28 29  1  0  0  0
 29 30  2  0  0  0
 30 31  1  0  0  0
 31 32  2  0  0  0
 32 33  1  0  0  0
 33 34  2  0  0  0
  4  5  1  0  0  0
  5  6  2  0  0  0
  5  7  1  0  0  0
  7  8  1  0  0  0
  8  9  2  0  0  0
  9 16  1  0  0  0
 16 17  1  0  0  0
 17 18  2  0  0  0
 18 19  1  0  0  0
 19 20  2  0  0  0
 20 21  1  0  0  0
  9 10  1  0  0  0
 10 11  1  0  0  0
 11 12  2  0  0  0
 12 22  1  0  0  0
 22 23  2  0  0  0
 23 24  1  0  0  0
 24 25  2  0  0  0
 25 26  1  0  0  0
 26 27  2  0  0  0
 12 13  1  0  0  0
 13 14  2  0  0  0
 14 15  1  0  0  0
 15  2  1  0  0  0
 34 29  1  0  0  0
 15  7  2  0  0  0
 21 16  2  0  0  0
 14 10  1  0  0  0
 27 22  1  0  0  0
M  END
> <minimizedAffinity>
-12.03696

$$$$



 34 39  0  0  0  0  0  0  0  0999 V2000
   -0.3531   64.2568   79.6820 C   0  0  0  0  0  0  0  0  0  0  0  0
   -1.1101   63.3475   80.6222 C   0  0  0  0  0  0  0  0  0  0  0  0
   -1.9430   62.5349   80.0549 N   0  0  0  0  0  0  0  0  0  0  0  0
   -2.6612   61.6811   80.8483 N   0  0  0  0  0  0  0  0  0  0  0  0
   -2.5613   61.6316   82.2297 C   0  0  0  0  0  0  0  0  0  0  0  0
   -3.2178   60.8553   82.9258 O   0  0  0  0  0  0  0  0  0  0  0  0
   -1.5911   62.5960   82.8685 C   0  0  0  0  0  0  0  0  0  0  0  0
   -1.5063   62.5503   84.2580 N   0  0  0  0  0  0  0  0  0  0  0  0
   -0.6861   63.3562   84.8798 C   0  0  0  0  0  0  0  0  0  0  0  0
    0.1017   64.2324   84.1050 N   0  0  0  0  0  0  0  0  0  0  0  0
    1.0227   65.0548   84.6432 N   0  0  0  0  0  0  0  0  0  0  0  0
    1.5608   65.7125   83.6065 C   0  0  0  0  0  0  0  0  0  0  0  0
    0.9765   65.2698   82.3873 C   0  0  0  0  0  0  0  0  0  0  0  0
    0.0495   64.3089   82.7283 C   0  0  0  0  0  0  0  0  0  0  0  0
   -0.8714   63.4302   82.0899 C   0  0  0  0  0  0  0  0  0  0  0  0
   -0.6433   63.2742   86.3683 C   0  0  0  0  0  0  0  0  0  0  0  0
    0.5140   63.4800   87.1216 C   0  0  0  0  0  0  0  0  0  0  0  0
    0.4564   63.3915   88.5124 C   0  0  0  0  0  0  0  0  0  0  0  0
   -0.7619   63.1080   89.1070 C   0  0  0  0  0  0  0  0  0  0  0  0
   -1.9042   62.9189   88.4145 N   0  0  0  0  0  0  0  0  0  0  0  0
   -1.8217   63.0157   87.0630 C   0  0  0  0  0  0  0  0  0  0  0  0
    2.6081   66.7224   83.7995 C   0  0  0  0  0  0  0  0  0  0  0  0
    3.7702   66.4097   84.5229 C   0  0  0  0  0  0  0  0  0  0  0  0
    4.7760   67.3615   84.7107 C   0  0  0  0  0  0  0  0  0  0  0  0
    4.6324   68.6404   84.1794 C   0  0  0  0  0  0  0  0  0  0  0  0
    3.4843   68.9685   83.4621 C   0  0  0  0  0  0  0  0  0  0  0  0
    2.4775   68.0162   83.2731 C   0  0  0  0  0  0  0  0  0  0  0  0
   -3.5265   60.7290   80.1580 C   0  0  0  0  0  0  0  0  0  0  0  0
   -2.9355   60.2740   78.8430 C   0  0  0  0  0  0  0  0  0  0  0  0
   -1.6993   59.6128   78.8089 C   0  0  0  0  0  0  0  0  0  0  0  0
   -1.1612   59.1791   77.5963 C   0  0  0  0  0  0  0  0  0  0  0  0
   -1.8565   59.3946   76.4077 C   0  0  0  0  0  0  0  0  0  0  0  0
   -3.0923   60.0387   76.4306 C   0  0  0  0  0  0  0  0  0  0  0  0
   -3.6315   60.4736   77.6422 C   0  0  0  0  0  0  0  0  0  0  0  0
  1  2  1  0  0  0
  2  3  2  0  0  0
  3  4  1  0  0  0
  4 28  1  0  0  0
 28 29  1  0  0  0
 29 30  2  0  0  0
 30 31  1  0  0  0
 31 32  2  0  0  0
 32 33  1  0  0  0
 33 34  2  0  0  0
  4  5  1  0  0  0
  5  6  2  0  0  0
  5  7  1  0  0  0
  7  8  1  0  0  0
  8  9  2  0  0  0
  9 16  1  0  0  0
 16 17  1  0  0  0
 17 18  2  0  0  0
 18 19  1  0  0  0
 19 20  2  0  0  0
 20 21  1  0  0  0
  9 10  1  0  0  0
 10 11  1  0  0  0
 11 12  2  0  0  0
 12 22  1  0  0  0
 22 23  2  0  0  0
 23 24  1  0  0  0
 24 25  2  0  0  0
 25 26  1  0  0  0
 26 27  2  0  0  0
 12 13  1  0  0  0
 13 14  2  0  0  0
 14 15  1  0  0  0
 15  2  1  0  0  0
 34 29  1  0  0  0
 15  7  2  0  0  0
 21 16  2  0  0  0
 14 10  1  0  0  0
 27 22  1  0  0  0
M  END
> <minimizedAffinity>
-11.54811

$$$$



 34 39  0  0  0  0  0  0  0  0999 V2000
    2.8490   68.1151   84.6561 C   0  0  0  0  0  0  0  0  0  0  0  0
    2.3993   67.9512   83.2226 C   0  0  0  0  0  0  0  0  0  0  0  0
    2.8391   68.8477   82.3990 N   0  0  0  0  0  0  0  0  0  0  0  0
    2.4716   68.7582   81.0832 N   0  0  0  0  0  0  0  0  0  0  0  0
    1.6485   67.7684   80.5698 C   0  0  0  0  0  0  0  0  0  0  0  0
    1.3292   67.7062   79.3814 O   0  0  0  0  0  0  0  0  0  0  0  0
    1.1401   66.7406   81.5520 C   0  0  0  0  0  0  0  0  0  0  0  0
    0.3021   65.7572   81.0317 N   0  0  0  0  0  0  0  0  0  0  0  0
   -0.1754   64.8333   81.8238 C   0  0  0  0  0  0  0  0  0  0  0  0
    0.2007   64.8615   83.1826 N   0  0  0  0  0  0  0  0  0  0  0  0
   -0.1832   63.9198   84.0657 N   0  0  0  0  0  0  0  0  0  0  0  0
    0.3698   64.2803   85.2324 C   0  0  0  0  0  0  0  0  0  0  0  0
    1.1395   65.4651   85.0657 C   0  0  0  0  0  0  0  0  0  0  0  0
    1.0280   65.8159   83.7379 C   0  0  0  0  0  0  0  0  0  0  0  0
    1.5101   66.8170   82.8471 C   0  0  0  0  0  0  0  0  0  0  0  0
   -1.0771   63.8116   81.2177 C   0  0  0  0  0  0  0  0  0  0  0  0
   -2.3136   63.4532   81.7579 C   0  0  0  0  0  0  0  0  0  0  0  0
   -3.0942   62.4921   81.1156 C   0  0  0  0  0  0  0  0  0  0  0  0
   -2.6155   61.9253   79.9460 C   0  0  0  0  0  0  0  0  0  0  0  0
   -1.4343   62.2569   79.3851 N   0  0  0  0  0  0  0  0  0  0  0  0
   -0.6967   63.1985   80.0272 C   0  0  0  0  0  0  0  0  0  0  0  0
    0.1629   63.4941   86.4543 C   0  0  0  0  0  0  0  0  0  0  0  0
    0.8089   63.8547   87.6476 C   0  0  0  0  0  0  0  0  0  0  0  0
    0.6175   63.1162   88.8184 C   0  0  0  0  0  0  0  0  0  0  0  0
   -0.2212   62.0049   88.8114 C   0  0  0  0  0  0  0  0  0  0  0  0
   -0.8672   61.6310   87.6352 C   0  0  0  0  0  0  0  0  0  0  0  0
   -0.6766   62.3702   86.4632 C   0  0  0  0  0  0  0  0  0  0  0  0
    3.0573   69.7434   80.1786 C   0  0  0  0  0  0  0  0  0  0  0  0
    2.7406   71.1603   80.5998 C   0  0  0  0  0  0  0  0  0  0  0  0
    1.4127   71.5623   80.8044 C   0  0  0  0  0  0  0  0  0  0  0  0
    1.1216   72.8662   81.2084 C   0  0  0  0  0  0  0  0  0  0  0  0
    2.1542   73.7782   81.4194 C   0  0  0  0  0  0  0  0  0  0  0  0
    3.4785   73.3863   81.2321 C   0  0  0  0  0  0  0  0  0  0  0  0
    3.7715   72.0831   80.8276 C   0  0  0  0  0  0  0  0  0  0  0  0
  1  2  1  0  0  0
  2  3  2  0  0  0
  3  4  1  0  0  0
  4 28  1  0  0  0
 28 29  1  0  0  0
 29 30  2  0  0  0
 30 31  1  0  0  0
 31 32  2  0  0  0
 32 33  1  0  0  0
 33 34  2  0  0  0
  4  5  1  0  0  0
  5  6  2  0  0  0
  5  7  1  0  0  0
  7  8  1  0  0  0
  8  9  2  0  0  0
  9 16  1  0  0  0
 16 17  1  0  0  0
 17 18  2  0  0  0
 18 19  1  0  0  0
 19 20  2  0  0  0
 20 21  1  0  0  0
  9 10  1  0  0  0
 10 11  1  0  0  0
 11 12  2  0  0  0
 12 22  1  0  0  0
 22 23  2  0  0  0
 23 24  1  0  0  0
 24 25  2  0  0  0
 25 26  1  0  0  0
 26 27  2  0  0  0
 12 13  1  0  0  0
 13 14  2  0  0  0
 14 15  1  0  0  0
 15  2  1  0  0  0
 34 29  1  0  0  0
 15  7  2  0  0  0
 21 16  2  0  0  0
 14 10  1  0  0  0
 27 22  1  0  0  0
M  END
> <minimizedAffinity>
-11.48773

$$$$



 34 39  0  0  0  0  0  0  0  0999 V2000
   -0.6877   67.6290   79.9823 C   0  0  0  0  0  0  0  0  0  0  0  0
   -0.2314   66.4980   80.8748 C   0  0  0  0  0  0  0  0  0  0  0  0
   -0.8638   65.3796   80.7175 N   0  0  0  0  0  0  0  0  0  0  0  0
   -0.4997   64.3120   81.4933 N   0  0  0  0  0  0  0  0  0  0  0  0
    0.5039   64.3492   82.4483 C   0  0  0  0  0  0  0  0  0  0  0  0
    0.8158   63.3762   83.1370 O   0  0  0  0  0  0  0  0  0  0  0  0
    1.2196   65.6674   82.6203 C   0  0  0  0  0  0  0  0  0  0  0  0
    2.2173   65.7013   83.5916 N   0  0  0  0  0  0  0  0  0  0  0  0
    2.8802   66.8095   83.7951 C   0  0  0  0  0  0  0  0  0  0  0  0
    2.5660   67.9294   82.9978 N   0  0  0  0  0  0  0  0  0  0  0  0
    3.2331   69.0963   83.0834 N   0  0  0  0  0  0  0  0  0  0  0  0
    2.6592   69.9010   82.1778 C   0  0  0  0  0  0  0  0  0  0  0  0
    1.6228   69.2083   81.4923 C   0  0  0  0  0  0  0  0  0  0  0  0
    1.5871   67.9382   82.0255 C   0  0  0  0  0  0  0  0  0  0  0  0
    0.8733   66.7187   81.8490 C   0  0  0  0  0  0  0  0  0  0  0  0
    3.9294   66.7945   84.8549 C   0  0  0  0  0  0  0  0  0  0  0  0
    4.4016   67.9432   85.4924 C   0  0  0  0  0  0  0  0  0  0  0  0
    5.3801   67.8309   86.4801 C   0  0  0  0  0  0  0  0  0  0  0  0
    5.8495   66.5691   86.8054 C   0  0  0  0  0  0  0  0  0  0  0  0
    5.4067   65.4354   86.2236 N   0  0  0  0  0  0  0  0  0  0  0  0
    4.4507   65.5720   85.2695 C   0  0  0  0  0  0  0  0  0  0  0  0
    3.1121   71.2836   81.9844 C   0  0  0  0  0  0  0  0  0  0  0  0
    3.8271   71.6408   80.8301 C   0  0  0  0  0  0  0  0  0  0  0  0
    4.2608   72.9545   80.6328 C   0  0  0  0  0  0  0  0  0  0  0  0
    3.9872   73.9290   81.5888 C   0  0  0  0  0  0  0  0  0  0  0  0
    3.2820   73.5911   82.7415 C   0  0  0  0  0  0  0  0  0  0  0  0
    2.8469   72.2766   82.9393 C   0  0  0  0  0  0  0  0  0  0  0  0
   -1.1855   63.0515   81.2234 C   0  0  0  0  0  0  0  0  0  0  0  0
   -1.0433   62.6250   79.7801 C   0  0  0  0  0  0  0  0  0  0  0  0
   -2.1749   62.2942   79.0207 C   0  0  0  0  0  0  0  0  0  0  0  0
   -2.0447   61.9155   77.6836 C   0  0  0  0  0  0  0  0  0  0  0  0
   -0.7842   61.8714   77.0905 C   0  0  0  0  0  0  0  0  0  0  0  0
    0.3464   62.2109   77.8315 C   0  0  0  0  0  0  0  0  0  0  0  0
    0.2181   62.5892   79.1688 C   0  0  0  0  0  0  0  0  0  0  0  0
  1  2  1  0  0  0
  2  3  2  0  0  0
  3  4  1  0  0  0
  4 28  1  0  0  0
 28 29  1  0  0  0
 29 30  2  0  0  0
 30 31  1  0  0  0
 31 32  2  0  0  0
 32 33  1  0  0  0
 33 34  2  0  0  0
  4  5  1  0  0  0
  5  6  2  0  0  0
  5  7  1  0  0  0
  7  8  1  0  0  0
  8  9  2  0  0  0
  9 16  1  0  0  0
 16 17  1  0  0  0
 17 18  2  0  0  0
 18 19  1  0  0  0
 19 20  2  0  0  0
 20 21  1  0  0  0
  9 10  1  0  0  0
 10 11  1  0  0  0
 11 12  2  0  0  0
 12 22  1  0  0  0
 22 23  2  0  0  0
 23 24  1  0  0  0
 24 25  2  0  0  0
 25 26  1  0  0  0
 26 27  2  0  0  0
 12 13  1  0  0  0
 13 14  2  0  0  0
 14 15  1  0  0  0
 15  2  1  0  0  0
 34 29  1  0  0  0
 15  7  2  0  0  0
 21 16  2  0  0  0
 14 10  1  0  0  0
 27 22  1  0  0  0
M  END
> <minimizedAffinity>
-10.65327

$$$$



 34 39  0  0  0  0  0  0  0  0999 V2000
    1.6133   66.2541   79.7158 C   0  0  0  0  0  0  0  0  0  0  0  0
    1.6504   66.3694   81.2222 C   0  0  0  0  0  0  0  0  0  0  0  0
    2.4169   67.3033   81.6869 N   0  0  0  0  0  0  0  0  0  0  0  0
    2.4960   67.4645   83.0441 N   0  0  0  0  0  0  0  0  0  0  0  0
    1.8106   66.6850   83.9624 C   0  0  0  0  0  0  0  0  0  0  0  0
    1.8963   66.8464   85.1809 O   0  0  0  0  0  0  0  0  0  0  0  0
    0.9314   65.5960   83.3964 C   0  0  0  0  0  0  0  0  0  0  0  0
    0.2567   64.8075   84.3255 N   0  0  0  0  0  0  0  0  0  0  0  0
   -0.5236   63.8456   83.9076 C   0  0  0  0  0  0  0  0  0  0  0  0
   -0.6657   63.6599   82.5169 N   0  0  0  0  0  0  0  0  0  0  0  0
   -1.4942   62.7413   81.9842 N   0  0  0  0  0  0  0  0  0  0  0  0
   -1.3614   62.8704   80.6567 C   0  0  0  0  0  0  0  0  0  0  0  0
   -0.4439   63.9147   80.3541 C   0  0  0  0  0  0  0  0  0  0  0  0
   -0.0172   64.4181   81.5638 C   0  0  0  0  0  0  0  0  0  0  0  0
    0.8399   65.4417   82.0592 C   0  0  0  0  0  0  0  0  0  0  0  0
   -1.2126   63.0242   84.9444 C   0  0  0  0  0  0  0  0  0  0  0  0
   -0.7422   62.8730   86.2501 C   0  0  0  0  0  0  0  0  0  0  0  0
   -1.4595   62.0909   87.1553 C   0  0  0  0  0  0  0  0  0  0  0  0
   -2.6318   61.4909   86.7266 C   0  0  0  0  0  0  0  0  0  0  0  0
   -3.1265   61.6263   85.4789 N   0  0  0  0  0  0  0  0  0  0  0  0
   -2.4121   62.3969   84.6194 C   0  0  0  0  0  0  0  0  0  0  0  0
   -2.1075   62.0165   79.7248 C   0  0  0  0  0  0  0  0  0  0  0  0
   -2.7274   60.8420   80.1804 C   0  0  0  0  0  0  0  0  0  0  0  0
   -3.4434   60.0224   79.3038 C   0  0  0  0  0  0  0  0  0  0  0  0
   -3.5473   60.3651   77.9583 C   0  0  0  0  0  0  0  0  0  0  0  0
   -2.9353   61.5251   77.4888 C   0  0  0  0  0  0  0  0  0  0  0  0
   -2.2192   62.3462   78.3658 C   0  0  0  0  0  0  0  0  0  0  0  0
    3.3087   68.5814   83.5174 C   0  0  0  0  0  0  0  0  0  0  0  0
    4.5079   68.1151   84.3111 C   0  0  0  0  0  0  0  0  0  0  0  0
    4.5670   68.3186   85.6974 C   0  0  0  0  0  0  0  0  0  0  0  0
    5.6672   67.8742   86.4322 C   0  0  0  0  0  0  0  0  0  0  0  0
    6.7147   67.2155   85.7907 C   0  0  0  0  0  0  0  0  0  0  0  0
    6.6609   66.9957   84.4154 C   0  0  0  0  0  0  0  0  0  0  0  0
    5.5618   67.4400   83.6789 C   0  0  0  0  0  0  0  0  0  0  0  0
  1  2  1  0  0  0
  2  3  2  0  0  0
  3  4  1  0  0  0
  4 28  1  0  0  0
 28 29  1  0  0  0
 29 30  2  0  0  0
 30 31  1  0  0  0
 31 32  2  0  0  0
 32 33  1  0  0  0
 33 34  2  0  0  0
  4  5  1  0  0  0
  5  6  2  0  0  0
  5  7  1  0  0  0
  7  8  1  0  0  0
  8  9  2  0  0  0
  9 16  1  0  0  0
 16 17  1  0  0  0
 17 18  2  0  0  0
 18 19  1  0  0  0
 19 20  2  0  0  0
 20 21  1  0  0  0
  9 10  1  0  0  0
 10 11  1  0  0  0
 11 12  2  0  0  0
 12 22  1  0  0  0
 22 23  2  0  0  0
 23 24  1  0  0  0
 24 25  2  0  0  0
 25 26  1  0  0  0
 26 27  2  0  0  0
 12 13  1  0  0  0
 13 14  2  0  0  0
 14 15  1  0  0  0
 15  2  1  0  0  0
 34 29  1  0  0  0
 15  7  2  0  0  0
 21 16  2  0  0  0
 14 10  1  0  0  0
 27 22  1  0  0  0
M  END
> <minimizedAffinity>
-10.42143

$$$$



 34 39  0  0  0  0  0  0  0  0999 V2000
    2.9272   68.8940   84.4264 C   0  0  0  0  0  0  0  0  0  0  0  0
    2.8031   68.9091   82.9203 C   0  0  0  0  0  0  0  0  0  0  0  0
    3.3686   69.9120   82.3286 N   0  0  0  0  0  0  0  0  0  0  0  0
    3.2961   69.9870   80.9636 N   0  0  0  0  0  0  0  0  0  0  0  0
    2.6473   69.0580   80.1657 C   0  0  0  0  0  0  0  0  0  0  0  0
    2.5932   69.1445   78.9378 O   0  0  0  0  0  0  0  0  0  0  0  0
    1.9867   67.9033   80.8797 C   0  0  0  0  0  0  0  0  0  0  0  0
    1.3245   66.9813   80.0726 N   0  0  0  0  0  0  0  0  0  0  0  0
    0.7301   65.9547   80.6221 C   0  0  0  0  0  0  0  0  0  0  0  0
    0.8045   65.8135   82.0232 N   0  0  0  0  0  0  0  0  0  0  0  0
    0.2828   64.7592   82.6791 N   0  0  0  0  0  0  0  0  0  0  0  0
    0.5562   64.9752   83.9735 C   0  0  0  0  0  0  0  0  0  0  0  0
    1.2899   66.1845   84.1252 C   0  0  0  0  0  0  0  0  0  0  0  0
    1.4501   66.7021   82.8583 C   0  0  0  0  0  0  0  0  0  0  0  0
    2.0667   67.8180   82.2237 C   0  0  0  0  0  0  0  0  0  0  0  0
    0.0259   65.0047   79.7134 C   0  0  0  0  0  0  0  0  0  0  0  0
   -0.1785   65.2429   78.3530 C   0  0  0  0  0  0  0  0  0  0  0  0
   -0.8411   64.2910   77.5782 C   0  0  0  0  0  0  0  0  0  0  0  0
   -1.2714   63.1247   78.1888 C   0  0  0  0  0  0  0  0  0  0  0  0
   -1.0786   62.8517   79.4957 N   0  0  0  0  0  0  0  0  0  0  0  0
   -0.4265   63.7921   80.2260 C   0  0  0  0  0  0  0  0  0  0  0  0
    0.1276   64.0342   85.0150 C   0  0  0  0  0  0  0  0  0  0  0  0
   -0.5977   62.8813   84.6744 C   0  0  0  0  0  0  0  0  0  0  0  0
   -1.0086   61.9761   85.6565 C   0  0  0  0  0  0  0  0  0  0  0  0
   -0.7017   62.2127   86.9938 C   0  0  0  0  0  0  0  0  0  0  0  0
    0.0141   63.3535   87.3497 C   0  0  0  0  0  0  0  0  0  0  0  0
    0.4264   64.2595   86.3671 C   0  0  0  0  0  0  0  0  0  0  0  0
    4.0174   71.0907   80.3363 C   0  0  0  0  0  0  0  0  0  0  0  0
    3.4697   72.4368   80.7527 C   0  0  0  0  0  0  0  0  0  0  0  0
    4.3296   73.4425   81.2173 C   0  0  0  0  0  0  0  0  0  0  0  0
    3.8255   74.6905   81.5869 C   0  0  0  0  0  0  0  0  0  0  0  0
    2.4593   74.9481   81.4885 C   0  0  0  0  0  0  0  0  0  0  0  0
    1.5967   73.9608   81.0155 C   0  0  0  0  0  0  0  0  0  0  0  0
    2.0989   72.7122   80.6460 C   0  0  0  0  0  0  0  0  0  0  0  0
  1  2  1  0  0  0
  2  3  2  0  0  0
  3  4  1  0  0  0
  4 28  1  0  0  0
 28 29  1  0  0  0
 29 30  2  0  0  0
 30 31  1  0  0  0
 31 32  2  0  0  0
 32 33  1  0  0  0
 33 34  2  0  0  0
  4  5  1  0  0  0
  5  6  2  0  0  0
  5  7  1  0  0  0
  7  8  1  0  0  0
  8  9  2  0  0  0
  9 16  1  0  0  0
 16 17  1  0  0  0
 17 18  2  0  0  0
 18 19  1  0  0  0
 19 20  2  0  0  0
 20 21  1  0  0  0
  9 10  1  0  0  0
 10 11  1  0  0  0
 11 12  2  0  0  0
 12 22  1  0  0  0
 22 23  2  0  0  0
 23 24  1  0  0  0
 24 25  2  0  0  0
 25 26  1  0  0  0
 26 27  2  0  0  0
 12 13  1  0  0  0
 13 14  2  0  0  0
 14 15  1  0  0  0
 15  2  1  0  0  0
 34 29  1  0  0  0
 15  7  2  0  0  0
 21 16  2  0  0  0
 14 10  1  0  0  0
 27 22  1  0  0  0
M  END
> <minimizedAffinity>
-10.33737

$$$$



 34 39  0  0  0  0  0  0  0  0999 V2000
   -0.2762   68.7326   80.0713 C   0  0  0  0  0  0  0  0  0  0  0  0
    0.9228   69.3837   80.7214 C   0  0  0  0  0  0  0  0  0  0  0  0
    1.2228   70.5610   80.2747 N   0  0  0  0  0  0  0  0  0  0  0  0
    2.2976   71.2095   80.8212 N   0  0  0  0  0  0  0  0  0  0  0  0
    3.0970   70.6841   81.8240 C   0  0  0  0  0  0  0  0  0  0  0  0
    4.0609   71.2846   82.3020 O   0  0  0  0  0  0  0  0  0  0  0  0
    2.7332   69.3056   82.3209 C   0  0  0  0  0  0  0  0  0  0  0  0
    3.5494   68.7782   83.3187 N   0  0  0  0  0  0  0  0  0  0  0  0
    3.2938   67.5892   83.7979 C   0  0  0  0  0  0  0  0  0  0  0  0
    2.1766   66.8932   83.2918 N   0  0  0  0  0  0  0  0  0  0  0  0
    1.7898   65.6924   83.7635 N   0  0  0  0  0  0  0  0  0  0  0  0
    0.7039   65.3633   83.0499 C   0  0  0  0  0  0  0  0  0  0  0  0
    0.3913   66.3987   82.1257 C   0  0  0  0  0  0  0  0  0  0  0  0
    1.3427   67.3790   82.3056 C   0  0  0  0  0  0  0  0  0  0  0  0
    1.6671   68.6681   81.7946 C   0  0  0  0  0  0  0  0  0  0  0  0
    4.2060   67.0673   84.8561 C   0  0  0  0  0  0  0  0  0  0  0  0
    4.6572   65.7471   84.9064 C   0  0  0  0  0  0  0  0  0  0  0  0
    5.5172   65.3508   85.9306 C   0  0  0  0  0  0  0  0  0  0  0  0
    5.9062   66.2924   86.8688 C   0  0  0  0  0  0  0  0  0  0  0  0
    5.5046   67.5801   86.8445 N   0  0  0  0  0  0  0  0  0  0  0  0
    4.6723   67.9409   85.8345 C   0  0  0  0  0  0  0  0  0  0  0  0
   -0.0031   64.0961   83.2699 C   0  0  0  0  0  0  0  0  0  0  0  0
   -0.7563   63.5156   82.2370 C   0  0  0  0  0  0  0  0  0  0  0  0
   -1.4312   62.3077   82.4330 C   0  0  0  0  0  0  0  0  0  0  0  0
   -1.3640   61.6647   83.6660 C   0  0  0  0  0  0  0  0  0  0  0  0
   -0.6241   62.2286   84.7029 C   0  0  0  0  0  0  0  0  0  0  0  0
    0.0523   63.4371   84.5071 C   0  0  0  0  0  0  0  0  0  0  0  0
    2.5475   72.5661   80.3427 C   0  0  0  0  0  0  0  0  0  0  0  0
    1.5607   73.5600   80.9117 C   0  0  0  0  0  0  0  0  0  0  0  0
    1.8384   74.2322   82.1107 C   0  0  0  0  0  0  0  0  0  0  0  0
    0.9342   75.1613   82.6277 C   0  0  0  0  0  0  0  0  0  0  0  0
   -0.2518   75.4335   81.9480 C   0  0  0  0  0  0  0  0  0  0  0  0
   -0.5325   74.7814   80.7486 C   0  0  0  0  0  0  0  0  0  0  0  0
    0.3703   73.8517   80.2304 C   0  0  0  0  0  0  0  0  0  0  0  0
  1  2  1  0  0  0
  2  3  2  0  0  0
  3  4  1  0  0  0
  4 28  1  0  0  0
 28 29  1  0  0  0
 29 30  2  0  0  0
 30 31  1  0  0  0
 31 32  2  0  0  0
 32 33  1  0  0  0
 33 34  2  0  0  0
  4  5  1  0  0  0
  5  6  2  0  0  0
  5  7  1  0  0  0
  7  8  1  0  0  0
  8  9  2  0  0  0
  9 16  1  0  0  0
 16 17  1  0  0  0
 17 18  2  0  0  0
 18 19  1  0  0  0
 19 20  2  0  0  0
 20 21  1  0  0  0
  9 10  1  0  0  0
 10 11  1  0  0  0
 11 12  2  0  0  0
 12 22  1  0  0  0
 22 23  2  0  0  0
 23 24  1  0  0  0
 24 25  2  0  0  0
 25 26  1  0  0  0
 26 27  2  0  0  0
 12 13  1  0  0  0
 13 14  2  0  0  0
 14 15  1  0  0  0
 15  2  1  0  0  0
 34 29  1  0  0  0
 15  7  2  0  0  0
 21 16  2  0  0  0
 14 10  1  0  0  0
 27 22  1  0  0  0
M  END
> <minimizedAffinity>
-10.14821

$$$$



 34 39  0  0  0  0  0  0  0  0999 V2000
    1.3854   66.8657   80.1576 C   0  0  0  0  0  0  0  0  0  0  0  0
    1.7047   67.0684   81.6208 C   0  0  0  0  0  0  0  0  0  0  0  0
    2.4557   68.0885   81.8870 N   0  0  0  0  0  0  0  0  0  0  0  0
    2.7826   68.3321   83.1939 N   0  0  0  0  0  0  0  0  0  0  0  0
    2.3662   67.5503   84.2598 C   0  0  0  0  0  0  0  0  0  0  0  0
    2.6725   67.7868   85.4296 O   0  0  0  0  0  0  0  0  0  0  0  0
    1.5000   66.3605   83.9228 C   0  0  0  0  0  0  0  0  0  0  0  0
    1.0970   65.5714   84.9975 N   0  0  0  0  0  0  0  0  0  0  0  0
    0.3443   64.5248   84.7810 C   0  0  0  0  0  0  0  0  0  0  0  0
   -0.0484   64.2497   83.4548 N   0  0  0  0  0  0  0  0  0  0  0  0
   -0.8746   63.2356   83.1338 N   0  0  0  0  0  0  0  0  0  0  0  0
   -1.0163   63.3005   81.8025 C   0  0  0  0  0  0  0  0  0  0  0  0
   -0.2780   64.4000   81.2831 C   0  0  0  0  0  0  0  0  0  0  0  0
    0.3272   65.0052   82.3630 C   0  0  0  0  0  0  0  0  0  0  0  0
    1.1643   66.1240   82.6378 C   0  0  0  0  0  0  0  0  0  0  0  0
   -0.0486   63.7077   85.9652 C   0  0  0  0  0  0  0  0  0  0  0  0
   -1.0226   62.7082   85.9268 C   0  0  0  0  0  0  0  0  0  0  0  0
   -1.3179   61.9884   87.0844 C   0  0  0  0  0  0  0  0  0  0  0  0
   -0.6215   62.2862   88.2440 C   0  0  0  0  0  0  0  0  0  0  0  0
    0.3368   63.2329   88.3166 N   0  0  0  0  0  0  0  0  0  0  0  0
    0.6085   63.9151   87.1748 C   0  0  0  0  0  0  0  0  0  0  0  0
   -1.8460   62.3353   81.0718 C   0  0  0  0  0  0  0  0  0  0  0  0
   -1.2639   61.1997   80.4861 C   0  0  0  0  0  0  0  0  0  0  0  0
   -2.0437   60.2717   79.7907 C   0  0  0  0  0  0  0  0  0  0  0  0
   -3.4168   60.4679   79.6693 C   0  0  0  0  0  0  0  0  0  0  0  0
   -4.0101   61.5911   80.2412 C   0  0  0  0  0  0  0  0  0  0  0  0
   -3.2303   62.5198   80.9381 C   0  0  0  0  0  0  0  0  0  0  0  0
    3.5632   69.5387   83.4523 C   0  0  0  0  0  0  0  0  0  0  0  0
    3.6184   70.4487   82.2464 C   0  0  0  0  0  0  0  0  0  0  0  0
    2.9440   71.6783   82.2508 C   0  0  0  0  0  0  0  0  0  0  0  0
    3.0080   72.5252   81.1433 C   0  0  0  0  0  0  0  0  0  0  0  0
    3.7524   72.1556   80.0244 C   0  0  0  0  0  0  0  0  0  0  0  0
    4.4377   70.9421   80.0137 C   0  0  0  0  0  0  0  0  0  0  0  0
    4.3744   70.0937   81.1201 C   0  0  0  0  0  0  0  0  0  0  0  0
  1  2  1  0  0  0
  2  3  2  0  0  0
  3  4  1  0  0  0
  4 28  1  0  0  0
 28 29  1  0  0  0
 29 30  2  0  0  0
 30 31  1  0  0  0
 31 32  2  0  0  0
 32 33  1  0  0  0
 33 34  2  0  0  0
  4  5  1  0  0  0
  5  6  2  0  0  0
  5  7  1  0  0  0
  7  8  1  0  0  0
  8  9  2  0  0  0
  9 16  1  0  0  0
 16 17  1  0  0  0
 17 18  2  0  0  0
 18 19  1  0  0  0
 19 20  2  0  0  0
 20 21  1  0  0  0
  9 10  1  0  0  0
 10 11  1  0  0  0
 11 12  2  0  0  0
 12 22  1  0  0  0
 22 23  2  0  0  0
 23 24  1  0  0  0
 24 25  2  0  0  0
 25 26  1  0  0  0
 26 27  2  0  0  0
 12 13  1  0  0  0
 13 14  2  0  0  0
 14 15  1  0  0  0
 15  2  1  0  0  0
 34 29  1  0  0  0
 15  7  2  0  0  0
 21 16  2  0  0  0
 14 10  1  0  0  0
 27 22  1  0  0  0
M  END
> <minimizedAffinity>
-9.97589

$$$$
