


 27 30  0  0  0  0  0  0  0  0999 V2000
    4.0288   64.6651   86.8729 C   0  0  0  0  0  0  0  0  0  0  0  0
    3.0356   65.2431   85.9935 N   0  0  0  0  0  0  0  0  0  0  0  0
    3.4695   66.1207   85.0308 N   0  0  0  0  0  0  0  0  0  0  0  0
    2.4765   66.3996   84.2357 C   0  0  0  0  0  0  0  0  0  0  0  0
    0.9491   65.5987   84.5839 S   0  0  0  0  0  0  0  0  0  0  0  0
    1.7434   64.7701   85.9210 C   0  0  0  0  0  0  0  0  0  0  0  0
    1.2106   63.8734   86.6923 N   0  0  0  0  0  0  0  0  0  0  0  0
    2.6026   67.3338   83.0870 C   0  0  0  0  0  0  0  0  0  0  0  0
    2.0549   67.0695   81.8227 C   0  0  0  0  0  0  0  0  0  0  0  0
    2.2071   67.9893   80.7780 C   0  0  0  0  0  0  0  0  0  0  0  0
    2.9058   69.1756   80.9899 C   0  0  0  0  0  0  0  0  0  0  0  0
    3.0900   70.3019   79.7037 Cl  0  0  0  0  0  0  0  0  0  0  0  0
    3.4554   69.4528   82.2384 C   0  0  0  0  0  0  0  0  0  0  0  0
    3.3043   68.5351   83.2829 C   0  0  0  0  0  0  0  0  0  0  0  0
   -0.1188   63.4757   86.5077 C   0  0  0  0  0  0  0  0  0  0  0  0
   -1.0255   63.5456   87.5676 C   0  0  0  0  0  0  0  0  0  0  0  0
   -2.3441   63.1270   87.3966 C   0  0  0  0  0  0  0  0  0  0  0  0
   -2.7585   62.6226   86.1625 C   0  0  0  0  0  0  0  0  0  0  0  0
   -1.8580   62.5246   85.0909 C   0  0  0  0  0  0  0  0  0  0  0  0
   -0.5342   62.9489   85.2804 C   0  0  0  0  0  0  0  0  0  0  0  0
   -2.3000   61.9876   83.8076 C   0  0  0  0  0  0  0  0  0  0  0  0
   -2.2531   62.6747   82.6481 N   0  0  0  0  0  0  0  0  0  0  0  0
   -2.7688   61.7745   81.7120 O   0  0  0  0  0  0  0  0  0  0  0  0
   -3.0676   60.6558   82.4106 C   0  0  0  0  0  0  0  0  0  0  0  0
   -3.5771   59.6483   81.7368 O   0  0  0  0  0  0  0  0  0  0  0  0
   -2.8127   60.7108   83.6852 N   0  0  0  0  0  0  0  0  0  0  0  0
   -3.6143   59.9781   80.8253 H   0  0  0  0  0  0  0  0  0  0  0  0
  1  2  1  0  0  0
  2  3  1  0  0  0
  3  4  2  0  0  0
  4  8  1  0  0  0
  8  9  1  0  0  0
  9 10  2  0  0  0
 10 11  1  0  0  0
 11 12  1  0  0  0
 11 13  2  0  0  0
 13 14  1  0  0  0
  4  5  1  0  0  0
  5  6  1  0  0  0
  6  7  2  0  0  0
  7 15  1  0  0  0
 15 16  1  0  0  0
 16 17  2  0  0  0
 17 18  1  0  0  0
 18 19  2  0  0  0
 19 21  1  0  0  0
 21 22  2  0  0  0
 22 23  1  0  0  0
 23 24  1  0  0  0
 24 25  1  0  0  0
 24 26  2  0  0  0
 19 20  1  0  0  0
  6  2  1  0  0  0
 20 15  2  0  0  0
 14  8  2  0  0  0
 26 21  1  0  0  0
 25 27  1  0  0  0
M  END
> <minimizedAffinity>
-10.40229

$$$$



 27 30  0  0  0  0  0  0  0  0999 V2000
   -1.0678   62.4863   87.0499 C   0  0  0  0  0  0  0  0  0  0  0  0
   -0.7688   62.5737   85.6367 N   0  0  0  0  0  0  0  0  0  0  0  0
   -1.5593   61.8576   84.7721 N   0  0  0  0  0  0  0  0  0  0  0  0
   -1.2565   62.1901   83.5499 C   0  0  0  0  0  0  0  0  0  0  0  0
   -0.0065   63.4138   83.3608 S   0  0  0  0  0  0  0  0  0  0  0  0
    0.0919   63.5161   85.1172 C   0  0  0  0  0  0  0  0  0  0  0  0
    0.8344   64.3340   85.7972 N   0  0  0  0  0  0  0  0  0  0  0  0
   -1.9200   61.5890   82.3639 C   0  0  0  0  0  0  0  0  0  0  0  0
   -2.5334   60.3275   82.3883 C   0  0  0  0  0  0  0  0  0  0  0  0
   -3.1429   59.8133   81.2375 C   0  0  0  0  0  0  0  0  0  0  0  0
   -3.1432   60.5548   80.0582 C   0  0  0  0  0  0  0  0  0  0  0  0
   -3.8931   59.9189   78.6475 Cl  0  0  0  0  0  0  0  0  0  0  0  0
   -2.5389   61.8081   80.0173 C   0  0  0  0  0  0  0  0  0  0  0  0
   -1.9296   62.3231   81.1660 C   0  0  0  0  0  0  0  0  0  0  0  0
    1.6654   65.2512   85.1432 C   0  0  0  0  0  0  0  0  0  0  0  0
    1.1250   66.1633   84.2342 C   0  0  0  0  0  0  0  0  0  0  0  0
    1.9511   67.0619   83.5610 C   0  0  0  0  0  0  0  0  0  0  0  0
    3.3288   67.0422   83.7865 C   0  0  0  0  0  0  0  0  0  0  0  0
    3.8942   66.1200   84.6802 C   0  0  0  0  0  0  0  0  0  0  0  0
    3.0487   65.2216   85.3482 C   0  0  0  0  0  0  0  0  0  0  0  0
    5.3368   66.1026   84.9017 C   0  0  0  0  0  0  0  0  0  0  0  0
    5.9467   65.3350   85.8277 N   0  0  0  0  0  0  0  0  0  0  0  0
    7.2999   65.6483   85.6743 O   0  0  0  0  0  0  0  0  0  0  0  0
    7.3499   66.5645   84.6810 C   0  0  0  0  0  0  0  0  0  0  0  0
    8.5370   67.0218   84.3486 O   0  0  0  0  0  0  0  0  0  0  0  0
    6.2006   66.8904   84.1658 N   0  0  0  0  0  0  0  0  0  0  0  0
    9.1394   66.5483   84.9435 H   0  0  0  0  0  0  0  0  0  0  0  0
  1  2  1  0  0  0
  2  3  1  0  0  0
  3  4  2  0  0  0
  4  8  1  0  0  0
  8  9  1  0  0  0
  9 10  2  0  0  0
 10 11  1  0  0  0
 11 12  1  0  0  0
 11 13  2  0  0  0
 13 14  1  0  0  0
  4  5  1  0  0  0
  5  6  1  0  0  0
  6  7  2  0  0  0
  7 15  1  0  0  0
 15 16  1  0  0  0
 16 17  2  0  0  0
 17 18  1  0  0  0
 18 19  2  0  0  0
 19 21  1  0  0  0
 21 22  2  0  0  0
 22 23  1  0  0  0
 23 24  1  0  0  0
 24 25  1  0  0  0
 24 26  2  0  0  0
 19 20  1  0  0  0
  6  2  1  0  0  0
 20 15  2  0  0  0
 14  8  2  0  0  0
 26 21  1  0  0  0
 25 27  1  0  0  0
M  END
> <minimizedAffinity>
-10.38039

$$$$



 27 30  0  0  0  0  0  0  0  0999 V2000
   -0.5070   61.9417   85.4343 C   0  0  0  0  0  0  0  0  0  0  0  0
   -0.5584   62.9446   84.3924 N   0  0  0  0  0  0  0  0  0  0  0  0
    0.2930   64.0168   84.4966 N   0  0  0  0  0  0  0  0  0  0  0  0
    0.2294   64.7142   83.3986 C   0  0  0  0  0  0  0  0  0  0  0  0
   -0.8507   64.1068   82.1495 S   0  0  0  0  0  0  0  0  0  0  0  0
   -1.2283   62.7469   83.2045 C   0  0  0  0  0  0  0  0  0  0  0  0
   -1.9924   61.7398   82.9135 N   0  0  0  0  0  0  0  0  0  0  0  0
    1.0202   65.9541   83.1853 C   0  0  0  0  0  0  0  0  0  0  0  0
    1.7529   66.5788   84.2057 C   0  0  0  0  0  0  0  0  0  0  0  0
    2.4793   67.7467   83.9435 C   0  0  0  0  0  0  0  0  0  0  0  0
    2.4779   68.2960   82.6634 C   0  0  0  0  0  0  0  0  0  0  0  0
    3.3715   69.7305   82.3466 Cl  0  0  0  0  0  0  0  0  0  0  0  0
    1.7560   67.6884   81.6400 C   0  0  0  0  0  0  0  0  0  0  0  0
    1.0299   66.5218   81.9002 C   0  0  0  0  0  0  0  0  0  0  0  0
   -2.6132   61.6565   81.6617 C   0  0  0  0  0  0  0  0  0  0  0  0
   -3.8455   62.2777   81.4471 C   0  0  0  0  0  0  0  0  0  0  0  0
   -4.4805   62.1767   80.2103 C   0  0  0  0  0  0  0  0  0  0  0  0
   -3.8879   61.4398   79.1831 C   0  0  0  0  0  0  0  0  0  0  0  0
   -2.6602   60.7909   79.3846 C   0  0  0  0  0  0  0  0  0  0  0  0
   -2.0354   60.9015   80.6359 C   0  0  0  0  0  0  0  0  0  0  0  0
   -2.0541   60.0160   78.3063 C   0  0  0  0  0  0  0  0  0  0  0  0
   -2.7515   59.2315   77.4595 N   0  0  0  0  0  0  0  0  0  0  0  0
   -1.7694   58.7030   76.6175 O   0  0  0  0  0  0  0  0  0  0  0  0
   -0.5999   59.2247   77.0519 C   0  0  0  0  0  0  0  0  0  0  0  0
    0.4895   58.8691   76.4073 O   0  0  0  0  0  0  0  0  0  0  0  0
   -0.6929   60.0271   78.0717 N   0  0  0  0  0  0  0  0  0  0  0  0
    0.1619   58.2722   75.7162 H   0  0  0  0  0  0  0  0  0  0  0  0
  1  2  1  0  0  0
  2  3  1  0  0  0
  3  4  2  0  0  0
  4  8  1  0  0  0
  8  9  1  0  0  0
  9 10  2  0  0  0
 10 11  1  0  0  0
 11 12  1  0  0  0
 11 13  2  0  0  0
 13 14  1  0  0  0
  4  5  1  0  0  0
  5  6  1  0  0  0
  6  7  2  0  0  0
  7 15  1  0  0  0
 15 16  1  0  0  0
 16 17  2  0  0  0
 17 18  1  0  0  0
 18 19  2  0  0  0
 19 21  1  0  0  0
 21 22  2  0  0  0
 22 23  1  0  0  0
 23 24  1  0  0  0
 24 25  1  0  0  0
 24 26  2  0  0  0
 19 20  1  0  0  0
  6  2  1  0  0  0
 20 15  2  0  0  0
 14  8  2  0  0  0
 26 21  1  0  0  0
 25 27  1  0  0  0
M  END
> <minimizedAffinity>
-10.31013

$$$$



 27 30  0  0  0  0  0  0  0  0999 V2000
   -2.6957   62.4640   81.1519 C   0  0  0  0  0  0  0  0  0  0  0  0
   -1.8760   63.2017   82.0889 N   0  0  0  0  0  0  0  0  0  0  0  0
   -1.7974   62.7303   83.3761 N   0  0  0  0  0  0  0  0  0  0  0  0
   -0.8924   63.4104   84.0199 C   0  0  0  0  0  0  0  0  0  0  0  0
   -0.0535   64.6563   83.1035 S   0  0  0  0  0  0  0  0  0  0  0  0
   -0.9962   64.1849   81.6913 C   0  0  0  0  0  0  0  0  0  0  0  0
   -0.8787   64.6703   80.4941 N   0  0  0  0  0  0  0  0  0  0  0  0
   -0.5631   63.1627   85.4476 C   0  0  0  0  0  0  0  0  0  0  0  0
    0.2842   63.9963   86.1928 C   0  0  0  0  0  0  0  0  0  0  0  0
    0.5575   63.7108   87.5360 C   0  0  0  0  0  0  0  0  0  0  0  0
   -0.0129   62.5932   88.1411 C   0  0  0  0  0  0  0  0  0  0  0  0
    0.3259   62.2468   89.7910 Cl  0  0  0  0  0  0  0  0  0  0  0  0
   -0.8557   61.7559   87.4157 C   0  0  0  0  0  0  0  0  0  0  0  0
   -1.1296   62.0398   86.0739 C   0  0  0  0  0  0  0  0  0  0  0  0
    0.0638   65.6686   80.2208 C   0  0  0  0  0  0  0  0  0  0  0  0
    1.1390   65.4040   79.3699 C   0  0  0  0  0  0  0  0  0  0  0  0
    2.0945   66.3864   79.1143 C   0  0  0  0  0  0  0  0  0  0  0  0
    1.9838   67.6383   79.7222 C   0  0  0  0  0  0  0  0  0  0  0  0
    0.9225   67.9176   80.5966 C   0  0  0  0  0  0  0  0  0  0  0  0
   -0.0295   66.9172   80.8441 C   0  0  0  0  0  0  0  0  0  0  0  0
    0.8215   69.2271   81.2334 C   0  0  0  0  0  0  0  0  0  0  0  0
   -0.1524   70.1208   80.9658 N   0  0  0  0  0  0  0  0  0  0  0  0
    0.1566   71.2015   81.7961 O   0  0  0  0  0  0  0  0  0  0  0  0
    1.2754   70.8384   82.4631 C   0  0  0  0  0  0  0  0  0  0  0  0
    1.7695   71.7058   83.3187 O   0  0  0  0  0  0  0  0  0  0  0  0
    1.7374   69.6571   82.1738 N   0  0  0  0  0  0  0  0  0  0  0  0
    1.1581   72.4568   83.2621 H   0  0  0  0  0  0  0  0  0  0  0  0
  1  2  1  0  0  0
  2  3  1  0  0  0
  3  4  2  0  0  0
  4  8  1  0  0  0
  8  9  1  0  0  0
  9 10  2  0  0  0
 10 11  1  0  0  0
 11 12  1  0  0  0
 11 13  2  0  0  0
 13 14  1  0  0  0
  4  5  1  0  0  0
  5  6  1  0  0  0
  6  7  2  0  0  0
  7 15  1  0  0  0
 15 16  1  0  0  0
 16 17  2  0  0  0
 17 18  1  0  0  0
 18 19  2  0  0  0
 19 21  1  0  0  0
 21 22  2  0  0  0
 22 23  1  0  0  0
 23 24  1  0  0  0
 24 25  1  0  0  0
 24 26  2  0  0  0
 19 20  1  0  0  0
  6  2  1  0  0  0
 20 15  2  0  0  0
 14  8  2  0  0  0
 26 21  1  0  0  0
 25 27  1  0  0  0
M  END
> <minimizedAffinity>
-10.24344

$$$$



 27 30  0  0  0  0  0  0  0  0999 V2000
   -0.2966   62.9237   86.8192 C   0  0  0  0  0  0  0  0  0  0  0  0
   -0.2522   63.5738   85.5271 N   0  0  0  0  0  0  0  0  0  0  0  0
    0.5182   64.7040   85.4079 N   0  0  0  0  0  0  0  0  0  0  0  0
    0.5746   65.0457   84.1525 C   0  0  0  0  0  0  0  0  0  0  0  0
   -0.2838   64.0067   83.0214 S   0  0  0  0  0  0  0  0  0  0  0  0
   -0.7354   62.9806   84.3810 C   0  0  0  0  0  0  0  0  0  0  0  0
   -1.3965   61.8665   84.3144 N   0  0  0  0  0  0  0  0  0  0  0  0
    1.3215   66.2384   83.6753 C   0  0  0  0  0  0  0  0  0  0  0  0
    2.0946   67.0461   84.5228 C   0  0  0  0  0  0  0  0  0  0  0  0
    2.7762   68.1584   84.0143 C   0  0  0  0  0  0  0  0  0  0  0  0
    2.6895   68.4696   82.6593 C   0  0  0  0  0  0  0  0  0  0  0  0
    3.5285   69.8367   82.0397 Cl  0  0  0  0  0  0  0  0  0  0  0  0
    1.9266   67.6784   81.8051 C   0  0  0  0  0  0  0  0  0  0  0  0
    1.2451   66.5670   82.3114 C   0  0  0  0  0  0  0  0  0  0  0  0
   -1.8281   61.3685   83.0794 C   0  0  0  0  0  0  0  0  0  0  0  0
   -2.9486   60.5377   83.0110 C   0  0  0  0  0  0  0  0  0  0  0  0
   -3.3679   60.0182   81.7872 C   0  0  0  0  0  0  0  0  0  0  0  0
   -2.6566   60.3193   80.6242 C   0  0  0  0  0  0  0  0  0  0  0  0
   -1.5161   61.1351   80.6743 C   0  0  0  0  0  0  0  0  0  0  0  0
   -1.1069   61.6484   81.9142 C   0  0  0  0  0  0  0  0  0  0  0  0
   -0.7751   61.4363   79.4533 C   0  0  0  0  0  0  0  0  0  0  0  0
   -0.8193   60.6769   78.3396 N   0  0  0  0  0  0  0  0  0  0  0  0
    0.0306   61.3441   77.4534 O   0  0  0  0  0  0  0  0  0  0  0  0
    0.4883   62.4211   78.1310 C   0  0  0  0  0  0  0  0  0  0  0  0
    1.3203   63.2174   77.4966 O   0  0  0  0  0  0  0  0  0  0  0  0
    0.0456   62.5424   79.3483 N   0  0  0  0  0  0  0  0  0  0  0  0
    1.4079   62.8069   76.6220 H   0  0  0  0  0  0  0  0  0  0  0  0
  1  2  1  0  0  0
  2  3  1  0  0  0
  3  4  2  0  0  0
  4  8  1  0  0  0
  8  9  1  0  0  0
  9 10  2  0  0  0
 10 11  1  0  0  0
 11 12  1  0  0  0
 11 13  2  0  0  0
 13 14  1  0  0  0
  4  5  1  0  0  0
  5  6  1  0  0  0
  6  7  2  0  0  0
  7 15  1  0  0  0
 15 16  1  0  0  0
 16 17  2  0  0  0
 17 18  1  0  0  0
 18 19  2  0  0  0
 19 21  1  0  0  0
 21 22  2  0  0  0
 22 23  1  0  0  0
 23 24  1  0  0  0
 24 25  1  0  0  0
 24 26  2  0  0  0
 19 20  1  0  0  0
  6  2  1  0  0  0
 20 15  2  0  0  0
 14  8  2  0  0  0
 26 21  1  0  0  0
 25 27  1  0  0  0
M  END
> <minimizedAffinity>
-10.08755

$$$$



 27 30  0  0  0  0  0  0  0  0999 V2000
    0.9571   64.8857   78.7928 C   0  0  0  0  0  0  0  0  0  0  0  0
    1.0144   65.4932   80.1050 N   0  0  0  0  0  0  0  0  0  0  0  0
    1.4357   66.7975   80.1860 N   0  0  0  0  0  0  0  0  0  0  0  0
    1.2594   67.2229   81.4042 C   0  0  0  0  0  0  0  0  0  0  0  0
    0.5473   66.0785   82.5352 S   0  0  0  0  0  0  0  0  0  0  0  0
    0.4404   64.9149   81.2162 C   0  0  0  0  0  0  0  0  0  0  0  0
   -0.0882   63.7319   81.2783 N   0  0  0  0  0  0  0  0  0  0  0  0
    1.6248   68.5962   81.8384 C   0  0  0  0  0  0  0  0  0  0  0  0
    2.8644   68.9116   82.4148 C   0  0  0  0  0  0  0  0  0  0  0  0
    3.1511   70.2255   82.8045 C   0  0  0  0  0  0  0  0  0  0  0  0
    2.2031   71.2296   82.6211 C   0  0  0  0  0  0  0  0  0  0  0  0
    2.5600   72.8417   83.1015 Cl  0  0  0  0  0  0  0  0  0  0  0  0
    0.9684   70.9333   82.0508 C   0  0  0  0  0  0  0  0  0  0  0  0
    0.6805   69.6213   81.6610 C   0  0  0  0  0  0  0  0  0  0  0  0
   -0.6454   63.2639   82.4742 C   0  0  0  0  0  0  0  0  0  0  0  0
   -1.8471   62.5527   82.4570 C   0  0  0  0  0  0  0  0  0  0  0  0
   -2.4197   62.1063   83.6471 C   0  0  0  0  0  0  0  0  0  0  0  0
   -1.7953   62.3824   84.8649 C   0  0  0  0  0  0  0  0  0  0  0  0
   -0.5982   63.1133   84.9056 C   0  0  0  0  0  0  0  0  0  0  0  0
   -0.0363   63.5564   83.6988 C   0  0  0  0  0  0  0  0  0  0  0  0
    0.0412   63.4036   86.1851 C   0  0  0  0  0  0  0  0  0  0  0  0
    1.1960   64.0888   86.3110 N   0  0  0  0  0  0  0  0  0  0  0  0
    1.4121   64.1174   87.6913 O   0  0  0  0  0  0  0  0  0  0  0  0
    0.3704   63.4486   88.2356 C   0  0  0  0  0  0  0  0  0  0  0  0
    0.3495   63.3383   89.5456 O   0  0  0  0  0  0  0  0  0  0  0  0
   -0.4993   62.9859   87.3858 N   0  0  0  0  0  0  0  0  0  0  0  0
    1.1512   63.8061   89.8274 H   0  0  0  0  0  0  0  0  0  0  0  0
  1  2  1  0  0  0
  2  3  1  0  0  0
  3  4  2  0  0  0
  4  8  1  0  0  0
  8  9  1  0  0  0
  9 10  2  0  0  0
 10 11  1  0  0  0
 11 12  1  0  0  0
 11 13  2  0  0  0
 13 14  1  0  0  0
  4  5  1  0  0  0
  5  6  1  0  0  0
  6  7  2  0  0  0
  7 15  1  0  0  0
 15 16  1  0  0  0
 16 17  2  0  0  0
 17 18  1  0  0  0
 18 19  2  0  0  0
 19 21  1  0  0  0
 21 22  2  0  0  0
 22 23  1  0  0  0
 23 24  1  0  0  0
 24 25  1  0  0  0
 24 26  2  0  0  0
 19 20  1  0  0  0
  6  2  1  0  0  0
 20 15  2  0  0  0
 14  8  2  0  0  0
 26 21  1  0  0  0
 25 27  1  0  0  0
M  END
> <minimizedAffinity>
-10.07947

$$$$



 27 30  0  0  0  0  0  0  0  0999 V2000
    0.6649   63.2753   78.6455 C   0  0  0  0  0  0  0  0  0  0  0  0
    0.6256   64.2125   79.7474 N   0  0  0  0  0  0  0  0  0  0  0  0
    0.9426   65.5220   79.4824 N   0  0  0  0  0  0  0  0  0  0  0  0
    0.6880   66.2397   80.5388 C   0  0  0  0  0  0  0  0  0  0  0  0
    0.0229   65.3819   81.9236 S   0  0  0  0  0  0  0  0  0  0  0  0
    0.0557   63.9046   80.9635 C   0  0  0  0  0  0  0  0  0  0  0  0
   -0.3829   62.7408   81.3321 N   0  0  0  0  0  0  0  0  0  0  0  0
    0.9305   67.7047   80.5946 C   0  0  0  0  0  0  0  0  0  0  0  0
   -0.0985   68.6447   80.7557 C   0  0  0  0  0  0  0  0  0  0  0  0
    0.1924   70.0135   80.8007 C   0  0  0  0  0  0  0  0  0  0  0  0
    1.5101   70.4502   80.6852 C   0  0  0  0  0  0  0  0  0  0  0  0
    1.8623   72.1324   80.7411 Cl  0  0  0  0  0  0  0  0  0  0  0  0
    2.5427   69.5306   80.5247 C   0  0  0  0  0  0  0  0  0  0  0  0
    2.2537   68.1629   80.4795 C   0  0  0  0  0  0  0  0  0  0  0  0
   -0.9478   62.5627   82.6005 C   0  0  0  0  0  0  0  0  0  0  0  0
   -2.2313   62.0273   82.7279 C   0  0  0  0  0  0  0  0  0  0  0  0
   -2.8088   61.8714   83.9870 C   0  0  0  0  0  0  0  0  0  0  0  0
   -2.1058   62.2645   85.1274 C   0  0  0  0  0  0  0  0  0  0  0  0
   -0.8233   62.8238   85.0198 C   0  0  0  0  0  0  0  0  0  0  0  0
   -0.2575   62.9750   83.7449 C   0  0  0  0  0  0  0  0  0  0  0  0
   -0.1010   63.2392   86.2182 C   0  0  0  0  0  0  0  0  0  0  0  0
    0.9759   64.0509   86.2042 N   0  0  0  0  0  0  0  0  0  0  0  0
    1.3186   64.1649   87.5541 O   0  0  0  0  0  0  0  0  0  0  0  0
    0.4160   63.4119   88.2226 C   0  0  0  0  0  0  0  0  0  0  0  0
    0.5333   63.3589   89.5311 O   0  0  0  0  0  0  0  0  0  0  0  0
   -0.4734   62.8195   87.4805 N   0  0  0  0  0  0  0  0  0  0  0  0
    1.3005   63.9234   89.7150 H   0  0  0  0  0  0  0  0  0  0  0  0
  1  2  1  0  0  0
  2  3  1  0  0  0
  3  4  2  0  0  0
  4  8  1  0  0  0
  8  9  1  0  0  0
  9 10  2  0  0  0
 10 11  1  0  0  0
 11 12  1  0  0  0
 11 13  2  0  0  0
 13 14  1  0  0  0
  4  5  1  0  0  0
  5  6  1  0  0  0
  6  7  2  0  0  0
  7 15  1  0  0  0
 15 16  1  0  0  0
 16 17  2  0  0  0
 17 18  1  0  0  0
 18 19  2  0  0  0
 19 21  1  0  0  0
 21 22  2  0  0  0
 22 23  1  0  0  0
 23 24  1  0  0  0
 24 25  1  0  0  0
 24 26  2  0  0  0
 19 20  1  0  0  0
  6  2  1  0  0  0
 20 15  2  0  0  0
 14  8  2  0  0  0
 26 21  1  0  0  0
 25 27  1  0  0  0
M  END
> <minimizedAffinity>
-10.06997

$$$$



 27 30  0  0  0  0  0  0  0  0999 V2000
    0.6219   62.2134   80.1719 C   0  0  0  0  0  0  0  0  0  0  0  0
    0.2717   63.0934   81.2661 N   0  0  0  0  0  0  0  0  0  0  0  0
    0.2066   62.5503   82.5255 N   0  0  0  0  0  0  0  0  0  0  0  0
    0.0517   63.5105   83.3915 C   0  0  0  0  0  0  0  0  0  0  0  0
   -0.0026   65.1453   82.7430 S   0  0  0  0  0  0  0  0  0  0  0  0
    0.2485   64.4651   81.1369 C   0  0  0  0  0  0  0  0  0  0  0  0
    0.3921   65.1340   80.0348 N   0  0  0  0  0  0  0  0  0  0  0  0
   -0.0683   63.2659   84.8522 C   0  0  0  0  0  0  0  0  0  0  0  0
   -0.7438   62.1598   85.3894 C   0  0  0  0  0  0  0  0  0  0  0  0
   -0.8236   61.9829   86.7760 C   0  0  0  0  0  0  0  0  0  0  0  0
   -0.2304   62.9080   87.6321 C   0  0  0  0  0  0  0  0  0  0  0  0
   -0.3312   62.6863   89.3343 Cl  0  0  0  0  0  0  0  0  0  0  0  0
    0.4434   64.0108   87.1151 C   0  0  0  0  0  0  0  0  0  0  0  0
    0.5240   64.1890   85.7303 C   0  0  0  0  0  0  0  0  0  0  0  0
    0.3532   66.5333   80.0421 C   0  0  0  0  0  0  0  0  0  0  0  0
   -0.8517   67.2027   79.8176 C   0  0  0  0  0  0  0  0  0  0  0  0
   -0.8917   68.5960   79.7983 C   0  0  0  0  0  0  0  0  0  0  0  0
    0.2817   69.3275   79.9918 C   0  0  0  0  0  0  0  0  0  0  0  0
    1.5062   68.6741   80.1982 C   0  0  0  0  0  0  0  0  0  0  0  0
    1.5289   67.2714   80.2131 C   0  0  0  0  0  0  0  0  0  0  0  0
    2.7281   69.4489   80.3906 C   0  0  0  0  0  0  0  0  0  0  0  0
    3.4549   69.4382   81.5266 N   0  0  0  0  0  0  0  0  0  0  0  0
    4.5100   70.3115   81.2496 O   0  0  0  0  0  0  0  0  0  0  0  0
    4.2984   70.7473   79.9871 C   0  0  0  0  0  0  0  0  0  0  0  0
    5.1733   71.5953   79.4927 O   0  0  0  0  0  0  0  0  0  0  0  0
    3.2382   70.2698   79.4036 N   0  0  0  0  0  0  0  0  0  0  0  0
    5.8139   71.7087   80.2123 H   0  0  0  0  0  0  0  0  0  0  0  0
  1  2  1  0  0  0
  2  3  1  0  0  0
  3  4  2  0  0  0
  4  8  1  0  0  0
  8  9  1  0  0  0
  9 10  2  0  0  0
 10 11  1  0  0  0
 11 12  1  0  0  0
 11 13  2  0  0  0
 13 14  1  0  0  0
  4  5  1  0  0  0
  5  6  1  0  0  0
  6  7  2  0  0  0
  7 15  1  0  0  0
 15 16  1  0  0  0
 16 17  2  0  0  0
 17 18  1  0  0  0
 18 19  2  0  0  0
 19 21  1  0  0  0
 21 22  2  0  0  0
 22 23  1  0  0  0
 23 24  1  0  0  0
 24 25  1  0  0  0
 24 26  2  0  0  0
 19 20  1  0  0  0
  6  2  1  0  0  0
 20 15  2  0  0  0
 14  8  2  0  0  0
 26 21  1  0  0  0
 25 27  1  0  0  0
M  END
> <minimizedAffinity>
-9.96610

$$$$



 27 30  0  0  0  0  0  0  0  0999 V2000
    5.6467   67.7147   84.2328 C   0  0  0  0  0  0  0  0  0  0  0  0
    4.2830   68.1104   83.9535 N   0  0  0  0  0  0  0  0  0  0  0  0
    4.0871   69.2838   83.2679 N   0  0  0  0  0  0  0  0  0  0  0  0
    2.8259   69.3873   82.9606 C   0  0  0  0  0  0  0  0  0  0  0  0
    1.7889   68.0566   83.4604 S   0  0  0  0  0  0  0  0  0  0  0  0
    3.2138   67.2574   84.1207 C   0  0  0  0  0  0  0  0  0  0  0  0
    3.2507   66.0781   84.6598 N   0  0  0  0  0  0  0  0  0  0  0  0
    2.2696   70.5514   82.2232 C   0  0  0  0  0  0  0  0  0  0  0  0
    3.0688   71.5825   81.7071 C   0  0  0  0  0  0  0  0  0  0  0  0
    2.4862   72.6548   81.0207 C   0  0  0  0  0  0  0  0  0  0  0  0
    1.1050   72.7031   80.8463 C   0  0  0  0  0  0  0  0  0  0  0  0
    0.3944   74.0221   80.0027 Cl  0  0  0  0  0  0  0  0  0  0  0  0
    0.2980   71.6879   81.3523 C   0  0  0  0  0  0  0  0  0  0  0  0
    0.8784   70.6162   82.0382 C   0  0  0  0  0  0  0  0  0  0  0  0
    2.0869   65.3074   84.7647 C   0  0  0  0  0  0  0  0  0  0  0  0
    1.3011   65.0663   83.6356 C   0  0  0  0  0  0  0  0  0  0  0  0
    0.1276   64.3210   83.7389 C   0  0  0  0  0  0  0  0  0  0  0  0
   -0.2721   63.8228   84.9804 C   0  0  0  0  0  0  0  0  0  0  0  0
    0.4923   64.0713   86.1306 C   0  0  0  0  0  0  0  0  0  0  0  0
    1.6696   64.8245   86.0093 C   0  0  0  0  0  0  0  0  0  0  0  0
    0.0603   63.5529   87.4249 C   0  0  0  0  0  0  0  0  0  0  0  0
   -1.1940   63.6771   87.9046 N   0  0  0  0  0  0  0  0  0  0  0  0
   -1.1345   63.0417   89.1478 O   0  0  0  0  0  0  0  0  0  0  0  0
    0.1413   62.6118   89.2749 C   0  0  0  0  0  0  0  0  0  0  0  0
    0.4496   61.9735   90.3822 O   0  0  0  0  0  0  0  0  0  0  0  0
    0.9237   62.8861   88.2723 N   0  0  0  0  0  0  0  0  0  0  0  0
   -0.3836   61.9612   90.8789 H   0  0  0  0  0  0  0  0  0  0  0  0
  1  2  1  0  0  0
  2  3  1  0  0  0
  3  4  2  0  0  0
  4  8  1  0  0  0
  8  9  1  0  0  0
  9 10  2  0  0  0
 10 11  1  0  0  0
 11 12  1  0  0  0
 11 13  2  0  0  0
 13 14  1  0  0  0
  4  5  1  0  0  0
  5  6  1  0  0  0
  6  7  2  0  0  0
  7 15  1  0  0  0
 15 16  1  0  0  0
 16 17  2  0  0  0
 17 18  1  0  0  0
 18 19  2  0  0  0
 19 21  1  0  0  0
 21 22  2  0  0  0
 22 23  1  0  0  0
 23 24  1  0  0  0
 24 25  1  0  0  0
 24 26  2  0  0  0
 19 20  1  0  0  0
  6  2  1  0  0  0
 20 15  2  0  0  0
 14  8  2  0  0  0
 26 21  1  0  0  0
 25 27  1  0  0  0
M  END
> <minimizedAffinity>
-9.95038

$$$$
