
     RDKit          3D

 81 84  0  0  0  0  0  0  0  0999 V2000
   -5.2213   -3.6370    1.4273 C   0  0  0  0  0  0  0  0  0  0  0  0
   -4.0326   -3.5034    2.3682 C   0  0  0  0  0  0  0  0  0  0  0  0
   -2.7000   -3.7430    1.6607 C   0  0  0  0  0  0  0  0  0  0  0  0
   -2.4967   -2.7017    0.7003 O   0  0  0  0  0  0  0  0  0  0  0  0
   -1.2322   -2.5866    0.1693 C   0  0  0  0  0  0  0  0  0  0  0  0
   -0.3191   -3.6512    0.1374 C   0  0  0  0  0  0  0  0  0  0  0  0
    0.9514   -3.4808   -0.4157 C   0  0  0  0  0  0  0  0  0  0  0  0
    1.3131   -2.2433   -0.9465 C   0  0  0  0  0  0  0  0  0  0  0  0
    2.9198   -2.0550   -1.6851 S   0  0  0  0  0  0  0  0  0  0  0  0
    3.2521   -3.3317   -2.2838 O   0  0  0  0  0  0  0  0  0  0  0  0
    2.9237   -0.8439   -2.4731 O   0  0  0  0  0  0  0  0  0  0  0  0
    3.9227   -1.8324   -0.3256 N   0  0  0  0  0  0  0  0  0  0  0  0
    3.7378   -0.5639    0.4515 C   0  0  0  0  0  0  0  0  0  0  0  0
    4.5452    0.6169   -0.1272 C   0  0  0  0  0  0  0  0  0  0  0  0
    5.9794    0.3392   -0.3382 N   0  0  0  0  0  0  0  0  0  0  0  0
    6.7644    0.2791    0.9083 C   0  0  0  0  0  0  0  0  0  0  0  0
    6.7709    1.5599    1.7944 C   0  0  0  0  0  0  0  0  0  0  0  0
    6.9482    2.8461    1.0965 N   0  0  0  0  0  0  0  0  0  0  0  0
    8.2165    2.9101    0.3723 C   0  0  0  0  0  0  0  0  0  0  0  0
    6.8451    3.9594    2.0390 C   0  0  0  0  0  0  0  0  0  0  0  0
    6.1165   -0.8933   -1.1403 C   0  0  0  0  0  0  0  0  0  0  0  0
    5.3721   -2.1138   -0.5667 C   0  0  0  0  0  0  0  0  0  0  0  0
    0.4068   -1.1820   -0.9502 C   0  0  0  0  0  0  0  0  0  0  0  0
   -0.8734   -1.3366   -0.3887 C   0  0  0  0  0  0  0  0  0  0  0  0
   -1.7677   -0.1696   -0.3978 C   0  0  0  0  0  0  0  0  0  0  0  0
   -1.4100    1.0877   -0.6157 N   0  0  0  0  0  0  0  0  0  0  0  0
   -2.5657    1.8272   -0.5288 C   0  0  0  0  0  0  0  0  0  0  0  0
   -2.7468    3.2543   -0.6602 C   0  0  0  0  0  0  0  0  0  0  0  0
   -1.8148    4.0319   -0.8493 O   0  0  0  0  0  0  0  0  0  0  0  0
   -4.0888    3.6521   -0.5266 N   0  0  0  0  0  0  0  0  0  0  0  0
   -4.3652    5.0714   -0.6267 C   0  0  0  0  0  0  0  0  0  0  0  0
   -5.1812    2.8226   -0.1978 C   0  0  0  0  0  0  0  0  0  0  0  0
   -6.3010    3.2950    0.0186 O   0  0  0  0  0  0  0  0  0  0  0  0
   -4.9433    1.4358   -0.1187 N   0  0  0  0  0  0  0  0  0  0  0  0
   -6.0608    0.5340    0.1682 C   0  0  0  0  0  0  0  0  0  0  0  0
   -6.8207    0.0050   -1.0686 C   0  0  0  0  0  0  0  0  0  0  0  0
   -7.5340    1.1084   -1.8499 C   0  0  0  0  0  0  0  0  0  0  0  0
   -5.9409   -0.8171   -2.0099 C   0  0  0  0  0  0  0  0  0  0  0  0
   -3.6368    1.0204   -0.2714 C   0  0  0  0  0  0  0  0  0  0  0  0
   -3.1294   -0.2391   -0.1818 N   0  0  0  0  0  0  0  0  0  0  0  0
   -6.1554   -3.4731    1.9737 H   0  0  0  0  0  0  0  0  0  0  0  0
   -5.2585   -4.6370    0.9837 H   0  0  0  0  0  0  0  0  0  0  0  0
   -5.1727   -2.9043    0.6173 H   0  0  0  0  0  0  0  0  0  0  0  0
   -4.0428   -2.4962    2.8010 H   0  0  0  0  0  0  0  0  0  0  0  0
   -4.1421   -4.2219    3.1880 H   0  0  0  0  0  0  0  0  0  0  0  0
   -2.7211   -4.7172    1.1590 H   0  0  0  0  0  0  0  0  0  0  0  0
   -1.9005   -3.7279    2.4115 H   0  0  0  0  0  0  0  0  0  0  0  0
   -0.5711   -4.6339    0.5239 H   0  0  0  0  0  0  0  0  0  0  0  0
    1.6498   -4.3155   -0.4380 H   0  0  0  0  0  0  0  0  0  0  0  0
    4.0502   -0.7625    1.4841 H   0  0  0  0  0  0  0  0  0  0  0  0
    2.6799   -0.2945    0.5102 H   0  0  0  0  0  0  0  0  0  0  0  0
    4.1182    0.9078   -1.0940 H   0  0  0  0  0  0  0  0  0  0  0  0
    4.4042    1.4968    0.5095 H   0  0  0  0  0  0  0  0  0  0  0  0
    7.8084    0.0690    0.6413 H   0  0  0  0  0  0  0  0  0  0  0  0
    6.4407   -0.5560    1.5410 H   0  0  0  0  0  0  0  0  0  0  0  0
    5.8132    1.5866    2.3307 H   0  0  0  0  0  0  0  0  0  0  0  0
    7.5469    1.4359    2.5620 H   0  0  0  0  0  0  0  0  0  0  0  0
    9.0766    2.7689    1.0367 H   0  0  0  0  0  0  0  0  0  0  0  0
    8.2639    2.1571   -0.4205 H   0  0  0  0  0  0  0  0  0  0  0  0
    8.3258    3.8801   -0.1264 H   0  0  0  0  0  0  0  0  0  0  0  0
    6.9151    4.9183    1.5134 H   0  0  0  0  0  0  0  0  0  0  0  0
    5.8715    3.9507    2.5418 H   0  0  0  0  0  0  0  0  0  0  0  0
    7.6292    3.9271    2.8041 H   0  0  0  0  0  0  0  0  0  0  0  0
    7.1775   -1.1398   -1.2688 H   0  0  0  0  0  0  0  0  0  0  0  0
    5.7411   -0.6862   -2.1504 H   0  0  0  0  0  0  0  0  0  0  0  0
    5.4954   -2.9724   -1.2348 H   0  0  0  0  0  0  0  0  0  0  0  0
    5.8149   -2.4222    0.3878 H   0  0  0  0  0  0  0  0  0  0  0  0
    0.6903   -0.2243   -1.3882 H   0  0  0  0  0  0  0  0  0  0  0  0
   -3.5734    5.6078   -1.1566 H   0  0  0  0  0  0  0  0  0  0  0  0
   -4.4545    5.4773    0.3862 H   0  0  0  0  0  0  0  0  0  0  0  0
   -5.3098    5.2370   -1.1545 H   0  0  0  0  0  0  0  0  0  0  0  0
   -6.7711    1.0548    0.8225 H   0  0  0  0  0  0  0  0  0  0  0  0
   -5.6829   -0.3112    0.7562 H   0  0  0  0  0  0  0  0  0  0  0  0
   -7.5992   -0.6693   -0.6869 H   0  0  0  0  0  0  0  0  0  0  0  0
   -6.8243    1.7898   -2.3296 H   0  0  0  0  0  0  0  0  0  0  0  0
   -8.1599    0.6766   -2.6386 H   0  0  0  0  0  0  0  0  0  0  0  0
   -8.1882    1.6915   -1.1939 H   0  0  0  0  0  0  0  0  0  0  0  0
   -5.1754   -0.2013   -2.4924 H   0  0  0  0  0  0  0  0  0  0  0  0
   -5.4455   -1.6314   -1.4732 H   0  0  0  0  0  0  0  0  0  0  0  0
   -6.5466   -1.2690   -2.8031 H   0  0  0  0  0  0  0  0  0  0  0  0
   -3.6215   -1.0968    0.0241 H   0  0  0  0  0  0  0  0  0  0  0  0
  1  2  1  0
  2  3  1  0
  3  4  1  0
  4  5  1  0
  5  6  1  0
  6  7  2  0
  7  8  1  0
  8  9  1  0
  9 10  2  0
  9 11  2  0
  9 12  1  0
 12 13  1  0
 13 14  1  0
 14 15  1  0
 15 16  1  0
 16 17  1  0
 17 18  1  0
 18 19  1  0
 18 20  1  0
 15 21  1  0
 21 22  1  0
  8 23  2  0
 23 24  1  0
 24 25  1  0
 25 26  2  0
 26 27  1  0
 27 28  1  0
 28 29  2  0
 28 30  1  0
 30 31  1  0
 30 32  1  0
 32 33  2  0
 32 34  1  0
 34 35  1  0
 35 36  1  0
 36 37  1  0
 36 38  1  0
 34 39  1  0
 39 40  1  0
 24  5  2  0
 40 25  1  0
 22 12  1  0
 39 27  2  0
  1 41  1  0
  1 42  1  0
  1 43  1  0
  2 44  1  0
  2 45  1  0
  3 46  1  0
  3 47  1  0
  6 48  1  0
  7 49  1  0
 13 50  1  0
 13 51  1  0
 14 52  1  0
 14 53  1  0
 16 54  1  0
 16 55  1  0
 17 56  1  0
 17 57  1  0
 19 58  1  0
 19 59  1  0
 19 60  1  0
 20 61  1  0
 20 62  1  0
 20 63  1  0
 21 64  1  0
 21 65  1  0
 22 66  1  0
 22 67  1  0
 23 68  1  0
 31 69  1  0
 31 70  1  0
 31 71  1  0
 35 72  1  0
 35 73  1  0
 36 74  1  0
 37 75  1  0
 37 76  1  0
 37 77  1  0
 38 78  1  0
 38 79  1  0
 38 80  1  0
 40 81  1  0
M  END
$$$$
