


 39 43  0  0  0  0  0  0  0  0999 V2000
    3.2599   66.0646   84.7497 C   0  0  0  0  0  0  0  0  0  0  0  0
    4.1371   67.0234   84.2238 C   0  0  0  0  0  0  0  0  0  0  0  0
    3.7077   67.8914   83.2223 C   0  0  0  0  0  0  0  0  0  0  0  0
    2.3908   67.8132   82.7668 C   0  0  0  0  0  0  0  0  0  0  0  0
    1.5185   66.8479   83.2809 C   0  0  0  0  0  0  0  0  0  0  0  0
    1.9291   65.9667   84.3020 C   0  0  0  0  0  0  0  0  0  0  0  0
    0.9626   65.0122   84.8644 C   0  0  0  0  0  0  0  0  0  0  0  0
    0.8227   64.9783   86.2107 N   0  0  0  0  0  0  0  0  0  0  0  0
   -0.0387   64.0916   86.7132 C   0  0  0  0  0  0  0  0  0  0  0  0
   -0.1646   64.0919   88.0691 O   0  0  0  0  0  0  0  0  0  0  0  0
   -0.7294   63.2508   85.8823 C   0  0  0  0  0  0  0  0  0  0  0  0
   -0.5170   63.3363   84.5220 C   0  0  0  0  0  0  0  0  0  0  0  0
    0.3463   64.2133   83.9689 N   0  0  0  0  0  0  0  0  0  0  0  0
   -1.3645   62.3544   83.9490 C   0  0  0  0  0  0  0  0  0  0  0  0
   -2.0578   61.6943   84.8935 N   0  0  0  0  0  0  0  0  0  0  0  0
   -1.6514   62.2629   86.0512 N   0  0  0  0  0  0  0  0  0  0  0  0
   -2.1980   61.8011   87.3048 C   0  0  0  0  0  0  0  0  0  0  0  0
    0.4602   64.8023   88.3025 H   0  0  0  0  0  0  0  0  0  0  0  0
   -1.5479   62.0144   82.5024 C   0  0  0  0  0  0  0  0  0  0  0  0
   -2.4763   62.9958   81.7658 C   0  0  0  0  0  0  0  0  0  0  0  0
   -3.3030   62.1298   80.8266 C   0  0  0  0  0  0  0  0  0  0  0  0
   -3.5089   60.8532   81.6213 C   0  0  0  0  0  0  0  0  0  0  0  0
   -2.1520   60.6158   82.2725 C   0  0  0  0  0  0  0  0  0  0  0  0
    1.8340   68.9085   81.4762 S   0  0  0  0  0  0  0  0  0  0  0  0
    0.6857   69.6254   81.9914 O   0  0  0  0  0  0  0  0  0  0  0  0
    2.9944   69.6154   80.9782 O   0  0  0  0  0  0  0  0  0  0  0  0
    1.2877   67.8614   80.2691 N   0  0  0  0  0  0  0  0  0  0  0  0
   -0.1603   67.5311   80.2200 C   0  0  0  0  0  0  0  0  0  0  0  0
   -0.4183   66.0297   80.4676 C   0  0  0  0  0  0  0  0  0  0  0  0
    0.3330   65.1003   79.5975 N   0  0  0  0  0  0  0  0  0  0  0  0
    1.4598   65.7747   78.9217 C   0  0  0  0  0  0  0  0  0  0  0  0
    2.1916   66.7563   79.8531 C   0  0  0  0  0  0  0  0  0  0  0  0
   -0.5100   64.3920   78.6269 C   0  0  0  0  0  0  0  0  0  0  0  0
   -0.1370   62.9098   78.4675 C   0  0  0  0  0  0  0  0  0  0  0  0
    0.5810   62.7082   77.2521 O   0  0  0  0  0  0  0  0  0  0  0  0
   -0.0277   62.8960   76.5177 H   0  0  0  0  0  0  0  0  0  0  0  0
    3.6905   65.2841   85.7945 O   0  0  0  0  0  0  0  0  0  0  0  0
    5.4757   65.3919   87.3747 C   0  0  0  0  0  0  0  0  0  0  0  0
    5.1189   65.3058   85.9021 C   0  0  0  0  0  0  0  0  0  0  0  0
 38 39  1  0  0  0
 39 37  1  0  0  0
 37  1  1  0  0  0
  1  2  1  0  0  0
  2  3  2  0  0  0
  3  4  1  0  0  0
  4 24  1  0  0  0
 24 25  2  0  0  0
 24 26  2  0  0  0
 24 27  1  0  0  0
 27 28  1  0  0  0
 28 29  1  0  0  0
 29 30  1  0  0  0
 30 33  1  0  0  0
 33 34  1  0  0  0
 34 35  1  0  0  0
 30 31  1  0  0  0
 31 32  1  0  0  0
  4  5  2  0  0  0
  5  6  1  0  0  0
  6  7  1  0  0  0
  7  8  2  0  0  0
  8  9  1  0  0  0
  9 10  1  0  0  0
  9 11  2  0  0  0
 11 12  1  0  0  0
 12 13  2  0  0  0
 12 14  1  0  0  0
 14 19  1  0  0  0
 19 20  1  0  0  0
 20 21  1  0  0  0
 21 22  1  0  0  0
 22 23  1  0  0  0
 14 15  2  0  0  0
 15 16  1  0  0  0
 16 17  1  0  0  0
  6  1  2  0  0  0
 13  7  1  0  0  0
 23 19  1  0  0  0
 32 27  1  0  0  0
 16 11  1  0  0  0
 35 36  1  0  0  0
 10 18  1  0  0  0
M  END
> <minimizedAffinity>
-10.44355

$$$$



 39 43  0  0  0  0  0  0  0  0999 V2000
    3.2799   66.9619   83.9381 C   0  0  0  0  0  0  0  0  0  0  0  0
    4.0258   68.1482   83.8982 C   0  0  0  0  0  0  0  0  0  0  0  0
    3.5701   69.2378   83.1591 C   0  0  0  0  0  0  0  0  0  0  0  0
    2.3539   69.1447   82.4811 C   0  0  0  0  0  0  0  0  0  0  0  0
    1.6153   67.9568   82.5089 C   0  0  0  0  0  0  0  0  0  0  0  0
    2.0526   66.8459   83.2588 C   0  0  0  0  0  0  0  0  0  0  0  0
    1.2144   65.6396   83.3188 C   0  0  0  0  0  0  0  0  0  0  0  0
    0.8961   65.0360   82.1494 N   0  0  0  0  0  0  0  0  0  0  0  0
    0.1147   63.9562   82.2121 C   0  0  0  0  0  0  0  0  0  0  0  0
   -0.1763   63.3663   81.0198 O   0  0  0  0  0  0  0  0  0  0  0  0
   -0.3467   63.5055   83.4198 C   0  0  0  0  0  0  0  0  0  0  0  0
    0.0089   64.1874   84.5650 C   0  0  0  0  0  0  0  0  0  0  0  0
    0.7926   65.2855   84.5504 N   0  0  0  0  0  0  0  0  0  0  0  0
   -0.6144   63.4845   85.6272 C   0  0  0  0  0  0  0  0  0  0  0  0
   -1.3190   62.4334   85.1721 N   0  0  0  0  0  0  0  0  0  0  0  0
   -1.1338   62.4739   83.8331 N   0  0  0  0  0  0  0  0  0  0  0  0
   -1.7527   61.4745   82.9954 C   0  0  0  0  0  0  0  0  0  0  0  0
    0.3146   63.9488   80.4122 H   0  0  0  0  0  0  0  0  0  0  0  0
   -0.5610   63.7788   87.0943 C   0  0  0  0  0  0  0  0  0  0  0  0
    0.8621   63.6966   87.6739 C   0  0  0  0  0  0  0  0  0  0  0  0
    0.6964   63.0476   89.0402 C   0  0  0  0  0  0  0  0  0  0  0  0
   -0.4282   62.0527   88.8186 C   0  0  0  0  0  0  0  0  0  0  0  0
   -1.4140   62.8179   87.9445 C   0  0  0  0  0  0  0  0  0  0  0  0
    1.7675   70.5266   81.5209 S   0  0  0  0  0  0  0  0  0  0  0  0
    2.1184   70.2657   80.1400 O   0  0  0  0  0  0  0  0  0  0  0  0
    0.3954   70.7722   81.9096 O   0  0  0  0  0  0  0  0  0  0  0  0
    2.7141   71.8183   82.0572 N   0  0  0  0  0  0  0  0  0  0  0  0
    2.1732   72.6967   83.1266 C   0  0  0  0  0  0  0  0  0  0  0  0
    1.9690   74.1454   82.6350 C   0  0  0  0  0  0  0  0  0  0  0  0
    3.1514   74.7836   82.0187 N   0  0  0  0  0  0  0  0  0  0  0  0
    4.1806   73.7894   81.6530 C   0  0  0  0  0  0  0  0  0  0  0  0
    3.5667   72.5116   81.0554 C   0  0  0  0  0  0  0  0  0  0  0  0
    3.7300   75.8595   82.8322 C   0  0  0  0  0  0  0  0  0  0  0  0
    4.8341   75.3733   83.7841 C   0  0  0  0  0  0  0  0  0  0  0  0
    4.5235   75.7349   85.1280 O   0  0  0  0  0  0  0  0  0  0  0  0
    4.5507   76.7051   85.1841 H   0  0  0  0  0  0  0  0  0  0  0  0
    3.7156   65.9395   84.7452 O   0  0  0  0  0  0  0  0  0  0  0  0
    5.8748   65.2164   85.4596 C   0  0  0  0  0  0  0  0  0  0  0  0
    4.8549   66.3390   85.5163 C   0  0  0  0  0  0  0  0  0  0  0  0
 38 39  1  0  0  0
 39 37  1  0  0  0
 37  1  1  0  0  0
  1  2  1  0  0  0
  2  3  2  0  0  0
  3  4  1  0  0  0
  4 24  1  0  0  0
 24 25  2  0  0  0
 24 26  2  0  0  0
 24 27  1  0  0  0
 27 28  1  0  0  0
 28 29  1  0  0  0
 29 30  1  0  0  0
 30 33  1  0  0  0
 33 34  1  0  0  0
 34 35  1  0  0  0
 30 31  1  0  0  0
 31 32  1  0  0  0
  4  5  2  0  0  0
  5  6  1  0  0  0
  6  7  1  0  0  0
  7  8  2  0  0  0
  8  9  1  0  0  0
  9 10  1  0  0  0
  9 11  2  0  0  0
 11 12  1  0  0  0
 12 13  2  0  0  0
 12 14  1  0  0  0
 14 19  1  0  0  0
 19 20  1  0  0  0
 20 21  1  0  0  0
 21 22  1  0  0  0
 22 23  1  0  0  0
 14 15  2  0  0  0
 15 16  1  0  0  0
 16 17  1  0  0  0
  6  1  2  0  0  0
 13  7  1  0  0  0
 23 19  1  0  0  0
 32 27  1  0  0  0
 16 11  1  0  0  0
 35 36  1  0  0  0
 10 18  1  0  0  0
M  END
> <minimizedAffinity>
-9.92404

$$$$



 39 43  0  0  0  0  0  0  0  0999 V2000
    3.3227   66.2996   84.6519 C   0  0  0  0  0  0  0  0  0  0  0  0
    4.1723   67.2852   84.1302 C   0  0  0  0  0  0  0  0  0  0  0  0
    3.7116   68.1589   83.1476 C   0  0  0  0  0  0  0  0  0  0  0  0
    2.3911   68.0591   82.7073 C   0  0  0  0  0  0  0  0  0  0  0  0
    1.5463   67.0673   83.2172 C   0  0  0  0  0  0  0  0  0  0  0  0
    1.9887   66.1797   84.2193 C   0  0  0  0  0  0  0  0  0  0  0  0
    1.0502   65.1960   84.7787 C   0  0  0  0  0  0  0  0  0  0  0  0
    0.9444   65.1235   86.1266 N   0  0  0  0  0  0  0  0  0  0  0  0
    0.1084   64.2108   86.6254 C   0  0  0  0  0  0  0  0  0  0  0  0
    0.0163   64.1724   87.9834 O   0  0  0  0  0  0  0  0  0  0  0  0
   -0.5907   63.3826   85.7889 C   0  0  0  0  0  0  0  0  0  0  0  0
   -0.4135   63.5082   84.4266 C   0  0  0  0  0  0  0  0  0  0  0  0
    0.4233   64.4126   83.8769 N   0  0  0  0  0  0  0  0  0  0  0  0
   -1.2609   62.5296   83.8477 C   0  0  0  0  0  0  0  0  0  0  0  0
   -1.9210   61.8339   84.7904 N   0  0  0  0  0  0  0  0  0  0  0  0
   -1.4940   62.3768   85.9530 N   0  0  0  0  0  0  0  0  0  0  0  0
   -2.0027   61.8731   87.2065 C   0  0  0  0  0  0  0  0  0  0  0  0
    0.6365   64.8855   88.2210 H   0  0  0  0  0  0  0  0  0  0  0  0
   -1.4753   62.2263   82.3973 C   0  0  0  0  0  0  0  0  0  0  0  0
   -2.5757   63.0907   81.7572 C   0  0  0  0  0  0  0  0  0  0  0  0
   -3.3211   62.1525   80.8194 C   0  0  0  0  0  0  0  0  0  0  0  0
   -3.2957   60.8279   81.5600 C   0  0  0  0  0  0  0  0  0  0  0  0
   -1.8840   60.7651   82.1298 C   0  0  0  0  0  0  0  0  0  0  0  0
    1.7945   69.1616   81.4409 S   0  0  0  0  0  0  0  0  0  0  0  0
    2.8450   69.2823   80.4511 O   0  0  0  0  0  0  0  0  0  0  0  0
    0.4672   68.7184   81.0716 O   0  0  0  0  0  0  0  0  0  0  0  0
    1.6605   70.6473   82.2328 N   0  0  0  0  0  0  0  0  0  0  0  0
    0.4602   71.4835   81.9715 C   0  0  0  0  0  0  0  0  0  0  0  0
    0.8264   72.8252   81.3024 C   0  0  0  0  0  0  0  0  0  0  0  0
    1.8497   73.6300   82.0026 N   0  0  0  0  0  0  0  0  0  0  0  0
    2.5913   72.8269   82.9957 C   0  0  0  0  0  0  0  0  0  0  0  0
    2.9108   71.4140   82.4776 C   0  0  0  0  0  0  0  0  0  0  0  0
    1.3186   74.8548   82.6127 C   0  0  0  0  0  0  0  0  0  0  0  0
   -0.0836   75.2262   82.1052 C   0  0  0  0  0  0  0  0  0  0  0  0
   -0.7865   75.9731   83.0958 O   0  0  0  0  0  0  0  0  0  0  0  0
   -0.9400   75.3834   83.8533 H   0  0  0  0  0  0  0  0  0  0  0  0
    3.7833   65.5128   85.6791 O   0  0  0  0  0  0  0  0  0  0  0  0
    5.7710   65.3870   86.9939 C   0  0  0  0  0  0  0  0  0  0  0  0
    5.2001   65.3217   85.5891 C   0  0  0  0  0  0  0  0  0  0  0  0
 38 39  1  0  0  0
 39 37  1  0  0  0
 37  1  1  0  0  0
  1  2  1  0  0  0
  2  3  2  0  0  0
  3  4  1  0  0  0
  4 24  1  0  0  0
 24 25  2  0  0  0
 24 26  2  0  0  0
 24 27  1  0  0  0
 27 28  1  0  0  0
 28 29  1  0  0  0
 29 30  1  0  0  0
 30 33  1  0  0  0
 33 34  1  0  0  0
 34 35  1  0  0  0
 30 31  1  0  0  0
 31 32  1  0  0  0
  4  5  2  0  0  0
  5  6  1  0  0  0
  6  7  1  0  0  0
  7  8  2  0  0  0
  8  9  1  0  0  0
  9 10  1  0  0  0
  9 11  2  0  0  0
 11 12  1  0  0  0
 12 13  2  0  0  0
 12 14  1  0  0  0
 14 19  1  0  0  0
 19 20  1  0  0  0
 20 21  1  0  0  0
 21 22  1  0  0  0
 22 23  1  0  0  0
 14 15  2  0  0  0
 15 16  1  0  0  0
 16 17  1  0  0  0
  6  1  2  0  0  0
 13  7  1  0  0  0
 23 19  1  0  0  0
 32 27  1  0  0  0
 16 11  1  0  0  0
 35 36  1  0  0  0
 10 18  1  0  0  0
M  END
> <minimizedAffinity>
-9.88685

$$$$



 39 43  0  0  0  0  0  0  0  0999 V2000
    0.1767   63.9959   85.0948 C   0  0  0  0  0  0  0  0  0  0  0  0
   -0.4637   62.7585   85.2498 C   0  0  0  0  0  0  0  0  0  0  0  0
   -0.5986   61.8983   84.1622 C   0  0  0  0  0  0  0  0  0  0  0  0
   -0.0687   62.2697   82.9257 C   0  0  0  0  0  0  0  0  0  0  0  0
    0.5585   63.5100   82.7663 C   0  0  0  0  0  0  0  0  0  0  0  0
    0.7151   64.3911   83.8558 C   0  0  0  0  0  0  0  0  0  0  0  0
    1.4407   65.6553   83.6640 C   0  0  0  0  0  0  0  0  0  0  0  0
    0.8664   66.5974   82.8793 N   0  0  0  0  0  0  0  0  0  0  0  0
    1.5437   67.7316   82.6912 C   0  0  0  0  0  0  0  0  0  0  0  0
    0.9330   68.6624   81.9072 O   0  0  0  0  0  0  0  0  0  0  0  0
    2.7741   67.9059   83.2659 C   0  0  0  0  0  0  0  0  0  0  0  0
    3.2983   66.8900   84.0380 C   0  0  0  0  0  0  0  0  0  0  0  0
    2.6526   65.7250   84.2527 N   0  0  0  0  0  0  0  0  0  0  0  0
    4.5569   67.3694   84.4819 C   0  0  0  0  0  0  0  0  0  0  0  0
    4.8042   68.6046   84.0113 N   0  0  0  0  0  0  0  0  0  0  0  0
    3.7047   68.9000   83.2814 N   0  0  0  0  0  0  0  0  0  0  0  0
    3.6119   70.1762   82.6135 C   0  0  0  0  0  0  0  0  0  0  0  0
    0.1048   68.1953   81.6940 H   0  0  0  0  0  0  0  0  0  0  0  0
    5.5557   66.6829   85.3610 C   0  0  0  0  0  0  0  0  0  0  0  0
    6.8450   67.4989   85.5598 C   0  0  0  0  0  0  0  0  0  0  0  0
    7.9699   66.4746   85.5345 C   0  0  0  0  0  0  0  0  0  0  0  0
    7.4929   65.4591   84.5123 C   0  0  0  0  0  0  0  0  0  0  0  0
    6.0082   65.3123   84.8218 C   0  0  0  0  0  0  0  0  0  0  0  0
   -0.2475   61.1842   81.5238 S   0  0  0  0  0  0  0  0  0  0  0  0
    1.0183   60.5024   81.3484 O   0  0  0  0  0  0  0  0  0  0  0  0
   -1.4769   60.4426   81.7050 O   0  0  0  0  0  0  0  0  0  0  0  0
   -0.4479   62.2405   80.2214 N   0  0  0  0  0  0  0  0  0  0  0  0
   -1.8280   62.6266   79.8284 C   0  0  0  0  0  0  0  0  0  0  0  0
   -2.1788   62.1439   78.4050 C   0  0  0  0  0  0  0  0  0  0  0  0
   -1.2302   62.5421   77.3434 N   0  0  0  0  0  0  0  0  0  0  0  0
    0.0574   62.9988   77.9043 C   0  0  0  0  0  0  0  0  0  0  0  0
    0.5129   62.1331   79.0916 C   0  0  0  0  0  0  0  0  0  0  0  0
   -1.7751   63.5351   76.4099 C   0  0  0  0  0  0  0  0  0  0  0  0
   -0.9964   64.8599   76.4112 C   0  0  0  0  0  0  0  0  0  0  0  0
   -1.8939   65.9612   76.5337 O   0  0  0  0  0  0  0  0  0  0  0  0
   -2.4367   65.9879   75.7276 H   0  0  0  0  0  0  0  0  0  0  0  0
    0.3678   64.7798   86.2062 O   0  0  0  0  0  0  0  0  0  0  0  0
   -0.0824   63.7382   88.3057 C   0  0  0  0  0  0  0  0  0  0  0  0
    0.9816   64.0352   87.2650 C   0  0  0  0  0  0  0  0  0  0  0  0
 38 39  1  0  0  0
 39 37  1  0  0  0
 37  1  1  0  0  0
  1  2  1  0  0  0
  2  3  2  0  0  0
  3  4  1  0  0  0
  4 24  1  0  0  0
 24 25  2  0  0  0
 24 26  2  0  0  0
 24 27  1  0  0  0
 27 28  1  0  0  0
 28 29  1  0  0  0
 29 30  1  0  0  0
 30 33  1  0  0  0
 33 34  1  0  0  0
 34 35  1  0  0  0
 30 31  1  0  0  0
 31 32  1  0  0  0
  4  5  2  0  0  0
  5  6  1  0  0  0
  6  7  1  0  0  0
  7  8  2  0  0  0
  8  9  1  0  0  0
  9 10  1  0  0  0
  9 11  2  0  0  0
 11 12  1  0  0  0
 12 13  2  0  0  0
 12 14  1  0  0  0
 14 19  1  0  0  0
 19 20  1  0  0  0
 20 21  1  0  0  0
 21 22  1  0  0  0
 22 23  1  0  0  0
 14 15  2  0  0  0
 15 16  1  0  0  0
 16 17  1  0  0  0
  6  1  2  0  0  0
 13  7  1  0  0  0
 23 19  1  0  0  0
 32 27  1  0  0  0
 16 11  1  0  0  0
 35 36  1  0  0  0
 10 18  1  0  0  0
M  END
> <minimizedAffinity>
-9.86003

$$$$



 39 43  0  0  0  0  0  0  0  0999 V2000
    3.2888   66.6818   84.1413 C   0  0  0  0  0  0  0  0  0  0  0  0
    4.0641   67.8491   84.1806 C   0  0  0  0  0  0  0  0  0  0  0  0
    3.6459   68.9912   83.5013 C   0  0  0  0  0  0  0  0  0  0  0  0
    2.4375   68.9688   82.8035 C   0  0  0  0  0  0  0  0  0  0  0  0
    1.6696   67.8006   82.7521 C   0  0  0  0  0  0  0  0  0  0  0  0
    2.0688   66.6369   83.4409 C   0  0  0  0  0  0  0  0  0  0  0  0
    1.2003   65.4509   83.4192 C   0  0  0  0  0  0  0  0  0  0  0  0
    0.9319   64.8897   82.2166 N   0  0  0  0  0  0  0  0  0  0  0  0
    0.1229   63.8286   82.2045 C   0  0  0  0  0  0  0  0  0  0  0  0
   -0.1167   63.2811   80.9810 O   0  0  0  0  0  0  0  0  0  0  0  0
   -0.4138   63.3547   83.3715 C   0  0  0  0  0  0  0  0  0  0  0  0
   -0.1050   63.9939   84.5543 C   0  0  0  0  0  0  0  0  0  0  0  0
    0.7040   65.0719   84.6151 N   0  0  0  0  0  0  0  0  0  0  0  0
   -0.8014   63.2763   85.5598 C   0  0  0  0  0  0  0  0  0  0  0  0
   -1.5048   62.2569   85.0358 N   0  0  0  0  0  0  0  0  0  0  0  0
   -1.2463   62.3317   83.7105 N   0  0  0  0  0  0  0  0  0  0  0  0
   -1.8422   61.3729   82.8109 C   0  0  0  0  0  0  0  0  0  0  0  0
    0.4201   63.8685   80.4185 H   0  0  0  0  0  0  0  0  0  0  0  0
   -0.8208   63.5264   87.0358 C   0  0  0  0  0  0  0  0  0  0  0  0
    0.5813   63.7568   87.6264 C   0  0  0  0  0  0  0  0  0  0  0  0
    0.5676   63.0423   88.9698 C   0  0  0  0  0  0  0  0  0  0  0  0
   -0.2954   61.8219   88.7060 C   0  0  0  0  0  0  0  0  0  0  0  0
   -1.4298   62.3666   87.8468 C   0  0  0  0  0  0  0  0  0  0  0  0
    1.8990   70.4190   81.9189 S   0  0  0  0  0  0  0  0  0  0  0  0
    1.2482   69.9626   80.7081 O   0  0  0  0  0  0  0  0  0  0  0  0
    1.2078   71.2700   82.8635 O   0  0  0  0  0  0  0  0  0  0  0  0
    3.3414   71.1762   81.4738 N   0  0  0  0  0  0  0  0  0  0  0  0
    3.5364   72.6020   81.8438 C   0  0  0  0  0  0  0  0  0  0  0  0
    3.6571   73.5093   80.6011 C   0  0  0  0  0  0  0  0  0  0  0  0
    4.6816   73.1077   79.6140 N   0  0  0  0  0  0  0  0  0  0  0  0
    5.1266   71.7152   79.8239 C   0  0  0  0  0  0  0  0  0  0  0  0
    3.9581   70.7800   80.1800 C   0  0  0  0  0  0  0  0  0  0  0  0
    5.8301   74.0198   79.5541 C   0  0  0  0  0  0  0  0  0  0  0  0
    6.5091   74.0501   78.1758 C   0  0  0  0  0  0  0  0  0  0  0  0
    5.5330   73.9517   77.1410 O   0  0  0  0  0  0  0  0  0  0  0  0
    5.1275   73.0704   77.2036 H   0  0  0  0  0  0  0  0  0  0  0  0
    3.6878   65.6032   84.8923 O   0  0  0  0  0  0  0  0  0  0  0  0
    5.2434   65.2185   86.6607 C   0  0  0  0  0  0  0  0  0  0  0  0
    5.0774   65.6927   85.2285 C   0  0  0  0  0  0  0  0  0  0  0  0
 38 39  1  0  0  0
 39 37  1  0  0  0
 37  1  1  0  0  0
  1  2  1  0  0  0
  2  3  2  0  0  0
  3  4  1  0  0  0
  4 24  1  0  0  0
 24 25  2  0  0  0
 24 26  2  0  0  0
 24 27  1  0  0  0
 27 28  1  0  0  0
 28 29  1  0  0  0
 29 30  1  0  0  0
 30 33  1  0  0  0
 33 34  1  0  0  0
 34 35  1  0  0  0
 30 31  1  0  0  0
 31 32  1  0  0  0
  4  5  2  0  0  0
  5  6  1  0  0  0
  6  7  1  0  0  0
  7  8  2  0  0  0
  8  9  1  0  0  0
  9 10  1  0  0  0
  9 11  2  0  0  0
 11 12  1  0  0  0
 12 13  2  0  0  0
 12 14  1  0  0  0
 14 19  1  0  0  0
 19 20  1  0  0  0
 20 21  1  0  0  0
 21 22  1  0  0  0
 22 23  1  0  0  0
 14 15  2  0  0  0
 15 16  1  0  0  0
 16 17  1  0  0  0
  6  1  2  0  0  0
 13  7  1  0  0  0
 23 19  1  0  0  0
 32 27  1  0  0  0
 16 11  1  0  0  0
 35 36  1  0  0  0
 10 18  1  0  0  0
M  END
> <minimizedAffinity>
-9.76326

$$$$



 39 43  0  0  0  0  0  0  0  0999 V2000
    3.3626   66.2694   84.6527 C   0  0  0  0  0  0  0  0  0  0  0  0
    4.2168   67.2558   84.1403 C   0  0  0  0  0  0  0  0  0  0  0  0
    3.7448   68.1747   83.2055 C   0  0  0  0  0  0  0  0  0  0  0  0
    2.4092   68.1187   82.8044 C   0  0  0  0  0  0  0  0  0  0  0  0
    1.5593   67.1265   83.3047 C   0  0  0  0  0  0  0  0  0  0  0  0
    2.0134   66.1933   84.2591 C   0  0  0  0  0  0  0  0  0  0  0  0
    1.0716   65.2092   84.8122 C   0  0  0  0  0  0  0  0  0  0  0  0
    0.9628   65.1308   86.1595 N   0  0  0  0  0  0  0  0  0  0  0  0
    0.1238   64.2178   86.6525 C   0  0  0  0  0  0  0  0  0  0  0  0
    0.0288   64.1733   88.0101 O   0  0  0  0  0  0  0  0  0  0  0  0
   -0.5755   63.3950   85.8108 C   0  0  0  0  0  0  0  0  0  0  0  0
   -0.3952   63.5263   84.4495 C   0  0  0  0  0  0  0  0  0  0  0  0
    0.4447   64.4313   83.9055 N   0  0  0  0  0  0  0  0  0  0  0  0
   -1.2436   62.5522   83.8644 C   0  0  0  0  0  0  0  0  0  0  0  0
   -1.9072   61.8537   84.8026 N   0  0  0  0  0  0  0  0  0  0  0  0
   -1.4814   62.3904   85.9686 N   0  0  0  0  0  0  0  0  0  0  0  0
   -1.9938   61.8822   87.2186 C   0  0  0  0  0  0  0  0  0  0  0  0
    0.6502   64.8839   88.2522 H   0  0  0  0  0  0  0  0  0  0  0  0
   -1.4558   62.2560   82.4122 C   0  0  0  0  0  0  0  0  0  0  0  0
   -2.5738   63.1044   81.7812 C   0  0  0  0  0  0  0  0  0  0  0  0
   -3.3037   62.1594   80.8380 C   0  0  0  0  0  0  0  0  0  0  0  0
   -3.2515   60.8299   81.5684 C   0  0  0  0  0  0  0  0  0  0  0  0
   -1.8375   60.7894   82.1344 C   0  0  0  0  0  0  0  0  0  0  0  0
    1.7975   69.2797   81.5988 S   0  0  0  0  0  0  0  0  0  0  0  0
    1.6441   68.5585   80.3521 O   0  0  0  0  0  0  0  0  0  0  0  0
    0.6822   69.9795   82.1994 O   0  0  0  0  0  0  0  0  0  0  0  0
    3.0729   70.3704   81.4089 N   0  0  0  0  0  0  0  0  0  0  0  0
    2.9795   71.6930   82.0796 C   0  0  0  0  0  0  0  0  0  0  0  0
    2.9442   72.8541   81.0633 C   0  0  0  0  0  0  0  0  0  0  0  0
    4.0454   72.8737   80.0773 N   0  0  0  0  0  0  0  0  0  0  0  0
    4.7491   71.5766   80.0180 C   0  0  0  0  0  0  0  0  0  0  0  0
    3.7787   70.3856   80.1002 C   0  0  0  0  0  0  0  0  0  0  0  0
    4.9951   73.9746   80.2781 C   0  0  0  0  0  0  0  0  0  0  0  0
    5.9948   74.1317   79.1216 C   0  0  0  0  0  0  0  0  0  0  0  0
    5.3011   74.3186   77.8898 O   0  0  0  0  0  0  0  0  0  0  0  0
    4.8191   73.4966   77.6973 H   0  0  0  0  0  0  0  0  0  0  0  0
    3.8377   65.4356   85.6353 O   0  0  0  0  0  0  0  0  0  0  0  0
    5.4366   65.0394   87.3621 C   0  0  0  0  0  0  0  0  0  0  0  0
    5.0352   65.9582   86.2228 C   0  0  0  0  0  0  0  0  0  0  0  0
 38 39  1  0  0  0
 39 37  1  0  0  0
 37  1  1  0  0  0
  1  2  1  0  0  0
  2  3  2  0  0  0
  3  4  1  0  0  0
  4 24  1  0  0  0
 24 25  2  0  0  0
 24 26  2  0  0  0
 24 27  1  0  0  0
 27 28  1  0  0  0
 28 29  1  0  0  0
 29 30  1  0  0  0
 30 33  1  0  0  0
 33 34  1  0  0  0
 34 35  1  0  0  0
 30 31  1  0  0  0
 31 32  1  0  0  0
  4  5  2  0  0  0
  5  6  1  0  0  0
  6  7  1  0  0  0
  7  8  2  0  0  0
  8  9  1  0  0  0
  9 10  1  0  0  0
  9 11  2  0  0  0
 11 12  1  0  0  0
 12 13  2  0  0  0
 12 14  1  0  0  0
 14 19  1  0  0  0
 19 20  1  0  0  0
 20 21  1  0  0  0
 21 22  1  0  0  0
 22 23  1  0  0  0
 14 15  2  0  0  0
 15 16  1  0  0  0
 16 17  1  0  0  0
  6  1  2  0  0  0
 13  7  1  0  0  0
 23 19  1  0  0  0
 32 27  1  0  0  0
 16 11  1  0  0  0
 35 36  1  0  0  0
 10 18  1  0  0  0
M  END
> <minimizedAffinity>
-9.63284

$$$$



 39 43  0  0  0  0  0  0  0  0999 V2000
    0.9647   65.6976   81.2837 C   0  0  0  0  0  0  0  0  0  0  0  0
    1.5354   66.5590   80.3363 C   0  0  0  0  0  0  0  0  0  0  0  0
    2.2337   67.6914   80.7497 C   0  0  0  0  0  0  0  0  0  0  0  0
    2.3803   67.9451   82.1142 C   0  0  0  0  0  0  0  0  0  0  0  0
    1.7997   67.0938   83.0604 C   0  0  0  0  0  0  0  0  0  0  0  0
    1.0979   65.9369   82.6643 C   0  0  0  0  0  0  0  0  0  0  0  0
    0.5615   65.0306   83.6901 C   0  0  0  0  0  0  0  0  0  0  0  0
    1.1044   65.0911   84.9290 N   0  0  0  0  0  0  0  0  0  0  0  0
    0.6279   64.2477   85.8467 C   0  0  0  0  0  0  0  0  0  0  0  0
    1.1868   64.3429   87.0847 O   0  0  0  0  0  0  0  0  0  0  0  0
   -0.3587   63.3561   85.5207 C   0  0  0  0  0  0  0  0  0  0  0  0
   -0.8469   63.3455   84.2305 C   0  0  0  0  0  0  0  0  0  0  0  0
   -0.3934   64.1758   83.2687 N   0  0  0  0  0  0  0  0  0  0  0  0
   -1.8387   62.3322   84.2146 C   0  0  0  0  0  0  0  0  0  0  0  0
   -1.9575   61.7442   85.4182 N   0  0  0  0  0  0  0  0  0  0  0  0
   -1.0494   62.3888   86.1854 N   0  0  0  0  0  0  0  0  0  0  0  0
   -0.8939   62.0190   87.5720 C   0  0  0  0  0  0  0  0  0  0  0  0
    1.8252   65.0634   86.9334 H   0  0  0  0  0  0  0  0  0  0  0  0
   -2.7017   61.8940   83.0723 C   0  0  0  0  0  0  0  0  0  0  0  0
   -3.0494   60.3958   83.1199 C   0  0  0  0  0  0  0  0  0  0  0  0
   -2.9880   59.9288   81.6730 C   0  0  0  0  0  0  0  0  0  0  0  0
   -1.8479   60.7451   81.0920 C   0  0  0  0  0  0  0  0  0  0  0  0
   -2.0589   62.1296   81.6920 C   0  0  0  0  0  0  0  0  0  0  0  0
    3.2591   69.3979   82.6552 S   0  0  0  0  0  0  0  0  0  0  0  0
    4.1390   69.7911   81.5739 O   0  0  0  0  0  0  0  0  0  0  0  0
    2.2819   70.3183   83.1957 O   0  0  0  0  0  0  0  0  0  0  0  0
    4.2219   68.8354   83.9235 N   0  0  0  0  0  0  0  0  0  0  0  0
    5.3305   67.8973   83.6090 C   0  0  0  0  0  0  0  0  0  0  0  0
    5.1237   66.5176   84.2692 C   0  0  0  0  0  0  0  0  0  0  0  0
    4.8879   66.5366   85.7284 N   0  0  0  0  0  0  0  0  0  0  0  0
    4.5221   67.8856   86.2054 C   0  0  0  0  0  0  0  0  0  0  0  0
    3.5658   68.6038   85.2377 C   0  0  0  0  0  0  0  0  0  0  0  0
    6.0025   65.9899   86.5114 C   0  0  0  0  0  0  0  0  0  0  0  0
    5.5562   65.3434   87.8322 C   0  0  0  0  0  0  0  0  0  0  0  0
    4.3020   64.6865   87.6625 O   0  0  0  0  0  0  0  0  0  0  0  0
    3.6358   65.3700   87.4779 H   0  0  0  0  0  0  0  0  0  0  0  0
    0.3584   64.5466   80.8432 O   0  0  0  0  0  0  0  0  0  0  0  0
    0.5109   63.2485   78.8464 C   0  0  0  0  0  0  0  0  0  0  0  0
    0.1224   64.5942   79.4310 C   0  0  0  0  0  0  0  0  0  0  0  0
 38 39  1  0  0  0
 39 37  1  0  0  0
 37  1  1  0  0  0
  1  2  1  0  0  0
  2  3  2  0  0  0
  3  4  1  0  0  0
  4 24  1  0  0  0
 24 25  2  0  0  0
 24 26  2  0  0  0
 24 27  1  0  0  0
 27 28  1  0  0  0
 28 29  1  0  0  0
 29 30  1  0  0  0
 30 33  1  0  0  0
 33 34  1  0  0  0
 34 35  1  0  0  0
 30 31  1  0  0  0
 31 32  1  0  0  0
  4  5  2  0  0  0
  5  6  1  0  0  0
  6  7  1  0  0  0
  7  8  2  0  0  0
  8  9  1  0  0  0
  9 10  1  0  0  0
  9 11  2  0  0  0
 11 12  1  0  0  0
 12 13  2  0  0  0
 12 14  1  0  0  0
 14 19  1  0  0  0
 19 20  1  0  0  0
 20 21  1  0  0  0
 21 22  1  0  0  0
 22 23  1  0  0  0
 14 15  2  0  0  0
 15 16  1  0  0  0
 16 17  1  0  0  0
  6  1  2  0  0  0
 13  7  1  0  0  0
 23 19  1  0  0  0
 32 27  1  0  0  0
 16 11  1  0  0  0
 35 36  1  0  0  0
 10 18  1  0  0  0
M  END
> <minimizedAffinity>
-9.49884

$$$$



 39 43  0  0  0  0  0  0  0  0999 V2000
   -0.5530   63.8127   86.2874 C   0  0  0  0  0  0  0  0  0  0  0  0
   -1.6290   62.9169   86.3576 C   0  0  0  0  0  0  0  0  0  0  0  0
   -2.0719   62.2624   85.2101 C   0  0  0  0  0  0  0  0  0  0  0  0
   -1.4186   62.4885   83.9978 C   0  0  0  0  0  0  0  0  0  0  0  0
   -0.3535   63.3926   83.9237 C   0  0  0  0  0  0  0  0  0  0  0  0
    0.1175   64.0575   85.0743 C   0  0  0  0  0  0  0  0  0  0  0  0
    1.2829   64.9473   84.9683 C   0  0  0  0  0  0  0  0  0  0  0  0
    2.3390   64.7000   85.7787 N   0  0  0  0  0  0  0  0  0  0  0  0
    3.3821   65.5277   85.6927 C   0  0  0  0  0  0  0  0  0  0  0  0
    4.4319   65.2439   86.5122 O   0  0  0  0  0  0  0  0  0  0  0  0
    3.3557   66.5858   84.8242 C   0  0  0  0  0  0  0  0  0  0  0  0
    2.2341   66.7797   84.0449 C   0  0  0  0  0  0  0  0  0  0  0  0
    1.1547   65.9723   84.1004 N   0  0  0  0  0  0  0  0  0  0  0  0
    2.5137   67.9327   83.2680 C   0  0  0  0  0  0  0  0  0  0  0  0
    3.7312   68.4295   83.5495 N   0  0  0  0  0  0  0  0  0  0  0  0
    4.2141   67.5898   84.4931 N   0  0  0  0  0  0  0  0  0  0  0  0
    5.5295   67.8139   85.0436 C   0  0  0  0  0  0  0  0  0  0  0  0
    4.0930   64.4481   86.9611 H   0  0  0  0  0  0  0  0  0  0  0  0
    1.6481   68.5934   82.2404 C   0  0  0  0  0  0  0  0  0  0  0  0
    1.6323   67.8463   80.8953 C   0  0  0  0  0  0  0  0  0  0  0  0
    1.6391   68.9383   79.8356 C   0  0  0  0  0  0  0  0  0  0  0  0
    2.5133   70.0153   80.4515 C   0  0  0  0  0  0  0  0  0  0  0  0
    2.0781   70.0359   81.9116 C   0  0  0  0  0  0  0  0  0  0  0  0
   -1.9848   61.6683   82.5206 S   0  0  0  0  0  0  0  0  0  0  0  0
   -1.6726   60.2616   82.6678 O   0  0  0  0  0  0  0  0  0  0  0  0
   -3.3400   62.1110   82.2724 O   0  0  0  0  0  0  0  0  0  0  0  0
   -0.9884   62.2924   81.3081 N   0  0  0  0  0  0  0  0  0  0  0  0
   -1.5614   63.2835   80.3609 C   0  0  0  0  0  0  0  0  0  0  0  0
   -1.5752   62.7548   78.9109 C   0  0  0  0  0  0  0  0  0  0  0  0
   -0.2778   62.2680   78.3961 N   0  0  0  0  0  0  0  0  0  0  0  0
    0.6894   62.0324   79.4870 C   0  0  0  0  0  0  0  0  0  0  0  0
    0.0304   61.3848   80.7171 C   0  0  0  0  0  0  0  0  0  0  0  0
    0.3037   63.1287   77.3590 C   0  0  0  0  0  0  0  0  0  0  0  0
   -0.1078   64.6032   77.4938 C   0  0  0  0  0  0  0  0  0  0  0  0
    0.9729   65.3727   78.0166 O   0  0  0  0  0  0  0  0  0  0  0  0
    1.1339   65.0711   78.9267 H   0  0  0  0  0  0  0  0  0  0  0  0
   -0.0888   64.3734   87.4521 O   0  0  0  0  0  0  0  0  0  0  0  0
    0.6204   62.8454   89.1426 C   0  0  0  0  0  0  0  0  0  0  0  0
   -0.5487   63.6444   88.5963 C   0  0  0  0  0  0  0  0  0  0  0  0
 38 39  1  0  0  0
 39 37  1  0  0  0
 37  1  1  0  0  0
  1  2  1  0  0  0
  2  3  2  0  0  0
  3  4  1  0  0  0
  4 24  1  0  0  0
 24 25  2  0  0  0
 24 26  2  0  0  0
 24 27  1  0  0  0
 27 28  1  0  0  0
 28 29  1  0  0  0
 29 30  1  0  0  0
 30 33  1  0  0  0
 33 34  1  0  0  0
 34 35  1  0  0  0
 30 31  1  0  0  0
 31 32  1  0  0  0
  4  5  2  0  0  0
  5  6  1  0  0  0
  6  7  1  0  0  0
  7  8  2  0  0  0
  8  9  1  0  0  0
  9 10  1  0  0  0
  9 11  2  0  0  0
 11 12  1  0  0  0
 12 13  2  0  0  0
 12 14  1  0  0  0
 14 19  1  0  0  0
 19 20  1  0  0  0
 20 21  1  0  0  0
 21 22  1  0  0  0
 22 23  1  0  0  0
 14 15  2  0  0  0
 15 16  1  0  0  0
 16 17  1  0  0  0
  6  1  2  0  0  0
 13  7  1  0  0  0
 23 19  1  0  0  0
 32 27  1  0  0  0
 16 11  1  0  0  0
 35 36  1  0  0  0
 10 18  1  0  0  0
M  END
> <minimizedAffinity>
-9.48959

$$$$



 39 43  0  0  0  0  0  0  0  0999 V2000
    0.8802   64.9472   79.2759 C   0  0  0  0  0  0  0  0  0  0  0  0
    1.6605   66.0026   78.7835 C   0  0  0  0  0  0  0  0  0  0  0  0
    1.9761   67.0831   79.6046 C   0  0  0  0  0  0  0  0  0  0  0  0
    1.5294   67.0917   80.9267 C   0  0  0  0  0  0  0  0  0  0  0  0
    0.7391   66.0458   81.4153 C   0  0  0  0  0  0  0  0  0  0  0  0
    0.4168   64.9379   80.6050 C   0  0  0  0  0  0  0  0  0  0  0  0
   -0.3578   63.8264   81.1758 C   0  0  0  0  0  0  0  0  0  0  0  0
   -0.8257   62.8833   80.3244 N   0  0  0  0  0  0  0  0  0  0  0  0
   -1.5485   61.8916   80.8486 C   0  0  0  0  0  0  0  0  0  0  0  0
   -1.9934   60.9538   79.9673 O   0  0  0  0  0  0  0  0  0  0  0  0
   -1.8062   61.8593   82.1929 C   0  0  0  0  0  0  0  0  0  0  0  0
   -1.3080   62.8683   82.9908 C   0  0  0  0  0  0  0  0  0  0  0  0
   -0.5764   63.8927   82.5054 N   0  0  0  0  0  0  0  0  0  0  0  0
   -1.7383   62.5526   84.3046 C   0  0  0  0  0  0  0  0  0  0  0  0
   -2.4639   61.4206   84.3236 N   0  0  0  0  0  0  0  0  0  0  0  0
   -2.4838   61.0261   83.0302 N   0  0  0  0  0  0  0  0  0  0  0  0
   -3.1841   59.8189   82.6619 C   0  0  0  0  0  0  0  0  0  0  0  0
   -1.6212   61.3034   79.1373 H   0  0  0  0  0  0  0  0  0  0  0  0
   -1.4758   63.3021   85.5739 C   0  0  0  0  0  0  0  0  0  0  0  0
    0.0231   63.4420   85.8922 C   0  0  0  0  0  0  0  0  0  0  0  0
    0.1266   63.2609   87.3995 C   0  0  0  0  0  0  0  0  0  0  0  0
   -0.9388   62.2222   87.6989 C   0  0  0  0  0  0  0  0  0  0  0  0
   -2.1067   62.6448   86.8164 C   0  0  0  0  0  0  0  0  0  0  0  0
    1.9145   68.4747   81.9823 S   0  0  0  0  0  0  0  0  0  0  0  0
    3.0578   69.1485   81.4019 O   0  0  0  0  0  0  0  0  0  0  0  0
    0.6784   69.1834   82.2350 O   0  0  0  0  0  0  0  0  0  0  0  0
    2.4198   67.7517   83.4225 N   0  0  0  0  0  0  0  0  0  0  0  0
    3.1922   68.5701   84.3929 C   0  0  0  0  0  0  0  0  0  0  0  0
    4.6210   68.0242   84.5996 C   0  0  0  0  0  0  0  0  0  0  0  0
    4.7117   66.5962   84.9710 N   0  0  0  0  0  0  0  0  0  0  0  0
    3.4477   65.8806   84.7039 C   0  0  0  0  0  0  0  0  0  0  0  0
    2.8038   66.3159   83.3762 C   0  0  0  0  0  0  0  0  0  0  0  0
    5.1556   66.3748   86.3524 C   0  0  0  0  0  0  0  0  0  0  0  0
    5.1511   64.8933   86.7608 C   0  0  0  0  0  0  0  0  0  0  0  0
    4.3471   64.7028   87.9229 O   0  0  0  0  0  0  0  0  0  0  0  0
    4.7814   65.1665   88.6588 H   0  0  0  0  0  0  0  0  0  0  0  0
    0.6613   63.8596   78.4664 O   0  0  0  0  0  0  0  0  0  0  0  0
   -0.8076   63.0123   76.7871 C   0  0  0  0  0  0  0  0  0  0  0  0
   -0.0515   64.2322   77.2810 C   0  0  0  0  0  0  0  0  0  0  0  0
 38 39  1  0  0  0
 39 37  1  0  0  0
 37  1  1  0  0  0
  1  2  1  0  0  0
  2  3  2  0  0  0
  3  4  1  0  0  0
  4 24  1  0  0  0
 24 25  2  0  0  0
 24 26  2  0  0  0
 24 27  1  0  0  0
 27 28  1  0  0  0
 28 29  1  0  0  0
 29 30  1  0  0  0
 30 33  1  0  0  0
 33 34  1  0  0  0
 34 35  1  0  0  0
 30 31  1  0  0  0
 31 32  1  0  0  0
  4  5  2  0  0  0
  5  6  1  0  0  0
  6  7  1  0  0  0
  7  8  2  0  0  0
  8  9  1  0  0  0
  9 10  1  0  0  0
  9 11  2  0  0  0
 11 12  1  0  0  0
 12 13  2  0  0  0
 12 14  1  0  0  0
 14 19  1  0  0  0
 19 20  1  0  0  0
 20 21  1  0  0  0
 21 22  1  0  0  0
 22 23  1  0  0  0
 14 15  2  0  0  0
 15 16  1  0  0  0
 16 17  1  0  0  0
  6  1  2  0  0  0
 13  7  1  0  0  0
 23 19  1  0  0  0
 32 27  1  0  0  0
 16 11  1  0  0  0
 35 36  1  0  0  0
 10 18  1  0  0  0
M  END
> <minimizedAffinity>
-9.38693

$$$$
