


 37 40  0  0  0  0  0  0  0  0999 V2000
    3.2310   66.9638   84.1685 C   0  0  0  0  0  0  0  0  0  0  0  0
    4.0203   68.1048   83.9568 C   0  0  0  0  0  0  0  0  0  0  0  0
    3.6269   69.0907   83.0480 C   0  0  0  0  0  0  0  0  0  0  0  0
    2.4313   68.9433   82.3509 C   0  0  0  0  0  0  0  0  0  0  0  0
    1.6274   67.8209   82.5513 C   0  0  0  0  0  0  0  0  0  0  0  0
    2.0137   66.8183   83.4584 C   0  0  0  0  0  0  0  0  0  0  0  0
    1.1161   65.6620   83.6086 C   0  0  0  0  0  0  0  0  0  0  0  0
    0.5974   64.9461   82.6209 N   0  0  0  0  0  0  0  0  0  0  0  0
   -0.1910   63.9937   83.2203 C   0  0  0  0  0  0  0  0  0  0  0  0
   -0.9931   62.9606   82.6073 C   0  0  0  0  0  0  0  0  0  0  0  0
   -1.0699   62.8088   81.3905 O   0  0  0  0  0  0  0  0  0  0  0  0
   -1.6744   62.1662   83.5451 N   0  0  0  0  0  0  0  0  0  0  0  0
   -2.5260   61.1148   83.0247 C   0  0  0  0  0  0  0  0  0  0  0  0
   -1.6903   62.3462   84.9439 C   0  0  0  0  0  0  0  0  0  0  0  0
   -2.4136   61.6558   85.6680 O   0  0  0  0  0  0  0  0  0  0  0  0
   -0.8538   63.3459   85.4812 N   0  0  0  0  0  0  0  0  0  0  0  0
   -0.1599   64.1258   84.5791 C   0  0  0  0  0  0  0  0  0  0  0  0
    0.6681   65.1790   84.8223 N   0  0  0  0  0  0  0  0  0  0  0  0
    0.9390   65.5668   85.7146 H   0  0  0  0  0  0  0  0  0  0  0  0
   -0.8280   63.5468   86.9316 C   0  0  0  0  0  0  0  0  0  0  0  0
    0.3235   62.8416   87.6808 C   0  0  0  0  0  0  0  0  0  0  0  0
   -0.1062   62.2764   89.0331 C   0  0  0  0  0  0  0  0  0  0  0  0
    1.5630   63.7197   87.8465 C   0  0  0  0  0  0  0  0  0  0  0  0
    1.9239   70.1809   81.1825 S   0  0  0  0  0  0  0  0  0  0  0  0
    0.9105   69.5950   80.3315 O   0  0  0  0  0  0  0  0  0  0  0  0
    3.1352   70.7438   80.6277 O   0  0  0  0  0  0  0  0  0  0  0  0
    1.1744   71.3485   82.1636 N   0  0  0  0  0  0  0  0  0  0  0  0
   -0.1802   71.8209   81.7460 C   0  0  0  0  0  0  0  0  0  0  0  0
   -0.1179   72.9899   80.7392 C   0  0  0  0  0  0  0  0  0  0  0  0
    0.7464   74.1205   81.1339 N   0  0  0  0  0  0  0  0  0  0  0  0
    0.1386   74.9266   82.1903 C   0  0  0  0  0  0  0  0  0  0  0  0
    2.0757   73.6068   81.5266 C   0  0  0  0  0  0  0  0  0  0  0  0
    2.0474   72.4848   82.5815 C   0  0  0  0  0  0  0  0  0  0  0  0
    3.5661   65.9506   85.0350 O   0  0  0  0  0  0  0  0  0  0  0  0
    4.8553   65.9419   85.6533 C   0  0  0  0  0  0  0  0  0  0  0  0
    5.5495   65.5743   88.0655 C   0  0  0  0  0  0  0  0  0  0  0  0
    4.9380   64.9540   86.8176 C   0  0  0  0  0  0  0  0  0  0  0  0
 36 37  1  0  0  0
 37 35  1  0  0  0
 35 34  1  0  0  0
 34  1  1  0  0  0
  1  2  1  0  0  0
  2  3  2  0  0  0
  3  4  1  0  0  0
  4 24  1  0  0  0
 24 25  2  0  0  0
 24 26  2  0  0  0
 24 27  1  0  0  0
 27 28  1  0  0  0
 28 29  1  0  0  0
 29 30  1  0  0  0
 30 31  1  0  0  0
 30 32  1  0  0  0
 32 33  1  0  0  0
  4  5  2  0  0  0
  5  6  1  0  0  0
  6  7  1  0  0  0
  7  8  2  0  0  0
  8  9  1  0  0  0
  9 10  1  0  0  0
 10 11  2  0  0  0
 10 12  1  0  0  0
 12 13  1  0  0  0
 12 14  1  0  0  0
 14 15  2  0  0  0
 14 16  1  0  0  0
 16 20  1  0  0  0
 20 21  1  0  0  0
 21 22  1  0  0  0
 21 23  1  0  0  0
 16 17  1  0  0  0
 17 18  1  0  0  0
  6  1  2  0  0  0
 18  7  1  0  0  0
 33 27  1  0  0  0
 17  9  2  0  0  0
 18 19  1  0  0  0
M  END
> <minimizedAffinity>
-9.95261

$$$$



 37 40  0  0  0  0  0  0  0  0999 V2000
    3.2307   66.6773   84.2490 C   0  0  0  0  0  0  0  0  0  0  0  0
    4.0681   67.8009   84.3279 C   0  0  0  0  0  0  0  0  0  0  0  0
    3.8944   68.8868   83.4659 C   0  0  0  0  0  0  0  0  0  0  0  0
    2.8708   68.8576   82.5232 C   0  0  0  0  0  0  0  0  0  0  0  0
    2.0220   67.7542   82.4323 C   0  0  0  0  0  0  0  0  0  0  0  0
    2.1888   66.6520   83.2894 C   0  0  0  0  0  0  0  0  0  0  0  0
    1.2584   65.5237   83.1265 C   0  0  0  0  0  0  0  0  0  0  0  0
    0.6483   65.1741   82.0028 N   0  0  0  0  0  0  0  0  0  0  0  0
   -0.1357   64.0916   82.3215 C   0  0  0  0  0  0  0  0  0  0  0  0
   -1.0162   63.3253   81.4706 C   0  0  0  0  0  0  0  0  0  0  0  0
   -1.1786   63.5764   80.2790 O   0  0  0  0  0  0  0  0  0  0  0  0
   -1.6650   62.2811   82.1515 N   0  0  0  0  0  0  0  0  0  0  0  0
   -2.5895   61.4683   81.3859 C   0  0  0  0  0  0  0  0  0  0  0  0
   -1.5820   61.9992   83.5309 C   0  0  0  0  0  0  0  0  0  0  0  0
   -2.2827   61.1232   84.0466 O   0  0  0  0  0  0  0  0  0  0  0  0
   -0.6735   62.7579   84.2969 N   0  0  0  0  0  0  0  0  0  0  0  0
   -0.0103   63.7766   83.6442 C   0  0  0  0  0  0  0  0  0  0  0  0
    0.8725   64.6812   84.1505 N   0  0  0  0  0  0  0  0  0  0  0  0
    1.2163   64.7552   85.0972 H   0  0  0  0  0  0  0  0  0  0  0  0
   -0.5447   62.4784   85.7287 C   0  0  0  0  0  0  0  0  0  0  0  0
   -1.2252   63.4965   86.6694 C   0  0  0  0  0  0  0  0  0  0  0  0
   -0.2630   64.0931   87.6946 C   0  0  0  0  0  0  0  0  0  0  0  0
   -2.4623   62.9373   87.3708 C   0  0  0  0  0  0  0  0  0  0  0  0
    2.6454   70.2241   81.4115 S   0  0  0  0  0  0  0  0  0  0  0  0
    1.7151   69.8079   80.3839 O   0  0  0  0  0  0  0  0  0  0  0  0
    3.9679   70.7037   81.0760 O   0  0  0  0  0  0  0  0  0  0  0  0
    1.8703   71.3832   82.3827 N   0  0  0  0  0  0  0  0  0  0  0  0
    0.4975   71.8071   81.9728 C   0  0  0  0  0  0  0  0  0  0  0  0
    0.5131   72.9616   80.9476 C   0  0  0  0  0  0  0  0  0  0  0  0
    1.3460   74.1243   81.3156 N   0  0  0  0  0  0  0  0  0  0  0  0
    0.7246   74.9277   82.3660 C   0  0  0  0  0  0  0  0  0  0  0  0
    2.6946   73.6580   81.7015 C   0  0  0  0  0  0  0  0  0  0  0  0
    2.7120   72.5523   82.7737 C   0  0  0  0  0  0  0  0  0  0  0  0
    3.3560   65.5707   85.0548 O   0  0  0  0  0  0  0  0  0  0  0  0
    4.6285   65.2423   85.6182 C   0  0  0  0  0  0  0  0  0  0  0  0
    5.5468   65.5845   87.9581 C   0  0  0  0  0  0  0  0  0  0  0  0
    4.5311   64.8520   87.0934 C   0  0  0  0  0  0  0  0  0  0  0  0
 36 37  1  0  0  0
 37 35  1  0  0  0
 35 34  1  0  0  0
 34  1  1  0  0  0
  1  2  1  0  0  0
  2  3  2  0  0  0
  3  4  1  0  0  0
  4 24  1  0  0  0
 24 25  2  0  0  0
 24 26  2  0  0  0
 24 27  1  0  0  0
 27 28  1  0  0  0
 28 29  1  0  0  0
 29 30  1  0  0  0
 30 31  1  0  0  0
 30 32  1  0  0  0
 32 33  1  0  0  0
  4  5  2  0  0  0
  5  6  1  0  0  0
  6  7  1  0  0  0
  7  8  2  0  0  0
  8  9  1  0  0  0
  9 10  1  0  0  0
 10 11  2  0  0  0
 10 12  1  0  0  0
 12 13  1  0  0  0
 12 14  1  0  0  0
 14 15  2  0  0  0
 14 16  1  0  0  0
 16 20  1  0  0  0
 20 21  1  0  0  0
 21 22  1  0  0  0
 21 23  1  0  0  0
 16 17  1  0  0  0
 17 18  1  0  0  0
  6  1  2  0  0  0
 18  7  1  0  0  0
 33 27  1  0  0  0
 17  9  2  0  0  0
 18 19  1  0  0  0
M  END
> <minimizedAffinity>
-9.75852

$$$$



 37 40  0  0  0  0  0  0  0  0999 V2000
    0.9733   65.5787   81.2109 C   0  0  0  0  0  0  0  0  0  0  0  0
    1.4482   66.4198   80.1927 C   0  0  0  0  0  0  0  0  0  0  0  0
    2.1069   67.6139   80.4974 C   0  0  0  0  0  0  0  0  0  0  0  0
    2.3032   67.9685   81.8288 C   0  0  0  0  0  0  0  0  0  0  0  0
    1.8462   67.1438   82.8571 C   0  0  0  0  0  0  0  0  0  0  0  0
    1.1767   65.9423   82.5650 C   0  0  0  0  0  0  0  0  0  0  0  0
    0.7187   65.1310   83.7041 C   0  0  0  0  0  0  0  0  0  0  0  0
    1.3189   65.0344   84.8820 N   0  0  0  0  0  0  0  0  0  0  0  0
    0.5613   64.1569   85.6195 C   0  0  0  0  0  0  0  0  0  0  0  0
    0.7701   63.6885   86.9698 C   0  0  0  0  0  0  0  0  0  0  0  0
    1.7215   64.0449   87.6605 O   0  0  0  0  0  0  0  0  0  0  0  0
   -0.2178   62.7841   87.3955 N   0  0  0  0  0  0  0  0  0  0  0  0
   -0.0815   62.2388   88.7317 C   0  0  0  0  0  0  0  0  0  0  0  0
   -1.2812   62.2765   86.6205 C   0  0  0  0  0  0  0  0  0  0  0  0
   -2.0296   61.3989   87.0608 O   0  0  0  0  0  0  0  0  0  0  0  0
   -1.4530   62.8055   85.3250 N   0  0  0  0  0  0  0  0  0  0  0  0
   -0.5053   63.7105   84.8931 C   0  0  0  0  0  0  0  0  0  0  0  0
   -0.4051   64.3287   83.6841 N   0  0  0  0  0  0  0  0  0  0  0  0
   -1.0231   64.2489   82.8892 H   0  0  0  0  0  0  0  0  0  0  0  0
   -2.5599   62.3177   84.4994 C   0  0  0  0  0  0  0  0  0  0  0  0
   -2.1811   61.8867   83.0658 C   0  0  0  0  0  0  0  0  0  0  0  0
   -2.6841   62.8592   82.0009 C   0  0  0  0  0  0  0  0  0  0  0  0
   -2.6195   60.4624   82.7279 C   0  0  0  0  0  0  0  0  0  0  0  0
    3.1267   69.4893   82.2327 S   0  0  0  0  0  0  0  0  0  0  0  0
    3.6787   70.0305   81.0092 O   0  0  0  0  0  0  0  0  0  0  0  0
    3.9678   69.2105   83.3758 O   0  0  0  0  0  0  0  0  0  0  0  0
    1.8494   70.4972   82.7230 N   0  0  0  0  0  0  0  0  0  0  0  0
    0.5639   70.3824   81.9702 C   0  0  0  0  0  0  0  0  0  0  0  0
    0.5292   71.2778   80.7128 C   0  0  0  0  0  0  0  0  0  0  0  0
    0.8985   72.6909   80.9311 N   0  0  0  0  0  0  0  0  0  0  0  0
   -0.1607   73.4307   81.6136 C   0  0  0  0  0  0  0  0  0  0  0  0
    2.1790   72.7543   81.6669 C   0  0  0  0  0  0  0  0  0  0  0  0
    2.2194   71.9233   82.9632 C   0  0  0  0  0  0  0  0  0  0  0  0
    0.3049   64.3998   80.9811 O   0  0  0  0  0  0  0  0  0  0  0  0
    0.0948   63.9519   79.6395 C   0  0  0  0  0  0  0  0  0  0  0  0
    0.6994   61.7764   80.7958 C   0  0  0  0  0  0  0  0  0  0  0  0
    0.3299   62.4492   79.4818 C   0  0  0  0  0  0  0  0  0  0  0  0
 36 37  1  0  0  0
 37 35  1  0  0  0
 35 34  1  0  0  0
 34  1  1  0  0  0
  1  2  1  0  0  0
  2  3  2  0  0  0
  3  4  1  0  0  0
  4 24  1  0  0  0
 24 25  2  0  0  0
 24 26  2  0  0  0
 24 27  1  0  0  0
 27 28  1  0  0  0
 28 29  1  0  0  0
 29 30  1  0  0  0
 30 31  1  0  0  0
 30 32  1  0  0  0
 32 33  1  0  0  0
  4  5  2  0  0  0
  5  6  1  0  0  0
  6  7  1  0  0  0
  7  8  2  0  0  0
  8  9  1  0  0  0
  9 10  1  0  0  0
 10 11  2  0  0  0
 10 12  1  0  0  0
 12 13  1  0  0  0
 12 14  1  0  0  0
 14 15  2  0  0  0
 14 16  1  0  0  0
 16 20  1  0  0  0
 20 21  1  0  0  0
 21 22  1  0  0  0
 21 23  1  0  0  0
 16 17  1  0  0  0
 17 18  1  0  0  0
  6  1  2  0  0  0
 18  7  1  0  0  0
 33 27  1  0  0  0
 17  9  2  0  0  0
 18 19  1  0  0  0
M  END
> <minimizedAffinity>
-9.68571

$$$$



 37 40  0  0  0  0  0  0  0  0999 V2000
    3.6360   67.6416   83.8496 C   0  0  0  0  0  0  0  0  0  0  0  0
    4.3090   68.7535   83.3198 C   0  0  0  0  0  0  0  0  0  0  0  0
    3.6673   69.6272   82.4380 C   0  0  0  0  0  0  0  0  0  0  0  0
    2.3400   69.3969   82.0887 C   0  0  0  0  0  0  0  0  0  0  0  0
    1.6494   68.3022   82.6093 C   0  0  0  0  0  0  0  0  0  0  0  0
    2.2843   67.4116   83.4930 C   0  0  0  0  0  0  0  0  0  0  0  0
    1.4915   66.2772   83.9930 C   0  0  0  0  0  0  0  0  0  0  0  0
    1.3250   65.9450   85.2654 N   0  0  0  0  0  0  0  0  0  0  0  0
    0.5398   64.8174   85.2601 C   0  0  0  0  0  0  0  0  0  0  0  0
    0.0641   64.0360   86.3779 C   0  0  0  0  0  0  0  0  0  0  0  0
    0.3315   64.3092   87.5455 O   0  0  0  0  0  0  0  0  0  0  0  0
   -0.7197   62.9376   85.9852 N   0  0  0  0  0  0  0  0  0  0  0  0
   -1.2247   62.0776   87.0372 C   0  0  0  0  0  0  0  0  0  0  0  0
   -0.9888   62.5285   84.6626 C   0  0  0  0  0  0  0  0  0  0  0  0
   -1.5995   61.4810   84.4303 O   0  0  0  0  0  0  0  0  0  0  0  0
   -0.5304   63.3578   83.6186 N   0  0  0  0  0  0  0  0  0  0  0  0
    0.2252   64.4535   83.9822 C   0  0  0  0  0  0  0  0  0  0  0  0
    0.8256   65.3783   83.1833 N   0  0  0  0  0  0  0  0  0  0  0  0
    0.8079   65.4379   82.1753 H   0  0  0  0  0  0  0  0  0  0  0  0
   -0.8103   62.9758   82.2328 C   0  0  0  0  0  0  0  0  0  0  0  0
    0.3977   62.4421   81.4326 C   0  0  0  0  0  0  0  0  0  0  0  0
    0.0468   62.0978   79.9865 C   0  0  0  0  0  0  0  0  0  0  0  0
    1.0900   61.2564   82.1034 C   0  0  0  0  0  0  0  0  0  0  0  0
    1.5144   70.4905   80.9588 S   0  0  0  0  0  0  0  0  0  0  0  0
    0.4721   69.7358   80.2965 O   0  0  0  0  0  0  0  0  0  0  0  0
    2.5504   71.1602   80.2037 O   0  0  0  0  0  0  0  0  0  0  0  0
    0.7712   71.6170   81.9913 N   0  0  0  0  0  0  0  0  0  0  0  0
   -0.5200   72.2128   81.5326 C   0  0  0  0  0  0  0  0  0  0  0  0
   -0.3171   73.4570   80.6411 C   0  0  0  0  0  0  0  0  0  0  0  0
    0.5850   74.4895   81.1901 N   0  0  0  0  0  0  0  0  0  0  0  0
   -0.0443   75.2408   82.2739 C   0  0  0  0  0  0  0  0  0  0  0  0
    1.8502   73.8565   81.6186 C   0  0  0  0  0  0  0  0  0  0  0  0
    1.6807   72.6526   82.5644 C   0  0  0  0  0  0  0  0  0  0  0  0
    4.2116   66.7357   84.7085 O   0  0  0  0  0  0  0  0  0  0  0  0
    5.0344   67.1985   85.7824 C   0  0  0  0  0  0  0  0  0  0  0  0
    6.9475   65.8999   84.7387 C   0  0  0  0  0  0  0  0  0  0  0  0
    6.2396   66.2900   86.0281 C   0  0  0  0  0  0  0  0  0  0  0  0
 36 37  1  0  0  0
 37 35  1  0  0  0
 35 34  1  0  0  0
 34  1  1  0  0  0
  1  2  1  0  0  0
  2  3  2  0  0  0
  3  4  1  0  0  0
  4 24  1  0  0  0
 24 25  2  0  0  0
 24 26  2  0  0  0
 24 27  1  0  0  0
 27 28  1  0  0  0
 28 29  1  0  0  0
 29 30  1  0  0  0
 30 31  1  0  0  0
 30 32  1  0  0  0
 32 33  1  0  0  0
  4  5  2  0  0  0
  5  6  1  0  0  0
  6  7  1  0  0  0
  7  8  2  0  0  0
  8  9  1  0  0  0
  9 10  1  0  0  0
 10 11  2  0  0  0
 10 12  1  0  0  0
 12 13  1  0  0  0
 12 14  1  0  0  0
 14 15  2  0  0  0
 14 16  1  0  0  0
 16 20  1  0  0  0
 20 21  1  0  0  0
 21 22  1  0  0  0
 21 23  1  0  0  0
 16 17  1  0  0  0
 17 18  1  0  0  0
  6  1  2  0  0  0
 18  7  1  0  0  0
 33 27  1  0  0  0
 17  9  2  0  0  0
 18 19  1  0  0  0
M  END
> <minimizedAffinity>
-9.64375

$$$$



 37 40  0  0  0  0  0  0  0  0999 V2000
   -0.1144   63.4289   84.6427 C   0  0  0  0  0  0  0  0  0  0  0  0
   -0.8180   62.2450   84.9134 C   0  0  0  0  0  0  0  0  0  0  0  0
   -1.6421   61.6632   83.9465 C   0  0  0  0  0  0  0  0  0  0  0  0
   -1.7586   62.2607   82.6949 C   0  0  0  0  0  0  0  0  0  0  0  0
   -1.0624   63.4336   82.4016 C   0  0  0  0  0  0  0  0  0  0  0  0
   -0.2341   64.0331   83.3669 C   0  0  0  0  0  0  0  0  0  0  0  0
    0.4607   65.2724   82.9838 C   0  0  0  0  0  0  0  0  0  0  0  0
    0.2400   65.9805   81.8853 N   0  0  0  0  0  0  0  0  0  0  0  0
    1.1255   67.0303   81.9302 C   0  0  0  0  0  0  0  0  0  0  0  0
    1.3171   68.0990   80.9775 C   0  0  0  0  0  0  0  0  0  0  0  0
    0.6648   68.1942   79.9407 O   0  0  0  0  0  0  0  0  0  0  0  0
    2.3264   68.9994   81.3590 N   0  0  0  0  0  0  0  0  0  0  0  0
    2.6096   70.0955   80.4536 C   0  0  0  0  0  0  0  0  0  0  0  0
    3.1615   68.8940   82.4907 C   0  0  0  0  0  0  0  0  0  0  0  0
    4.0929   69.6837   82.6723 O   0  0  0  0  0  0  0  0  0  0  0  0
    2.8949   67.8515   83.4017 N   0  0  0  0  0  0  0  0  0  0  0  0
    1.8944   66.9662   83.0568 C   0  0  0  0  0  0  0  0  0  0  0  0
    1.4713   65.8561   83.7221 N   0  0  0  0  0  0  0  0  0  0  0  0
    1.8043   65.4918   84.6032 H   0  0  0  0  0  0  0  0  0  0  0  0
    3.7279   67.7242   84.5994 C   0  0  0  0  0  0  0  0  0  0  0  0
    4.8193   66.6335   84.5381 C   0  0  0  0  0  0  0  0  0  0  0  0
    4.6616   65.5739   85.6268 C   0  0  0  0  0  0  0  0  0  0  0  0
    6.2390   67.1984   84.5542 C   0  0  0  0  0  0  0  0  0  0  0  0
   -2.8124   61.5410   81.4597 S   0  0  0  0  0  0  0  0  0  0  0  0
   -3.4136   62.6221   80.7085 O   0  0  0  0  0  0  0  0  0  0  0  0
   -3.6258   60.5553   82.1368 O   0  0  0  0  0  0  0  0  0  0  0  0
   -1.7141   60.7405   80.4396 N   0  0  0  0  0  0  0  0  0  0  0  0
   -0.5436   61.5280   79.9474 C   0  0  0  0  0  0  0  0  0  0  0  0
   -0.8594   62.3212   78.6610 C   0  0  0  0  0  0  0  0  0  0  0  0
   -1.4771   61.5399   77.5704 N   0  0  0  0  0  0  0  0  0  0  0  0
   -0.5101   60.6620   76.9153 C   0  0  0  0  0  0  0  0  0  0  0  0
   -2.6344   60.7889   78.1010 C   0  0  0  0  0  0  0  0  0  0  0  0
   -2.3321   59.9339   79.3461 C   0  0  0  0  0  0  0  0  0  0  0  0
    0.6999   64.0609   85.5521 O   0  0  0  0  0  0  0  0  0  0  0  0
    0.1896   64.4079   86.8419 C   0  0  0  0  0  0  0  0  0  0  0  0
   -0.3347   62.8755   88.7944 C   0  0  0  0  0  0  0  0  0  0  0  0
    0.7556   63.5214   87.9518 C   0  0  0  0  0  0  0  0  0  0  0  0
 36 37  1  0  0  0
 37 35  1  0  0  0
 35 34  1  0  0  0
 34  1  1  0  0  0
  1  2  1  0  0  0
  2  3  2  0  0  0
  3  4  1  0  0  0
  4 24  1  0  0  0
 24 25  2  0  0  0
 24 26  2  0  0  0
 24 27  1  0  0  0
 27 28  1  0  0  0
 28 29  1  0  0  0
 29 30  1  0  0  0
 30 31  1  0  0  0
 30 32  1  0  0  0
 32 33  1  0  0  0
  4  5  2  0  0  0
  5  6  1  0  0  0
  6  7  1  0  0  0
  7  8  2  0  0  0
  8  9  1  0  0  0
  9 10  1  0  0  0
 10 11  2  0  0  0
 10 12  1  0  0  0
 12 13  1  0  0  0
 12 14  1  0  0  0
 14 15  2  0  0  0
 14 16  1  0  0  0
 16 20  1  0  0  0
 20 21  1  0  0  0
 21 22  1  0  0  0
 21 23  1  0  0  0
 16 17  1  0  0  0
 17 18  1  0  0  0
  6  1  2  0  0  0
 18  7  1  0  0  0
 33 27  1  0  0  0
 17  9  2  0  0  0
 18 19  1  0  0  0
M  END
> <minimizedAffinity>
-9.63912

$$$$
