
     RDKit          3D

 31 34  0  0  0  0  0  0  0  0999 V2000
    0.3449   64.5266   82.2765 C   0  0  0  0  0  0  0  0  0  0  0  0
   -0.1027   64.1950   81.0588 N   0  0  0  0  0  0  0  0  0  0  0  0
   -1.0642   63.3088   80.9106 N   0  0  0  0  0  0  0  0  0  0  0  0
   -1.6713   62.6717   81.9210 C   0  0  0  0  0  0  0  0  0  0  0  0
   -1.2592   62.9654   83.1961 C   0  0  0  0  0  0  0  0  0  0  0  0
   -1.8540   62.3294   84.2603 C   0  0  0  0  0  0  0  0  0  0  0  0
   -1.4618   62.5984   85.5544 C   0  0  0  0  0  0  0  0  0  0  0  0
   -0.4548   63.5271   85.7169 C   0  0  0  0  0  0  0  0  0  0  0  0
    0.1448   64.1675   84.6439 C   0  0  0  0  0  0  0  0  0  0  0  0
   -0.2515   63.8943   83.3520 C   0  0  0  0  0  0  0  0  0  0  0  0
   -2.7002   61.7566   81.5936 N   0  0  0  0  0  0  0  0  0  0  0  0
   -2.6943   60.3556   81.9601 C   0  0  0  0  0  0  0  0  0  0  0  0
   -3.1671   59.4429   80.8695 C   0  0  0  0  0  0  0  0  0  0  0  0
   -3.4696   60.1429   79.5928 C   0  0  0  0  0  0  0  0  0  0  0  0
   -3.2485   59.6057   78.5080 O   0  0  0  0  0  0  0  0  0  0  0  0
   -4.0482   61.5126   79.5366 C   0  0  0  0  0  0  0  0  0  0  0  0
   -3.8446   62.2362   80.8426 C   0  0  0  0  0  0  0  0  0  0  0  0
    1.3784   65.4751   82.4225 N   0  0  0  0  0  0  0  0  0  0  0  0
    2.1978   65.4965   81.7530 H   0  0  0  0  0  0  0  0  0  0  0  0
    1.4311   66.4836   83.4627 C   0  0  0  0  0  0  0  0  0  0  0  0
    5.3391   67.1085   85.1187 C   0  0  0  0  0  0  0  0  0  0  0  0
    4.8019   68.0655   84.2727 C   0  0  0  0  0  0  0  0  0  0  0  0
    3.5353   67.8569   83.7324 C   0  0  0  0  0  0  0  0  0  0  0  0
    2.7773   66.7583   83.9844 C   0  0  0  0  0  0  0  0  0  0  0  0
    3.3265   65.7964   84.8394 C   0  0  0  0  0  0  0  0  0  0  0  0
    4.5843   65.9819   85.3883 C   0  0  0  0  0  0  0  0  0  0  0  0
    5.2907   64.7826   86.4654 Cl  0  0  0  0  0  0  0  0  0  0  0  0
    7.7643   66.9773   84.9495 C   0  0  0  0  0  0  0  0  0  0  0  0
    6.6008   67.2917   85.6714 O   0  0  0  0  0  0  0  0  0  0  0  0
   -0.0218   63.8299   87.0716 C   0  0  0  0  0  0  0  0  0  0  0  0
    0.3432   64.0644   88.1644 N   0  0  0  0  0  0  0  0  0  0  0  0
 28 29  1  0
 29 21  1  0
 21 22  1  0
 22 23  2  0
 23 24  1  0
 24 20  1  0
 20 18  1  0
 18  1  1  0
  1  2  1  0
  2  3  2  0
  3  4  1  0
  4 11  1  0
 11 12  1  0
 12 13  1  0
 13 14  1  0
 14 15  2  0
 14 16  1  0
 16 17  1  0
  4  5  2  0
  5  6  1  0
  6  7  2  0
  7  8  1  0
  8 30  1  0
 30 31  3  0
  8  9  2  0
  9 10  1  0
 24 25  2  0
 25 26  1  0
 26 27  1  0
 26 21  2  0
 10  1  2  0
 17 11  1  0
 10  5  1  0
 18 19  1  0
M  END
>  <minimizedAffinity>  (1) 
-9.90383

$$$$
