
     RDKit          3D

 79 84  0  0  0  0  0  0  0  0999 V2000
    5.3535   -6.1154   -0.5419 C   0  0  0  0  0  0  0  0  0  0  0  0
    4.8496   -5.0991   -1.3992 O   0  0  0  0  0  0  0  0  0  0  0  0
    4.6440   -3.8665   -0.8434 C   0  0  0  0  0  0  0  0  0  0  0  0
    4.0824   -2.9248   -1.7118 C   0  0  0  0  0  0  0  0  0  0  0  0
    3.8057   -1.6283   -1.2755 C   0  0  0  0  0  0  0  0  0  0  0  0
    4.0913   -1.2752    0.0439 C   0  0  0  0  0  0  0  0  0  0  0  0
    3.7522    0.3684    0.6109 S   0  0  0  0  0  0  0  0  0  0  0  0
    4.8637    0.7746    1.4482 O   0  0  0  0  0  0  0  0  0  0  0  0
    3.3425    1.2006   -0.5012 O   0  0  0  0  0  0  0  0  0  0  0  0
    2.4582    0.1761    1.6581 N   0  0  0  0  0  0  0  0  0  0  0  0
    1.1635   -0.0039    1.0522 C   0  0  0  0  0  0  0  0  0  0  0  0
    0.9555   -0.9528    0.1687 N   0  0  0  0  0  0  0  0  0  0  0  0
   -0.3757   -0.9083   -0.0937 C   0  0  0  0  0  0  0  0  0  0  0  0
   -1.0013    0.0593    0.6308 C   0  0  0  0  0  0  0  0  0  0  0  0
   -2.4051    0.2774    0.5747 C   0  0  0  0  0  0  0  0  0  0  0  0
   -2.9801    1.0971    1.2851 O   0  0  0  0  0  0  0  0  0  0  0  0
   -3.0545   -0.5581   -0.3403 N   0  0  0  0  0  0  0  0  0  0  0  0
   -4.4963   -0.4011   -0.4676 C   0  0  0  0  0  0  0  0  0  0  0  0
   -5.2096   -1.1731    0.6088 C   0  0  0  0  0  0  0  0  0  0  0  0
   -6.6159   -1.6673    0.3799 C   0  0  0  0  0  0  0  0  0  0  0  0
   -5.4802   -2.6493    0.4626 C   0  0  0  0  0  0  0  0  0  0  0  0
   -2.4383   -1.5659   -1.1087 C   0  0  0  0  0  0  0  0  0  0  0  0
   -3.0860   -2.2794   -1.8802 O   0  0  0  0  0  0  0  0  0  0  0  0
   -1.0588   -1.7277   -0.9592 N   0  0  0  0  0  0  0  0  0  0  0  0
   -0.3728   -2.7799   -1.6997 C   0  0  0  0  0  0  0  0  0  0  0  0
   -0.4218   -4.0779   -0.9450 C   0  0  0  0  0  0  0  0  0  0  0  0
    0.5878   -4.3934    0.1303 C   0  0  0  0  0  0  0  0  0  0  0  0
    0.6327   -5.1309   -1.1789 C   0  0  0  0  0  0  0  0  0  0  0  0
   -0.0009    0.6742    1.3401 N   0  0  0  0  0  0  0  0  0  0  0  0
   -0.1404    1.8132    2.2309 C   0  0  0  0  0  0  0  0  0  0  0  0
   -0.2634    3.1151    1.4734 C   0  0  0  0  0  0  0  0  0  0  0  0
    0.7998    3.6015    0.6926 C   0  0  0  0  0  0  0  0  0  0  0  0
    0.6882    4.8112    0.0018 C   0  0  0  0  0  0  0  0  0  0  0  0
    1.6777    5.3608   -0.7719 O   0  0  0  0  0  0  0  0  0  0  0  0
    2.7712    4.5212   -1.1233 C   0  0  0  0  0  0  0  0  0  0  0  0
   -0.5060    5.5434    0.1034 C   0  0  0  0  0  0  0  0  0  0  0  0
   -0.6076    6.7644   -0.5276 O   0  0  0  0  0  0  0  0  0  0  0  0
   -1.1143    6.5848   -1.8487 C   0  0  0  0  0  0  0  0  0  0  0  0
   -1.5779    5.0852    0.8864 C   0  0  0  0  0  0  0  0  0  0  0  0
   -2.6925    5.8829    0.9182 O   0  0  0  0  0  0  0  0  0  0  0  0
   -3.8163    5.4120    1.6489 C   0  0  0  0  0  0  0  0  0  0  0  0
   -1.4454    3.8707    1.5643 C   0  0  0  0  0  0  0  0  0  0  0  0
    4.6733   -2.1990    0.9160 C   0  0  0  0  0  0  0  0  0  0  0  0
    4.9443   -3.4972    0.4704 C   0  0  0  0  0  0  0  0  0  0  0  0
    6.3574   -5.8658   -0.1832 H   0  0  0  0  0  0  0  0  0  0  0  0
    4.6699   -6.3038    0.2927 H   0  0  0  0  0  0  0  0  0  0  0  0
    5.4284   -7.0381   -1.1253 H   0  0  0  0  0  0  0  0  0  0  0  0
    3.8516   -3.2081   -2.7362 H   0  0  0  0  0  0  0  0  0  0  0  0
    3.3553   -0.9138   -1.9602 H   0  0  0  0  0  0  0  0  0  0  0  0
    2.5805    0.6388    2.5524 H   0  0  0  0  0  0  0  0  0  0  0  0
   -4.8261   -0.7196   -1.4631 H   0  0  0  0  0  0  0  0  0  0  0  0
   -4.7560    0.6600   -0.3736 H   0  0  0  0  0  0  0  0  0  0  0  0
   -4.9817   -0.7952    1.6001 H   0  0  0  0  0  0  0  0  0  0  0  0
   -7.0766   -1.5115   -0.5893 H   0  0  0  0  0  0  0  0  0  0  0  0
   -7.3111   -1.6255    1.2111 H   0  0  0  0  0  0  0  0  0  0  0  0
   -5.4058   -3.2693    1.3488 H   0  0  0  0  0  0  0  0  0  0  0  0
   -5.1811   -3.1512   -0.4516 H   0  0  0  0  0  0  0  0  0  0  0  0
    0.6578   -2.4689   -1.9078 H   0  0  0  0  0  0  0  0  0  0  0  0
   -0.8615   -2.9167   -2.6713 H   0  0  0  0  0  0  0  0  0  0  0  0
   -1.4400   -4.4255   -0.8052 H   0  0  0  0  0  0  0  0  0  0  0  0
    0.2426   -4.9292    1.0065 H   0  0  0  0  0  0  0  0  0  0  0  0
    1.3760   -3.6764    0.3321 H   0  0  0  0  0  0  0  0  0  0  0  0
    0.3199   -6.1688   -1.1881 H   0  0  0  0  0  0  0  0  0  0  0  0
    1.4548   -4.9115   -1.8511 H   0  0  0  0  0  0  0  0  0  0  0  0
   -1.0084    1.6257    2.8726 H   0  0  0  0  0  0  0  0  0  0  0  0
    0.7306    1.8560    2.8934 H   0  0  0  0  0  0  0  0  0  0  0  0
    1.7191    3.0277    0.6399 H   0  0  0  0  0  0  0  0  0  0  0  0
    2.4255    3.6114   -1.6244 H   0  0  0  0  0  0  0  0  0  0  0  0
    3.3847    4.2882   -0.2473 H   0  0  0  0  0  0  0  0  0  0  0  0
    3.3995    5.0712   -1.8306 H   0  0  0  0  0  0  0  0  0  0  0  0
   -2.1142    6.1373   -1.8363 H   0  0  0  0  0  0  0  0  0  0  0  0
   -1.1933    7.5722   -2.3135 H   0  0  0  0  0  0  0  0  0  0  0  0
   -0.4362    5.9786   -2.4591 H   0  0  0  0  0  0  0  0  0  0  0  0
   -4.6165    6.1511    1.5440 H   0  0  0  0  0  0  0  0  0  0  0  0
   -4.1844    4.4642    1.2423 H   0  0  0  0  0  0  0  0  0  0  0  0
   -3.5842    5.3232    2.7152 H   0  0  0  0  0  0  0  0  0  0  0  0
   -2.2590    3.4867    2.1736 H   0  0  0  0  0  0  0  0  0  0  0  0
    4.9152   -1.9186    1.9383 H   0  0  0  0  0  0  0  0  0  0  0  0
    5.3915   -4.1945    1.1713 H   0  0  0  0  0  0  0  0  0  0  0  0
  1  2  1  0
  2  3  1  0
  3  4  1  0
  4  5  2  0
  5  6  1  0
  6  7  1  0
  7  8  2  0
  7  9  2  0
  7 10  1  0
 10 11  1  0
 11 12  2  0
 12 13  1  0
 13 14  2  0
 14 15  1  0
 15 16  2  0
 15 17  1  0
 17 18  1  0
 18 19  1  0
 19 20  1  0
 20 21  1  0
 17 22  1  0
 22 23  2  0
 22 24  1  0
 24 25  1  0
 25 26  1  0
 26 27  1  0
 27 28  1  0
 14 29  1  0
 29 30  1  0
 30 31  1  0
 31 32  1  0
 32 33  2  0
 33 34  1  0
 34 35  1  0
 33 36  1  0
 36 37  1  0
 37 38  1  0
 36 39  2  0
 39 40  1  0
 40 41  1  0
 39 42  1  0
  6 43  2  0
 43 44  1  0
 44  3  2  0
 29 11  1  0
 42 31  2  0
 24 13  1  0
 28 26  1  0
 21 19  1  0
  1 45  1  0
  1 46  1  0
  1 47  1  0
  4 48  1  0
  5 49  1  0
 10 50  1  0
 18 51  1  0
 18 52  1  0
 19 53  1  0
 20 54  1  0
 20 55  1  0
 21 56  1  0
 21 57  1  0
 25 58  1  0
 25 59  1  0
 26 60  1  0
 27 61  1  0
 27 62  1  0
 28 63  1  0
 28 64  1  0
 30 65  1  0
 30 66  1  0
 32 67  1  0
 35 68  1  0
 35 69  1  0
 35 70  1  0
 38 71  1  0
 38 72  1  0
 38 73  1  0
 41 74  1  0
 41 75  1  0
 41 76  1  0
 42 77  1  0
 43 78  1  0
 44 79  1  0
M  END
$$$$
