


 37 41  0  0  0  0  0  0  0  0999 V2000
   -0.3238   63.3610   86.0858 N   0  0  0  0  0  0  0  0  0  0  0  0
    0.4927   64.4109   86.3221 N   0  0  0  0  0  0  0  0  0  0  0  0
    0.7536   64.8752   85.0956 C   0  0  0  0  0  0  0  0  0  0  0  0
    0.0868   64.1596   84.0691 C   0  0  0  0  0  0  0  0  0  0  0  0
   -0.0305   64.1982   82.6458 C   0  0  0  0  0  0  0  0  0  0  0  0
    0.5625   65.1810   81.8239 C   0  0  0  0  0  0  0  0  0  0  0  0
    0.4377   65.0966   80.4850 N   0  0  0  0  0  0  0  0  0  0  0  0
   -0.2867   64.0870   79.8963 N   0  0  0  0  0  0  0  0  0  0  0  0
   -0.8902   63.1346   80.6381 C   0  0  0  0  0  0  0  0  0  0  0  0
   -0.7906   63.1680   82.0412 C   0  0  0  0  0  0  0  0  0  0  0  0
   -1.4253   62.2407   82.8847 C   0  0  0  0  0  0  0  0  0  0  0  0
   -1.3694   62.1967   84.2379 N   0  0  0  0  0  0  0  0  0  0  0  0
   -0.5935   63.1641   84.7575 C   0  0  0  0  0  0  0  0  0  0  0  0
   -1.6022   62.0904   79.9909 N   0  0  0  0  0  0  0  0  0  0  0  0
   -2.4560   62.5908   78.9102 C   0  0  0  0  0  0  0  0  0  0  0  0
   -3.4365   61.4816   78.5165 C   0  0  0  0  0  0  0  0  0  0  0  0
   -2.8219   60.0741   78.6169 C   0  0  0  0  0  0  0  0  0  0  0  0
   -1.2952   60.1299   78.4960 C   0  0  0  0  0  0  0  0  0  0  0  0
   -0.6518   61.0484   79.5454 C   0  0  0  0  0  0  0  0  0  0  0  0
   -3.2291   59.3767   79.9009 C   0  0  0  0  0  0  0  0  0  0  0  0
   -3.5296   59.8982   80.9620 O   0  0  0  0  0  0  0  0  0  0  0  0
   -3.1623   58.0335   79.8055 O   0  0  0  0  0  0  0  0  0  0  0  0
   -3.4251   57.7204   80.6966 H   0  0  0  0  0  0  0  0  0  0  0  0
   -2.1934   63.0143   87.6487 C   0  0  0  0  0  0  0  0  0  0  0  0
   -0.8176   62.5651   87.1907 C   0  0  0  0  0  0  0  0  0  0  0  0
    1.2732   66.2566   82.3938 N   0  0  0  0  0  0  0  0  0  0  0  0
    0.6169   66.8341   82.9142 H   0  0  0  0  0  0  0  0  0  0  0  0
    2.0224   67.0621   81.4369 C   0  0  0  0  0  0  0  0  0  0  0  0
    1.9130   68.5131   81.8460 C   0  0  0  0  0  0  0  0  0  0  0  0
    2.9750   69.1646   82.4845 C   0  0  0  0  0  0  0  0  0  0  0  0
    2.8728   70.5136   82.8476 C   0  0  0  0  0  0  0  0  0  0  0  0
    1.7082   71.2387   82.5746 C   0  0  0  0  0  0  0  0  0  0  0  0
    0.6463   70.5866   81.9280 C   0  0  0  0  0  0  0  0  0  0  0  0
   -0.8253   71.4146   81.5511 Cl  0  0  0  0  0  0  0  0  0  0  0  0
    0.7480   69.2398   81.5655 C   0  0  0  0  0  0  0  0  0  0  0  0
    1.5217   72.5582   82.8946 O   0  0  0  0  0  0  0  0  0  0  0  0
    2.6632   73.3154   83.2721 C   0  0  0  0  0  0  0  0  0  0  0  0
 24 25  1  0  0  0
 25  1  1  0  0  0
  1  2  1  0  0  0
  2  3  2  0  0  0
  3  4  1  0  0  0
  4  5  1  0  0  0
  5  6  2  0  0  0
  6 26  1  0  0  0
 26 28  1  0  0  0
 28 29  1  0  0  0
 29 30  1  0  0  0
 30 31  2  0  0  0
 31 32  1  0  0  0
 32 36  1  0  0  0
 36 37  1  0  0  0
 32 33  2  0  0  0
 33 34  1  0  0  0
 33 35  1  0  0  0
  6  7  1  0  0  0
  7  8  2  0  0  0
  8  9  1  0  0  0
  9 14  1  0  0  0
 14 15  1  0  0  0
 15 16  1  0  0  0
 16 17  1  0  0  0
 17 20  1  0  0  0
 20 21  2  0  0  0
 20 22  1  0  0  0
 17 18  1  0  0  0
 18 19  1  0  0  0
  9 10  2  0  0  0
 10 11  1  0  0  0
 11 12  2  0  0  0
 12 13  1  0  0  0
 13  1  1  0  0  0
 13  4  2  0  0  0
 10  5  1  0  0  0
 35 29  2  0  0  0
 19 14  1  0  0  0
 26 27  1  0  0  0
 22 23  1  0  0  0
M  END
> <minimizedAffinity>
-11.40825

$$$$



 37 41  0  0  0  0  0  0  0  0999 V2000
   -0.1789   62.8137   87.2887 N   0  0  0  0  0  0  0  0  0  0  0  0
    0.6446   63.8454   87.5756 N   0  0  0  0  0  0  0  0  0  0  0  0
    0.7796   64.4634   86.3975 C   0  0  0  0  0  0  0  0  0  0  0  0
    0.0244   63.8641   85.3578 C   0  0  0  0  0  0  0  0  0  0  0  0
   -0.2311   64.0750   83.9680 C   0  0  0  0  0  0  0  0  0  0  0  0
    0.2677   65.1654   83.2227 C   0  0  0  0  0  0  0  0  0  0  0  0
    0.0143   65.2436   81.9018 N   0  0  0  0  0  0  0  0  0  0  0  0
   -0.7523   64.2974   81.2631 N   0  0  0  0  0  0  0  0  0  0  0  0
   -1.2697   63.2470   81.9341 C   0  0  0  0  0  0  0  0  0  0  0  0
   -1.0345   63.1096   83.3145 C   0  0  0  0  0  0  0  0  0  0  0  0
   -1.5735   62.0707   84.0921 C   0  0  0  0  0  0  0  0  0  0  0  0
   -1.3857   61.8617   85.4177 N   0  0  0  0  0  0  0  0  0  0  0  0
   -0.5741   62.7757   85.9779 C   0  0  0  0  0  0  0  0  0  0  0  0
   -2.0291   62.2740   81.2322 N   0  0  0  0  0  0  0  0  0  0  0  0
   -3.3114   62.8064   80.7635 C   0  0  0  0  0  0  0  0  0  0  0  0
   -4.2001   61.6296   80.3486 C   0  0  0  0  0  0  0  0  0  0  0  0
   -3.4066   60.4721   79.7166 C   0  0  0  0  0  0  0  0  0  0  0  0
   -2.0874   60.9714   79.1174 C   0  0  0  0  0  0  0  0  0  0  0  0
   -1.2076   61.6972   80.1460 C   0  0  0  0  0  0  0  0  0  0  0  0
   -3.1503   59.3594   80.7152 C   0  0  0  0  0  0  0  0  0  0  0  0
   -2.8882   59.4762   81.9009 O   0  0  0  0  0  0  0  0  0  0  0  0
   -3.1616   58.1378   80.1449 O   0  0  0  0  0  0  0  0  0  0  0  0
   -2.9635   57.5291   80.8875 H   0  0  0  0  0  0  0  0  0  0  0  0
    0.2187   62.1094   89.6134 C   0  0  0  0  0  0  0  0  0  0  0  0
   -0.5536   61.8764   88.3274 C   0  0  0  0  0  0  0  0  0  0  0  0
    1.0180   66.1790   83.8523 N   0  0  0  0  0  0  0  0  0  0  0  0
    0.3723   66.8156   84.3136 H   0  0  0  0  0  0  0  0  0  0  0  0
    1.9153   66.9085   82.9643 C   0  0  0  0  0  0  0  0  0  0  0  0
    3.2650   67.0185   83.6356 C   0  0  0  0  0  0  0  0  0  0  0  0
    4.0831   68.1363   83.4318 C   0  0  0  0  0  0  0  0  0  0  0  0
    5.3264   68.2391   84.0688 C   0  0  0  0  0  0  0  0  0  0  0  0
    5.7737   67.2281   84.9259 C   0  0  0  0  0  0  0  0  0  0  0  0
    4.9498   66.1109   85.1352 C   0  0  0  0  0  0  0  0  0  0  0  0
    5.4287   64.8206   86.1836 Cl  0  0  0  0  0  0  0  0  0  0  0  0
    3.7085   66.0079   84.4993 C   0  0  0  0  0  0  0  0  0  0  0  0
    6.9735   67.2455   85.5880 O   0  0  0  0  0  0  0  0  0  0  0  0
    8.1160   66.7546   84.9005 C   0  0  0  0  0  0  0  0  0  0  0  0
 24 25  1  0  0  0
 25  1  1  0  0  0
  1  2  1  0  0  0
  2  3  2  0  0  0
  3  4  1  0  0  0
  4  5  1  0  0  0
  5  6  2  0  0  0
  6 26  1  0  0  0
 26 28  1  0  0  0
 28 29  1  0  0  0
 29 30  1  0  0  0
 30 31  2  0  0  0
 31 32  1  0  0  0
 32 36  1  0  0  0
 36 37  1  0  0  0
 32 33  2  0  0  0
 33 34  1  0  0  0
 33 35  1  0  0  0
  6  7  1  0  0  0
  7  8  2  0  0  0
  8  9  1  0  0  0
  9 14  1  0  0  0
 14 15  1  0  0  0
 15 16  1  0  0  0
 16 17  1  0  0  0
 17 20  1  0  0  0
 20 21  2  0  0  0
 20 22  1  0  0  0
 17 18  1  0  0  0
 18 19  1  0  0  0
  9 10  2  0  0  0
 10 11  1  0  0  0
 11 12  2  0  0  0
 12 13  1  0  0  0
 13  1  1  0  0  0
 13  4  2  0  0  0
 10  5  1  0  0  0
 35 29  2  0  0  0
 19 14  1  0  0  0
 26 27  1  0  0  0
 22 23  1  0  0  0
M  END
> <minimizedAffinity>
-11.28456

$$$$



 37 41  0  0  0  0  0  0  0  0999 V2000
   -0.3622   63.0950   86.4659 N   0  0  0  0  0  0  0  0  0  0  0  0
    0.4439   64.1463   86.7297 N   0  0  0  0  0  0  0  0  0  0  0  0
    0.6762   64.6629   85.5184 C   0  0  0  0  0  0  0  0  0  0  0  0
    0.0009   63.9791   84.4759 C   0  0  0  0  0  0  0  0  0  0  0  0
   -0.1425   64.0726   83.0576 C   0  0  0  0  0  0  0  0  0  0  0  0
    0.4219   65.0959   82.2655 C   0  0  0  0  0  0  0  0  0  0  0  0
    0.2741   65.0630   80.9267 N   0  0  0  0  0  0  0  0  0  0  0  0
   -0.4468   64.0672   80.3107 N   0  0  0  0  0  0  0  0  0  0  0  0
   -1.0236   63.0775   81.0242 C   0  0  0  0  0  0  0  0  0  0  0  0
   -0.8992   63.0564   82.4256 C   0  0  0  0  0  0  0  0  0  0  0  0
   -1.5058   62.0871   83.2422 C   0  0  0  0  0  0  0  0  0  0  0  0
   -1.4249   61.9901   84.5913 N   0  0  0  0  0  0  0  0  0  0  0  0
   -0.6531   62.9472   85.1356 C   0  0  0  0  0  0  0  0  0  0  0  0
   -1.7327   62.0496   80.3482 N   0  0  0  0  0  0  0  0  0  0  0  0
   -2.6854   62.5853   79.3721 C   0  0  0  0  0  0  0  0  0  0  0  0
   -3.6405   61.4600   78.9619 C   0  0  0  0  0  0  0  0  0  0  0  0
   -2.9565   60.0822   78.9085 C   0  0  0  0  0  0  0  0  0  0  0  0
   -1.4470   60.2249   78.6864 C   0  0  0  0  0  0  0  0  0  0  0  0
   -0.7710   61.0939   79.7573 C   0  0  0  0  0  0  0  0  0  0  0  0
   -3.2362   59.2706   80.1592 C   0  0  0  0  0  0  0  0  0  0  0  0
   -3.3686   59.6888   81.2975 O   0  0  0  0  0  0  0  0  0  0  0  0
   -3.2594   57.9436   79.9220 O   0  0  0  0  0  0  0  0  0  0  0  0
   -3.4241   57.5492   80.8044 H   0  0  0  0  0  0  0  0  0  0  0  0
   -0.2548   62.6719   88.8882 C   0  0  0  0  0  0  0  0  0  0  0  0
   -0.8250   62.2487   87.5464 C   0  0  0  0  0  0  0  0  0  0  0  0
    1.1279   66.1581   82.8654 N   0  0  0  0  0  0  0  0  0  0  0  0
    0.4525   66.8243   83.2328 H   0  0  0  0  0  0  0  0  0  0  0  0
    2.0827   66.8233   81.9870 C   0  0  0  0  0  0  0  0  0  0  0  0
    1.6502   68.2612   81.8141 C   0  0  0  0  0  0  0  0  0  0  0  0
    0.4564   68.5813   81.1565 C   0  0  0  0  0  0  0  0  0  0  0  0
    0.0537   69.9152   81.0129 C   0  0  0  0  0  0  0  0  0  0  0  0
    0.8348   70.9548   81.5285 C   0  0  0  0  0  0  0  0  0  0  0  0
    2.0283   70.6326   82.1939 C   0  0  0  0  0  0  0  0  0  0  0  0
    3.0473   71.8600   82.8636 Cl  0  0  0  0  0  0  0  0  0  0  0  0
    2.4306   69.3010   82.3374 C   0  0  0  0  0  0  0  0  0  0  0  0
    0.5187   72.2849   81.4328 O   0  0  0  0  0  0  0  0  0  0  0  0
   -0.8407   72.6568   81.6133 C   0  0  0  0  0  0  0  0  0  0  0  0
 24 25  1  0  0  0
 25  1  1  0  0  0
  1  2  1  0  0  0
  2  3  2  0  0  0
  3  4  1  0  0  0
  4  5  1  0  0  0
  5  6  2  0  0  0
  6 26  1  0  0  0
 26 28  1  0  0  0
 28 29  1  0  0  0
 29 30  1  0  0  0
 30 31  2  0  0  0
 31 32  1  0  0  0
 32 36  1  0  0  0
 36 37  1  0  0  0
 32 33  2  0  0  0
 33 34  1  0  0  0
 33 35  1  0  0  0
  6  7  1  0  0  0
  7  8  2  0  0  0
  8  9  1  0  0  0
  9 14  1  0  0  0
 14 15  1  0  0  0
 15 16  1  0  0  0
 16 17  1  0  0  0
 17 20  1  0  0  0
 20 21  2  0  0  0
 20 22  1  0  0  0
 17 18  1  0  0  0
 18 19  1  0  0  0
  9 10  2  0  0  0
 10 11  1  0  0  0
 11 12  2  0  0  0
 12 13  1  0  0  0
 13  1  1  0  0  0
 13  4  2  0  0  0
 10  5  1  0  0  0
 35 29  2  0  0  0
 19 14  1  0  0  0
 26 27  1  0  0  0
 22 23  1  0  0  0
M  END
> <minimizedAffinity>
-10.97797

$$$$



 37 41  0  0  0  0  0  0  0  0999 V2000
   -0.7815   62.6229   86.1208 N   0  0  0  0  0  0  0  0  0  0  0  0
   -0.0391   63.6702   86.5414 N   0  0  0  0  0  0  0  0  0  0  0  0
    0.2409   64.3196   85.4066 C   0  0  0  0  0  0  0  0  0  0  0  0
   -0.3413   63.7243   84.2590 C   0  0  0  0  0  0  0  0  0  0  0  0
   -0.4052   63.9610   82.8515 C   0  0  0  0  0  0  0  0  0  0  0  0
    0.1593   65.0823   82.2058 C   0  0  0  0  0  0  0  0  0  0  0  0
    0.0919   65.1849   80.8640 N   0  0  0  0  0  0  0  0  0  0  0  0
   -0.5472   64.2330   80.1050 N   0  0  0  0  0  0  0  0  0  0  0  0
   -1.1209   63.1528   80.6753 C   0  0  0  0  0  0  0  0  0  0  0  0
   -1.0782   62.9892   82.0722 C   0  0  0  0  0  0  0  0  0  0  0  0
   -1.6885   61.9173   82.7452 C   0  0  0  0  0  0  0  0  0  0  0  0
   -1.6827   61.6821   84.0796 N   0  0  0  0  0  0  0  0  0  0  0  0
   -0.9869   62.6049   84.7668 C   0  0  0  0  0  0  0  0  0  0  0  0
   -1.7433   62.1758   79.8541 N   0  0  0  0  0  0  0  0  0  0  0  0
   -2.1791   62.7300   78.5695 C   0  0  0  0  0  0  0  0  0  0  0  0
   -3.1376   61.7314   77.9131 C   0  0  0  0  0  0  0  0  0  0  0  0
   -2.7621   60.2655   78.1946 C   0  0  0  0  0  0  0  0  0  0  0  0
   -1.2710   60.1322   78.5224 C   0  0  0  0  0  0  0  0  0  0  0  0
   -0.8455   61.0095   79.7092 C   0  0  0  0  0  0  0  0  0  0  0  0
   -3.6068   59.6762   79.3081 C   0  0  0  0  0  0  0  0  0  0  0  0
   -3.4613   58.5943   79.8528 O   0  0  0  0  0  0  0  0  0  0  0  0
   -4.6558   60.4582   79.6330 O   0  0  0  0  0  0  0  0  0  0  0  0
   -5.1176   59.9536   80.3353 H   0  0  0  0  0  0  0  0  0  0  0  0
   -2.7338   61.8654   87.4142 C   0  0  0  0  0  0  0  0  0  0  0  0
   -1.2692   61.6508   87.0775 C   0  0  0  0  0  0  0  0  0  0  0  0
    0.7815   66.1014   82.9549 N   0  0  0  0  0  0  0  0  0  0  0  0
    0.0616   66.7366   83.2911 H   0  0  0  0  0  0  0  0  0  0  0  0
    1.8199   66.8319   82.2380 C   0  0  0  0  0  0  0  0  0  0  0  0
    2.9714   67.0770   83.1859 C   0  0  0  0  0  0  0  0  0  0  0  0
    3.7243   68.2554   83.1171 C   0  0  0  0  0  0  0  0  0  0  0  0
    4.7806   68.4831   84.0082 C   0  0  0  0  0  0  0  0  0  0  0  0
    5.1016   67.5388   84.9891 C   0  0  0  0  0  0  0  0  0  0  0  0
    4.3418   66.3605   85.0621 C   0  0  0  0  0  0  0  0  0  0  0  0
    4.6723   65.1461   86.2492 Cl  0  0  0  0  0  0  0  0  0  0  0  0
    3.2871   66.1328   84.1724 C   0  0  0  0  0  0  0  0  0  0  0  0
    6.1168   67.6784   85.8991 O   0  0  0  0  0  0  0  0  0  0  0  0
    7.4072   67.2143   85.5274 C   0  0  0  0  0  0  0  0  0  0  0  0
 24 25  1  0  0  0
 25  1  1  0  0  0
  1  2  1  0  0  0
  2  3  2  0  0  0
  3  4  1  0  0  0
  4  5  1  0  0  0
  5  6  2  0  0  0
  6 26  1  0  0  0
 26 28  1  0  0  0
 28 29  1  0  0  0
 29 30  1  0  0  0
 30 31  2  0  0  0
 31 32  1  0  0  0
 32 36  1  0  0  0
 36 37  1  0  0  0
 32 33  2  0  0  0
 33 34  1  0  0  0
 33 35  1  0  0  0
  6  7  1  0  0  0
  7  8  2  0  0  0
  8  9  1  0  0  0
  9 14  1  0  0  0
 14 15  1  0  0  0
 15 16  1  0  0  0
 16 17  1  0  0  0
 17 20  1  0  0  0
 20 21  2  0  0  0
 20 22  1  0  0  0
 17 18  1  0  0  0
 18 19  1  0  0  0
  9 10  2  0  0  0
 10 11  1  0  0  0
 11 12  2  0  0  0
 12 13  1  0  0  0
 13  1  1  0  0  0
 13  4  2  0  0  0
 10  5  1  0  0  0
 35 29  2  0  0  0
 19 14  1  0  0  0
 26 27  1  0  0  0
 22 23  1  0  0  0
M  END
> <minimizedAffinity>
-10.63113

$$$$



 37 41  0  0  0  0  0  0  0  0999 V2000
   -0.2025   63.4927   84.2214 N   0  0  0  0  0  0  0  0  0  0  0  0
    0.3639   64.6909   84.4832 N   0  0  0  0  0  0  0  0  0  0  0  0
    0.4803   65.2435   83.2712 C   0  0  0  0  0  0  0  0  0  0  0  0
   -0.0367   64.4314   82.2302 C   0  0  0  0  0  0  0  0  0  0  0  0
   -0.1984   64.4911   80.8120 C   0  0  0  0  0  0  0  0  0  0  0  0
    0.1363   65.6096   80.0183 C   0  0  0  0  0  0  0  0  0  0  0  0
   -0.0029   65.5448   78.6797 N   0  0  0  0  0  0  0  0  0  0  0  0
   -0.4981   64.4186   78.0656 N   0  0  0  0  0  0  0  0  0  0  0  0
   -0.8521   63.3302   78.7807 C   0  0  0  0  0  0  0  0  0  0  0  0
   -0.7243   63.3374   80.1819 C   0  0  0  0  0  0  0  0  0  0  0  0
   -1.1115   62.2628   81.0001 C   0  0  0  0  0  0  0  0  0  0  0  0
   -1.0103   62.1864   82.3492 N   0  0  0  0  0  0  0  0  0  0  0  0
   -0.4572   63.2855   82.8917 C   0  0  0  0  0  0  0  0  0  0  0  0
   -1.3290   62.1751   78.1065 N   0  0  0  0  0  0  0  0  0  0  0  0
   -2.4066   62.4903   77.1647 C   0  0  0  0  0  0  0  0  0  0  0  0
   -3.0931   61.1817   76.7610 C   0  0  0  0  0  0  0  0  0  0  0  0
   -2.1164   59.9959   76.6669 C   0  0  0  0  0  0  0  0  0  0  0  0
   -0.6857   60.4801   76.4077 C   0  0  0  0  0  0  0  0  0  0  0  0
   -0.1934   61.4690   77.4749 C   0  0  0  0  0  0  0  0  0  0  0  0
   -2.1680   59.1293   77.9108 C   0  0  0  0  0  0  0  0  0  0  0  0
   -2.8446   59.3096   78.9098 O   0  0  0  0  0  0  0  0  0  0  0  0
   -1.2937   58.1040   77.8653 O   0  0  0  0  0  0  0  0  0  0  0  0
   -1.4170   57.6506   78.7258 H   0  0  0  0  0  0  0  0  0  0  0  0
   -0.4972   63.2614   86.6540 C   0  0  0  0  0  0  0  0  0  0  0  0
   -0.4748   62.5690   85.3033 C   0  0  0  0  0  0  0  0  0  0  0  0
    0.6029   66.7976   80.6164 N   0  0  0  0  0  0  0  0  0  0  0  0
    0.7929   66.6086   81.5978 H   0  0  0  0  0  0  0  0  0  0  0  0
   -0.2930   67.9391   80.4751 C   0  0  0  0  0  0  0  0  0  0  0  0
    0.3262   69.1219   81.1836 C   0  0  0  0  0  0  0  0  0  0  0  0
   -0.2479   70.3959   81.0977 C   0  0  0  0  0  0  0  0  0  0  0  0
    0.3224   71.4849   81.7690 C   0  0  0  0  0  0  0  0  0  0  0  0
    1.4756   71.3201   82.5434 C   0  0  0  0  0  0  0  0  0  0  0  0
    2.0468   70.0409   82.6348 C   0  0  0  0  0  0  0  0  0  0  0  0
    3.4699   69.7536   83.5759 Cl  0  0  0  0  0  0  0  0  0  0  0  0
    1.4777   68.9535   81.9646 C   0  0  0  0  0  0  0  0  0  0  0  0
    2.0999   72.3277   83.2313 O   0  0  0  0  0  0  0  0  0  0  0  0
    3.0791   73.0921   82.5415 C   0  0  0  0  0  0  0  0  0  0  0  0
 24 25  1  0  0  0
 25  1  1  0  0  0
  1  2  1  0  0  0
  2  3  2  0  0  0
  3  4  1  0  0  0
  4  5  1  0  0  0
  5  6  2  0  0  0
  6 26  1  0  0  0
 26 28  1  0  0  0
 28 29  1  0  0  0
 29 30  1  0  0  0
 30 31  2  0  0  0
 31 32  1  0  0  0
 32 36  1  0  0  0
 36 37  1  0  0  0
 32 33  2  0  0  0
 33 34  1  0  0  0
 33 35  1  0  0  0
  6  7  1  0  0  0
  7  8  2  0  0  0
  8  9  1  0  0  0
  9 14  1  0  0  0
 14 15  1  0  0  0
 15 16  1  0  0  0
 16 17  1  0  0  0
 17 20  1  0  0  0
 20 21  2  0  0  0
 20 22  1  0  0  0
 17 18  1  0  0  0
 18 19  1  0  0  0
  9 10  2  0  0  0
 10 11  1  0  0  0
 11 12  2  0  0  0
 12 13  1  0  0  0
 13  1  1  0  0  0
 13  4  2  0  0  0
 10  5  1  0  0  0
 35 29  2  0  0  0
 19 14  1  0  0  0
 26 27  1  0  0  0
 22 23  1  0  0  0
M  END
> <minimizedAffinity>
-10.43449

$$$$



 37 41  0  0  0  0  0  0  0  0999 V2000
    5.0464   66.7753   85.4108 N   0  0  0  0  0  0  0  0  0  0  0  0
    4.7082   65.4807   85.5966 N   0  0  0  0  0  0  0  0  0  0  0  0
    3.6117   65.3419   84.8440 C   0  0  0  0  0  0  0  0  0  0  0  0
    3.2558   66.5228   84.1446 C   0  0  0  0  0  0  0  0  0  0  0  0
    2.2501   66.9562   83.2271 C   0  0  0  0  0  0  0  0  0  0  0  0
    1.2518   66.1181   82.6848 C   0  0  0  0  0  0  0  0  0  0  0  0
    0.3138   66.6377   81.8690 N   0  0  0  0  0  0  0  0  0  0  0  0
    0.3246   67.9683   81.5223 N   0  0  0  0  0  0  0  0  0  0  0  0
    1.2693   68.8072   81.9970 C   0  0  0  0  0  0  0  0  0  0  0  0
    2.2719   68.3227   82.8571 C   0  0  0  0  0  0  0  0  0  0  0  0
    3.3144   69.1207   83.3578 C   0  0  0  0  0  0  0  0  0  0  0  0
    4.3065   68.7353   84.1965 N   0  0  0  0  0  0  0  0  0  0  0  0
    4.2091   67.4437   84.5575 C   0  0  0  0  0  0  0  0  0  0  0  0
    1.2271   70.1812   81.6412 N   0  0  0  0  0  0  0  0  0  0  0  0
    2.1652   70.5017   80.5619 C   0  0  0  0  0  0  0  0  0  0  0  0
    2.3171   72.0243   80.4905 C   0  0  0  0  0  0  0  0  0  0  0  0
    1.0133   72.7734   80.8192 C   0  0  0  0  0  0  0  0  0  0  0  0
   -0.2109   71.8907   80.5539 C   0  0  0  0  0  0  0  0  0  0  0  0
   -0.1667   70.5681   81.3335 C   0  0  0  0  0  0  0  0  0  0  0  0
    1.0049   73.2796   82.2491 C   0  0  0  0  0  0  0  0  0  0  0  0
    1.7878   72.9924   83.1395 O   0  0  0  0  0  0  0  0  0  0  0  0
   -0.0512   74.0755   82.5115 O   0  0  0  0  0  0  0  0  0  0  0  0
    0.0567   74.3061   83.4582 H   0  0  0  0  0  0  0  0  0  0  0  0
    7.4844   67.1013   85.3212 C   0  0  0  0  0  0  0  0  0  0  0  0
    6.1977   67.3278   86.0943 C   0  0  0  0  0  0  0  0  0  0  0  0
    1.2363   64.7400   82.9803 N   0  0  0  0  0  0  0  0  0  0  0  0
    1.7165   64.2466   82.2314 H   0  0  0  0  0  0  0  0  0  0  0  0
   -0.0933   64.1818   83.1959 C   0  0  0  0  0  0  0  0  0  0  0  0
   -0.2552   63.8913   84.6703 C   0  0  0  0  0  0  0  0  0  0  0  0
    0.6155   64.4476   85.6151 C   0  0  0  0  0  0  0  0  0  0  0  0
    0.4509   64.1865   86.9814 C   0  0  0  0  0  0  0  0  0  0  0  0
   -0.5908   63.3678   87.4299 C   0  0  0  0  0  0  0  0  0  0  0  0
   -1.4677   62.8159   86.4826 C   0  0  0  0  0  0  0  0  0  0  0  0
   -2.7833   61.7972   86.9569 Cl  0  0  0  0  0  0  0  0  0  0  0  0
   -1.3036   63.0763   85.1185 C   0  0  0  0  0  0  0  0  0  0  0  0
   -0.8250   63.0587   88.7444 O   0  0  0  0  0  0  0  0  0  0  0  0
    0.1589   62.2973   89.4307 C   0  0  0  0  0  0  0  0  0  0  0  0
 24 25  1  0  0  0
 25  1  1  0  0  0
  1  2  1  0  0  0
  2  3  2  0  0  0
  3  4  1  0  0  0
  4  5  1  0  0  0
  5  6  2  0  0  0
  6 26  1  0  0  0
 26 28  1  0  0  0
 28 29  1  0  0  0
 29 30  1  0  0  0
 30 31  2  0  0  0
 31 32  1  0  0  0
 32 36  1  0  0  0
 36 37  1  0  0  0
 32 33  2  0  0  0
 33 34  1  0  0  0
 33 35  1  0  0  0
  6  7  1  0  0  0
  7  8  2  0  0  0
  8  9  1  0  0  0
  9 14  1  0  0  0
 14 15  1  0  0  0
 15 16  1  0  0  0
 16 17  1  0  0  0
 17 20  1  0  0  0
 20 21  2  0  0  0
 20 22  1  0  0  0
 17 18  1  0  0  0
 18 19  1  0  0  0
  9 10  2  0  0  0
 10 11  1  0  0  0
 11 12  2  0  0  0
 12 13  1  0  0  0
 13  1  1  0  0  0
 13  4  2  0  0  0
 10  5  1  0  0  0
 35 29  2  0  0  0
 19 14  1  0  0  0
 26 27  1  0  0  0
 22 23  1  0  0  0
M  END
> <minimizedAffinity>
-10.06929

$$$$



 37 41  0  0  0  0  0  0  0  0999 V2000
   -0.3634   63.3850   85.2941 N   0  0  0  0  0  0  0  0  0  0  0  0
    0.2853   64.3231   86.0179 N   0  0  0  0  0  0  0  0  0  0  0  0
    0.7329   65.1708   85.0856 C   0  0  0  0  0  0  0  0  0  0  0  0
    0.3512   64.8113   83.7682 C   0  0  0  0  0  0  0  0  0  0  0  0
    0.5095   65.3101   82.4388 C   0  0  0  0  0  0  0  0  0  0  0  0
    1.1520   66.5248   82.1149 C   0  0  0  0  0  0  0  0  0  0  0  0
    1.2985   66.8796   80.8234 N   0  0  0  0  0  0  0  0  0  0  0  0
    0.8042   66.0975   79.8062 N   0  0  0  0  0  0  0  0  0  0  0  0
    0.1641   64.9376   80.0633 C   0  0  0  0  0  0  0  0  0  0  0  0
   -0.0146   64.5128   81.3928 C   0  0  0  0  0  0  0  0  0  0  0  0
   -0.7075   63.3423   81.7451 C   0  0  0  0  0  0  0  0  0  0  0  0
   -0.9115   62.8595   82.9947 N   0  0  0  0  0  0  0  0  0  0  0  0
   -0.3494   63.6259   83.9459 C   0  0  0  0  0  0  0  0  0  0  0  0
   -0.3033   64.1423   78.9838 N   0  0  0  0  0  0  0  0  0  0  0  0
   -0.4894   64.9263   77.7598 C   0  0  0  0  0  0  0  0  0  0  0  0
   -1.3177   64.0950   76.7752 C   0  0  0  0  0  0  0  0  0  0  0  0
   -1.0125   62.5886   76.8568 C   0  0  0  0  0  0  0  0  0  0  0  0
    0.3910   62.3408   77.4201 C   0  0  0  0  0  0  0  0  0  0  0  0
    0.5965   62.9830   78.8001 C   0  0  0  0  0  0  0  0  0  0  0  0
   -2.0533   61.8511   77.6775 C   0  0  0  0  0  0  0  0  0  0  0  0
   -1.9067   60.8072   78.2915 O   0  0  0  0  0  0  0  0  0  0  0  0
   -3.2676   62.4341   77.6203 O   0  0  0  0  0  0  0  0  0  0  0  0
   -3.8354   61.8506   78.1665 H   0  0  0  0  0  0  0  0  0  0  0  0
   -2.3919   62.5724   86.4268 C   0  0  0  0  0  0  0  0  0  0  0  0
   -0.9823   62.2572   85.9597 C   0  0  0  0  0  0  0  0  0  0  0  0
    1.6301   67.3750   83.1325 N   0  0  0  0  0  0  0  0  0  0  0  0
    0.9846   68.1556   83.2270 H   0  0  0  0  0  0  0  0  0  0  0  0
    2.9924   67.8539   82.9312 C   0  0  0  0  0  0  0  0  0  0  0  0
    2.9283   69.2830   82.4434 C   0  0  0  0  0  0  0  0  0  0  0  0
    1.9843   70.1795   82.9586 C   0  0  0  0  0  0  0  0  0  0  0  0
    1.9400   71.5067   82.5132 C   0  0  0  0  0  0  0  0  0  0  0  0
    2.8421   71.9647   81.5472 C   0  0  0  0  0  0  0  0  0  0  0  0
    3.7929   71.0671   81.0361 C   0  0  0  0  0  0  0  0  0  0  0  0
    4.9460   71.5570   79.8429 Cl  0  0  0  0  0  0  0  0  0  0  0  0
    3.8374   69.7419   81.4805 C   0  0  0  0  0  0  0  0  0  0  0  0
    2.8697   73.2432   81.0542 O   0  0  0  0  0  0  0  0  0  0  0  0
    1.7076   73.7222   80.3917 C   0  0  0  0  0  0  0  0  0  0  0  0
 24 25  1  0  0  0
 25  1  1  0  0  0
  1  2  1  0  0  0
  2  3  2  0  0  0
  3  4  1  0  0  0
  4  5  1  0  0  0
  5  6  2  0  0  0
  6 26  1  0  0  0
 26 28  1  0  0  0
 28 29  1  0  0  0
 29 30  1  0  0  0
 30 31  2  0  0  0
 31 32  1  0  0  0
 32 36  1  0  0  0
 36 37  1  0  0  0
 32 33  2  0  0  0
 33 34  1  0  0  0
 33 35  1  0  0  0
  6  7  1  0  0  0
  7  8  2  0  0  0
  8  9  1  0  0  0
  9 14  1  0  0  0
 14 15  1  0  0  0
 15 16  1  0  0  0
 16 17  1  0  0  0
 17 20  1  0  0  0
 20 21  2  0  0  0
 20 22  1  0  0  0
 17 18  1  0  0  0
 18 19  1  0  0  0
  9 10  2  0  0  0
 10 11  1  0  0  0
 11 12  2  0  0  0
 12 13  1  0  0  0
 13  1  1  0  0  0
 13  4  2  0  0  0
 10  5  1  0  0  0
 35 29  2  0  0  0
 19 14  1  0  0  0
 26 27  1  0  0  0
 22 23  1  0  0  0
M  END
> <minimizedAffinity>
-9.59397

$$$$



 37 41  0  0  0  0  0  0  0  0999 V2000
    0.1392   66.2098   80.9631 N   0  0  0  0  0  0  0  0  0  0  0  0
   -0.9835   65.4848   81.1600 N   0  0  0  0  0  0  0  0  0  0  0  0
   -0.7817   64.9320   82.3608 C   0  0  0  0  0  0  0  0  0  0  0  0
    0.4438   65.3188   82.9598 C   0  0  0  0  0  0  0  0  0  0  0  0
    1.1593   65.0805   84.1732 C   0  0  0  0  0  0  0  0  0  0  0  0
    0.6683   64.3098   85.2494 C   0  0  0  0  0  0  0  0  0  0  0  0
    1.4455   64.0988   86.3295 N   0  0  0  0  0  0  0  0  0  0  0  0
    2.7027   64.6476   86.4245 N   0  0  0  0  0  0  0  0  0  0  0  0
    3.2105   65.4089   85.4325 C   0  0  0  0  0  0  0  0  0  0  0  0
    2.4469   65.6598   84.2776 C   0  0  0  0  0  0  0  0  0  0  0  0
    2.8856   66.4767   83.2219 C   0  0  0  0  0  0  0  0  0  0  0  0
    2.2192   66.7571   82.0758 N   0  0  0  0  0  0  0  0  0  0  0  0
    1.0262   66.1410   82.0045 C   0  0  0  0  0  0  0  0  0  0  0  0
    4.5253   65.9309   85.5545 N   0  0  0  0  0  0  0  0  0  0  0  0
    4.5271   67.3227   86.0130 C   0  0  0  0  0  0  0  0  0  0  0  0
    5.9225   67.9079   85.7743 C   0  0  0  0  0  0  0  0  0  0  0  0
    7.0480   66.8782   85.9786 C   0  0  0  0  0  0  0  0  0  0  0  0
    6.5984   65.7487   86.9117 C   0  0  0  0  0  0  0  0  0  0  0  0
    5.3334   65.0360   86.4110 C   0  0  0  0  0  0  0  0  0  0  0  0
    7.5366   66.3147   84.6577 C   0  0  0  0  0  0  0  0  0  0  0  0
    8.2378   65.3310   84.4879 O   0  0  0  0  0  0  0  0  0  0  0  0
    7.1753   67.0745   83.6043 O   0  0  0  0  0  0  0  0  0  0  0  0
    7.5697   66.6131   82.8344 H   0  0  0  0  0  0  0  0  0  0  0  0
   -0.2118   68.3758   79.8479 C   0  0  0  0  0  0  0  0  0  0  0  0
    0.3127   66.9558   79.7337 C   0  0  0  0  0  0  0  0  0  0  0  0
   -0.6332   63.7701   85.2079 N   0  0  0  0  0  0  0  0  0  0  0  0
   -1.1534   64.1272   86.0058 H   0  0  0  0  0  0  0  0  0  0  0  0
   -0.6838   62.3135   85.1694 C   0  0  0  0  0  0  0  0  0  0  0  0
   -0.7993   61.8783   83.7265 C   0  0  0  0  0  0  0  0  0  0  0  0
    0.3419   61.6521   82.9476 C   0  0  0  0  0  0  0  0  0  0  0  0
    0.2281   61.2344   81.6155 C   0  0  0  0  0  0  0  0  0  0  0  0
   -1.0294   61.0300   81.0377 C   0  0  0  0  0  0  0  0  0  0  0  0
   -2.1731   61.2503   81.8215 C   0  0  0  0  0  0  0  0  0  0  0  0
   -3.7636   61.0153   81.1823 Cl  0  0  0  0  0  0  0  0  0  0  0  0
   -2.0599   61.6674   83.1514 C   0  0  0  0  0  0  0  0  0  0  0  0
   -1.2334   60.6240   79.7447 O   0  0  0  0  0  0  0  0  0  0  0  0
   -0.5184   61.2984   78.7187 C   0  0  0  0  0  0  0  0  0  0  0  0
 24 25  1  0  0  0
 25  1  1  0  0  0
  1  2  1  0  0  0
  2  3  2  0  0  0
  3  4  1  0  0  0
  4  5  1  0  0  0
  5  6  2  0  0  0
  6 26  1  0  0  0
 26 28  1  0  0  0
 28 29  1  0  0  0
 29 30  1  0  0  0
 30 31  2  0  0  0
 31 32  1  0  0  0
 32 36  1  0  0  0
 36 37  1  0  0  0
 32 33  2  0  0  0
 33 34  1  0  0  0
 33 35  1  0  0  0
  6  7  1  0  0  0
  7  8  2  0  0  0
  8  9  1  0  0  0
  9 14  1  0  0  0
 14 15  1  0  0  0
 15 16  1  0  0  0
 16 17  1  0  0  0
 17 20  1  0  0  0
 20 21  2  0  0  0
 20 22  1  0  0  0
 17 18  1  0  0  0
 18 19  1  0  0  0
  9 10  2  0  0  0
 10 11  1  0  0  0
 11 12  2  0  0  0
 12 13  1  0  0  0
 13  1  1  0  0  0
 13  4  2  0  0  0
 10  5  1  0  0  0
 35 29  2  0  0  0
 19 14  1  0  0  0
 26 27  1  0  0  0
 22 23  1  0  0  0
M  END
> <minimizedAffinity>
-9.49163

$$$$



 37 41  0  0  0  0  0  0  0  0999 V2000
   -1.3180   62.9178   85.2400 N   0  0  0  0  0  0  0  0  0  0  0  0
   -2.1670   63.0230   84.1945 N   0  0  0  0  0  0  0  0  0  0  0  0
   -1.5183   63.8391   83.3571 C   0  0  0  0  0  0  0  0  0  0  0  0
   -0.2429   64.2357   83.8327 C   0  0  0  0  0  0  0  0  0  0  0  0
    0.8548   65.0396   83.3968 C   0  0  0  0  0  0  0  0  0  0  0  0
    0.9264   65.6752   82.1382 C   0  0  0  0  0  0  0  0  0  0  0  0
    1.9825   66.4584   81.8443 N   0  0  0  0  0  0  0  0  0  0  0  0
    3.0166   66.6288   82.7345 N   0  0  0  0  0  0  0  0  0  0  0  0
    3.0062   66.0269   83.9423 C   0  0  0  0  0  0  0  0  0  0  0  0
    1.9271   65.2009   84.3071 C   0  0  0  0  0  0  0  0  0  0  0  0
    1.8624   64.5048   85.5259 C   0  0  0  0  0  0  0  0  0  0  0  0
    0.8579   63.7034   85.9557 N   0  0  0  0  0  0  0  0  0  0  0  0
   -0.1572   63.6264   85.0773 C   0  0  0  0  0  0  0  0  0  0  0  0
    4.0776   66.2538   84.8462 N   0  0  0  0  0  0  0  0  0  0  0  0
    5.3667   66.3658   84.1583 C   0  0  0  0  0  0  0  0  0  0  0  0
    6.4824   66.2474   85.2013 C   0  0  0  0  0  0  0  0  0  0  0  0
    6.1105   66.8835   86.5526 C   0  0  0  0  0  0  0  0  0  0  0  0
    5.0349   67.9608   86.3767 C   0  0  0  0  0  0  0  0  0  0  0  0
    3.7676   67.4254   85.6938 C   0  0  0  0  0  0  0  0  0  0  0  0
    5.6593   65.8397   87.5564 C   0  0  0  0  0  0  0  0  0  0  0  0
    5.4095   66.0101   88.7383 O   0  0  0  0  0  0  0  0  0  0  0  0
    5.6184   64.5986   87.0314 O   0  0  0  0  0  0  0  0  0  0  0  0
    5.3385   64.0339   87.7824 H   0  0  0  0  0  0  0  0  0  0  0  0
   -2.7081   62.8088   87.2683 C   0  0  0  0  0  0  0  0  0  0  0  0
   -1.6819   62.1159   86.3900 C   0  0  0  0  0  0  0  0  0  0  0  0
   -0.0921   65.4865   81.1823 N   0  0  0  0  0  0  0  0  0  0  0  0
   -0.8056   64.8862   81.5890 H   0  0  0  0  0  0  0  0  0  0  0  0
    0.3667   64.9506   79.9063 C   0  0  0  0  0  0  0  0  0  0  0  0
   -0.2753   63.5980   79.6987 C   0  0  0  0  0  0  0  0  0  0  0  0
    0.1187   62.4885   80.4563 C   0  0  0  0  0  0  0  0  0  0  0  0
   -0.4907   61.2413   80.2694 C   0  0  0  0  0  0  0  0  0  0  0  0
   -1.5096   61.0804   79.3246 C   0  0  0  0  0  0  0  0  0  0  0  0
   -1.9090   62.1950   78.5702 C   0  0  0  0  0  0  0  0  0  0  0  0
   -3.1646   62.0795   77.3855 Cl  0  0  0  0  0  0  0  0  0  0  0  0
   -1.3007   63.4404   78.7564 C   0  0  0  0  0  0  0  0  0  0  0  0
   -2.1586   59.8993   79.0755 O   0  0  0  0  0  0  0  0  0  0  0  0
   -3.2347   59.5420   79.9318 C   0  0  0  0  0  0  0  0  0  0  0  0
 24 25  1  0  0  0
 25  1  1  0  0  0
  1  2  1  0  0  0
  2  3  2  0  0  0
  3  4  1  0  0  0
  4  5  1  0  0  0
  5  6  2  0  0  0
  6 26  1  0  0  0
 26 28  1  0  0  0
 28 29  1  0  0  0
 29 30  1  0  0  0
 30 31  2  0  0  0
 31 32  1  0  0  0
 32 36  1  0  0  0
 36 37  1  0  0  0
 32 33  2  0  0  0
 33 34  1  0  0  0
 33 35  1  0  0  0
  6  7  1  0  0  0
  7  8  2  0  0  0
  8  9  1  0  0  0
  9 14  1  0  0  0
 14 15  1  0  0  0
 15 16  1  0  0  0
 16 17  1  0  0  0
 17 20  1  0  0  0
 20 21  2  0  0  0
 20 22  1  0  0  0
 17 18  1  0  0  0
 18 19  1  0  0  0
  9 10  2  0  0  0
 10 11  1  0  0  0
 11 12  2  0  0  0
 12 13  1  0  0  0
 13  1  1  0  0  0
 13  4  2  0  0  0
 10  5  1  0  0  0
 35 29  2  0  0  0
 19 14  1  0  0  0
 26 27  1  0  0  0
 22 23  1  0  0  0
M  END
> <minimizedAffinity>
-9.31399

$$$$
