
     RDKit          3D

 24 26  0  0  0  0  0  0  0  0999 V2000
    1.2102   66.3139   84.8961 N   0  0  0  0  0  0  0  0  0  0  0  0
    1.7507   65.9855   85.6918 H   0  0  0  0  0  0  0  0  0  0  0  0
    0.5506   65.1981   84.3299 C   0  0  0  0  0  0  0  0  0  0  0  0
    0.3672   65.1246   82.9929 N   0  0  0  0  0  0  0  0  0  0  0  0
   -0.2388   64.0451   82.4201 N   0  0  0  0  0  0  0  0  0  0  0  0
   -0.6690   63.0396   83.2032 C   0  0  0  0  0  0  0  0  0  0  0  0
   -1.4024   61.7617   82.3120 Cl  0  0  0  0  0  0  0  0  0  0  0  0
   -0.5293   63.0323   84.5954 C   0  0  0  0  0  0  0  0  0  0  0  0
   -0.9785   61.9818   85.4369 C   0  0  0  0  0  0  0  0  0  0  0  0
   -0.8185   62.0414   86.8218 C   0  0  0  0  0  0  0  0  0  0  0  0
   -0.2134   63.1514   87.3915 C   0  0  0  0  0  0  0  0  0  0  0  0
   -0.0204   63.2401   89.0981 Cl  0  0  0  0  0  0  0  0  0  0  0  0
    0.2384   64.1962   86.5873 C   0  0  0  0  0  0  0  0  0  0  0  0
    0.1004   64.1573   85.1775 C   0  0  0  0  0  0  0  0  0  0  0  0
    2.0409   67.0947   83.9830 C   0  0  0  0  0  0  0  0  0  0  0  0
    6.2039   67.0269   85.2119 C   0  0  0  0  0  0  0  0  0  0  0  0
    5.7513   67.9650   84.2793 C   0  0  0  0  0  0  0  0  0  0  0  0
    4.4081   67.9841   83.8846 C   0  0  0  0  0  0  0  0  0  0  0  0
    3.4886   67.0692   84.4151 C   0  0  0  0  0  0  0  0  0  0  0  0
    3.9422   66.1254   85.3445 C   0  0  0  0  0  0  0  0  0  0  0  0
    5.2843   66.1061   85.7394 C   0  0  0  0  0  0  0  0  0  0  0  0
    5.7679   64.9134   86.8965 Cl  0  0  0  0  0  0  0  0  0  0  0  0
    8.4389   66.2766   84.8250 C   0  0  0  0  0  0  0  0  0  0  0  0
    7.4968   66.9372   85.6585 O   0  0  0  0  0  0  0  0  0  0  0  0
 23 24  1  0
 24 16  1  0
 16 17  1  0
 17 18  2  0
 18 19  1  0
 19 15  1  0
 15  1  1  0
  1  3  1  0
  3  4  1  0
  4  5  2  0
  5  6  1  0
  6  7  1  0
  6  8  2  0
  8  9  1  0
  9 10  2  0
 10 11  1  0
 11 12  1  0
 11 13  2  0
 13 14  1  0
 19 20  2  0
 20 21  1  0
 21 22  1  0
 21 16  2  0
 14  3  2  0
 14  8  1  0
  1  2  1  0
M  END
>  <minimizedAffinity>  (1) 
-8.94012

$$$$
