
     RDKit          3D

 75 77  0  0  0  0  0  0  0  0999 V2000
   -2.0457    0.4871   -6.0485 C   0  0  0  0  0  0  0  0  0  0  0  0
   -1.8051   -0.0640   -4.6550 C   0  0  0  0  0  0  0  0  0  0  0  0
   -0.3704    0.1661   -4.1898 C   0  0  0  0  0  0  0  0  0  0  0  0
   -0.2539   -0.3827   -2.8747 O   0  0  0  0  0  0  0  0  0  0  0  0
    0.9306   -0.1953   -2.2024 C   0  0  0  0  0  0  0  0  0  0  0  0
    2.0845    0.3362   -2.7973 C   0  0  0  0  0  0  0  0  0  0  0  0
    3.2565    0.5061   -2.0550 C   0  0  0  0  0  0  0  0  0  0  0  0
    3.2820    0.1426   -0.7093 C   0  0  0  0  0  0  0  0  0  0  0  0
    4.7860    0.3222    0.2312 S   0  0  0  0  0  0  0  0  0  0  0  0
    5.8684    0.4531   -0.7225 O   0  0  0  0  0  0  0  0  0  0  0  0
    4.8003   -0.7191    1.2349 O   0  0  0  0  0  0  0  0  0  0  0  0
    4.5837    1.8238    1.0063 N   0  0  0  0  0  0  0  0  0  0  0  0
    4.5496    3.0309    0.1507 C   0  0  0  0  0  0  0  0  0  0  0  0
    5.2868    4.1750    0.8281 C   0  0  0  0  0  0  0  0  0  0  0  0
    3.6686    1.8589    2.1829 C   0  0  0  0  0  0  0  0  0  0  0  0
    4.4840    1.7320    3.4877 C   0  0  0  0  0  0  0  0  0  0  0  0
    3.7291    1.6865    4.7528 N   0  0  0  0  0  0  0  0  0  0  0  0
    2.9188    2.8778    4.9796 C   0  0  0  0  0  0  0  0  0  0  0  0
    2.9240    0.4714    4.8731 C   0  0  0  0  0  0  0  0  0  0  0  0
    2.1541   -0.4226   -0.1138 C   0  0  0  0  0  0  0  0  0  0  0  0
    0.9616   -0.5806   -0.8414 C   0  0  0  0  0  0  0  0  0  0  0  0
   -0.2015   -1.1245   -0.1239 C   0  0  0  0  0  0  0  0  0  0  0  0
   -0.3134   -1.2545    1.1911 N   0  0  0  0  0  0  0  0  0  0  0  0
   -1.5617   -1.7861    1.4103 C   0  0  0  0  0  0  0  0  0  0  0  0
   -2.2069   -2.1186    2.6582 C   0  0  0  0  0  0  0  0  0  0  0  0
   -1.6717   -1.9626    3.7535 O   0  0  0  0  0  0  0  0  0  0  0  0
   -3.5077   -2.6305    2.4887 N   0  0  0  0  0  0  0  0  0  0  0  0
   -4.2006   -2.9829    3.7124 C   0  0  0  0  0  0  0  0  0  0  0  0
   -4.1740   -2.8454    1.2643 C   0  0  0  0  0  0  0  0  0  0  0  0
   -5.3152   -3.3126    1.2199 O   0  0  0  0  0  0  0  0  0  0  0  0
   -3.4843   -2.4998    0.0845 N   0  0  0  0  0  0  0  0  0  0  0  0
   -4.1402   -2.6837   -1.2117 C   0  0  0  0  0  0  0  0  0  0  0  0
   -4.6891   -1.3730   -1.8076 C   0  0  0  0  0  0  0  0  0  0  0  0
   -5.1913   -1.6208   -3.2313 C   0  0  0  0  0  0  0  0  0  0  0  0
   -5.8126   -0.7784   -0.9569 C   0  0  0  0  0  0  0  0  0  0  0  0
   -2.2137   -1.9865    0.2285 C   0  0  0  0  0  0  0  0  0  0  0  0
   -1.3519   -1.5755   -0.7405 N   0  0  0  0  0  0  0  0  0  0  0  0
   -1.8639    1.5660   -6.0802 H   0  0  0  0  0  0  0  0  0  0  0  0
   -1.3881    0.0060   -6.7796 H   0  0  0  0  0  0  0  0  0  0  0  0
   -3.0816    0.3082   -6.3532 H   0  0  0  0  0  0  0  0  0  0  0  0
   -2.0288   -1.1374   -4.6358 H   0  0  0  0  0  0  0  0  0  0  0  0
   -2.5002    0.4014   -3.9457 H   0  0  0  0  0  0  0  0  0  0  0  0
    0.3205   -0.3447   -4.8705 H   0  0  0  0  0  0  0  0  0  0  0  0
   -0.1596    1.2422   -4.1718 H   0  0  0  0  0  0  0  0  0  0  0  0
    2.1109    0.6244   -3.8438 H   0  0  0  0  0  0  0  0  0  0  0  0
    4.1443    0.9108   -2.5377 H   0  0  0  0  0  0  0  0  0  0  0  0
    3.5130    3.3147   -0.0620 H   0  0  0  0  0  0  0  0  0  0  0  0
    5.0371    2.8421   -0.8109 H   0  0  0  0  0  0  0  0  0  0  0  0
    4.7970    4.4745    1.7599 H   0  0  0  0  0  0  0  0  0  0  0  0
    6.3168    3.8903    1.0672 H   0  0  0  0  0  0  0  0  0  0  0  0
    5.3166    5.0487    0.1696 H   0  0  0  0  0  0  0  0  0  0  0  0
    3.0983    2.7944    2.1838 H   0  0  0  0  0  0  0  0  0  0  0  0
    2.9283    1.0601    2.1163 H   0  0  0  0  0  0  0  0  0  0  0  0
    5.1890    2.5723    3.5417 H   0  0  0  0  0  0  0  0  0  0  0  0
    5.1240    0.8420    3.4351 H   0  0  0  0  0  0  0  0  0  0  0  0
    3.5311    3.7830    4.9035 H   0  0  0  0  0  0  0  0  0  0  0  0
    2.0860    2.9619    4.2734 H   0  0  0  0  0  0  0  0  0  0  0  0
    2.5022    2.8668    5.9931 H   0  0  0  0  0  0  0  0  0  0  0  0
    2.4994    0.3966    5.8806 H   0  0  0  0  0  0  0  0  0  0  0  0
    3.5431   -0.4209    4.7283 H   0  0  0  0  0  0  0  0  0  0  0  0
    2.0974    0.4403    4.1553 H   0  0  0  0  0  0  0  0  0  0  0  0
    2.1923   -0.7489    0.9258 H   0  0  0  0  0  0  0  0  0  0  0  0
   -5.2464   -3.2514    3.5458 H   0  0  0  0  0  0  0  0  0  0  0  0
   -3.6845   -3.8320    4.1727 H   0  0  0  0  0  0  0  0  0  0  0  0
   -4.1628   -2.1384    4.4085 H   0  0  0  0  0  0  0  0  0  0  0  0
   -4.9491   -3.4180   -1.1193 H   0  0  0  0  0  0  0  0  0  0  0  0
   -3.4029   -3.1277   -1.8926 H   0  0  0  0  0  0  0  0  0  0  0  0
   -3.8815   -0.6329   -1.8615 H   0  0  0  0  0  0  0  0  0  0  0  0
   -6.0195   -2.3375   -3.2418 H   0  0  0  0  0  0  0  0  0  0  0  0
   -5.5431   -0.6890   -3.6867 H   0  0  0  0  0  0  0  0  0  0  0  0
   -4.3907   -2.0187   -3.8635 H   0  0  0  0  0  0  0  0  0  0  0  0
   -6.6373   -1.4886   -0.8345 H   0  0  0  0  0  0  0  0  0  0  0  0
   -6.2141    0.1273   -1.4242 H   0  0  0  0  0  0  0  0  0  0  0  0
   -5.4511   -0.4990    0.0376 H   0  0  0  0  0  0  0  0  0  0  0  0
   -1.4998   -1.5587   -1.7399 H   0  0  0  0  0  0  0  0  0  0  0  0
  1  2  1  0
  2  3  1  0
  3  4  1  0
  4  5  1  0
  5  6  1  0
  6  7  2  0
  7  8  1  0
  8  9  1  0
  9 10  2  0
  9 11  2  0
  9 12  1  0
 12 13  1  0
 13 14  1  0
 12 15  1  0
 15 16  1  0
 16 17  1  0
 17 18  1  0
 17 19  1  0
  8 20  2  0
 20 21  1  0
 21 22  1  0
 22 23  2  0
 23 24  1  0
 24 25  1  0
 25 26  2  0
 25 27  1  0
 27 28  1  0
 27 29  1  0
 29 30  2  0
 29 31  1  0
 31 32  1  0
 32 33  1  0
 33 34  1  0
 33 35  1  0
 31 36  1  0
 36 37  1  0
 21  5  2  0
 37 22  1  0
 36 24  2  0
  1 38  1  0
  1 39  1  0
  1 40  1  0
  2 41  1  0
  2 42  1  0
  3 43  1  0
  3 44  1  0
  6 45  1  0
  7 46  1  0
 13 47  1  0
 13 48  1  0
 14 49  1  0
 14 50  1  0
 14 51  1  0
 15 52  1  0
 15 53  1  0
 16 54  1  0
 16 55  1  0
 18 56  1  0
 18 57  1  0
 18 58  1  0
 19 59  1  0
 19 60  1  0
 19 61  1  0
 20 62  1  0
 28 63  1  0
 28 64  1  0
 28 65  1  0
 32 66  1  0
 32 67  1  0
 33 68  1  0
 34 69  1  0
 34 70  1  0
 34 71  1  0
 35 72  1  0
 35 73  1  0
 35 74  1  0
 37 75  1  0
M  END
$$$$
