


 41 44  0  0  0  0  0  0  0  0999 V2000
   -0.4144   63.6121   85.7393 C   0  0  0  0  0  0  0  0  0  0  0  0
   -1.2555   62.5201   86.0004 C   0  0  0  0  0  0  0  0  0  0  0  0
   -1.7857   61.7655   84.9523 C   0  0  0  0  0  0  0  0  0  0  0  0
   -1.4814   62.1045   83.6346 C   0  0  0  0  0  0  0  0  0  0  0  0
   -0.6707   63.2058   83.3557 C   0  0  0  0  0  0  0  0  0  0  0  0
   -0.1226   63.9698   84.4016 C   0  0  0  0  0  0  0  0  0  0  0  0
    0.7478   65.0979   84.0387 C   0  0  0  0  0  0  0  0  0  0  0  0
    0.5633   65.9336   83.0269 N   0  0  0  0  0  0  0  0  0  0  0  0
    1.6150   66.8177   83.0737 C   0  0  0  0  0  0  0  0  0  0  0  0
    1.9193   67.9200   82.1911 C   0  0  0  0  0  0  0  0  0  0  0  0
    1.2382   68.1959   81.2066 O   0  0  0  0  0  0  0  0  0  0  0  0
    3.0799   68.6196   82.5661 N   0  0  0  0  0  0  0  0  0  0  0  0
    3.4741   69.7337   81.7269 C   0  0  0  0  0  0  0  0  0  0  0  0
    3.9611   68.2822   83.6145 C   0  0  0  0  0  0  0  0  0  0  0  0
    5.0214   68.8922   83.7805 O   0  0  0  0  0  0  0  0  0  0  0  0
    3.5881   67.2180   84.4598 N   0  0  0  0  0  0  0  0  0  0  0  0
    2.4387   66.5328   84.1248 C   0  0  0  0  0  0  0  0  0  0  0  0
    1.8931   65.4419   84.7283 N   0  0  0  0  0  0  0  0  0  0  0  0
    2.2413   64.9315   85.5273 H   0  0  0  0  0  0  0  0  0  0  0  0
    4.4485   66.8691   85.5921 C   0  0  0  0  0  0  0  0  0  0  0  0
    5.2831   65.5806   85.4188 C   0  0  0  0  0  0  0  0  0  0  0  0
    6.6828   65.8442   84.8640 C   0  0  0  0  0  0  0  0  0  0  0  0
    5.3755   64.7465   86.6962 C   0  0  0  0  0  0  0  0  0  0  0  0
   -2.1987   61.1589   82.3103 S   0  0  0  0  0  0  0  0  0  0  0  0
   -1.2269   60.1462   81.9514 O   0  0  0  0  0  0  0  0  0  0  0  0
   -3.5457   60.7935   82.6844 O   0  0  0  0  0  0  0  0  0  0  0  0
   -2.2669   62.2973   81.0442 N   0  0  0  0  0  0  0  0  0  0  0  0
   -3.4738   62.2507   80.1563 C   0  0  0  0  0  0  0  0  0  0  0  0
   -3.3332   61.2314   79.0064 C   0  0  0  0  0  0  0  0  0  0  0  0
   -2.1016   61.3711   78.2050 N   0  0  0  0  0  0  0  0  0  0  0  0
   -0.9363   61.3720   79.1124 C   0  0  0  0  0  0  0  0  0  0  0  0
   -1.0091   62.4157   80.2431 C   0  0  0  0  0  0  0  0  0  0  0  0
   -2.1048   62.5399   77.3064 C   0  0  0  0  0  0  0  0  0  0  0  0
   -0.7312   62.9696   76.7112 C   0  0  0  0  0  0  0  0  0  0  0  0
   -0.4651   64.4177   76.6402 N   0  0  0  0  0  0  0  0  0  0  0  0
    0.2040   64.9149   77.8411 C   0  0  0  0  0  0  0  0  0  0  0  0
   -1.7056   65.1563   76.4076 C   0  0  0  0  0  0  0  0  0  0  0  0
    0.1324   64.3896   86.7347 O   0  0  0  0  0  0  0  0  0  0  0  0
    1.0628   63.7502   87.6141 C   0  0  0  0  0  0  0  0  0  0  0  0
    0.2747   62.0133   89.2829 C   0  0  0  0  0  0  0  0  0  0  0  0
    0.3748   63.4959   88.9542 C   0  0  0  0  0  0  0  0  0  0  0  0
 40 41  1  0  0  0
 41 39  1  0  0  0
 39 38  1  0  0  0
 38  1  1  0  0  0
  1  2  1  0  0  0
  2  3  2  0  0  0
  3  4  1  0  0  0
  4 24  1  0  0  0
 24 25  2  0  0  0
 24 26  2  0  0  0
 24 27  1  0  0  0
 27 28  1  0  0  0
 28 29  1  0  0  0
 29 30  1  0  0  0
 30 33  1  0  0  0
 33 34  1  0  0  0
 34 35  1  0  0  0
 35 36  1  0  0  0
 35 37  1  0  0  0
 30 31  1  0  0  0
 31 32  1  0  0  0
  4  5  2  0  0  0
  5  6  1  0  0  0
  6  7  1  0  0  0
  7  8  2  0  0  0
  8  9  1  0  0  0
  9 10  1  0  0  0
 10 11  2  0  0  0
 10 12  1  0  0  0
 12 13  1  0  0  0
 12 14  1  0  0  0
 14 15  2  0  0  0
 14 16  1  0  0  0
 16 20  1  0  0  0
 20 21  1  0  0  0
 21 22  1  0  0  0
 21 23  1  0  0  0
 16 17  1  0  0  0
 17 18  1  0  0  0
  6  1  2  0  0  0
 18  7  1  0  0  0
 32 27  1  0  0  0
 17  9  2  0  0  0
 18 19  1  0  0  0
M  END
> <minimizedAffinity>
-9.52451

$$$$



 41 44  0  0  0  0  0  0  0  0999 V2000
    3.3048   66.8093   84.2843 C   0  0  0  0  0  0  0  0  0  0  0  0
    4.1481   67.9185   84.1217 C   0  0  0  0  0  0  0  0  0  0  0  0
    3.7863   68.9676   83.2746 C   0  0  0  0  0  0  0  0  0  0  0  0
    2.5791   68.9089   82.5795 C   0  0  0  0  0  0  0  0  0  0  0  0
    1.7421   67.7993   82.7063 C   0  0  0  0  0  0  0  0  0  0  0  0
    2.0896   66.7391   83.5626 C   0  0  0  0  0  0  0  0  0  0  0  0
    1.1483   65.6151   83.6732 C   0  0  0  0  0  0  0  0  0  0  0  0
    0.6583   64.9040   82.6679 N   0  0  0  0  0  0  0  0  0  0  0  0
   -0.1717   63.9687   83.2392 C   0  0  0  0  0  0  0  0  0  0  0  0
   -0.9784   62.9547   82.6007 C   0  0  0  0  0  0  0  0  0  0  0  0
   -1.0427   62.8213   81.3812 O   0  0  0  0  0  0  0  0  0  0  0  0
   -1.6907   62.1617   83.5177 N   0  0  0  0  0  0  0  0  0  0  0  0
   -2.5427   61.1268   82.9665 C   0  0  0  0  0  0  0  0  0  0  0  0
   -1.7448   62.3393   84.9159 C   0  0  0  0  0  0  0  0  0  0  0  0
   -2.5021   61.6628   85.6180 O   0  0  0  0  0  0  0  0  0  0  0  0
   -0.9072   63.3229   85.4789 N   0  0  0  0  0  0  0  0  0  0  0  0
   -0.1799   64.0968   84.5986 C   0  0  0  0  0  0  0  0  0  0  0  0
    0.6486   65.1417   84.8698 N   0  0  0  0  0  0  0  0  0  0  0  0
    0.8707   65.5447   85.7689 H   0  0  0  0  0  0  0  0  0  0  0  0
   -0.8936   63.5039   86.9320 C   0  0  0  0  0  0  0  0  0  0  0  0
    0.2709   62.8127   87.6756 C   0  0  0  0  0  0  0  0  0  0  0  0
    1.4869   63.7207   87.8588 C   0  0  0  0  0  0  0  0  0  0  0  0
   -0.1431   62.2157   89.0203 C   0  0  0  0  0  0  0  0  0  0  0  0
    2.1529   70.2337   81.4724 S   0  0  0  0  0  0  0  0  0  0  0  0
    2.7816   69.9303   80.2029 O   0  0  0  0  0  0  0  0  0  0  0  0
    0.7289   70.4631   81.5577 O   0  0  0  0  0  0  0  0  0  0  0  0
    2.9685   71.5618   82.1613 N   0  0  0  0  0  0  0  0  0  0  0  0
    2.1849   72.4202   83.1081 C   0  0  0  0  0  0  0  0  0  0  0  0
    1.3650   73.5119   82.3891 C   0  0  0  0  0  0  0  0  0  0  0  0
    2.1386   74.3455   81.4482 N   0  0  0  0  0  0  0  0  0  0  0  0
    2.8620   73.4641   80.5095 C   0  0  0  0  0  0  0  0  0  0  0  0
    3.7396   72.3944   81.1866 C   0  0  0  0  0  0  0  0  0  0  0  0
    3.0380   75.3099   82.1073 C   0  0  0  0  0  0  0  0  0  0  0  0
    2.4667   76.0707   83.3404 C   0  0  0  0  0  0  0  0  0  0  0  0
    3.2236   75.9522   84.5997 N   0  0  0  0  0  0  0  0  0  0  0  0
    3.3159   77.2269   85.3094 C   0  0  0  0  0  0  0  0  0  0  0  0
    4.5595   75.4143   84.3463 C   0  0  0  0  0  0  0  0  0  0  0  0
    3.6146   65.7483   85.1044 O   0  0  0  0  0  0  0  0  0  0  0  0
    4.9695   65.6570   85.5561 C   0  0  0  0  0  0  0  0  0  0  0  0
    5.6803   65.5912   87.9877 C   0  0  0  0  0  0  0  0  0  0  0  0
    5.0010   64.8441   86.8491 C   0  0  0  0  0  0  0  0  0  0  0  0
 40 41  1  0  0  0
 41 39  1  0  0  0
 39 38  1  0  0  0
 38  1  1  0  0  0
  1  2  1  0  0  0
  2  3  2  0  0  0
  3  4  1  0  0  0
  4 24  1  0  0  0
 24 25  2  0  0  0
 24 26  2  0  0  0
 24 27  1  0  0  0
 27 28  1  0  0  0
 28 29  1  0  0  0
 29 30  1  0  0  0
 30 33  1  0  0  0
 33 34  1  0  0  0
 34 35  1  0  0  0
 35 36  1  0  0  0
 35 37  1  0  0  0
 30 31  1  0  0  0
 31 32  1  0  0  0
  4  5  2  0  0  0
  5  6  1  0  0  0
  6  7  1  0  0  0
  7  8  2  0  0  0
  8  9  1  0  0  0
  9 10  1  0  0  0
 10 11  2  0  0  0
 10 12  1  0  0  0
 12 13  1  0  0  0
 12 14  1  0  0  0
 14 15  2  0  0  0
 14 16  1  0  0  0
 16 20  1  0  0  0
 20 21  1  0  0  0
 21 22  1  0  0  0
 21 23  1  0  0  0
 16 17  1  0  0  0
 17 18  1  0  0  0
  6  1  2  0  0  0
 18  7  1  0  0  0
 32 27  1  0  0  0
 17  9  2  0  0  0
 18 19  1  0  0  0
M  END
> <minimizedAffinity>
-9.46397

$$$$



 41 44  0  0  0  0  0  0  0  0999 V2000
    1.0075   65.6270   81.2545 C   0  0  0  0  0  0  0  0  0  0  0  0
    1.4559   66.4775   80.2329 C   0  0  0  0  0  0  0  0  0  0  0  0
    2.1188   67.6674   80.5392 C   0  0  0  0  0  0  0  0  0  0  0  0
    2.3313   68.0160   81.8724 C   0  0  0  0  0  0  0  0  0  0  0  0
    1.8655   67.1965   82.9016 C   0  0  0  0  0  0  0  0  0  0  0  0
    1.2037   65.9907   82.6079 C   0  0  0  0  0  0  0  0  0  0  0  0
    0.7662   65.1597   83.7392 C   0  0  0  0  0  0  0  0  0  0  0  0
    1.3586   65.0743   84.9216 N   0  0  0  0  0  0  0  0  0  0  0  0
    0.6072   64.1867   85.6547 C   0  0  0  0  0  0  0  0  0  0  0  0
    0.8162   63.7110   87.0025 C   0  0  0  0  0  0  0  0  0  0  0  0
    1.7779   64.0477   87.6887 O   0  0  0  0  0  0  0  0  0  0  0  0
   -0.1786   62.8133   87.4285 N   0  0  0  0  0  0  0  0  0  0  0  0
   -0.0420   62.2688   88.7648 C   0  0  0  0  0  0  0  0  0  0  0  0
   -1.2389   62.3043   86.6498 C   0  0  0  0  0  0  0  0  0  0  0  0
   -1.9857   61.4226   87.0840 O   0  0  0  0  0  0  0  0  0  0  0  0
   -1.4077   62.8357   85.3555 N   0  0  0  0  0  0  0  0  0  0  0  0
   -0.4565   63.7375   84.9258 C   0  0  0  0  0  0  0  0  0  0  0  0
   -0.3499   64.3477   83.7141 N   0  0  0  0  0  0  0  0  0  0  0  0
   -0.9464   64.2392   82.9063 H   0  0  0  0  0  0  0  0  0  0  0  0
   -2.5278   62.3731   84.5334 C   0  0  0  0  0  0  0  0  0  0  0  0
   -2.1675   61.9762   83.0844 C   0  0  0  0  0  0  0  0  0  0  0  0
   -2.5872   60.5490   82.7329 C   0  0  0  0  0  0  0  0  0  0  0  0
   -2.7086   62.9524   82.0403 C   0  0  0  0  0  0  0  0  0  0  0  0
    3.1398   69.5552   82.2459 S   0  0  0  0  0  0  0  0  0  0  0  0
    3.9728   69.3140   83.4064 O   0  0  0  0  0  0  0  0  0  0  0  0
    3.7045   70.0849   81.0259 O   0  0  0  0  0  0  0  0  0  0  0  0
    1.8381   70.5441   82.7267 N   0  0  0  0  0  0  0  0  0  0  0  0
    0.5429   70.3616   81.9943 C   0  0  0  0  0  0  0  0  0  0  0  0
    0.4689   71.1864   80.6923 C   0  0  0  0  0  0  0  0  0  0  0  0
    0.7800   72.6204   80.8517 N   0  0  0  0  0  0  0  0  0  0  0  0
    2.0798   72.7557   81.5398 C   0  0  0  0  0  0  0  0  0  0  0  0
    2.1772   71.9936   82.8749 C   0  0  0  0  0  0  0  0  0  0  0  0
   -0.2841   73.3901   81.5215 C   0  0  0  0  0  0  0  0  0  0  0  0
   -0.1843   74.9421   81.4383 C   0  0  0  0  0  0  0  0  0  0  0  0
    0.1207   75.6535   82.6928 N   0  0  0  0  0  0  0  0  0  0  0  0
   -0.9169   76.6216   83.0439 C   0  0  0  0  0  0  0  0  0  0  0  0
    1.4223   76.3142   82.6043 C   0  0  0  0  0  0  0  0  0  0  0  0
    0.3474   64.4449   81.0074 O   0  0  0  0  0  0  0  0  0  0  0  0
   -0.0694   64.2092   79.6588 C   0  0  0  0  0  0  0  0  0  0  0  0
    0.5086   61.9002   80.5289 C   0  0  0  0  0  0  0  0  0  0  0  0
    0.2302   62.7546   79.3007 C   0  0  0  0  0  0  0  0  0  0  0  0
 40 41  1  0  0  0
 41 39  1  0  0  0
 39 38  1  0  0  0
 38  1  1  0  0  0
  1  2  1  0  0  0
  2  3  2  0  0  0
  3  4  1  0  0  0
  4 24  1  0  0  0
 24 25  2  0  0  0
 24 26  2  0  0  0
 24 27  1  0  0  0
 27 28  1  0  0  0
 28 29  1  0  0  0
 29 30  1  0  0  0
 30 33  1  0  0  0
 33 34  1  0  0  0
 34 35  1  0  0  0
 35 36  1  0  0  0
 35 37  1  0  0  0
 30 31  1  0  0  0
 31 32  1  0  0  0
  4  5  2  0  0  0
  5  6  1  0  0  0
  6  7  1  0  0  0
  7  8  2  0  0  0
  8  9  1  0  0  0
  9 10  1  0  0  0
 10 11  2  0  0  0
 10 12  1  0  0  0
 12 13  1  0  0  0
 12 14  1  0  0  0
 14 15  2  0  0  0
 14 16  1  0  0  0
 16 20  1  0  0  0
 20 21  1  0  0  0
 21 22  1  0  0  0
 21 23  1  0  0  0
 16 17  1  0  0  0
 17 18  1  0  0  0
  6  1  2  0  0  0
 18  7  1  0  0  0
 32 27  1  0  0  0
 17  9  2  0  0  0
 18 19  1  0  0  0
M  END
> <minimizedAffinity>
-9.39258

$$$$



 41 44  0  0  0  0  0  0  0  0999 V2000
    3.3587   66.7804   84.3185 C   0  0  0  0  0  0  0  0  0  0  0  0
    4.2177   67.8743   84.1353 C   0  0  0  0  0  0  0  0  0  0  0  0
    3.8886   68.8936   83.2398 C   0  0  0  0  0  0  0  0  0  0  0  0
    2.6986   68.8201   82.5170 C   0  0  0  0  0  0  0  0  0  0  0  0
    1.8468   67.7245   82.6646 C   0  0  0  0  0  0  0  0  0  0  0  0
    2.1612   66.6946   83.5692 C   0  0  0  0  0  0  0  0  0  0  0  0
    1.2054   65.5848   83.6985 C   0  0  0  0  0  0  0  0  0  0  0  0
    0.6951   64.8729   82.7040 N   0  0  0  0  0  0  0  0  0  0  0  0
   -0.1421   63.9540   83.2913 C   0  0  0  0  0  0  0  0  0  0  0  0
   -0.9695   62.9464   82.6693 C   0  0  0  0  0  0  0  0  0  0  0  0
   -1.0483   62.8043   81.4517 O   0  0  0  0  0  0  0  0  0  0  0  0
   -1.6833   62.1709   83.6000 N   0  0  0  0  0  0  0  0  0  0  0  0
   -2.5555   61.1438   83.0659 C   0  0  0  0  0  0  0  0  0  0  0  0
   -1.7205   62.3603   84.9972 C   0  0  0  0  0  0  0  0  0  0  0  0
   -2.4798   61.7002   85.7125 O   0  0  0  0  0  0  0  0  0  0  0  0
   -0.8633   63.3364   85.5436 N   0  0  0  0  0  0  0  0  0  0  0  0
   -0.1344   64.0929   84.6497 C   0  0  0  0  0  0  0  0  0  0  0  0
    0.7115   65.1281   84.9040 N   0  0  0  0  0  0  0  0  0  0  0  0
    0.9487   65.5350   85.7975 H   0  0  0  0  0  0  0  0  0  0  0  0
   -0.8321   63.5286   86.9950 C   0  0  0  0  0  0  0  0  0  0  0  0
    0.3307   62.8275   87.7321 C   0  0  0  0  0  0  0  0  0  0  0  0
    1.5547   63.7259   87.9101 C   0  0  0  0  0  0  0  0  0  0  0  0
   -0.0812   62.2324   89.0782 C   0  0  0  0  0  0  0  0  0  0  0  0
    2.3146   70.1056   81.3497 S   0  0  0  0  0  0  0  0  0  0  0  0
    3.5808   70.6414   80.8930 O   0  0  0  0  0  0  0  0  0  0  0  0
    1.3433   69.5964   80.4090 O   0  0  0  0  0  0  0  0  0  0  0  0
    1.5680   71.2803   82.3328 N   0  0  0  0  0  0  0  0  0  0  0  0
    0.2359   71.7959   81.8782 C   0  0  0  0  0  0  0  0  0  0  0  0
    0.3549   72.9583   80.8704 C   0  0  0  0  0  0  0  0  0  0  0  0
    1.2217   74.0694   81.3095 N   0  0  0  0  0  0  0  0  0  0  0  0
    2.5347   73.5243   81.7096 C   0  0  0  0  0  0  0  0  0  0  0  0
    2.4653   72.3989   82.7591 C   0  0  0  0  0  0  0  0  0  0  0  0
    0.6256   74.9089   82.3648 C   0  0  0  0  0  0  0  0  0  0  0  0
    1.1990   76.3484   82.5220 C   0  0  0  0  0  0  0  0  0  0  0  0
    0.3298   77.3380   83.1838 N   0  0  0  0  0  0  0  0  0  0  0  0
    0.8492   77.7424   84.4891 C   0  0  0  0  0  0  0  0  0  0  0  0
   -1.0303   76.8176   83.3177 C   0  0  0  0  0  0  0  0  0  0  0  0
    3.6363   65.7487   85.1859 O   0  0  0  0  0  0  0  0  0  0  0  0
    4.9990   65.6022   85.5979 C   0  0  0  0  0  0  0  0  0  0  0  0
    5.5999   65.6050   88.0599 C   0  0  0  0  0  0  0  0  0  0  0  0
    5.0341   64.8010   86.8982 C   0  0  0  0  0  0  0  0  0  0  0  0
 40 41  1  0  0  0
 41 39  1  0  0  0
 39 38  1  0  0  0
 38  1  1  0  0  0
  1  2  1  0  0  0
  2  3  2  0  0  0
  3  4  1  0  0  0
  4 24  1  0  0  0
 24 25  2  0  0  0
 24 26  2  0  0  0
 24 27  1  0  0  0
 27 28  1  0  0  0
 28 29  1  0  0  0
 29 30  1  0  0  0
 30 33  1  0  0  0
 33 34  1  0  0  0
 34 35  1  0  0  0
 35 36  1  0  0  0
 35 37  1  0  0  0
 30 31  1  0  0  0
 31 32  1  0  0  0
  4  5  2  0  0  0
  5  6  1  0  0  0
  6  7  1  0  0  0
  7  8  2  0  0  0
  8  9  1  0  0  0
  9 10  1  0  0  0
 10 11  2  0  0  0
 10 12  1  0  0  0
 12 13  1  0  0  0
 12 14  1  0  0  0
 14 15  2  0  0  0
 14 16  1  0  0  0
 16 20  1  0  0  0
 20 21  1  0  0  0
 21 22  1  0  0  0
 21 23  1  0  0  0
 16 17  1  0  0  0
 17 18  1  0  0  0
  6  1  2  0  0  0
 18  7  1  0  0  0
 32 27  1  0  0  0
 17  9  2  0  0  0
 18 19  1  0  0  0
M  END
> <minimizedAffinity>
-9.38406

$$$$



 41 44  0  0  0  0  0  0  0  0999 V2000
    1.0028   65.6049   81.3307 C   0  0  0  0  0  0  0  0  0  0  0  0
    1.4599   66.4526   80.3106 C   0  0  0  0  0  0  0  0  0  0  0  0
    2.1506   67.6261   80.6186 C   0  0  0  0  0  0  0  0  0  0  0  0
    2.3823   67.9612   81.9520 C   0  0  0  0  0  0  0  0  0  0  0  0
    1.9085   67.1449   82.9801 C   0  0  0  0  0  0  0  0  0  0  0  0
    1.2188   65.9553   82.6846 C   0  0  0  0  0  0  0  0  0  0  0  0
    0.7739   65.1262   83.8144 C   0  0  0  0  0  0  0  0  0  0  0  0
    1.3649   65.0343   84.9970 N   0  0  0  0  0  0  0  0  0  0  0  0
    0.6059   64.1517   85.7283 C   0  0  0  0  0  0  0  0  0  0  0  0
    0.8103   63.6724   87.0756 C   0  0  0  0  0  0  0  0  0  0  0  0
    1.7742   64.0004   87.7629 O   0  0  0  0  0  0  0  0  0  0  0  0
   -0.1919   62.7820   87.4997 N   0  0  0  0  0  0  0  0  0  0  0  0
   -0.0605   62.2345   88.8353 C   0  0  0  0  0  0  0  0  0  0  0  0
   -1.2558   62.2827   86.7196 C   0  0  0  0  0  0  0  0  0  0  0  0
   -2.0099   61.4063   87.1521 O   0  0  0  0  0  0  0  0  0  0  0  0
   -1.4196   62.8173   85.4260 N   0  0  0  0  0  0  0  0  0  0  0  0
   -0.4609   63.7121   84.9981 C   0  0  0  0  0  0  0  0  0  0  0  0
   -0.3486   64.3232   83.7874 N   0  0  0  0  0  0  0  0  0  0  0  0
   -0.9455   64.2207   82.9791 H   0  0  0  0  0  0  0  0  0  0  0  0
   -2.5428   62.3649   84.6025 C   0  0  0  0  0  0  0  0  0  0  0  0
   -2.1888   61.9899   83.1461 C   0  0  0  0  0  0  0  0  0  0  0  0
   -2.6071   60.5669   82.7760 C   0  0  0  0  0  0  0  0  0  0  0  0
   -2.7372   62.9799   82.1190 C   0  0  0  0  0  0  0  0  0  0  0  0
    3.2265   69.4805   82.3281 S   0  0  0  0  0  0  0  0  0  0  0  0
    4.0175   69.2312   83.5160 O   0  0  0  0  0  0  0  0  0  0  0  0
    3.8425   69.9750   81.1183 O   0  0  0  0  0  0  0  0  0  0  0  0
    1.9423   70.5154   82.7565 N   0  0  0  0  0  0  0  0  0  0  0  0
    0.6783   70.3911   81.9602 C   0  0  0  0  0  0  0  0  0  0  0  0
    0.7003   71.2305   80.6656 C   0  0  0  0  0  0  0  0  0  0  0  0
    1.0588   72.6496   80.8563 N   0  0  0  0  0  0  0  0  0  0  0  0
    2.3277   72.7269   81.6082 C   0  0  0  0  0  0  0  0  0  0  0  0
    2.3299   71.9489   82.9376 C   0  0  0  0  0  0  0  0  0  0  0  0
   -0.0060   73.4543   81.4825 C   0  0  0  0  0  0  0  0  0  0  0  0
   -0.5898   74.6239   80.6358 C   0  0  0  0  0  0  0  0  0  0  0  0
   -0.9864   74.3052   79.2524 N   0  0  0  0  0  0  0  0  0  0  0  0
   -1.3499   75.5008   78.4938 C   0  0  0  0  0  0  0  0  0  0  0  0
   -2.0882   73.3438   79.2433 C   0  0  0  0  0  0  0  0  0  0  0  0
    0.3156   64.4387   81.0820 O   0  0  0  0  0  0  0  0  0  0  0  0
    0.1293   64.0808   79.7089 C   0  0  0  0  0  0  0  0  0  0  0  0
    0.6415   61.8476   80.7921 C   0  0  0  0  0  0  0  0  0  0  0  0
   -0.0018   62.5618   79.6122 C   0  0  0  0  0  0  0  0  0  0  0  0
 40 41  1  0  0  0
 41 39  1  0  0  0
 39 38  1  0  0  0
 38  1  1  0  0  0
  1  2  1  0  0  0
  2  3  2  0  0  0
  3  4  1  0  0  0
  4 24  1  0  0  0
 24 25  2  0  0  0
 24 26  2  0  0  0
 24 27  1  0  0  0
 27 28  1  0  0  0
 28 29  1  0  0  0
 29 30  1  0  0  0
 30 33  1  0  0  0
 33 34  1  0  0  0
 34 35  1  0  0  0
 35 36  1  0  0  0
 35 37  1  0  0  0
 30 31  1  0  0  0
 31 32  1  0  0  0
  4  5  2  0  0  0
  5  6  1  0  0  0
  6  7  1  0  0  0
  7  8  2  0  0  0
  8  9  1  0  0  0
  9 10  1  0  0  0
 10 11  2  0  0  0
 10 12  1  0  0  0
 12 13  1  0  0  0
 12 14  1  0  0  0
 14 15  2  0  0  0
 14 16  1  0  0  0
 16 20  1  0  0  0
 20 21  1  0  0  0
 21 22  1  0  0  0
 21 23  1  0  0  0
 16 17  1  0  0  0
 17 18  1  0  0  0
  6  1  2  0  0  0
 18  7  1  0  0  0
 32 27  1  0  0  0
 17  9  2  0  0  0
 18 19  1  0  0  0
M  END
> <minimizedAffinity>
-9.22738

$$$$
