


 38 40  0  0  0  0  0  0  0  0999 V2000
    3.5130   66.7365   84.3068 C   0  0  0  0  0  0  0  0  0  0  0  0
    4.3650   67.8348   84.1180 C   0  0  0  0  0  0  0  0  0  0  0  0
    3.9202   68.9755   83.4439 C   0  0  0  0  0  0  0  0  0  0  0  0
    2.6157   69.0253   82.9544 C   0  0  0  0  0  0  0  0  0  0  0  0
    1.7451   67.9563   83.1678 C   0  0  0  0  0  0  0  0  0  0  0  0
    2.1837   66.7939   83.8257 C   0  0  0  0  0  0  0  0  0  0  0  0
    1.2243   65.6865   83.9541 C   0  0  0  0  0  0  0  0  0  0  0  0
    0.6909   64.9991   82.9533 N   0  0  0  0  0  0  0  0  0  0  0  0
   -0.1273   64.0614   83.5367 C   0  0  0  0  0  0  0  0  0  0  0  0
   -0.9397   63.0436   82.9138 C   0  0  0  0  0  0  0  0  0  0  0  0
   -1.0079   62.8905   81.6963 O   0  0  0  0  0  0  0  0  0  0  0  0
   -1.6353   62.2462   83.8429 N   0  0  0  0  0  0  0  0  0  0  0  0
   -2.4689   61.2082   83.2690 C   0  0  0  0  0  0  0  0  0  0  0  0
   -1.6108   62.3759   85.2471 C   0  0  0  0  0  0  0  0  0  0  0  0
   -2.2688   61.6316   85.9790 O   0  0  0  0  0  0  0  0  0  0  0  0
   -0.7972   63.3922   85.7877 N   0  0  0  0  0  0  0  0  0  0  0  0
   -0.0990   64.1771   84.8960 C   0  0  0  0  0  0  0  0  0  0  0  0
    0.7488   65.2079   85.1591 N   0  0  0  0  0  0  0  0  0  0  0  0
    1.0297   65.5695   86.0599 H   0  0  0  0  0  0  0  0  0  0  0  0
   -0.7204   63.5549   87.2409 C   0  0  0  0  0  0  0  0  0  0  0  0
    0.4525   62.7855   87.8785 C   0  0  0  0  0  0  0  0  0  0  0  0
    1.6560   63.7160   88.0409 C   0  0  0  0  0  0  0  0  0  0  0  0
    0.0777   62.1804   89.2323 C   0  0  0  0  0  0  0  0  0  0  0  0
    2.0324   70.4931   82.1274 S   0  0  0  0  0  0  0  0  0  0  0  0
    2.9274   70.7358   81.0146 O   0  0  0  0  0  0  0  0  0  0  0  0
    1.8097   71.5041   83.1375 O   0  0  0  0  0  0  0  0  0  0  0  0
    0.5269   70.0123   81.4961 N   0  0  0  0  0  0  0  0  0  0  0  0
   -0.6294   70.9020   81.7443 C   0  0  0  0  0  0  0  0  0  0  0  0
   -0.8327   71.8395   80.5649 C   0  0  0  0  0  0  0  0  0  0  0  0
    0.5352   69.3466   80.1620 C   0  0  0  0  0  0  0  0  0  0  0  0
   -0.2991   68.0487   80.2162 C   0  0  0  0  0  0  0  0  0  0  0  0
    0.4258   66.7744   80.0644 N   0  0  0  0  0  0  0  0  0  0  0  0
   -0.2155   65.8586   79.1277 C   0  0  0  0  0  0  0  0  0  0  0  0
    1.8336   66.9761   79.7232 C   0  0  0  0  0  0  0  0  0  0  0  0
    3.8901   65.5845   84.9556 O   0  0  0  0  0  0  0  0  0  0  0  0
    5.1502   65.5795   85.6312 C   0  0  0  0  0  0  0  0  0  0  0  0
    5.5934   65.5993   88.1147 C   0  0  0  0  0  0  0  0  0  0  0  0
    4.9537   64.8529   86.9583 C   0  0  0  0  0  0  0  0  0  0  0  0
 37 38  1  0  0  0
 38 36  1  0  0  0
 36 35  1  0  0  0
 35  1  1  0  0  0
  1  2  1  0  0  0
  2  3  2  0  0  0
  3  4  1  0  0  0
  4 24  1  0  0  0
 24 25  2  0  0  0
 24 26  2  0  0  0
 24 27  1  0  0  0
 27 28  1  0  0  0
 28 29  1  0  0  0
 27 30  1  0  0  0
 30 31  1  0  0  0
 31 32  1  0  0  0
 32 33  1  0  0  0
 32 34  1  0  0  0
  4  5  2  0  0  0
  5  6  1  0  0  0
  6  7  1  0  0  0
  7  8  2  0  0  0
  8  9  1  0  0  0
  9 10  1  0  0  0
 10 11  2  0  0  0
 10 12  1  0  0  0
 12 13  1  0  0  0
 12 14  1  0  0  0
 14 15  2  0  0  0
 14 16  1  0  0  0
 16 20  1  0  0  0
 20 21  1  0  0  0
 21 22  1  0  0  0
 21 23  1  0  0  0
 16 17  1  0  0  0
 17 18  1  0  0  0
  6  1  2  0  0  0
 18  7  1  0  0  0
 17  9  2  0  0  0
 18 19  1  0  0  0
M  END
> <minimizedAffinity>
-9.00384

$$$$



 38 40  0  0  0  0  0  0  0  0999 V2000
    3.7878   66.8009   84.3351 C   0  0  0  0  0  0  0  0  0  0  0  0
    4.6152   67.8765   83.9797 C   0  0  0  0  0  0  0  0  0  0  0  0
    4.0951   68.9844   83.3049 C   0  0  0  0  0  0  0  0  0  0  0  0
    2.7394   69.0241   82.9819 C   0  0  0  0  0  0  0  0  0  0  0  0
    1.8968   67.9793   83.3623 C   0  0  0  0  0  0  0  0  0  0  0  0
    2.4086   66.8489   84.0229 C   0  0  0  0  0  0  0  0  0  0  0  0
    1.4669   65.7623   84.3326 C   0  0  0  0  0  0  0  0  0  0  0  0
    1.0383   65.4251   85.5414 N   0  0  0  0  0  0  0  0  0  0  0  0
    0.1689   64.3776   85.3521 C   0  0  0  0  0  0  0  0  0  0  0  0
   -0.5942   63.6359   86.3276 C   0  0  0  0  0  0  0  0  0  0  0  0
   -0.5451   63.8649   87.5341 O   0  0  0  0  0  0  0  0  0  0  0  0
   -1.4001   62.6340   85.7535 N   0  0  0  0  0  0  0  0  0  0  0  0
   -2.1869   61.8569   86.6910 C   0  0  0  0  0  0  0  0  0  0  0  0
   -1.4936   62.3123   84.3834 C   0  0  0  0  0  0  0  0  0  0  0  0
   -2.2236   61.4035   83.9786 O   0  0  0  0  0  0  0  0  0  0  0  0
   -0.7195   63.0762   83.4865 N   0  0  0  0  0  0  0  0  0  0  0  0
    0.0680   64.0694   84.0267 C   0  0  0  0  0  0  0  0  0  0  0  0
    0.8933   64.9391   83.3838 N   0  0  0  0  0  0  0  0  0  0  0  0
    1.0612   65.0205   82.3907 H   0  0  0  0  0  0  0  0  0  0  0  0
   -0.7969   62.7960   82.0514 C   0  0  0  0  0  0  0  0  0  0  0  0
    0.5356   62.3030   81.4547 C   0  0  0  0  0  0  0  0  0  0  0  0
    1.0591   61.1158   82.2652 C   0  0  0  0  0  0  0  0  0  0  0  0
    0.3977   61.9071   79.9837 C   0  0  0  0  0  0  0  0  0  0  0  0
    2.0645   70.4521   82.1549 S   0  0  0  0  0  0  0  0  0  0  0  0
    2.9408   70.7493   81.0404 O   0  0  0  0  0  0  0  0  0  0  0  0
    1.7809   71.4480   83.1647 O   0  0  0  0  0  0  0  0  0  0  0  0
    0.5908   69.8780   81.5264 N   0  0  0  0  0  0  0  0  0  0  0  0
   -0.6115   70.7134   81.7426 C   0  0  0  0  0  0  0  0  0  0  0  0
   -0.7085   71.7819   80.6655 C   0  0  0  0  0  0  0  0  0  0  0  0
    0.6442   69.1784   80.2108 C   0  0  0  0  0  0  0  0  0  0  0  0
   -0.2186   67.8991   80.2597 C   0  0  0  0  0  0  0  0  0  0  0  0
    0.4895   66.6126   80.3859 N   0  0  0  0  0  0  0  0  0  0  0  0
   -0.1371   65.5368   79.6261 C   0  0  0  0  0  0  0  0  0  0  0  0
    1.9105   66.7291   80.0597 C   0  0  0  0  0  0  0  0  0  0  0  0
    4.2374   65.6812   84.9940 O   0  0  0  0  0  0  0  0  0  0  0  0
    5.6404   65.5726   85.2472 C   0  0  0  0  0  0  0  0  0  0  0  0
    4.8441   64.9376   87.5553 C   0  0  0  0  0  0  0  0  0  0  0  0
    5.8476   65.7419   86.7493 C   0  0  0  0  0  0  0  0  0  0  0  0
 37 38  1  0  0  0
 38 36  1  0  0  0
 36 35  1  0  0  0
 35  1  1  0  0  0
  1  2  1  0  0  0
  2  3  2  0  0  0
  3  4  1  0  0  0
  4 24  1  0  0  0
 24 25  2  0  0  0
 24 26  2  0  0  0
 24 27  1  0  0  0
 27 28  1  0  0  0
 28 29  1  0  0  0
 27 30  1  0  0  0
 30 31  1  0  0  0
 31 32  1  0  0  0
 32 33  1  0  0  0
 32 34  1  0  0  0
  4  5  2  0  0  0
  5  6  1  0  0  0
  6  7  1  0  0  0
  7  8  2  0  0  0
  8  9  1  0  0  0
  9 10  1  0  0  0
 10 11  2  0  0  0
 10 12  1  0  0  0
 12 13  1  0  0  0
 12 14  1  0  0  0
 14 15  2  0  0  0
 14 16  1  0  0  0
 16 20  1  0  0  0
 20 21  1  0  0  0
 21 22  1  0  0  0
 21 23  1  0  0  0
 16 17  1  0  0  0
 17 18  1  0  0  0
  6  1  2  0  0  0
 18  7  1  0  0  0
 17  9  2  0  0  0
 18 19  1  0  0  0
M  END
> <minimizedAffinity>
-8.79380

$$$$



 38 40  0  0  0  0  0  0  0  0999 V2000
    3.4503   67.1143   84.1862 C   0  0  0  0  0  0  0  0  0  0  0  0
    4.2928   68.2029   83.9159 C   0  0  0  0  0  0  0  0  0  0  0  0
    3.9887   69.1034   82.8911 C   0  0  0  0  0  0  0  0  0  0  0  0
    2.8355   68.9209   82.1293 C   0  0  0  0  0  0  0  0  0  0  0  0
    1.9683   67.8650   82.4111 C   0  0  0  0  0  0  0  0  0  0  0  0
    2.2709   66.9390   83.4247 C   0  0  0  0  0  0  0  0  0  0  0  0
    1.3385   65.8178   83.6168 C   0  0  0  0  0  0  0  0  0  0  0  0
    0.8150   65.0679   82.6564 N   0  0  0  0  0  0  0  0  0  0  0  0
    0.0228   64.1427   83.2931 C   0  0  0  0  0  0  0  0  0  0  0  0
   -0.7695   63.0758   82.7291 C   0  0  0  0  0  0  0  0  0  0  0  0
   -0.8418   62.8590   81.5215 O   0  0  0  0  0  0  0  0  0  0  0  0
   -1.4403   62.3112   83.7029 N   0  0  0  0  0  0  0  0  0  0  0  0
   -2.2530   61.2262   83.1891 C   0  0  0  0  0  0  0  0  0  0  0  0
   -1.4100   62.5133   85.0985 C   0  0  0  0  0  0  0  0  0  0  0  0
   -2.0457   61.7925   85.8724 O   0  0  0  0  0  0  0  0  0  0  0  0
   -0.6170   63.5744   85.5803 N   0  0  0  0  0  0  0  0  0  0  0  0
    0.0569   64.3285   84.6444 C   0  0  0  0  0  0  0  0  0  0  0  0
    0.8820   65.3908   84.8482 N   0  0  0  0  0  0  0  0  0  0  0  0
    1.1600   65.8044   85.7271 H   0  0  0  0  0  0  0  0  0  0  0  0
   -0.5349   63.8131   87.0226 C   0  0  0  0  0  0  0  0  0  0  0  0
    0.5370   62.9549   87.7217 C   0  0  0  0  0  0  0  0  0  0  0  0
    1.8175   63.7718   87.9045 C   0  0  0  0  0  0  0  0  0  0  0  0
    0.0604   62.4266   89.0757 C   0  0  0  0  0  0  0  0  0  0  0  0
    2.4241   70.0886   80.8464 S   0  0  0  0  0  0  0  0  0  0  0  0
    1.7039   69.3577   79.8239 O   0  0  0  0  0  0  0  0  0  0  0  0
    3.6259   70.8270   80.5263 O   0  0  0  0  0  0  0  0  0  0  0  0
    1.3266   71.1393   81.6133 N   0  0  0  0  0  0  0  0  0  0  0  0
   -0.1101   70.7913   81.5417 C   0  0  0  0  0  0  0  0  0  0  0  0
   -0.8749   71.8720   80.7944 C   0  0  0  0  0  0  0  0  0  0  0  0
    1.7639   71.7504   82.9010 C   0  0  0  0  0  0  0  0  0  0  0  0
    2.0721   73.2490   82.6944 C   0  0  0  0  0  0  0  0  0  0  0  0
    3.4305   73.7109   83.0320 N   0  0  0  0  0  0  0  0  0  0  0  0
    4.2298   74.0459   81.8590 C   0  0  0  0  0  0  0  0  0  0  0  0
    3.4170   74.8138   83.9925 C   0  0  0  0  0  0  0  0  0  0  0  0
    3.6949   66.1909   85.1750 O   0  0  0  0  0  0  0  0  0  0  0  0
    5.0376   65.7282   85.3405 C   0  0  0  0  0  0  0  0  0  0  0  0
    5.5113   65.6489   87.8171 C   0  0  0  0  0  0  0  0  0  0  0  0
    5.0704   64.8624   86.5963 C   0  0  0  0  0  0  0  0  0  0  0  0
 37 38  1  0  0  0
 38 36  1  0  0  0
 36 35  1  0  0  0
 35  1  1  0  0  0
  1  2  1  0  0  0
  2  3  2  0  0  0
  3  4  1  0  0  0
  4 24  1  0  0  0
 24 25  2  0  0  0
 24 26  2  0  0  0
 24 27  1  0  0  0
 27 28  1  0  0  0
 28 29  1  0  0  0
 27 30  1  0  0  0
 30 31  1  0  0  0
 31 32  1  0  0  0
 32 33  1  0  0  0
 32 34  1  0  0  0
  4  5  2  0  0  0
  5  6  1  0  0  0
  6  7  1  0  0  0
  7  8  2  0  0  0
  8  9  1  0  0  0
  9 10  1  0  0  0
 10 11  2  0  0  0
 10 12  1  0  0  0
 12 13  1  0  0  0
 12 14  1  0  0  0
 14 15  2  0  0  0
 14 16  1  0  0  0
 16 20  1  0  0  0
 20 21  1  0  0  0
 21 22  1  0  0  0
 21 23  1  0  0  0
 16 17  1  0  0  0
 17 18  1  0  0  0
  6  1  2  0  0  0
 18  7  1  0  0  0
 17  9  2  0  0  0
 18 19  1  0  0  0
M  END
> <minimizedAffinity>
-8.65968

$$$$



 38 40  0  0  0  0  0  0  0  0999 V2000
   -0.1620   63.6006   84.7865 C   0  0  0  0  0  0  0  0  0  0  0  0
   -0.9130   62.4566   85.0950 C   0  0  0  0  0  0  0  0  0  0  0  0
   -1.6715   61.8144   84.1123 C   0  0  0  0  0  0  0  0  0  0  0  0
   -1.6820   62.3131   82.8105 C   0  0  0  0  0  0  0  0  0  0  0  0
   -0.9102   63.4272   82.4797 C   0  0  0  0  0  0  0  0  0  0  0  0
   -0.1586   64.0964   83.4614 C   0  0  0  0  0  0  0  0  0  0  0  0
    0.5770   65.3005   83.0459 C   0  0  0  0  0  0  0  0  0  0  0  0
    0.5259   65.8692   81.8490 N   0  0  0  0  0  0  0  0  0  0  0  0
    1.3524   66.9650   81.9191 C   0  0  0  0  0  0  0  0  0  0  0  0
    1.6564   67.9465   80.9050 C   0  0  0  0  0  0  0  0  0  0  0  0
    1.1835   67.9094   79.7712 O   0  0  0  0  0  0  0  0  0  0  0  0
    2.5403   68.9474   81.3518 N   0  0  0  0  0  0  0  0  0  0  0  0
    2.8806   69.9586   80.3703 C   0  0  0  0  0  0  0  0  0  0  0  0
    3.1268   69.0416   82.6311 C   0  0  0  0  0  0  0  0  0  0  0  0
    3.9031   69.9551   82.9233 O   0  0  0  0  0  0  0  0  0  0  0  0
    2.7870   68.0484   83.5719 N   0  0  0  0  0  0  0  0  0  0  0  0
    1.9144   67.0654   83.1585 C   0  0  0  0  0  0  0  0  0  0  0  0
    1.4303   66.0102   83.8676 N   0  0  0  0  0  0  0  0  0  0  0  0
    1.6136   65.7707   84.8320 H   0  0  0  0  0  0  0  0  0  0  0  0
    3.3524   68.1127   84.9211 C   0  0  0  0  0  0  0  0  0  0  0  0
    4.7442   67.4604   85.0296 C   0  0  0  0  0  0  0  0  0  0  0  0
    5.4653   67.9807   86.2746 C   0  0  0  0  0  0  0  0  0  0  0  0
    4.6639   65.9337   85.0762 C   0  0  0  0  0  0  0  0  0  0  0  0
   -2.6178   61.4748   81.5454 S   0  0  0  0  0  0  0  0  0  0  0  0
   -3.8811   62.1726   81.4212 O   0  0  0  0  0  0  0  0  0  0  0  0
   -2.5752   60.0588   81.8369 O   0  0  0  0  0  0  0  0  0  0  0  0
   -1.7141   61.7683   80.1335 N   0  0  0  0  0  0  0  0  0  0  0  0
   -0.3971   61.1029   80.0192 C   0  0  0  0  0  0  0  0  0  0  0  0
    0.6364   62.0753   79.4736 C   0  0  0  0  0  0  0  0  0  0  0  0
   -2.4747   61.8844   78.8564 C   0  0  0  0  0  0  0  0  0  0  0  0
   -2.7270   60.4809   78.2647 C   0  0  0  0  0  0  0  0  0  0  0  0
   -2.0923   60.1705   76.9712 N   0  0  0  0  0  0  0  0  0  0  0  0
   -1.3593   61.2983   76.4073 C   0  0  0  0  0  0  0  0  0  0  0  0
   -1.2498   58.9769   77.0407 C   0  0  0  0  0  0  0  0  0  0  0  0
    0.5997   64.2810   85.7068 O   0  0  0  0  0  0  0  0  0  0  0  0
    0.0951   64.3940   87.0398 C   0  0  0  0  0  0  0  0  0  0  0  0
    0.2587   62.6808   88.8845 C   0  0  0  0  0  0  0  0  0  0  0  0
    1.0258   63.5975   87.9492 C   0  0  0  0  0  0  0  0  0  0  0  0
 37 38  1  0  0  0
 38 36  1  0  0  0
 36 35  1  0  0  0
 35  1  1  0  0  0
  1  2  1  0  0  0
  2  3  2  0  0  0
  3  4  1  0  0  0
  4 24  1  0  0  0
 24 25  2  0  0  0
 24 26  2  0  0  0
 24 27  1  0  0  0
 27 28  1  0  0  0
 28 29  1  0  0  0
 27 30  1  0  0  0
 30 31  1  0  0  0
 31 32  1  0  0  0
 32 33  1  0  0  0
 32 34  1  0  0  0
  4  5  2  0  0  0
  5  6  1  0  0  0
  6  7  1  0  0  0
  7  8  2  0  0  0
  8  9  1  0  0  0
  9 10  1  0  0  0
 10 11  2  0  0  0
 10 12  1  0  0  0
 12 13  1  0  0  0
 12 14  1  0  0  0
 14 15  2  0  0  0
 14 16  1  0  0  0
 16 20  1  0  0  0
 20 21  1  0  0  0
 21 22  1  0  0  0
 21 23  1  0  0  0
 16 17  1  0  0  0
 17 18  1  0  0  0
  6  1  2  0  0  0
 18  7  1  0  0  0
 17  9  2  0  0  0
 18 19  1  0  0  0
M  END
> <minimizedAffinity>
-8.63087

$$$$



 38 40  0  0  0  0  0  0  0  0999 V2000
    3.6874   67.6239   83.9672 C   0  0  0  0  0  0  0  0  0  0  0  0
    4.4003   68.6905   83.3997 C   0  0  0  0  0  0  0  0  0  0  0  0
    3.8957   69.3771   82.2918 C   0  0  0  0  0  0  0  0  0  0  0  0
    2.6701   69.0008   81.7441 C   0  0  0  0  0  0  0  0  0  0  0  0
    1.9317   67.9671   82.3208 C   0  0  0  0  0  0  0  0  0  0  0  0
    2.4353   67.2534   83.4223 C   0  0  0  0  0  0  0  0  0  0  0  0
    1.6258   66.1361   83.9318 C   0  0  0  0  0  0  0  0  0  0  0  0
    1.3956   65.8608   85.2084 N   0  0  0  0  0  0  0  0  0  0  0  0
    0.5849   64.7510   85.2123 C   0  0  0  0  0  0  0  0  0  0  0  0
    0.0205   64.0357   86.3321 C   0  0  0  0  0  0  0  0  0  0  0  0
    0.2216   64.3532   87.5022 O   0  0  0  0  0  0  0  0  0  0  0  0
   -0.7847   62.9477   85.9438 N   0  0  0  0  0  0  0  0  0  0  0  0
   -1.3753   62.1930   87.0317 C   0  0  0  0  0  0  0  0  0  0  0  0
   -1.0460   62.5234   84.6244 C   0  0  0  0  0  0  0  0  0  0  0  0
   -1.7591   61.5449   84.3866 O   0  0  0  0  0  0  0  0  0  0  0  0
   -0.4614   63.2671   83.5792 N   0  0  0  0  0  0  0  0  0  0  0  0
    0.3216   64.3430   83.9371 C   0  0  0  0  0  0  0  0  0  0  0  0
    0.9848   65.2133   83.1289 N   0  0  0  0  0  0  0  0  0  0  0  0
    1.0059   65.2335   82.1189 H   0  0  0  0  0  0  0  0  0  0  0  0
   -0.7188   62.8805   82.1906 C   0  0  0  0  0  0  0  0  0  0  0  0
    0.5402   62.3845   81.4534 C   0  0  0  0  0  0  0  0  0  0  0  0
    1.1006   61.1478   82.1583 C   0  0  0  0  0  0  0  0  0  0  0  0
    0.2595   62.0624   79.9847 C   0  0  0  0  0  0  0  0  0  0  0  0
    2.0048   69.8983   80.3546 S   0  0  0  0  0  0  0  0  0  0  0  0
    0.8535   69.1562   79.8835 O   0  0  0  0  0  0  0  0  0  0  0  0
    3.1046   70.2079   79.4678 O   0  0  0  0  0  0  0  0  0  0  0  0
    1.4467   71.3449   81.0565 N   0  0  0  0  0  0  0  0  0  0  0  0
    0.3584   71.2404   82.0540 C   0  0  0  0  0  0  0  0  0  0  0  0
   -0.9243   71.8350   81.4951 C   0  0  0  0  0  0  0  0  0  0  0  0
    2.4665   72.3939   81.3436 C   0  0  0  0  0  0  0  0  0  0  0  0
    2.5318   72.6627   82.8624 C   0  0  0  0  0  0  0  0  0  0  0  0
    2.5407   74.0707   83.2982 N   0  0  0  0  0  0  0  0  0  0  0  0
    3.8734   74.6633   83.2943 C   0  0  0  0  0  0  0  0  0  0  0  0
    1.5976   74.8908   82.5385 C   0  0  0  0  0  0  0  0  0  0  0  0
    4.1303   66.9053   85.0523 O   0  0  0  0  0  0  0  0  0  0  0  0
    5.5063   66.5181   85.0815 C   0  0  0  0  0  0  0  0  0  0  0  0
    4.7534   64.9700   86.9257 C   0  0  0  0  0  0  0  0  0  0  0  0
    5.5709   65.1055   85.6542 C   0  0  0  0  0  0  0  0  0  0  0  0
 37 38  1  0  0  0
 38 36  1  0  0  0
 36 35  1  0  0  0
 35  1  1  0  0  0
  1  2  1  0  0  0
  2  3  2  0  0  0
  3  4  1  0  0  0
  4 24  1  0  0  0
 24 25  2  0  0  0
 24 26  2  0  0  0
 24 27  1  0  0  0
 27 28  1  0  0  0
 28 29  1  0  0  0
 27 30  1  0  0  0
 30 31  1  0  0  0
 31 32  1  0  0  0
 32 33  1  0  0  0
 32 34  1  0  0  0
  4  5  2  0  0  0
  5  6  1  0  0  0
  6  7  1  0  0  0
  7  8  2  0  0  0
  8  9  1  0  0  0
  9 10  1  0  0  0
 10 11  2  0  0  0
 10 12  1  0  0  0
 12 13  1  0  0  0
 12 14  1  0  0  0
 14 15  2  0  0  0
 14 16  1  0  0  0
 16 20  1  0  0  0
 20 21  1  0  0  0
 21 22  1  0  0  0
 21 23  1  0  0  0
 16 17  1  0  0  0
 17 18  1  0  0  0
  6  1  2  0  0  0
 18  7  1  0  0  0
 17  9  2  0  0  0
 18 19  1  0  0  0
M  END
> <minimizedAffinity>
-8.50106

$$$$
