
     RDKit          3D

 41 44  0  0  0  0  0  0  0  0999 V2000
    4.3761   -2.5089    2.2735 C   0  0  0  0  0  0  0  0  0  0  0  0
    3.0866   -2.9054    1.9336 C   0  0  0  0  0  0  0  0  0  0  0  0
    2.2322   -2.0166    1.2725 C   0  0  0  0  0  0  0  0  0  0  0  0
    2.6418   -0.7114    0.9342 C   0  0  0  0  0  0  0  0  0  0  0  0
    1.7362    0.2260    0.2364 C   0  0  0  0  0  0  0  0  0  0  0  0
    0.4950   -0.2010   -0.0486 N   0  0  0  0  0  0  0  0  0  0  0  0
   -0.3344    0.6522   -0.6706 C   0  0  0  0  0  0  0  0  0  0  0  0
   -1.6485    0.2282   -0.9679 N   0  0  0  0  0  0  0  0  0  0  0  0
   -2.0025   -1.1338   -0.5549 C   0  0  0  0  0  0  0  0  0  0  0  0
   -3.3257   -1.5231   -1.2300 C   0  0  0  0  0  0  0  0  0  0  0  0
   -4.3941   -1.1658   -0.2090 C   0  0  0  0  0  0  0  0  0  0  0  0
   -3.7587   -1.5888    1.1026 C   0  0  0  0  0  0  0  0  0  0  0  0
   -2.2867   -1.2115    0.9570 C   0  0  0  0  0  0  0  0  0  0  0  0
    0.0758    1.9418   -1.0524 C   0  0  0  0  0  0  0  0  0  0  0  0
   -0.7253    2.8801   -1.7538 C   0  0  0  0  0  0  0  0  0  0  0  0
   -0.2314    4.1411   -2.0804 C   0  0  0  0  0  0  0  0  0  0  0  0
    1.0641    4.4784   -1.7158 C   0  0  0  0  0  0  0  0  0  0  0  0
    1.8562    3.5497   -1.0350 C   0  0  0  0  0  0  0  0  0  0  0  0
    1.3863    2.2849   -0.7010 C   0  0  0  0  0  0  0  0  0  0  0  0
    2.2065    1.4491   -0.0603 N   0  0  0  0  0  0  0  0  0  0  0  0
    3.9533   -0.3411    1.2916 C   0  0  0  0  0  0  0  0  0  0  0  0
    4.8109   -1.2267    1.9528 C   0  0  0  0  0  0  0  0  0  0  0  0
    5.0414   -3.1980    2.7866 H   0  0  0  0  0  0  0  0  0  0  0  0
    2.7410   -3.9059    2.1800 H   0  0  0  0  0  0  0  0  0  0  0  0
    1.2287   -2.3536    1.0169 H   0  0  0  0  0  0  0  0  0  0  0  0
   -2.3053    0.9187   -0.6151 H   0  0  0  0  0  0  0  0  0  0  0  0
   -1.2278   -1.8457   -0.8651 H   0  0  0  0  0  0  0  0  0  0  0  0
   -3.3417   -2.6059   -1.4067 H   0  0  0  0  0  0  0  0  0  0  0  0
   -3.4916   -1.0237   -2.1900 H   0  0  0  0  0  0  0  0  0  0  0  0
   -4.5841   -0.0863   -0.2124 H   0  0  0  0  0  0  0  0  0  0  0  0
   -5.3394   -1.6823   -0.3983 H   0  0  0  0  0  0  0  0  0  0  0  0
   -4.2261   -1.1070    1.9664 H   0  0  0  0  0  0  0  0  0  0  0  0
   -3.8522   -2.6738    1.2321 H   0  0  0  0  0  0  0  0  0  0  0  0
   -2.0934   -0.2589    1.4640 H   0  0  0  0  0  0  0  0  0  0  0  0
   -1.6536   -1.9660    1.4371 H   0  0  0  0  0  0  0  0  0  0  0  0
   -1.7348    2.6174   -2.0614 H   0  0  0  0  0  0  0  0  0  0  0  0
   -0.8529    4.8504   -2.6207 H   0  0  0  0  0  0  0  0  0  0  0  0
    1.4672    5.4570   -1.9637 H   0  0  0  0  0  0  0  0  0  0  0  0
    2.8737    3.8204   -0.7608 H   0  0  0  0  0  0  0  0  0  0  0  0
    4.3199    0.6562    1.0525 H   0  0  0  0  0  0  0  0  0  0  0  0
    5.8173   -0.9106    2.2147 H   0  0  0  0  0  0  0  0  0  0  0  0
  1  2  2  0
  2  3  1  0
  3  4  2  0
  4  5  1  0
  5  6  2  0
  6  7  1  0
  7  8  1  0
  8  9  1  0
  9 10  1  0
 10 11  1  0
 11 12  1  0
 12 13  1  0
  7 14  2  0
 14 15  1  0
 15 16  2  0
 16 17  1  0
 17 18  2  0
 18 19  1  0
 19 20  2  0
  4 21  1  0
 21 22  2  0
 22  1  1  0
 20  5  1  0
 13  9  1  0
 19 14  1  0
  1 23  1  0
  2 24  1  0
  3 25  1  0
  8 26  1  0
  9 27  1  0
 10 28  1  0
 10 29  1  0
 11 30  1  0
 11 31  1  0
 12 32  1  0
 12 33  1  0
 13 34  1  0
 13 35  1  0
 15 36  1  0
 16 37  1  0
 17 38  1  0
 18 39  1  0
 21 40  1  0
 22 41  1  0
M  END
$$$$
