


 35 37  0  0  0  0  0  0  0  0999 V2000
    5.8150   67.1527   85.1223 C   0  0  0  0  0  0  0  0  0  0  0  0
    5.2726   68.0327   84.1823 C   0  0  0  0  0  0  0  0  0  0  0  0
    4.0160   67.7958   83.5953 C   0  0  0  0  0  0  0  0  0  0  0  0
    3.5096   68.6940   82.6487 C   0  0  0  0  0  0  0  0  0  0  0  0
    2.2677   68.4953   82.0270 C   0  0  0  0  0  0  0  0  0  0  0  0
    1.4822   67.3773   82.3851 C   0  0  0  0  0  0  0  0  0  0  0  0
    1.9887   66.4405   83.3316 C   0  0  0  0  0  0  0  0  0  0  0  0
    3.2666   66.6535   83.9468 C   0  0  0  0  0  0  0  0  0  0  0  0
    3.8401   65.7724   84.8995 C   0  0  0  0  0  0  0  0  0  0  0  0
    5.0891   66.0105   85.4877 C   0  0  0  0  0  0  0  0  0  0  0  0
    1.2030   65.2324   83.6655 C   0  0  0  0  0  0  0  0  0  0  0  0
    0.6983   65.0416   84.9613 C   0  0  0  0  0  0  0  0  0  0  0  0
   -0.0372   63.8993   85.2744 C   0  0  0  0  0  0  0  0  0  0  0  0
   -0.2868   62.9374   84.2720 C   0  0  0  0  0  0  0  0  0  0  0  0
    0.2381   63.0955   82.9764 C   0  0  0  0  0  0  0  0  0  0  0  0
    0.9670   64.2526   82.6851 C   0  0  0  0  0  0  0  0  0  0  0  0
   -0.5614   63.6330   86.5600 N   0  0  0  0  0  0  0  0  0  0  0  0
    0.1113   63.5702   87.7612 C   0  0  0  0  0  0  0  0  0  0  0  0
   -0.7996   63.2356   88.9159 C   0  0  0  0  0  0  0  0  0  0  0  0
    1.3043   63.7837   87.9460 O   0  0  0  0  0  0  0  0  0  0  0  0
   -1.5660   63.4815   86.5624 H   0  0  0  0  0  0  0  0  0  0  0  0
   -1.0147   61.8365   84.6814 O   0  0  0  0  0  0  0  0  0  0  0  0
   -2.3993   61.9006   84.3422 C   0  0  0  0  0  0  0  0  0  0  0  0
    0.0151   62.0845   82.0792 O   0  0  0  0  0  0  0  0  0  0  0  0
    1.0689   61.1559   81.8539 C   0  0  0  0  0  0  0  0  0  0  0  0
    1.8022   69.5167   81.0167 C   0  0  0  0  0  0  0  0  0  0  0  0
    2.1011   69.0792   79.6971 O   0  0  0  0  0  0  0  0  0  0  0  0
    2.2176   68.1137   79.7260 H   0  0  0  0  0  0  0  0  0  0  0  0
    0.1340   67.1650   81.7286 C   0  0  0  0  0  0  0  0  0  0  0  0
    0.3419   66.6715   80.4117 O   0  0  0  0  0  0  0  0  0  0  0  0
   -0.5411   66.5630   80.0206 H   0  0  0  0  0  0  0  0  0  0  0  0
    8.1965   66.9771   84.9953 C   0  0  0  0  0  0  0  0  0  0  0  0
    7.0327   67.3182   85.7335 O   0  0  0  0  0  0  0  0  0  0  0  0
    5.6815   65.1862   86.4127 O   0  0  0  0  0  0  0  0  0  0  0  0
    5.1340   65.1651   87.7234 C   0  0  0  0  0  0  0  0  0  0  0  0
 32 33  1  0  0  0
 33  1  1  0  0  0
  1  2  1  0  0  0
  2  3  2  0  0  0
  3  4  1  0  0  0
  4  5  2  0  0  0
  5 26  1  0  0  0
 26 27  1  0  0  0
  5  6  1  0  0  0
  6 29  1  0  0  0
 29 30  1  0  0  0
  6  7  2  0  0  0
  7 11  1  0  0  0
 11 12  2  0  0  0
 12 13  1  0  0  0
 13 17  1  0  0  0
 17 18  1  0  0  0
 18 19  1  0  0  0
 18 20  2  0  0  0
 13 14  2  0  0  0
 14 22  1  0  0  0
 22 23  1  0  0  0
 14 15  1  0  0  0
 15 24  1  0  0  0
 24 25  1  0  0  0
 15 16  2  0  0  0
  7  8  1  0  0  0
  8  9  2  0  0  0
  9 10  1  0  0  0
 10 34  1  0  0  0
 34 35  1  0  0  0
 10  1  2  0  0  0
  8  3  1  0  0  0
 16 11  1  0  0  0
 27 28  1  0  0  0
 30 31  1  0  0  0
 17 21  1  0  0  0
M  END
> <minimizedAffinity>
-9.60343

$$$$



 35 37  0  0  0  0  0  0  0  0999 V2000
   -1.2783   62.9381   81.0366 C   0  0  0  0  0  0  0  0  0  0  0  0
   -1.8094   62.5661   82.2741 C   0  0  0  0  0  0  0  0  0  0  0  0
   -1.2718   63.0538   83.4796 C   0  0  0  0  0  0  0  0  0  0  0  0
   -1.8232   62.6500   84.7012 C   0  0  0  0  0  0  0  0  0  0  0  0
   -1.3151   63.0990   85.9293 C   0  0  0  0  0  0  0  0  0  0  0  0
   -0.2377   64.0124   85.9436 C   0  0  0  0  0  0  0  0  0  0  0  0
    0.3506   64.4197   84.7116 C   0  0  0  0  0  0  0  0  0  0  0  0
   -0.1740   63.9395   83.4662 C   0  0  0  0  0  0  0  0  0  0  0  0
    0.3509   64.2989   82.1980 C   0  0  0  0  0  0  0  0  0  0  0  0
   -0.1872   63.8173   80.9975 C   0  0  0  0  0  0  0  0  0  0  0  0
    1.5207   65.3250   84.7175 C   0  0  0  0  0  0  0  0  0  0  0  0
    1.3866   66.6713   84.3437 C   0  0  0  0  0  0  0  0  0  0  0  0
    2.4923   67.5206   84.3450 C   0  0  0  0  0  0  0  0  0  0  0  0
    3.7515   67.0211   84.7416 C   0  0  0  0  0  0  0  0  0  0  0  0
    3.9119   65.6672   85.0882 C   0  0  0  0  0  0  0  0  0  0  0  0
    2.7868   64.8368   85.0855 C   0  0  0  0  0  0  0  0  0  0  0  0
    2.4354   68.8812   83.9656 N   0  0  0  0  0  0  0  0  0  0  0  0
    2.2621   69.4106   82.7051 C   0  0  0  0  0  0  0  0  0  0  0  0
    2.2808   70.9187   82.7050 C   0  0  0  0  0  0  0  0  0  0  0  0
    2.0752   68.7863   81.6666 O   0  0  0  0  0  0  0  0  0  0  0  0
    2.5298   69.5224   84.7481 H   0  0  0  0  0  0  0  0  0  0  0  0
    4.7868   67.9354   84.6997 O   0  0  0  0  0  0  0  0  0  0  0  0
    5.2763   68.3132   85.9857 C   0  0  0  0  0  0  0  0  0  0  0  0
    5.1780   65.2405   85.3907 O   0  0  0  0  0  0  0  0  0  0  0  0
    5.4336   64.8226   86.7263 C   0  0  0  0  0  0  0  0  0  0  0  0
   -1.9732   62.6095   87.1974 C   0  0  0  0  0  0  0  0  0  0  0  0
   -3.2000   63.2951   87.4146 O   0  0  0  0  0  0  0  0  0  0  0  0
   -3.4912   63.6563   86.5594 H   0  0  0  0  0  0  0  0  0  0  0  0
    0.3058   64.5125   87.2658 C   0  0  0  0  0  0  0  0  0  0  0  0
    1.2095   63.5440   87.7818 O   0  0  0  0  0  0  0  0  0  0  0  0
    1.5234   63.8926   88.6328 H   0  0  0  0  0  0  0  0  0  0  0  0
   -3.0100   61.8504   79.7970 C   0  0  0  0  0  0  0  0  0  0  0  0
   -1.7488   62.5019   79.8233 O   0  0  0  0  0  0  0  0  0  0  0  0
    0.2882   64.1382   79.7497 O   0  0  0  0  0  0  0  0  0  0  0  0
    0.3332   65.5131   79.3948 C   0  0  0  0  0  0  0  0  0  0  0  0
 32 33  1  0  0  0
 33  1  1  0  0  0
  1  2  1  0  0  0
  2  3  2  0  0  0
  3  4  1  0  0  0
  4  5  2  0  0  0
  5 26  1  0  0  0
 26 27  1  0  0  0
  5  6  1  0  0  0
  6 29  1  0  0  0
 29 30  1  0  0  0
  6  7  2  0  0  0
  7 11  1  0  0  0
 11 12  2  0  0  0
 12 13  1  0  0  0
 13 17  1  0  0  0
 17 18  1  0  0  0
 18 19  1  0  0  0
 18 20  2  0  0  0
 13 14  2  0  0  0
 14 22  1  0  0  0
 22 23  1  0  0  0
 14 15  1  0  0  0
 15 24  1  0  0  0
 24 25  1  0  0  0
 15 16  2  0  0  0
  7  8  1  0  0  0
  8  9  2  0  0  0
  9 10  1  0  0  0
 10 34  1  0  0  0
 34 35  1  0  0  0
 10  1  2  0  0  0
  8  3  1  0  0  0
 16 11  1  0  0  0
 27 28  1  0  0  0
 30 31  1  0  0  0
 17 21  1  0  0  0
M  END
> <minimizedAffinity>
-9.45708

$$$$



 35 37  0  0  0  0  0  0  0  0999 V2000
    1.9726   69.7297   81.4749 C   0  0  0  0  0  0  0  0  0  0  0  0
    3.1315   69.6674   82.2527 C   0  0  0  0  0  0  0  0  0  0  0  0
    3.3781   68.5841   83.1161 C   0  0  0  0  0  0  0  0  0  0  0  0
    4.5451   68.5614   83.8887 C   0  0  0  0  0  0  0  0  0  0  0  0
    4.8299   67.5098   84.7725 C   0  0  0  0  0  0  0  0  0  0  0  0
    3.9358   66.4203   84.8675 C   0  0  0  0  0  0  0  0  0  0  0  0
    2.7325   66.4342   84.1047 C   0  0  0  0  0  0  0  0  0  0  0  0
    2.4521   67.5246   83.2163 C   0  0  0  0  0  0  0  0  0  0  0  0
    1.2809   67.6126   82.4204 C   0  0  0  0  0  0  0  0  0  0  0  0
    1.0375   68.6887   81.5571 C   0  0  0  0  0  0  0  0  0  0  0  0
    1.7583   65.3297   84.2451 C   0  0  0  0  0  0  0  0  0  0  0  0
    1.1488   65.0651   85.4814 C   0  0  0  0  0  0  0  0  0  0  0  0
    0.2352   64.0200   85.6120 C   0  0  0  0  0  0  0  0  0  0  0  0
   -0.0877   63.2347   84.4844 C   0  0  0  0  0  0  0  0  0  0  0  0
    0.5370   63.4641   83.2450 C   0  0  0  0  0  0  0  0  0  0  0  0
    1.4449   64.5222   83.1376 C   0  0  0  0  0  0  0  0  0  0  0  0
   -0.4041   63.6855   86.8277 N   0  0  0  0  0  0  0  0  0  0  0  0
    0.1636   63.5046   88.0703 C   0  0  0  0  0  0  0  0  0  0  0  0
   -0.8526   63.1294   89.1198 C   0  0  0  0  0  0  0  0  0  0  0  0
    1.3448   63.6487   88.3653 O   0  0  0  0  0  0  0  0  0  0  0  0
   -1.4108   63.5808   86.7384 H   0  0  0  0  0  0  0  0  0  0  0  0
   -0.9939   62.2176   84.7159 O   0  0  0  0  0  0  0  0  0  0  0  0
   -2.3218   62.5184   84.2887 C   0  0  0  0  0  0  0  0  0  0  0  0
    0.2265   62.6140   82.2166 O   0  0  0  0  0  0  0  0  0  0  0  0
    1.0341   61.4549   82.0500 C   0  0  0  0  0  0  0  0  0  0  0  0
    6.1130   67.5706   85.5665 C   0  0  0  0  0  0  0  0  0  0  0  0
    7.1831   67.0030   84.8217 O   0  0  0  0  0  0  0  0  0  0  0  0
    6.9300   67.0200   83.8824 H   0  0  0  0  0  0  0  0  0  0  0  0
    4.2447   65.2747   85.8087 C   0  0  0  0  0  0  0  0  0  0  0  0
    5.4337   64.6319   85.3681 O   0  0  0  0  0  0  0  0  0  0  0  0
    5.5892   63.8976   85.9853 H   0  0  0  0  0  0  0  0  0  0  0  0
    2.1988   72.0389   80.8960 C   0  0  0  0  0  0  0  0  0  0  0  0
    1.6656   70.7537   80.6140 O   0  0  0  0  0  0  0  0  0  0  0  0
   -0.0806   68.8149   80.7696 O   0  0  0  0  0  0  0  0  0  0  0  0
   -0.5776   67.6435   80.1380 C   0  0  0  0  0  0  0  0  0  0  0  0
 32 33  1  0  0  0
 33  1  1  0  0  0
  1  2  1  0  0  0
  2  3  2  0  0  0
  3  4  1  0  0  0
  4  5  2  0  0  0
  5 26  1  0  0  0
 26 27  1  0  0  0
  5  6  1  0  0  0
  6 29  1  0  0  0
 29 30  1  0  0  0
  6  7  2  0  0  0
  7 11  1  0  0  0
 11 12  2  0  0  0
 12 13  1  0  0  0
 13 17  1  0  0  0
 17 18  1  0  0  0
 18 19  1  0  0  0
 18 20  2  0  0  0
 13 14  2  0  0  0
 14 22  1  0  0  0
 22 23  1  0  0  0
 14 15  1  0  0  0
 15 24  1  0  0  0
 24 25  1  0  0  0
 15 16  2  0  0  0
  7  8  1  0  0  0
  8  9  2  0  0  0
  9 10  1  0  0  0
 10 34  1  0  0  0
 34 35  1  0  0  0
 10  1  2  0  0  0
  8  3  1  0  0  0
 16 11  1  0  0  0
 27 28  1  0  0  0
 30 31  1  0  0  0
 17 21  1  0  0  0
M  END
> <minimizedAffinity>
-9.22993

$$$$



 35 37  0  0  0  0  0  0  0  0999 V2000
    1.9616   69.5372   81.4339 C   0  0  0  0  0  0  0  0  0  0  0  0
    3.1295   69.4957   82.1995 C   0  0  0  0  0  0  0  0  0  0  0  0
    3.3727   68.4511   83.1104 C   0  0  0  0  0  0  0  0  0  0  0  0
    4.5492   68.4489   83.8688 C   0  0  0  0  0  0  0  0  0  0  0  0
    4.8313   67.4365   84.7981 C   0  0  0  0  0  0  0  0  0  0  0  0
    3.9241   66.3653   84.9557 C   0  0  0  0  0  0  0  0  0  0  0  0
    2.7114   66.3597   84.2080 C   0  0  0  0  0  0  0  0  0  0  0  0
    2.4340   67.4106   83.2723 C   0  0  0  0  0  0  0  0  0  0  0  0
    1.2539   67.4772   82.4875 C   0  0  0  0  0  0  0  0  0  0  0  0
    1.0137   68.5144   81.5771 C   0  0  0  0  0  0  0  0  0  0  0  0
    1.7244   65.2769   84.4128 C   0  0  0  0  0  0  0  0  0  0  0  0
    1.2500   64.5252   83.3265 C   0  0  0  0  0  0  0  0  0  0  0  0
    0.3157   63.5090   83.5220 C   0  0  0  0  0  0  0  0  0  0  0  0
   -0.1416   63.2275   84.8273 C   0  0  0  0  0  0  0  0  0  0  0  0
    0.2978   63.9912   85.9240 C   0  0  0  0  0  0  0  0  0  0  0  0
    1.2398   65.0006   85.7034 C   0  0  0  0  0  0  0  0  0  0  0  0
   -0.2180   62.7233   82.4748 N   0  0  0  0  0  0  0  0  0  0  0  0
    0.3720   61.6698   81.8106 C   0  0  0  0  0  0  0  0  0  0  0  0
   -0.5138   61.0993   80.7314 C   0  0  0  0  0  0  0  0  0  0  0  0
    1.4722   61.1806   82.0417 O   0  0  0  0  0  0  0  0  0  0  0  0
   -1.1611   62.9923   82.2092 H   0  0  0  0  0  0  0  0  0  0  0  0
   -1.0734   62.2111   84.9178 O   0  0  0  0  0  0  0  0  0  0  0  0
   -2.4195   62.6700   85.0347 C   0  0  0  0  0  0  0  0  0  0  0  0
   -0.2467   63.7059   87.1483 O   0  0  0  0  0  0  0  0  0  0  0  0
    0.6453   63.4071   88.2153 C   0  0  0  0  0  0  0  0  0  0  0  0
    6.1253   67.5169   85.5725 C   0  0  0  0  0  0  0  0  0  0  0  0
    7.1794   66.9053   84.8397 O   0  0  0  0  0  0  0  0  0  0  0  0
    6.9142   66.8844   83.9038 H   0  0  0  0  0  0  0  0  0  0  0  0
    4.2298   65.2614   85.9465 C   0  0  0  0  0  0  0  0  0  0  0  0
    5.3885   64.5644   85.5078 O   0  0  0  0  0  0  0  0  0  0  0  0
    5.5425   63.8587   86.1579 H   0  0  0  0  0  0  0  0  0  0  0  0
    1.8015   71.8728   80.9461 C   0  0  0  0  0  0  0  0  0  0  0  0
    1.6571   70.5234   80.5291 O   0  0  0  0  0  0  0  0  0  0  0  0
   -0.1126   68.6186   80.7983 O   0  0  0  0  0  0  0  0  0  0  0  0
   -0.5420   67.4576   80.1013 C   0  0  0  0  0  0  0  0  0  0  0  0
 32 33  1  0  0  0
 33  1  1  0  0  0
  1  2  1  0  0  0
  2  3  2  0  0  0
  3  4  1  0  0  0
  4  5  2  0  0  0
  5 26  1  0  0  0
 26 27  1  0  0  0
  5  6  1  0  0  0
  6 29  1  0  0  0
 29 30  1  0  0  0
  6  7  2  0  0  0
  7 11  1  0  0  0
 11 12  2  0  0  0
 12 13  1  0  0  0
 13 17  1  0  0  0
 17 18  1  0  0  0
 18 19  1  0  0  0
 18 20  2  0  0  0
 13 14  2  0  0  0
 14 22  1  0  0  0
 22 23  1  0  0  0
 14 15  1  0  0  0
 15 24  1  0  0  0
 24 25  1  0  0  0
 15 16  2  0  0  0
  7  8  1  0  0  0
  8  9  2  0  0  0
  9 10  1  0  0  0
 10 34  1  0  0  0
 34 35  1  0  0  0
 10  1  2  0  0  0
  8  3  1  0  0  0
 16 11  1  0  0  0
 27 28  1  0  0  0
 30 31  1  0  0  0
 17 21  1  0  0  0
M  END
> <minimizedAffinity>
-8.86695

$$$$



 35 37  0  0  0  0  0  0  0  0999 V2000
   -1.9164   61.6348   81.3392 C   0  0  0  0  0  0  0  0  0  0  0  0
   -2.1265   61.4034   82.7009 C   0  0  0  0  0  0  0  0  0  0  0  0
   -1.5178   62.2056   83.6837 C   0  0  0  0  0  0  0  0  0  0  0  0
   -1.7428   61.9367   85.0389 C   0  0  0  0  0  0  0  0  0  0  0  0
   -1.1495   62.7001   86.0554 C   0  0  0  0  0  0  0  0  0  0  0  0
   -0.3268   63.7957   85.7117 C   0  0  0  0  0  0  0  0  0  0  0  0
   -0.0691   64.0734   84.3383 C   0  0  0  0  0  0  0  0  0  0  0  0
   -0.6739   63.2735   83.3130 C   0  0  0  0  0  0  0  0  0  0  0  0
   -0.4721   63.4857   81.9248 C   0  0  0  0  0  0  0  0  0  0  0  0
   -1.0818   62.6902   80.9460 C   0  0  0  0  0  0  0  0  0  0  0  0
    0.8427   65.1781   83.9684 C   0  0  0  0  0  0  0  0  0  0  0  0
    1.9129   65.5338   84.8040 C   0  0  0  0  0  0  0  0  0  0  0  0
    2.7673   66.5790   84.4553 C   0  0  0  0  0  0  0  0  0  0  0  0
    2.5591   67.2714   83.2430 C   0  0  0  0  0  0  0  0  0  0  0  0
    1.4729   66.9506   82.4085 C   0  0  0  0  0  0  0  0  0  0  0  0
    0.6340   65.8943   82.7766 C   0  0  0  0  0  0  0  0  0  0  0  0
    3.8538   67.0026   85.2545 N   0  0  0  0  0  0  0  0  0  0  0  0
    4.9970   66.3060   85.5815 C   0  0  0  0  0  0  0  0  0  0  0  0
    5.9158   67.0944   86.4809 C   0  0  0  0  0  0  0  0  0  0  0  0
    5.3096   65.1856   85.1938 O   0  0  0  0  0  0  0  0  0  0  0  0
    3.7484   67.9487   85.6095 H   0  0  0  0  0  0  0  0  0  0  0  0
    3.4505   68.2966   82.9906 O   0  0  0  0  0  0  0  0  0  0  0  0
    2.9242   69.5971   83.2513 C   0  0  0  0  0  0  0  0  0  0  0  0
    1.2941   67.7155   81.2861 O   0  0  0  0  0  0  0  0  0  0  0  0
    0.0697   67.5718   80.5763 C   0  0  0  0  0  0  0  0  0  0  0  0
   -1.4488   62.3362   87.4902 C   0  0  0  0  0  0  0  0  0  0  0  0
   -2.7436   62.7954   87.8574 O   0  0  0  0  0  0  0  0  0  0  0  0
   -3.2530   62.9262   87.0388 H   0  0  0  0  0  0  0  0  0  0  0  0
    0.3047   64.6330   86.8044 C   0  0  0  0  0  0  0  0  0  0  0  0
    1.3281   63.8690   87.4289 O   0  0  0  0  0  0  0  0  0  0  0  0
    1.6969   64.4319   88.1299 H   0  0  0  0  0  0  0  0  0  0  0  0
   -3.2402   59.7535   80.6857 C   0  0  0  0  0  0  0  0  0  0  0  0
   -2.4741   60.8939   80.3273 O   0  0  0  0  0  0  0  0  0  0  0  0
   -0.9150   62.8593   79.5934 O   0  0  0  0  0  0  0  0  0  0  0  0
    0.1756   63.6590   79.1585 C   0  0  0  0  0  0  0  0  0  0  0  0
 32 33  1  0  0  0
 33  1  1  0  0  0
  1  2  1  0  0  0
  2  3  2  0  0  0
  3  4  1  0  0  0
  4  5  2  0  0  0
  5 26  1  0  0  0
 26 27  1  0  0  0
  5  6  1  0  0  0
  6 29  1  0  0  0
 29 30  1  0  0  0
  6  7  2  0  0  0
  7 11  1  0  0  0
 11 12  2  0  0  0
 12 13  1  0  0  0
 13 17  1  0  0  0
 17 18  1  0  0  0
 18 19  1  0  0  0
 18 20  2  0  0  0
 13 14  2  0  0  0
 14 22  1  0  0  0
 22 23  1  0  0  0
 14 15  1  0  0  0
 15 24  1  0  0  0
 24 25  1  0  0  0
 15 16  2  0  0  0
  7  8  1  0  0  0
  8  9  2  0  0  0
  9 10  1  0  0  0
 10 34  1  0  0  0
 34 35  1  0  0  0
 10  1  2  0  0  0
  8  3  1  0  0  0
 16 11  1  0  0  0
 27 28  1  0  0  0
 30 31  1  0  0  0
 17 21  1  0  0  0
M  END
> <minimizedAffinity>
-8.85186

$$$$



 35 37  0  0  0  0  0  0  0  0999 V2000
    5.7537   67.1962   85.1134 C   0  0  0  0  0  0  0  0  0  0  0  0
    5.2175   68.1152   84.2080 C   0  0  0  0  0  0  0  0  0  0  0  0
    3.9760   67.8918   83.5846 C   0  0  0  0  0  0  0  0  0  0  0  0
    3.4756   68.8299   82.6741 C   0  0  0  0  0  0  0  0  0  0  0  0
    2.2491   68.6466   82.0182 C   0  0  0  0  0  0  0  0  0  0  0  0
    1.4725   67.5018   82.3039 C   0  0  0  0  0  0  0  0  0  0  0  0
    1.9736   66.5252   83.2123 C   0  0  0  0  0  0  0  0  0  0  0  0
    3.2361   66.7236   83.8631 C   0  0  0  0  0  0  0  0  0  0  0  0
    3.8032   65.8032   84.7819 C   0  0  0  0  0  0  0  0  0  0  0  0
    5.0369   66.0277   85.4064 C   0  0  0  0  0  0  0  0  0  0  0  0
    1.1985   65.2916   83.4693 C   0  0  0  0  0  0  0  0  0  0  0  0
    0.9894   64.3513   82.4485 C   0  0  0  0  0  0  0  0  0  0  0  0
    0.2538   63.1922   82.6923 C   0  0  0  0  0  0  0  0  0  0  0  0
   -0.2692   62.9600   83.9826 C   0  0  0  0  0  0  0  0  0  0  0  0
   -0.0977   63.9061   85.0096 C   0  0  0  0  0  0  0  0  0  0  0  0
    0.6493   65.0575   84.7423 C   0  0  0  0  0  0  0  0  0  0  0  0
   -0.0105   62.2108   81.7097 N   0  0  0  0  0  0  0  0  0  0  0  0
   -0.9333   62.2520   80.6870 C   0  0  0  0  0  0  0  0  0  0  0  0
   -0.9307   60.9931   79.8564 C   0  0  0  0  0  0  0  0  0  0  0  0
   -1.6775   63.1854   80.4076 O   0  0  0  0  0  0  0  0  0  0  0  0
    0.5788   61.3874   81.7935 H   0  0  0  0  0  0  0  0  0  0  0  0
   -0.9918   61.7906   84.1227 O   0  0  0  0  0  0  0  0  0  0  0  0
   -2.4061   61.9796   84.1051 C   0  0  0  0  0  0  0  0  0  0  0  0
   -0.6970   63.6441   86.2133 O   0  0  0  0  0  0  0  0  0  0  0  0
    0.0059   64.0086   87.3951 C   0  0  0  0  0  0  0  0  0  0  0  0
    1.7891   69.7114   81.0512 C   0  0  0  0  0  0  0  0  0  0  0  0
    2.1763   69.3757   79.7247 O   0  0  0  0  0  0  0  0  0  0  0  0
    2.3364   68.4164   79.6983 H   0  0  0  0  0  0  0  0  0  0  0  0
    0.1405   67.3053   81.6104 C   0  0  0  0  0  0  0  0  0  0  0  0
    0.3813   66.9036   80.2682 O   0  0  0  0  0  0  0  0  0  0  0  0
   -0.4923   66.8028   79.8547 H   0  0  0  0  0  0  0  0  0  0  0  0
    8.1353   66.9895   85.0501 C   0  0  0  0  0  0  0  0  0  0  0  0
    6.9568   67.3466   85.7567 O   0  0  0  0  0  0  0  0  0  0  0  0
    5.6227   65.1656   86.3007 O   0  0  0  0  0  0  0  0  0  0  0  0
    5.0879   65.1163   87.6159 C   0  0  0  0  0  0  0  0  0  0  0  0
 32 33  1  0  0  0
 33  1  1  0  0  0
  1  2  1  0  0  0
  2  3  2  0  0  0
  3  4  1  0  0  0
  4  5  2  0  0  0
  5 26  1  0  0  0
 26 27  1  0  0  0
  5  6  1  0  0  0
  6 29  1  0  0  0
 29 30  1  0  0  0
  6  7  2  0  0  0
  7 11  1  0  0  0
 11 12  2  0  0  0
 12 13  1  0  0  0
 13 17  1  0  0  0
 17 18  1  0  0  0
 18 19  1  0  0  0
 18 20  2  0  0  0
 13 14  2  0  0  0
 14 22  1  0  0  0
 22 23  1  0  0  0
 14 15  1  0  0  0
 15 24  1  0  0  0
 24 25  1  0  0  0
 15 16  2  0  0  0
  7  8  1  0  0  0
  8  9  2  0  0  0
  9 10  1  0  0  0
 10 34  1  0  0  0
 34 35  1  0  0  0
 10  1  2  0  0  0
  8  3  1  0  0  0
 16 11  1  0  0  0
 27 28  1  0  0  0
 30 31  1  0  0  0
 17 21  1  0  0  0
M  END
> <minimizedAffinity>
-8.84950

$$$$



 35 37  0  0  0  0  0  0  0  0999 V2000
    1.7718   69.6487   81.4416 C   0  0  0  0  0  0  0  0  0  0  0  0
    2.9396   69.6012   82.2070 C   0  0  0  0  0  0  0  0  0  0  0  0
    3.2197   68.5106   83.0509 C   0  0  0  0  0  0  0  0  0  0  0  0
    4.3947   68.5030   83.8116 C   0  0  0  0  0  0  0  0  0  0  0  0
    4.7125   67.4447   84.6759 C   0  0  0  0  0  0  0  0  0  0  0  0
    3.8447   66.3335   84.7624 C   0  0  0  0  0  0  0  0  0  0  0  0
    2.6338   66.3313   84.0117 C   0  0  0  0  0  0  0  0  0  0  0  0
    2.3194   67.4285   83.1434 C   0  0  0  0  0  0  0  0  0  0  0  0
    1.1385   67.5018   82.3605 C   0  0  0  0  0  0  0  0  0  0  0  0
    0.8617   68.5852   81.5166 C   0  0  0  0  0  0  0  0  0  0  0  0
    1.6867   65.2025   84.1443 C   0  0  0  0  0  0  0  0  0  0  0  0
    1.4165   64.3622   83.0530 C   0  0  0  0  0  0  0  0  0  0  0  0
    0.5192   63.3026   83.1795 C   0  0  0  0  0  0  0  0  0  0  0  0
   -0.1078   63.0679   84.4221 C   0  0  0  0  0  0  0  0  0  0  0  0
    0.1256   63.9186   85.5179 C   0  0  0  0  0  0  0  0  0  0  0  0
    1.0345   64.9705   85.3681 C   0  0  0  0  0  0  0  0  0  0  0  0
    0.1866   62.4270   82.1206 N   0  0  0  0  0  0  0  0  0  0  0  0
   -0.5861   62.6847   81.0090 C   0  0  0  0  0  0  0  0  0  0  0  0
   -0.7297   61.4792   80.1140 C   0  0  0  0  0  0  0  0  0  0  0  0
   -1.0992   63.7557   80.7046 O   0  0  0  0  0  0  0  0  0  0  0  0
    0.5926   61.5009   82.2205 H   0  0  0  0  0  0  0  0  0  0  0  0
   -0.9873   62.0024   84.4452 O   0  0  0  0  0  0  0  0  0  0  0  0
   -2.3583   62.3823   84.3352 C   0  0  0  0  0  0  0  0  0  0  0  0
   -0.5756   63.6702   86.6683 O   0  0  0  0  0  0  0  0  0  0  0  0
    0.1593   63.5709   87.8822 C   0  0  0  0  0  0  0  0  0  0  0  0
    6.0018   67.5228   85.4582 C   0  0  0  0  0  0  0  0  0  0  0  0
    5.7896   68.1890   86.6965 O   0  0  0  0  0  0  0  0  0  0  0  0
    4.8396   68.1369   86.9002 H   0  0  0  0  0  0  0  0  0  0  0  0
    4.1893   65.1809   85.6825 C   0  0  0  0  0  0  0  0  0  0  0  0
    4.2898   65.6743   87.0119 O   0  0  0  0  0  0  0  0  0  0  0  0
    4.5255   64.9121   87.5667 H   0  0  0  0  0  0  0  0  0  0  0  0
    1.1695   71.9479   81.1786 C   0  0  0  0  0  0  0  0  0  0  0  0
    1.4326   70.6784   80.5999 O   0  0  0  0  0  0  0  0  0  0  0  0
   -0.2669   68.6976   80.7421 O   0  0  0  0  0  0  0  0  0  0  0  0
   -0.7354   67.5278   80.0861 C   0  0  0  0  0  0  0  0  0  0  0  0
 32 33  1  0  0  0
 33  1  1  0  0  0
  1  2  1  0  0  0
  2  3  2  0  0  0
  3  4  1  0  0  0
  4  5  2  0  0  0
  5 26  1  0  0  0
 26 27  1  0  0  0
  5  6  1  0  0  0
  6 29  1  0  0  0
 29 30  1  0  0  0
  6  7  2  0  0  0
  7 11  1  0  0  0
 11 12  2  0  0  0
 12 13  1  0  0  0
 13 17  1  0  0  0
 17 18  1  0  0  0
 18 19  1  0  0  0
 18 20  2  0  0  0
 13 14  2  0  0  0
 14 22  1  0  0  0
 22 23  1  0  0  0
 14 15  1  0  0  0
 15 24  1  0  0  0
 24 25  1  0  0  0
 15 16  2  0  0  0
  7  8  1  0  0  0
  8  9  2  0  0  0
  9 10  1  0  0  0
 10 34  1  0  0  0
 34 35  1  0  0  0
 10  1  2  0  0  0
  8  3  1  0  0  0
 16 11  1  0  0  0
 27 28  1  0  0  0
 30 31  1  0  0  0
 17 21  1  0  0  0
M  END
> <minimizedAffinity>
-8.73835

$$$$



 35 37  0  0  0  0  0  0  0  0999 V2000
    2.3469   67.4374   82.8969 C   0  0  0  0  0  0  0  0  0  0  0  0
    2.0538   66.9414   84.1697 C   0  0  0  0  0  0  0  0  0  0  0  0
    1.2886   65.7734   84.3435 C   0  0  0  0  0  0  0  0  0  0  0  0
    1.0054   65.3126   85.6346 C   0  0  0  0  0  0  0  0  0  0  0  0
    0.2373   64.1605   85.8596 C   0  0  0  0  0  0  0  0  0  0  0  0
   -0.2402   63.4173   84.7573 C   0  0  0  0  0  0  0  0  0  0  0  0
    0.0200   63.8808   83.4355 C   0  0  0  0  0  0  0  0  0  0  0  0
    0.7960   65.0685   83.2254 C   0  0  0  0  0  0  0  0  0  0  0  0
    1.1026   65.5940   81.9437 C   0  0  0  0  0  0  0  0  0  0  0  0
    1.8684   66.7542   81.7702 C   0  0  0  0  0  0  0  0  0  0  0  0
   -0.5302   63.1460   82.2753 C   0  0  0  0  0  0  0  0  0  0  0  0
   -0.6337   63.7642   81.0194 C   0  0  0  0  0  0  0  0  0  0  0  0
   -1.1578   63.0708   79.9292 C   0  0  0  0  0  0  0  0  0  0  0  0
   -1.5716   61.7311   80.0918 C   0  0  0  0  0  0  0  0  0  0  0  0
   -1.5058   61.1053   81.3500 C   0  0  0  0  0  0  0  0  0  0  0  0
   -0.9704   61.8192   82.4265 C   0  0  0  0  0  0  0  0  0  0  0  0
   -1.3070   63.6337   78.6410 N   0  0  0  0  0  0  0  0  0  0  0  0
   -0.3704   63.7242   77.6341 C   0  0  0  0  0  0  0  0  0  0  0  0
   -0.9072   64.4187   76.4075 C   0  0  0  0  0  0  0  0  0  0  0  0
    0.7733   63.2830   77.6541 O   0  0  0  0  0  0  0  0  0  0  0  0
   -2.2380   64.0014   78.4670 H   0  0  0  0  0  0  0  0  0  0  0  0
   -2.0863   61.1328   78.9576 O   0  0  0  0  0  0  0  0  0  0  0  0
   -1.2052   60.1872   78.3527 C   0  0  0  0  0  0  0  0  0  0  0  0
   -1.9942   59.8289   81.4445 O   0  0  0  0  0  0  0  0  0  0  0  0
   -3.0269   59.5845   82.3918 C   0  0  0  0  0  0  0  0  0  0  0  0
   -0.0183   63.7389   87.2870 C   0  0  0  0  0  0  0  0  0  0  0  0
    1.1830   63.8054   88.0452 O   0  0  0  0  0  0  0  0  0  0  0  0
    1.7903   64.4088   87.5827 H   0  0  0  0  0  0  0  0  0  0  0  0
   -1.0575   62.1643   84.9934 C   0  0  0  0  0  0  0  0  0  0  0  0
   -2.3963   62.5427   85.2857 O   0  0  0  0  0  0  0  0  0  0  0  0
   -2.8827   61.7166   85.4448 H   0  0  0  0  0  0  0  0  0  0  0  0
    2.5164   69.8201   83.0098 C   0  0  0  0  0  0  0  0  0  0  0  0
    3.0841   68.5689   82.6518 O   0  0  0  0  0  0  0  0  0  0  0  0
    2.1891   67.2977   80.5505 O   0  0  0  0  0  0  0  0  0  0  0  0
    1.8116   66.5752   79.3870 C   0  0  0  0  0  0  0  0  0  0  0  0
 32 33  1  0  0  0
 33  1  1  0  0  0
  1  2  1  0  0  0
  2  3  2  0  0  0
  3  4  1  0  0  0
  4  5  2  0  0  0
  5 26  1  0  0  0
 26 27  1  0  0  0
  5  6  1  0  0  0
  6 29  1  0  0  0
 29 30  1  0  0  0
  6  7  2  0  0  0
  7 11  1  0  0  0
 11 12  2  0  0  0
 12 13  1  0  0  0
 13 17  1  0  0  0
 17 18  1  0  0  0
 18 19  1  0  0  0
 18 20  2  0  0  0
 13 14  2  0  0  0
 14 22  1  0  0  0
 22 23  1  0  0  0
 14 15  1  0  0  0
 15 24  1  0  0  0
 24 25  1  0  0  0
 15 16  2  0  0  0
  7  8  1  0  0  0
  8  9  2  0  0  0
  9 10  1  0  0  0
 10 34  1  0  0  0
 34 35  1  0  0  0
 10  1  2  0  0  0
  8  3  1  0  0  0
 16 11  1  0  0  0
 27 28  1  0  0  0
 30 31  1  0  0  0
 17 21  1  0  0  0
M  END
> <minimizedAffinity>
-8.56889

$$$$



 35 37  0  0  0  0  0  0  0  0999 V2000
    1.2628   68.2264   80.7767 C   0  0  0  0  0  0  0  0  0  0  0  0
    0.9053   67.0872   80.0511 C   0  0  0  0  0  0  0  0  0  0  0  0
    0.6500   65.8602   80.6908 C   0  0  0  0  0  0  0  0  0  0  0  0
    0.3052   64.7371   79.9299 C   0  0  0  0  0  0  0  0  0  0  0  0
    0.0529   63.4897   80.5201 C   0  0  0  0  0  0  0  0  0  0  0  0
    0.1123   63.3610   81.9255 C   0  0  0  0  0  0  0  0  0  0  0  0
    0.4814   64.4872   82.7162 C   0  0  0  0  0  0  0  0  0  0  0  0
    0.7488   65.7513   82.0938 C   0  0  0  0  0  0  0  0  0  0  0  0
    1.1179   66.9201   82.8083 C   0  0  0  0  0  0  0  0  0  0  0  0
    1.3675   68.1430   82.1721 C   0  0  0  0  0  0  0  0  0  0  0  0
    0.6099   64.3471   84.1834 C   0  0  0  0  0  0  0  0  0  0  0  0
    1.8350   64.5948   84.8220 C   0  0  0  0  0  0  0  0  0  0  0  0
    1.9545   64.4566   86.2042 C   0  0  0  0  0  0  0  0  0  0  0  0
    0.8267   64.0795   86.9646 C   0  0  0  0  0  0  0  0  0  0  0  0
   -0.4009   63.7956   86.3389 C   0  0  0  0  0  0  0  0  0  0  0  0
   -0.4974   63.9477   84.9523 C   0  0  0  0  0  0  0  0  0  0  0  0
    3.1589   64.6731   86.9120 N   0  0  0  0  0  0  0  0  0  0  0  0
    4.3619   65.1408   86.4291 C   0  0  0  0  0  0  0  0  0  0  0  0
    5.4242   65.2119   87.4974 C   0  0  0  0  0  0  0  0  0  0  0  0
    4.6003   65.5063   85.2833 O   0  0  0  0  0  0  0  0  0  0  0  0
    3.0902   64.4531   87.9016 H   0  0  0  0  0  0  0  0  0  0  0  0
    1.0470   63.9588   88.3234 O   0  0  0  0  0  0  0  0  0  0  0  0
    0.6647   62.6933   88.8605 C   0  0  0  0  0  0  0  0  0  0  0  0
   -1.4287   63.3648   87.1356 O   0  0  0  0  0  0  0  0  0  0  0  0
   -2.4852   62.6399   86.5175 C   0  0  0  0  0  0  0  0  0  0  0  0
   -0.3117   62.3333   79.6198 C   0  0  0  0  0  0  0  0  0  0  0  0
    0.8194   61.4988   79.4038 O   0  0  0  0  0  0  0  0  0  0  0  0
    1.4484   61.6618   80.1279 H   0  0  0  0  0  0  0  0  0  0  0  0
   -0.1736   62.0206   82.5700 C   0  0  0  0  0  0  0  0  0  0  0  0
    1.0024   61.2244   82.5049 O   0  0  0  0  0  0  0  0  0  0  0  0
    0.7754   60.3721   82.9127 H   0  0  0  0  0  0  0  0  0  0  0  0
    2.8318   69.6808   79.7083 C   0  0  0  0  0  0  0  0  0  0  0  0
    1.5277   69.4532   80.2213 O   0  0  0  0  0  0  0  0  0  0  0  0
    1.7267   69.2977   82.8229 O   0  0  0  0  0  0  0  0  0  0  0  0
    2.9552   69.2975   83.5364 C   0  0  0  0  0  0  0  0  0  0  0  0
 32 33  1  0  0  0
 33  1  1  0  0  0
  1  2  1  0  0  0
  2  3  2  0  0  0
  3  4  1  0  0  0
  4  5  2  0  0  0
  5 26  1  0  0  0
 26 27  1  0  0  0
  5  6  1  0  0  0
  6 29  1  0  0  0
 29 30  1  0  0  0
  6  7  2  0  0  0
  7 11  1  0  0  0
 11 12  2  0  0  0
 12 13  1  0  0  0
 13 17  1  0  0  0
 17 18  1  0  0  0
 18 19  1  0  0  0
 18 20  2  0  0  0
 13 14  2  0  0  0
 14 22  1  0  0  0
 22 23  1  0  0  0
 14 15  1  0  0  0
 15 24  1  0  0  0
 24 25  1  0  0  0
 15 16  2  0  0  0
  7  8  1  0  0  0
  8  9  2  0  0  0
  9 10  1  0  0  0
 10 34  1  0  0  0
 34 35  1  0  0  0
 10  1  2  0  0  0
  8  3  1  0  0  0
 16 11  1  0  0  0
 27 28  1  0  0  0
 30 31  1  0  0  0
 17 21  1  0  0  0
M  END
> <minimizedAffinity>
-8.37838

$$$$
