
     RDKit          3D

 37 41  0  0  0  0  0  0  0  0999 V2000
    0.1392   66.2098   80.9631 N   0  0  0  0  0  0  0  0  0  0  0  0
   -0.9835   65.4848   81.1600 N   0  0  0  0  0  0  0  0  0  0  0  0
   -0.7817   64.9320   82.3608 C   0  0  0  0  0  0  0  0  0  0  0  0
    0.4438   65.3188   82.9598 C   0  0  0  0  0  0  0  0  0  0  0  0
    1.1593   65.0805   84.1732 C   0  0  0  0  0  0  0  0  0  0  0  0
    0.6683   64.3098   85.2494 C   0  0  0  0  0  0  0  0  0  0  0  0
    1.4455   64.0988   86.3295 N   0  0  0  0  0  0  0  0  0  0  0  0
    2.7027   64.6476   86.4245 N   0  0  0  0  0  0  0  0  0  0  0  0
    3.2105   65.4089   85.4325 C   0  0  0  0  0  0  0  0  0  0  0  0
    2.4469   65.6598   84.2776 C   0  0  0  0  0  0  0  0  0  0  0  0
    2.8856   66.4767   83.2219 C   0  0  0  0  0  0  0  0  0  0  0  0
    2.2192   66.7571   82.0758 N   0  0  0  0  0  0  0  0  0  0  0  0
    1.0262   66.1410   82.0045 C   0  0  0  0  0  0  0  0  0  0  0  0
    4.5253   65.9309   85.5545 N   0  0  0  0  0  0  0  0  0  0  0  0
    4.5271   67.3227   86.0130 C   0  0  0  0  0  0  0  0  0  0  0  0
    5.9225   67.9079   85.7743 C   0  0  0  0  0  0  0  0  0  0  0  0
    7.0480   66.8782   85.9786 C   0  0  0  0  0  0  0  0  0  0  0  0
    6.5984   65.7487   86.9117 C   0  0  0  0  0  0  0  0  0  0  0  0
    5.3334   65.0360   86.4110 C   0  0  0  0  0  0  0  0  0  0  0  0
    7.5366   66.3147   84.6577 C   0  0  0  0  0  0  0  0  0  0  0  0
    8.2378   65.3310   84.4879 O   0  0  0  0  0  0  0  0  0  0  0  0
    7.1753   67.0745   83.6043 O   0  0  0  0  0  0  0  0  0  0  0  0
    7.5697   66.6131   82.8344 H   0  0  0  0  0  0  0  0  0  0  0  0
   -0.2118   68.3758   79.8479 C   0  0  0  0  0  0  0  0  0  0  0  0
    0.3127   66.9558   79.7337 C   0  0  0  0  0  0  0  0  0  0  0  0
   -0.6332   63.7701   85.2079 N   0  0  0  0  0  0  0  0  0  0  0  0
   -1.1534   64.1272   86.0058 H   0  0  0  0  0  0  0  0  0  0  0  0
   -0.6838   62.3135   85.1694 C   0  0  0  0  0  0  0  0  0  0  0  0
   -0.7993   61.8783   83.7265 C   0  0  0  0  0  0  0  0  0  0  0  0
    0.3419   61.6521   82.9476 C   0  0  0  0  0  0  0  0  0  0  0  0
    0.2281   61.2344   81.6155 C   0  0  0  0  0  0  0  0  0  0  0  0
   -1.0294   61.0300   81.0377 C   0  0  0  0  0  0  0  0  0  0  0  0
   -2.1731   61.2503   81.8215 C   0  0  0  0  0  0  0  0  0  0  0  0
   -3.7636   61.0153   81.1823 Cl  0  0  0  0  0  0  0  0  0  0  0  0
   -2.0599   61.6674   83.1514 C   0  0  0  0  0  0  0  0  0  0  0  0
   -1.2334   60.6240   79.7447 O   0  0  0  0  0  0  0  0  0  0  0  0
   -0.5184   61.2984   78.7187 C   0  0  0  0  0  0  0  0  0  0  0  0
 24 25  1  0
 25  1  1  0
  1  2  1  0
  2  3  2  0
  3  4  1  0
  4  5  1  0
  5  6  2  0
  6 26  1  0
 26 28  1  0
 28 29  1  0
 29 30  1  0
 30 31  2  0
 31 32  1  0
 32 36  1  0
 36 37  1  0
 32 33  2  0
 33 34  1  0
 33 35  1  0
  6  7  1  0
  7  8  2  0
  8  9  1  0
  9 14  1  0
 14 15  1  0
 15 16  1  0
 16 17  1  0
 17 20  1  0
 20 21  2  0
 20 22  1  0
 17 18  1  0
 18 19  1  0
  9 10  2  0
 10 11  1  0
 11 12  2  0
 12 13  1  0
 13  1  1  0
 13  4  2  0
 10  5  1  0
 35 29  2  0
 19 14  1  0
 26 27  1  0
 22 23  1  0
M  END
>  <minimizedAffinity>  (1) 
-9.49163

$$$$
