


 37 43  0  0  0  0  0  0  0  0999 V2000
    2.4259   68.5153   81.9566 N   0  0  0  0  0  0  0  0  0  0  0  0
    1.3358   68.0096   81.2145 C   0  0  0  0  0  0  0  0  0  0  0  0
    0.8141   68.6204   80.2828 O   0  0  0  0  0  0  0  0  0  0  0  0
    0.8537   66.7005   81.6647 C   0  0  0  0  0  0  0  0  0  0  0  0
   -0.2161   65.9870   81.1932 N   0  0  0  0  0  0  0  0  0  0  0  0
   -0.2699   64.8901   81.9303 C   0  0  0  0  0  0  0  0  0  0  0  0
    0.7647   64.8644   82.8627 N   0  0  0  0  0  0  0  0  0  0  0  0
    1.4610   66.0354   82.7070 C   0  0  0  0  0  0  0  0  0  0  0  0
    2.5227   66.5607   83.3549 N   0  0  0  0  0  0  0  0  0  0  0  0
    3.1025   66.1725   84.6187 C   0  0  0  0  0  0  0  0  0  0  0  0
    4.1799   67.2721   84.8036 C   0  0  0  0  0  0  0  0  0  0  0  0
    4.1793   67.8708   86.2265 C   0  0  0  0  0  0  0  0  0  0  0  0
    5.6040   68.3828   86.4824 C   0  0  0  0  0  0  0  0  0  0  0  0
    6.4093   67.4260   85.6601 C   0  0  0  0  0  0  0  0  0  0  0  0
    7.7696   67.1779   85.7378 C   0  0  0  0  0  0  0  0  0  0  0  0
    8.3332   66.2837   84.8258 C   0  0  0  0  0  0  0  0  0  0  0  0
    7.5407   65.6692   83.8444 C   0  0  0  0  0  0  0  0  0  0  0  0
    6.1719   65.9353   83.7655 C   0  0  0  0  0  0  0  0  0  0  0  0
    5.6113   66.8068   84.6888 C   0  0  0  0  0  0  0  0  0  0  0  0
    3.8855   68.3497   83.8075 N   0  0  0  0  0  0  0  0  0  0  0  0
    2.9685   67.8288   83.0379 C   0  0  0  0  0  0  0  0  0  0  0  0
    2.1746   70.9341   82.3654 C   0  0  0  0  0  0  0  0  0  0  0  0
    2.9244   69.8415   81.6167 C   0  0  0  0  0  0  0  0  0  0  0  0
   -1.3285   63.8319   81.7884 C   0  0  0  0  0  0  0  0  0  0  0  0
   -1.1596   62.9357   80.5812 C   0  0  0  0  0  0  0  0  0  0  0  0
   -2.2712   62.2856   80.0234 C   0  0  0  0  0  0  0  0  0  0  0  0
   -2.1245   61.4651   78.9039 C   0  0  0  0  0  0  0  0  0  0  0  0
   -0.8694   61.2948   78.3228 C   0  0  0  0  0  0  0  0  0  0  0  0
    0.2388   61.9501   78.8553 C   0  0  0  0  0  0  0  0  0  0  0  0
    0.0947   62.7712   79.9744 C   0  0  0  0  0  0  0  0  0  0  0  0
    1.0591   63.7499   83.7494 C   0  0  0  0  0  0  0  0  0  0  0  0
    0.2287   63.7276   85.0116 C   0  0  0  0  0  0  0  0  0  0  0  0
    0.5933   64.4180   86.1780 C   0  0  0  0  0  0  0  0  0  0  0  0
   -0.1949   64.3395   87.3282 C   0  0  0  0  0  0  0  0  0  0  0  0
   -1.3495   63.5612   87.3341 C   0  0  0  0  0  0  0  0  0  0  0  0
   -1.7166   62.8565   86.1910 C   0  0  0  0  0  0  0  0  0  0  0  0
   -0.9307   62.9344   85.0401 C   0  0  0  0  0  0  0  0  0  0  0  0
 22 23  1  0  0  0
 23  1  1  0  0  0
  1  2  1  0  0  0
  2  3  2  0  0  0
  2  4  1  0  0  0
  4  5  1  0  0  0
  5  6  2  0  0  0
  6 24  1  0  0  0
 24 25  1  0  0  0
 25 26  2  0  0  0
 26 27  1  0  0  0
 27 28  2  0  0  0
 28 29  1  0  0  0
 29 30  2  0  0  0
  6  7  1  0  0  0
  7 31  1  0  0  0
 31 32  1  0  0  0
 32 33  2  0  0  0
 33 34  1  0  0  0
 34 35  2  0  0  0
 35 36  1  0  0  0
 36 37  2  0  0  0
  7  8  1  0  0  0
  8  9  1  0  0  0
  9 10  1  0  0  0
 10 11  1  0  0  0
 11 12  1  0  0  0
 12 13  1  0  0  0
 13 14  1  0  0  0
 14 15  2  0  0  0
 15 16  1  0  0  0
 16 17  2  0  0  0
 17 18  1  0  0  0
 18 19  2  0  0  0
 11 20  1  0  0  0
 20 21  2  0  0  0
 21  1  1  0  0  0
  8  4  2  0  0  0
 21  9  1  0  0  0
 30 25  1  0  0  0
 37 32  1  0  0  0
 19 11  1  0  0  0
 19 14  1  0  0  0
M  END
> <minimizedAffinity>
-10.44987

$$$$



 37 43  0  0  0  0  0  0  0  0999 V2000
    0.0855   66.1617   80.2631 N   0  0  0  0  0  0  0  0  0  0  0  0
    0.6334   66.9147   81.3249 C   0  0  0  0  0  0  0  0  0  0  0  0
    0.8504   68.1233   81.2517 O   0  0  0  0  0  0  0  0  0  0  0  0
    0.9514   66.1295   82.5213 C   0  0  0  0  0  0  0  0  0  0  0  0
    1.5456   66.5576   83.6787 N   0  0  0  0  0  0  0  0  0  0  0  0
    1.6494   65.4862   84.4473 C   0  0  0  0  0  0  0  0  0  0  0  0
    1.1097   64.3667   83.8182 N   0  0  0  0  0  0  0  0  0  0  0  0
    0.6917   64.7779   82.5786 C   0  0  0  0  0  0  0  0  0  0  0  0
    0.1348   64.1226   81.5377 N   0  0  0  0  0  0  0  0  0  0  0  0
    0.0520   62.7021   81.2942 C   0  0  0  0  0  0  0  0  0  0  0  0
   -0.5798   62.6779   79.8785 C   0  0  0  0  0  0  0  0  0  0  0  0
    0.1364   61.6975   78.9252 C   0  0  0  0  0  0  0  0  0  0  0  0
   -0.9049   61.2678   77.8820 C   0  0  0  0  0  0  0  0  0  0  0  0
   -2.1676   61.3457   78.6818 C   0  0  0  0  0  0  0  0  0  0  0  0
   -3.3948   60.7758   78.3866 C   0  0  0  0  0  0  0  0  0  0  0  0
   -4.4663   61.0281   79.2452 C   0  0  0  0  0  0  0  0  0  0  0  0
   -4.3039   61.8550   80.3671 C   0  0  0  0  0  0  0  0  0  0  0  0
   -3.0656   62.4359   80.6499 C   0  0  0  0  0  0  0  0  0  0  0  0
   -1.9973   62.1636   79.8069 C   0  0  0  0  0  0  0  0  0  0  0  0
   -0.4859   64.0673   79.3300 N   0  0  0  0  0  0  0  0  0  0  0  0
   -0.1058   64.7868   80.3510 C   0  0  0  0  0  0  0  0  0  0  0  0
   -1.4759   67.6762   79.1015 C   0  0  0  0  0  0  0  0  0  0  0  0
   -0.1982   66.8539   79.0127 C   0  0  0  0  0  0  0  0  0  0  0  0
    2.2915   65.4849   85.8068 C   0  0  0  0  0  0  0  0  0  0  0  0
    3.8027   65.5540   85.7851 C   0  0  0  0  0  0  0  0  0  0  0  0
    4.4660   66.1692   84.7123 C   0  0  0  0  0  0  0  0  0  0  0  0
    5.8596   66.2454   84.6902 C   0  0  0  0  0  0  0  0  0  0  0  0
    6.6043   65.7191   85.7440 C   0  0  0  0  0  0  0  0  0  0  0  0
    5.9569   65.1230   86.8242 C   0  0  0  0  0  0  0  0  0  0  0  0
    4.5638   65.0459   86.8487 C   0  0  0  0  0  0  0  0  0  0  0  0
    0.9628   63.0565   84.4319 C   0  0  0  0  0  0  0  0  0  0  0  0
   -0.3148   62.8823   85.2196 C   0  0  0  0  0  0  0  0  0  0  0  0
   -1.5266   62.4870   84.6319 C   0  0  0  0  0  0  0  0  0  0  0  0
   -2.6867   62.3701   85.4007 C   0  0  0  0  0  0  0  0  0  0  0  0
   -2.6562   62.6585   86.7626 C   0  0  0  0  0  0  0  0  0  0  0  0
   -1.4665   63.0681   87.3582 C   0  0  0  0  0  0  0  0  0  0  0  0
   -0.3057   63.1846   86.5918 C   0  0  0  0  0  0  0  0  0  0  0  0
 22 23  1  0  0  0
 23  1  1  0  0  0
  1  2  1  0  0  0
  2  3  2  0  0  0
  2  4  1  0  0  0
  4  5  1  0  0  0
  5  6  2  0  0  0
  6 24  1  0  0  0
 24 25  1  0  0  0
 25 26  2  0  0  0
 26 27  1  0  0  0
 27 28  2  0  0  0
 28 29  1  0  0  0
 29 30  2  0  0  0
  6  7  1  0  0  0
  7 31  1  0  0  0
 31 32  1  0  0  0
 32 33  2  0  0  0
 33 34  1  0  0  0
 34 35  2  0  0  0
 35 36  1  0  0  0
 36 37  2  0  0  0
  7  8  1  0  0  0
  8  9  1  0  0  0
  9 10  1  0  0  0
 10 11  1  0  0  0
 11 12  1  0  0  0
 12 13  1  0  0  0
 13 14  1  0  0  0
 14 15  2  0  0  0
 15 16  1  0  0  0
 16 17  2  0  0  0
 17 18  1  0  0  0
 18 19  2  0  0  0
 11 20  1  0  0  0
 20 21  2  0  0  0
 21  1  1  0  0  0
  8  4  2  0  0  0
 21  9  1  0  0  0
 30 25  1  0  0  0
 37 32  1  0  0  0
 19 11  1  0  0  0
 19 14  1  0  0  0
M  END
> <minimizedAffinity>
-10.35499

$$$$



 37 43  0  0  0  0  0  0  0  0999 V2000
   -0.7224   63.0785   85.2165 N   0  0  0  0  0  0  0  0  0  0  0  0
    0.3118   63.7523   85.9027 C   0  0  0  0  0  0  0  0  0  0  0  0
    0.5601   63.5701   87.0937 O   0  0  0  0  0  0  0  0  0  0  0  0
    1.0539   64.7147   85.0829 C   0  0  0  0  0  0  0  0  0  0  0  0
    2.0593   65.5586   85.4741 N   0  0  0  0  0  0  0  0  0  0  0  0
    2.3881   66.2504   84.3958 C   0  0  0  0  0  0  0  0  0  0  0  0
    1.6278   65.8544   83.2979 N   0  0  0  0  0  0  0  0  0  0  0  0
    0.7590   64.8942   83.7494 C   0  0  0  0  0  0  0  0  0  0  0  0
   -0.2230   64.1926   83.1442 N   0  0  0  0  0  0  0  0  0  0  0  0
   -0.8631   64.4317   81.8724 C   0  0  0  0  0  0  0  0  0  0  0  0
   -1.9644   63.3404   81.8824 C   0  0  0  0  0  0  0  0  0  0  0  0
   -3.3423   63.8834   81.4469 C   0  0  0  0  0  0  0  0  0  0  0  0
   -4.1140   62.6910   80.8635 C   0  0  0  0  0  0  0  0  0  0  0  0
   -2.9968   61.8668   80.3043 C   0  0  0  0  0  0  0  0  0  0  0  0
   -3.0820   60.8383   79.3808 C   0  0  0  0  0  0  0  0  0  0  0  0
   -1.9133   60.1547   79.0405 C   0  0  0  0  0  0  0  0  0  0  0  0
   -0.6888   60.4920   79.6366 C   0  0  0  0  0  0  0  0  0  0  0  0
   -0.6146   61.5223   80.5767 C   0  0  0  0  0  0  0  0  0  0  0  0
   -1.7745   62.2148   80.8946 C   0  0  0  0  0  0  0  0  0  0  0  0
   -2.0530   62.8161   83.2814 N   0  0  0  0  0  0  0  0  0  0  0  0
   -1.0170   63.3364   83.8817 C   0  0  0  0  0  0  0  0  0  0  0  0
   -2.7099   62.8644   86.6604 C   0  0  0  0  0  0  0  0  0  0  0  0
   -1.5524   62.1520   85.9753 C   0  0  0  0  0  0  0  0  0  0  0  0
    3.4277   67.3364   84.3774 C   0  0  0  0  0  0  0  0  0  0  0  0
    4.8292   66.8665   84.6999 C   0  0  0  0  0  0  0  0  0  0  0  0
    5.9008   67.7723   84.6751 C   0  0  0  0  0  0  0  0  0  0  0  0
    7.1949   67.3481   84.9811 C   0  0  0  0  0  0  0  0  0  0  0  0
    7.4304   66.0187   85.3265 C   0  0  0  0  0  0  0  0  0  0  0  0
    6.3720   65.1138   85.3737 C   0  0  0  0  0  0  0  0  0  0  0  0
    5.0773   65.5356   85.0685 C   0  0  0  0  0  0  0  0  0  0  0  0
    1.8156   66.3346   81.9381 C   0  0  0  0  0  0  0  0  0  0  0  0
    1.1012   67.6313   81.6359 C   0  0  0  0  0  0  0  0  0  0  0  0
    0.0907   67.7390   80.6678 C   0  0  0  0  0  0  0  0  0  0  0  0
   -0.5171   68.9688   80.4059 C   0  0  0  0  0  0  0  0  0  0  0  0
   -0.1158   70.1093   81.0966 C   0  0  0  0  0  0  0  0  0  0  0  0
    0.8967   70.0235   82.0481 C   0  0  0  0  0  0  0  0  0  0  0  0
    1.5047   68.7951   82.3120 C   0  0  0  0  0  0  0  0  0  0  0  0
 22 23  1  0  0  0
 23  1  1  0  0  0
  1  2  1  0  0  0
  2  3  2  0  0  0
  2  4  1  0  0  0
  4  5  1  0  0  0
  5  6  2  0  0  0
  6 24  1  0  0  0
 24 25  1  0  0  0
 25 26  2  0  0  0
 26 27  1  0  0  0
 27 28  2  0  0  0
 28 29  1  0  0  0
 29 30  2  0  0  0
  6  7  1  0  0  0
  7 31  1  0  0  0
 31 32  1  0  0  0
 32 33  2  0  0  0
 33 34  1  0  0  0
 34 35  2  0  0  0
 35 36  1  0  0  0
 36 37  2  0  0  0
  7  8  1  0  0  0
  8  9  1  0  0  0
  9 10  1  0  0  0
 10 11  1  0  0  0
 11 12  1  0  0  0
 12 13  1  0  0  0
 13 14  1  0  0  0
 14 15  2  0  0  0
 15 16  1  0  0  0
 16 17  2  0  0  0
 17 18  1  0  0  0
 18 19  2  0  0  0
 11 20  1  0  0  0
 20 21  2  0  0  0
 21  1  1  0  0  0
  8  4  2  0  0  0
 21  9  1  0  0  0
 30 25  1  0  0  0
 37 32  1  0  0  0
 19 11  1  0  0  0
 19 14  1  0  0  0
M  END
> <minimizedAffinity>
-10.20351

$$$$



 37 43  0  0  0  0  0  0  0  0999 V2000
    3.9517   67.6598   84.2379 N   0  0  0  0  0  0  0  0  0  0  0  0
    3.5209   66.4483   84.8223 C   0  0  0  0  0  0  0  0  0  0  0  0
    4.0766   65.9328   85.7911 O   0  0  0  0  0  0  0  0  0  0  0  0
    2.3663   65.8347   84.1593 C   0  0  0  0  0  0  0  0  0  0  0  0
    1.7637   64.6393   84.4487 N   0  0  0  0  0  0  0  0  0  0  0  0
    0.7910   64.5032   83.5628 C   0  0  0  0  0  0  0  0  0  0  0  0
    0.7335   65.6045   82.7119 N   0  0  0  0  0  0  0  0  0  0  0  0
    1.7590   66.4372   83.0797 C   0  0  0  0  0  0  0  0  0  0  0  0
    2.2011   67.6149   82.5891 N   0  0  0  0  0  0  0  0  0  0  0  0
    1.8980   68.2480   81.3277 C   0  0  0  0  0  0  0  0  0  0  0  0
    2.8412   69.4777   81.3762 C   0  0  0  0  0  0  0  0  0  0  0  0
    3.6119   69.6874   80.0552 C   0  0  0  0  0  0  0  0  0  0  0  0
    3.9368   71.1859   79.9756 C   0  0  0  0  0  0  0  0  0  0  0  0
    2.7737   71.7755   80.7103 C   0  0  0  0  0  0  0  0  0  0  0  0
    2.3398   73.0905   80.6953 C   0  0  0  0  0  0  0  0  0  0  0  0
    1.2621   73.4420   81.5102 C   0  0  0  0  0  0  0  0  0  0  0  0
    0.6499   72.4877   82.3367 C   0  0  0  0  0  0  0  0  0  0  0  0
    1.1026   71.1665   82.3548 C   0  0  0  0  0  0  0  0  0  0  0  0
    2.1589   70.8159   81.5258 C   0  0  0  0  0  0  0  0  0  0  0  0
    3.8128   69.2443   82.4905 N   0  0  0  0  0  0  0  0  0  0  0  0
    3.3380   68.1991   83.1122 C   0  0  0  0  0  0  0  0  0  0  0  0
    6.4061   67.5419   84.4451 C   0  0  0  0  0  0  0  0  0  0  0  0
    5.1348   68.3019   84.7955 C   0  0  0  0  0  0  0  0  0  0  0  0
   -0.1087   63.3015   83.4790 C   0  0  0  0  0  0  0  0  0  0  0  0
   -0.9337   63.0496   84.7219 C   0  0  0  0  0  0  0  0  0  0  0  0
   -0.4506   63.4386   85.9808 C   0  0  0  0  0  0  0  0  0  0  0  0
   -1.2104   63.2183   87.1308 C   0  0  0  0  0  0  0  0  0  0  0  0
   -2.4646   62.6187   87.0345 C   0  0  0  0  0  0  0  0  0  0  0  0
   -2.9639   62.2456   85.7885 C   0  0  0  0  0  0  0  0  0  0  0  0
   -2.2064   62.4650   84.6373 C   0  0  0  0  0  0  0  0  0  0  0  0
   -0.2884   65.8229   81.7005 C   0  0  0  0  0  0  0  0  0  0  0  0
   -0.0643   65.0548   80.4187 C   0  0  0  0  0  0  0  0  0  0  0  0
   -0.6829   63.8244   80.1475 C   0  0  0  0  0  0  0  0  0  0  0  0
   -0.4178   63.1402   78.9592 C   0  0  0  0  0  0  0  0  0  0  0  0
    0.4775   63.6676   78.0323 C   0  0  0  0  0  0  0  0  0  0  0  0
    1.1126   64.8786   78.2931 C   0  0  0  0  0  0  0  0  0  0  0  0
    0.8482   65.5645   79.4797 C   0  0  0  0  0  0  0  0  0  0  0  0
 22 23  1  0  0  0
 23  1  1  0  0  0
  1  2  1  0  0  0
  2  3  2  0  0  0
  2  4  1  0  0  0
  4  5  1  0  0  0
  5  6  2  0  0  0
  6 24  1  0  0  0
 24 25  1  0  0  0
 25 26  2  0  0  0
 26 27  1  0  0  0
 27 28  2  0  0  0
 28 29  1  0  0  0
 29 30  2  0  0  0
  6  7  1  0  0  0
  7 31  1  0  0  0
 31 32  1  0  0  0
 32 33  2  0  0  0
 33 34  1  0  0  0
 34 35  2  0  0  0
 35 36  1  0  0  0
 36 37  2  0  0  0
  7  8  1  0  0  0
  8  9  1  0  0  0
  9 10  1  0  0  0
 10 11  1  0  0  0
 11 12  1  0  0  0
 12 13  1  0  0  0
 13 14  1  0  0  0
 14 15  2  0  0  0
 15 16  1  0  0  0
 16 17  2  0  0  0
 17 18  1  0  0  0
 18 19  2  0  0  0
 11 20  1  0  0  0
 20 21  2  0  0  0
 21  1  1  0  0  0
  8  4  2  0  0  0
 21  9  1  0  0  0
 30 25  1  0  0  0
 37 32  1  0  0  0
 19 11  1  0  0  0
 19 14  1  0  0  0
M  END
> <minimizedAffinity>
-9.97663

$$$$



 37 43  0  0  0  0  0  0  0  0999 V2000
    0.1268   67.3337   80.2982 N   0  0  0  0  0  0  0  0  0  0  0  0
   -0.0303   66.0289   80.8154 C   0  0  0  0  0  0  0  0  0  0  0  0
   -0.6078   65.1286   80.2078 O   0  0  0  0  0  0  0  0  0  0  0  0
    0.5296   65.8392   82.1569 C   0  0  0  0  0  0  0  0  0  0  0  0
    0.4789   64.7180   82.9419 N   0  0  0  0  0  0  0  0  0  0  0  0
    1.0917   65.0402   84.0690 C   0  0  0  0  0  0  0  0  0  0  0  0
    1.5637   66.3499   84.0234 N   0  0  0  0  0  0  0  0  0  0  0  0
    1.1772   66.8633   82.8120 C   0  0  0  0  0  0  0  0  0  0  0  0
    1.3226   68.0808   82.2468 N   0  0  0  0  0  0  0  0  0  0  0  0
    1.6993   69.3317   82.8612 C   0  0  0  0  0  0  0  0  0  0  0  0
    1.5330   70.3112   81.6709 C   0  0  0  0  0  0  0  0  0  0  0  0
    0.7761   71.5984   82.0624 C   0  0  0  0  0  0  0  0  0  0  0  0
    1.2493   72.6917   81.0937 C   0  0  0  0  0  0  0  0  0  0  0  0
    2.6506   72.2464   80.8142 C   0  0  0  0  0  0  0  0  0  0  0  0
    3.6833   72.9898   80.2676 C   0  0  0  0  0  0  0  0  0  0  0  0
    4.9042   72.3550   80.0323 C   0  0  0  0  0  0  0  0  0  0  0  0
    5.0699   70.9930   80.3255 C   0  0  0  0  0  0  0  0  0  0  0  0
    4.0187   70.2480   80.8647 C   0  0  0  0  0  0  0  0  0  0  0  0
    2.8141   70.8884   81.1190 C   0  0  0  0  0  0  0  0  0  0  0  0
    0.7700   69.5864   80.6067 N   0  0  0  0  0  0  0  0  0  0  0  0
    0.7404   68.3496   81.0236 C   0  0  0  0  0  0  0  0  0  0  0  0
   -1.8634   68.1992   79.1273 C   0  0  0  0  0  0  0  0  0  0  0  0
   -0.4596   67.6256   78.9967 C   0  0  0  0  0  0  0  0  0  0  0  0
    1.2297   64.1148   85.2459 C   0  0  0  0  0  0  0  0  0  0  0  0
   -0.0837   63.6894   85.8649 C   0  0  0  0  0  0  0  0  0  0  0  0
   -1.0490   63.0298   85.0888 C   0  0  0  0  0  0  0  0  0  0  0  0
   -2.2590   62.6256   85.6553 C   0  0  0  0  0  0  0  0  0  0  0  0
   -2.5124   62.8650   87.0045 C   0  0  0  0  0  0  0  0  0  0  0  0
   -1.5542   63.5016   87.7905 C   0  0  0  0  0  0  0  0  0  0  0  0
   -0.3437   63.9063   87.2264 C   0  0  0  0  0  0  0  0  0  0  0  0
    2.3782   66.9777   85.0517 C   0  0  0  0  0  0  0  0  0  0  0  0
    3.8541   66.6724   84.9439 C   0  0  0  0  0  0  0  0  0  0  0  0
    4.4404   65.5281   85.5065 C   0  0  0  0  0  0  0  0  0  0  0  0
    5.8158   65.3084   85.4039 C   0  0  0  0  0  0  0  0  0  0  0  0
    6.6258   66.2335   84.7505 C   0  0  0  0  0  0  0  0  0  0  0  0
    6.0630   67.3823   84.2014 C   0  0  0  0  0  0  0  0  0  0  0  0
    4.6884   67.6032   84.3020 C   0  0  0  0  0  0  0  0  0  0  0  0
 22 23  1  0  0  0
 23  1  1  0  0  0
  1  2  1  0  0  0
  2  3  2  0  0  0
  2  4  1  0  0  0
  4  5  1  0  0  0
  5  6  2  0  0  0
  6 24  1  0  0  0
 24 25  1  0  0  0
 25 26  2  0  0  0
 26 27  1  0  0  0
 27 28  2  0  0  0
 28 29  1  0  0  0
 29 30  2  0  0  0
  6  7  1  0  0  0
  7 31  1  0  0  0
 31 32  1  0  0  0
 32 33  2  0  0  0
 33 34  1  0  0  0
 34 35  2  0  0  0
 35 36  1  0  0  0
 36 37  2  0  0  0
  7  8  1  0  0  0
  8  9  1  0  0  0
  9 10  1  0  0  0
 10 11  1  0  0  0
 11 12  1  0  0  0
 12 13  1  0  0  0
 13 14  1  0  0  0
 14 15  2  0  0  0
 15 16  1  0  0  0
 16 17  2  0  0  0
 17 18  1  0  0  0
 18 19  2  0  0  0
 11 20  1  0  0  0
 20 21  2  0  0  0
 21  1  1  0  0  0
  8  4  2  0  0  0
 21  9  1  0  0  0
 30 25  1  0  0  0
 37 32  1  0  0  0
 19 11  1  0  0  0
 19 14  1  0  0  0
M  END
> <minimizedAffinity>
-9.91151

$$$$



 37 43  0  0  0  0  0  0  0  0999 V2000
   -0.8458   63.7630   85.9537 N   0  0  0  0  0  0  0  0  0  0  0  0
   -1.7798   62.7988   85.5148 C   0  0  0  0  0  0  0  0  0  0  0  0
   -2.7448   62.4405   86.1884 O   0  0  0  0  0  0  0  0  0  0  0  0
   -1.4896   62.2339   84.1936 C   0  0  0  0  0  0  0  0  0  0  0  0
   -2.1660   61.2438   83.5318 N   0  0  0  0  0  0  0  0  0  0  0  0
   -1.5127   61.0587   82.3967 C   0  0  0  0  0  0  0  0  0  0  0  0
   -0.4312   61.9307   82.2957 N   0  0  0  0  0  0  0  0  0  0  0  0
   -0.4053   62.6583   83.4578 C   0  0  0  0  0  0  0  0  0  0  0  0
    0.4326   63.6098   83.9221 N   0  0  0  0  0  0  0  0  0  0  0  0
    1.7473   63.9753   83.4508 C   0  0  0  0  0  0  0  0  0  0  0  0
    2.1650   65.0237   84.5140 C   0  0  0  0  0  0  0  0  0  0  0  0
    3.6026   64.8039   85.0318 C   0  0  0  0  0  0  0  0  0  0  0  0
    4.1109   66.1761   85.4968 C   0  0  0  0  0  0  0  0  0  0  0  0
    3.3718   67.0898   84.5698 C   0  0  0  0  0  0  0  0  0  0  0  0
    3.6494   68.4168   84.2874 C   0  0  0  0  0  0  0  0  0  0  0  0
    2.7873   69.1070   83.4335 C   0  0  0  0  0  0  0  0  0  0  0  0
    1.6582   68.4732   82.8928 C   0  0  0  0  0  0  0  0  0  0  0  0
    1.3791   67.1381   83.1934 C   0  0  0  0  0  0  0  0  0  0  0  0
    2.2515   66.4489   84.0240 C   0  0  0  0  0  0  0  0  0  0  0  0
    1.2001   64.9062   85.6520 N   0  0  0  0  0  0  0  0  0  0  0  0
    0.2655   64.1170   85.1958 C   0  0  0  0  0  0  0  0  0  0  0  0
   -0.4191   63.4345   88.3601 C   0  0  0  0  0  0  0  0  0  0  0  0
   -1.0236   64.3268   87.2854 C   0  0  0  0  0  0  0  0  0  0  0  0
   -1.8827   60.0225   81.3721 C   0  0  0  0  0  0  0  0  0  0  0  0
   -2.3540   60.5893   80.0509 C   0  0  0  0  0  0  0  0  0  0  0  0
   -1.9317   60.0114   78.8438 C   0  0  0  0  0  0  0  0  0  0  0  0
   -2.3702   60.5228   77.6213 C   0  0  0  0  0  0  0  0  0  0  0  0
   -3.2437   61.6082   77.5916 C   0  0  0  0  0  0  0  0  0  0  0  0
   -3.6857   62.1787   78.7835 C   0  0  0  0  0  0  0  0  0  0  0  0
   -3.2490   61.6690   80.0069 C   0  0  0  0  0  0  0  0  0  0  0  0
    0.4237   62.0653   81.1270 C   0  0  0  0  0  0  0  0  0  0  0  0
    0.1150   63.2710   80.2702 C   0  0  0  0  0  0  0  0  0  0  0  0
   -0.1909   64.5312   80.8070 C   0  0  0  0  0  0  0  0  0  0  0  0
   -0.4988   65.6064   79.9705 C   0  0  0  0  0  0  0  0  0  0  0  0
   -0.5184   65.4352   78.5887 C   0  0  0  0  0  0  0  0  0  0  0  0
   -0.2341   64.1876   78.0403 C   0  0  0  0  0  0  0  0  0  0  0  0
    0.0749   63.1121   78.8747 C   0  0  0  0  0  0  0  0  0  0  0  0
 22 23  1  0  0  0
 23  1  1  0  0  0
  1  2  1  0  0  0
  2  3  2  0  0  0
  2  4  1  0  0  0
  4  5  1  0  0  0
  5  6  2  0  0  0
  6 24  1  0  0  0
 24 25  1  0  0  0
 25 26  2  0  0  0
 26 27  1  0  0  0
 27 28  2  0  0  0
 28 29  1  0  0  0
 29 30  2  0  0  0
  6  7  1  0  0  0
  7 31  1  0  0  0
 31 32  1  0  0  0
 32 33  2  0  0  0
 33 34  1  0  0  0
 34 35  2  0  0  0
 35 36  1  0  0  0
 36 37  2  0  0  0
  7  8  1  0  0  0
  8  9  1  0  0  0
  9 10  1  0  0  0
 10 11  1  0  0  0
 11 12  1  0  0  0
 12 13  1  0  0  0
 13 14  1  0  0  0
 14 15  2  0  0  0
 15 16  1  0  0  0
 16 17  2  0  0  0
 17 18  1  0  0  0
 18 19  2  0  0  0
 11 20  1  0  0  0
 20 21  2  0  0  0
 21  1  1  0  0  0
  8  4  2  0  0  0
 21  9  1  0  0  0
 30 25  1  0  0  0
 37 32  1  0  0  0
 19 11  1  0  0  0
 19 14  1  0  0  0
M  END
> <minimizedAffinity>
-9.63313

$$$$



 37 43  0  0  0  0  0  0  0  0999 V2000
    4.6171   66.0188   85.0030 N   0  0  0  0  0  0  0  0  0  0  0  0
    5.3445   67.0391   84.3514 C   0  0  0  0  0  0  0  0  0  0  0  0
    6.5480   67.2246   84.5257 O   0  0  0  0  0  0  0  0  0  0  0  0
    4.5386   67.8841   83.4652 C   0  0  0  0  0  0  0  0  0  0  0  0
    4.9391   68.9829   82.7524 N   0  0  0  0  0  0  0  0  0  0  0  0
    3.8572   69.4230   82.1318 C   0  0  0  0  0  0  0  0  0  0  0  0
    2.7585   68.6132   82.4098 N   0  0  0  0  0  0  0  0  0  0  0  0
    3.1935   67.6497   83.2834 C   0  0  0  0  0  0  0  0  0  0  0  0
    2.5637   66.6346   83.9124 N   0  0  0  0  0  0  0  0  0  0  0  0
    1.1484   66.4039   84.0794 C   0  0  0  0  0  0  0  0  0  0  0  0
    1.1555   65.1560   84.9995 C   0  0  0  0  0  0  0  0  0  0  0  0
    0.1678   65.2824   86.1791 C   0  0  0  0  0  0  0  0  0  0  0  0
   -0.2243   63.8509   86.5721 C   0  0  0  0  0  0  0  0  0  0  0  0
   -0.1235   63.1491   85.2539 C   0  0  0  0  0  0  0  0  0  0  0  0
   -0.6592   61.9210   84.9041 C   0  0  0  0  0  0  0  0  0  0  0  0
   -0.3895   61.4192   83.6296 C   0  0  0  0  0  0  0  0  0  0  0  0
    0.4207   62.1359   82.7360 C   0  0  0  0  0  0  0  0  0  0  0  0
    0.9673   63.3679   83.1021 C   0  0  0  0  0  0  0  0  0  0  0  0
    0.6776   63.8741   84.3614 C   0  0  0  0  0  0  0  0  0  0  0  0
    2.5479   65.0051   85.5270 N   0  0  0  0  0  0  0  0  0  0  0  0
    3.2465   65.8584   84.8282 C   0  0  0  0  0  0  0  0  0  0  0  0
    5.4141   65.8211   87.3282 C   0  0  0  0  0  0  0  0  0  0  0  0
    5.3297   65.1745   85.9529 C   0  0  0  0  0  0  0  0  0  0  0  0
    3.8250   70.6515   81.2656 C   0  0  0  0  0  0  0  0  0  0  0  0
    2.8279   71.7011   81.7052 C   0  0  0  0  0  0  0  0  0  0  0  0
    3.0766   72.4762   82.8483 C   0  0  0  0  0  0  0  0  0  0  0  0
    2.1661   73.4531   83.2544 C   0  0  0  0  0  0  0  0  0  0  0  0
    1.0045   73.6743   82.5170 C   0  0  0  0  0  0  0  0  0  0  0  0
    0.7553   72.9247   81.3692 C   0  0  0  0  0  0  0  0  0  0  0  0
    1.6643   71.9478   80.9611 C   0  0  0  0  0  0  0  0  0  0  0  0
    1.4458   68.7523   81.7996 C   0  0  0  0  0  0  0  0  0  0  0  0
    1.0881   67.6402   80.8413 C   0  0  0  0  0  0  0  0  0  0  0  0
   -0.1645   67.0069   80.8394 C   0  0  0  0  0  0  0  0  0  0  0  0
   -0.4337   65.9627   79.9519 C   0  0  0  0  0  0  0  0  0  0  0  0
    0.5470   65.5279   79.0641 C   0  0  0  0  0  0  0  0  0  0  0  0
    1.8004   66.1338   79.0643 C   0  0  0  0  0  0  0  0  0  0  0  0
    2.0710   67.1783   79.9498 C   0  0  0  0  0  0  0  0  0  0  0  0
 22 23  1  0  0  0
 23  1  1  0  0  0
  1  2  1  0  0  0
  2  3  2  0  0  0
  2  4  1  0  0  0
  4  5  1  0  0  0
  5  6  2  0  0  0
  6 24  1  0  0  0
 24 25  1  0  0  0
 25 26  2  0  0  0
 26 27  1  0  0  0
 27 28  2  0  0  0
 28 29  1  0  0  0
 29 30  2  0  0  0
  6  7  1  0  0  0
  7 31  1  0  0  0
 31 32  1  0  0  0
 32 33  2  0  0  0
 33 34  1  0  0  0
 34 35  2  0  0  0
 35 36  1  0  0  0
 36 37  2  0  0  0
  7  8  1  0  0  0
  8  9  1  0  0  0
  9 10  1  0  0  0
 10 11  1  0  0  0
 11 12  1  0  0  0
 12 13  1  0  0  0
 13 14  1  0  0  0
 14 15  2  0  0  0
 15 16  1  0  0  0
 16 17  2  0  0  0
 17 18  1  0  0  0
 18 19  2  0  0  0
 11 20  1  0  0  0
 20 21  2  0  0  0
 21  1  1  0  0  0
  8  4  2  0  0  0
 21  9  1  0  0  0
 30 25  1  0  0  0
 37 32  1  0  0  0
 19 11  1  0  0  0
 19 14  1  0  0  0
M  END
> <minimizedAffinity>
-9.49953

$$$$



 37 43  0  0  0  0  0  0  0  0999 V2000
    3.7042   67.5316   84.1194 N   0  0  0  0  0  0  0  0  0  0  0  0
    3.0721   66.3497   84.5646 C   0  0  0  0  0  0  0  0  0  0  0  0
    3.4859   65.6794   85.5094 O   0  0  0  0  0  0  0  0  0  0  0  0
    1.8899   65.9670   83.7868 C   0  0  0  0  0  0  0  0  0  0  0  0
    1.1096   64.8506   83.9311 N   0  0  0  0  0  0  0  0  0  0  0  0
    0.1880   64.9314   82.9858 C   0  0  0  0  0  0  0  0  0  0  0  0
    0.3399   66.0976   82.2393 N   0  0  0  0  0  0  0  0  0  0  0  0
    1.4444   66.7399   82.7372 C   0  0  0  0  0  0  0  0  0  0  0  0
    2.0768   67.8789   82.3828 N   0  0  0  0  0  0  0  0  0  0  0  0
    1.9481   68.6537   81.1715 C   0  0  0  0  0  0  0  0  0  0  0  0
    3.0473   69.7262   81.3846 C   0  0  0  0  0  0  0  0  0  0  0  0
    3.9251   69.9340   80.1318 C   0  0  0  0  0  0  0  0  0  0  0  0
    4.4591   71.3714   80.2096 C   0  0  0  0  0  0  0  0  0  0  0  0
    3.3430   72.0578   80.9330 C   0  0  0  0  0  0  0  0  0  0  0  0
    3.0974   73.4181   81.0175 C   0  0  0  0  0  0  0  0  0  0  0  0
    2.0276   73.8508   81.8031 C   0  0  0  0  0  0  0  0  0  0  0  0
    1.2358   72.9280   82.5033 C   0  0  0  0  0  0  0  0  0  0  0  0
    1.4989   71.5586   82.4223 C   0  0  0  0  0  0  0  0  0  0  0  0
    2.5487   71.1312   81.6216 C   0  0  0  0  0  0  0  0  0  0  0  0
    3.9017   69.2619   82.5224 N   0  0  0  0  0  0  0  0  0  0  0  0
    3.2467   68.2470   83.0178 C   0  0  0  0  0  0  0  0  0  0  0  0
    6.1319   67.1494   84.3224 C   0  0  0  0  0  0  0  0  0  0  0  0
    4.9256   67.9472   84.7966 C   0  0  0  0  0  0  0  0  0  0  0  0
   -0.8621   63.8832   82.7425 C   0  0  0  0  0  0  0  0  0  0  0  0
   -0.5935   62.9936   81.5486 C   0  0  0  0  0  0  0  0  0  0  0  0
    0.6414   62.3395   81.4190 C   0  0  0  0  0  0  0  0  0  0  0  0
    0.8927   61.5096   80.3253 C   0  0  0  0  0  0  0  0  0  0  0  0
   -0.0898   61.3148   79.3565 C   0  0  0  0  0  0  0  0  0  0  0  0
   -1.3269   61.9431   79.4836 C   0  0  0  0  0  0  0  0  0  0  0  0
   -1.5807   62.7730   80.5763 C   0  0  0  0  0  0  0  0  0  0  0  0
   -0.5730   66.5457   81.1997 C   0  0  0  0  0  0  0  0  0  0  0  0
   -0.3173   65.9291   79.8442 C   0  0  0  0  0  0  0  0  0  0  0  0
   -1.2986   65.8499   78.8438 C   0  0  0  0  0  0  0  0  0  0  0  0
   -1.0189   65.2423   77.6178 C   0  0  0  0  0  0  0  0  0  0  0  0
    0.2386   64.6942   77.3787 C   0  0  0  0  0  0  0  0  0  0  0  0
    1.2182   64.7490   78.3663 C   0  0  0  0  0  0  0  0  0  0  0  0
    0.9409   65.3569   79.5919 C   0  0  0  0  0  0  0  0  0  0  0  0
 22 23  1  0  0  0
 23  1  1  0  0  0
  1  2  1  0  0  0
  2  3  2  0  0  0
  2  4  1  0  0  0
  4  5  1  0  0  0
  5  6  2  0  0  0
  6 24  1  0  0  0
 24 25  1  0  0  0
 25 26  2  0  0  0
 26 27  1  0  0  0
 27 28  2  0  0  0
 28 29  1  0  0  0
 29 30  2  0  0  0
  6  7  1  0  0  0
  7 31  1  0  0  0
 31 32  1  0  0  0
 32 33  2  0  0  0
 33 34  1  0  0  0
 34 35  2  0  0  0
 35 36  1  0  0  0
 36 37  2  0  0  0
  7  8  1  0  0  0
  8  9  1  0  0  0
  9 10  1  0  0  0
 10 11  1  0  0  0
 11 12  1  0  0  0
 12 13  1  0  0  0
 13 14  1  0  0  0
 14 15  2  0  0  0
 15 16  1  0  0  0
 16 17  2  0  0  0
 17 18  1  0  0  0
 18 19  2  0  0  0
 11 20  1  0  0  0
 20 21  2  0  0  0
 21  1  1  0  0  0
  8  4  2  0  0  0
 21  9  1  0  0  0
 30 25  1  0  0  0
 37 32  1  0  0  0
 19 11  1  0  0  0
 19 14  1  0  0  0
M  END
> <minimizedAffinity>
-9.37673

$$$$



 37 43  0  0  0  0  0  0  0  0999 V2000
    0.2010   66.4253   80.4947 N   0  0  0  0  0  0  0  0  0  0  0  0
    0.5462   66.8977   81.7801 C   0  0  0  0  0  0  0  0  0  0  0  0
    0.6747   68.0917   82.0468 O   0  0  0  0  0  0  0  0  0  0  0  0
    0.7684   65.8418   82.7724 C   0  0  0  0  0  0  0  0  0  0  0  0
    1.1727   65.9780   84.0739 N   0  0  0  0  0  0  0  0  0  0  0  0
    1.2609   64.7486   84.5537 C   0  0  0  0  0  0  0  0  0  0  0  0
    0.8969   63.8101   83.5909 N   0  0  0  0  0  0  0  0  0  0  0  0
    0.6110   64.5123   82.4482 C   0  0  0  0  0  0  0  0  0  0  0  0
    0.2464   64.1282   81.2063 N   0  0  0  0  0  0  0  0  0  0  0  0
    0.3081   62.8183   80.6026 C   0  0  0  0  0  0  0  0  0  0  0  0
   -0.1320   63.1375   79.1505 C   0  0  0  0  0  0  0  0  0  0  0  0
    0.7763   62.4717   78.0948 C   0  0  0  0  0  0  0  0  0  0  0  0
   -0.0846   62.2849   76.8373 C   0  0  0  0  0  0  0  0  0  0  0  0
   -1.4421   62.0969   77.4391 C   0  0  0  0  0  0  0  0  0  0  0  0
   -2.5720   61.5717   76.8349 C   0  0  0  0  0  0  0  0  0  0  0  0
   -3.7619   61.5447   77.5647 C   0  0  0  0  0  0  0  0  0  0  0  0
   -3.8112   62.0561   78.8703 C   0  0  0  0  0  0  0  0  0  0  0  0
   -2.6695   62.5958   79.4671 C   0  0  0  0  0  0  0  0  0  0  0  0
   -1.4833   62.5992   78.7467 C   0  0  0  0  0  0  0  0  0  0  0  0
   -0.0782   64.6246   78.9903 N   0  0  0  0  0  0  0  0  0  0  0  0
    0.1091   65.0682   80.2038 C   0  0  0  0  0  0  0  0  0  0  0  0
   -1.3867   67.9706   79.4120 C   0  0  0  0  0  0  0  0  0  0  0  0
    0.0270   67.4071   79.4323 C   0  0  0  0  0  0  0  0  0  0  0  0
    1.7204   64.4200   85.9470 C   0  0  0  0  0  0  0  0  0  0  0  0
    0.6270   63.9186   86.8646 C   0  0  0  0  0  0  0  0  0  0  0  0
    0.9548   63.2789   88.0699 C   0  0  0  0  0  0  0  0  0  0  0  0
   -0.0487   62.8226   88.9261 C   0  0  0  0  0  0  0  0  0  0  0  0
   -1.3888   63.0107   88.5937 C   0  0  0  0  0  0  0  0  0  0  0  0
   -1.7274   63.6617   87.4093 C   0  0  0  0  0  0  0  0  0  0  0  0
   -0.7260   64.1191   86.5518 C   0  0  0  0  0  0  0  0  0  0  0  0
    0.7760   62.3800   83.8258 C   0  0  0  0  0  0  0  0  0  0  0  0
   -0.5948   61.8181   83.5286 C   0  0  0  0  0  0  0  0  0  0  0  0
   -1.7344   62.1475   84.2788 C   0  0  0  0  0  0  0  0  0  0  0  0
   -2.9734   61.5760   83.9807 C   0  0  0  0  0  0  0  0  0  0  0  0
   -3.0891   60.6589   82.9393 C   0  0  0  0  0  0  0  0  0  0  0  0
   -1.9655   60.3082   82.1960 C   0  0  0  0  0  0  0  0  0  0  0  0
   -0.7265   60.8790   82.4917 C   0  0  0  0  0  0  0  0  0  0  0  0
 22 23  1  0  0  0
 23  1  1  0  0  0
  1  2  1  0  0  0
  2  3  2  0  0  0
  2  4  1  0  0  0
  4  5  1  0  0  0
  5  6  2  0  0  0
  6 24  1  0  0  0
 24 25  1  0  0  0
 25 26  2  0  0  0
 26 27  1  0  0  0
 27 28  2  0  0  0
 28 29  1  0  0  0
 29 30  2  0  0  0
  6  7  1  0  0  0
  7 31  1  0  0  0
 31 32  1  0  0  0
 32 33  2  0  0  0
 33 34  1  0  0  0
 34 35  2  0  0  0
 35 36  1  0  0  0
 36 37  2  0  0  0
  7  8  1  0  0  0
  8  9  1  0  0  0
  9 10  1  0  0  0
 10 11  1  0  0  0
 11 12  1  0  0  0
 12 13  1  0  0  0
 13 14  1  0  0  0
 14 15  2  0  0  0
 15 16  1  0  0  0
 16 17  2  0  0  0
 17 18  1  0  0  0
 18 19  2  0  0  0
 11 20  1  0  0  0
 20 21  2  0  0  0
 21  1  1  0  0  0
  8  4  2  0  0  0
 21  9  1  0  0  0
 30 25  1  0  0  0
 37 32  1  0  0  0
 19 11  1  0  0  0
 19 14  1  0  0  0
M  END
> <minimizedAffinity>
-9.31243

$$$$
