
     RDKit          3D

 34 37  0  0  0  0  0  0  0  0999 V2000
    3.4069   66.6217   84.6640 C   0  0  0  0  0  0  0  0  0  0  0  0
    4.0909   67.6920   84.0675 C   0  0  0  0  0  0  0  0  0  0  0  0
    3.5159   68.4180   83.0212 C   0  0  0  0  0  0  0  0  0  0  0  0
    2.2440   68.0811   82.5654 C   0  0  0  0  0  0  0  0  0  0  0  0
    1.5477   67.0167   83.1371 C   0  0  0  0  0  0  0  0  0  0  0  0
    2.1126   66.2873   84.2000 C   0  0  0  0  0  0  0  0  0  0  0  0
    1.2669   65.1879   84.7765 C   0  0  0  0  0  0  0  0  0  0  0  0
    0.6732   64.3395   83.9956 N   0  0  0  0  0  0  0  0  0  0  0  0
   -0.0916   63.3468   84.5657 C   0  0  0  0  0  0  0  0  0  0  0  0
   -0.2476   63.1961   85.8888 C   0  0  0  0  0  0  0  0  0  0  0  0
    0.4100   64.1637   86.7722 C   0  0  0  0  0  0  0  0  0  0  0  0
    0.2870   64.1077   87.9900 O   0  0  0  0  0  0  0  0  0  0  0  0
    1.1504   65.1137   86.1402 N   0  0  0  0  0  0  0  0  0  0  0  0
    1.6014   65.8031   86.7276 H   0  0  0  0  0  0  0  0  0  0  0  0
   -0.7388   62.3819   83.6420 C   0  0  0  0  0  0  0  0  0  0  0  0
   -2.0578   61.9385   83.8319 C   0  0  0  0  0  0  0  0  0  0  0  0
   -2.6453   61.0381   82.9382 C   0  0  0  0  0  0  0  0  0  0  0  0
   -1.9263   60.5759   81.8381 C   0  0  0  0  0  0  0  0  0  0  0  0
   -0.6225   61.0171   81.6263 C   0  0  0  0  0  0  0  0  0  0  0  0
   -0.0354   61.9167   82.5198 C   0  0  0  0  0  0  0  0  0  0  0  0
    1.5344   68.9837   81.2102 S   0  0  0  0  0  0  0  0  0  0  0  0
    0.4351   68.2154   80.6682 O   0  0  0  0  0  0  0  0  0  0  0  0
    2.6287   69.4117   80.3635 O   0  0  0  0  0  0  0  0  0  0  0  0
    0.8906   70.3659   81.9744 N   0  0  0  0  0  0  0  0  0  0  0  0
   -0.3855   70.8915   81.3786 C   0  0  0  0  0  0  0  0  0  0  0  0
   -0.6386   72.3485   81.8074 C   0  0  0  0  0  0  0  0  0  0  0  0
    0.3929   73.2803   81.3092 N   0  0  0  0  0  0  0  0  0  0  0  0
    0.4207   74.4987   82.1135 C   0  0  0  0  0  0  0  0  0  0  0  0
    1.7185   72.6328   81.2353 C   0  0  0  0  0  0  0  0  0  0  0  0
    1.9055   71.4509   82.2033 C   0  0  0  0  0  0  0  0  0  0  0  0
    3.9167   65.8816   85.7000 O   0  0  0  0  0  0  0  0  0  0  0  0
    5.1732   65.2138   85.5536 C   0  0  0  0  0  0  0  0  0  0  0  0
    5.5144   65.5193   88.0309 C   0  0  0  0  0  0  0  0  0  0  0  0
    6.1391   65.6463   86.6529 C   0  0  0  0  0  0  0  0  0  0  0  0
 33 34  1  0
 34 32  1  0
 32 31  1  0
 31  1  1  0
  1  2  1  0
  2  3  2  0
  3  4  1  0
  4 21  1  0
 21 22  2  0
 21 23  2  0
 21 24  1  0
 24 25  1  0
 25 26  1  0
 26 27  1  0
 27 28  1  0
 27 29  1  0
 29 30  1  0
  4  5  2  0
  5  6  1  0
  6  7  1  0
  7  8  2  0
  8  9  1  0
  9 15  1  0
 15 16  2  0
 16 17  1  0
 17 18  2  0
 18 19  1  0
 19 20  2  0
  9 10  2  0
 10 11  1  0
 11 12  2  0
 11 13  1  0
  6  1  2  0
 13  7  1  0
 30 24  1  0
 20 15  1  0
 13 14  1  0
M  END
>  <minimizedAffinity>  (1) 
-10.49094

$$$$
