


 32 34  0  0  0  0  0  0  0  0999 V2000
    0.1706   63.8122   80.6487 N   0  0  0  0  0  0  0  0  0  0  0  0
    0.1455   65.1912   80.5523 C   0  0  0  0  0  0  0  0  0  0  0  0
   -0.3285   65.8615   79.6445 O   0  0  0  0  0  0  0  0  0  0  0  0
    0.6024   63.4745   81.5065 H   0  0  0  0  0  0  0  0  0  0  0  0
   -1.1914   61.0010   77.7917 C   0  0  0  0  0  0  0  0  0  0  0  0
   -0.0976   61.8386   77.5472 C   0  0  0  0  0  0  0  0  0  0  0  0
    0.3280   62.7582   78.5119 C   0  0  0  0  0  0  0  0  0  0  0  0
   -0.3257   62.8625   79.7407 C   0  0  0  0  0  0  0  0  0  0  0  0
   -1.4162   62.0316   79.9933 C   0  0  0  0  0  0  0  0  0  0  0  0
   -1.8537   61.0954   79.0331 C   0  0  0  0  0  0  0  0  0  0  0  0
   -3.0313   60.2548   79.4173 C   0  0  0  0  0  0  0  0  0  0  0  0
   -4.1634   60.7296   79.4986 O   0  0  0  0  0  0  0  0  0  0  0  0
   -2.8095   58.9203   79.6668 N   0  0  0  0  0  0  0  0  0  0  0  0
   -3.9726   58.1268   79.8105 O   0  0  0  0  0  0  0  0  0  0  0  0
   -1.9714   58.4568   79.3256 H   0  0  0  0  0  0  0  0  0  0  0  0
   -4.6834   58.8041   79.7599 H   0  0  0  0  0  0  0  0  0  0  0  0
   -0.8324   58.9854   76.5450 C   0  0  0  0  0  0  0  0  0  0  0  0
   -1.6649   60.0916   76.8800 O   0  0  0  0  0  0  0  0  0  0  0  0
    0.7832   65.8652   81.7329 C   0  0  0  0  0  0  0  0  0  0  0  0
    1.4998   67.0408   81.5592 C   0  0  0  0  0  0  0  0  0  0  0  0
    2.0674   67.6308   82.6816 C   0  0  0  0  0  0  0  0  0  0  0  0
    1.9001   67.0302   83.9271 C   0  0  0  0  0  0  0  0  0  0  0  0
    1.1629   65.8483   84.0238 C   0  0  0  0  0  0  0  0  0  0  0  0
    0.6047   65.2492   82.9399 N   0  0  0  0  0  0  0  0  0  0  0  0
    0.9939   65.1683   85.3665 C   0  0  0  0  0  0  0  0  0  0  0  0
    0.5988   63.8112   85.1642 O   0  0  0  0  0  0  0  0  0  0  0  0
   -0.5297   63.3900   85.8117 C   0  0  0  0  0  0  0  0  0  0  0  0
   -1.6352   62.7733   85.2236 C   0  0  0  0  0  0  0  0  0  0  0  0
   -2.7260   62.3904   86.0110 C   0  0  0  0  0  0  0  0  0  0  0  0
   -2.7171   62.6221   87.3855 C   0  0  0  0  0  0  0  0  0  0  0  0
   -1.6171   63.2381   87.9764 C   0  0  0  0  0  0  0  0  0  0  0  0
   -0.5288   63.6197   87.1902 C   0  0  0  0  0  0  0  0  0  0  0  0
 17 18  1  0  0  0
 18  5  1  0  0  0
  5  6  1  0  0  0
  6  7  2  0  0  0
  7  8  1  0  0  0
  8  1  1  0  0  0
  1  2  1  0  0  0
  2  3  2  0  0  0
  2 19  1  0  0  0
 19 20  1  0  0  0
 20 21  2  0  0  0
 21 22  1  0  0  0
 22 23  2  0  0  0
 23 25  1  0  0  0
 25 26  1  0  0  0
 26 27  1  0  0  0
 27 28  2  0  0  0
 28 29  1  0  0  0
 29 30  2  0  0  0
 30 31  1  0  0  0
 31 32  2  0  0  0
 23 24  1  0  0  0
  8  9  2  0  0  0
  9 10  1  0  0  0
 10 11  1  0  0  0
 11 12  2  0  0  0
 11 13  1  0  0  0
 13 14  1  0  0  0
 10  5  2  0  0  0
 24 19  2  0  0  0
 32 27  1  0  0  0
  1  4  1  0  0  0
 13 15  1  0  0  0
 14 16  1  0  0  0
M  END
> <minimizedAffinity>
-10.28773

$$$$



 32 34  0  0  0  0  0  0  0  0999 V2000
   -1.2278   62.6933   82.2680 N   0  0  0  0  0  0  0  0  0  0  0  0
   -1.4797   62.2812   83.5634 C   0  0  0  0  0  0  0  0  0  0  0  0
   -2.2179   61.3726   83.9211 O   0  0  0  0  0  0  0  0  0  0  0  0
   -0.5614   63.4607   82.2101 H   0  0  0  0  0  0  0  0  0  0  0  0
   -2.9869   61.1911   78.7227 C   0  0  0  0  0  0  0  0  0  0  0  0
   -3.7562   61.6708   79.7885 C   0  0  0  0  0  0  0  0  0  0  0  0
   -3.1447   62.1605   80.9476 C   0  0  0  0  0  0  0  0  0  0  0  0
   -1.7544   62.1839   81.0698 C   0  0  0  0  0  0  0  0  0  0  0  0
   -0.9799   61.7084   80.0126 C   0  0  0  0  0  0  0  0  0  0  0  0
   -1.5814   61.2169   78.8352 C   0  0  0  0  0  0  0  0  0  0  0  0
   -0.6493   60.7374   77.7665 C   0  0  0  0  0  0  0  0  0  0  0  0
    0.1460   61.4976   77.2159 O   0  0  0  0  0  0  0  0  0  0  0  0
   -0.7002   59.4060   77.4244 N   0  0  0  0  0  0  0  0  0  0  0  0
    0.3385   58.9559   76.5749 O   0  0  0  0  0  0  0  0  0  0  0  0
   -1.1175   58.7211   78.0494 H   0  0  0  0  0  0  0  0  0  0  0  0
    0.8167   59.7935   76.3841 H   0  0  0  0  0  0  0  0  0  0  0  0
   -3.5209   61.5103   76.4078 C   0  0  0  0  0  0  0  0  0  0  0  0
   -3.5284   60.6844   77.5684 O   0  0  0  0  0  0  0  0  0  0  0  0
   -0.7218   63.0818   84.5829 C   0  0  0  0  0  0  0  0  0  0  0  0
   -0.7909   62.7409   85.9263 C   0  0  0  0  0  0  0  0  0  0  0  0
   -0.0684   63.5077   86.8319 C   0  0  0  0  0  0  0  0  0  0  0  0
    0.6911   64.5785   86.3668 C   0  0  0  0  0  0  0  0  0  0  0  0
    0.7138   64.8590   84.9992 C   0  0  0  0  0  0  0  0  0  0  0  0
    0.0101   64.1282   84.0957 N   0  0  0  0  0  0  0  0  0  0  0  0
    1.5133   66.0359   84.4800 C   0  0  0  0  0  0  0  0  0  0  0  0
    2.8649   65.6311   84.2610 O   0  0  0  0  0  0  0  0  0  0  0  0
    3.8157   66.1713   85.0821 C   0  0  0  0  0  0  0  0  0  0  0  0
    4.2151   67.5084   85.1119 C   0  0  0  0  0  0  0  0  0  0  0  0
    5.2032   67.9255   86.0098 C   0  0  0  0  0  0  0  0  0  0  0  0
    5.7952   67.0106   86.8789 C   0  0  0  0  0  0  0  0  0  0  0  0
    5.4009   65.6755   86.8521 C   0  0  0  0  0  0  0  0  0  0  0  0
    4.4147   65.2599   85.9561 C   0  0  0  0  0  0  0  0  0  0  0  0
 17 18  1  0  0  0
 18  5  1  0  0  0
  5  6  1  0  0  0
  6  7  2  0  0  0
  7  8  1  0  0  0
  8  1  1  0  0  0
  1  2  1  0  0  0
  2  3  2  0  0  0
  2 19  1  0  0  0
 19 20  1  0  0  0
 20 21  2  0  0  0
 21 22  1  0  0  0
 22 23  2  0  0  0
 23 25  1  0  0  0
 25 26  1  0  0  0
 26 27  1  0  0  0
 27 28  2  0  0  0
 28 29  1  0  0  0
 29 30  2  0  0  0
 30 31  1  0  0  0
 31 32  2  0  0  0
 23 24  1  0  0  0
  8  9  2  0  0  0
  9 10  1  0  0  0
 10 11  1  0  0  0
 11 12  2  0  0  0
 11 13  1  0  0  0
 13 14  1  0  0  0
 10  5  2  0  0  0
 24 19  2  0  0  0
 32 27  1  0  0  0
  1  4  1  0  0  0
 13 15  1  0  0  0
 14 16  1  0  0  0
M  END
> <minimizedAffinity>
-9.92144

$$$$



 32 34  0  0  0  0  0  0  0  0999 V2000
   -0.6567   62.3995   82.3689 N   0  0  0  0  0  0  0  0  0  0  0  0
   -1.2346   62.1710   83.6038 C   0  0  0  0  0  0  0  0  0  0  0  0
   -2.1544   61.4053   83.8606 O   0  0  0  0  0  0  0  0  0  0  0  0
    0.1099   63.0687   82.3986 H   0  0  0  0  0  0  0  0  0  0  0  0
   -1.5093   60.7716   78.5553 C   0  0  0  0  0  0  0  0  0  0  0  0
   -0.5073   61.7293   78.7475 C   0  0  0  0  0  0  0  0  0  0  0  0
   -0.2500   62.2486   80.0208 C   0  0  0  0  0  0  0  0  0  0  0  0
   -0.9840   61.8248   81.1298 C   0  0  0  0  0  0  0  0  0  0  0  0
   -1.9840   60.8707   80.9478 C   0  0  0  0  0  0  0  0  0  0  0  0
   -2.2515   60.3333   79.6713 C   0  0  0  0  0  0  0  0  0  0  0  0
   -3.3446   59.3131   79.5988 C   0  0  0  0  0  0  0  0  0  0  0  0
   -3.4492   58.4196   80.4380 O   0  0  0  0  0  0  0  0  0  0  0  0
   -4.2443   59.4131   78.5631 N   0  0  0  0  0  0  0  0  0  0  0  0
   -5.3764   58.5689   78.6570 O   0  0  0  0  0  0  0  0  0  0  0  0
   -4.3566   60.2838   78.0502 H   0  0  0  0  0  0  0  0  0  0  0  0
   -5.1682   58.0454   79.4628 H   0  0  0  0  0  0  0  0  0  0  0  0
   -0.9253   59.2770   76.7746 C   0  0  0  0  0  0  0  0  0  0  0  0
   -1.8185   60.2376   77.3299 O   0  0  0  0  0  0  0  0  0  0  0  0
   -0.6038   62.9844   84.6971 C   0  0  0  0  0  0  0  0  0  0  0  0
   -0.7519   62.6014   86.0227 C   0  0  0  0  0  0  0  0  0  0  0  0
   -0.1459   63.3822   86.9989 C   0  0  0  0  0  0  0  0  0  0  0  0
    0.5804   64.5083   86.6191 C   0  0  0  0  0  0  0  0  0  0  0  0
    0.6876   64.8291   85.2644 C   0  0  0  0  0  0  0  0  0  0  0  0
    0.0981   64.0851   84.2926 N   0  0  0  0  0  0  0  0  0  0  0  0
    1.4514   66.0649   84.8363 C   0  0  0  0  0  0  0  0  0  0  0  0
    2.6923   65.6749   84.2473 O   0  0  0  0  0  0  0  0  0  0  0  0
    3.8334   66.0236   84.9155 C   0  0  0  0  0  0  0  0  0  0  0  0
    4.4083   65.3300   85.9816 C   0  0  0  0  0  0  0  0  0  0  0  0
    5.5850   65.8020   86.5725 C   0  0  0  0  0  0  0  0  0  0  0  0
    6.1901   66.9662   86.1021 C   0  0  0  0  0  0  0  0  0  0  0  0
    5.6198   67.6622   85.0396 C   0  0  0  0  0  0  0  0  0  0  0  0
    4.4457   67.1906   84.4503 C   0  0  0  0  0  0  0  0  0  0  0  0
 17 18  1  0  0  0
 18  5  1  0  0  0
  5  6  1  0  0  0
  6  7  2  0  0  0
  7  8  1  0  0  0
  8  1  1  0  0  0
  1  2  1  0  0  0
  2  3  2  0  0  0
  2 19  1  0  0  0
 19 20  1  0  0  0
 20 21  2  0  0  0
 21 22  1  0  0  0
 22 23  2  0  0  0
 23 25  1  0  0  0
 25 26  1  0  0  0
 26 27  1  0  0  0
 27 28  2  0  0  0
 28 29  1  0  0  0
 29 30  2  0  0  0
 30 31  1  0  0  0
 31 32  2  0  0  0
 23 24  1  0  0  0
  8  9  2  0  0  0
  9 10  1  0  0  0
 10 11  1  0  0  0
 11 12  2  0  0  0
 11 13  1  0  0  0
 13 14  1  0  0  0
 10  5  2  0  0  0
 24 19  2  0  0  0
 32 27  1  0  0  0
  1  4  1  0  0  0
 13 15  1  0  0  0
 14 16  1  0  0  0
M  END
> <minimizedAffinity>
-9.77915

$$$$



 32 34  0  0  0  0  0  0  0  0999 V2000
    0.7353   65.6645   83.1520 N   0  0  0  0  0  0  0  0  0  0  0  0
    0.4822   66.0500   81.8487 C   0  0  0  0  0  0  0  0  0  0  0  0
   -0.3145   65.5449   81.0686 O   0  0  0  0  0  0  0  0  0  0  0  0
    1.4292   66.2456   83.6181 H   0  0  0  0  0  0  0  0  0  0  0  0
   -0.9451   62.5754   85.5087 C   0  0  0  0  0  0  0  0  0  0  0  0
   -0.2231   63.6324   86.0740 C   0  0  0  0  0  0  0  0  0  0  0  0
    0.3206   64.6382   85.2677 C   0  0  0  0  0  0  0  0  0  0  0  0
    0.1561   64.6136   83.8819 C   0  0  0  0  0  0  0  0  0  0  0  0
   -0.5621   63.5645   83.3100 C   0  0  0  0  0  0  0  0  0  0  0  0
   -1.1213   62.5461   84.1099 C   0  0  0  0  0  0  0  0  0  0  0  0
   -1.8748   61.4745   83.3855 C   0  0  0  0  0  0  0  0  0  0  0  0
   -1.4775   61.0189   82.3140 O   0  0  0  0  0  0  0  0  0  0  0  0
   -3.0288   61.0012   83.9656 N   0  0  0  0  0  0  0  0  0  0  0  0
   -3.5846   59.8481   83.3618 O   0  0  0  0  0  0  0  0  0  0  0  0
   -3.2105   61.1388   84.9565 H   0  0  0  0  0  0  0  0  0  0  0  0
   -2.9923   59.7238   82.5870 H   0  0  0  0  0  0  0  0  0  0  0  0
   -2.4509   61.8838   87.2408 C   0  0  0  0  0  0  0  0  0  0  0  0
   -1.4878   61.5527   86.2448 O   0  0  0  0  0  0  0  0  0  0  0  0
    1.3107   67.2276   81.4224 C   0  0  0  0  0  0  0  0  0  0  0  0
    1.1528   67.7660   80.1532 C   0  0  0  0  0  0  0  0  0  0  0  0
    1.9377   68.8583   79.8057 C   0  0  0  0  0  0  0  0  0  0  0  0
    2.8447   69.3694   80.7310 C   0  0  0  0  0  0  0  0  0  0  0  0
    2.9455   68.7758   81.9907 C   0  0  0  0  0  0  0  0  0  0  0  0
    2.1940   67.7029   82.3507 N   0  0  0  0  0  0  0  0  0  0  0  0
    3.9454   69.3026   82.9990 C   0  0  0  0  0  0  0  0  0  0  0  0
    3.7894   68.6007   84.2325 O   0  0  0  0  0  0  0  0  0  0  0  0
    4.7196   67.6412   84.5228 C   0  0  0  0  0  0  0  0  0  0  0  0
    6.1014   67.7590   84.3652 C   0  0  0  0  0  0  0  0  0  0  0  0
    6.9398   66.6926   84.7063 C   0  0  0  0  0  0  0  0  0  0  0  0
    6.4022   65.5069   85.2045 C   0  0  0  0  0  0  0  0  0  0  0  0
    5.0243   65.3842   85.3624 C   0  0  0  0  0  0  0  0  0  0  0  0
    4.1883   66.4488   85.0220 C   0  0  0  0  0  0  0  0  0  0  0  0
 17 18  1  0  0  0
 18  5  1  0  0  0
  5  6  1  0  0  0
  6  7  2  0  0  0
  7  8  1  0  0  0
  8  1  1  0  0  0
  1  2  1  0  0  0
  2  3  2  0  0  0
  2 19  1  0  0  0
 19 20  1  0  0  0
 20 21  2  0  0  0
 21 22  1  0  0  0
 22 23  2  0  0  0
 23 25  1  0  0  0
 25 26  1  0  0  0
 26 27  1  0  0  0
 27 28  2  0  0  0
 28 29  1  0  0  0
 29 30  2  0  0  0
 30 31  1  0  0  0
 31 32  2  0  0  0
 23 24  1  0  0  0
  8  9  2  0  0  0
  9 10  1  0  0  0
 10 11  1  0  0  0
 11 12  2  0  0  0
 11 13  1  0  0  0
 13 14  1  0  0  0
 10  5  2  0  0  0
 24 19  2  0  0  0
 32 27  1  0  0  0
  1  4  1  0  0  0
 13 15  1  0  0  0
 14 16  1  0  0  0
M  END
> <minimizedAffinity>
-9.76343

$$$$



 32 34  0  0  0  0  0  0  0  0999 V2000
   -1.4554   62.5014   82.4098 N   0  0  0  0  0  0  0  0  0  0  0  0
   -1.7772   62.0293   83.6688 C   0  0  0  0  0  0  0  0  0  0  0  0
   -2.5403   61.1125   83.9431 O   0  0  0  0  0  0  0  0  0  0  0  0
   -0.7805   63.2634   82.4239 H   0  0  0  0  0  0  0  0  0  0  0  0
   -3.0418   61.1935   78.7094 C   0  0  0  0  0  0  0  0  0  0  0  0
   -3.8609   61.6314   79.7560 C   0  0  0  0  0  0  0  0  0  0  0  0
   -3.3059   62.0571   80.9676 C   0  0  0  0  0  0  0  0  0  0  0  0
   -1.9238   62.0568   81.1626 C   0  0  0  0  0  0  0  0  0  0  0  0
   -1.0999   61.6226   80.1252 C   0  0  0  0  0  0  0  0  0  0  0  0
   -1.6440   61.1958   78.8957 C   0  0  0  0  0  0  0  0  0  0  0  0
   -0.6621   60.7561   77.8548 C   0  0  0  0  0  0  0  0  0  0  0  0
    0.1446   61.5404   77.3572 O   0  0  0  0  0  0  0  0  0  0  0  0
   -0.6808   59.4336   77.4770 N   0  0  0  0  0  0  0  0  0  0  0  0
    0.3981   59.0189   76.6602 O   0  0  0  0  0  0  0  0  0  0  0  0
   -1.1140   58.7274   78.0665 H   0  0  0  0  0  0  0  0  0  0  0  0
    0.8723   59.8671   76.5107 H   0  0  0  0  0  0  0  0  0  0  0  0
   -3.5658   61.6709   76.4196 C   0  0  0  0  0  0  0  0  0  0  0  0
   -3.5274   60.7497   77.5054 O   0  0  0  0  0  0  0  0  0  0  0  0
   -1.0661   62.7710   84.7639 C   0  0  0  0  0  0  0  0  0  0  0  0
   -1.2770   62.4225   86.0904 C   0  0  0  0  0  0  0  0  0  0  0  0
   -0.5930   63.1337   87.0684 C   0  0  0  0  0  0  0  0  0  0  0  0
    0.2701   64.1590   86.6892 C   0  0  0  0  0  0  0  0  0  0  0  0
    0.4332   64.4504   85.3334 C   0  0  0  0  0  0  0  0  0  0  0  0
   -0.2300   63.7739   84.3598 N   0  0  0  0  0  0  0  0  0  0  0  0
    1.3475   65.5795   84.9056 C   0  0  0  0  0  0  0  0  0  0  0  0
    1.6992   65.4102   83.5321 O   0  0  0  0  0  0  0  0  0  0  0  0
    1.2599   66.3643   82.6565 C   0  0  0  0  0  0  0  0  0  0  0  0
    0.4169   66.1543   81.5640 C   0  0  0  0  0  0  0  0  0  0  0  0
    0.0441   67.2283   80.7490 C   0  0  0  0  0  0  0  0  0  0  0  0
    0.5114   68.5130   81.0212 C   0  0  0  0  0  0  0  0  0  0  0  0
    1.3534   68.7272   82.1092 C   0  0  0  0  0  0  0  0  0  0  0  0
    1.7249   67.6552   82.9222 C   0  0  0  0  0  0  0  0  0  0  0  0
 17 18  1  0  0  0
 18  5  1  0  0  0
  5  6  1  0  0  0
  6  7  2  0  0  0
  7  8  1  0  0  0
  8  1  1  0  0  0
  1  2  1  0  0  0
  2  3  2  0  0  0
  2 19  1  0  0  0
 19 20  1  0  0  0
 20 21  2  0  0  0
 21 22  1  0  0  0
 22 23  2  0  0  0
 23 25  1  0  0  0
 25 26  1  0  0  0
 26 27  1  0  0  0
 27 28  2  0  0  0
 28 29  1  0  0  0
 29 30  2  0  0  0
 30 31  1  0  0  0
 31 32  2  0  0  0
 23 24  1  0  0  0
  8  9  2  0  0  0
  9 10  1  0  0  0
 10 11  1  0  0  0
 11 12  2  0  0  0
 11 13  1  0  0  0
 13 14  1  0  0  0
 10  5  2  0  0  0
 24 19  2  0  0  0
 32 27  1  0  0  0
  1  4  1  0  0  0
 13 15  1  0  0  0
 14 16  1  0  0  0
M  END
> <minimizedAffinity>
-9.66465

$$$$



 32 34  0  0  0  0  0  0  0  0999 V2000
    0.1609   63.3667   81.2354 N   0  0  0  0  0  0  0  0  0  0  0  0
    0.0059   64.7252   81.4400 C   0  0  0  0  0  0  0  0  0  0  0  0
   -0.5477   65.5271   80.6992 O   0  0  0  0  0  0  0  0  0  0  0  0
    0.6406   62.8948   81.9994 H   0  0  0  0  0  0  0  0  0  0  0  0
   -0.9774   61.0992   77.8468 C   0  0  0  0  0  0  0  0  0  0  0  0
    0.1408   61.9403   77.8367 C   0  0  0  0  0  0  0  0  0  0  0  0
    0.4907   62.6775   78.9732 C   0  0  0  0  0  0  0  0  0  0  0  0
   -0.2645   62.5920   80.1439 C   0  0  0  0  0  0  0  0  0  0  0  0
   -1.3800   61.7561   80.1632 C   0  0  0  0  0  0  0  0  0  0  0  0
   -1.7424   61.0021   79.0274 C   0  0  0  0  0  0  0  0  0  0  0  0
   -2.9559   60.1368   79.1673 C   0  0  0  0  0  0  0  0  0  0  0  0
   -4.0361   60.4565   78.6728 O   0  0  0  0  0  0  0  0  0  0  0  0
   -2.8225   58.9565   79.8610 N   0  0  0  0  0  0  0  0  0  0  0  0
   -3.9275   58.0758   79.7813 O   0  0  0  0  0  0  0  0  0  0  0  0
   -1.9077   58.5398   80.0130 H   0  0  0  0  0  0  0  0  0  0  0  0
   -4.5736   58.6125   79.2703 H   0  0  0  0  0  0  0  0  0  0  0  0
   -0.6463   59.1852   76.4421 C   0  0  0  0  0  0  0  0  0  0  0  0
   -1.3794   60.3644   76.7601 O   0  0  0  0  0  0  0  0  0  0  0  0
    0.6037   65.1867   82.7379 C   0  0  0  0  0  0  0  0  0  0  0  0
    0.1897   64.6193   83.9348 C   0  0  0  0  0  0  0  0  0  0  0  0
    0.7750   65.0749   85.1094 C   0  0  0  0  0  0  0  0  0  0  0  0
    1.7448   66.0726   85.0469 C   0  0  0  0  0  0  0  0  0  0  0  0
    2.1120   66.5936   83.8046 C   0  0  0  0  0  0  0  0  0  0  0  0
    1.5489   66.1693   82.6435 N   0  0  0  0  0  0  0  0  0  0  0  0
    3.1457   67.6975   83.7212 C   0  0  0  0  0  0  0  0  0  0  0  0
    3.7692   67.8602   84.9954 O   0  0  0  0  0  0  0  0  0  0  0  0
    4.9411   67.1870   85.2037 C   0  0  0  0  0  0  0  0  0  0  0  0
    5.2201   66.3289   86.2687 C   0  0  0  0  0  0  0  0  0  0  0  0
    6.4673   65.7017   86.3559 C   0  0  0  0  0  0  0  0  0  0  0  0
    7.4385   65.9291   85.3823 C   0  0  0  0  0  0  0  0  0  0  0  0
    7.1653   66.7851   84.3188 C   0  0  0  0  0  0  0  0  0  0  0  0
    5.9205   67.4106   84.2321 C   0  0  0  0  0  0  0  0  0  0  0  0
 17 18  1  0  0  0
 18  5  1  0  0  0
  5  6  1  0  0  0
  6  7  2  0  0  0
  7  8  1  0  0  0
  8  1  1  0  0  0
  1  2  1  0  0  0
  2  3  2  0  0  0
  2 19  1  0  0  0
 19 20  1  0  0  0
 20 21  2  0  0  0
 21 22  1  0  0  0
 22 23  2  0  0  0
 23 25  1  0  0  0
 25 26  1  0  0  0
 26 27  1  0  0  0
 27 28  2  0  0  0
 28 29  1  0  0  0
 29 30  2  0  0  0
 30 31  1  0  0  0
 31 32  2  0  0  0
 23 24  1  0  0  0
  8  9  2  0  0  0
  9 10  1  0  0  0
 10 11  1  0  0  0
 11 12  2  0  0  0
 11 13  1  0  0  0
 13 14  1  0  0  0
 10  5  2  0  0  0
 24 19  2  0  0  0
 32 27  1  0  0  0
  1  4  1  0  0  0
 13 15  1  0  0  0
 14 16  1  0  0  0
M  END
> <minimizedAffinity>
-9.64839

$$$$



 32 34  0  0  0  0  0  0  0  0999 V2000
    0.2583   65.3845   81.8711 N   0  0  0  0  0  0  0  0  0  0  0  0
    0.1391   64.7033   80.6740 C   0  0  0  0  0  0  0  0  0  0  0  0
    0.7542   64.9150   79.6371 O   0  0  0  0  0  0  0  0  0  0  0  0
   -0.3438   65.0190   82.6061 H   0  0  0  0  0  0  0  0  0  0  0  0
    2.6964   68.7534   82.6627 C   0  0  0  0  0  0  0  0  0  0  0  0
    1.7567   68.7432   81.6260 C   0  0  0  0  0  0  0  0  0  0  0  0
    0.9660   67.6136   81.3893 C   0  0  0  0  0  0  0  0  0  0  0  0
    1.0933   66.4706   82.1804 C   0  0  0  0  0  0  0  0  0  0  0  0
    2.0266   66.4720   83.2159 C   0  0  0  0  0  0  0  0  0  0  0  0
    2.8271   67.6051   83.4708 C   0  0  0  0  0  0  0  0  0  0  0  0
    3.7904   67.4918   84.6110 C   0  0  0  0  0  0  0  0  0  0  0  0
    4.7011   66.6646   84.6059 O   0  0  0  0  0  0  0  0  0  0  0  0
    3.6330   68.3569   85.6688 N   0  0  0  0  0  0  0  0  0  0  0  0
    4.6869   68.3610   86.6135 O   0  0  0  0  0  0  0  0  0  0  0  0
    3.0986   69.2158   85.5668 H   0  0  0  0  0  0  0  0  0  0  0  0
    5.2616   67.6392   86.2739 H   0  0  0  0  0  0  0  0  0  0  0  0
    2.9745   71.1323   82.7604 C   0  0  0  0  0  0  0  0  0  0  0  0
    3.5107   69.8239   82.9334 O   0  0  0  0  0  0  0  0  0  0  0  0
   -0.8706   63.5937   80.7379 C   0  0  0  0  0  0  0  0  0  0  0  0
   -1.3029   62.9789   79.5713 C   0  0  0  0  0  0  0  0  0  0  0  0
   -2.2340   61.9537   79.6808 C   0  0  0  0  0  0  0  0  0  0  0  0
   -2.6960   61.5824   80.9412 C   0  0  0  0  0  0  0  0  0  0  0  0
   -2.2123   62.2459   82.0705 C   0  0  0  0  0  0  0  0  0  0  0  0
   -1.3075   63.2558   81.9881 N   0  0  0  0  0  0  0  0  0  0  0  0
   -2.7241   61.8725   83.4462 C   0  0  0  0  0  0  0  0  0  0  0  0
   -1.6221   61.5169   84.2815 O   0  0  0  0  0  0  0  0  0  0  0  0
   -1.4546   62.2405   85.4298 C   0  0  0  0  0  0  0  0  0  0  0  0
   -0.3170   62.9657   85.7879 C   0  0  0  0  0  0  0  0  0  0  0  0
   -0.2836   63.6656   86.9985 C   0  0  0  0  0  0  0  0  0  0  0  0
   -1.3836   63.6432   87.8543 C   0  0  0  0  0  0  0  0  0  0  0  0
   -2.5202   62.9203   87.5019 C   0  0  0  0  0  0  0  0  0  0  0  0
   -2.5530   62.2223   86.2937 C   0  0  0  0  0  0  0  0  0  0  0  0
 17 18  1  0  0  0
 18  5  1  0  0  0
  5  6  1  0  0  0
  6  7  2  0  0  0
  7  8  1  0  0  0
  8  1  1  0  0  0
  1  2  1  0  0  0
  2  3  2  0  0  0
  2 19  1  0  0  0
 19 20  1  0  0  0
 20 21  2  0  0  0
 21 22  1  0  0  0
 22 23  2  0  0  0
 23 25  1  0  0  0
 25 26  1  0  0  0
 26 27  1  0  0  0
 27 28  2  0  0  0
 28 29  1  0  0  0
 29 30  2  0  0  0
 30 31  1  0  0  0
 31 32  2  0  0  0
 23 24  1  0  0  0
  8  9  2  0  0  0
  9 10  1  0  0  0
 10 11  1  0  0  0
 11 12  2  0  0  0
 11 13  1  0  0  0
 13 14  1  0  0  0
 10  5  2  0  0  0
 24 19  2  0  0  0
 32 27  1  0  0  0
  1  4  1  0  0  0
 13 15  1  0  0  0
 14 16  1  0  0  0
M  END
> <minimizedAffinity>
-9.58762

$$$$



 32 34  0  0  0  0  0  0  0  0999 V2000
   -0.3585   64.5663   79.5739 N   0  0  0  0  0  0  0  0  0  0  0  0
    0.1071   64.7392   80.8641 C   0  0  0  0  0  0  0  0  0  0  0  0
    0.2655   63.8748   81.7162 O   0  0  0  0  0  0  0  0  0  0  0  0
   -0.3896   65.4301   79.0360 H   0  0  0  0  0  0  0  0  0  0  0  0
   -1.4567   61.0257   77.5299 C   0  0  0  0  0  0  0  0  0  0  0  0
   -0.4897   61.9039   77.0283 C   0  0  0  0  0  0  0  0  0  0  0  0
   -0.1491   63.0668   77.7276 C   0  0  0  0  0  0  0  0  0  0  0  0
   -0.7632   63.3794   78.9414 C   0  0  0  0  0  0  0  0  0  0  0  0
   -1.7275   62.5100   79.4490 C   0  0  0  0  0  0  0  0  0  0  0  0
   -2.0777   61.3308   78.7586 C   0  0  0  0  0  0  0  0  0  0  0  0
   -3.1220   60.4727   79.4022 C   0  0  0  0  0  0  0  0  0  0  0  0
   -4.2352   60.9142   79.6841 O   0  0  0  0  0  0  0  0  0  0  0  0
   -2.8009   59.1602   79.6596 N   0  0  0  0  0  0  0  0  0  0  0  0
   -3.8798   58.3377   80.0627 O   0  0  0  0  0  0  0  0  0  0  0  0
   -2.0268   58.7076   79.1803 H   0  0  0  0  0  0  0  0  0  0  0  0
   -4.6142   58.9884   80.1241 H   0  0  0  0  0  0  0  0  0  0  0  0
   -0.8354   58.9381   76.5291 C   0  0  0  0  0  0  0  0  0  0  0  0
   -1.8442   59.8795   76.8829 O   0  0  0  0  0  0  0  0  0  0  0  0
    0.4383   66.1710   81.1727 C   0  0  0  0  0  0  0  0  0  0  0  0
   -0.1522   67.1939   80.4441 C   0  0  0  0  0  0  0  0  0  0  0  0
    0.1810   68.5028   80.7692 C   0  0  0  0  0  0  0  0  0  0  0  0
    1.0847   68.7410   81.8020 C   0  0  0  0  0  0  0  0  0  0  0  0
    1.6360   67.6597   82.4924 C   0  0  0  0  0  0  0  0  0  0  0  0
    1.3310   66.3714   82.1879 N   0  0  0  0  0  0  0  0  0  0  0  0
    2.6402   67.9005   83.6003 C   0  0  0  0  0  0  0  0  0  0  0  0
    3.5872   66.8320   83.6221 O   0  0  0  0  0  0  0  0  0  0  0  0
    4.2532   66.6167   84.7969 C   0  0  0  0  0  0  0  0  0  0  0  0
    4.4996   65.3769   85.3889 C   0  0  0  0  0  0  0  0  0  0  0  0
    5.1995   65.3035   86.5978 C   0  0  0  0  0  0  0  0  0  0  0  0
    5.6543   66.4656   87.2187 C   0  0  0  0  0  0  0  0  0  0  0  0
    5.4100   67.7047   86.6326 C   0  0  0  0  0  0  0  0  0  0  0  0
    4.7117   67.7773   85.4263 C   0  0  0  0  0  0  0  0  0  0  0  0
 17 18  1  0  0  0
 18  5  1  0  0  0
  5  6  1  0  0  0
  6  7  2  0  0  0
  7  8  1  0  0  0
  8  1  1  0  0  0
  1  2  1  0  0  0
  2  3  2  0  0  0
  2 19  1  0  0  0
 19 20  1  0  0  0
 20 21  2  0  0  0
 21 22  1  0  0  0
 22 23  2  0  0  0
 23 25  1  0  0  0
 25 26  1  0  0  0
 26 27  1  0  0  0
 27 28  2  0  0  0
 28 29  1  0  0  0
 29 30  2  0  0  0
 30 31  1  0  0  0
 31 32  2  0  0  0
 23 24  1  0  0  0
  8  9  2  0  0  0
  9 10  1  0  0  0
 10 11  1  0  0  0
 11 12  2  0  0  0
 11 13  1  0  0  0
 13 14  1  0  0  0
 10  5  2  0  0  0
 24 19  2  0  0  0
 32 27  1  0  0  0
  1  4  1  0  0  0
 13 15  1  0  0  0
 14 16  1  0  0  0
M  END
> <minimizedAffinity>
-9.56345

$$$$



 32 34  0  0  0  0  0  0  0  0999 V2000
   -0.2076   64.7917   80.6707 N   0  0  0  0  0  0  0  0  0  0  0  0
    0.5450   65.0388   81.8038 C   0  0  0  0  0  0  0  0  0  0  0  0
    0.8721   64.2336   82.6656 O   0  0  0  0  0  0  0  0  0  0  0  0
   -0.3388   65.6140   80.0850 H   0  0  0  0  0  0  0  0  0  0  0  0
   -2.0404   61.1497   79.5320 C   0  0  0  0  0  0  0  0  0  0  0  0
   -2.4581   61.8727   80.6548 C   0  0  0  0  0  0  0  0  0  0  0  0
   -1.8314   63.0733   81.0054 C   0  0  0  0  0  0  0  0  0  0  0  0
   -0.7762   63.5801   80.2450 C   0  0  0  0  0  0  0  0  0  0  0  0
   -0.3536   62.8667   79.1244 C   0  0  0  0  0  0  0  0  0  0  0  0
   -0.9791   61.6576   78.7547 C   0  0  0  0  0  0  0  0  0  0  0  0
   -0.4430   60.9826   77.5308 C   0  0  0  0  0  0  0  0  0  0  0  0
   -0.0898   61.6249   76.5427 O   0  0  0  0  0  0  0  0  0  0  0  0
   -0.3444   59.6108   77.5491 N   0  0  0  0  0  0  0  0  0  0  0  0
    0.3647   59.0372   76.4668 O   0  0  0  0  0  0  0  0  0  0  0  0
   -0.3438   59.0982   78.4272 H   0  0  0  0  0  0  0  0  0  0  0  0
    0.5519   59.8263   75.9109 H   0  0  0  0  0  0  0  0  0  0  0  0
   -3.3396   59.2229   80.1199 C   0  0  0  0  0  0  0  0  0  0  0  0
   -2.6044   59.9596   79.1473 O   0  0  0  0  0  0  0  0  0  0  0  0
    0.9743   66.4738   81.9115 C   0  0  0  0  0  0  0  0  0  0  0  0
    0.6497   67.3741   80.9066 C   0  0  0  0  0  0  0  0  0  0  0  0
    1.0639   68.6920   81.0528 C   0  0  0  0  0  0  0  0  0  0  0  0
    1.7815   69.0604   82.1883 C   0  0  0  0  0  0  0  0  0  0  0  0
    2.0684   68.0985   83.1589 C   0  0  0  0  0  0  0  0  0  0  0  0
    1.6802   66.8026   83.0347 N   0  0  0  0  0  0  0  0  0  0  0  0
    2.8705   68.4765   84.3867 C   0  0  0  0  0  0  0  0  0  0  0  0
    4.2372   68.1128   84.1906 O   0  0  0  0  0  0  0  0  0  0  0  0
    4.8071   67.3066   85.1368 C   0  0  0  0  0  0  0  0  0  0  0  0
    5.1506   67.6787   86.4375 C   0  0  0  0  0  0  0  0  0  0  0  0
    5.7280   66.7454   87.3047 C   0  0  0  0  0  0  0  0  0  0  0  0
    5.9645   65.4401   86.8768 C   0  0  0  0  0  0  0  0  0  0  0  0
    5.6246   65.0645   85.5799 C   0  0  0  0  0  0  0  0  0  0  0  0
    5.0483   65.9962   84.7150 C   0  0  0  0  0  0  0  0  0  0  0  0
 17 18  1  0  0  0
 18  5  1  0  0  0
  5  6  1  0  0  0
  6  7  2  0  0  0
  7  8  1  0  0  0
  8  1  1  0  0  0
  1  2  1  0  0  0
  2  3  2  0  0  0
  2 19  1  0  0  0
 19 20  1  0  0  0
 20 21  2  0  0  0
 21 22  1  0  0  0
 22 23  2  0  0  0
 23 25  1  0  0  0
 25 26  1  0  0  0
 26 27  1  0  0  0
 27 28  2  0  0  0
 28 29  1  0  0  0
 29 30  2  0  0  0
 30 31  1  0  0  0
 31 32  2  0  0  0
 23 24  1  0  0  0
  8  9  2  0  0  0
  9 10  1  0  0  0
 10 11  1  0  0  0
 11 12  2  0  0  0
 11 13  1  0  0  0
 13 14  1  0  0  0
 10  5  2  0  0  0
 24 19  2  0  0  0
 32 27  1  0  0  0
  1  4  1  0  0  0
 13 15  1  0  0  0
 14 16  1  0  0  0
M  END
> <minimizedAffinity>
-9.45978

$$$$
