


 27 29  0  0  0  0  0  0  0  0999 V2000
   -1.6067   62.1536   83.8767 C   0  0  0  0  0  0  0  0  0  0  0  0
   -2.3156   61.1477   83.3813 N   0  0  0  0  0  0  0  0  0  0  0  0
   -2.0266   61.1084   82.0379 C   0  0  0  0  0  0  0  0  0  0  0  0
   -2.5152   60.2002   81.0266 C   0  0  0  0  0  0  0  0  0  0  0  0
   -3.2900   59.2791   81.2729 O   0  0  0  0  0  0  0  0  0  0  0  0
   -2.0007   60.4755   79.7472 N   0  0  0  0  0  0  0  0  0  0  0  0
   -2.4170   59.6035   78.6667 C   0  0  0  0  0  0  0  0  0  0  0  0
   -1.0470   61.4622   79.4194 C   0  0  0  0  0  0  0  0  0  0  0  0
   -0.5839   61.5491   78.2782 O   0  0  0  0  0  0  0  0  0  0  0  0
   -0.6408   62.3395   80.4444 N   0  0  0  0  0  0  0  0  0  0  0  0
   -1.1448   62.0960   81.7050 C   0  0  0  0  0  0  0  0  0  0  0  0
   -0.8754   62.7482   82.8679 N   0  0  0  0  0  0  0  0  0  0  0  0
   -0.2564   63.5326   83.0155 H   0  0  0  0  0  0  0  0  0  0  0  0
   -0.5116   63.3244   85.8544 C   0  0  0  0  0  0  0  0  0  0  0  0
   -0.5833   63.7091   87.2018 C   0  0  0  0  0  0  0  0  0  0  0  0
   -1.6921   63.3736   87.9825 C   0  0  0  0  0  0  0  0  0  0  0  0
   -2.7424   62.6530   87.4279 C   0  0  0  0  0  0  0  0  0  0  0  0
   -2.6857   62.2695   86.0888 C   0  0  0  0  0  0  0  0  0  0  0  0
   -1.5810   62.5968   85.2812 C   0  0  0  0  0  0  0  0  0  0  0  0
    0.5528   63.6257   85.0353 O   0  0  0  0  0  0  0  0  0  0  0  0
    1.1672   64.9076   85.1877 C   0  0  0  0  0  0  0  0  0  0  0  0
    1.8053   66.9410   83.8396 C   0  0  0  0  0  0  0  0  0  0  0  0
    0.9839   65.6651   83.8757 C   0  0  0  0  0  0  0  0  0  0  0  0
    0.3180   63.4032   80.1376 C   0  0  0  0  0  0  0  0  0  0  0  0
   -0.2822   64.6740   79.4963 C   0  0  0  0  0  0  0  0  0  0  0  0
    0.3628   65.0327   78.1582 C   0  0  0  0  0  0  0  0  0  0  0  0
   -0.2618   65.8840   80.4298 C   0  0  0  0  0  0  0  0  0  0  0  0
 22 23  1  0  0  0
 23 21  1  0  0  0
 21 20  1  0  0  0
 20 14  1  0  0  0
 14 15  2  0  0  0
 15 16  1  0  0  0
 16 17  2  0  0  0
 17 18  1  0  0  0
 18 19  2  0  0  0
 19  1  1  0  0  0
  1  2  2  0  0  0
  2  3  1  0  0  0
  3  4  1  0  0  0
  4  5  2  0  0  0
  4  6  1  0  0  0
  6  7  1  0  0  0
  6  8  1  0  0  0
  8  9  2  0  0  0
  8 10  1  0  0  0
 10 24  1  0  0  0
 24 25  1  0  0  0
 25 26  1  0  0  0
 25 27  1  0  0  0
 10 11  1  0  0  0
 11 12  1  0  0  0
 19 14  1  0  0  0
 12  1  1  0  0  0
 11  3  2  0  0  0
 12 13  1  0  0  0
M  END
> <minimizedAffinity>
-9.05753

$$$$



 27 29  0  0  0  0  0  0  0  0999 V2000
   -1.3647   61.8424   81.9934 C   0  0  0  0  0  0  0  0  0  0  0  0
   -2.0744   60.8745   81.4283 N   0  0  0  0  0  0  0  0  0  0  0  0
   -1.6884   60.8450   80.1092 C   0  0  0  0  0  0  0  0  0  0  0  0
   -2.1365   59.9740   79.0477 C   0  0  0  0  0  0  0  0  0  0  0  0
   -2.9635   59.0816   79.2190 O   0  0  0  0  0  0  0  0  0  0  0  0
   -1.5180   60.2484   77.8150 N   0  0  0  0  0  0  0  0  0  0  0  0
   -1.8875   59.4116   76.6905 C   0  0  0  0  0  0  0  0  0  0  0  0
   -0.5042   61.2002   77.5769 C   0  0  0  0  0  0  0  0  0  0  0  0
    0.0452   61.2862   76.4746 O   0  0  0  0  0  0  0  0  0  0  0  0
   -0.1405   62.0434   78.6455 N   0  0  0  0  0  0  0  0  0  0  0  0
   -0.7458   61.8007   79.8608 C   0  0  0  0  0  0  0  0  0  0  0  0
   -0.5376   62.4225   81.0525 N   0  0  0  0  0  0  0  0  0  0  0  0
    0.0995   63.1784   81.2601 H   0  0  0  0  0  0  0  0  0  0  0  0
   -0.4223   63.0327   84.0371 C   0  0  0  0  0  0  0  0  0  0  0  0
   -0.5746   63.3895   85.3854 C   0  0  0  0  0  0  0  0  0  0  0  0
   -1.6987   62.9840   86.1090 C   0  0  0  0  0  0  0  0  0  0  0  0
   -2.6841   62.2206   85.4958 C   0  0  0  0  0  0  0  0  0  0  0  0
   -2.5471   61.8641   84.1551 C   0  0  0  0  0  0  0  0  0  0  0  0
   -1.4255   62.2615   83.4042 C   0  0  0  0  0  0  0  0  0  0  0  0
    0.6609   63.4024   83.2724 O   0  0  0  0  0  0  0  0  0  0  0  0
    1.1911   64.7167   83.4618 C   0  0  0  0  0  0  0  0  0  0  0  0
    1.3323   66.9309   82.2632 C   0  0  0  0  0  0  0  0  0  0  0  0
    0.5823   65.6175   82.3909 C   0  0  0  0  0  0  0  0  0  0  0  0
    0.8800   63.0716   78.4302 C   0  0  0  0  0  0  0  0  0  0  0  0
    0.3749   64.5305   78.4843 C   0  0  0  0  0  0  0  0  0  0  0  0
   -0.4899   64.9110   77.2831 C   0  0  0  0  0  0  0  0  0  0  0  0
    1.5004   65.5488   78.6640 C   0  0  0  0  0  0  0  0  0  0  0  0
 22 23  1  0  0  0
 23 21  1  0  0  0
 21 20  1  0  0  0
 20 14  1  0  0  0
 14 15  2  0  0  0
 15 16  1  0  0  0
 16 17  2  0  0  0
 17 18  1  0  0  0
 18 19  2  0  0  0
 19  1  1  0  0  0
  1  2  2  0  0  0
  2  3  1  0  0  0
  3  4  1  0  0  0
  4  5  2  0  0  0
  4  6  1  0  0  0
  6  7  1  0  0  0
  6  8  1  0  0  0
  8  9  2  0  0  0
  8 10  1  0  0  0
 10 24  1  0  0  0
 24 25  1  0  0  0
 25 26  1  0  0  0
 25 27  1  0  0  0
 10 11  1  0  0  0
 11 12  1  0  0  0
 19 14  1  0  0  0
 12  1  1  0  0  0
 11  3  2  0  0  0
 12 13  1  0  0  0
M  END
> <minimizedAffinity>
-8.88119

$$$$



 27 29  0  0  0  0  0  0  0  0999 V2000
    1.1542   65.6406   83.7299 C   0  0  0  0  0  0  0  0  0  0  0  0
    0.6447   64.9262   82.7350 N   0  0  0  0  0  0  0  0  0  0  0  0
   -0.1698   63.9879   83.3232 C   0  0  0  0  0  0  0  0  0  0  0  0
   -0.9778   62.9644   82.7019 C   0  0  0  0  0  0  0  0  0  0  0  0
   -1.0480   62.8151   81.4844 O   0  0  0  0  0  0  0  0  0  0  0  0
   -1.6773   62.1769   83.6334 N   0  0  0  0  0  0  0  0  0  0  0  0
   -2.5339   61.1339   83.1047 C   0  0  0  0  0  0  0  0  0  0  0  0
   -1.7021   62.3538   85.0330 C   0  0  0  0  0  0  0  0  0  0  0  0
   -2.4362   61.6682   85.7507 O   0  0  0  0  0  0  0  0  0  0  0  0
   -0.8620   63.3451   85.5777 N   0  0  0  0  0  0  0  0  0  0  0  0
   -0.1555   64.1202   84.6818 C   0  0  0  0  0  0  0  0  0  0  0  0
    0.6737   65.1683   84.9350 N   0  0  0  0  0  0  0  0  0  0  0  0
    0.9226   65.5664   85.8293 H   0  0  0  0  0  0  0  0  0  0  0  0
    3.3603   66.8081   84.2311 C   0  0  0  0  0  0  0  0  0  0  0  0
    4.1873   67.9262   84.0451 C   0  0  0  0  0  0  0  0  0  0  0  0
    3.7682   69.0017   83.2582 C   0  0  0  0  0  0  0  0  0  0  0  0
    2.5214   68.9733   82.6463 C   0  0  0  0  0  0  0  0  0  0  0  0
    1.6925   67.8657   82.8189 C   0  0  0  0  0  0  0  0  0  0  0  0
    2.0923   66.7693   83.6048 C   0  0  0  0  0  0  0  0  0  0  0  0
    3.7176   65.7189   84.9931 O   0  0  0  0  0  0  0  0  0  0  0  0
    5.0184   65.7203   85.5864 C   0  0  0  0  0  0  0  0  0  0  0  0
    5.5714   65.5891   88.0433 C   0  0  0  0  0  0  0  0  0  0  0  0
    4.9459   64.8782   86.8570 C   0  0  0  0  0  0  0  0  0  0  0  0
   -0.8277   63.5353   87.0294 C   0  0  0  0  0  0  0  0  0  0  0  0
    0.3315   62.8269   87.7650 C   0  0  0  0  0  0  0  0  0  0  0  0
   -0.0815   62.2468   89.1172 C   0  0  0  0  0  0  0  0  0  0  0  0
    1.5674   63.7110   87.9288 C   0  0  0  0  0  0  0  0  0  0  0  0
 22 23  1  0  0  0
 23 21  1  0  0  0
 21 20  1  0  0  0
 20 14  1  0  0  0
 14 15  2  0  0  0
 15 16  1  0  0  0
 16 17  2  0  0  0
 17 18  1  0  0  0
 18 19  2  0  0  0
 19  1  1  0  0  0
  1  2  2  0  0  0
  2  3  1  0  0  0
  3  4  1  0  0  0
  4  5  2  0  0  0
  4  6  1  0  0  0
  6  7  1  0  0  0
  6  8  1  0  0  0
  8  9  2  0  0  0
  8 10  1  0  0  0
 10 24  1  0  0  0
 24 25  1  0  0  0
 25 26  1  0  0  0
 25 27  1  0  0  0
 10 11  1  0  0  0
 11 12  1  0  0  0
 19 14  1  0  0  0
 12  1  1  0  0  0
 11  3  2  0  0  0
 12 13  1  0  0  0
M  END
> <minimizedAffinity>
-8.79826

$$$$



 27 29  0  0  0  0  0  0  0  0999 V2000
    1.0895   65.6587   83.3500 C   0  0  0  0  0  0  0  0  0  0  0  0
    0.4739   65.3185   82.2253 N   0  0  0  0  0  0  0  0  0  0  0  0
   -0.2905   64.2177   82.5320 C   0  0  0  0  0  0  0  0  0  0  0  0
   -1.1700   63.4524   81.6793 C   0  0  0  0  0  0  0  0  0  0  0  0
   -1.3632   63.7287   80.4978 O   0  0  0  0  0  0  0  0  0  0  0  0
   -1.7837   62.3780   82.3472 N   0  0  0  0  0  0  0  0  0  0  0  0
   -2.7027   61.5616   81.5790 C   0  0  0  0  0  0  0  0  0  0  0  0
   -1.6665   62.0631   83.7175 C   0  0  0  0  0  0  0  0  0  0  0  0
   -2.3346   61.1569   84.2242 O   0  0  0  0  0  0  0  0  0  0  0  0
   -0.7631   62.8251   84.4845 N   0  0  0  0  0  0  0  0  0  0  0  0
   -0.1391   63.8758   83.8449 C   0  0  0  0  0  0  0  0  0  0  0  0
    0.7252   64.7911   84.3603 N   0  0  0  0  0  0  0  0  0  0  0  0
    1.0673   64.8632   85.3078 H   0  0  0  0  0  0  0  0  0  0  0  0
    3.1742   66.7216   84.3528 C   0  0  0  0  0  0  0  0  0  0  0  0
    4.0106   67.8437   84.4528 C   0  0  0  0  0  0  0  0  0  0  0  0
    3.7159   69.0187   83.7570 C   0  0  0  0  0  0  0  0  0  0  0  0
    2.5857   69.0870   82.9521 C   0  0  0  0  0  0  0  0  0  0  0  0
    1.7495   67.9772   82.8400 C   0  0  0  0  0  0  0  0  0  0  0  0
    2.0255   66.7818   83.5290 C   0  0  0  0  0  0  0  0  0  0  0  0
    3.4120   65.5372   85.0125 O   0  0  0  0  0  0  0  0  0  0  0  0
    4.7304   65.3100   85.5167 C   0  0  0  0  0  0  0  0  0  0  0  0
    5.6011   65.6365   87.8608 C   0  0  0  0  0  0  0  0  0  0  0  0
    4.5997   64.9080   86.9831 C   0  0  0  0  0  0  0  0  0  0  0  0
   -0.5817   62.5060   85.9023 C   0  0  0  0  0  0  0  0  0  0  0  0
   -1.3042   63.4461   86.8926 C   0  0  0  0  0  0  0  0  0  0  0  0
   -0.5121   63.6879   88.1770 C   0  0  0  0  0  0  0  0  0  0  0  0
   -2.7226   62.9871   87.2294 C   0  0  0  0  0  0  0  0  0  0  0  0
 22 23  1  0  0  0
 23 21  1  0  0  0
 21 20  1  0  0  0
 20 14  1  0  0  0
 14 15  2  0  0  0
 15 16  1  0  0  0
 16 17  2  0  0  0
 17 18  1  0  0  0
 18 19  2  0  0  0
 19  1  1  0  0  0
  1  2  2  0  0  0
  2  3  1  0  0  0
  3  4  1  0  0  0
  4  5  2  0  0  0
  4  6  1  0  0  0
  6  7  1  0  0  0
  6  8  1  0  0  0
  8  9  2  0  0  0
  8 10  1  0  0  0
 10 24  1  0  0  0
 24 25  1  0  0  0
 25 26  1  0  0  0
 25 27  1  0  0  0
 10 11  1  0  0  0
 11 12  1  0  0  0
 19 14  1  0  0  0
 12  1  1  0  0  0
 11  3  2  0  0  0
 12 13  1  0  0  0
M  END
> <minimizedAffinity>
-8.74273

$$$$



 27 29  0  0  0  0  0  0  0  0999 V2000
    0.9938   65.0758   85.0578 C   0  0  0  0  0  0  0  0  0  0  0  0
    0.5712   65.7054   83.9693 N   0  0  0  0  0  0  0  0  0  0  0  0
    1.5603   66.6035   83.6453 C   0  0  0  0  0  0  0  0  0  0  0  0
    1.6207   67.5346   82.5427 C   0  0  0  0  0  0  0  0  0  0  0  0
    0.7361   67.6253   81.6948 O   0  0  0  0  0  0  0  0  0  0  0  0
    2.7963   68.3061   82.5398 N   0  0  0  0  0  0  0  0  0  0  0  0
    2.9591   69.2568   81.4578 C   0  0  0  0  0  0  0  0  0  0  0  0
    3.8808   68.1885   83.4345 C   0  0  0  0  0  0  0  0  0  0  0  0
    4.9134   68.8466   83.2768 O   0  0  0  0  0  0  0  0  0  0  0  0
    3.7417   67.2886   84.5097 N   0  0  0  0  0  0  0  0  0  0  0  0
    2.5891   66.5317   84.5398 C   0  0  0  0  0  0  0  0  0  0  0  0
    2.2329   65.5617   85.4244 N   0  0  0  0  0  0  0  0  0  0  0  0
    2.7512   65.2229   86.2224 H   0  0  0  0  0  0  0  0  0  0  0  0
   -0.1780   62.8195   85.1897 C   0  0  0  0  0  0  0  0  0  0  0  0
   -0.8459   61.8663   85.9732 C   0  0  0  0  0  0  0  0  0  0  0  0
   -1.0738   62.0922   87.3329 C   0  0  0  0  0  0  0  0  0  0  0  0
   -0.6365   63.2695   87.9266 C   0  0  0  0  0  0  0  0  0  0  0  0
    0.0332   64.2221   87.1601 C   0  0  0  0  0  0  0  0  0  0  0  0
    0.2767   64.0175   85.7895 C   0  0  0  0  0  0  0  0  0  0  0  0
    0.0766   62.6538   83.8472 O   0  0  0  0  0  0  0  0  0  0  0  0
   -0.9769   62.1392   83.0290 C   0  0  0  0  0  0  0  0  0  0  0  0
    1.1726   61.2302   82.0736 C   0  0  0  0  0  0  0  0  0  0  0  0
   -0.3418   61.2410   81.9714 C   0  0  0  0  0  0  0  0  0  0  0  0
    4.8280   67.1647   85.4841 C   0  0  0  0  0  0  0  0  0  0  0  0
    5.6367   65.8503   85.4139 C   0  0  0  0  0  0  0  0  0  0  0  0
    5.7034   65.1146   86.7517 C   0  0  0  0  0  0  0  0  0  0  0  0
    7.0441   66.0412   84.8494 C   0  0  0  0  0  0  0  0  0  0  0  0
 22 23  1  0  0  0
 23 21  1  0  0  0
 21 20  1  0  0  0
 20 14  1  0  0  0
 14 15  2  0  0  0
 15 16  1  0  0  0
 16 17  2  0  0  0
 17 18  1  0  0  0
 18 19  2  0  0  0
 19  1  1  0  0  0
  1  2  2  0  0  0
  2  3  1  0  0  0
  3  4  1  0  0  0
  4  5  2  0  0  0
  4  6  1  0  0  0
  6  7  1  0  0  0
  6  8  1  0  0  0
  8  9  2  0  0  0
  8 10  1  0  0  0
 10 24  1  0  0  0
 24 25  1  0  0  0
 25 26  1  0  0  0
 25 27  1  0  0  0
 10 11  1  0  0  0
 11 12  1  0  0  0
 19 14  1  0  0  0
 12  1  1  0  0  0
 11  3  2  0  0  0
 12 13  1  0  0  0
M  END
> <minimizedAffinity>
-8.65464

$$$$
