


 38 41  0  0  0  0  0  0  0  0999 V2000
    3.6043   67.6623   83.9650 C   0  0  0  0  0  0  0  0  0  0  0  0
    4.2654   68.7656   83.4046 C   0  0  0  0  0  0  0  0  0  0  0  0
    3.6325   69.5724   82.4556 C   0  0  0  0  0  0  0  0  0  0  0  0
    2.3286   69.2799   82.0648 C   0  0  0  0  0  0  0  0  0  0  0  0
    1.6544   68.1842   82.6053 C   0  0  0  0  0  0  0  0  0  0  0  0
    2.2814   67.3580   83.5545 C   0  0  0  0  0  0  0  0  0  0  0  0
    1.5205   66.2016   84.0576 C   0  0  0  0  0  0  0  0  0  0  0  0
    1.3163   65.8894   85.3306 N   0  0  0  0  0  0  0  0  0  0  0  0
    0.5389   64.7549   85.3215 C   0  0  0  0  0  0  0  0  0  0  0  0
    0.0115   63.9958   86.4326 C   0  0  0  0  0  0  0  0  0  0  0  0
    0.2157   64.3000   87.6050 O   0  0  0  0  0  0  0  0  0  0  0  0
   -0.7558   62.8887   86.0258 N   0  0  0  0  0  0  0  0  0  0  0  0
   -1.3336   62.0582   87.0639 C   0  0  0  0  0  0  0  0  0  0  0  0
   -1.0365   62.4996   84.6977 C   0  0  0  0  0  0  0  0  0  0  0  0
   -1.7381   61.5136   84.4536 O   0  0  0  0  0  0  0  0  0  0  0  0
   -0.4891   63.2828   83.6650 N   0  0  0  0  0  0  0  0  0  0  0  0
    0.2696   64.3695   84.0407 C   0  0  0  0  0  0  0  0  0  0  0  0
    0.8970   65.2757   83.2452 N   0  0  0  0  0  0  0  0  0  0  0  0
    0.9098   65.3152   82.2358 H   0  0  0  0  0  0  0  0  0  0  0  0
   -0.7599   62.9306   82.2700 C   0  0  0  0  0  0  0  0  0  0  0  0
    0.5052   62.5207   81.4912 C   0  0  0  0  0  0  0  0  0  0  0  0
    1.0492   61.2015   82.0421 C   0  0  0  0  0  0  0  0  0  0  0  0
    0.2378   62.3891   79.9912 C   0  0  0  0  0  0  0  0  0  0  0  0
    1.5117   70.2944   80.8579 S   0  0  0  0  0  0  0  0  0  0  0  0
    0.5421   69.4686   80.1693 O   0  0  0  0  0  0  0  0  0  0  0  0
    2.5501   70.9891   80.1292 O   0  0  0  0  0  0  0  0  0  0  0  0
    0.6648   71.4145   81.8113 N   0  0  0  0  0  0  0  0  0  0  0  0
   -0.8176   71.4846   81.6350 C   0  0  0  0  0  0  0  0  0  0  0  0
   -1.2310   72.3866   80.4524 C   0  0  0  0  0  0  0  0  0  0  0  0
   -0.6321   73.7351   80.5223 N   0  0  0  0  0  0  0  0  0  0  0  0
   -0.9972   74.5216   79.3452 C   0  0  0  0  0  0  0  0  0  0  0  0
    0.8374   73.6264   80.6376 C   0  0  0  0  0  0  0  0  0  0  0  0
    1.2526   72.7868   81.8589 C   0  0  0  0  0  0  0  0  0  0  0  0
    4.1640   66.8315   84.9062 O   0  0  0  0  0  0  0  0  0  0  0  0
    5.1609   67.3307   85.8016 C   0  0  0  0  0  0  0  0  0  0  0  0
    6.8940   65.7152   84.9111 C   0  0  0  0  0  0  0  0  0  0  0  0
    6.1906   66.2487   86.1618 C   0  0  0  0  0  0  0  0  0  0  0  0
    5.5164   65.1082   86.9215 C   0  0  0  0  0  0  0  0  0  0  0  0
 36 37  1  0  0  0
 37 38  1  0  0  0
 37 35  1  0  0  0
 35 34  1  0  0  0
 34  1  1  0  0  0
  1  2  1  0  0  0
  2  3  2  0  0  0
  3  4  1  0  0  0
  4 24  1  0  0  0
 24 25  2  0  0  0
 24 26  2  0  0  0
 24 27  1  0  0  0
 27 28  1  0  0  0
 28 29  1  0  0  0
 29 30  1  0  0  0
 30 31  1  0  0  0
 30 32  1  0  0  0
 32 33  1  0  0  0
  4  5  2  0  0  0
  5  6  1  0  0  0
  6  7  1  0  0  0
  7  8  2  0  0  0
  8  9  1  0  0  0
  9 10  1  0  0  0
 10 11  2  0  0  0
 10 12  1  0  0  0
 12 13  1  0  0  0
 12 14  1  0  0  0
 14 15  2  0  0  0
 14 16  1  0  0  0
 16 20  1  0  0  0
 20 21  1  0  0  0
 21 22  1  0  0  0
 21 23  1  0  0  0
 16 17  1  0  0  0
 17 18  1  0  0  0
  6  1  2  0  0  0
 18  7  1  0  0  0
 33 27  1  0  0  0
 17  9  2  0  0  0
 18 19  1  0  0  0
M  END
> <minimizedAffinity>
-10.45128

$$$$



 38 41  0  0  0  0  0  0  0  0999 V2000
    3.3552   67.2844   84.1894 C   0  0  0  0  0  0  0  0  0  0  0  0
    4.1609   68.3958   83.8994 C   0  0  0  0  0  0  0  0  0  0  0  0
    3.7484   69.3560   82.9720 C   0  0  0  0  0  0  0  0  0  0  0  0
    2.5210   69.2096   82.3313 C   0  0  0  0  0  0  0  0  0  0  0  0
    1.7063   68.1091   82.6005 C   0  0  0  0  0  0  0  0  0  0  0  0
    2.1121   67.1302   83.5245 C   0  0  0  0  0  0  0  0  0  0  0  0
    1.2157   65.9805   83.7346 C   0  0  0  0  0  0  0  0  0  0  0  0
    0.6689   65.2277   82.7891 N   0  0  0  0  0  0  0  0  0  0  0  0
   -0.0648   64.2684   83.4470 C   0  0  0  0  0  0  0  0  0  0  0  0
   -0.8522   63.1844   82.9049 C   0  0  0  0  0  0  0  0  0  0  0  0
   -0.9671   62.9814   81.6990 O   0  0  0  0  0  0  0  0  0  0  0  0
   -1.4587   62.3957   83.9000 N   0  0  0  0  0  0  0  0  0  0  0  0
   -2.2723   61.2781   83.4636 C   0  0  0  0  0  0  0  0  0  0  0  0
   -1.3506   62.5709   85.2970 C   0  0  0  0  0  0  0  0  0  0  0  0
   -1.9158   61.8062   86.0843 O   0  0  0  0  0  0  0  0  0  0  0  0
   -0.5699   63.6479   85.7552 N   0  0  0  0  0  0  0  0  0  0  0  0
    0.0297   64.4362   84.7977 C   0  0  0  0  0  0  0  0  0  0  0  0
    0.8283   65.5213   84.9777 N   0  0  0  0  0  0  0  0  0  0  0  0
    1.1292   65.9358   85.8484 H   0  0  0  0  0  0  0  0  0  0  0  0
   -0.4146   63.8669   87.1944 C   0  0  0  0  0  0  0  0  0  0  0  0
    0.6879   62.9944   87.8254 C   0  0  0  0  0  0  0  0  0  0  0  0
    1.9989   63.7800   87.8890 C   0  0  0  0  0  0  0  0  0  0  0  0
    0.3037   62.5067   89.2231 C   0  0  0  0  0  0  0  0  0  0  0  0
    1.9839   70.4201   81.1483 S   0  0  0  0  0  0  0  0  0  0  0  0
    1.2667   69.7258   80.0995 O   0  0  0  0  0  0  0  0  0  0  0  0
    3.1344   71.2427   80.8456 O   0  0  0  0  0  0  0  0  0  0  0  0
    0.8639   71.3430   82.0284 N   0  0  0  0  0  0  0  0  0  0  0  0
   -0.5815   71.1795   81.6851 C   0  0  0  0  0  0  0  0  0  0  0  0
   -1.0081   72.0558   80.4879 C   0  0  0  0  0  0  0  0  0  0  0  0
   -0.6532   73.4790   80.6629 N   0  0  0  0  0  0  0  0  0  0  0  0
   -1.0140   74.2490   79.4736 C   0  0  0  0  0  0  0  0  0  0  0  0
    0.7925   73.6051   80.9432 C   0  0  0  0  0  0  0  0  0  0  0  0
    1.2063   72.7888   82.1807 C   0  0  0  0  0  0  0  0  0  0  0  0
    3.6959   66.3068   85.0936 O   0  0  0  0  0  0  0  0  0  0  0  0
    4.9385   65.6113   84.9638 C   0  0  0  0  0  0  0  0  0  0  0  0
    7.3965   65.9376   85.4721 C   0  0  0  0  0  0  0  0  0  0  0  0
    5.9673   66.0934   85.9981 C   0  0  0  0  0  0  0  0  0  0  0  0
    5.7963   65.3307   87.3102 C   0  0  0  0  0  0  0  0  0  0  0  0
 36 37  1  0  0  0
 37 38  1  0  0  0
 37 35  1  0  0  0
 35 34  1  0  0  0
 34  1  1  0  0  0
  1  2  1  0  0  0
  2  3  2  0  0  0
  3  4  1  0  0  0
  4 24  1  0  0  0
 24 25  2  0  0  0
 24 26  2  0  0  0
 24 27  1  0  0  0
 27 28  1  0  0  0
 28 29  1  0  0  0
 29 30  1  0  0  0
 30 31  1  0  0  0
 30 32  1  0  0  0
 32 33  1  0  0  0
  4  5  2  0  0  0
  5  6  1  0  0  0
  6  7  1  0  0  0
  7  8  2  0  0  0
  8  9  1  0  0  0
  9 10  1  0  0  0
 10 11  2  0  0  0
 10 12  1  0  0  0
 12 13  1  0  0  0
 12 14  1  0  0  0
 14 15  2  0  0  0
 14 16  1  0  0  0
 16 20  1  0  0  0
 20 21  1  0  0  0
 21 22  1  0  0  0
 21 23  1  0  0  0
 16 17  1  0  0  0
 17 18  1  0  0  0
  6  1  2  0  0  0
 18  7  1  0  0  0
 33 27  1  0  0  0
 17  9  2  0  0  0
 18 19  1  0  0  0
M  END
> <minimizedAffinity>
-10.38924

$$$$



 38 41  0  0  0  0  0  0  0  0999 V2000
    0.9783   65.2721   83.0359 C   0  0  0  0  0  0  0  0  0  0  0  0
    1.5651   66.2952   83.7957 C   0  0  0  0  0  0  0  0  0  0  0  0
    1.8398   67.5413   83.2267 C   0  0  0  0  0  0  0  0  0  0  0  0
    1.5235   67.7712   81.8904 C   0  0  0  0  0  0  0  0  0  0  0  0
    0.9446   66.7659   81.1148 C   0  0  0  0  0  0  0  0  0  0  0  0
    0.6705   65.5042   81.6711 C   0  0  0  0  0  0  0  0  0  0  0  0
    0.0883   64.4822   80.7845 C   0  0  0  0  0  0  0  0  0  0  0  0
    0.5019   64.1749   79.5622 N   0  0  0  0  0  0  0  0  0  0  0  0
   -0.3160   63.1566   79.1313 C   0  0  0  0  0  0  0  0  0  0  0  0
   -0.3009   62.4362   77.8785 C   0  0  0  0  0  0  0  0  0  0  0  0
    0.5066   62.6714   76.9834 O   0  0  0  0  0  0  0  0  0  0  0  0
   -1.2973   61.4454   77.8031 N   0  0  0  0  0  0  0  0  0  0  0  0
   -1.3698   60.6615   76.5860 C   0  0  0  0  0  0  0  0  0  0  0  0
   -2.2405   61.1205   78.8026 C   0  0  0  0  0  0  0  0  0  0  0  0
   -3.0651   60.2170   78.6358 O   0  0  0  0  0  0  0  0  0  0  0  0
   -2.1996   61.8637   79.9965 N   0  0  0  0  0  0  0  0  0  0  0  0
   -1.2345   62.8422   80.0900 C   0  0  0  0  0  0  0  0  0  0  0  0
   -0.9855   63.6848   81.1271 N   0  0  0  0  0  0  0  0  0  0  0  0
   -1.4615   63.7355   82.0168 H   0  0  0  0  0  0  0  0  0  0  0  0
   -3.1472   61.5589   81.0701 C   0  0  0  0  0  0  0  0  0  0  0  0
   -2.5222   60.7408   82.2169 C   0  0  0  0  0  0  0  0  0  0  0  0
   -2.8734   61.3798   83.5616 C   0  0  0  0  0  0  0  0  0  0  0  0
   -2.9807   59.2820   82.1968 C   0  0  0  0  0  0  0  0  0  0  0  0
    1.8688   69.3488   81.1521 S   0  0  0  0  0  0  0  0  0  0  0  0
    1.2158   69.3850   79.8604 O   0  0  0  0  0  0  0  0  0  0  0  0
    3.2947   69.5593   81.2723 O   0  0  0  0  0  0  0  0  0  0  0  0
    1.0638   70.4348   82.1783 N   0  0  0  0  0  0  0  0  0  0  0  0
   -0.2667   70.9464   81.7291 C   0  0  0  0  0  0  0  0  0  0  0  0
   -0.1449   72.1534   80.7744 C   0  0  0  0  0  0  0  0  0  0  0  0
    0.6923   73.2388   81.3251 N   0  0  0  0  0  0  0  0  0  0  0  0
    0.8327   74.3229   80.3543 C   0  0  0  0  0  0  0  0  0  0  0  0
    2.0183   72.7071   81.7038 C   0  0  0  0  0  0  0  0  0  0  0  0
    1.9015   71.5502   82.7122 C   0  0  0  0  0  0  0  0  0  0  0  0
    0.6757   64.0267   83.5327 O   0  0  0  0  0  0  0  0  0  0  0  0
   -0.3718   63.8730   84.4939 C   0  0  0  0  0  0  0  0  0  0  0  0
   -0.8177   62.2662   86.3980 C   0  0  0  0  0  0  0  0  0  0  0  0
    0.1547   63.2959   85.8169 C   0  0  0  0  0  0  0  0  0  0  0  0
    0.4056   64.4183   86.8217 C   0  0  0  0  0  0  0  0  0  0  0  0
 36 37  1  0  0  0
 37 38  1  0  0  0
 37 35  1  0  0  0
 35 34  1  0  0  0
 34  1  1  0  0  0
  1  2  1  0  0  0
  2  3  2  0  0  0
  3  4  1  0  0  0
  4 24  1  0  0  0
 24 25  2  0  0  0
 24 26  2  0  0  0
 24 27  1  0  0  0
 27 28  1  0  0  0
 28 29  1  0  0  0
 29 30  1  0  0  0
 30 31  1  0  0  0
 30 32  1  0  0  0
 32 33  1  0  0  0
  4  5  2  0  0  0
  5  6  1  0  0  0
  6  7  1  0  0  0
  7  8  2  0  0  0
  8  9  1  0  0  0
  9 10  1  0  0  0
 10 11  2  0  0  0
 10 12  1  0  0  0
 12 13  1  0  0  0
 12 14  1  0  0  0
 14 15  2  0  0  0
 14 16  1  0  0  0
 16 20  1  0  0  0
 20 21  1  0  0  0
 21 22  1  0  0  0
 21 23  1  0  0  0
 16 17  1  0  0  0
 17 18  1  0  0  0
  6  1  2  0  0  0
 18  7  1  0  0  0
 33 27  1  0  0  0
 17  9  2  0  0  0
 18 19  1  0  0  0
M  END
> <minimizedAffinity>
-10.19603

$$$$



 38 41  0  0  0  0  0  0  0  0999 V2000
    0.8788   65.5233   81.0006 C   0  0  0  0  0  0  0  0  0  0  0  0
    1.3032   66.3842   79.9773 C   0  0  0  0  0  0  0  0  0  0  0  0
    1.9637   67.5788   80.2753 C   0  0  0  0  0  0  0  0  0  0  0  0
    2.2068   67.9165   81.6039 C   0  0  0  0  0  0  0  0  0  0  0  0
    1.7884   67.0776   82.6377 C   0  0  0  0  0  0  0  0  0  0  0  0
    1.1148   65.8767   82.3536 C   0  0  0  0  0  0  0  0  0  0  0  0
    0.6750   65.0573   83.4957 C   0  0  0  0  0  0  0  0  0  0  0  0
    1.2676   64.9778   84.6798 N   0  0  0  0  0  0  0  0  0  0  0  0
    0.4983   64.1199   85.4306 C   0  0  0  0  0  0  0  0  0  0  0  0
    0.6759   63.6875   86.7982 C   0  0  0  0  0  0  0  0  0  0  0  0
    1.6098   64.0649   87.5012 O   0  0  0  0  0  0  0  0  0  0  0  0
   -0.3300   62.8030   87.2292 N   0  0  0  0  0  0  0  0  0  0  0  0
   -0.2473   62.3080   88.5891 C   0  0  0  0  0  0  0  0  0  0  0  0
   -1.4325   62.3473   86.4735 C   0  0  0  0  0  0  0  0  0  0  0  0
   -2.2685   61.5795   86.9589 O   0  0  0  0  0  0  0  0  0  0  0  0
   -1.5422   62.8067   85.1482 N   0  0  0  0  0  0  0  0  0  0  0  0
   -0.5653   63.6703   84.7039 C   0  0  0  0  0  0  0  0  0  0  0  0
   -0.4474   64.2534   83.4817 N   0  0  0  0  0  0  0  0  0  0  0  0
   -1.0623   64.1612   82.6854 H   0  0  0  0  0  0  0  0  0  0  0  0
   -2.6733   62.3747   84.3251 C   0  0  0  0  0  0  0  0  0  0  0  0
   -2.2453   61.7854   82.9670 C   0  0  0  0  0  0  0  0  0  0  0  0
   -2.7750   60.3568   82.8310 C   0  0  0  0  0  0  0  0  0  0  0  0
   -2.7325   62.6363   81.7934 C   0  0  0  0  0  0  0  0  0  0  0  0
    3.0428   69.4325   81.9989 S   0  0  0  0  0  0  0  0  0  0  0  0
    3.4715   70.0381   80.7556 O   0  0  0  0  0  0  0  0  0  0  0  0
    3.9941   69.1213   83.0430 O   0  0  0  0  0  0  0  0  0  0  0  0
    1.8043   70.3925   82.6511 N   0  0  0  0  0  0  0  0  0  0  0  0
    0.5311   70.4917   81.8747 C   0  0  0  0  0  0  0  0  0  0  0  0
    0.5944   71.5672   80.7691 C   0  0  0  0  0  0  0  0  0  0  0  0
    1.0209   72.8874   81.2762 N   0  0  0  0  0  0  0  0  0  0  0  0
    1.1330   73.8478   80.1796 C   0  0  0  0  0  0  0  0  0  0  0  0
    2.3105   72.7595   81.9871 C   0  0  0  0  0  0  0  0  0  0  0  0
    2.2285   71.7396   83.1369 C   0  0  0  0  0  0  0  0  0  0  0  0
    0.2303   64.3318   80.7790 O   0  0  0  0  0  0  0  0  0  0  0  0
    0.1639   63.7860   79.4589 C   0  0  0  0  0  0  0  0  0  0  0  0
   -0.6490   61.4809   78.8016 C   0  0  0  0  0  0  0  0  0  0  0  0
    0.4814   62.2828   79.4517 C   0  0  0  0  0  0  0  0  0  0  0  0
    0.7357   61.7884   80.8742 C   0  0  0  0  0  0  0  0  0  0  0  0
 36 37  1  0  0  0
 37 38  1  0  0  0
 37 35  1  0  0  0
 35 34  1  0  0  0
 34  1  1  0  0  0
  1  2  1  0  0  0
  2  3  2  0  0  0
  3  4  1  0  0  0
  4 24  1  0  0  0
 24 25  2  0  0  0
 24 26  2  0  0  0
 24 27  1  0  0  0
 27 28  1  0  0  0
 28 29  1  0  0  0
 29 30  1  0  0  0
 30 31  1  0  0  0
 30 32  1  0  0  0
 32 33  1  0  0  0
  4  5  2  0  0  0
  5  6  1  0  0  0
  6  7  1  0  0  0
  7  8  2  0  0  0
  8  9  1  0  0  0
  9 10  1  0  0  0
 10 11  2  0  0  0
 10 12  1  0  0  0
 12 13  1  0  0  0
 12 14  1  0  0  0
 14 15  2  0  0  0
 14 16  1  0  0  0
 16 20  1  0  0  0
 20 21  1  0  0  0
 21 22  1  0  0  0
 21 23  1  0  0  0
 16 17  1  0  0  0
 17 18  1  0  0  0
  6  1  2  0  0  0
 18  7  1  0  0  0
 33 27  1  0  0  0
 17  9  2  0  0  0
 18 19  1  0  0  0
M  END
> <minimizedAffinity>
-10.14818

$$$$



 38 41  0  0  0  0  0  0  0  0999 V2000
   -0.7795   63.2845   84.8443 C   0  0  0  0  0  0  0  0  0  0  0  0
   -1.6885   62.2236   84.9734 C   0  0  0  0  0  0  0  0  0  0  0  0
   -2.2946   61.6598   83.8478 C   0  0  0  0  0  0  0  0  0  0  0  0
   -1.9893   62.1546   82.5827 C   0  0  0  0  0  0  0  0  0  0  0  0
   -1.0922   63.2128   82.4317 C   0  0  0  0  0  0  0  0  0  0  0  0
   -0.4814   63.7961   83.5556 C   0  0  0  0  0  0  0  0  0  0  0  0
    0.4299   64.9295   83.3226 C   0  0  0  0  0  0  0  0  0  0  0  0
    0.3690   65.7925   82.3170 N   0  0  0  0  0  0  0  0  0  0  0  0
    1.3963   66.6839   82.5212 C   0  0  0  0  0  0  0  0  0  0  0  0
    1.7814   67.8346   81.7361 C   0  0  0  0  0  0  0  0  0  0  0  0
    1.1897   68.1735   80.7145 O   0  0  0  0  0  0  0  0  0  0  0  0
    2.8907   68.5165   82.2695 N   0  0  0  0  0  0  0  0  0  0  0  0
    3.3599   69.6891   81.5582 C   0  0  0  0  0  0  0  0  0  0  0  0
    3.5996   68.1839   83.4446 C   0  0  0  0  0  0  0  0  0  0  0  0
    4.5541   68.8646   83.8313 O   0  0  0  0  0  0  0  0  0  0  0  0
    3.1719   67.0496   84.1587 N   0  0  0  0  0  0  0  0  0  0  0  0
    2.0899   66.3641   83.6517 C   0  0  0  0  0  0  0  0  0  0  0  0
    1.4867   65.2527   84.1503 N   0  0  0  0  0  0  0  0  0  0  0  0
    1.7224   64.7381   84.9871 H   0  0  0  0  0  0  0  0  0  0  0  0
    3.8644   66.6679   85.3908 C   0  0  0  0  0  0  0  0  0  0  0  0
    4.8783   65.5252   85.1880 C   0  0  0  0  0  0  0  0  0  0  0  0
    6.1801   66.0829   84.6099 C   0  0  0  0  0  0  0  0  0  0  0  0
    5.1645   64.7747   86.4893 C   0  0  0  0  0  0  0  0  0  0  0  0
   -2.7532   61.4503   81.1427 S   0  0  0  0  0  0  0  0  0  0  0  0
   -4.0365   62.0961   80.9622 O   0  0  0  0  0  0  0  0  0  0  0  0
   -2.6550   60.0140   81.2821 O   0  0  0  0  0  0  0  0  0  0  0  0
   -1.7309   61.9523   79.8843 N   0  0  0  0  0  0  0  0  0  0  0  0
   -2.3734   62.5489   78.6740 C   0  0  0  0  0  0  0  0  0  0  0  0
   -2.8545   61.4785   77.6710 C   0  0  0  0  0  0  0  0  0  0  0  0
   -1.7930   60.5203   77.3009 N   0  0  0  0  0  0  0  0  0  0  0  0
   -2.3194   59.4893   76.4079 C   0  0  0  0  0  0  0  0  0  0  0  0
   -1.2218   59.9085   78.5191 C   0  0  0  0  0  0  0  0  0  0  0  0
   -0.6758   60.9721   79.4885 C   0  0  0  0  0  0  0  0  0  0  0  0
   -0.1432   63.8811   85.9066 O   0  0  0  0  0  0  0  0  0  0  0  0
   -0.7011   63.7899   87.2201 C   0  0  0  0  0  0  0  0  0  0  0  0
    1.7892   63.7647   87.6720 C   0  0  0  0  0  0  0  0  0  0  0  0
    0.3928   63.6691   88.2921 C   0  0  0  0  0  0  0  0  0  0  0  0
    0.2393   62.3579   89.0599 C   0  0  0  0  0  0  0  0  0  0  0  0
 36 37  1  0  0  0
 37 38  1  0  0  0
 37 35  1  0  0  0
 35 34  1  0  0  0
 34  1  1  0  0  0
  1  2  1  0  0  0
  2  3  2  0  0  0
  3  4  1  0  0  0
  4 24  1  0  0  0
 24 25  2  0  0  0
 24 26  2  0  0  0
 24 27  1  0  0  0
 27 28  1  0  0  0
 28 29  1  0  0  0
 29 30  1  0  0  0
 30 31  1  0  0  0
 30 32  1  0  0  0
 32 33  1  0  0  0
  4  5  2  0  0  0
  5  6  1  0  0  0
  6  7  1  0  0  0
  7  8  2  0  0  0
  8  9  1  0  0  0
  9 10  1  0  0  0
 10 11  2  0  0  0
 10 12  1  0  0  0
 12 13  1  0  0  0
 12 14  1  0  0  0
 14 15  2  0  0  0
 14 16  1  0  0  0
 16 20  1  0  0  0
 20 21  1  0  0  0
 21 22  1  0  0  0
 21 23  1  0  0  0
 16 17  1  0  0  0
 17 18  1  0  0  0
  6  1  2  0  0  0
 18  7  1  0  0  0
 33 27  1  0  0  0
 17  9  2  0  0  0
 18 19  1  0  0  0
M  END
> <minimizedAffinity>
-10.09265

$$$$
