


 34 37  0  0  0  0  0  0  0  0999 V2000
    3.4069   66.6217   84.6640 C   0  0  0  0  0  0  0  0  0  0  0  0
    4.0909   67.6920   84.0675 C   0  0  0  0  0  0  0  0  0  0  0  0
    3.5159   68.4180   83.0212 C   0  0  0  0  0  0  0  0  0  0  0  0
    2.2440   68.0811   82.5654 C   0  0  0  0  0  0  0  0  0  0  0  0
    1.5477   67.0167   83.1371 C   0  0  0  0  0  0  0  0  0  0  0  0
    2.1126   66.2873   84.2000 C   0  0  0  0  0  0  0  0  0  0  0  0
    1.2669   65.1879   84.7765 C   0  0  0  0  0  0  0  0  0  0  0  0
    0.6732   64.3395   83.9956 N   0  0  0  0  0  0  0  0  0  0  0  0
   -0.0916   63.3468   84.5657 C   0  0  0  0  0  0  0  0  0  0  0  0
   -0.2476   63.1961   85.8888 C   0  0  0  0  0  0  0  0  0  0  0  0
    0.4100   64.1637   86.7722 C   0  0  0  0  0  0  0  0  0  0  0  0
    0.2870   64.1077   87.9900 O   0  0  0  0  0  0  0  0  0  0  0  0
    1.1504   65.1137   86.1402 N   0  0  0  0  0  0  0  0  0  0  0  0
    1.6014   65.8031   86.7276 H   0  0  0  0  0  0  0  0  0  0  0  0
   -0.7388   62.3819   83.6420 C   0  0  0  0  0  0  0  0  0  0  0  0
   -2.0578   61.9385   83.8319 C   0  0  0  0  0  0  0  0  0  0  0  0
   -2.6453   61.0381   82.9382 C   0  0  0  0  0  0  0  0  0  0  0  0
   -1.9263   60.5759   81.8381 C   0  0  0  0  0  0  0  0  0  0  0  0
   -0.6225   61.0171   81.6263 C   0  0  0  0  0  0  0  0  0  0  0  0
   -0.0354   61.9167   82.5198 C   0  0  0  0  0  0  0  0  0  0  0  0
    1.5344   68.9837   81.2102 S   0  0  0  0  0  0  0  0  0  0  0  0
    0.4351   68.2154   80.6682 O   0  0  0  0  0  0  0  0  0  0  0  0
    2.6287   69.4117   80.3635 O   0  0  0  0  0  0  0  0  0  0  0  0
    0.8906   70.3659   81.9744 N   0  0  0  0  0  0  0  0  0  0  0  0
   -0.3855   70.8915   81.3786 C   0  0  0  0  0  0  0  0  0  0  0  0
   -0.6386   72.3485   81.8074 C   0  0  0  0  0  0  0  0  0  0  0  0
    0.3929   73.2803   81.3092 N   0  0  0  0  0  0  0  0  0  0  0  0
    0.4207   74.4987   82.1135 C   0  0  0  0  0  0  0  0  0  0  0  0
    1.7185   72.6328   81.2353 C   0  0  0  0  0  0  0  0  0  0  0  0
    1.9055   71.4509   82.2033 C   0  0  0  0  0  0  0  0  0  0  0  0
    3.9167   65.8816   85.7000 O   0  0  0  0  0  0  0  0  0  0  0  0
    5.1732   65.2138   85.5536 C   0  0  0  0  0  0  0  0  0  0  0  0
    5.5144   65.5193   88.0309 C   0  0  0  0  0  0  0  0  0  0  0  0
    6.1391   65.6463   86.6529 C   0  0  0  0  0  0  0  0  0  0  0  0
 33 34  1  0  0  0
 34 32  1  0  0  0
 32 31  1  0  0  0
 31  1  1  0  0  0
  1  2  1  0  0  0
  2  3  2  0  0  0
  3  4  1  0  0  0
  4 21  1  0  0  0
 21 22  2  0  0  0
 21 23  2  0  0  0
 21 24  1  0  0  0
 24 25  1  0  0  0
 25 26  1  0  0  0
 26 27  1  0  0  0
 27 28  1  0  0  0
 27 29  1  0  0  0
 29 30  1  0  0  0
  4  5  2  0  0  0
  5  6  1  0  0  0
  6  7  1  0  0  0
  7  8  2  0  0  0
  8  9  1  0  0  0
  9 15  1  0  0  0
 15 16  2  0  0  0
 16 17  1  0  0  0
 17 18  2  0  0  0
 18 19  1  0  0  0
 19 20  2  0  0  0
  9 10  2  0  0  0
 10 11  1  0  0  0
 11 12  2  0  0  0
 11 13  1  0  0  0
  6  1  2  0  0  0
 13  7  1  0  0  0
 30 24  1  0  0  0
 20 15  1  0  0  0
 13 14  1  0  0  0
M  END
> <minimizedAffinity>
-10.49094

$$$$



 34 37  0  0  0  0  0  0  0  0999 V2000
    3.3779   67.0339   84.1419 C   0  0  0  0  0  0  0  0  0  0  0  0
    4.0865   68.2192   83.8921 C   0  0  0  0  0  0  0  0  0  0  0  0
    3.6729   69.1068   82.8954 C   0  0  0  0  0  0  0  0  0  0  0  0
    2.5386   68.8171   82.1413 C   0  0  0  0  0  0  0  0  0  0  0  0
    1.8223   67.6418   82.3657 C   0  0  0  0  0  0  0  0  0  0  0  0
    2.2232   66.7474   83.3758 C   0  0  0  0  0  0  0  0  0  0  0  0
    1.3622   65.5317   83.5687 C   0  0  0  0  0  0  0  0  0  0  0  0
    1.0009   65.1667   84.7596 N   0  0  0  0  0  0  0  0  0  0  0  0
    0.2108   64.0470   84.8913 C   0  0  0  0  0  0  0  0  0  0  0  0
   -0.2215   63.3162   83.8537 C   0  0  0  0  0  0  0  0  0  0  0  0
    0.1991   63.7184   82.5082 C   0  0  0  0  0  0  0  0  0  0  0  0
   -0.1310   63.0808   81.5153 O   0  0  0  0  0  0  0  0  0  0  0  0
    0.9751   64.8342   82.4541 N   0  0  0  0  0  0  0  0  0  0  0  0
    1.2917   65.1231   81.5377 H   0  0  0  0  0  0  0  0  0  0  0  0
   -0.2002   63.6716   86.2673 C   0  0  0  0  0  0  0  0  0  0  0  0
    0.6700   63.7896   87.3632 C   0  0  0  0  0  0  0  0  0  0  0  0
    0.2509   63.4395   88.6502 C   0  0  0  0  0  0  0  0  0  0  0  0
   -1.0457   62.9758   88.8608 C   0  0  0  0  0  0  0  0  0  0  0  0
   -1.9266   62.8673   87.7877 C   0  0  0  0  0  0  0  0  0  0  0  0
   -1.5074   63.2168   86.5015 C   0  0  0  0  0  0  0  0  0  0  0  0
    2.0399   69.9309   80.8508 S   0  0  0  0  0  0  0  0  0  0  0  0
    1.1218   69.2394   79.9725 O   0  0  0  0  0  0  0  0  0  0  0  0
    3.2431   70.5462   80.3301 O   0  0  0  0  0  0  0  0  0  0  0  0
    1.1656   71.1239   81.7000 N   0  0  0  0  0  0  0  0  0  0  0  0
   -0.2159   71.4003   81.1762 C   0  0  0  0  0  0  0  0  0  0  0  0
   -0.7382   72.7585   81.6796 C   0  0  0  0  0  0  0  0  0  0  0  0
    0.0602   73.8985   81.1863 N   0  0  0  0  0  0  0  0  0  0  0  0
   -0.1221   75.0666   82.0434 C   0  0  0  0  0  0  0  0  0  0  0  0
    1.4846   73.5376   81.0342 C   0  0  0  0  0  0  0  0  0  0  0  0
    1.9499   72.3837   81.9402 C   0  0  0  0  0  0  0  0  0  0  0  0
    3.7307   66.1322   85.1130 O   0  0  0  0  0  0  0  0  0  0  0  0
    4.9751   66.2731   85.8042 C   0  0  0  0  0  0  0  0  0  0  0  0
    7.2006   65.8849   84.6891 C   0  0  0  0  0  0  0  0  0  0  0  0
    5.9792   65.2341   85.3135 C   0  0  0  0  0  0  0  0  0  0  0  0
 33 34  1  0  0  0
 34 32  1  0  0  0
 32 31  1  0  0  0
 31  1  1  0  0  0
  1  2  1  0  0  0
  2  3  2  0  0  0
  3  4  1  0  0  0
  4 21  1  0  0  0
 21 22  2  0  0  0
 21 23  2  0  0  0
 21 24  1  0  0  0
 24 25  1  0  0  0
 25 26  1  0  0  0
 26 27  1  0  0  0
 27 28  1  0  0  0
 27 29  1  0  0  0
 29 30  1  0  0  0
  4  5  2  0  0  0
  5  6  1  0  0  0
  6  7  1  0  0  0
  7  8  2  0  0  0
  8  9  1  0  0  0
  9 15  1  0  0  0
 15 16  2  0  0  0
 16 17  1  0  0  0
 17 18  2  0  0  0
 18 19  1  0  0  0
 19 20  2  0  0  0
  9 10  2  0  0  0
 10 11  1  0  0  0
 11 12  2  0  0  0
 11 13  1  0  0  0
  6  1  2  0  0  0
 13  7  1  0  0  0
 30 24  1  0  0  0
 20 15  1  0  0  0
 13 14  1  0  0  0
M  END
> <minimizedAffinity>
-10.13470

$$$$



 34 37  0  0  0  0  0  0  0  0999 V2000
    0.7967   66.1183   80.4033 C   0  0  0  0  0  0  0  0  0  0  0  0
    1.4894   67.2828   80.0378 C   0  0  0  0  0  0  0  0  0  0  0  0
    2.2733   67.9734   80.9657 C   0  0  0  0  0  0  0  0  0  0  0  0
    2.3754   67.4991   82.2710 C   0  0  0  0  0  0  0  0  0  0  0  0
    1.6903   66.3484   82.6601 C   0  0  0  0  0  0  0  0  0  0  0  0
    0.9085   65.6383   81.7298 C   0  0  0  0  0  0  0  0  0  0  0  0
    0.2451   64.3885   82.2341 C   0  0  0  0  0  0  0  0  0  0  0  0
   -0.1218   64.2961   83.4746 N   0  0  0  0  0  0  0  0  0  0  0  0
   -0.7272   63.1332   83.8949 C   0  0  0  0  0  0  0  0  0  0  0  0
   -0.9743   62.0906   83.0889 C   0  0  0  0  0  0  0  0  0  0  0  0
   -0.5460   62.1875   81.6903 C   0  0  0  0  0  0  0  0  0  0  0  0
   -0.7100   61.2628   80.9034 O   0  0  0  0  0  0  0  0  0  0  0  0
    0.0417   63.3648   81.3456 N   0  0  0  0  0  0  0  0  0  0  0  0
    0.3608   63.4503   80.3893 H   0  0  0  0  0  0  0  0  0  0  0  0
   -1.1523   63.0715   85.3157 C   0  0  0  0  0  0  0  0  0  0  0  0
   -2.3899   62.5306   85.7004 C   0  0  0  0  0  0  0  0  0  0  0  0
   -2.7583   62.4748   87.0479 C   0  0  0  0  0  0  0  0  0  0  0  0
   -1.8915   62.9502   88.0294 C   0  0  0  0  0  0  0  0  0  0  0  0
   -0.6539   63.4757   87.6667 C   0  0  0  0  0  0  0  0  0  0  0  0
   -0.2861   63.5317   86.3199 C   0  0  0  0  0  0  0  0  0  0  0  0
    3.3429   68.4024   83.4553 S   0  0  0  0  0  0  0  0  0  0  0  0
    2.4708   68.8517   84.5183 O   0  0  0  0  0  0  0  0  0  0  0  0
    4.1541   69.3450   82.7130 O   0  0  0  0  0  0  0  0  0  0  0  0
    4.3780   67.2038   84.0885 N   0  0  0  0  0  0  0  0  0  0  0  0
    3.6893   66.0737   84.8011 C   0  0  0  0  0  0  0  0  0  0  0  0
    4.6704   65.3123   85.7114 C   0  0  0  0  0  0  0  0  0  0  0  0
    5.2021   66.1475   86.8068 N   0  0  0  0  0  0  0  0  0  0  0  0
    6.4538   65.5952   87.3172 C   0  0  0  0  0  0  0  0  0  0  0  0
    5.3451   67.5583   86.3929 C   0  0  0  0  0  0  0  0  0  0  0  0
    5.5284   67.7627   84.8785 C   0  0  0  0  0  0  0  0  0  0  0  0
    0.0224   65.3944   79.5333 O   0  0  0  0  0  0  0  0  0  0  0  0
    0.4752   65.1578   78.1972 C   0  0  0  0  0  0  0  0  0  0  0  0
    0.5494   62.6560   77.9102 C   0  0  0  0  0  0  0  0  0  0  0  0
   -0.2164   63.9317   77.6081 C   0  0  0  0  0  0  0  0  0  0  0  0
 33 34  1  0  0  0
 34 32  1  0  0  0
 32 31  1  0  0  0
 31  1  1  0  0  0
  1  2  1  0  0  0
  2  3  2  0  0  0
  3  4  1  0  0  0
  4 21  1  0  0  0
 21 22  2  0  0  0
 21 23  2  0  0  0
 21 24  1  0  0  0
 24 25  1  0  0  0
 25 26  1  0  0  0
 26 27  1  0  0  0
 27 28  1  0  0  0
 27 29  1  0  0  0
 29 30  1  0  0  0
  4  5  2  0  0  0
  5  6  1  0  0  0
  6  7  1  0  0  0
  7  8  2  0  0  0
  8  9  1  0  0  0
  9 15  1  0  0  0
 15 16  2  0  0  0
 16 17  1  0  0  0
 17 18  2  0  0  0
 18 19  1  0  0  0
 19 20  2  0  0  0
  9 10  2  0  0  0
 10 11  1  0  0  0
 11 12  2  0  0  0
 11 13  1  0  0  0
  6  1  2  0  0  0
 13  7  1  0  0  0
 30 24  1  0  0  0
 20 15  1  0  0  0
 13 14  1  0  0  0
M  END
> <minimizedAffinity>
-10.07696

$$$$



 34 37  0  0  0  0  0  0  0  0999 V2000
    0.1570   63.9144   85.2666 C   0  0  0  0  0  0  0  0  0  0  0  0
   -0.5715   62.7169   85.1983 C   0  0  0  0  0  0  0  0  0  0  0  0
   -0.6601   61.9972   84.0038 C   0  0  0  0  0  0  0  0  0  0  0  0
   -0.0127   62.4690   82.8648 C   0  0  0  0  0  0  0  0  0  0  0  0
    0.7109   63.6605   82.9059 C   0  0  0  0  0  0  0  0  0  0  0  0
    0.8169   64.3862   84.1071 C   0  0  0  0  0  0  0  0  0  0  0  0
    1.6532   65.6331   84.0600 C   0  0  0  0  0  0  0  0  0  0  0  0
    1.2776   66.6476   83.3447 N   0  0  0  0  0  0  0  0  0  0  0  0
    2.0732   67.7710   83.3305 C   0  0  0  0  0  0  0  0  0  0  0  0
    3.2125   67.8837   84.0284 C   0  0  0  0  0  0  0  0  0  0  0  0
    3.6464   66.7321   84.8250 C   0  0  0  0  0  0  0  0  0  0  0  0
    4.6920   66.7508   85.4633 O   0  0  0  0  0  0  0  0  0  0  0  0
    2.8105   65.6595   84.7940 N   0  0  0  0  0  0  0  0  0  0  0  0
    3.0960   64.8458   85.3231 H   0  0  0  0  0  0  0  0  0  0  0  0
    1.6011   68.9196   82.5175 C   0  0  0  0  0  0  0  0  0  0  0  0
    0.7557   68.7503   81.4090 C   0  0  0  0  0  0  0  0  0  0  0  0
    0.3173   69.8525   80.6689 C   0  0  0  0  0  0  0  0  0  0  0  0
    0.7102   71.1388   81.0320 C   0  0  0  0  0  0  0  0  0  0  0  0
    1.5358   71.3259   82.1377 C   0  0  0  0  0  0  0  0  0  0  0  0
    1.9742   70.2243   82.8769 C   0  0  0  0  0  0  0  0  0  0  0  0
   -0.1604   61.5693   81.3405 S   0  0  0  0  0  0  0  0  0  0  0  0
   -1.1410   60.5205   81.5159 O   0  0  0  0  0  0  0  0  0  0  0  0
    1.1829   61.2618   80.8951 O   0  0  0  0  0  0  0  0  0  0  0  0
   -0.8121   62.7333   80.2778 N   0  0  0  0  0  0  0  0  0  0  0  0
   -1.8642   62.2215   79.3341 C   0  0  0  0  0  0  0  0  0  0  0  0
   -2.0551   63.1798   78.1441 C   0  0  0  0  0  0  0  0  0  0  0  0
   -0.8491   63.2929   77.2996 N   0  0  0  0  0  0  0  0  0  0  0  0
   -0.8750   64.5300   76.5243 C   0  0  0  0  0  0  0  0  0  0  0  0
    0.3866   63.1635   78.0986 C   0  0  0  0  0  0  0  0  0  0  0  0
    0.2328   63.5573   79.5785 C   0  0  0  0  0  0  0  0  0  0  0  0
    0.2873   64.6561   86.4127 O   0  0  0  0  0  0  0  0  0  0  0  0
   -0.2182   64.1537   87.6530 C   0  0  0  0  0  0  0  0  0  0  0  0
    0.2949   62.2299   89.1967 C   0  0  0  0  0  0  0  0  0  0  0  0
    0.8694   63.3895   88.4026 C   0  0  0  0  0  0  0  0  0  0  0  0
 33 34  1  0  0  0
 34 32  1  0  0  0
 32 31  1  0  0  0
 31  1  1  0  0  0
  1  2  1  0  0  0
  2  3  2  0  0  0
  3  4  1  0  0  0
  4 21  1  0  0  0
 21 22  2  0  0  0
 21 23  2  0  0  0
 21 24  1  0  0  0
 24 25  1  0  0  0
 25 26  1  0  0  0
 26 27  1  0  0  0
 27 28  1  0  0  0
 27 29  1  0  0  0
 29 30  1  0  0  0
  4  5  2  0  0  0
  5  6  1  0  0  0
  6  7  1  0  0  0
  7  8  2  0  0  0
  8  9  1  0  0  0
  9 15  1  0  0  0
 15 16  2  0  0  0
 16 17  1  0  0  0
 17 18  2  0  0  0
 18 19  1  0  0  0
 19 20  2  0  0  0
  9 10  2  0  0  0
 10 11  1  0  0  0
 11 12  2  0  0  0
 11 13  1  0  0  0
  6  1  2  0  0  0
 13  7  1  0  0  0
 30 24  1  0  0  0
 20 15  1  0  0  0
 13 14  1  0  0  0
M  END
> <minimizedAffinity>
-10.05958

$$$$



 34 37  0  0  0  0  0  0  0  0999 V2000
    3.5789   66.9741   84.1281 C   0  0  0  0  0  0  0  0  0  0  0  0
    4.3127   68.1551   83.9381 C   0  0  0  0  0  0  0  0  0  0  0  0
    3.8013   69.2025   83.1674 C   0  0  0  0  0  0  0  0  0  0  0  0
    2.5436   69.0781   82.5828 C   0  0  0  0  0  0  0  0  0  0  0  0
    1.7987   67.9112   82.7508 C   0  0  0  0  0  0  0  0  0  0  0  0
    2.2993   66.8556   83.5357 C   0  0  0  0  0  0  0  0  0  0  0  0
    1.4042   65.6595   83.6917 C   0  0  0  0  0  0  0  0  0  0  0  0
    1.0608   65.2473   84.8724 N   0  0  0  0  0  0  0  0  0  0  0  0
    0.2382   64.1476   84.9701 C   0  0  0  0  0  0  0  0  0  0  0  0
   -0.2432   63.4831   83.9098 C   0  0  0  0  0  0  0  0  0  0  0  0
    0.1567   63.9383   82.5749 C   0  0  0  0  0  0  0  0  0  0  0  0
   -0.2184   63.3614   81.5611 O   0  0  0  0  0  0  0  0  0  0  0  0
    0.9671   65.0305   82.5550 N   0  0  0  0  0  0  0  0  0  0  0  0
    1.2702   65.3546   81.6457 H   0  0  0  0  0  0  0  0  0  0  0  0
   -0.1505   63.7175   86.3364 C   0  0  0  0  0  0  0  0  0  0  0  0
    0.7592   63.7223   87.4063 C   0  0  0  0  0  0  0  0  0  0  0  0
    0.3610   63.3229   88.6856 C   0  0  0  0  0  0  0  0  0  0  0  0
   -0.9533   62.9223   88.9150 C   0  0  0  0  0  0  0  0  0  0  0  0
   -1.8724   62.9261   87.8688 C   0  0  0  0  0  0  0  0  0  0  0  0
   -1.4742   63.3249   86.5903 C   0  0  0  0  0  0  0  0  0  0  0  0
    1.9154   70.3977   81.5734 S   0  0  0  0  0  0  0  0  0  0  0  0
    0.5650   70.6997   81.9952 O   0  0  0  0  0  0  0  0  0  0  0  0
    2.2030   70.0548   80.1960 O   0  0  0  0  0  0  0  0  0  0  0  0
    2.9133   71.7111   82.0068 N   0  0  0  0  0  0  0  0  0  0  0  0
    2.3760   72.5902   83.1013 C   0  0  0  0  0  0  0  0  0  0  0  0
    3.0803   73.9595   83.1087 C   0  0  0  0  0  0  0  0  0  0  0  0
    2.8335   74.7379   81.8784 N   0  0  0  0  0  0  0  0  0  0  0  0
    3.8700   75.7491   81.6899 C   0  0  0  0  0  0  0  0  0  0  0  0
    2.6936   73.8590   80.6994 C   0  0  0  0  0  0  0  0  0  0  0  0
    3.4079   72.5018   80.8278 C   0  0  0  0  0  0  0  0  0  0  0  0
    4.0254   65.9193   84.8822 O   0  0  0  0  0  0  0  0  0  0  0  0
    5.4285   65.7200   85.0763 C   0  0  0  0  0  0  0  0  0  0  0  0
    4.5572   64.7885   87.2489 C   0  0  0  0  0  0  0  0  0  0  0  0
    5.7308   65.4484   86.5472 C   0  0  0  0  0  0  0  0  0  0  0  0
 33 34  1  0  0  0
 34 32  1  0  0  0
 32 31  1  0  0  0
 31  1  1  0  0  0
  1  2  1  0  0  0
  2  3  2  0  0  0
  3  4  1  0  0  0
  4 21  1  0  0  0
 21 22  2  0  0  0
 21 23  2  0  0  0
 21 24  1  0  0  0
 24 25  1  0  0  0
 25 26  1  0  0  0
 26 27  1  0  0  0
 27 28  1  0  0  0
 27 29  1  0  0  0
 29 30  1  0  0  0
  4  5  2  0  0  0
  5  6  1  0  0  0
  6  7  1  0  0  0
  7  8  2  0  0  0
  8  9  1  0  0  0
  9 15  1  0  0  0
 15 16  2  0  0  0
 16 17  1  0  0  0
 17 18  2  0  0  0
 18 19  1  0  0  0
 19 20  2  0  0  0
  9 10  2  0  0  0
 10 11  1  0  0  0
 11 12  2  0  0  0
 11 13  1  0  0  0
  6  1  2  0  0  0
 13  7  1  0  0  0
 30 24  1  0  0  0
 20 15  1  0  0  0
 13 14  1  0  0  0
M  END
> <minimizedAffinity>
-10.03095

$$$$



 34 37  0  0  0  0  0  0  0  0999 V2000
    3.4978   66.5573   84.3496 C   0  0  0  0  0  0  0  0  0  0  0  0
    4.2596   67.6019   83.8038 C   0  0  0  0  0  0  0  0  0  0  0  0
    3.6725   68.5628   82.9765 C   0  0  0  0  0  0  0  0  0  0  0  0
    2.3114   68.4892   82.6922 C   0  0  0  0  0  0  0  0  0  0  0  0
    1.5350   67.4562   83.2166 C   0  0  0  0  0  0  0  0  0  0  0  0
    2.1140   66.4906   84.0612 C   0  0  0  0  0  0  0  0  0  0  0  0
    1.1867   65.4440   84.6098 C   0  0  0  0  0  0  0  0  0  0  0  0
    0.4141   64.7711   83.8146 N   0  0  0  0  0  0  0  0  0  0  0  0
   -0.4197   63.8204   84.3590 C   0  0  0  0  0  0  0  0  0  0  0  0
   -0.4695   63.5377   85.6686 C   0  0  0  0  0  0  0  0  0  0  0  0
    0.3918   64.3084   86.5705 C   0  0  0  0  0  0  0  0  0  0  0  0
    0.3774   64.1271   87.7822 O   0  0  0  0  0  0  0  0  0  0  0  0
    1.1900   65.2272   85.9631 N   0  0  0  0  0  0  0  0  0  0  0  0
    1.7824   65.7833   86.5660 H   0  0  0  0  0  0  0  0  0  0  0  0
   -1.2742   63.0558   83.4164 C   0  0  0  0  0  0  0  0  0  0  0  0
   -1.6403   63.5666   82.1605 C   0  0  0  0  0  0  0  0  0  0  0  0
   -2.4366   62.8182   81.2885 C   0  0  0  0  0  0  0  0  0  0  0  0
   -2.8699   61.5462   81.6557 C   0  0  0  0  0  0  0  0  0  0  0  0
   -2.5034   61.0181   82.8910 C   0  0  0  0  0  0  0  0  0  0  0  0
   -1.7079   61.7664   83.7626 C   0  0  0  0  0  0  0  0  0  0  0  0
    1.5790   69.6919   81.6098 S   0  0  0  0  0  0  0  0  0  0  0  0
    2.6308   70.5149   81.0540 O   0  0  0  0  0  0  0  0  0  0  0  0
    0.4694   70.2887   82.3240 O   0  0  0  0  0  0  0  0  0  0  0  0
    0.9390   68.7295   80.3556 N   0  0  0  0  0  0  0  0  0  0  0  0
   -0.2165   67.8516   80.7475 C   0  0  0  0  0  0  0  0  0  0  0  0
   -0.4235   66.7184   79.7258 C   0  0  0  0  0  0  0  0  0  0  0  0
    0.7209   65.7873   79.6626 N   0  0  0  0  0  0  0  0  0  0  0  0
    0.7301   65.0651   78.3935 C   0  0  0  0  0  0  0  0  0  0  0  0
    1.9997   66.4816   79.9163 C   0  0  0  0  0  0  0  0  0  0  0  0
    1.9876   67.9832   79.5788 C   0  0  0  0  0  0  0  0  0  0  0  0
    4.0174   65.5936   85.1754 O   0  0  0  0  0  0  0  0  0  0  0  0
    4.9653   65.9504   86.1856 C   0  0  0  0  0  0  0  0  0  0  0  0
    5.7617   65.4461   88.5220 C   0  0  0  0  0  0  0  0  0  0  0  0
    4.7828   65.0752   87.4223 C   0  0  0  0  0  0  0  0  0  0  0  0
 33 34  1  0  0  0
 34 32  1  0  0  0
 32 31  1  0  0  0
 31  1  1  0  0  0
  1  2  1  0  0  0
  2  3  2  0  0  0
  3  4  1  0  0  0
  4 21  1  0  0  0
 21 22  2  0  0  0
 21 23  2  0  0  0
 21 24  1  0  0  0
 24 25  1  0  0  0
 25 26  1  0  0  0
 26 27  1  0  0  0
 27 28  1  0  0  0
 27 29  1  0  0  0
 29 30  1  0  0  0
  4  5  2  0  0  0
  5  6  1  0  0  0
  6  7  1  0  0  0
  7  8  2  0  0  0
  8  9  1  0  0  0
  9 15  1  0  0  0
 15 16  2  0  0  0
 16 17  1  0  0  0
 17 18  2  0  0  0
 18 19  1  0  0  0
 19 20  2  0  0  0
  9 10  2  0  0  0
 10 11  1  0  0  0
 11 12  2  0  0  0
 11 13  1  0  0  0
  6  1  2  0  0  0
 13  7  1  0  0  0
 30 24  1  0  0  0
 20 15  1  0  0  0
 13 14  1  0  0  0
M  END
> <minimizedAffinity>
-9.97804

$$$$



 34 37  0  0  0  0  0  0  0  0999 V2000
   -0.2514   63.5336   85.0979 C   0  0  0  0  0  0  0  0  0  0  0  0
   -1.1569   62.4725   85.2511 C   0  0  0  0  0  0  0  0  0  0  0  0
   -1.8743   61.9770   84.1592 C   0  0  0  0  0  0  0  0  0  0  0  0
   -1.6861   62.5380   82.8986 C   0  0  0  0  0  0  0  0  0  0  0  0
   -0.7976   63.5983   82.7226 C   0  0  0  0  0  0  0  0  0  0  0  0
   -0.0607   64.0962   83.8135 C   0  0  0  0  0  0  0  0  0  0  0  0
    0.9016   65.2100   83.5140 C   0  0  0  0  0  0  0  0  0  0  0  0
    1.9494   65.3885   84.2572 N   0  0  0  0  0  0  0  0  0  0  0  0
    2.8060   66.4206   83.9469 C   0  0  0  0  0  0  0  0  0  0  0  0
    2.6272   67.2475   82.9068 C   0  0  0  0  0  0  0  0  0  0  0  0
    1.4351   67.0569   82.0751 C   0  0  0  0  0  0  0  0  0  0  0  0
    1.1895   67.7932   81.1271 O   0  0  0  0  0  0  0  0  0  0  0  0
    0.6365   66.0174   82.4386 N   0  0  0  0  0  0  0  0  0  0  0  0
   -0.2013   65.8749   81.8897 H   0  0  0  0  0  0  0  0  0  0  0  0
    4.0051   66.5814   84.8067 C   0  0  0  0  0  0  0  0  0  0  0  0
    4.3403   67.8116   85.3954 C   0  0  0  0  0  0  0  0  0  0  0  0
    5.4698   67.9302   86.2108 C   0  0  0  0  0  0  0  0  0  0  0  0
    6.2740   66.8194   86.4563 C   0  0  0  0  0  0  0  0  0  0  0  0
    5.9475   65.5884   85.8929 C   0  0  0  0  0  0  0  0  0  0  0  0
    4.8190   65.4703   85.0777 C   0  0  0  0  0  0  0  0  0  0  0  0
   -2.6288   61.9287   81.5221 S   0  0  0  0  0  0  0  0  0  0  0  0
   -3.5313   62.9702   81.0825 O   0  0  0  0  0  0  0  0  0  0  0  0
   -3.1296   60.6215   81.8935 O   0  0  0  0  0  0  0  0  0  0  0  0
   -1.4404   61.7127   80.3180 N   0  0  0  0  0  0  0  0  0  0  0  0
   -1.2638   62.8714   79.3768 C   0  0  0  0  0  0  0  0  0  0  0  0
   -0.5395   62.4351   78.0900 C   0  0  0  0  0  0  0  0  0  0  0  0
   -1.3124   61.4550   77.3011 N   0  0  0  0  0  0  0  0  0  0  0  0
   -0.4354   60.7040   76.4073 C   0  0  0  0  0  0  0  0  0  0  0  0
   -2.1112   60.5676   78.1709 C   0  0  0  0  0  0  0  0  0  0  0  0
   -1.5522   60.3994   79.5950 C   0  0  0  0  0  0  0  0  0  0  0  0
    0.4870   64.0529   86.1302 O   0  0  0  0  0  0  0  0  0  0  0  0
   -0.0373   64.0456   87.4611 C   0  0  0  0  0  0  0  0  0  0  0  0
    0.1724   62.1970   89.1598 C   0  0  0  0  0  0  0  0  0  0  0  0
    0.9000   63.2919   88.4003 C   0  0  0  0  0  0  0  0  0  0  0  0
 33 34  1  0  0  0
 34 32  1  0  0  0
 32 31  1  0  0  0
 31  1  1  0  0  0
  1  2  1  0  0  0
  2  3  2  0  0  0
  3  4  1  0  0  0
  4 21  1  0  0  0
 21 22  2  0  0  0
 21 23  2  0  0  0
 21 24  1  0  0  0
 24 25  1  0  0  0
 25 26  1  0  0  0
 26 27  1  0  0  0
 27 28  1  0  0  0
 27 29  1  0  0  0
 29 30  1  0  0  0
  4  5  2  0  0  0
  5  6  1  0  0  0
  6  7  1  0  0  0
  7  8  2  0  0  0
  8  9  1  0  0  0
  9 15  1  0  0  0
 15 16  2  0  0  0
 16 17  1  0  0  0
 17 18  2  0  0  0
 18 19  1  0  0  0
 19 20  2  0  0  0
  9 10  2  0  0  0
 10 11  1  0  0  0
 11 12  2  0  0  0
 11 13  1  0  0  0
  6  1  2  0  0  0
 13  7  1  0  0  0
 30 24  1  0  0  0
 20 15  1  0  0  0
 13 14  1  0  0  0
M  END
> <minimizedAffinity>
-9.95352

$$$$



 34 37  0  0  0  0  0  0  0  0999 V2000
    0.0726   64.1768   84.7463 C   0  0  0  0  0  0  0  0  0  0  0  0
    0.9055   65.1694   85.2854 C   0  0  0  0  0  0  0  0  0  0  0  0
    1.5127   66.1220   84.4630 C   0  0  0  0  0  0  0  0  0  0  0  0
    1.2857   66.0925   83.0895 C   0  0  0  0  0  0  0  0  0  0  0  0
    0.4681   65.1114   82.5295 C   0  0  0  0  0  0  0  0  0  0  0  0
   -0.1584   64.1551   83.3504 C   0  0  0  0  0  0  0  0  0  0  0  0
   -1.0534   63.1672   82.6581 C   0  0  0  0  0  0  0  0  0  0  0  0
   -1.2267   63.2275   81.3742 N   0  0  0  0  0  0  0  0  0  0  0  0
   -2.0547   62.3020   80.7796 C   0  0  0  0  0  0  0  0  0  0  0  0
   -2.6842   61.3277   81.4520 C   0  0  0  0  0  0  0  0  0  0  0  0
   -2.5017   61.2680   82.9053 C   0  0  0  0  0  0  0  0  0  0  0  0
   -3.0698   60.4250   83.5892 O   0  0  0  0  0  0  0  0  0  0  0  0
   -1.6690   62.2108   83.4229 N   0  0  0  0  0  0  0  0  0  0  0  0
   -1.5393   62.2005   84.4262 H   0  0  0  0  0  0  0  0  0  0  0  0
   -2.2126   62.3889   79.3063 C   0  0  0  0  0  0  0  0  0  0  0  0
   -3.3308   61.8567   78.6441 C   0  0  0  0  0  0  0  0  0  0  0  0
   -3.4581   61.9642   77.2560 C   0  0  0  0  0  0  0  0  0  0  0  0
   -2.4747   62.6127   76.5123 C   0  0  0  0  0  0  0  0  0  0  0  0
   -1.3668   63.1596   77.1547 C   0  0  0  0  0  0  0  0  0  0  0  0
   -1.2395   63.0517   78.5419 C   0  0  0  0  0  0  0  0  0  0  0  0
    2.0903   67.2831   82.0456 S   0  0  0  0  0  0  0  0  0  0  0  0
    2.0729   66.7917   80.6851 O   0  0  0  0  0  0  0  0  0  0  0  0
    3.3376   67.6404   82.6891 O   0  0  0  0  0  0  0  0  0  0  0  0
    1.0479   68.6298   82.1372 N   0  0  0  0  0  0  0  0  0  0  0  0
    0.3231   68.9668   80.8641 C   0  0  0  0  0  0  0  0  0  0  0  0
   -0.2116   70.4104   80.8960 C   0  0  0  0  0  0  0  0  0  0  0  0
    0.8645   71.4191   80.9664 N   0  0  0  0  0  0  0  0  0  0  0  0
    0.3551   72.6826   81.4921 C   0  0  0  0  0  0  0  0  0  0  0  0
    2.0231   70.9233   81.7371 C   0  0  0  0  0  0  0  0  0  0  0  0
    1.6822   69.8360   82.7717 C   0  0  0  0  0  0  0  0  0  0  0  0
   -0.5576   63.2242   85.5052 O   0  0  0  0  0  0  0  0  0  0  0  0
   -0.4289   63.2418   86.9298 C   0  0  0  0  0  0  0  0  0  0  0  0
   -2.9288   62.9791   86.7612 C   0  0  0  0  0  0  0  0  0  0  0  0
   -1.6888   62.6856   87.5868 C   0  0  0  0  0  0  0  0  0  0  0  0
 33 34  1  0  0  0
 34 32  1  0  0  0
 32 31  1  0  0  0
 31  1  1  0  0  0
  1  2  1  0  0  0
  2  3  2  0  0  0
  3  4  1  0  0  0
  4 21  1  0  0  0
 21 22  2  0  0  0
 21 23  2  0  0  0
 21 24  1  0  0  0
 24 25  1  0  0  0
 25 26  1  0  0  0
 26 27  1  0  0  0
 27 28  1  0  0  0
 27 29  1  0  0  0
 29 30  1  0  0  0
  4  5  2  0  0  0
  5  6  1  0  0  0
  6  7  1  0  0  0
  7  8  2  0  0  0
  8  9  1  0  0  0
  9 15  1  0  0  0
 15 16  2  0  0  0
 16 17  1  0  0  0
 17 18  2  0  0  0
 18 19  1  0  0  0
 19 20  2  0  0  0
  9 10  2  0  0  0
 10 11  1  0  0  0
 11 12  2  0  0  0
 11 13  1  0  0  0
  6  1  2  0  0  0
 13  7  1  0  0  0
 30 24  1  0  0  0
 20 15  1  0  0  0
 13 14  1  0  0  0
M  END
> <minimizedAffinity>
-9.94597

$$$$



 34 37  0  0  0  0  0  0  0  0999 V2000
    0.4504   65.1136   83.1779 C   0  0  0  0  0  0  0  0  0  0  0  0
   -0.1269   63.8989   82.7773 C   0  0  0  0  0  0  0  0  0  0  0  0
   -0.2277   63.5630   81.4247 C   0  0  0  0  0  0  0  0  0  0  0  0
    0.2556   64.4413   80.4583 C   0  0  0  0  0  0  0  0  0  0  0  0
    0.8265   65.6577   80.8313 C   0  0  0  0  0  0  0  0  0  0  0  0
    0.9445   65.9997   82.1914 C   0  0  0  0  0  0  0  0  0  0  0  0
    1.6123   67.3110   82.4926 C   0  0  0  0  0  0  0  0  0  0  0  0
    1.0302   68.4287   82.1861 N   0  0  0  0  0  0  0  0  0  0  0  0
    1.6770   69.6078   82.4806 C   0  0  0  0  0  0  0  0  0  0  0  0
    2.8735   69.6689   83.0825 C   0  0  0  0  0  0  0  0  0  0  0  0
    3.5398   68.4062   83.4153 C   0  0  0  0  0  0  0  0  0  0  0  0
    4.6479   68.3836   83.9376 O   0  0  0  0  0  0  0  0  0  0  0  0
    2.8415   67.2827   83.0983 N   0  0  0  0  0  0  0  0  0  0  0  0
    3.2873   66.3980   83.3036 H   0  0  0  0  0  0  0  0  0  0  0  0
    0.9714   70.8669   82.1344 C   0  0  0  0  0  0  0  0  0  0  0  0
   -0.2812   70.8688   81.4993 C   0  0  0  0  0  0  0  0  0  0  0  0
   -0.9277   72.0708   81.1962 C   0  0  0  0  0  0  0  0  0  0  0  0
   -0.3358   73.2864   81.5318 C   0  0  0  0  0  0  0  0  0  0  0  0
    0.8989   73.3025   82.1756 C   0  0  0  0  0  0  0  0  0  0  0  0
    1.5451   72.1012   82.4781 C   0  0  0  0  0  0  0  0  0  0  0  0
    0.0903   64.0254   78.7394 S   0  0  0  0  0  0  0  0  0  0  0  0
    1.3543   63.5051   78.2660 O   0  0  0  0  0  0  0  0  0  0  0  0
   -0.5383   65.1548   78.0861 O   0  0  0  0  0  0  0  0  0  0  0  0
   -1.0342   62.7434   78.7686 N   0  0  0  0  0  0  0  0  0  0  0  0
   -0.4353   61.3650   78.7432 C   0  0  0  0  0  0  0  0  0  0  0  0
   -1.4771   60.3155   78.3143 C   0  0  0  0  0  0  0  0  0  0  0  0
   -1.9580   60.5162   76.9327 N   0  0  0  0  0  0  0  0  0  0  0  0
   -3.2509   59.8668   76.7359 C   0  0  0  0  0  0  0  0  0  0  0  0
   -1.9953   61.9488   76.5741 C   0  0  0  0  0  0  0  0  0  0  0  0
   -2.1490   62.9020   77.7727 C   0  0  0  0  0  0  0  0  0  0  0  0
    0.5857   65.4906   84.4895 O   0  0  0  0  0  0  0  0  0  0  0  0
    1.1690   64.5918   85.4372 C   0  0  0  0  0  0  0  0  0  0  0  0
   -0.6299   63.1680   86.4783 C   0  0  0  0  0  0  0  0  0  0  0  0
    0.2414   64.4017   86.6339 C   0  0  0  0  0  0  0  0  0  0  0  0
 33 34  1  0  0  0
 34 32  1  0  0  0
 32 31  1  0  0  0
 31  1  1  0  0  0
  1  2  1  0  0  0
  2  3  2  0  0  0
  3  4  1  0  0  0
  4 21  1  0  0  0
 21 22  2  0  0  0
 21 23  2  0  0  0
 21 24  1  0  0  0
 24 25  1  0  0  0
 25 26  1  0  0  0
 26 27  1  0  0  0
 27 28  1  0  0  0
 27 29  1  0  0  0
 29 30  1  0  0  0
  4  5  2  0  0  0
  5  6  1  0  0  0
  6  7  1  0  0  0
  7  8  2  0  0  0
  8  9  1  0  0  0
  9 15  1  0  0  0
 15 16  2  0  0  0
 16 17  1  0  0  0
 17 18  2  0  0  0
 18 19  1  0  0  0
 19 20  2  0  0  0
  9 10  2  0  0  0
 10 11  1  0  0  0
 11 12  2  0  0  0
 11 13  1  0  0  0
  6  1  2  0  0  0
 13  7  1  0  0  0
 30 24  1  0  0  0
 20 15  1  0  0  0
 13 14  1  0  0  0
M  END
> <minimizedAffinity>
-9.71169

$$$$
