


 28 32  0  0  0  0  0  0  0  0999 V2000
   -2.2128   63.2115   81.8738 C   0  0  0  0  0  0  0  0  0  0  0  0
   -1.1679   63.7503   82.7211 N   0  0  0  0  0  0  0  0  0  0  0  0
   -0.2851   64.7089   82.2076 C   0  0  0  0  0  0  0  0  0  0  0  0
   -0.3506   65.1480   81.0630 O   0  0  0  0  0  0  0  0  0  0  0  0
    0.7166   65.1376   83.1509 C   0  0  0  0  0  0  0  0  0  0  0  0
    0.7771   64.6715   84.4337 C   0  0  0  0  0  0  0  0  0  0  0  0
    1.7990   65.2063   85.1359 N   0  0  0  0  0  0  0  0  0  0  0  0
    2.4034   66.0405   84.2920 C   0  0  0  0  0  0  0  0  0  0  0  0
    1.7639   66.0253   83.0542 N   0  0  0  0  0  0  0  0  0  0  0  0
   -0.1122   63.7873   84.8763 N   0  0  0  0  0  0  0  0  0  0  0  0
   -1.0616   63.2949   84.0279 C   0  0  0  0  0  0  0  0  0  0  0  0
   -1.8565   62.3774   84.5193 N   0  0  0  0  0  0  0  0  0  0  0  0
   -1.3642   62.1856   85.9241 C   0  0  0  0  0  0  0  0  0  0  0  0
   -2.4423   62.5888   86.9263 C   0  0  0  0  0  0  0  0  0  0  0  0
   -1.6738   63.2969   88.0310 C   0  0  0  0  0  0  0  0  0  0  0  0
   -0.6224   64.0949   87.2744 C   0  0  0  0  0  0  0  0  0  0  0  0
   -0.1744   63.1578   86.1574 C   0  0  0  0  0  0  0  0  0  0  0  0
    3.5960   66.8953   84.6001 C   0  0  0  0  0  0  0  0  0  0  0  0
    4.3534   66.3801   85.6058 F   0  0  0  0  0  0  0  0  0  0  0  0
    3.2496   68.1490   84.9943 F   0  0  0  0  0  0  0  0  0  0  0  0
    4.4156   67.0375   83.5284 F   0  0  0  0  0  0  0  0  0  0  0  0
    2.1583   66.7577   81.8554 C   0  0  0  0  0  0  0  0  0  0  0  0
    1.4810   68.1002   81.7570 C   0  0  0  0  0  0  0  0  0  0  0  0
    1.9556   69.1935   82.4973 C   0  0  0  0  0  0  0  0  0  0  0  0
    1.3304   70.4385   82.4068 C   0  0  0  0  0  0  0  0  0  0  0  0
    0.2308   70.6088   81.5692 C   0  0  0  0  0  0  0  0  0  0  0  0
   -0.2422   69.5361   80.8176 C   0  0  0  0  0  0  0  0  0  0  0  0
    0.3803   68.2900   80.9077 C   0  0  0  0  0  0  0  0  0  0  0  0
  1  2  1  0  0  0
  2  3  1  0  0  0
  3  4  2  0  0  0
  3  5  1  0  0  0
  5  6  2  0  0  0
  6  7  1  0  0  0
  7  8  2  0  0  0
  8 18  1  0  0  0
 18 19  1  0  0  0
 18 20  1  0  0  0
 18 21  1  0  0  0
  8  9  1  0  0  0
  9 22  1  0  0  0
 22 23  1  0  0  0
 23 24  2  0  0  0
 24 25  1  0  0  0
 25 26  2  0  0  0
 26 27  1  0  0  0
 27 28  2  0  0  0
  6 10  1  0  0  0
 10 11  1  0  0  0
 11 12  2  0  0  0
 12 13  1  0  0  0
 13 14  1  0  0  0
 14 15  1  0  0  0
 15 16  1  0  0  0
 16 17  1  0  0  0
 11  2  1  0  0  0
 17 13  1  0  0  0
  9  5  1  0  0  0
 28 23  1  0  0  0
 17 10  1  0  0  0
M  END
> <minimizedAffinity>
-10.05626

$$$$



 28 32  0  0  0  0  0  0  0  0999 V2000
    3.6554   67.3741   84.6905 C   0  0  0  0  0  0  0  0  0  0  0  0
    2.6066   66.8257   83.8541 N   0  0  0  0  0  0  0  0  0  0  0  0
    2.0346   65.5898   84.1815 C   0  0  0  0  0  0  0  0  0  0  0  0
    2.3583   64.9313   85.1659 O   0  0  0  0  0  0  0  0  0  0  0  0
    1.0231   65.1554   83.2512 C   0  0  0  0  0  0  0  0  0  0  0  0
    0.6409   65.8971   82.1694 C   0  0  0  0  0  0  0  0  0  0  0  0
   -0.3172   65.2927   81.4343 N   0  0  0  0  0  0  0  0  0  0  0  0
   -0.5640   64.1434   82.0598 C   0  0  0  0  0  0  0  0  0  0  0  0
    0.2454   64.0217   83.1874 N   0  0  0  0  0  0  0  0  0  0  0  0
    1.1954   67.0818   81.9296 N   0  0  0  0  0  0  0  0  0  0  0  0
    2.1965   67.5398   82.7368 C   0  0  0  0  0  0  0  0  0  0  0  0
    2.7382   68.6821   82.3949 N   0  0  0  0  0  0  0  0  0  0  0  0
    2.0145   69.0646   81.1370 C   0  0  0  0  0  0  0  0  0  0  0  0
    1.2298   70.3569   81.3457 C   0  0  0  0  0  0  0  0  0  0  0  0
   -0.0735   70.1228   80.5979 C   0  0  0  0  0  0  0  0  0  0  0  0
   -0.3939   68.6653   80.8941 C   0  0  0  0  0  0  0  0  0  0  0  0
    0.9597   67.9650   80.8316 C   0  0  0  0  0  0  0  0  0  0  0  0
   -1.5687   63.1113   81.6435 C   0  0  0  0  0  0  0  0  0  0  0  0
   -1.1779   61.8501   81.9710 F   0  0  0  0  0  0  0  0  0  0  0  0
   -1.7804   63.1030   80.3011 F   0  0  0  0  0  0  0  0  0  0  0  0
   -2.7778   63.3083   82.2264 F   0  0  0  0  0  0  0  0  0  0  0  0
    0.3120   62.8846   84.0993 C   0  0  0  0  0  0  0  0  0  0  0  0
   -0.6311   63.0311   85.2654 C   0  0  0  0  0  0  0  0  0  0  0  0
   -1.9626   62.6008   85.1633 C   0  0  0  0  0  0  0  0  0  0  0  0
   -2.8378   62.7344   86.2427 C   0  0  0  0  0  0  0  0  0  0  0  0
   -2.3914   63.2900   87.4393 C   0  0  0  0  0  0  0  0  0  0  0  0
   -1.0686   63.7082   87.5597 C   0  0  0  0  0  0  0  0  0  0  0  0
   -0.1922   63.5770   86.4813 C   0  0  0  0  0  0  0  0  0  0  0  0
  1  2  1  0  0  0
  2  3  1  0  0  0
  3  4  2  0  0  0
  3  5  1  0  0  0
  5  6  2  0  0  0
  6  7  1  0  0  0
  7  8  2  0  0  0
  8 18  1  0  0  0
 18 19  1  0  0  0
 18 20  1  0  0  0
 18 21  1  0  0  0
  8  9  1  0  0  0
  9 22  1  0  0  0
 22 23  1  0  0  0
 23 24  2  0  0  0
 24 25  1  0  0  0
 25 26  2  0  0  0
 26 27  1  0  0  0
 27 28  2  0  0  0
  6 10  1  0  0  0
 10 11  1  0  0  0
 11 12  2  0  0  0
 12 13  1  0  0  0
 13 14  1  0  0  0
 14 15  1  0  0  0
 15 16  1  0  0  0
 16 17  1  0  0  0
 11  2  1  0  0  0
 17 13  1  0  0  0
  9  5  1  0  0  0
 28 23  1  0  0  0
 17 10  1  0  0  0
M  END
> <minimizedAffinity>
-9.55080

$$$$



 28 32  0  0  0  0  0  0  0  0999 V2000
   -0.1129   64.2660   76.9742 C   0  0  0  0  0  0  0  0  0  0  0  0
   -0.1266   64.2250   78.4227 N   0  0  0  0  0  0  0  0  0  0  0  0
    0.6504   65.1366   79.1489 C   0  0  0  0  0  0  0  0  0  0  0  0
    1.3466   66.0025   78.6265 O   0  0  0  0  0  0  0  0  0  0  0  0
    0.5597   64.9658   80.5771 C   0  0  0  0  0  0  0  0  0  0  0  0
   -0.2341   64.0210   81.1634 C   0  0  0  0  0  0  0  0  0  0  0  0
   -0.1580   64.0389   82.5115 N   0  0  0  0  0  0  0  0  0  0  0  0
    0.6943   65.0205   82.8000 C   0  0  0  0  0  0  0  0  0  0  0  0
    1.1602   65.6171   81.6302 N   0  0  0  0  0  0  0  0  0  0  0  0
   -0.9786   63.2060   80.4218 N   0  0  0  0  0  0  0  0  0  0  0  0
   -0.9090   63.2721   79.0601 C   0  0  0  0  0  0  0  0  0  0  0  0
   -1.6193   62.3909   78.4012 N   0  0  0  0  0  0  0  0  0  0  0  0
   -2.2644   61.5673   79.4773 C   0  0  0  0  0  0  0  0  0  0  0  0
   -3.7823   61.7177   79.4256 C   0  0  0  0  0  0  0  0  0  0  0  0
   -4.1981   61.7744   80.8872 C   0  0  0  0  0  0  0  0  0  0  0  0
   -3.1030   62.6094   81.5340 C   0  0  0  0  0  0  0  0  0  0  0  0
   -1.8220   62.1368   80.8539 C   0  0  0  0  0  0  0  0  0  0  0  0
    1.1069   65.4541   84.1746 C   0  0  0  0  0  0  0  0  0  0  0  0
    2.4041   65.1457   84.4446 F   0  0  0  0  0  0  0  0  0  0  0  0
    0.3686   64.8625   85.1503 F   0  0  0  0  0  0  0  0  0  0  0  0
    0.9802   66.7934   84.3495 F   0  0  0  0  0  0  0  0  0  0  0  0
    2.1469   66.6870   81.5256 C   0  0  0  0  0  0  0  0  0  0  0  0
    1.5171   68.0542   81.5951 C   0  0  0  0  0  0  0  0  0  0  0  0
    2.0854   69.0608   82.3901 C   0  0  0  0  0  0  0  0  0  0  0  0
    1.5043   70.3286   82.4551 C   0  0  0  0  0  0  0  0  0  0  0  0
    0.3552   70.6088   81.7198 C   0  0  0  0  0  0  0  0  0  0  0  0
   -0.2116   69.6236   80.9151 C   0  0  0  0  0  0  0  0  0  0  0  0
    0.3668   68.3549   80.8499 C   0  0  0  0  0  0  0  0  0  0  0  0
  1  2  1  0  0  0
  2  3  1  0  0  0
  3  4  2  0  0  0
  3  5  1  0  0  0
  5  6  2  0  0  0
  6  7  1  0  0  0
  7  8  2  0  0  0
  8 18  1  0  0  0
 18 19  1  0  0  0
 18 20  1  0  0  0
 18 21  1  0  0  0
  8  9  1  0  0  0
  9 22  1  0  0  0
 22 23  1  0  0  0
 23 24  2  0  0  0
 24 25  1  0  0  0
 25 26  2  0  0  0
 26 27  1  0  0  0
 27 28  2  0  0  0
  6 10  1  0  0  0
 10 11  1  0  0  0
 11 12  2  0  0  0
 12 13  1  0  0  0
 13 14  1  0  0  0
 14 15  1  0  0  0
 15 16  1  0  0  0
 16 17  1  0  0  0
 11  2  1  0  0  0
 17 13  1  0  0  0
  9  5  1  0  0  0
 28 23  1  0  0  0
 17 10  1  0  0  0
M  END
> <minimizedAffinity>
-9.50266

$$$$



 28 32  0  0  0  0  0  0  0  0999 V2000
    0.6927   65.3059   79.3030 C   0  0  0  0  0  0  0  0  0  0  0  0
    0.5513   64.7249   80.6232 N   0  0  0  0  0  0  0  0  0  0  0  0
    0.8259   65.5025   81.7553 C   0  0  0  0  0  0  0  0  0  0  0  0
    1.1700   66.6799   81.7030 O   0  0  0  0  0  0  0  0  0  0  0  0
    0.6678   64.7910   82.9986 C   0  0  0  0  0  0  0  0  0  0  0  0
    0.2595   63.4888   83.0628 C   0  0  0  0  0  0  0  0  0  0  0  0
    0.1868   63.0263   84.3294 N   0  0  0  0  0  0  0  0  0  0  0  0
    0.5462   64.0533   85.0971 C   0  0  0  0  0  0  0  0  0  0  0  0
    0.8519   65.1623   84.3110 N   0  0  0  0  0  0  0  0  0  0  0  0
   -0.0222   62.8113   81.9536 N   0  0  0  0  0  0  0  0  0  0  0  0
    0.1514   63.4004   80.7345 C   0  0  0  0  0  0  0  0  0  0  0  0
   -0.0811   62.6462   79.6893 N   0  0  0  0  0  0  0  0  0  0  0  0
   -0.4508   61.3158   80.2773 C   0  0  0  0  0  0  0  0  0  0  0  0
   -1.8903   60.9566   79.9194 C   0  0  0  0  0  0  0  0  0  0  0  0
   -2.4387   60.3205   81.1871 C   0  0  0  0  0  0  0  0  0  0  0  0
   -1.8354   61.1681   82.2972 C   0  0  0  0  0  0  0  0  0  0  0  0
   -0.4110   61.4425   81.8256 C   0  0  0  0  0  0  0  0  0  0  0  0
    0.6130   64.0532   86.5949 C   0  0  0  0  0  0  0  0  0  0  0  0
   -0.0154   65.1301   87.1389 F   0  0  0  0  0  0  0  0  0  0  0  0
    1.8900   64.0888   87.0587 F   0  0  0  0  0  0  0  0  0  0  0  0
    0.0344   62.9509   87.1339 F   0  0  0  0  0  0  0  0  0  0  0  0
    1.3383   66.4575   84.7748 C   0  0  0  0  0  0  0  0  0  0  0  0
    2.8382   66.5707   84.6841 C   0  0  0  0  0  0  0  0  0  0  0  0
    3.4367   67.7504   84.2167 C   0  0  0  0  0  0  0  0  0  0  0  0
    4.8261   67.8579   84.1329 C   0  0  0  0  0  0  0  0  0  0  0  0
    5.6340   66.7929   84.5239 C   0  0  0  0  0  0  0  0  0  0  0  0
    5.0541   65.6211   85.0033 C   0  0  0  0  0  0  0  0  0  0  0  0
    3.6651   65.5108   85.0864 C   0  0  0  0  0  0  0  0  0  0  0  0
  1  2  1  0  0  0
  2  3  1  0  0  0
  3  4  2  0  0  0
  3  5  1  0  0  0
  5  6  2  0  0  0
  6  7  1  0  0  0
  7  8  2  0  0  0
  8 18  1  0  0  0
 18 19  1  0  0  0
 18 20  1  0  0  0
 18 21  1  0  0  0
  8  9  1  0  0  0
  9 22  1  0  0  0
 22 23  1  0  0  0
 23 24  2  0  0  0
 24 25  1  0  0  0
 25 26  2  0  0  0
 26 27  1  0  0  0
 27 28  2  0  0  0
  6 10  1  0  0  0
 10 11  1  0  0  0
 11 12  2  0  0  0
 12 13  1  0  0  0
 13 14  1  0  0  0
 14 15  1  0  0  0
 15 16  1  0  0  0
 16 17  1  0  0  0
 11  2  1  0  0  0
 17 13  1  0  0  0
  9  5  1  0  0  0
 28 23  1  0  0  0
 17 10  1  0  0  0
M  END
> <minimizedAffinity>
-9.48428

$$$$



 28 32  0  0  0  0  0  0  0  0999 V2000
   -0.2923   63.1888   84.1040 C   0  0  0  0  0  0  0  0  0  0  0  0
    0.2454   64.2853   83.3237 N   0  0  0  0  0  0  0  0  0  0  0  0
    0.9773   65.2954   83.9608 C   0  0  0  0  0  0  0  0  0  0  0  0
    1.2155   65.3045   85.1652 O   0  0  0  0  0  0  0  0  0  0  0  0
    1.4299   66.3329   83.0687 C   0  0  0  0  0  0  0  0  0  0  0  0
    1.1901   66.3133   81.7239 C   0  0  0  0  0  0  0  0  0  0  0  0
    1.7017   67.3883   81.0867 N   0  0  0  0  0  0  0  0  0  0  0  0
    2.2908   68.1102   82.0380 C   0  0  0  0  0  0  0  0  0  0  0  0
    2.1437   67.4909   83.2774 N   0  0  0  0  0  0  0  0  0  0  0  0
    0.5193   65.3076   81.1695 N   0  0  0  0  0  0  0  0  0  0  0  0
    0.0143   64.3122   81.9553 C   0  0  0  0  0  0  0  0  0  0  0  0
   -0.6927   63.3949   81.3438 N   0  0  0  0  0  0  0  0  0  0  0  0
   -0.6994   63.8384   79.9100 C   0  0  0  0  0  0  0  0  0  0  0  0
    0.0083   62.8108   79.0310 C   0  0  0  0  0  0  0  0  0  0  0  0
    0.7920   63.6526   78.0362 C   0  0  0  0  0  0  0  0  0  0  0  0
    1.3029   64.8115   78.8791 C   0  0  0  0  0  0  0  0  0  0  0  0
    0.1357   65.1446   79.8030 C   0  0  0  0  0  0  0  0  0  0  0  0
    3.0241   69.4024   81.8372 C   0  0  0  0  0  0  0  0  0  0  0  0
    3.1205   69.7415   80.5233 F   0  0  0  0  0  0  0  0  0  0  0  0
    4.2980   69.3564   82.3083 F   0  0  0  0  0  0  0  0  0  0  0  0
    2.4152   70.4403   82.4638 F   0  0  0  0  0  0  0  0  0  0  0  0
    2.5990   67.9959   84.5685 C   0  0  0  0  0  0  0  0  0  0  0  0
    3.9819   67.5093   84.9171 C   0  0  0  0  0  0  0  0  0  0  0  0
    4.7902   68.2359   85.8043 C   0  0  0  0  0  0  0  0  0  0  0  0
    6.0713   67.7864   86.1296 C   0  0  0  0  0  0  0  0  0  0  0  0
    6.5562   66.6018   85.5809 C   0  0  0  0  0  0  0  0  0  0  0  0
    5.7595   65.8628   84.7100 C   0  0  0  0  0  0  0  0  0  0  0  0
    4.4789   66.3111   84.3821 C   0  0  0  0  0  0  0  0  0  0  0  0
  1  2  1  0  0  0
  2  3  1  0  0  0
  3  4  2  0  0  0
  3  5  1  0  0  0
  5  6  2  0  0  0
  6  7  1  0  0  0
  7  8  2  0  0  0
  8 18  1  0  0  0
 18 19  1  0  0  0
 18 20  1  0  0  0
 18 21  1  0  0  0
  8  9  1  0  0  0
  9 22  1  0  0  0
 22 23  1  0  0  0
 23 24  2  0  0  0
 24 25  1  0  0  0
 25 26  2  0  0  0
 26 27  1  0  0  0
 27 28  2  0  0  0
  6 10  1  0  0  0
 10 11  1  0  0  0
 11 12  2  0  0  0
 12 13  1  0  0  0
 13 14  1  0  0  0
 14 15  1  0  0  0
 15 16  1  0  0  0
 16 17  1  0  0  0
 11  2  1  0  0  0
 17 13  1  0  0  0
  9  5  1  0  0  0
 28 23  1  0  0  0
 17 10  1  0  0  0
M  END
> <minimizedAffinity>
-9.44209

$$$$



 28 32  0  0  0  0  0  0  0  0999 V2000
   -0.6102   62.4837   86.2819 C   0  0  0  0  0  0  0  0  0  0  0  0
   -0.3571   63.3054   85.1152 N   0  0  0  0  0  0  0  0  0  0  0  0
    0.4389   64.4517   85.2348 C   0  0  0  0  0  0  0  0  0  0  0  0
    0.9653   64.8060   86.2858 O   0  0  0  0  0  0  0  0  0  0  0  0
    0.5861   65.1852   84.0030 C   0  0  0  0  0  0  0  0  0  0  0  0
    0.0242   64.7804   82.8254 C   0  0  0  0  0  0  0  0  0  0  0  0
    0.2888   65.6229   81.8038 N   0  0  0  0  0  0  0  0  0  0  0  0
    1.0437   66.5847   82.3313 C   0  0  0  0  0  0  0  0  0  0  0  0
    1.2490   66.3498   83.6892 N   0  0  0  0  0  0  0  0  0  0  0  0
   -0.6926   63.6618   82.7655 N   0  0  0  0  0  0  0  0  0  0  0  0
   -0.9196   62.9382   83.9006 C   0  0  0  0  0  0  0  0  0  0  0  0
   -1.6915   61.8881   83.7724 N   0  0  0  0  0  0  0  0  0  0  0  0
   -2.0815   61.8995   82.3231 C   0  0  0  0  0  0  0  0  0  0  0  0
   -1.5441   60.6579   81.6168 C   0  0  0  0  0  0  0  0  0  0  0  0
   -1.0888   61.1723   80.2602 C   0  0  0  0  0  0  0  0  0  0  0  0
   -0.4659   62.5218   80.5850 C   0  0  0  0  0  0  0  0  0  0  0  0
   -1.3892   63.1142   81.6447 C   0  0  0  0  0  0  0  0  0  0  0  0
    1.6155   67.7596   81.5961 C   0  0  0  0  0  0  0  0  0  0  0  0
    1.1398   67.8534   80.3250 F   0  0  0  0  0  0  0  0  0  0  0  0
    2.9687   67.6972   81.4877 F   0  0  0  0  0  0  0  0  0  0  0  0
    1.3284   68.9362   82.2074 F   0  0  0  0  0  0  0  0  0  0  0  0
    1.9731   67.2026   84.6261 C   0  0  0  0  0  0  0  0  0  0  0  0
    3.4510   66.9089   84.6414 C   0  0  0  0  0  0  0  0  0  0  0  0
    4.3772   67.8949   84.2695 C   0  0  0  0  0  0  0  0  0  0  0  0
    5.7470   67.6254   84.2841 C   0  0  0  0  0  0  0  0  0  0  0  0
    6.2081   66.3722   84.6794 C   0  0  0  0  0  0  0  0  0  0  0  0
    5.3010   65.3884   85.0650 C   0  0  0  0  0  0  0  0  0  0  0  0
    3.9310   65.6551   85.0497 C   0  0  0  0  0  0  0  0  0  0  0  0
  1  2  1  0  0  0
  2  3  1  0  0  0
  3  4  2  0  0  0
  3  5  1  0  0  0
  5  6  2  0  0  0
  6  7  1  0  0  0
  7  8  2  0  0  0
  8 18  1  0  0  0
 18 19  1  0  0  0
 18 20  1  0  0  0
 18 21  1  0  0  0
  8  9  1  0  0  0
  9 22  1  0  0  0
 22 23  1  0  0  0
 23 24  2  0  0  0
 24 25  1  0  0  0
 25 26  2  0  0  0
 26 27  1  0  0  0
 27 28  2  0  0  0
  6 10  1  0  0  0
 10 11  1  0  0  0
 11 12  2  0  0  0
 12 13  1  0  0  0
 13 14  1  0  0  0
 14 15  1  0  0  0
 15 16  1  0  0  0
 16 17  1  0  0  0
 11  2  1  0  0  0
 17 13  1  0  0  0
  9  5  1  0  0  0
 28 23  1  0  0  0
 17 10  1  0  0  0
M  END
> <minimizedAffinity>
-9.39146

$$$$



 28 32  0  0  0  0  0  0  0  0999 V2000
    2.1599   68.8075   81.0035 C   0  0  0  0  0  0  0  0  0  0  0  0
    1.9190   67.7180   81.9284 N   0  0  0  0  0  0  0  0  0  0  0  0
    0.8866   66.8070   81.6718 C   0  0  0  0  0  0  0  0  0  0  0  0
    0.1648   66.8606   80.6801 O   0  0  0  0  0  0  0  0  0  0  0  0
    0.7452   65.7918   82.6849 C   0  0  0  0  0  0  0  0  0  0  0  0
    1.5630   65.7124   83.7764 C   0  0  0  0  0  0  0  0  0  0  0  0
    1.2436   64.6868   84.5946 N   0  0  0  0  0  0  0  0  0  0  0  0
    0.2055   64.0877   84.0144 C   0  0  0  0  0  0  0  0  0  0  0  0
   -0.1327   64.7422   82.8317 N   0  0  0  0  0  0  0  0  0  0  0  0
    2.5511   66.5859   83.9481 N   0  0  0  0  0  0  0  0  0  0  0  0
    2.7180   67.6072   83.0579 C   0  0  0  0  0  0  0  0  0  0  0  0
    3.6687   68.4649   83.3332 N   0  0  0  0  0  0  0  0  0  0  0  0
    4.2345   67.9739   84.6337 C   0  0  0  0  0  0  0  0  0  0  0  0
    5.6920   67.5572   84.4573 C   0  0  0  0  0  0  0  0  0  0  0  0
    5.8231   66.3025   85.3064 C   0  0  0  0  0  0  0  0  0  0  0  0
    4.5087   65.5747   85.0666 C   0  0  0  0  0  0  0  0  0  0  0  0
    3.4650   66.6868   85.0416 C   0  0  0  0  0  0  0  0  0  0  0  0
   -0.5126   62.8758   84.5275 C   0  0  0  0  0  0  0  0  0  0  0  0
   -0.1829   61.7507   83.8376 F   0  0  0  0  0  0  0  0  0  0  0  0
   -1.8633   62.9927   84.4333 F   0  0  0  0  0  0  0  0  0  0  0  0
   -0.2340   62.6287   85.8321 F   0  0  0  0  0  0  0  0  0  0  0  0
   -1.2448   64.4244   81.9419 C   0  0  0  0  0  0  0  0  0  0  0  0
   -0.9294   63.2739   81.0213 C   0  0  0  0  0  0  0  0  0  0  0  0
   -1.7764   62.1571   80.9607 C   0  0  0  0  0  0  0  0  0  0  0  0
   -1.4869   61.0906   80.1077 C   0  0  0  0  0  0  0  0  0  0  0  0
   -0.3542   61.1310   79.2984 C   0  0  0  0  0  0  0  0  0  0  0  0
    0.4878   62.2396   79.3375 C   0  0  0  0  0  0  0  0  0  0  0  0
    0.2012   63.3063   80.1908 C   0  0  0  0  0  0  0  0  0  0  0  0
  1  2  1  0  0  0
  2  3  1  0  0  0
  3  4  2  0  0  0
  3  5  1  0  0  0
  5  6  2  0  0  0
  6  7  1  0  0  0
  7  8  2  0  0  0
  8 18  1  0  0  0
 18 19  1  0  0  0
 18 20  1  0  0  0
 18 21  1  0  0  0
  8  9  1  0  0  0
  9 22  1  0  0  0
 22 23  1  0  0  0
 23 24  2  0  0  0
 24 25  1  0  0  0
 25 26  2  0  0  0
 26 27  1  0  0  0
 27 28  2  0  0  0
  6 10  1  0  0  0
 10 11  1  0  0  0
 11 12  2  0  0  0
 12 13  1  0  0  0
 13 14  1  0  0  0
 14 15  1  0  0  0
 15 16  1  0  0  0
 16 17  1  0  0  0
 11  2  1  0  0  0
 17 13  1  0  0  0
  9  5  1  0  0  0
 28 23  1  0  0  0
 17 10  1  0  0  0
M  END
> <minimizedAffinity>
-9.29637

$$$$



 28 32  0  0  0  0  0  0  0  0999 V2000
   -0.4840   63.8594   79.4794 C   0  0  0  0  0  0  0  0  0  0  0  0
    0.1787   64.5511   80.5669 N   0  0  0  0  0  0  0  0  0  0  0  0
    0.7322   65.8188   80.3465 C   0  0  0  0  0  0  0  0  0  0  0  0
    0.6759   66.4063   79.2699 O   0  0  0  0  0  0  0  0  0  0  0  0
    1.3801   66.3772   81.5064 C   0  0  0  0  0  0  0  0  0  0  0  0
    1.4220   65.7387   82.7135 C   0  0  0  0  0  0  0  0  0  0  0  0
    2.0849   66.4447   83.6547 N   0  0  0  0  0  0  0  0  0  0  0  0
    2.4696   67.5641   83.0448 C   0  0  0  0  0  0  0  0  0  0  0  0
    2.0532   67.5593   81.7152 N   0  0  0  0  0  0  0  0  0  0  0  0
    0.8463   64.5505   82.8723 N   0  0  0  0  0  0  0  0  0  0  0  0
    0.2561   63.9332   81.8074 C   0  0  0  0  0  0  0  0  0  0  0  0
   -0.2273   62.7362   82.0277 N   0  0  0  0  0  0  0  0  0  0  0  0
    0.1019   62.4716   83.4679 C   0  0  0  0  0  0  0  0  0  0  0  0
   -1.1765   62.3204   84.2877 C   0  0  0  0  0  0  0  0  0  0  0  0
   -0.8647   63.0345   85.5936 C   0  0  0  0  0  0  0  0  0  0  0  0
   -0.0651   64.2503   85.1494 C   0  0  0  0  0  0  0  0  0  0  0  0
    0.8320   63.7207   84.0353 C   0  0  0  0  0  0  0  0  0  0  0  0
    3.2329   68.6920   83.6719 C   0  0  0  0  0  0  0  0  0  0  0  0
    3.6712   68.3851   84.9226 F   0  0  0  0  0  0  0  0  0  0  0  0
    2.4839   69.8185   83.8015 F   0  0  0  0  0  0  0  0  0  0  0  0
    4.3281   69.0347   82.9483 F   0  0  0  0  0  0  0  0  0  0  0  0
    2.3280   68.5783   80.7075 C   0  0  0  0  0  0  0  0  0  0  0  0
    1.5207   69.8316   80.9271 C   0  0  0  0  0  0  0  0  0  0  0  0
    2.1136   71.0951   80.7843 C   0  0  0  0  0  0  0  0  0  0  0  0
    1.3673   72.2576   80.9861 C   0  0  0  0  0  0  0  0  0  0  0  0
    0.0186   72.1722   81.3230 C   0  0  0  0  0  0  0  0  0  0  0  0
   -0.5866   70.9249   81.4540 C   0  0  0  0  0  0  0  0  0  0  0  0
    0.1580   69.7613   81.2543 C   0  0  0  0  0  0  0  0  0  0  0  0
  1  2  1  0  0  0
  2  3  1  0  0  0
  3  4  2  0  0  0
  3  5  1  0  0  0
  5  6  2  0  0  0
  6  7  1  0  0  0
  7  8  2  0  0  0
  8 18  1  0  0  0
 18 19  1  0  0  0
 18 20  1  0  0  0
 18 21  1  0  0  0
  8  9  1  0  0  0
  9 22  1  0  0  0
 22 23  1  0  0  0
 23 24  2  0  0  0
 24 25  1  0  0  0
 25 26  2  0  0  0
 26 27  1  0  0  0
 27 28  2  0  0  0
  6 10  1  0  0  0
 10 11  1  0  0  0
 11 12  2  0  0  0
 12 13  1  0  0  0
 13 14  1  0  0  0
 14 15  1  0  0  0
 15 16  1  0  0  0
 16 17  1  0  0  0
 11  2  1  0  0  0
 17 13  1  0  0  0
  9  5  1  0  0  0
 28 23  1  0  0  0
 17 10  1  0  0  0
M  END
> <minimizedAffinity>
-9.12356

$$$$



 28 32  0  0  0  0  0  0  0  0999 V2000
    1.4324   65.7129   84.5097 C   0  0  0  0  0  0  0  0  0  0  0  0
    1.1256   65.6848   83.0936 N   0  0  0  0  0  0  0  0  0  0  0  0
    0.7472   64.4786   82.4906 C   0  0  0  0  0  0  0  0  0  0  0  0
    0.6374   63.4193   83.1016 O   0  0  0  0  0  0  0  0  0  0  0  0
    0.4961   64.5923   81.0760 C   0  0  0  0  0  0  0  0  0  0  0  0
    0.5911   65.7740   80.3972 C   0  0  0  0  0  0  0  0  0  0  0  0
    0.3177   65.6436   79.0812 N   0  0  0  0  0  0  0  0  0  0  0  0
    0.0319   64.3543   78.9103 C   0  0  0  0  0  0  0  0  0  0  0  0
    0.1320   63.6712   80.1205 N   0  0  0  0  0  0  0  0  0  0  0  0
    0.9200   66.8957   81.0315 N   0  0  0  0  0  0  0  0  0  0  0  0
    1.2221   66.8606   82.3623 C   0  0  0  0  0  0  0  0  0  0  0  0
    1.6033   67.9928   82.8989 N   0  0  0  0  0  0  0  0  0  0  0  0
    1.5864   68.9612   81.7525 C   0  0  0  0  0  0  0  0  0  0  0  0
    0.5539   70.0583   81.9969 C   0  0  0  0  0  0  0  0  0  0  0  0
   -0.0761   70.2837   80.6313 C   0  0  0  0  0  0  0  0  0  0  0  0
   -0.1836   68.8795   80.0557 C   0  0  0  0  0  0  0  0  0  0  0  0
    1.1138   68.2004   80.4825 C   0  0  0  0  0  0  0  0  0  0  0  0
   -0.3557   63.7012   77.6176 C   0  0  0  0  0  0  0  0  0  0  0  0
   -1.6626   63.3240   77.6022 F   0  0  0  0  0  0  0  0  0  0  0  0
    0.3637   62.5757   77.3671 F   0  0  0  0  0  0  0  0  0  0  0  0
   -0.1747   64.5230   76.5534 F   0  0  0  0  0  0  0  0  0  0  0  0
   -0.0489   62.2393   80.3357 C   0  0  0  0  0  0  0  0  0  0  0  0
   -1.4887   61.8176   80.1949 C   0  0  0  0  0  0  0  0  0  0  0  0
   -1.8346   60.7209   79.3911 C   0  0  0  0  0  0  0  0  0  0  0  0
   -3.1677   60.3277   79.2602 C   0  0  0  0  0  0  0  0  0  0  0  0
   -4.1695   61.0184   79.9377 C   0  0  0  0  0  0  0  0  0  0  0  0
   -3.8393   62.0999   80.7504 C   0  0  0  0  0  0  0  0  0  0  0  0
   -2.5073   62.4959   80.8815 C   0  0  0  0  0  0  0  0  0  0  0  0
  1  2  1  0  0  0
  2  3  1  0  0  0
  3  4  2  0  0  0
  3  5  1  0  0  0
  5  6  2  0  0  0
  6  7  1  0  0  0
  7  8  2  0  0  0
  8 18  1  0  0  0
 18 19  1  0  0  0
 18 20  1  0  0  0
 18 21  1  0  0  0
  8  9  1  0  0  0
  9 22  1  0  0  0
 22 23  1  0  0  0
 23 24  2  0  0  0
 24 25  1  0  0  0
 25 26  2  0  0  0
 26 27  1  0  0  0
 27 28  2  0  0  0
  6 10  1  0  0  0
 10 11  1  0  0  0
 11 12  2  0  0  0
 12 13  1  0  0  0
 13 14  1  0  0  0
 14 15  1  0  0  0
 15 16  1  0  0  0
 16 17  1  0  0  0
 11  2  1  0  0  0
 17 13  1  0  0  0
  9  5  1  0  0  0
 28 23  1  0  0  0
 17 10  1  0  0  0
M  END
> <minimizedAffinity>
-9.02063

$$$$
