
     RDKit          3D

 49 51  0  0  0  0  0  0  0  0999 V2000
   -6.5015    1.0913   -0.9423 C   0  0  0  0  0  0  0  0  0  0  0  0
   -4.9976    0.7654   -1.0414 C   0  0  0  0  0  0  0  0  0  0  0  0
   -4.8515   -0.5379   -1.8521 C   0  0  0  0  0  0  0  0  0  0  0  0
   -4.2941    1.9124   -1.8001 C   0  0  0  0  0  0  0  0  0  0  0  0
   -4.8719    2.9153   -2.2248 O   0  0  0  0  0  0  0  0  0  0  0  0
   -2.9389    1.7375   -2.0063 N   0  0  0  0  0  0  0  0  0  0  0  0
   -2.2782    2.8599   -2.5679 O   0  0  0  0  0  0  0  0  0  0  0  0
   -4.3499    0.6052    0.3284 C   0  0  0  0  0  0  0  0  0  0  0  0
   -4.9378    0.7250    1.5756 C   0  0  0  0  0  0  0  0  0  0  0  0
   -3.7859    0.4326    2.8079 S   0  0  0  0  0  0  0  0  0  0  0  0
   -2.5917    0.1722    1.6265 C   0  0  0  0  0  0  0  0  0  0  0  0
   -1.2972   -0.1382    1.9343 N   0  0  0  0  0  0  0  0  0  0  0  0
   -0.7401   -0.3051    3.1806 C   0  0  0  0  0  0  0  0  0  0  0  0
   -1.2899   -0.2113    4.2704 O   0  0  0  0  0  0  0  0  0  0  0  0
    0.7205   -0.6449    3.1083 C   0  0  0  0  0  0  0  0  0  0  0  0
    1.4522   -0.8321    4.2723 C   0  0  0  0  0  0  0  0  0  0  0  0
    2.8002   -1.1457    4.1514 C   0  0  0  0  0  0  0  0  0  0  0  0
    3.3649   -1.2569    2.8829 C   0  0  0  0  0  0  0  0  0  0  0  0
    2.5668   -1.0460    1.7570 C   0  0  0  0  0  0  0  0  0  0  0  0
    3.1558   -1.1853    0.3677 C   0  0  0  0  0  0  0  0  0  0  0  0
    4.3645   -0.4295    0.2822 O   0  0  0  0  0  0  0  0  0  0  0  0
    5.0428   -0.4762   -0.9043 C   0  0  0  0  0  0  0  0  0  0  0  0
    4.6503   -1.1689   -2.0508 C   0  0  0  0  0  0  0  0  0  0  0  0
    5.4457   -1.1299   -3.2006 C   0  0  0  0  0  0  0  0  0  0  0  0
    6.6330   -0.3999   -3.2100 C   0  0  0  0  0  0  0  0  0  0  0  0
    7.0278    0.2944   -2.0695 C   0  0  0  0  0  0  0  0  0  0  0  0
    6.2336    0.2553   -0.9224 C   0  0  0  0  0  0  0  0  0  0  0  0
    1.2436   -0.7525    1.8514 N   0  0  0  0  0  0  0  0  0  0  0  0
   -2.9884    0.2921    0.3790 N   0  0  0  0  0  0  0  0  0  0  0  0
   -6.6759    2.0278   -0.3990 H   0  0  0  0  0  0  0  0  0  0  0  0
   -7.0522    0.2973   -0.4244 H   0  0  0  0  0  0  0  0  0  0  0  0
   -6.9485    1.2082   -1.9368 H   0  0  0  0  0  0  0  0  0  0  0  0
   -5.2632   -0.4221   -2.8615 H   0  0  0  0  0  0  0  0  0  0  0  0
   -3.8041   -0.8410   -1.9647 H   0  0  0  0  0  0  0  0  0  0  0  0
   -5.3767   -1.3674   -1.3640 H   0  0  0  0  0  0  0  0  0  0  0  0
   -2.4170    1.2235   -1.2931 H   0  0  0  0  0  0  0  0  0  0  0  0
   -3.0206    3.4850   -2.7218 H   0  0  0  0  0  0  0  0  0  0  0  0
   -5.9617    0.9602    1.8289 H   0  0  0  0  0  0  0  0  0  0  0  0
   -0.6749   -0.2630    1.1428 H   0  0  0  0  0  0  0  0  0  0  0  0
    0.9862   -0.7354    5.2478 H   0  0  0  0  0  0  0  0  0  0  0  0
    3.4095   -1.2993    5.0383 H   0  0  0  0  0  0  0  0  0  0  0  0
    4.4195   -1.4969    2.7745 H   0  0  0  0  0  0  0  0  0  0  0  0
    2.4292   -0.8109   -0.3637 H   0  0  0  0  0  0  0  0  0  0  0  0
    3.3518   -2.2497    0.1894 H   0  0  0  0  0  0  0  0  0  0  0  0
    3.7326   -1.7457   -2.0908 H   0  0  0  0  0  0  0  0  0  0  0  0
    5.1356   -1.6688   -4.0926 H   0  0  0  0  0  0  0  0  0  0  0  0
    7.2477   -0.3701   -4.1060 H   0  0  0  0  0  0  0  0  0  0  0  0
    7.9508    0.8681   -2.0717 H   0  0  0  0  0  0  0  0  0  0  0  0
    6.5448    0.8019   -0.0355 H   0  0  0  0  0  0  0  0  0  0  0  0
  1  2  1  0
  2  3  1  0
  2  4  1  0
  4  5  2  0
  4  6  1  0
  6  7  1  0
  2  8  1  0
  8  9  2  0
  9 10  1  0
 10 11  1  0
 11 12  1  0
 12 13  1  0
 13 14  2  0
 13 15  1  0
 15 16  1  0
 16 17  2  0
 17 18  1  0
 18 19  2  0
 19 20  1  0
 20 21  1  0
 21 22  1  0
 22 23  2  0
 23 24  1  0
 24 25  2  0
 25 26  1  0
 26 27  2  0
 19 28  1  0
 11 29  2  0
 29  8  1  0
 28 15  2  0
 27 22  1  0
  1 30  1  0
  1 31  1  0
  1 32  1  0
  3 33  1  0
  3 34  1  0
  3 35  1  0
  6 36  1  0
  7 37  1  0
  9 38  1  0
 12 39  1  0
 16 40  1  0
 17 41  1  0
 18 42  1  0
 20 43  1  0
 20 44  1  0
 23 45  1  0
 24 46  1  0
 25 47  1  0
 26 48  1  0
 27 49  1  0
M  END
$$$$
