


 37 40  0  0  0  0  0  0  0  0999 V2000
    3.1174   66.5079   84.2843 C   0  0  0  0  0  0  0  0  0  0  0  0
    3.9535   67.6281   84.1929 C   0  0  0  0  0  0  0  0  0  0  0  0
    3.7115   68.6011   83.2254 C   0  0  0  0  0  0  0  0  0  0  0  0
    2.6242   68.4530   82.3614 C   0  0  0  0  0  0  0  0  0  0  0  0
    1.7609   67.3581   82.4790 C   0  0  0  0  0  0  0  0  0  0  0  0
    1.9952   66.3700   83.4485 C   0  0  0  0  0  0  0  0  0  0  0  0
    1.0605   65.2455   83.5381 C   0  0  0  0  0  0  0  0  0  0  0  0
    0.7032   64.4500   82.5421 N   0  0  0  0  0  0  0  0  0  0  0  0
   -0.2094   63.5718   83.0753 C   0  0  0  0  0  0  0  0  0  0  0  0
   -0.9252   62.4996   82.4238 C   0  0  0  0  0  0  0  0  0  0  0  0
   -0.7863   62.2311   81.2332 O   0  0  0  0  0  0  0  0  0  0  0  0
   -1.7925   61.8127   83.2902 N   0  0  0  0  0  0  0  0  0  0  0  0
   -2.5784   60.7378   82.7169 C   0  0  0  0  0  0  0  0  0  0  0  0
   -2.0539   62.1284   84.6395 C   0  0  0  0  0  0  0  0  0  0  0  0
   -2.9276   61.5332   85.2766 O   0  0  0  0  0  0  0  0  0  0  0  0
   -1.2823   63.1504   85.2303 N   0  0  0  0  0  0  0  0  0  0  0  0
   -0.4136   63.8309   84.4010 C   0  0  0  0  0  0  0  0  0  0  0  0
    0.3916   64.8906   84.6932 N   0  0  0  0  0  0  0  0  0  0  0  0
    0.5031   65.3619   85.5799 H   0  0  0  0  0  0  0  0  0  0  0  0
   -1.5078   63.4867   86.6393 C   0  0  0  0  0  0  0  0  0  0  0  0
   -0.4830   62.8928   87.6490 C   0  0  0  0  0  0  0  0  0  0  0  0
    0.9069   63.5266   87.4847 C   0  0  0  0  0  0  0  0  0  0  0  0
   -0.9894   63.2056   89.0720 C   0  0  0  0  0  0  0  0  0  0  0  0
   -0.3524   61.3679   87.5091 C   0  0  0  0  0  0  0  0  0  0  0  0
    2.2961   69.7138   81.1529 S   0  0  0  0  0  0  0  0  0  0  0  0
    1.1589   69.2722   80.3717 O   0  0  0  0  0  0  0  0  0  0  0  0
    3.5402   70.0737   80.5088 O   0  0  0  0  0  0  0  0  0  0  0  0
    1.7913   71.0332   82.1098 N   0  0  0  0  0  0  0  0  0  0  0  0
    2.8715   72.0169   82.4639 C   0  0  0  0  0  0  0  0  0  0  0  0
    2.2702   73.3611   82.9149 C   0  0  0  0  0  0  0  0  0  0  0  0
    1.5127   74.0398   81.8445 N   0  0  0  0  0  0  0  0  0  0  0  0
    0.5632   74.9951   82.4079 C   0  0  0  0  0  0  0  0  0  0  0  0
    0.8576   73.0688   80.9446 C   0  0  0  0  0  0  0  0  0  0  0  0
    0.5509   71.7068   81.5925 C   0  0  0  0  0  0  0  0  0  0  0  0
    3.3908   65.5730   85.2535 O   0  0  0  0  0  0  0  0  0  0  0  0
    5.0135   65.0444   86.9318 C   0  0  0  0  0  0  0  0  0  0  0  0
    4.8048   65.4838   85.4944 C   0  0  0  0  0  0  0  0  0  0  0  0
 36 37  1  0  0  0
 37 35  1  0  0  0
 35  1  1  0  0  0
  1  2  1  0  0  0
  2  3  2  0  0  0
  3  4  1  0  0  0
  4 25  1  0  0  0
 25 26  2  0  0  0
 25 27  2  0  0  0
 25 28  1  0  0  0
 28 29  1  0  0  0
 29 30  1  0  0  0
 30 31  1  0  0  0
 31 32  1  0  0  0
 31 33  1  0  0  0
 33 34  1  0  0  0
  4  5  2  0  0  0
  5  6  1  0  0  0
  6  7  1  0  0  0
  7  8  2  0  0  0
  8  9  1  0  0  0
  9 10  1  0  0  0
 10 11  2  0  0  0
 10 12  1  0  0  0
 12 13  1  0  0  0
 12 14  1  0  0  0
 14 15  2  0  0  0
 14 16  1  0  0  0
 16 20  1  0  0  0
 20 21  1  0  0  0
 21 22  1  0  0  0
 21 23  1  0  0  0
 21 24  1  0  0  0
 16 17  1  0  0  0
 17 18  1  0  0  0
  6  1  2  0  0  0
 18  7  1  0  0  0
 34 28  1  0  0  0
 17  9  2  0  0  0
 18 19  1  0  0  0
M  END
> <minimizedAffinity>
-10.03264

$$$$



 37 40  0  0  0  0  0  0  0  0999 V2000
    3.3017   66.5624   84.3203 C   0  0  0  0  0  0  0  0  0  0  0  0
    4.1198   67.6992   84.2924 C   0  0  0  0  0  0  0  0  0  0  0  0
    3.7394   68.8132   83.5469 C   0  0  0  0  0  0  0  0  0  0  0  0
    2.5336   68.7873   82.8427 C   0  0  0  0  0  0  0  0  0  0  0  0
    1.6928   67.6707   82.9045 C   0  0  0  0  0  0  0  0  0  0  0  0
    2.0658   66.5412   83.6503 C   0  0  0  0  0  0  0  0  0  0  0  0
    1.1500   65.3985   83.6907 C   0  0  0  0  0  0  0  0  0  0  0  0
    0.8244   64.6263   82.6658 N   0  0  0  0  0  0  0  0  0  0  0  0
   -0.0814   63.7172   83.1569 C   0  0  0  0  0  0  0  0  0  0  0  0
   -0.7664   62.6522   82.4619 C   0  0  0  0  0  0  0  0  0  0  0  0
   -0.6019   62.4211   81.2667 O   0  0  0  0  0  0  0  0  0  0  0  0
   -1.6362   61.9253   83.2923 N   0  0  0  0  0  0  0  0  0  0  0  0
   -2.3925   60.8540   82.6743 C   0  0  0  0  0  0  0  0  0  0  0  0
   -1.9267   62.1967   84.6453 C   0  0  0  0  0  0  0  0  0  0  0  0
   -2.8006   61.5680   85.2492 O   0  0  0  0  0  0  0  0  0  0  0  0
   -1.1839   63.2143   85.2793 N   0  0  0  0  0  0  0  0  0  0  0  0
   -0.3133   63.9338   84.4857 C   0  0  0  0  0  0  0  0  0  0  0  0
    0.4675   64.9984   84.8228 N   0  0  0  0  0  0  0  0  0  0  0  0
    0.5551   65.4455   85.7246 H   0  0  0  0  0  0  0  0  0  0  0  0
   -1.4400   63.5053   86.6931 C   0  0  0  0  0  0  0  0  0  0  0  0
   -0.4341   62.8832   87.7048 C   0  0  0  0  0  0  0  0  0  0  0  0
    0.9631   63.5081   87.5717 C   0  0  0  0  0  0  0  0  0  0  0  0
   -0.9574   63.1726   89.1266 C   0  0  0  0  0  0  0  0  0  0  0  0
   -0.3143   61.3602   87.5369 C   0  0  0  0  0  0  0  0  0  0  0  0
    2.0331   70.2232   81.9230 S   0  0  0  0  0  0  0  0  0  0  0  0
    1.2758   71.0665   82.8251 O   0  0  0  0  0  0  0  0  0  0  0  0
    1.4672   69.7931   80.6633 O   0  0  0  0  0  0  0  0  0  0  0  0
    3.5164   71.0027   81.6014 N   0  0  0  0  0  0  0  0  0  0  0  0
    4.1183   70.7029   80.2569 C   0  0  0  0  0  0  0  0  0  0  0  0
    5.1711   71.7594   79.8734 C   0  0  0  0  0  0  0  0  0  0  0  0
    4.5968   73.1097   79.7090 N   0  0  0  0  0  0  0  0  0  0  0  0
    5.6278   74.1327   79.8580 C   0  0  0  0  0  0  0  0  0  0  0  0
    3.4583   73.3296   80.6241 C   0  0  0  0  0  0  0  0  0  0  0  0
    3.4956   72.4753   81.9037 C   0  0  0  0  0  0  0  0  0  0  0  0
    3.7138   65.4863   85.0690 O   0  0  0  0  0  0  0  0  0  0  0  0
    5.2320   65.0427   86.8654 C   0  0  0  0  0  0  0  0  0  0  0  0
    5.0822   65.6419   85.4794 C   0  0  0  0  0  0  0  0  0  0  0  0
 36 37  1  0  0  0
 37 35  1  0  0  0
 35  1  1  0  0  0
  1  2  1  0  0  0
  2  3  2  0  0  0
  3  4  1  0  0  0
  4 25  1  0  0  0
 25 26  2  0  0  0
 25 27  2  0  0  0
 25 28  1  0  0  0
 28 29  1  0  0  0
 29 30  1  0  0  0
 30 31  1  0  0  0
 31 32  1  0  0  0
 31 33  1  0  0  0
 33 34  1  0  0  0
  4  5  2  0  0  0
  5  6  1  0  0  0
  6  7  1  0  0  0
  7  8  2  0  0  0
  8  9  1  0  0  0
  9 10  1  0  0  0
 10 11  2  0  0  0
 10 12  1  0  0  0
 12 13  1  0  0  0
 12 14  1  0  0  0
 14 15  2  0  0  0
 14 16  1  0  0  0
 16 20  1  0  0  0
 20 21  1  0  0  0
 21 22  1  0  0  0
 21 23  1  0  0  0
 21 24  1  0  0  0
 16 17  1  0  0  0
 17 18  1  0  0  0
  6  1  2  0  0  0
 18  7  1  0  0  0
 34 28  1  0  0  0
 17  9  2  0  0  0
 18 19  1  0  0  0
M  END
> <minimizedAffinity>
-10.00865

$$$$



 37 40  0  0  0  0  0  0  0  0999 V2000
    3.5781   67.5185   83.9738 C   0  0  0  0  0  0  0  0  0  0  0  0
    4.2913   68.6183   83.4798 C   0  0  0  0  0  0  0  0  0  0  0  0
    3.7024   69.4677   82.5454 C   0  0  0  0  0  0  0  0  0  0  0  0
    2.3959   69.2181   82.1198 C   0  0  0  0  0  0  0  0  0  0  0  0
    1.6649   68.1466   82.6446 C   0  0  0  0  0  0  0  0  0  0  0  0
    2.2477   67.2823   83.5850 C   0  0  0  0  0  0  0  0  0  0  0  0
    1.4413   66.1782   84.1111 C   0  0  0  0  0  0  0  0  0  0  0  0
    1.4166   65.7633   85.3680 N   0  0  0  0  0  0  0  0  0  0  0  0
    0.5564   64.6919   85.3902 C   0  0  0  0  0  0  0  0  0  0  0  0
    0.1731   63.8584   86.5059 C   0  0  0  0  0  0  0  0  0  0  0  0
    0.6026   64.0280   87.6442 O   0  0  0  0  0  0  0  0  0  0  0  0
   -0.7271   62.8408   86.1471 N   0  0  0  0  0  0  0  0  0  0  0  0
   -1.1451   61.9330   87.1972 C   0  0  0  0  0  0  0  0  0  0  0  0
   -1.1875   62.5481   84.8467 C   0  0  0  0  0  0  0  0  0  0  0  0
   -1.8834   61.5531   84.6249 O   0  0  0  0  0  0  0  0  0  0  0  0
   -0.8199   63.4325   83.8114 N   0  0  0  0  0  0  0  0  0  0  0  0
    0.0540   64.4480   84.1433 C   0  0  0  0  0  0  0  0  0  0  0  0
    0.6146   65.3903   83.3343 N   0  0  0  0  0  0  0  0  0  0  0  0
    0.4789   65.5187   82.3413 H   0  0  0  0  0  0  0  0  0  0  0  0
   -1.3031   63.1746   82.4516 C   0  0  0  0  0  0  0  0  0  0  0  0
   -0.3410   62.3654   81.5338 C   0  0  0  0  0  0  0  0  0  0  0  0
    0.8793   61.8464   82.3096 C   0  0  0  0  0  0  0  0  0  0  0  0
   -1.1198   61.1493   80.9920 C   0  0  0  0  0  0  0  0  0  0  0  0
    0.1486   63.1956   80.3367 C   0  0  0  0  0  0  0  0  0  0  0  0
    1.6343   70.3245   80.9562 S   0  0  0  0  0  0  0  0  0  0  0  0
    0.4163   69.6894   80.4960 O   0  0  0  0  0  0  0  0  0  0  0  0
    2.6376   70.7688   80.0139 O   0  0  0  0  0  0  0  0  0  0  0  0
    1.1937   71.6540   81.9307 N   0  0  0  0  0  0  0  0  0  0  0  0
    2.2243   72.7438   82.0299 C   0  0  0  0  0  0  0  0  0  0  0  0
    1.5939   74.0587   82.5251 C   0  0  0  0  0  0  0  0  0  0  0  0
    0.5928   74.6050   81.5873 N   0  0  0  0  0  0  0  0  0  0  0  0
   -0.3216   75.5112   82.2759 C   0  0  0  0  0  0  0  0  0  0  0  0
   -0.1234   73.5294   80.8719 C   0  0  0  0  0  0  0  0  0  0  0  0
   -0.1779   72.1892   81.6267 C   0  0  0  0  0  0  0  0  0  0  0  0
    4.1957   66.7069   84.8948 O   0  0  0  0  0  0  0  0  0  0  0  0
    5.5184   66.5630   86.8845 C   0  0  0  0  0  0  0  0  0  0  0  0
    5.0376   67.4745   85.7706 C   0  0  0  0  0  0  0  0  0  0  0  0
 36 37  1  0  0  0
 37 35  1  0  0  0
 35  1  1  0  0  0
  1  2  1  0  0  0
  2  3  2  0  0  0
  3  4  1  0  0  0
  4 25  1  0  0  0
 25 26  2  0  0  0
 25 27  2  0  0  0
 25 28  1  0  0  0
 28 29  1  0  0  0
 29 30  1  0  0  0
 30 31  1  0  0  0
 31 32  1  0  0  0
 31 33  1  0  0  0
 33 34  1  0  0  0
  4  5  2  0  0  0
  5  6  1  0  0  0
  6  7  1  0  0  0
  7  8  2  0  0  0
  8  9  1  0  0  0
  9 10  1  0  0  0
 10 11  2  0  0  0
 10 12  1  0  0  0
 12 13  1  0  0  0
 12 14  1  0  0  0
 14 15  2  0  0  0
 14 16  1  0  0  0
 16 20  1  0  0  0
 20 21  1  0  0  0
 21 22  1  0  0  0
 21 23  1  0  0  0
 21 24  1  0  0  0
 16 17  1  0  0  0
 17 18  1  0  0  0
  6  1  2  0  0  0
 18  7  1  0  0  0
 34 28  1  0  0  0
 17  9  2  0  0  0
 18 19  1  0  0  0
M  END
> <minimizedAffinity>
-9.95271

$$$$



 37 40  0  0  0  0  0  0  0  0999 V2000
    3.5582   66.5972   84.4837 C   0  0  0  0  0  0  0  0  0  0  0  0
    4.4536   67.6264   84.1653 C   0  0  0  0  0  0  0  0  0  0  0  0
    4.0254   68.7112   83.4030 C   0  0  0  0  0  0  0  0  0  0  0  0
    2.6975   68.7659   82.9739 C   0  0  0  0  0  0  0  0  0  0  0  0
    1.7893   67.7621   83.3280 C   0  0  0  0  0  0  0  0  0  0  0  0
    2.2089   66.6627   84.0939 C   0  0  0  0  0  0  0  0  0  0  0  0
    1.2208   65.6400   84.4455 C   0  0  0  0  0  0  0  0  0  0  0  0
    0.9591   65.1986   85.6659 N   0  0  0  0  0  0  0  0  0  0  0  0
   -0.0005   64.2269   85.5131 C   0  0  0  0  0  0  0  0  0  0  0  0
   -0.6361   63.4121   86.5224 C   0  0  0  0  0  0  0  0  0  0  0  0
   -0.3726   63.5051   87.7186 O   0  0  0  0  0  0  0  0  0  0  0  0
   -1.5705   62.5079   85.9896 N   0  0  0  0  0  0  0  0  0  0  0  0
   -2.2377   61.6247   86.9257 C   0  0  0  0  0  0  0  0  0  0  0  0
   -1.8519   62.3000   84.6235 C   0  0  0  0  0  0  0  0  0  0  0  0
   -2.6044   61.3924   84.2578 O   0  0  0  0  0  0  0  0  0  0  0  0
   -1.2389   63.1650   83.6934 N   0  0  0  0  0  0  0  0  0  0  0  0
   -0.3264   64.0707   84.1956 C   0  0  0  0  0  0  0  0  0  0  0  0
    0.4472   64.9665   83.5206 N   0  0  0  0  0  0  0  0  0  0  0  0
    0.4808   65.1340   82.5247 H   0  0  0  0  0  0  0  0  0  0  0  0
   -1.5299   62.9956   82.2666 C   0  0  0  0  0  0  0  0  0  0  0  0
   -0.4952   62.1585   81.4598 C   0  0  0  0  0  0  0  0  0  0  0  0
    0.5833   61.5569   82.3738 C   0  0  0  0  0  0  0  0  0  0  0  0
   -1.2539   60.9987   80.7827 C   0  0  0  0  0  0  0  0  0  0  0  0
    0.1906   62.9896   80.3639 C   0  0  0  0  0  0  0  0  0  0  0  0
    2.1448   70.1688   82.0335 S   0  0  0  0  0  0  0  0  0  0  0  0
    1.4065   71.0262   82.9380 O   0  0  0  0  0  0  0  0  0  0  0  0
    1.5425   69.6963   80.8063 O   0  0  0  0  0  0  0  0  0  0  0  0
    3.6046   70.9594   81.6397 N   0  0  0  0  0  0  0  0  0  0  0  0
    4.1402   70.6670   80.2659 C   0  0  0  0  0  0  0  0  0  0  0  0
    5.1650   71.7317   79.8327 C   0  0  0  0  0  0  0  0  0  0  0  0
    4.5739   73.0783   79.7010 N   0  0  0  0  0  0  0  0  0  0  0  0
    5.6040   74.1081   79.8007 C   0  0  0  0  0  0  0  0  0  0  0  0
    3.4814   73.2881   80.6728 C   0  0  0  0  0  0  0  0  0  0  0  0
    3.5889   72.4311   81.9466 C   0  0  0  0  0  0  0  0  0  0  0  0
    4.0213   65.5465   85.2386 O   0  0  0  0  0  0  0  0  0  0  0  0
    5.7852   65.3225   86.8410 C   0  0  0  0  0  0  0  0  0  0  0  0
    5.4487   65.6151   85.3905 C   0  0  0  0  0  0  0  0  0  0  0  0
 36 37  1  0  0  0
 37 35  1  0  0  0
 35  1  1  0  0  0
  1  2  1  0  0  0
  2  3  2  0  0  0
  3  4  1  0  0  0
  4 25  1  0  0  0
 25 26  2  0  0  0
 25 27  2  0  0  0
 25 28  1  0  0  0
 28 29  1  0  0  0
 29 30  1  0  0  0
 30 31  1  0  0  0
 31 32  1  0  0  0
 31 33  1  0  0  0
 33 34  1  0  0  0
  4  5  2  0  0  0
  5  6  1  0  0  0
  6  7  1  0  0  0
  7  8  2  0  0  0
  8  9  1  0  0  0
  9 10  1  0  0  0
 10 11  2  0  0  0
 10 12  1  0  0  0
 12 13  1  0  0  0
 12 14  1  0  0  0
 14 15  2  0  0  0
 14 16  1  0  0  0
 16 20  1  0  0  0
 20 21  1  0  0  0
 21 22  1  0  0  0
 21 23  1  0  0  0
 21 24  1  0  0  0
 16 17  1  0  0  0
 17 18  1  0  0  0
  6  1  2  0  0  0
 18  7  1  0  0  0
 34 28  1  0  0  0
 17  9  2  0  0  0
 18 19  1  0  0  0
M  END
> <minimizedAffinity>
-9.84432

$$$$



 37 40  0  0  0  0  0  0  0  0999 V2000
    1.2653   66.0135   83.0790 C   0  0  0  0  0  0  0  0  0  0  0  0
    1.7391   67.0673   83.8710 C   0  0  0  0  0  0  0  0  0  0  0  0
    2.2424   68.2190   83.2696 C   0  0  0  0  0  0  0  0  0  0  0  0
    2.2566   68.3145   81.8764 C   0  0  0  0  0  0  0  0  0  0  0  0
    1.7429   67.2826   81.0833 C   0  0  0  0  0  0  0  0  0  0  0  0
    1.2350   66.1161   81.6770 C   0  0  0  0  0  0  0  0  0  0  0  0
    0.7019   65.0657   80.8063 C   0  0  0  0  0  0  0  0  0  0  0  0
    0.5229   65.1567   79.4977 N   0  0  0  0  0  0  0  0  0  0  0  0
   -0.0273   63.9579   79.1123 C   0  0  0  0  0  0  0  0  0  0  0  0
   -0.4319   63.5268   77.7944 C   0  0  0  0  0  0  0  0  0  0  0  0
   -0.3189   64.2344   76.7966 O   0  0  0  0  0  0  0  0  0  0  0  0
   -0.9696   62.2286   77.7826 N   0  0  0  0  0  0  0  0  0  0  0  0
   -1.4331   61.7210   76.5062 C   0  0  0  0  0  0  0  0  0  0  0  0
   -1.1996   61.4056   78.9043 C   0  0  0  0  0  0  0  0  0  0  0  0
   -1.7910   60.3277   78.7947 O   0  0  0  0  0  0  0  0  0  0  0  0
   -0.7319   61.8624   80.1540 N   0  0  0  0  0  0  0  0  0  0  0  0
   -0.1878   63.1306   80.1875 C   0  0  0  0  0  0  0  0  0  0  0  0
    0.2749   63.8329   81.2596 N   0  0  0  0  0  0  0  0  0  0  0  0
    0.3112   63.5412   82.2263 H   0  0  0  0  0  0  0  0  0  0  0  0
   -0.9292   61.0204   81.3376 C   0  0  0  0  0  0  0  0  0  0  0  0
   -2.2225   61.2985   82.1578 C   0  0  0  0  0  0  0  0  0  0  0  0
   -3.1832   62.2297   81.4026 C   0  0  0  0  0  0  0  0  0  0  0  0
   -2.9364   59.9497   82.3820 C   0  0  0  0  0  0  0  0  0  0  0  0
   -1.9133   61.9135   83.5319 C   0  0  0  0  0  0  0  0  0  0  0  0
    2.8645   69.7997   81.1130 S   0  0  0  0  0  0  0  0  0  0  0  0
    2.3529   69.8245   79.7579 O   0  0  0  0  0  0  0  0  0  0  0  0
    4.2842   69.9050   81.3690 O   0  0  0  0  0  0  0  0  0  0  0  0
    2.0726   71.0288   81.9925 N   0  0  0  0  0  0  0  0  0  0  0  0
    2.9808   72.0080   82.6827 C   0  0  0  0  0  0  0  0  0  0  0  0
    2.2256   73.2985   83.0515 C   0  0  0  0  0  0  0  0  0  0  0  0
    1.7422   74.0393   81.8693 N   0  0  0  0  0  0  0  0  0  0  0  0
    0.6388   74.9252   82.2288 C   0  0  0  0  0  0  0  0  0  0  0  0
    1.3849   73.1251   80.7655 C   0  0  0  0  0  0  0  0  0  0  0  0
    0.9803   71.7102   81.2162 C   0  0  0  0  0  0  0  0  0  0  0  0
    0.7764   64.8964   83.7125 O   0  0  0  0  0  0  0  0  0  0  0  0
    0.1390   63.8836   85.7854 C   0  0  0  0  0  0  0  0  0  0  0  0
    0.9202   65.0118   85.1377 C   0  0  0  0  0  0  0  0  0  0  0  0
 36 37  1  0  0  0
 37 35  1  0  0  0
 35  1  1  0  0  0
  1  2  1  0  0  0
  2  3  2  0  0  0
  3  4  1  0  0  0
  4 25  1  0  0  0
 25 26  2  0  0  0
 25 27  2  0  0  0
 25 28  1  0  0  0
 28 29  1  0  0  0
 29 30  1  0  0  0
 30 31  1  0  0  0
 31 32  1  0  0  0
 31 33  1  0  0  0
 33 34  1  0  0  0
  4  5  2  0  0  0
  5  6  1  0  0  0
  6  7  1  0  0  0
  7  8  2  0  0  0
  8  9  1  0  0  0
  9 10  1  0  0  0
 10 11  2  0  0  0
 10 12  1  0  0  0
 12 13  1  0  0  0
 12 14  1  0  0  0
 14 15  2  0  0  0
 14 16  1  0  0  0
 16 20  1  0  0  0
 20 21  1  0  0  0
 21 22  1  0  0  0
 21 23  1  0  0  0
 21 24  1  0  0  0
 16 17  1  0  0  0
 17 18  1  0  0  0
  6  1  2  0  0  0
 18  7  1  0  0  0
 34 28  1  0  0  0
 17  9  2  0  0  0
 18 19  1  0  0  0
M  END
> <minimizedAffinity>
-9.79375

$$$$
