
     RDKit          3D

 50 51  0  0  0  0  0  0  0  0999 V2000
   -3.1666   -2.8030   -0.6304 C   0  0  0  0  0  0  0  0  0  0  0  0
   -3.4755   -1.5557   -1.4450 C   0  0  0  0  0  0  0  0  0  0  0  0
   -3.4787   -0.3079   -0.5897 C   0  0  0  0  0  0  0  0  0  0  0  0
   -4.7011    0.1649   -0.0816 C   0  0  0  0  0  0  0  0  0  0  0  0
   -4.7596    1.3099    0.7257 C   0  0  0  0  0  0  0  0  0  0  0  0
   -6.1062    1.7356    1.2057 C   0  0  0  0  0  0  0  0  0  0  0  0
   -6.3575    3.1787    1.5529 C   0  0  0  0  0  0  0  0  0  0  0  0
   -7.0061    0.8995    1.2927 O   0  0  0  0  0  0  0  0  0  0  0  0
   -3.5691    1.9665    1.0474 C   0  0  0  0  0  0  0  0  0  0  0  0
   -3.5760    3.0545    1.8760 O   0  0  0  0  0  0  0  0  0  0  0  0
   -2.3426    1.5046    0.5515 C   0  0  0  0  0  0  0  0  0  0  0  0
   -2.2904    0.3712   -0.2679 C   0  0  0  0  0  0  0  0  0  0  0  0
   -1.1448   -0.1611   -0.7962 O   0  0  0  0  0  0  0  0  0  0  0  0
    0.0895    0.5089   -0.5406 C   0  0  0  0  0  0  0  0  0  0  0  0
    1.2196   -0.2169   -1.2398 C   0  0  0  0  0  0  0  0  0  0  0  0
    1.0964   -0.5920   -2.5791 C   0  0  0  0  0  0  0  0  0  0  0  0
    2.1601   -1.2340   -3.2090 C   0  0  0  0  0  0  0  0  0  0  0  0
    3.3246   -1.4836   -2.4938 C   0  0  0  0  0  0  0  0  0  0  0  0
    3.3750   -1.0754   -1.1688 C   0  0  0  0  0  0  0  0  0  0  0  0
    4.6149   -1.3184   -0.3609 C   0  0  0  0  0  0  0  0  0  0  0  0
    5.6242   -1.8026   -0.8588 O   0  0  0  0  0  0  0  0  0  0  0  0
    4.5164   -0.9324    0.9606 N   0  0  0  0  0  0  0  0  0  0  0  0
    5.7001   -0.8079    1.8037 C   0  0  2  0  0  0  0  0  0  0  0  0
    5.3375   -1.1133    3.2503 C   0  0  0  0  0  0  0  0  0  0  0  0
    6.3193    0.5922    1.7264 C   0  0  0  0  0  0  0  0  0  0  0  0
    7.3513    0.9507    2.2749 O   0  0  0  0  0  0  0  0  0  0  0  0
    5.5937    1.4894    1.0227 O   0  0  0  0  0  0  0  0  0  0  0  0
    2.3529   -0.4383   -0.5257 N   0  0  0  0  0  0  0  0  0  0  0  0
   -2.1770   -2.7436   -0.1654 H   0  0  0  0  0  0  0  0  0  0  0  0
   -3.9036   -2.9474    0.1670 H   0  0  0  0  0  0  0  0  0  0  0  0
   -3.1849   -3.6884   -1.2737 H   0  0  0  0  0  0  0  0  0  0  0  0
   -2.7517   -1.4495   -2.2619 H   0  0  0  0  0  0  0  0  0  0  0  0
   -4.4518   -1.6727   -1.9319 H   0  0  0  0  0  0  0  0  0  0  0  0
   -5.6224   -0.3674   -0.3191 H   0  0  0  0  0  0  0  0  0  0  0  0
   -5.8183    3.8457    0.8752 H   0  0  0  0  0  0  0  0  0  0  0  0
   -7.4242    3.3910    1.4284 H   0  0  0  0  0  0  0  0  0  0  0  0
   -6.0799    3.3678    2.5924 H   0  0  0  0  0  0  0  0  0  0  0  0
   -2.6646    3.3301    2.0710 H   0  0  0  0  0  0  0  0  0  0  0  0
   -1.4373    2.0357    0.8217 H   0  0  0  0  0  0  0  0  0  0  0  0
    0.2903    0.5193    0.5375 H   0  0  0  0  0  0  0  0  0  0  0  0
    0.0570    1.5353   -0.9257 H   0  0  0  0  0  0  0  0  0  0  0  0
    0.1788   -0.3939   -3.1266 H   0  0  0  0  0  0  0  0  0  0  0  0
    2.0794   -1.5389   -4.2490 H   0  0  0  0  0  0  0  0  0  0  0  0
    4.1699   -1.9833   -2.9558 H   0  0  0  0  0  0  0  0  0  0  0  0
    3.7150   -0.3382    1.1582 H   0  0  0  0  0  0  0  0  0  0  0  0
    6.4587   -1.5140    1.4482 H   0  0  0  0  0  0  0  0  0  0  0  0
    4.5965   -0.4016    3.6323 H   0  0  0  0  0  0  0  0  0  0  0  0
    4.9126   -2.1186    3.3420 H   0  0  0  0  0  0  0  0  0  0  0  0
    6.2182   -1.0546    3.8987 H   0  0  0  0  0  0  0  0  0  0  0  0
    6.1382    2.3032    1.0585 H   0  0  0  0  0  0  0  0  0  0  0  0
  1  2  1  0
  2  3  1  0
  3  4  1  0
  4  5  2  0
  5  6  1  0
  6  7  1  0
  6  8  2  0
  5  9  1  0
  9 10  1  0
  9 11  2  0
 11 12  1  0
 12 13  1  0
 13 14  1  0
 14 15  1  0
 15 16  2  0
 16 17  1  0
 17 18  2  0
 18 19  1  0
 19 20  1  0
 20 21  2  0
 20 22  1  0
 22 23  1  0
 23 24  1  0
 23 25  1  0
 25 26  2  0
 25 27  1  0
 19 28  2  0
 12  3  2  0
 28 15  1  0
  1 29  1  0
  1 30  1  0
  1 31  1  0
  2 32  1  0
  2 33  1  0
  4 34  1  0
  7 35  1  0
  7 36  1  0
  7 37  1  0
 10 38  1  0
 11 39  1  0
 14 40  1  0
 14 41  1  0
 16 42  1  0
 17 43  1  0
 18 44  1  0
 22 45  1  0
 23 46  1  6
 24 47  1  0
 24 48  1  0
 24 49  1  0
 27 50  1  0
M  END
$$$$
