


 32 36  0  0  0  0  0  0  0  0999 V2000
    1.1681   65.4028   83.5029 C   0  0  0  0  0  0  0  0  0  0  0  0
    2.4679   65.8525   83.6217 N   0  0  0  0  0  0  0  0  0  0  0  0
    2.9810   65.5582   84.8702 C   0  0  0  0  0  0  0  0  0  0  0  0
    1.9881   64.8912   85.5658 C   0  0  0  0  0  0  0  0  0  0  0  0
    1.9451   64.3139   86.8924 C   0  0  0  0  0  0  0  0  0  0  0  0
    2.8781   64.2747   87.6841 O   0  0  0  0  0  0  0  0  0  0  0  0
    0.6243   63.7133   87.2400 C   0  0  0  0  0  0  0  0  0  0  0  0
    0.4271   63.1458   88.5039 C   0  0  0  0  0  0  0  0  0  0  0  0
   -0.8084   62.5806   88.8263 C   0  0  0  0  0  0  0  0  0  0  0  0
   -1.8458   62.5796   87.8910 C   0  0  0  0  0  0  0  0  0  0  0  0
   -1.6549   63.1430   86.6277 C   0  0  0  0  0  0  0  0  0  0  0  0
   -0.4228   63.7099   86.3000 C   0  0  0  0  0  0  0  0  0  0  0  0
   -0.3060   64.2464   85.0320 O   0  0  0  0  0  0  0  0  0  0  0  0
    0.8715   64.8157   84.7073 C   0  0  0  0  0  0  0  0  0  0  0  0
    2.9745   66.3427   82.8954 H   0  0  0  0  0  0  0  0  0  0  0  0
    4.3049   65.9502   85.2473 C   0  0  0  0  0  0  0  0  0  0  0  0
    5.4317   65.1595   85.4192 C   0  0  0  0  0  0  0  0  0  0  0  0
    6.4988   66.0181   85.7814 C   0  0  0  0  0  0  0  0  0  0  0  0
    5.9701   67.2839   85.8049 C   0  0  0  0  0  0  0  0  0  0  0  0
    4.6560   67.2527   85.4770 O   0  0  0  0  0  0  0  0  0  0  0  0
    0.3379   65.5886   82.2743 C   0  0  0  0  0  0  0  0  0  0  0  0
   -1.4513   61.9283   80.8586 C   0  0  0  0  0  0  0  0  0  0  0  0
   -0.0805   62.1296   80.7174 C   0  0  0  0  0  0  0  0  0  0  0  0
    0.4974   63.3231   81.1540 C   0  0  0  0  0  0  0  0  0  0  0  0
   -0.2909   64.3127   81.7594 C   0  0  0  0  0  0  0  0  0  0  0  0
   -1.6629   64.0777   81.9357 C   0  0  0  0  0  0  0  0  0  0  0  0
   -2.2371   62.8828   81.4989 C   0  0  0  0  0  0  0  0  0  0  0  0
   -1.9985   60.7322   80.4938 O   0  0  0  0  0  0  0  0  0  0  0  0
   -1.3566   59.9112   78.2399 C   0  0  0  0  0  0  0  0  0  0  0  0
   -2.4144   60.6006   79.1143 C   0  0  0  0  0  0  0  0  0  0  0  0
   -2.8391   61.9407   78.4965 C   0  0  0  0  0  0  0  0  0  0  0  0
   -3.6521   59.6886   79.1764 C   0  0  0  0  0  0  0  0  0  0  0  0
 29 30  1  0  0  0
 30 31  1  0  0  0
 30 32  1  0  0  0
 30 28  1  0  0  0
 28 22  1  0  0  0
 22 23  1  0  0  0
 23 24  2  0  0  0
 24 25  1  0  0  0
 25 21  1  0  0  0
 21  1  1  0  0  0
  1  2  1  0  0  0
  2  3  1  0  0  0
  3 16  1  0  0  0
 16 17  2  0  0  0
 17 18  1  0  0  0
 18 19  2  0  0  0
 19 20  1  0  0  0
  3  4  2  0  0  0
  4  5  1  0  0  0
  5  6  2  0  0  0
  5  7  1  0  0  0
  7  8  2  0  0  0
  8  9  1  0  0  0
  9 10  2  0  0  0
 10 11  1  0  0  0
 11 12  2  0  0  0
 12 13  1  0  0  0
 13 14  1  0  0  0
 25 26  2  0  0  0
 26 27  1  0  0  0
 27 22  2  0  0  0
 14  1  2  0  0  0
 20 16  1  0  0  0
 14  4  1  0  0  0
 12  7  1  0  0  0
  2 15  1  0  0  0
M  END
> <minimizedAffinity>
-10.39750

$$$$



 32 36  0  0  0  0  0  0  0  0999 V2000
    0.1865   64.6859   80.1894 C   0  0  0  0  0  0  0  0  0  0  0  0
   -0.5911   63.7887   79.4852 N   0  0  0  0  0  0  0  0  0  0  0  0
   -1.2318   62.9122   80.3396 C   0  0  0  0  0  0  0  0  0  0  0  0
   -0.8648   63.2647   81.6263 C   0  0  0  0  0  0  0  0  0  0  0  0
   -1.2323   62.7404   82.9244 C   0  0  0  0  0  0  0  0  0  0  0  0
   -2.0372   61.8409   83.1288 O   0  0  0  0  0  0  0  0  0  0  0  0
   -0.5481   63.4241   84.0604 C   0  0  0  0  0  0  0  0  0  0  0  0
   -0.7837   63.0005   85.3733 C   0  0  0  0  0  0  0  0  0  0  0  0
   -0.1455   63.6440   86.4356 C   0  0  0  0  0  0  0  0  0  0  0  0
    0.7252   64.7084   86.1911 C   0  0  0  0  0  0  0  0  0  0  0  0
    0.9633   65.1367   84.8835 C   0  0  0  0  0  0  0  0  0  0  0  0
    0.3291   64.4973   83.8178 C   0  0  0  0  0  0  0  0  0  0  0  0
    0.6106   64.9761   82.5526 O   0  0  0  0  0  0  0  0  0  0  0  0
    0.0215   64.3560   81.5112 C   0  0  0  0  0  0  0  0  0  0  0  0
   -0.6729   63.7677   78.4766 H   0  0  0  0  0  0  0  0  0  0  0  0
   -2.0743   61.8659   79.8456 C   0  0  0  0  0  0  0  0  0  0  0  0
   -3.4596   61.8155   79.7917 C   0  0  0  0  0  0  0  0  0  0  0  0
   -3.8145   60.5753   79.2060 C   0  0  0  0  0  0  0  0  0  0  0  0
   -2.6308   59.9394   78.9285 C   0  0  0  0  0  0  0  0  0  0  0  0
   -1.5817   60.7111   79.3013 O   0  0  0  0  0  0  0  0  0  0  0  0
    1.0155   65.7477   79.5423 C   0  0  0  0  0  0  0  0  0  0  0  0
    1.1531   69.4159   81.8068 C   0  0  0  0  0  0  0  0  0  0  0  0
    0.0024   69.0826   81.0965 C   0  0  0  0  0  0  0  0  0  0  0  0
   -0.0364   67.9072   80.3442 C   0  0  0  0  0  0  0  0  0  0  0  0
    1.0689   67.0441   80.3200 C   0  0  0  0  0  0  0  0  0  0  0  0
    2.2049   67.3703   81.0763 C   0  0  0  0  0  0  0  0  0  0  0  0
    2.2398   68.5458   81.8280 C   0  0  0  0  0  0  0  0  0  0  0  0
    1.1599   70.5300   82.5954 O   0  0  0  0  0  0  0  0  0  0  0  0
    0.0684   72.5288   81.6056 C   0  0  0  0  0  0  0  0  0  0  0  0
    1.3786   71.7964   81.9308 C   0  0  0  0  0  0  0  0  0  0  0  0
    2.2498   71.6593   80.6738 C   0  0  0  0  0  0  0  0  0  0  0  0
    2.1535   72.6367   82.9607 C   0  0  0  0  0  0  0  0  0  0  0  0
 29 30  1  0  0  0
 30 31  1  0  0  0
 30 32  1  0  0  0
 30 28  1  0  0  0
 28 22  1  0  0  0
 22 23  1  0  0  0
 23 24  2  0  0  0
 24 25  1  0  0  0
 25 21  1  0  0  0
 21  1  1  0  0  0
  1  2  1  0  0  0
  2  3  1  0  0  0
  3 16  1  0  0  0
 16 17  2  0  0  0
 17 18  1  0  0  0
 18 19  2  0  0  0
 19 20  1  0  0  0
  3  4  2  0  0  0
  4  5  1  0  0  0
  5  6  2  0  0  0
  5  7  1  0  0  0
  7  8  2  0  0  0
  8  9  1  0  0  0
  9 10  2  0  0  0
 10 11  1  0  0  0
 11 12  2  0  0  0
 12 13  1  0  0  0
 13 14  1  0  0  0
 25 26  2  0  0  0
 26 27  1  0  0  0
 27 22  2  0  0  0
 14  1  2  0  0  0
 20 16  1  0  0  0
 14  4  1  0  0  0
 12  7  1  0  0  0
  2 15  1  0  0  0
M  END
> <minimizedAffinity>
-10.32496

$$$$



 32 36  0  0  0  0  0  0  0  0999 V2000
    0.3609   65.1735   82.5457 C   0  0  0  0  0  0  0  0  0  0  0  0
    1.5537   65.8249   82.7876 N   0  0  0  0  0  0  0  0  0  0  0  0
    1.9659   65.6342   84.0923 C   0  0  0  0  0  0  0  0  0  0  0  0
    1.0186   64.8289   84.6995 C   0  0  0  0  0  0  0  0  0  0  0  0
    0.9202   64.2719   86.0318 C   0  0  0  0  0  0  0  0  0  0  0  0
    1.7551   64.3927   86.9191 O   0  0  0  0  0  0  0  0  0  0  0  0
   -0.3211   63.4751   86.2561 C   0  0  0  0  0  0  0  0  0  0  0  0
   -0.5653   62.9024   87.5094 C   0  0  0  0  0  0  0  0  0  0  0  0
   -1.7256   62.1537   87.7166 C   0  0  0  0  0  0  0  0  0  0  0  0
   -2.6409   61.9745   86.6768 C   0  0  0  0  0  0  0  0  0  0  0  0
   -2.4023   62.5422   85.4236 C   0  0  0  0  0  0  0  0  0  0  0  0
   -1.2450   63.2920   85.2107 C   0  0  0  0  0  0  0  0  0  0  0  0
   -1.0743   63.8213   83.9457 O   0  0  0  0  0  0  0  0  0  0  0  0
    0.0286   64.5649   83.7300 C   0  0  0  0  0  0  0  0  0  0  0  0
    2.0546   66.3782   82.1040 H   0  0  0  0  0  0  0  0  0  0  0  0
    3.1630   66.2364   84.5953 C   0  0  0  0  0  0  0  0  0  0  0  0
    4.3188   65.6235   85.0567 C   0  0  0  0  0  0  0  0  0  0  0  0
    5.2199   66.6501   85.4326 C   0  0  0  0  0  0  0  0  0  0  0  0
    4.5710   67.8313   85.1754 C   0  0  0  0  0  0  0  0  0  0  0  0
    3.3393   67.5917   84.6645 O   0  0  0  0  0  0  0  0  0  0  0  0
   -0.3478   65.2072   81.2306 C   0  0  0  0  0  0  0  0  0  0  0  0
   -0.7185   61.3758   79.2849 C   0  0  0  0  0  0  0  0  0  0  0  0
   -1.7571   61.8522   80.0811 C   0  0  0  0  0  0  0  0  0  0  0  0
   -1.6302   63.0815   80.7304 C   0  0  0  0  0  0  0  0  0  0  0  0
   -0.4715   63.8544   80.5649 C   0  0  0  0  0  0  0  0  0  0  0  0
    0.5479   63.3827   79.7241 C   0  0  0  0  0  0  0  0  0  0  0  0
    0.4171   62.1536   79.0757 C   0  0  0  0  0  0  0  0  0  0  0  0
   -0.8770   60.2070   78.5977 O   0  0  0  0  0  0  0  0  0  0  0  0
   -1.1957   61.5312   76.5214 C   0  0  0  0  0  0  0  0  0  0  0  0
   -1.5770   60.2850   77.3340 C   0  0  0  0  0  0  0  0  0  0  0  0
   -3.1009   60.1897   77.4978 C   0  0  0  0  0  0  0  0  0  0  0  0
   -1.1006   59.0442   76.5589 C   0  0  0  0  0  0  0  0  0  0  0  0
 29 30  1  0  0  0
 30 31  1  0  0  0
 30 32  1  0  0  0
 30 28  1  0  0  0
 28 22  1  0  0  0
 22 23  1  0  0  0
 23 24  2  0  0  0
 24 25  1  0  0  0
 25 21  1  0  0  0
 21  1  1  0  0  0
  1  2  1  0  0  0
  2  3  1  0  0  0
  3 16  1  0  0  0
 16 17  2  0  0  0
 17 18  1  0  0  0
 18 19  2  0  0  0
 19 20  1  0  0  0
  3  4  2  0  0  0
  4  5  1  0  0  0
  5  6  2  0  0  0
  5  7  1  0  0  0
  7  8  2  0  0  0
  8  9  1  0  0  0
  9 10  2  0  0  0
 10 11  1  0  0  0
 11 12  2  0  0  0
 12 13  1  0  0  0
 13 14  1  0  0  0
 25 26  2  0  0  0
 26 27  1  0  0  0
 27 22  2  0  0  0
 14  1  2  0  0  0
 20 16  1  0  0  0
 14  4  1  0  0  0
 12  7  1  0  0  0
  2 15  1  0  0  0
M  END
> <minimizedAffinity>
-10.25950

$$$$



 32 36  0  0  0  0  0  0  0  0999 V2000
    1.0052   65.1375   83.9658 C   0  0  0  0  0  0  0  0  0  0  0  0
    0.4505   65.9913   83.0337 N   0  0  0  0  0  0  0  0  0  0  0  0
    1.2941   67.0535   82.7718 C   0  0  0  0  0  0  0  0  0  0  0  0
    2.4252   66.8691   83.5473 C   0  0  0  0  0  0  0  0  0  0  0  0
    3.6520   67.6257   83.6796 C   0  0  0  0  0  0  0  0  0  0  0  0
    3.9457   68.6265   83.0385 O   0  0  0  0  0  0  0  0  0  0  0  0
    4.5981   67.0588   84.6844 C   0  0  0  0  0  0  0  0  0  0  0  0
    5.8128   67.7048   84.9407 C   0  0  0  0  0  0  0  0  0  0  0  0
    6.6988   67.1709   85.8786 C   0  0  0  0  0  0  0  0  0  0  0  0
    6.3762   65.9949   86.5597 C   0  0  0  0  0  0  0  0  0  0  0  0
    5.1664   65.3449   86.3075 C   0  0  0  0  0  0  0  0  0  0  0  0
    4.2766   65.8739   85.3719 C   0  0  0  0  0  0  0  0  0  0  0  0
    3.1006   65.1763   85.1727 O   0  0  0  0  0  0  0  0  0  0  0  0
    2.2218   65.6854   84.2869 C   0  0  0  0  0  0  0  0  0  0  0  0
   -0.4582   65.8632   82.6068 H   0  0  0  0  0  0  0  0  0  0  0  0
    0.9282   68.0934   81.8590 C   0  0  0  0  0  0  0  0  0  0  0  0
    0.4766   67.9858   80.5518 C   0  0  0  0  0  0  0  0  0  0  0  0
    0.2374   69.2994   80.0781 C   0  0  0  0  0  0  0  0  0  0  0  0
    0.5484   70.1360   81.1201 C   0  0  0  0  0  0  0  0  0  0  0  0
    0.9554   69.4196   82.1954 O   0  0  0  0  0  0  0  0  0  0  0  0
    0.3240   63.9057   84.4676 C   0  0  0  0  0  0  0  0  0  0  0  0
   -1.4381   61.4426   81.3967 C   0  0  0  0  0  0  0  0  0  0  0  0
   -0.0620   61.4078   81.6085 C   0  0  0  0  0  0  0  0  0  0  0  0
    0.5135   62.2212   82.5863 C   0  0  0  0  0  0  0  0  0  0  0  0
   -0.2898   63.0559   83.3770 C   0  0  0  0  0  0  0  0  0  0  0  0
   -1.6794   63.0474   83.1830 C   0  0  0  0  0  0  0  0  0  0  0  0
   -2.2515   62.2321   82.2051 C   0  0  0  0  0  0  0  0  0  0  0  0
   -2.0023   60.5946   80.4880 O   0  0  0  0  0  0  0  0  0  0  0  0
   -1.5232   62.3439   78.7920 C   0  0  0  0  0  0  0  0  0  0  0  0
   -2.4160   61.1727   79.2279 C   0  0  0  0  0  0  0  0  0  0  0  0
   -3.8943   61.5881   79.2272 C   0  0  0  0  0  0  0  0  0  0  0  0
   -2.2391   60.0319   78.2106 C   0  0  0  0  0  0  0  0  0  0  0  0
 29 30  1  0  0  0
 30 31  1  0  0  0
 30 32  1  0  0  0
 30 28  1  0  0  0
 28 22  1  0  0  0
 22 23  1  0  0  0
 23 24  2  0  0  0
 24 25  1  0  0  0
 25 21  1  0  0  0
 21  1  1  0  0  0
  1  2  1  0  0  0
  2  3  1  0  0  0
  3 16  1  0  0  0
 16 17  2  0  0  0
 17 18  1  0  0  0
 18 19  2  0  0  0
 19 20  1  0  0  0
  3  4  2  0  0  0
  4  5  1  0  0  0
  5  6  2  0  0  0
  5  7  1  0  0  0
  7  8  2  0  0  0
  8  9  1  0  0  0
  9 10  2  0  0  0
 10 11  1  0  0  0
 11 12  2  0  0  0
 12 13  1  0  0  0
 13 14  1  0  0  0
 25 26  2  0  0  0
 26 27  1  0  0  0
 27 22  2  0  0  0
 14  1  2  0  0  0
 20 16  1  0  0  0
 14  4  1  0  0  0
 12  7  1  0  0  0
  2 15  1  0  0  0
M  END
> <minimizedAffinity>
-10.23826

$$$$



 32 36  0  0  0  0  0  0  0  0999 V2000
   -0.6837   64.2021   82.2147 C   0  0  0  0  0  0  0  0  0  0  0  0
   -0.7503   64.0204   83.5815 N   0  0  0  0  0  0  0  0  0  0  0  0
   -1.4524   62.8725   83.8944 C   0  0  0  0  0  0  0  0  0  0  0  0
   -1.8355   62.2964   82.6960 C   0  0  0  0  0  0  0  0  0  0  0  0
   -2.5587   61.0821   82.3839 C   0  0  0  0  0  0  0  0  0  0  0  0
   -2.9552   60.2584   83.1982 O   0  0  0  0  0  0  0  0  0  0  0  0
   -2.7776   60.8761   80.9224 C   0  0  0  0  0  0  0  0  0  0  0  0
   -3.4909   59.7583   80.4748 C   0  0  0  0  0  0  0  0  0  0  0  0
   -3.6915   59.5649   79.1066 C   0  0  0  0  0  0  0  0  0  0  0  0
   -3.1817   60.4826   78.1853 C   0  0  0  0  0  0  0  0  0  0  0  0
   -2.4679   61.5991   78.6255 C   0  0  0  0  0  0  0  0  0  0  0  0
   -2.2648   61.7982   79.9915 C   0  0  0  0  0  0  0  0  0  0  0  0
   -1.5480   62.9228   80.3533 O   0  0  0  0  0  0  0  0  0  0  0  0
   -1.3607   63.1398   81.6700 C   0  0  0  0  0  0  0  0  0  0  0  0
   -0.3483   64.6498   84.2647 H   0  0  0  0  0  0  0  0  0  0  0  0
   -1.6842   62.4828   85.2520 C   0  0  0  0  0  0  0  0  0  0  0  0
   -2.8206   62.6607   86.0273 C   0  0  0  0  0  0  0  0  0  0  0  0
   -2.5589   62.0902   87.2974 C   0  0  0  0  0  0  0  0  0  0  0  0
   -1.2832   61.5901   87.2281 C   0  0  0  0  0  0  0  0  0  0  0  0
   -0.7545   61.8139   86.0010 O   0  0  0  0  0  0  0  0  0  0  0  0
   -0.0045   65.3651   81.5672 C   0  0  0  0  0  0  0  0  0  0  0  0
    2.9673   67.2747   84.0419 C   0  0  0  0  0  0  0  0  0  0  0  0
    3.0047   67.4421   82.6598 C   0  0  0  0  0  0  0  0  0  0  0  0
    2.0577   66.8065   81.8548 C   0  0  0  0  0  0  0  0  0  0  0  0
    1.0502   66.0195   82.4319 C   0  0  0  0  0  0  0  0  0  0  0  0
    0.9979   65.8961   83.8286 C   0  0  0  0  0  0  0  0  0  0  0  0
    1.9458   66.5339   84.6304 C   0  0  0  0  0  0  0  0  0  0  0  0
    3.8526   67.9542   84.8279 O   0  0  0  0  0  0  0  0  0  0  0  0
    6.2269   67.4231   84.3310 C   0  0  0  0  0  0  0  0  0  0  0  0
    5.0244   67.2277   85.2662 C   0  0  0  0  0  0  0  0  0  0  0  0
    4.7441   65.7338   85.4843 C   0  0  0  0  0  0  0  0  0  0  0  0
    5.3713   67.8533   86.6285 C   0  0  0  0  0  0  0  0  0  0  0  0
 29 30  1  0  0  0
 30 31  1  0  0  0
 30 32  1  0  0  0
 30 28  1  0  0  0
 28 22  1  0  0  0
 22 23  1  0  0  0
 23 24  2  0  0  0
 24 25  1  0  0  0
 25 21  1  0  0  0
 21  1  1  0  0  0
  1  2  1  0  0  0
  2  3  1  0  0  0
  3 16  1  0  0  0
 16 17  2  0  0  0
 17 18  1  0  0  0
 18 19  2  0  0  0
 19 20  1  0  0  0
  3  4  2  0  0  0
  4  5  1  0  0  0
  5  6  2  0  0  0
  5  7  1  0  0  0
  7  8  2  0  0  0
  8  9  1  0  0  0
  9 10  2  0  0  0
 10 11  1  0  0  0
 11 12  2  0  0  0
 12 13  1  0  0  0
 13 14  1  0  0  0
 25 26  2  0  0  0
 26 27  1  0  0  0
 27 22  2  0  0  0
 14  1  2  0  0  0
 20 16  1  0  0  0
 14  4  1  0  0  0
 12  7  1  0  0  0
  2 15  1  0  0  0
M  END
> <minimizedAffinity>
-10.21110

$$$$



 32 36  0  0  0  0  0  0  0  0999 V2000
    1.4102   65.5131   84.1203 C   0  0  0  0  0  0  0  0  0  0  0  0
    2.5193   65.1616   84.8633 N   0  0  0  0  0  0  0  0  0  0  0  0
    3.5254   66.0980   84.7236 C   0  0  0  0  0  0  0  0  0  0  0  0
    3.0440   67.0822   83.8784 C   0  0  0  0  0  0  0  0  0  0  0  0
    3.6200   68.3170   83.3902 C   0  0  0  0  0  0  0  0  0  0  0  0
    4.7152   68.7661   83.7027 O   0  0  0  0  0  0  0  0  0  0  0  0
    2.7310   69.0604   82.4503 C   0  0  0  0  0  0  0  0  0  0  0  0
    3.1708   70.2574   81.8739 C   0  0  0  0  0  0  0  0  0  0  0  0
    2.3361   70.9538   80.9976 C   0  0  0  0  0  0  0  0  0  0  0  0
    1.0649   70.4595   80.6963 C   0  0  0  0  0  0  0  0  0  0  0  0
    0.6198   69.2665   81.2692 C   0  0  0  0  0  0  0  0  0  0  0  0
    1.4496   68.5657   82.1452 C   0  0  0  0  0  0  0  0  0  0  0  0
    0.9420   67.3949   82.6752 O   0  0  0  0  0  0  0  0  0  0  0  0
    1.7391   66.6960   83.5073 C   0  0  0  0  0  0  0  0  0  0  0  0
    2.5910   64.3239   85.4268 H   0  0  0  0  0  0  0  0  0  0  0  0
    4.7906   65.9409   85.3742 C   0  0  0  0  0  0  0  0  0  0  0  0
    5.0556   65.6517   86.7048 C   0  0  0  0  0  0  0  0  0  0  0  0
    6.4634   65.5874   86.8506 C   0  0  0  0  0  0  0  0  0  0  0  0
    6.9810   65.8335   85.6041 C   0  0  0  0  0  0  0  0  0  0  0  0
    5.9834   66.0380   84.7106 O   0  0  0  0  0  0  0  0  0  0  0  0
    0.1650   64.6896   84.0531 C   0  0  0  0  0  0  0  0  0  0  0  0
   -0.1829   62.4313   80.3949 C   0  0  0  0  0  0  0  0  0  0  0  0
   -0.6643   63.7369   80.4519 C   0  0  0  0  0  0  0  0  0  0  0  0
   -0.5736   64.4620   81.6415 C   0  0  0  0  0  0  0  0  0  0  0  0
    0.0244   63.8923   82.7752 C   0  0  0  0  0  0  0  0  0  0  0  0
    0.5453   62.5923   82.6902 C   0  0  0  0  0  0  0  0  0  0  0  0
    0.4538   61.8707   81.4989 C   0  0  0  0  0  0  0  0  0  0  0  0
   -0.2113   61.7531   79.2107 O   0  0  0  0  0  0  0  0  0  0  0  0
   -2.3642   62.0682   78.0141 C   0  0  0  0  0  0  0  0  0  0  0  0
   -1.4678   61.1370   78.8436 C   0  0  0  0  0  0  0  0  0  0  0  0
   -2.2318   60.5882   80.0573 C   0  0  0  0  0  0  0  0  0  0  0  0
   -1.0623   59.9476   77.9557 C   0  0  0  0  0  0  0  0  0  0  0  0
 29 30  1  0  0  0
 30 31  1  0  0  0
 30 32  1  0  0  0
 30 28  1  0  0  0
 28 22  1  0  0  0
 22 23  1  0  0  0
 23 24  2  0  0  0
 24 25  1  0  0  0
 25 21  1  0  0  0
 21  1  1  0  0  0
  1  2  1  0  0  0
  2  3  1  0  0  0
  3 16  1  0  0  0
 16 17  2  0  0  0
 17 18  1  0  0  0
 18 19  2  0  0  0
 19 20  1  0  0  0
  3  4  2  0  0  0
  4  5  1  0  0  0
  5  6  2  0  0  0
  5  7  1  0  0  0
  7  8  2  0  0  0
  8  9  1  0  0  0
  9 10  2  0  0  0
 10 11  1  0  0  0
 11 12  2  0  0  0
 12 13  1  0  0  0
 13 14  1  0  0  0
 25 26  2  0  0  0
 26 27  1  0  0  0
 27 22  2  0  0  0
 14  1  2  0  0  0
 20 16  1  0  0  0
 14  4  1  0  0  0
 12  7  1  0  0  0
  2 15  1  0  0  0
M  END
> <minimizedAffinity>
-10.13389

$$$$



 32 36  0  0  0  0  0  0  0  0999 V2000
    1.7269   66.7587   81.6377 C   0  0  0  0  0  0  0  0  0  0  0  0
    1.4496   66.4226   80.3278 N   0  0  0  0  0  0  0  0  0  0  0  0
    0.6759   65.2799   80.2633 C   0  0  0  0  0  0  0  0  0  0  0  0
    0.4405   64.8798   81.5669 C   0  0  0  0  0  0  0  0  0  0  0  0
   -0.3197   63.7841   82.1295 C   0  0  0  0  0  0  0  0  0  0  0  0
   -0.9808   62.9735   81.4932 O   0  0  0  0  0  0  0  0  0  0  0  0
   -0.2628   63.7202   83.6191 C   0  0  0  0  0  0  0  0  0  0  0  0
   -0.9260   62.6924   84.2989 C   0  0  0  0  0  0  0  0  0  0  0  0
   -0.8751   62.6363   85.6932 C   0  0  0  0  0  0  0  0  0  0  0  0
   -0.1656   63.6030   86.4096 C   0  0  0  0  0  0  0  0  0  0  0  0
    0.4971   64.6318   85.7372 C   0  0  0  0  0  0  0  0  0  0  0  0
    0.4504   64.6927   84.3439 C   0  0  0  0  0  0  0  0  0  0  0  0
    1.1273   65.7392   83.7471 O   0  0  0  0  0  0  0  0  0  0  0  0
    1.1085   65.8004   82.4011 C   0  0  0  0  0  0  0  0  0  0  0  0
    1.7784   66.9376   79.5210 H   0  0  0  0  0  0  0  0  0  0  0  0
    0.2811   64.7122   79.0101 C   0  0  0  0  0  0  0  0  0  0  0  0
    0.5797   63.4625   78.4874 C   0  0  0  0  0  0  0  0  0  0  0  0
   -0.0543   63.3708   77.2238 C   0  0  0  0  0  0  0  0  0  0  0  0
   -0.7095   64.5630   77.0457 C   0  0  0  0  0  0  0  0  0  0  0  0
   -0.5204   65.3702   78.1172 O   0  0  0  0  0  0  0  0  0  0  0  0
    2.5584   67.9364   82.0310 C   0  0  0  0  0  0  0  0  0  0  0  0
    0.4175   71.6801   81.9690 C   0  0  0  0  0  0  0  0  0  0  0  0
   -0.1256   70.5606   81.3433 C   0  0  0  0  0  0  0  0  0  0  0  0
    0.5760   69.3537   81.3422 C   0  0  0  0  0  0  0  0  0  0  0  0
    1.8153   69.2534   81.9913 C   0  0  0  0  0  0  0  0  0  0  0  0
    2.3293   70.3772   82.6559 C   0  0  0  0  0  0  0  0  0  0  0  0
    1.6246   71.5820   82.6558 C   0  0  0  0  0  0  0  0  0  0  0  0
   -0.3044   72.8371   82.0267 O   0  0  0  0  0  0  0  0  0  0  0  0
   -1.1938   73.7255   79.8852 C   0  0  0  0  0  0  0  0  0  0  0  0
   -0.0955   73.7885   80.9569 C   0  0  0  0  0  0  0  0  0  0  0  0
    1.2945   73.6599   80.3171 C   0  0  0  0  0  0  0  0  0  0  0  0
   -0.1792   75.1608   81.6476 C   0  0  0  0  0  0  0  0  0  0  0  0
 29 30  1  0  0  0
 30 31  1  0  0  0
 30 32  1  0  0  0
 30 28  1  0  0  0
 28 22  1  0  0  0
 22 23  1  0  0  0
 23 24  2  0  0  0
 24 25  1  0  0  0
 25 21  1  0  0  0
 21  1  1  0  0  0
  1  2  1  0  0  0
  2  3  1  0  0  0
  3 16  1  0  0  0
 16 17  2  0  0  0
 17 18  1  0  0  0
 18 19  2  0  0  0
 19 20  1  0  0  0
  3  4  2  0  0  0
  4  5  1  0  0  0
  5  6  2  0  0  0
  5  7  1  0  0  0
  7  8  2  0  0  0
  8  9  1  0  0  0
  9 10  2  0  0  0
 10 11  1  0  0  0
 11 12  2  0  0  0
 12 13  1  0  0  0
 13 14  1  0  0  0
 25 26  2  0  0  0
 26 27  1  0  0  0
 27 22  2  0  0  0
 14  1  2  0  0  0
 20 16  1  0  0  0
 14  4  1  0  0  0
 12  7  1  0  0  0
  2 15  1  0  0  0
M  END
> <minimizedAffinity>
-10.05577

$$$$



 32 36  0  0  0  0  0  0  0  0999 V2000
    1.8659   66.4204   83.0831 C   0  0  0  0  0  0  0  0  0  0  0  0
    0.8603   65.7669   83.7667 N   0  0  0  0  0  0  0  0  0  0  0  0
    1.3408   65.2009   84.9317 C   0  0  0  0  0  0  0  0  0  0  0  0
    2.6876   65.5103   85.0031 C   0  0  0  0  0  0  0  0  0  0  0  0
    3.7040   65.2229   85.9927 C   0  0  0  0  0  0  0  0  0  0  0  0
    3.5221   64.6407   87.0542 O   0  0  0  0  0  0  0  0  0  0  0  0
    5.0567   65.7347   85.6258 C   0  0  0  0  0  0  0  0  0  0  0  0
    6.1444   65.5020   86.4751 C   0  0  0  0  0  0  0  0  0  0  0  0
    7.4089   65.9850   86.1322 C   0  0  0  0  0  0  0  0  0  0  0  0
    7.5898   66.6996   84.9458 C   0  0  0  0  0  0  0  0  0  0  0  0
    6.5083   66.9363   84.0949 C   0  0  0  0  0  0  0  0  0  0  0  0
    5.2424   66.4556   84.4318 C   0  0  0  0  0  0  0  0  0  0  0  0
    4.2198   66.7295   83.5438 O   0  0  0  0  0  0  0  0  0  0  0  0
    2.9951   66.2546   83.8451 C   0  0  0  0  0  0  0  0  0  0  0  0
   -0.0993   65.7009   83.4515 H   0  0  0  0  0  0  0  0  0  0  0  0
    0.4938   64.4419   85.8006 C   0  0  0  0  0  0  0  0  0  0  0  0
   -0.2446   63.3017   85.5195 C   0  0  0  0  0  0  0  0  0  0  0  0
   -0.9066   62.9223   86.7132 C   0  0  0  0  0  0  0  0  0  0  0  0
   -0.5333   63.8443   87.6582 C   0  0  0  0  0  0  0  0  0  0  0  0
    0.3140   64.7545   87.1207 O   0  0  0  0  0  0  0  0  0  0  0  0
    1.6606   67.1169   81.7770 C   0  0  0  0  0  0  0  0  0  0  0  0
    0.7504   71.3111   82.2052 C   0  0  0  0  0  0  0  0  0  0  0  0
   -0.0965   70.4901   81.4647 C   0  0  0  0  0  0  0  0  0  0  0  0
    0.2081   69.1370   81.3055 C   0  0  0  0  0  0  0  0  0  0  0  0
    1.3503   68.5915   81.9097 C   0  0  0  0  0  0  0  0  0  0  0  0
    2.1703   69.4207   82.6899 C   0  0  0  0  0  0  0  0  0  0  0  0
    1.8621   70.7729   82.8478 C   0  0  0  0  0  0  0  0  0  0  0  0
    0.4107   72.6163   82.4152 O   0  0  0  0  0  0  0  0  0  0  0  0
   -0.4305   73.7431   80.3685 C   0  0  0  0  0  0  0  0  0  0  0  0
    0.7291   73.5500   81.3569 C   0  0  0  0  0  0  0  0  0  0  0  0
    2.0200   73.1792   80.6126 C   0  0  0  0  0  0  0  0  0  0  0  0
    0.9635   74.8846   82.0859 C   0  0  0  0  0  0  0  0  0  0  0  0
 29 30  1  0  0  0
 30 31  1  0  0  0
 30 32  1  0  0  0
 30 28  1  0  0  0
 28 22  1  0  0  0
 22 23  1  0  0  0
 23 24  2  0  0  0
 24 25  1  0  0  0
 25 21  1  0  0  0
 21  1  1  0  0  0
  1  2  1  0  0  0
  2  3  1  0  0  0
  3 16  1  0  0  0
 16 17  2  0  0  0
 17 18  1  0  0  0
 18 19  2  0  0  0
 19 20  1  0  0  0
  3  4  2  0  0  0
  4  5  1  0  0  0
  5  6  2  0  0  0
  5  7  1  0  0  0
  7  8  2  0  0  0
  8  9  1  0  0  0
  9 10  2  0  0  0
 10 11  1  0  0  0
 11 12  2  0  0  0
 12 13  1  0  0  0
 13 14  1  0  0  0
 25 26  2  0  0  0
 26 27  1  0  0  0
 27 22  2  0  0  0
 14  1  2  0  0  0
 20 16  1  0  0  0
 14  4  1  0  0  0
 12  7  1  0  0  0
  2 15  1  0  0  0
M  END
> <minimizedAffinity>
-10.03311

$$$$



 32 36  0  0  0  0  0  0  0  0999 V2000
    1.1700   65.6240   83.8059 C   0  0  0  0  0  0  0  0  0  0  0  0
    0.2783   64.9721   84.6339 N   0  0  0  0  0  0  0  0  0  0  0  0
    0.8989   64.5476   85.7929 C   0  0  0  0  0  0  0  0  0  0  0  0
    2.2207   64.9490   85.7112 C   0  0  0  0  0  0  0  0  0  0  0  0
    3.3380   64.8200   86.6222 C   0  0  0  0  0  0  0  0  0  0  0  0
    3.2925   64.3269   87.7419 O   0  0  0  0  0  0  0  0  0  0  0  0
    4.6124   65.3826   86.0880 C   0  0  0  0  0  0  0  0  0  0  0  0
    5.7843   65.2996   86.8484 C   0  0  0  0  0  0  0  0  0  0  0  0
    6.9754   65.8301   86.3487 C   0  0  0  0  0  0  0  0  0  0  0  0
    6.9993   66.4433   85.0939 C   0  0  0  0  0  0  0  0  0  0  0  0
    5.8331   66.5304   84.3309 C   0  0  0  0  0  0  0  0  0  0  0  0
    4.6400   66.0016   84.8246 C   0  0  0  0  0  0  0  0  0  0  0  0
    3.5263   66.1260   84.0161 O   0  0  0  0  0  0  0  0  0  0  0  0
    2.3706   65.6023   84.4702 C   0  0  0  0  0  0  0  0  0  0  0  0
   -0.6977   64.8155   84.4168 H   0  0  0  0  0  0  0  0  0  0  0  0
    0.1887   63.8182   86.7989 C   0  0  0  0  0  0  0  0  0  0  0  0
   -0.5219   62.6331   86.6771 C   0  0  0  0  0  0  0  0  0  0  0  0
   -1.0305   62.3118   87.9597 C   0  0  0  0  0  0  0  0  0  0  0  0
   -0.5992   63.3112   88.7951 C   0  0  0  0  0  0  0  0  0  0  0  0
    0.1404   64.2145   88.1078 O   0  0  0  0  0  0  0  0  0  0  0  0
    0.8010   66.1832   82.4701 C   0  0  0  0  0  0  0  0  0  0  0  0
   -0.3152   63.1900   79.5722 C   0  0  0  0  0  0  0  0  0  0  0  0
   -0.3298   64.5369   79.2183 C   0  0  0  0  0  0  0  0  0  0  0  0
    0.0088   65.5091   80.1612 C   0  0  0  0  0  0  0  0  0  0  0  0
    0.3903   65.1362   81.4584 C   0  0  0  0  0  0  0  0  0  0  0  0
    0.4438   63.7733   81.7877 C   0  0  0  0  0  0  0  0  0  0  0  0
    0.1055   62.8040   80.8420 C   0  0  0  0  0  0  0  0  0  0  0  0
   -0.5794   62.2413   78.6270 O   0  0  0  0  0  0  0  0  0  0  0  0
   -2.6552   62.4971   77.2883 C   0  0  0  0  0  0  0  0  0  0  0  0
   -1.9596   61.8312   78.4847 C   0  0  0  0  0  0  0  0  0  0  0  0
   -2.7723   62.0415   79.7705 C   0  0  0  0  0  0  0  0  0  0  0  0
   -1.8799   60.3192   78.2110 C   0  0  0  0  0  0  0  0  0  0  0  0
 29 30  1  0  0  0
 30 31  1  0  0  0
 30 32  1  0  0  0
 30 28  1  0  0  0
 28 22  1  0  0  0
 22 23  1  0  0  0
 23 24  2  0  0  0
 24 25  1  0  0  0
 25 21  1  0  0  0
 21  1  1  0  0  0
  1  2  1  0  0  0
  2  3  1  0  0  0
  3 16  1  0  0  0
 16 17  2  0  0  0
 17 18  1  0  0  0
 18 19  2  0  0  0
 19 20  1  0  0  0
  3  4  2  0  0  0
  4  5  1  0  0  0
  5  6  2  0  0  0
  5  7  1  0  0  0
  7  8  2  0  0  0
  8  9  1  0  0  0
  9 10  2  0  0  0
 10 11  1  0  0  0
 11 12  2  0  0  0
 12 13  1  0  0  0
 13 14  1  0  0  0
 25 26  2  0  0  0
 26 27  1  0  0  0
 27 22  2  0  0  0
 14  1  2  0  0  0
 20 16  1  0  0  0
 14  4  1  0  0  0
 12  7  1  0  0  0
  2 15  1  0  0  0
M  END
> <minimizedAffinity>
-10.01141

$$$$
