
     RDKit          3D

 53 55  0  0  0  0  0  0  0  0999 V2000
    0.6770   -2.5368   -4.5202 C   0  0  0  0  0  0  0  0  0  0  0  0
    1.8091   -1.6760   -3.9825 C   0  0  0  0  0  0  0  0  0  0  0  0
    1.4510   -1.0667   -2.6307 C   0  0  0  0  0  0  0  0  0  0  0  0
    2.5788   -0.1946   -2.0834 C   0  0  0  0  0  0  0  0  0  0  0  0
    2.1467    0.3160   -0.8203 O   0  0  0  0  0  0  0  0  0  0  0  0
    3.0045    1.1373   -0.1259 C   0  0  0  0  0  0  0  0  0  0  0  0
    4.2725    1.5087   -0.5962 C   0  0  0  0  0  0  0  0  0  0  0  0
    5.0953    2.3488    0.1580 C   0  0  0  0  0  0  0  0  0  0  0  0
    4.6627    2.8275    1.3885 C   0  0  0  0  0  0  0  0  0  0  0  0
    3.4043    2.4655    1.8673 C   0  0  0  0  0  0  0  0  0  0  0  0
    2.5575    1.6205    1.1271 C   0  0  0  0  0  0  0  0  0  0  0  0
    1.2451    1.2871    1.7076 C   0  0  0  0  0  0  0  0  0  0  0  0
    0.7617    1.7161    2.8664 N   0  0  0  0  0  0  0  0  0  0  0  0
   -0.4869    1.1521    2.9863 C   0  0  0  0  0  0  0  0  0  0  0  0
   -1.4545    1.2891    4.0513 C   0  0  0  0  0  0  0  0  0  0  0  0
   -1.2551    1.9768    5.0496 O   0  0  0  0  0  0  0  0  0  0  0  0
   -2.6342    0.5584    3.8193 N   0  0  0  0  0  0  0  0  0  0  0  0
   -3.6738    0.6285    4.8266 C   0  0  0  0  0  0  0  0  0  0  0  0
   -2.9209   -0.2412    2.6923 C   0  0  0  0  0  0  0  0  0  0  0  0
   -3.9962   -0.8384    2.5845 O   0  0  0  0  0  0  0  0  0  0  0  0
   -1.9332   -0.3324    1.6944 N   0  0  0  0  0  0  0  0  0  0  0  0
   -2.1989   -1.1483    0.5102 C   0  0  0  0  0  0  0  0  0  0  0  0
   -3.0906   -0.4476   -0.5330 C   0  0  0  0  0  0  0  0  0  0  0  0
   -3.4392   -1.4286   -1.6546 C   0  0  0  0  0  0  0  0  0  0  0  0
   -2.4268    0.7971   -1.1243 C   0  0  0  0  0  0  0  0  0  0  0  0
   -0.7688    0.3739    1.9011 C   0  0  0  0  0  0  0  0  0  0  0  0
    0.3243    0.4587    1.0976 N   0  0  0  0  0  0  0  0  0  0  0  0
   -0.2348   -1.9461   -4.6551 H   0  0  0  0  0  0  0  0  0  0  0  0
    0.9524   -2.9631   -5.4898 H   0  0  0  0  0  0  0  0  0  0  0  0
    0.4534   -3.3624   -3.8370 H   0  0  0  0  0  0  0  0  0  0  0  0
    2.0297   -0.8803   -4.7034 H   0  0  0  0  0  0  0  0  0  0  0  0
    2.7134   -2.2882   -3.8876 H   0  0  0  0  0  0  0  0  0  0  0  0
    1.2192   -1.8576   -1.9061 H   0  0  0  0  0  0  0  0  0  0  0  0
    0.5381   -0.4645   -2.7174 H   0  0  0  0  0  0  0  0  0  0  0  0
    3.4820   -0.8025   -1.9547 H   0  0  0  0  0  0  0  0  0  0  0  0
    2.7712    0.6314   -2.7781 H   0  0  0  0  0  0  0  0  0  0  0  0
    4.6566    1.1629   -1.5502 H   0  0  0  0  0  0  0  0  0  0  0  0
    6.0763    2.6298   -0.2176 H   0  0  0  0  0  0  0  0  0  0  0  0
    5.2992    3.4817    1.9788 H   0  0  0  0  0  0  0  0  0  0  0  0
    3.0768    2.8476    2.8341 H   0  0  0  0  0  0  0  0  0  0  0  0
   -4.5799    1.0431    4.3725 H   0  0  0  0  0  0  0  0  0  0  0  0
   -3.3938    1.2463    5.6834 H   0  0  0  0  0  0  0  0  0  0  0  0
   -3.8973   -0.3838    5.1793 H   0  0  0  0  0  0  0  0  0  0  0  0
   -2.6934   -2.0686    0.8468 H   0  0  0  0  0  0  0  0  0  0  0  0
   -1.2487   -1.4599    0.0603 H   0  0  0  0  0  0  0  0  0  0  0  0
   -4.0273   -0.1341   -0.0559 H   0  0  0  0  0  0  0  0  0  0  0  0
   -2.5393   -1.7697   -2.1782 H   0  0  0  0  0  0  0  0  0  0  0  0
   -4.1019   -0.9601   -2.3900 H   0  0  0  0  0  0  0  0  0  0  0  0
   -3.9545   -2.3087   -1.2557 H   0  0  0  0  0  0  0  0  0  0  0  0
   -3.0573    1.2396   -1.9032 H   0  0  0  0  0  0  0  0  0  0  0  0
   -1.4575    0.5568   -1.5726 H   0  0  0  0  0  0  0  0  0  0  0  0
   -2.2708    1.5644   -0.3600 H   0  0  0  0  0  0  0  0  0  0  0  0
    0.4765    0.0197    0.2006 H   0  0  0  0  0  0  0  0  0  0  0  0
  1  2  1  0
  2  3  1  0
  3  4  1  0
  4  5  1  0
  5  6  1  0
  6  7  2  0
  7  8  1  0
  8  9  2  0
  9 10  1  0
 10 11  2  0
 11 12  1  0
 12 13  2  0
 13 14  1  0
 14 15  1  0
 15 16  2  0
 15 17  1  0
 17 18  1  0
 17 19  1  0
 19 20  2  0
 19 21  1  0
 21 22  1  0
 22 23  1  0
 23 24  1  0
 23 25  1  0
 21 26  1  0
 26 27  1  0
 11  6  1  0
 27 12  1  0
 26 14  2  0
  1 28  1  0
  1 29  1  0
  1 30  1  0
  2 31  1  0
  2 32  1  0
  3 33  1  0
  3 34  1  0
  4 35  1  0
  4 36  1  0
  7 37  1  0
  8 38  1  0
  9 39  1  0
 10 40  1  0
 18 41  1  0
 18 42  1  0
 18 43  1  0
 22 44  1  0
 22 45  1  0
 23 46  1  0
 24 47  1  0
 24 48  1  0
 24 49  1  0
 25 50  1  0
 25 51  1  0
 25 52  1  0
 27 53  1  0
M  END
$$$$
