


 45 50  0  0  0  0  0  0  0  0999 V2000
    0.3799   65.4497   81.1825 C   0  0  0  0  0  0  0  0  0  0  0  0
    0.5375   66.7315   80.9451 N   0  0  0  0  0  0  0  0  0  0  0  0
    1.3760   67.1725   81.9174 C   0  0  0  0  0  0  0  0  0  0  0  0
    1.7348   66.1717   82.7672 C   0  0  0  0  0  0  0  0  0  0  0  0
    2.5675   66.3841   83.8998 C   0  0  0  0  0  0  0  0  0  0  0  0
    2.8280   65.4990   84.7096 O   0  0  0  0  0  0  0  0  0  0  0  0
    3.0214   67.7029   84.0080 N   0  0  0  0  0  0  0  0  0  0  0  0
    2.6739   68.7615   83.1452 C   0  0  0  0  0  0  0  0  0  0  0  0
    3.0995   69.9068   83.3210 O   0  0  0  0  0  0  0  0  0  0  0  0
    1.8219   68.4617   82.0795 N   0  0  0  0  0  0  0  0  0  0  0  0
    1.1266   65.0476   82.2685 N   0  0  0  0  0  0  0  0  0  0  0  0
   -0.5453   64.6595   80.4109 N   0  0  0  0  0  0  0  0  0  0  0  0
   -1.1091   63.9246   80.8242 H   0  0  0  0  0  0  0  0  0  0  0  0
   -0.1360   64.3829   78.8097 S   0  0  0  0  0  0  0  0  0  0  0  0
    1.3129   64.4133   78.7753 O   0  0  0  0  0  0  0  0  0  0  0  0
   -0.8984   65.2779   77.9641 O   0  0  0  0  0  0  0  0  0  0  0  0
   -1.4173   60.0604   78.0898 C   0  0  0  0  0  0  0  0  0  0  0  0
   -0.7059   60.7591   77.1090 C   0  0  0  0  0  0  0  0  0  0  0  0
   -0.3110   62.0810   77.3202 C   0  0  0  0  0  0  0  0  0  0  0  0
   -0.6360   62.7078   78.5238 C   0  0  0  0  0  0  0  0  0  0  0  0
   -1.3266   62.0146   79.5215 C   0  0  0  0  0  0  0  0  0  0  0  0
   -1.7208   60.6908   79.2994 C   0  0  0  0  0  0  0  0  0  0  0  0
   -1.4769   58.3818   76.4073 C   0  0  0  0  0  0  0  0  0  0  0  0
   -1.7507   58.7797   77.7446 O   0  0  0  0  0  0  0  0  0  0  0  0
    3.8856   68.0116   85.1383 C   0  0  0  0  0  0  0  0  0  0  0  0
    5.3330   67.8852   84.7476 C   0  0  0  0  0  0  0  0  0  0  0  0
    6.3934   67.7395   85.8099 C   0  0  0  0  0  0  0  0  0  0  0  0
    6.0738   66.5814   84.9057 C   0  0  0  0  0  0  0  0  0  0  0  0
    1.3972   69.5246   81.1762 C   0  0  0  0  0  0  0  0  0  0  0  0
    0.2156   70.2602   81.7414 C   0  0  0  0  0  0  0  0  0  0  0  0
   -0.5982   71.2011   80.8884 C   0  0  0  0  0  0  0  0  0  0  0  0
    0.2889   71.7493   81.9711 C   0  0  0  0  0  0  0  0  0  0  0  0
    1.2378   63.6957   82.7885 C   0  0  0  0  0  0  0  0  0  0  0  0
    0.1335   63.3711   83.7678 C   0  0  0  0  0  0  0  0  0  0  0  0
   -0.9612   62.5755   83.3866 C   0  0  0  0  0  0  0  0  0  0  0  0
   -1.9870   62.2856   84.2904 C   0  0  0  0  0  0  0  0  0  0  0  0
   -1.9131   62.8083   85.5918 C   0  0  0  0  0  0  0  0  0  0  0  0
   -0.8364   63.6156   85.9933 C   0  0  0  0  0  0  0  0  0  0  0  0
    0.1800   63.8881   85.0742 C   0  0  0  0  0  0  0  0  0  0  0  0
   -3.0918   61.5281   83.9982 O   0  0  0  0  0  0  0  0  0  0  0  0
   -2.9938   60.6312   82.8981 C   0  0  0  0  0  0  0  0  0  0  0  0
   -2.9455   62.5761   86.4746 O   0  0  0  0  0  0  0  0  0  0  0  0
   -2.6810   61.3937   87.2272 C   0  0  0  0  0  0  0  0  0  0  0  0
   -0.8699   64.0762   87.2842 O   0  0  0  0  0  0  0  0  0  0  0  0
    0.0846   63.5485   88.1947 C   0  0  0  0  0  0  0  0  0  0  0  0
 23 24  1  0  0  0
 24 17  1  0  0  0
 17 18  1  0  0  0
 18 19  2  0  0  0
 19 20  1  0  0  0
 20 14  1  0  0  0
 14 15  2  0  0  0
 14 16  2  0  0  0
 14 12  1  0  0  0
 12  1  1  0  0  0
  1  2  2  0  0  0
  2  3  1  0  0  0
  3  4  2  0  0  0
  4  5  1  0  0  0
  5  6  2  0  0  0
  5  7  1  0  0  0
  7 25  1  0  0  0
 25 26  1  0  0  0
 26 27  1  0  0  0
 27 28  1  0  0  0
  7  8  1  0  0  0
  8  9  2  0  0  0
  8 10  1  0  0  0
 10 29  1  0  0  0
 29 30  1  0  0  0
 30 31  1  0  0  0
 31 32  1  0  0  0
  4 11  1  0  0  0
 11 33  1  0  0  0
 33 34  1  0  0  0
 34 35  1  0  0  0
 35 36  2  0  0  0
 36 40  1  0  0  0
 40 41  1  0  0  0
 36 37  1  0  0  0
 37 42  1  0  0  0
 42 43  1  0  0  0
 37 38  2  0  0  0
 38 44  1  0  0  0
 44 45  1  0  0  0
 38 39  1  0  0  0
 20 21  2  0  0  0
 21 22  1  0  0  0
 22 17  2  0  0  0
 11  1  1  0  0  0
 39 34  2  0  0  0
 10  3  1  0  0  0
 32 30  1  0  0  0
 28 26  1  0  0  0
 12 13  1  0  0  0
M  END
> <minimizedAffinity>
-9.33031

$$$$



 45 50  0  0  0  0  0  0  0  0999 V2000
    0.3041   65.5457   81.0694 C   0  0  0  0  0  0  0  0  0  0  0  0
    0.4579   66.8309   80.8481 N   0  0  0  0  0  0  0  0  0  0  0  0
    1.2987   67.2612   81.8231 C   0  0  0  0  0  0  0  0  0  0  0  0
    1.6628   66.2502   82.6586 C   0  0  0  0  0  0  0  0  0  0  0  0
    2.4988   66.4500   83.7911 C   0  0  0  0  0  0  0  0  0  0  0  0
    2.7642   65.5550   84.5884 O   0  0  0  0  0  0  0  0  0  0  0  0
    2.9501   67.7683   83.9148 N   0  0  0  0  0  0  0  0  0  0  0  0
    2.5972   68.8372   83.0670 C   0  0  0  0  0  0  0  0  0  0  0  0
    3.0207   69.9811   83.2562 O   0  0  0  0  0  0  0  0  0  0  0  0
    1.7422   68.5492   82.0004 N   0  0  0  0  0  0  0  0  0  0  0  0
    1.0554   65.1313   82.1475 N   0  0  0  0  0  0  0  0  0  0  0  0
   -0.6219   64.7634   80.2907 N   0  0  0  0  0  0  0  0  0  0  0  0
   -1.2119   64.0492   80.7038 H   0  0  0  0  0  0  0  0  0  0  0  0
   -0.1836   64.4489   78.7042 S   0  0  0  0  0  0  0  0  0  0  0  0
    1.2659   64.4731   78.6968 O   0  0  0  0  0  0  0  0  0  0  0  0
   -0.9262   65.3271   77.8242 O   0  0  0  0  0  0  0  0  0  0  0  0
   -1.4668   60.1153   78.0575 C   0  0  0  0  0  0  0  0  0  0  0  0
   -0.8610   60.8348   77.0223 C   0  0  0  0  0  0  0  0  0  0  0  0
   -0.4663   62.1601   77.2109 C   0  0  0  0  0  0  0  0  0  0  0  0
   -0.6850   62.7695   78.4471 C   0  0  0  0  0  0  0  0  0  0  0  0
   -1.2685   62.0557   79.4971 C   0  0  0  0  0  0  0  0  0  0  0  0
   -1.6636   60.7285   79.2977 C   0  0  0  0  0  0  0  0  0  0  0  0
   -1.5166   58.4045   76.4075 C   0  0  0  0  0  0  0  0  0  0  0  0
   -1.8135   58.8334   77.7303 O   0  0  0  0  0  0  0  0  0  0  0  0
    3.8175   68.0643   85.0460 C   0  0  0  0  0  0  0  0  0  0  0  0
    5.2576   67.8181   84.6871 C   0  0  0  0  0  0  0  0  0  0  0  0
    6.3144   67.8084   85.7629 C   0  0  0  0  0  0  0  0  0  0  0  0
    5.9468   66.5302   85.0615 C   0  0  0  0  0  0  0  0  0  0  0  0
    1.3119   69.6227   81.1124 C   0  0  0  0  0  0  0  0  0  0  0  0
    0.1447   70.3626   81.7016 C   0  0  0  0  0  0  0  0  0  0  0  0
   -0.6563   71.3391   80.8771 C   0  0  0  0  0  0  0  0  0  0  0  0
    0.2437   71.8436   81.9704 C   0  0  0  0  0  0  0  0  0  0  0  0
    1.1716   63.7731   82.6495 C   0  0  0  0  0  0  0  0  0  0  0  0
    0.0947   63.4462   83.6582 C   0  0  0  0  0  0  0  0  0  0  0  0
    0.1664   63.9305   84.9761 C   0  0  0  0  0  0  0  0  0  0  0  0
   -0.8246   63.6179   85.9105 C   0  0  0  0  0  0  0  0  0  0  0  0
   -1.8977   62.8025   85.5151 C   0  0  0  0  0  0  0  0  0  0  0  0
   -1.9859   62.2963   84.2082 C   0  0  0  0  0  0  0  0  0  0  0  0
   -0.9859   62.6260   83.2898 C   0  0  0  0  0  0  0  0  0  0  0  0
   -0.8263   64.0395   87.2151 O   0  0  0  0  0  0  0  0  0  0  0  0
    0.2681   63.6375   88.0305 C   0  0  0  0  0  0  0  0  0  0  0  0
   -2.8513   62.4414   86.4422 O   0  0  0  0  0  0  0  0  0  0  0  0
   -2.4011   61.3082   87.1821 C   0  0  0  0  0  0  0  0  0  0  0  0
   -3.0724   61.5064   83.9339 O   0  0  0  0  0  0  0  0  0  0  0  0
   -2.9707   60.6073   82.8385 C   0  0  0  0  0  0  0  0  0  0  0  0
 23 24  1  0  0  0
 24 17  1  0  0  0
 17 18  1  0  0  0
 18 19  2  0  0  0
 19 20  1  0  0  0
 20 14  1  0  0  0
 14 15  2  0  0  0
 14 16  2  0  0  0
 14 12  1  0  0  0
 12  1  1  0  0  0
  1  2  2  0  0  0
  2  3  1  0  0  0
  3  4  2  0  0  0
  4  5  1  0  0  0
  5  6  2  0  0  0
  5  7  1  0  0  0
  7 25  1  0  0  0
 25 26  1  0  0  0
 26 27  1  0  0  0
 27 28  1  0  0  0
  7  8  1  0  0  0
  8  9  2  0  0  0
  8 10  1  0  0  0
 10 29  1  0  0  0
 29 30  1  0  0  0
 30 31  1  0  0  0
 31 32  1  0  0  0
  4 11  1  0  0  0
 11 33  1  0  0  0
 33 34  1  0  0  0
 34 35  1  0  0  0
 35 36  2  0  0  0
 36 40  1  0  0  0
 40 41  1  0  0  0
 36 37  1  0  0  0
 37 42  1  0  0  0
 42 43  1  0  0  0
 37 38  2  0  0  0
 38 44  1  0  0  0
 44 45  1  0  0  0
 38 39  1  0  0  0
 20 21  2  0  0  0
 21 22  1  0  0  0
 22 17  2  0  0  0
 11  1  1  0  0  0
 39 34  2  0  0  0
 10  3  1  0  0  0
 32 30  1  0  0  0
 28 26  1  0  0  0
 12 13  1  0  0  0
M  END
> <minimizedAffinity>
-9.31893

$$$$



 45 50  0  0  0  0  0  0  0  0999 V2000
    0.2186   65.8587   81.3312 C   0  0  0  0  0  0  0  0  0  0  0  0
    0.3667   67.1596   81.2317 N   0  0  0  0  0  0  0  0  0  0  0  0
    1.3026   67.4827   82.1605 C   0  0  0  0  0  0  0  0  0  0  0  0
    1.7323   66.3885   82.8464 C   0  0  0  0  0  0  0  0  0  0  0  0
    2.6757   66.4657   83.9073 C   0  0  0  0  0  0  0  0  0  0  0  0
    3.0050   65.4910   84.5772 O   0  0  0  0  0  0  0  0  0  0  0  0
    3.1534   67.7625   84.1241 N   0  0  0  0  0  0  0  0  0  0  0  0
    2.7343   68.9156   83.4309 C   0  0  0  0  0  0  0  0  0  0  0  0
    3.1885   70.0322   83.6969 O   0  0  0  0  0  0  0  0  0  0  0  0
    1.7774   68.7438   82.4278 N   0  0  0  0  0  0  0  0  0  0  0  0
    1.0646   65.3312   82.2822 N   0  0  0  0  0  0  0  0  0  0  0  0
   -0.7877   65.1651   80.5682 N   0  0  0  0  0  0  0  0  0  0  0  0
   -1.5005   64.5902   81.0042 H   0  0  0  0  0  0  0  0  0  0  0  0
   -0.3405   64.6491   79.0379 S   0  0  0  0  0  0  0  0  0  0  0  0
    1.0824   64.3860   79.1245 O   0  0  0  0  0  0  0  0  0  0  0  0
   -0.8443   65.5862   78.0555 O   0  0  0  0  0  0  0  0  0  0  0  0
   -2.4597   60.6322   78.5704 C   0  0  0  0  0  0  0  0  0  0  0  0
   -1.6825   60.8934   79.7035 C   0  0  0  0  0  0  0  0  0  0  0  0
   -1.0305   62.1181   79.8543 C   0  0  0  0  0  0  0  0  0  0  0  0
   -1.1564   63.0870   78.8581 C   0  0  0  0  0  0  0  0  0  0  0  0
   -1.9479   62.8483   77.7315 C   0  0  0  0  0  0  0  0  0  0  0  0
   -2.5952   61.6164   77.5877 C   0  0  0  0  0  0  0  0  0  0  0  0
   -3.4318   58.8427   79.7969 C   0  0  0  0  0  0  0  0  0  0  0  0
   -3.0295   59.3891   78.5474 O   0  0  0  0  0  0  0  0  0  0  0  0
    4.1290   67.9355   85.1908 C   0  0  0  0  0  0  0  0  0  0  0  0
    5.5278   67.7834   84.6582 C   0  0  0  0  0  0  0  0  0  0  0  0
    6.6794   67.5669   85.6075 C   0  0  0  0  0  0  0  0  0  0  0  0
    6.2384   66.4541   84.6974 C   0  0  0  0  0  0  0  0  0  0  0  0
    1.2774   69.9059   81.7028 C   0  0  0  0  0  0  0  0  0  0  0  0
    2.0711   70.1293   80.4470 C   0  0  0  0  0  0  0  0  0  0  0  0
    3.5674   69.9403   80.4260 C   0  0  0  0  0  0  0  0  0  0  0  0
    2.9857   71.3232   80.3307 C   0  0  0  0  0  0  0  0  0  0  0  0
    1.2112   63.9273   82.6257 C   0  0  0  0  0  0  0  0  0  0  0  0
    0.2764   63.5143   83.7390 C   0  0  0  0  0  0  0  0  0  0  0  0
    0.4733   63.9678   85.0552 C   0  0  0  0  0  0  0  0  0  0  0  0
   -0.3857   63.5758   86.0855 C   0  0  0  0  0  0  0  0  0  0  0  0
   -1.4522   62.7115   85.7884 C   0  0  0  0  0  0  0  0  0  0  0  0
   -1.6630   62.2348   84.4844 C   0  0  0  0  0  0  0  0  0  0  0  0
   -0.7943   62.6440   83.4695 C   0  0  0  0  0  0  0  0  0  0  0  0
   -0.2598   63.9630   87.3947 O   0  0  0  0  0  0  0  0  0  0  0  0
    0.7924   63.3736   88.1494 C   0  0  0  0  0  0  0  0  0  0  0  0
   -2.2723   62.2733   86.8056 O   0  0  0  0  0  0  0  0  0  0  0  0
   -3.1578   63.3206   87.1973 C   0  0  0  0  0  0  0  0  0  0  0  0
   -2.7302   61.3921   84.3100 O   0  0  0  0  0  0  0  0  0  0  0  0
   -2.8837   60.7820   83.0361 C   0  0  0  0  0  0  0  0  0  0  0  0
 23 24  1  0  0  0
 24 17  1  0  0  0
 17 18  1  0  0  0
 18 19  2  0  0  0
 19 20  1  0  0  0
 20 14  1  0  0  0
 14 15  2  0  0  0
 14 16  2  0  0  0
 14 12  1  0  0  0
 12  1  1  0  0  0
  1  2  2  0  0  0
  2  3  1  0  0  0
  3  4  2  0  0  0
  4  5  1  0  0  0
  5  6  2  0  0  0
  5  7  1  0  0  0
  7 25  1  0  0  0
 25 26  1  0  0  0
 26 27  1  0  0  0
 27 28  1  0  0  0
  7  8  1  0  0  0
  8  9  2  0  0  0
  8 10  1  0  0  0
 10 29  1  0  0  0
 29 30  1  0  0  0
 30 31  1  0  0  0
 31 32  1  0  0  0
  4 11  1  0  0  0
 11 33  1  0  0  0
 33 34  1  0  0  0
 34 35  1  0  0  0
 35 36  2  0  0  0
 36 40  1  0  0  0
 40 41  1  0  0  0
 36 37  1  0  0  0
 37 42  1  0  0  0
 42 43  1  0  0  0
 37 38  2  0  0  0
 38 44  1  0  0  0
 44 45  1  0  0  0
 38 39  1  0  0  0
 20 21  2  0  0  0
 21 22  1  0  0  0
 22 17  2  0  0  0
 11  1  1  0  0  0
 39 34  2  0  0  0
 10  3  1  0  0  0
 32 30  1  0  0  0
 28 26  1  0  0  0
 12 13  1  0  0  0
M  END
> <minimizedAffinity>
-8.85380

$$$$



 45 50  0  0  0  0  0  0  0  0999 V2000
   -0.0512   65.7762   80.2956 C   0  0  0  0  0  0  0  0  0  0  0  0
   -0.4791   65.0948   81.3333 N   0  0  0  0  0  0  0  0  0  0  0  0
    0.3982   65.3773   82.3301 C   0  0  0  0  0  0  0  0  0  0  0  0
    1.3783   66.2256   81.9150 C   0  0  0  0  0  0  0  0  0  0  0  0
    2.4481   66.6373   82.7561 C   0  0  0  0  0  0  0  0  0  0  0  0
    3.3738   67.3396   82.3598 O   0  0  0  0  0  0  0  0  0  0  0  0
    2.3498   66.1318   84.0568 N   0  0  0  0  0  0  0  0  0  0  0  0
    1.3480   65.2563   84.5210 C   0  0  0  0  0  0  0  0  0  0  0  0
    1.3429   64.8348   85.6813 O   0  0  0  0  0  0  0  0  0  0  0  0
    0.3577   64.8804   83.6101 N   0  0  0  0  0  0  0  0  0  0  0  0
    1.0653   66.5191   80.6120 N   0  0  0  0  0  0  0  0  0  0  0  0
   -0.6764   65.6351   79.0053 N   0  0  0  0  0  0  0  0  0  0  0  0
   -1.6535   65.8571   78.8472 H   0  0  0  0  0  0  0  0  0  0  0  0
   -0.0895   64.4125   78.0210 S   0  0  0  0  0  0  0  0  0  0  0  0
    1.1825   64.0316   78.6029 O   0  0  0  0  0  0  0  0  0  0  0  0
   -0.1529   64.8440   76.6401 O   0  0  0  0  0  0  0  0  0  0  0  0
   -3.0056   60.9674   78.7085 C   0  0  0  0  0  0  0  0  0  0  0  0
   -1.9020   61.1378   79.5508 C   0  0  0  0  0  0  0  0  0  0  0  0
   -1.0051   62.1876   79.3475 C   0  0  0  0  0  0  0  0  0  0  0  0
   -1.2152   63.0711   78.2881 C   0  0  0  0  0  0  0  0  0  0  0  0
   -2.3258   62.9263   77.4524 C   0  0  0  0  0  0  0  0  0  0  0  0
   -3.2178   61.8691   77.6623 C   0  0  0  0  0  0  0  0  0  0  0  0
   -3.3900   59.0947   80.1216 C   0  0  0  0  0  0  0  0  0  0  0  0
   -3.7926   59.8918   79.0151 O   0  0  0  0  0  0  0  0  0  0  0  0
    3.4023   66.5063   84.9904 C   0  0  0  0  0  0  0  0  0  0  0  0
    4.5204   65.5002   84.9585 C   0  0  0  0  0  0  0  0  0  0  0  0
    5.9533   65.9579   85.0663 C   0  0  0  0  0  0  0  0  0  0  0  0
    5.3254   65.1874   86.1946 C   0  0  0  0  0  0  0  0  0  0  0  0
   -0.6830   63.9462   84.0227 C   0  0  0  0  0  0  0  0  0  0  0  0
   -0.1772   62.5326   83.9722 C   0  0  0  0  0  0  0  0  0  0  0  0
    0.5193   61.9968   82.7462 C   0  0  0  0  0  0  0  0  0  0  0  0
   -0.8610   61.5138   83.0947 C   0  0  0  0  0  0  0  0  0  0  0  0
    1.7768   67.4286   79.7306 C   0  0  0  0  0  0  0  0  0  0  0  0
    1.6586   68.8660   80.1821 C   0  0  0  0  0  0  0  0  0  0  0  0
    0.4463   69.3692   80.6857 C   0  0  0  0  0  0  0  0  0  0  0  0
    0.3359   70.7017   81.0923 C   0  0  0  0  0  0  0  0  0  0  0  0
    1.4579   71.5396   80.9848 C   0  0  0  0  0  0  0  0  0  0  0  0
    2.6766   71.0643   80.4738 C   0  0  0  0  0  0  0  0  0  0  0  0
    2.7648   69.7273   80.0780 C   0  0  0  0  0  0  0  0  0  0  0  0
   -0.8088   71.2739   81.5843 O   0  0  0  0  0  0  0  0  0  0  0  0
   -1.5617   72.0913   80.6959 C   0  0  0  0  0  0  0  0  0  0  0  0
    1.3460   72.8691   81.3298 O   0  0  0  0  0  0  0  0  0  0  0  0
    1.8104   73.0626   82.6644 C   0  0  0  0  0  0  0  0  0  0  0  0
    3.7034   71.9704   80.4083 O   0  0  0  0  0  0  0  0  0  0  0  0
    4.9598   71.5058   79.9349 C   0  0  0  0  0  0  0  0  0  0  0  0
 23 24  1  0  0  0
 24 17  1  0  0  0
 17 18  1  0  0  0
 18 19  2  0  0  0
 19 20  1  0  0  0
 20 14  1  0  0  0
 14 15  2  0  0  0
 14 16  2  0  0  0
 14 12  1  0  0  0
 12  1  1  0  0  0
  1  2  2  0  0  0
  2  3  1  0  0  0
  3  4  2  0  0  0
  4  5  1  0  0  0
  5  6  2  0  0  0
  5  7  1  0  0  0
  7 25  1  0  0  0
 25 26  1  0  0  0
 26 27  1  0  0  0
 27 28  1  0  0  0
  7  8  1  0  0  0
  8  9  2  0  0  0
  8 10  1  0  0  0
 10 29  1  0  0  0
 29 30  1  0  0  0
 30 31  1  0  0  0
 31 32  1  0  0  0
  4 11  1  0  0  0
 11 33  1  0  0  0
 33 34  1  0  0  0
 34 35  1  0  0  0
 35 36  2  0  0  0
 36 40  1  0  0  0
 40 41  1  0  0  0
 36 37  1  0  0  0
 37 42  1  0  0  0
 42 43  1  0  0  0
 37 38  2  0  0  0
 38 44  1  0  0  0
 44 45  1  0  0  0
 38 39  1  0  0  0
 20 21  2  0  0  0
 21 22  1  0  0  0
 22 17  2  0  0  0
 11  1  1  0  0  0
 39 34  2  0  0  0
 10  3  1  0  0  0
 32 30  1  0  0  0
 28 26  1  0  0  0
 12 13  1  0  0  0
M  END
> <minimizedAffinity>
-8.75460

$$$$



 45 50  0  0  0  0  0  0  0  0999 V2000
   -0.0638   65.8259   80.2643 C   0  0  0  0  0  0  0  0  0  0  0  0
   -0.4708   65.1489   81.3132 N   0  0  0  0  0  0  0  0  0  0  0  0
    0.4222   65.4413   82.2931 C   0  0  0  0  0  0  0  0  0  0  0  0
    1.3912   66.2914   81.8562 C   0  0  0  0  0  0  0  0  0  0  0  0
    2.4733   66.7129   82.6764 C   0  0  0  0  0  0  0  0  0  0  0  0
    3.3889   67.4169   82.2601 O   0  0  0  0  0  0  0  0  0  0  0  0
    2.3996   66.2147   83.9816 N   0  0  0  0  0  0  0  0  0  0  0  0
    1.4099   65.3375   84.4681 C   0  0  0  0  0  0  0  0  0  0  0  0
    1.4266   64.9229   85.6307 O   0  0  0  0  0  0  0  0  0  0  0  0
    0.4059   64.9518   83.5766 N   0  0  0  0  0  0  0  0  0  0  0  0
    1.0545   66.5757   80.5571 N   0  0  0  0  0  0  0  0  0  0  0  0
   -0.7105   65.6744   78.9858 N   0  0  0  0  0  0  0  0  0  0  0  0
   -1.7029   65.8386   78.8554 H   0  0  0  0  0  0  0  0  0  0  0  0
   -0.0735   64.5123   77.9602 S   0  0  0  0  0  0  0  0  0  0  0  0
    1.2494   64.2280   78.4803 O   0  0  0  0  0  0  0  0  0  0  0  0
   -0.2328   64.9512   76.5893 O   0  0  0  0  0  0  0  0  0  0  0  0
   -2.6429   60.8173   78.7279 C   0  0  0  0  0  0  0  0  0  0  0  0
   -2.9914   61.7234   77.7210 C   0  0  0  0  0  0  0  0  0  0  0  0
   -2.2122   62.8560   77.4800 C   0  0  0  0  0  0  0  0  0  0  0  0
   -1.0765   63.0830   78.2582 C   0  0  0  0  0  0  0  0  0  0  0  0
   -0.7039   62.1744   79.2524 C   0  0  0  0  0  0  0  0  0  0  0  0
   -1.4928   61.0435   79.4887 C   0  0  0  0  0  0  0  0  0  0  0  0
   -3.4121   59.0091   80.0660 C   0  0  0  0  0  0  0  0  0  0  0  0
   -3.5013   59.7611   78.8626 O   0  0  0  0  0  0  0  0  0  0  0  0
    3.4662   66.5994   84.8948 C   0  0  0  0  0  0  0  0  0  0  0  0
    4.5857   65.5952   84.8537 C   0  0  0  0  0  0  0  0  0  0  0  0
    6.0197   66.0576   84.9194 C   0  0  0  0  0  0  0  0  0  0  0  0
    5.4206   65.3056   86.0755 C   0  0  0  0  0  0  0  0  0  0  0  0
   -0.6234   64.0155   84.0124 C   0  0  0  0  0  0  0  0  0  0  0  0
   -0.1025   62.6066   83.9901 C   0  0  0  0  0  0  0  0  0  0  0  0
    0.5726   62.0441   82.7641 C   0  0  0  0  0  0  0  0  0  0  0  0
   -0.7939   61.5560   83.1571 C   0  0  0  0  0  0  0  0  0  0  0  0
    1.7466   67.4831   79.6583 C   0  0  0  0  0  0  0  0  0  0  0  0
    1.6723   68.9168   80.1303 C   0  0  0  0  0  0  0  0  0  0  0  0
    2.8263   69.7169   80.1994 C   0  0  0  0  0  0  0  0  0  0  0  0
    2.7573   71.0391   80.6468 C   0  0  0  0  0  0  0  0  0  0  0  0
    1.5124   71.5602   81.0355 C   0  0  0  0  0  0  0  0  0  0  0  0
    0.3472   70.7779   80.9873 C   0  0  0  0  0  0  0  0  0  0  0  0
    0.4395   69.4602   80.5321 C   0  0  0  0  0  0  0  0  0  0  0  0
    3.8329   71.8825   80.7539 O   0  0  0  0  0  0  0  0  0  0  0  0
    4.9529   71.6187   79.9171 C   0  0  0  0  0  0  0  0  0  0  0  0
    1.4405   72.8441   81.5312 O   0  0  0  0  0  0  0  0  0  0  0  0
    1.8480   72.8578   82.8980 C   0  0  0  0  0  0  0  0  0  0  0  0
   -0.8114   71.3865   81.3958 O   0  0  0  0  0  0  0  0  0  0  0  0
   -1.5179   72.1631   80.4385 C   0  0  0  0  0  0  0  0  0  0  0  0
 23 24  1  0  0  0
 24 17  1  0  0  0
 17 18  1  0  0  0
 18 19  2  0  0  0
 19 20  1  0  0  0
 20 14  1  0  0  0
 14 15  2  0  0  0
 14 16  2  0  0  0
 14 12  1  0  0  0
 12  1  1  0  0  0
  1  2  2  0  0  0
  2  3  1  0  0  0
  3  4  2  0  0  0
  4  5  1  0  0  0
  5  6  2  0  0  0
  5  7  1  0  0  0
  7 25  1  0  0  0
 25 26  1  0  0  0
 26 27  1  0  0  0
 27 28  1  0  0  0
  7  8  1  0  0  0
  8  9  2  0  0  0
  8 10  1  0  0  0
 10 29  1  0  0  0
 29 30  1  0  0  0
 30 31  1  0  0  0
 31 32  1  0  0  0
  4 11  1  0  0  0
 11 33  1  0  0  0
 33 34  1  0  0  0
 34 35  1  0  0  0
 35 36  2  0  0  0
 36 40  1  0  0  0
 40 41  1  0  0  0
 36 37  1  0  0  0
 37 42  1  0  0  0
 42 43  1  0  0  0
 37 38  2  0  0  0
 38 44  1  0  0  0
 44 45  1  0  0  0
 38 39  1  0  0  0
 20 21  2  0  0  0
 21 22  1  0  0  0
 22 17  2  0  0  0
 11  1  1  0  0  0
 39 34  2  0  0  0
 10  3  1  0  0  0
 32 30  1  0  0  0
 28 26  1  0  0  0
 12 13  1  0  0  0
M  END
> <minimizedAffinity>
-8.60892

$$$$



 45 50  0  0  0  0  0  0  0  0999 V2000
    1.9113   67.2483   82.0262 C   0  0  0  0  0  0  0  0  0  0  0  0
    2.9068   67.2408   82.8825 N   0  0  0  0  0  0  0  0  0  0  0  0
    2.5500   66.3406   83.8340 C   0  0  0  0  0  0  0  0  0  0  0  0
    1.3302   65.7931   83.5794 C   0  0  0  0  0  0  0  0  0  0  0  0
    0.7079   64.8586   84.4517 C   0  0  0  0  0  0  0  0  0  0  0  0
   -0.4245   64.4238   84.2627 O   0  0  0  0  0  0  0  0  0  0  0  0
    1.5027   64.5215   85.5525 N   0  0  0  0  0  0  0  0  0  0  0  0
    2.7698   65.0647   85.8442 C   0  0  0  0  0  0  0  0  0  0  0  0
    3.4013   64.7315   86.8512 O   0  0  0  0  0  0  0  0  0  0  0  0
    3.2837   66.0024   84.9451 N   0  0  0  0  0  0  0  0  0  0  0  0
    0.9346   66.3464   82.3881 N   0  0  0  0  0  0  0  0  0  0  0  0
    1.8850   68.1780   80.9259 N   0  0  0  0  0  0  0  0  0  0  0  0
    2.5850   68.1718   80.1918 H   0  0  0  0  0  0  0  0  0  0  0  0
    1.2489   69.6950   81.2455 S   0  0  0  0  0  0  0  0  0  0  0  0
    1.0239   69.7206   82.6773 O   0  0  0  0  0  0  0  0  0  0  0  0
    0.1511   69.9500   80.3361 O   0  0  0  0  0  0  0  0  0  0  0  0
    4.6898   72.5600   80.3529 C   0  0  0  0  0  0  0  0  0  0  0  0
    4.7408   71.2345   79.9092 C   0  0  0  0  0  0  0  0  0  0  0  0
    3.6940   70.3517   80.1783 C   0  0  0  0  0  0  0  0  0  0  0  0
    2.5888   70.8016   80.9017 C   0  0  0  0  0  0  0  0  0  0  0  0
    2.5142   72.1291   81.3316 C   0  0  0  0  0  0  0  0  0  0  0  0
    3.5699   73.0059   81.0597 C   0  0  0  0  0  0  0  0  0  0  0  0
    6.5508   72.8823   78.9090 C   0  0  0  0  0  0  0  0  0  0  0  0
    5.7879   73.3089   80.0305 O   0  0  0  0  0  0  0  0  0  0  0  0
    0.9461   63.5652   86.4987 C   0  0  0  0  0  0  0  0  0  0  0  0
   -0.0635   64.2321   87.3929 C   0  0  0  0  0  0  0  0  0  0  0  0
   -1.4337   63.6275   87.5697 C   0  0  0  0  0  0  0  0  0  0  0  0
   -0.4589   63.6235   88.7146 C   0  0  0  0  0  0  0  0  0  0  0  0
    4.5732   66.6271   85.2149 C   0  0  0  0  0  0  0  0  0  0  0  0
    5.6956   65.6678   84.9376 C   0  0  0  0  0  0  0  0  0  0  0  0
    7.0001   65.7554   85.6897 C   0  0  0  0  0  0  0  0  0  0  0  0
    6.9446   66.1442   84.2386 C   0  0  0  0  0  0  0  0  0  0  0  0
   -0.2826   66.0488   81.6530 C   0  0  0  0  0  0  0  0  0  0  0  0
   -0.0510   65.0337   80.5576 C   0  0  0  0  0  0  0  0  0  0  0  0
   -0.2281   65.3750   79.2053 C   0  0  0  0  0  0  0  0  0  0  0  0
   -0.0242   64.4318   78.1944 C   0  0  0  0  0  0  0  0  0  0  0  0
    0.3564   63.1274   78.5496 C   0  0  0  0  0  0  0  0  0  0  0  0
    0.5280   62.7583   79.8936 C   0  0  0  0  0  0  0  0  0  0  0  0
    0.3233   63.7193   80.8869 C   0  0  0  0  0  0  0  0  0  0  0  0
   -0.1842   64.6782   76.8552 O   0  0  0  0  0  0  0  0  0  0  0  0
   -1.4907   65.0199   76.4077 C   0  0  0  0  0  0  0  0  0  0  0  0
    0.5058   62.1739   77.5658 O   0  0  0  0  0  0  0  0  0  0  0  0
   -0.7228   61.4734   77.3814 C   0  0  0  0  0  0  0  0  0  0  0  0
    0.8947   61.4577   80.1251 O   0  0  0  0  0  0  0  0  0  0  0  0
    1.0887   61.0606   81.4754 C   0  0  0  0  0  0  0  0  0  0  0  0
 23 24  1  0  0  0
 24 17  1  0  0  0
 17 18  1  0  0  0
 18 19  2  0  0  0
 19 20  1  0  0  0
 20 14  1  0  0  0
 14 15  2  0  0  0
 14 16  2  0  0  0
 14 12  1  0  0  0
 12  1  1  0  0  0
  1  2  2  0  0  0
  2  3  1  0  0  0
  3  4  2  0  0  0
  4  5  1  0  0  0
  5  6  2  0  0  0
  5  7  1  0  0  0
  7 25  1  0  0  0
 25 26  1  0  0  0
 26 27  1  0  0  0
 27 28  1  0  0  0
  7  8  1  0  0  0
  8  9  2  0  0  0
  8 10  1  0  0  0
 10 29  1  0  0  0
 29 30  1  0  0  0
 30 31  1  0  0  0
 31 32  1  0  0  0
  4 11  1  0  0  0
 11 33  1  0  0  0
 33 34  1  0  0  0
 34 35  1  0  0  0
 35 36  2  0  0  0
 36 40  1  0  0  0
 40 41  1  0  0  0
 36 37  1  0  0  0
 37 42  1  0  0  0
 42 43  1  0  0  0
 37 38  2  0  0  0
 38 44  1  0  0  0
 44 45  1  0  0  0
 38 39  1  0  0  0
 20 21  2  0  0  0
 21 22  1  0  0  0
 22 17  2  0  0  0
 11  1  1  0  0  0
 39 34  2  0  0  0
 10  3  1  0  0  0
 32 30  1  0  0  0
 28 26  1  0  0  0
 12 13  1  0  0  0
M  END
> <minimizedAffinity>
-8.36866

$$$$



 45 50  0  0  0  0  0  0  0  0999 V2000
    1.8880   67.2511   81.9756 C   0  0  0  0  0  0  0  0  0  0  0  0
    2.8897   67.2616   82.8245 N   0  0  0  0  0  0  0  0  0  0  0  0
    2.5473   66.3698   83.7891 C   0  0  0  0  0  0  0  0  0  0  0  0
    1.3301   65.8097   83.5501 C   0  0  0  0  0  0  0  0  0  0  0  0
    0.7218   64.8806   84.4380 C   0  0  0  0  0  0  0  0  0  0  0  0
   -0.4084   64.4346   84.2626 O   0  0  0  0  0  0  0  0  0  0  0  0
    1.5274   64.5628   85.5366 N   0  0  0  0  0  0  0  0  0  0  0  0
    2.7922   65.1195   85.8124 C   0  0  0  0  0  0  0  0  0  0  0  0
    3.4338   64.8031   86.8185 O   0  0  0  0  0  0  0  0  0  0  0  0
    3.2919   66.0505   84.8986 N   0  0  0  0  0  0  0  0  0  0  0  0
    0.9212   66.3457   82.3554 N   0  0  0  0  0  0  0  0  0  0  0  0
    1.8460   68.1676   80.8647 N   0  0  0  0  0  0  0  0  0  0  0  0
    2.5483   68.1675   80.1329 H   0  0  0  0  0  0  0  0  0  0  0  0
    1.1778   69.6746   81.1652 S   0  0  0  0  0  0  0  0  0  0  0  0
    0.9197   69.7002   82.5915 O   0  0  0  0  0  0  0  0  0  0  0  0
    0.0970   69.9090   80.2303 O   0  0  0  0  0  0  0  0  0  0  0  0
    4.6152   72.5690   80.3579 C   0  0  0  0  0  0  0  0  0  0  0  0
    3.4408   73.0197   80.9693 C   0  0  0  0  0  0  0  0  0  0  0  0
    2.3847   72.1422   81.2191 C   0  0  0  0  0  0  0  0  0  0  0  0
    2.5067   70.8024   80.8488 C   0  0  0  0  0  0  0  0  0  0  0  0
    3.6829   70.3334   80.2577 C   0  0  0  0  0  0  0  0  0  0  0  0
    4.7350   71.2213   80.0086 C   0  0  0  0  0  0  0  0  0  0  0  0
    5.5258   74.6570   81.0381 C   0  0  0  0  0  0  0  0  0  0  0  0
    5.5607   73.5376   80.1621 O   0  0  0  0  0  0  0  0  0  0  0  0
    0.9855   63.6133   86.4981 C   0  0  0  0  0  0  0  0  0  0  0  0
   -0.1258   64.2420   87.2938 C   0  0  0  0  0  0  0  0  0  0  0  0
   -1.4339   63.5134   87.4730 C   0  0  0  0  0  0  0  0  0  0  0  0
   -0.5162   63.7069   88.6484 C   0  0  0  0  0  0  0  0  0  0  0  0
    4.5783   66.6886   85.1513 C   0  0  0  0  0  0  0  0  0  0  0  0
    5.7011   65.7060   84.9766 C   0  0  0  0  0  0  0  0  0  0  0  0
    6.9726   65.8238   85.7794 C   0  0  0  0  0  0  0  0  0  0  0  0
    6.9845   66.1325   84.3082 C   0  0  0  0  0  0  0  0  0  0  0  0
   -0.2989   66.0299   81.6330 C   0  0  0  0  0  0  0  0  0  0  0  0
   -0.0773   64.9685   80.5803 C   0  0  0  0  0  0  0  0  0  0  0  0
    0.3002   63.6622   80.9377 C   0  0  0  0  0  0  0  0  0  0  0  0
    0.5156   62.6850   79.9621 C   0  0  0  0  0  0  0  0  0  0  0  0
    0.3552   63.0287   78.6098 C   0  0  0  0  0  0  0  0  0  0  0  0
   -0.0094   64.3295   78.2264 C   0  0  0  0  0  0  0  0  0  0  0  0
   -0.2241   65.2887   79.2194 C   0  0  0  0  0  0  0  0  0  0  0  0
    0.8941   61.3934   80.2233 O   0  0  0  0  0  0  0  0  0  0  0  0
    1.2213   61.0706   81.5697 C   0  0  0  0  0  0  0  0  0  0  0  0
    0.6191   62.0896   77.6364 O   0  0  0  0  0  0  0  0  0  0  0  0
   -0.5851   61.4154   77.2764 C   0  0  0  0  0  0  0  0  0  0  0  0
   -0.1316   64.5549   76.8796 O   0  0  0  0  0  0  0  0  0  0  0  0
   -1.3760   65.0520   76.4073 C   0  0  0  0  0  0  0  0  0  0  0  0
 23 24  1  0  0  0
 24 17  1  0  0  0
 17 18  1  0  0  0
 18 19  2  0  0  0
 19 20  1  0  0  0
 20 14  1  0  0  0
 14 15  2  0  0  0
 14 16  2  0  0  0
 14 12  1  0  0  0
 12  1  1  0  0  0
  1  2  2  0  0  0
  2  3  1  0  0  0
  3  4  2  0  0  0
  4  5  1  0  0  0
  5  6  2  0  0  0
  5  7  1  0  0  0
  7 25  1  0  0  0
 25 26  1  0  0  0
 26 27  1  0  0  0
 27 28  1  0  0  0
  7  8  1  0  0  0
  8  9  2  0  0  0
  8 10  1  0  0  0
 10 29  1  0  0  0
 29 30  1  0  0  0
 30 31  1  0  0  0
 31 32  1  0  0  0
  4 11  1  0  0  0
 11 33  1  0  0  0
 33 34  1  0  0  0
 34 35  1  0  0  0
 35 36  2  0  0  0
 36 40  1  0  0  0
 40 41  1  0  0  0
 36 37  1  0  0  0
 37 42  1  0  0  0
 42 43  1  0  0  0
 37 38  2  0  0  0
 38 44  1  0  0  0
 44 45  1  0  0  0
 38 39  1  0  0  0
 20 21  2  0  0  0
 21 22  1  0  0  0
 22 17  2  0  0  0
 11  1  1  0  0  0
 39 34  2  0  0  0
 10  3  1  0  0  0
 32 30  1  0  0  0
 28 26  1  0  0  0
 12 13  1  0  0  0
M  END
> <minimizedAffinity>
-8.34787

$$$$



 45 50  0  0  0  0  0  0  0  0999 V2000
    0.6394   66.6904   81.3599 C   0  0  0  0  0  0  0  0  0  0  0  0
    0.6209   65.8129   82.3365 N   0  0  0  0  0  0  0  0  0  0  0  0
    1.6999   66.1125   83.1038 C   0  0  0  0  0  0  0  0  0  0  0  0
    2.3979   67.1685   82.6037 C   0  0  0  0  0  0  0  0  0  0  0  0
    3.5979   67.6488   83.1958 C   0  0  0  0  0  0  0  0  0  0  0  0
    4.2692   68.5503   82.7019 O   0  0  0  0  0  0  0  0  0  0  0  0
    3.9436   66.9666   84.3671 N   0  0  0  0  0  0  0  0  0  0  0  0
    3.2428   65.8736   84.9148 C   0  0  0  0  0  0  0  0  0  0  0  0
    3.6255   65.3084   85.9433 O   0  0  0  0  0  0  0  0  0  0  0  0
    2.0935   65.4516   84.2420 N   0  0  0  0  0  0  0  0  0  0  0  0
    1.6896   67.5713   81.5000 N   0  0  0  0  0  0  0  0  0  0  0  0
   -0.3033   66.6123   80.2731 N   0  0  0  0  0  0  0  0  0  0  0  0
   -1.2800   66.8638   80.3813 H   0  0  0  0  0  0  0  0  0  0  0  0
   -0.0324   65.4129   79.1347 S   0  0  0  0  0  0  0  0  0  0  0  0
    1.4055   65.3753   78.9546 O   0  0  0  0  0  0  0  0  0  0  0  0
   -0.8984   65.6360   77.9957 O   0  0  0  0  0  0  0  0  0  0  0  0
   -1.2378   61.5759   81.2956 C   0  0  0  0  0  0  0  0  0  0  0  0
   -0.1073   61.5979   80.4723 C   0  0  0  0  0  0  0  0  0  0  0  0
    0.2680   62.7661   79.8073 C   0  0  0  0  0  0  0  0  0  0  0  0
   -0.4996   63.9204   79.9667 C   0  0  0  0  0  0  0  0  0  0  0  0
   -1.6184   63.9190   80.8039 C   0  0  0  0  0  0  0  0  0  0  0  0
   -1.9885   62.7424   81.4641 C   0  0  0  0  0  0  0  0  0  0  0  0
   -2.8430   59.9110   81.8463 C   0  0  0  0  0  0  0  0  0  0  0  0
   -1.4953   60.3634   81.8736 O   0  0  0  0  0  0  0  0  0  0  0  0
    5.1587   67.3952   85.0450 C   0  0  0  0  0  0  0  0  0  0  0  0
    6.3412   66.5982   84.5657 C   0  0  0  0  0  0  0  0  0  0  0  0
    7.7423   67.0666   84.8687 C   0  0  0  0  0  0  0  0  0  0  0  0
    7.2065   65.8273   85.5305 C   0  0  0  0  0  0  0  0  0  0  0  0
    1.3488   64.3013   84.7405 C   0  0  0  0  0  0  0  0  0  0  0  0
    0.4436   64.7044   85.8696 C   0  0  0  0  0  0  0  0  0  0  0  0
    0.5713   64.0749   87.2343 C   0  0  0  0  0  0  0  0  0  0  0  0
   -0.6150   63.7529   86.3690 C   0  0  0  0  0  0  0  0  0  0  0  0
    1.9913   68.7010   80.6380 C   0  0  0  0  0  0  0  0  0  0  0  0
    1.3775   69.9845   81.1478 C   0  0  0  0  0  0  0  0  0  0  0  0
    0.0692   70.3536   80.7890 C   0  0  0  0  0  0  0  0  0  0  0  0
   -0.4927   71.5463   81.2524 C   0  0  0  0  0  0  0  0  0  0  0  0
    0.2742   72.3808   82.0819 C   0  0  0  0  0  0  0  0  0  0  0  0
    1.5874   72.0405   82.4448 C   0  0  0  0  0  0  0  0  0  0  0  0
    2.1266   70.8409   81.9735 C   0  0  0  0  0  0  0  0  0  0  0  0
   -1.7544   71.9849   80.9434 O   0  0  0  0  0  0  0  0  0  0  0  0
   -1.9712   72.4648   79.6217 C   0  0  0  0  0  0  0  0  0  0  0  0
   -0.2483   73.5858   82.4995 O   0  0  0  0  0  0  0  0  0  0  0  0
    0.1433   74.6202   81.5989 C   0  0  0  0  0  0  0  0  0  0  0  0
    2.2452   72.9313   83.2532 O   0  0  0  0  0  0  0  0  0  0  0  0
    3.4545   73.4936   82.7633 C   0  0  0  0  0  0  0  0  0  0  0  0
 23 24  1  0  0  0
 24 17  1  0  0  0
 17 18  1  0  0  0
 18 19  2  0  0  0
 19 20  1  0  0  0
 20 14  1  0  0  0
 14 15  2  0  0  0
 14 16  2  0  0  0
 14 12  1  0  0  0
 12  1  1  0  0  0
  1  2  2  0  0  0
  2  3  1  0  0  0
  3  4  2  0  0  0
  4  5  1  0  0  0
  5  6  2  0  0  0
  5  7  1  0  0  0
  7 25  1  0  0  0
 25 26  1  0  0  0
 26 27  1  0  0  0
 27 28  1  0  0  0
  7  8  1  0  0  0
  8  9  2  0  0  0
  8 10  1  0  0  0
 10 29  1  0  0  0
 29 30  1  0  0  0
 30 31  1  0  0  0
 31 32  1  0  0  0
  4 11  1  0  0  0
 11 33  1  0  0  0
 33 34  1  0  0  0
 34 35  1  0  0  0
 35 36  2  0  0  0
 36 40  1  0  0  0
 40 41  1  0  0  0
 36 37  1  0  0  0
 37 42  1  0  0  0
 42 43  1  0  0  0
 37 38  2  0  0  0
 38 44  1  0  0  0
 44 45  1  0  0  0
 38 39  1  0  0  0
 20 21  2  0  0  0
 21 22  1  0  0  0
 22 17  2  0  0  0
 11  1  1  0  0  0
 39 34  2  0  0  0
 10  3  1  0  0  0
 32 30  1  0  0  0
 28 26  1  0  0  0
 12 13  1  0  0  0
M  END
> <minimizedAffinity>
-8.32934

$$$$



 45 50  0  0  0  0  0  0  0  0999 V2000
    2.0498   66.0667   82.4009 C   0  0  0  0  0  0  0  0  0  0  0  0
    1.7665   65.2297   83.3722 N   0  0  0  0  0  0  0  0  0  0  0  0
    0.5799   64.6699   83.0239 C   0  0  0  0  0  0  0  0  0  0  0  0
    0.1164   65.1621   81.8426 C   0  0  0  0  0  0  0  0  0  0  0  0
   -1.1313   64.7736   81.2826 C   0  0  0  0  0  0  0  0  0  0  0  0
   -1.5855   65.2743   80.2578 O   0  0  0  0  0  0  0  0  0  0  0  0
   -1.7917   63.7978   82.0367 N   0  0  0  0  0  0  0  0  0  0  0  0
   -1.3395   63.2637   83.2599 C   0  0  0  0  0  0  0  0  0  0  0  0
   -1.9930   62.4189   83.8788 O   0  0  0  0  0  0  0  0  0  0  0  0
   -0.1176   63.7333   83.7476 N   0  0  0  0  0  0  0  0  0  0  0  0
    1.0864   66.0336   81.4164 N   0  0  0  0  0  0  0  0  0  0  0  0
    3.1962   66.9358   82.4798 N   0  0  0  0  0  0  0  0  0  0  0  0
    4.1233   66.6405   82.1933 H   0  0  0  0  0  0  0  0  0  0  0  0
    3.1950   68.0620   83.7207 S   0  0  0  0  0  0  0  0  0  0  0  0
    1.8222   68.1195   84.1827 O   0  0  0  0  0  0  0  0  0  0  0  0
    3.8566   69.2678   83.2672 O   0  0  0  0  0  0  0  0  0  0  0  0
    5.6716   66.0883   87.0094 C   0  0  0  0  0  0  0  0  0  0  0  0
    5.0219   65.3066   86.0486 C   0  0  0  0  0  0  0  0  0  0  0  0
    4.2621   65.9014   85.0403 C   0  0  0  0  0  0  0  0  0  0  0  0
    4.1502   67.2917   84.9982 C   0  0  0  0  0  0  0  0  0  0  0  0
    4.8124   68.0860   85.9381 C   0  0  0  0  0  0  0  0  0  0  0  0
    5.5693   67.4805   86.9469 C   0  0  0  0  0  0  0  0  0  0  0  0
    5.8609   65.3856   89.2726 C   0  0  0  0  0  0  0  0  0  0  0  0
    6.3689   65.3744   87.9446 O   0  0  0  0  0  0  0  0  0  0  0  0
   -3.0780   63.3360   81.5348 C   0  0  0  0  0  0  0  0  0  0  0  0
   -2.9148   62.0579   80.7580 C   0  0  0  0  0  0  0  0  0  0  0  0
   -4.0047   61.5960   79.8237 C   0  0  0  0  0  0  0  0  0  0  0  0
   -2.6921   62.0732   79.2667 C   0  0  0  0  0  0  0  0  0  0  0  0
    0.3823   63.2454   85.0274 C   0  0  0  0  0  0  0  0  0  0  0  0
   -0.1261   64.0977   86.1552 C   0  0  0  0  0  0  0  0  0  0  0  0
    0.4916   64.0227   87.5292 C   0  0  0  0  0  0  0  0  0  0  0  0
   -0.8868   63.4697   87.2964 C   0  0  0  0  0  0  0  0  0  0  0  0
    1.0943   66.7852   80.1732 C   0  0  0  0  0  0  0  0  0  0  0  0
    1.2676   68.2681   80.4071 C   0  0  0  0  0  0  0  0  0  0  0  0
    2.3736   68.9594   79.8822 C   0  0  0  0  0  0  0  0  0  0  0  0
    2.5380   70.3285   80.1090 C   0  0  0  0  0  0  0  0  0  0  0  0
    1.5805   71.0089   80.8790 C   0  0  0  0  0  0  0  0  0  0  0  0
    0.4735   70.3389   81.4246 C   0  0  0  0  0  0  0  0  0  0  0  0
    0.3274   68.9710   81.1806 C   0  0  0  0  0  0  0  0  0  0  0  0
    3.5896   71.0747   79.6431 O   0  0  0  0  0  0  0  0  0  0  0  0
    4.8590   70.8597   80.2484 C   0  0  0  0  0  0  0  0  0  0  0  0
    1.7609   72.3467   81.1565 O   0  0  0  0  0  0  0  0  0  0  0  0
    2.3685   72.4967   82.4381 C   0  0  0  0  0  0  0  0  0  0  0  0
   -0.3942   71.1001   82.1643 O   0  0  0  0  0  0  0  0  0  0  0  0
   -1.3355   71.8961   81.4578 C   0  0  0  0  0  0  0  0  0  0  0  0
 23 24  1  0  0  0
 24 17  1  0  0  0
 17 18  1  0  0  0
 18 19  2  0  0  0
 19 20  1  0  0  0
 20 14  1  0  0  0
 14 15  2  0  0  0
 14 16  2  0  0  0
 14 12  1  0  0  0
 12  1  1  0  0  0
  1  2  2  0  0  0
  2  3  1  0  0  0
  3  4  2  0  0  0
  4  5  1  0  0  0
  5  6  2  0  0  0
  5  7  1  0  0  0
  7 25  1  0  0  0
 25 26  1  0  0  0
 26 27  1  0  0  0
 27 28  1  0  0  0
  7  8  1  0  0  0
  8  9  2  0  0  0
  8 10  1  0  0  0
 10 29  1  0  0  0
 29 30  1  0  0  0
 30 31  1  0  0  0
 31 32  1  0  0  0
  4 11  1  0  0  0
 11 33  1  0  0  0
 33 34  1  0  0  0
 34 35  1  0  0  0
 35 36  2  0  0  0
 36 40  1  0  0  0
 40 41  1  0  0  0
 36 37  1  0  0  0
 37 42  1  0  0  0
 42 43  1  0  0  0
 37 38  2  0  0  0
 38 44  1  0  0  0
 44 45  1  0  0  0
 38 39  1  0  0  0
 20 21  2  0  0  0
 21 22  1  0  0  0
 22 17  2  0  0  0
 11  1  1  0  0  0
 39 34  2  0  0  0
 10  3  1  0  0  0
 32 30  1  0  0  0
 28 26  1  0  0  0
 12 13  1  0  0  0
M  END
> <minimizedAffinity>
-8.02518

$$$$
