
     RDKit          3D

 49 53  0  0  0  0  0  0  0  0999 V2000
    7.3713    1.5449    0.4874 C   0  0  0  0  0  0  0  0  0  0  0  0
    6.2875    1.9958   -0.1542 C   0  0  0  0  0  0  0  0  0  0  0  0
    4.8863    1.4380   -0.1824 C   0  0  0  0  0  0  0  0  0  0  0  0
    4.5539    0.0182    0.3246 C   0  0  0  0  0  0  0  0  0  0  0  0
    5.3746   -1.1005   -0.3138 C   0  0  0  0  0  0  0  0  0  0  0  0
    4.5739   -0.0802    1.8754 C   0  0  0  0  0  0  0  0  0  0  0  0
    5.5423   -0.0197    2.6142 O   0  0  0  0  0  0  0  0  0  0  0  0
    3.2751   -0.2823    2.3175 N   0  0  0  0  0  0  0  0  0  0  0  0
    2.3968   -0.3899    1.2615 C   0  0  0  0  0  0  0  0  0  0  0  0
    1.0908   -0.6173    1.3698 N   0  0  0  0  0  0  0  0  0  0  0  0
    0.4711   -0.6861    0.1675 C   0  0  0  0  0  0  0  0  0  0  0  0
   -0.9813   -0.9320    0.1555 C   0  0  0  0  0  0  0  0  0  0  0  0
   -1.6784   -1.0514   -0.9955 N   0  0  0  0  0  0  0  0  0  0  0  0
   -2.9587   -1.2414   -0.6041 N   0  0  0  0  0  0  0  0  0  0  0  0
   -4.0085   -1.4040   -1.5989 C   0  0  0  0  0  0  0  0  0  0  0  0
   -4.6282   -0.0843   -1.9720 C   0  0  0  0  0  0  0  0  0  0  0  0
   -3.9095    0.8759   -2.7016 C   0  0  0  0  0  0  0  0  0  0  0  0
   -4.4969    2.0990   -3.0349 C   0  0  0  0  0  0  0  0  0  0  0  0
   -5.8073    2.3765   -2.6462 C   0  0  0  0  0  0  0  0  0  0  0  0
   -6.5310    1.4295   -1.9246 C   0  0  0  0  0  0  0  0  0  0  0  0
   -5.9398    0.2128   -1.5951 C   0  0  0  0  0  0  0  0  0  0  0  0
   -6.6607   -0.6871   -0.9119 F   0  0  0  0  0  0  0  0  0  0  0  0
   -3.1140   -1.2927    0.7521 C   0  0  0  0  0  0  0  0  0  0  0  0
   -4.2659   -1.4990    1.4254 N   0  0  0  0  0  0  0  0  0  0  0  0
   -4.1014   -1.4788    2.7696 C   0  0  0  0  0  0  0  0  0  0  0  0
   -2.8977   -1.2762    3.4254 C   0  0  0  0  0  0  0  0  0  0  0  0
   -2.8490   -1.2766    4.7637 F   0  0  0  0  0  0  0  0  0  0  0  0
   -1.7349   -1.0734    2.6906 C   0  0  0  0  0  0  0  0  0  0  0  0
   -1.8481   -1.0835    1.2876 C   0  0  0  0  0  0  0  0  0  0  0  0
    1.0991   -0.5400   -1.0399 N   0  0  0  0  0  0  0  0  0  0  0  0
    2.4421   -0.3084   -1.0946 N   0  0  0  0  0  0  0  0  0  0  0  0
    3.0771   -0.2376    0.0765 C   0  0  0  0  0  0  0  0  0  0  0  0
    8.3155    2.0773    0.4074 H   0  0  0  0  0  0  0  0  0  0  0  0
    7.3724    0.6668    1.1220 H   0  0  0  0  0  0  0  0  0  0  0  0
    6.4115    2.9080   -0.7404 H   0  0  0  0  0  0  0  0  0  0  0  0
    4.5718    1.4988   -1.2350 H   0  0  0  0  0  0  0  0  0  0  0  0
    4.2568    2.1658    0.3502 H   0  0  0  0  0  0  0  0  0  0  0  0
    6.4317   -1.0477   -0.0413 H   0  0  0  0  0  0  0  0  0  0  0  0
    5.0213   -2.0877    0.0095 H   0  0  0  0  0  0  0  0  0  0  0  0
    5.3051   -1.0702   -1.4072 H   0  0  0  0  0  0  0  0  0  0  0  0
    3.0175   -0.3916    3.2859 H   0  0  0  0  0  0  0  0  0  0  0  0
   -3.5645   -1.8778   -2.4827 H   0  0  0  0  0  0  0  0  0  0  0  0
   -4.7452   -2.1086   -1.1974 H   0  0  0  0  0  0  0  0  0  0  0  0
   -2.8828    0.6777   -3.0082 H   0  0  0  0  0  0  0  0  0  0  0  0
   -3.9286    2.8366   -3.5971 H   0  0  0  0  0  0  0  0  0  0  0  0
   -6.2626    3.3288   -2.9057 H   0  0  0  0  0  0  0  0  0  0  0  0
   -7.5524    1.6293   -1.6164 H   0  0  0  0  0  0  0  0  0  0  0  0
   -5.0089   -1.6375    3.3456 H   0  0  0  0  0  0  0  0  0  0  0  0
   -0.7892   -0.9163    3.1960 H   0  0  0  0  0  0  0  0  0  0  0  0
  1  2  2  0
  2  3  1  0
  3  4  1  0
  4  5  1  0
  4  6  1  0
  6  7  2  0
  6  8  1  0
  8  9  1  0
  9 10  1  0
 10 11  2  0
 11 12  1  0
 12 13  2  0
 13 14  1  0
 14 15  1  0
 15 16  1  0
 16 17  2  0
 17 18  1  0
 18 19  2  0
 19 20  1  0
 20 21  2  0
 21 22  1  0
 14 23  1  0
 23 24  1  0
 24 25  2  0
 25 26  1  0
 26 27  1  0
 26 28  2  0
 28 29  1  0
 11 30  1  0
 30 31  2  0
 31 32  1  0
 32  4  1  0
 32  9  2  0
 29 12  1  0
 21 16  1  0
 29 23  2  0
  1 33  1  0
  1 34  1  0
  2 35  1  0
  3 36  1  0
  3 37  1  0
  5 38  1  0
  5 39  1  0
  5 40  1  0
  8 41  1  0
 15 42  1  0
 15 43  1  0
 17 44  1  0
 18 45  1  0
 19 46  1  0
 20 47  1  0
 25 48  1  0
 28 49  1  0
M  END
$$$$
