


 34 36  0  0  0  0  0  0  0  0999 V2000
    0.0991   64.0695   80.5648 N   0  0  0  0  0  0  0  0  0  0  0  0
    0.0667   65.4427   80.6088 C   0  0  0  0  0  0  0  0  0  0  0  0
   -0.5009   66.2075   79.8397 O   0  0  0  0  0  0  0  0  0  0  0  0
    0.6350   63.5864   81.2747 H   0  0  0  0  0  0  0  0  0  0  0  0
    0.8499   65.9907   81.7652 C   0  0  0  0  0  0  0  0  0  0  0  0
    1.7540   67.0244   81.5662 C   0  0  0  0  0  0  0  0  0  0  0  0
    2.4561   67.4987   82.6672 C   0  0  0  0  0  0  0  0  0  0  0  0
    2.2308   66.9298   83.9185 C   0  0  0  0  0  0  0  0  0  0  0  0
    1.2999   65.8976   84.0423 C   0  0  0  0  0  0  0  0  0  0  0  0
    0.6084   65.4102   82.9790 N   0  0  0  0  0  0  0  0  0  0  0  0
    1.0466   65.2546   85.3902 C   0  0  0  0  0  0  0  0  0  0  0  0
    0.7159   63.8662   85.2960 O   0  0  0  0  0  0  0  0  0  0  0  0
   -0.4515   63.4364   85.8638 C   0  0  0  0  0  0  0  0  0  0  0  0
   -1.5217   62.8342   85.2014 C   0  0  0  0  0  0  0  0  0  0  0  0
   -2.6640   62.4530   85.9132 C   0  0  0  0  0  0  0  0  0  0  0  0
   -2.7429   62.6730   87.2870 C   0  0  0  0  0  0  0  0  0  0  0  0
   -1.6803   63.2780   87.9526 C   0  0  0  0  0  0  0  0  0  0  0  0
   -0.5415   63.6592   87.2411 C   0  0  0  0  0  0  0  0  0  0  0  0
   -1.9559   62.0752   78.4765 C   0  0  0  0  0  0  0  0  0  0  0  0
   -0.9853   62.2717   77.5068 C   0  0  0  0  0  0  0  0  0  0  0  0
    0.2861   63.2390   78.1297 S   0  0  0  0  0  0  0  0  0  0  0  0
   -0.5423   63.3316   79.6180 C   0  0  0  0  0  0  0  0  0  0  0  0
   -1.6812   62.6949   79.6883 N   0  0  0  0  0  0  0  0  0  0  0  0
   -3.2328   61.2802   78.3585 C   0  0  0  0  0  0  0  0  0  0  0  0
   -2.9523   59.9583   77.6675 C   0  0  0  0  0  0  0  0  0  0  0  0
   -1.9934   59.2213   77.8394 O   0  0  0  0  0  0  0  0  0  0  0  0
   -3.9457   59.5836   76.8330 O   0  0  0  0  0  0  0  0  0  0  0  0
   -3.6328   58.7388   76.4461 H   0  0  0  0  0  0  0  0  0  0  0  0
   -3.8867   61.0380   79.7331 C   0  0  0  0  0  0  0  0  0  0  0  0
   -3.4744   59.7254   80.4061 C   0  0  0  0  0  0  0  0  0  0  0  0
   -3.1277   59.8253   82.8190 O   0  0  0  0  0  0  0  0  0  0  0  0
   -2.7070   59.9407   81.6818 C   0  0  0  0  0  0  0  0  0  0  0  0
   -1.4413   60.3376   81.4532 O   0  0  0  0  0  0  0  0  0  0  0  0
   -1.0604   60.4392   82.3512 H   0  0  0  0  0  0  0  0  0  0  0  0
 31 32  2  0  0  0
 32 33  1  0  0  0
 32 30  1  0  0  0
 30 29  1  0  0  0
 29 24  1  0  0  0
 24 25  1  0  0  0
 25 26  2  0  0  0
 25 27  1  0  0  0
 24 19  1  0  0  0
 19 20  2  0  0  0
 20 21  1  0  0  0
 21 22  1  0  0  0
 22  1  1  0  0  0
  1  2  1  0  0  0
  2  3  2  0  0  0
  2  5  1  0  0  0
  5  6  1  0  0  0
  6  7  2  0  0  0
  7  8  1  0  0  0
  8  9  2  0  0  0
  9 11  1  0  0  0
 11 12  1  0  0  0
 12 13  1  0  0  0
 13 14  2  0  0  0
 14 15  1  0  0  0
 15 16  2  0  0  0
 16 17  1  0  0  0
 17 18  2  0  0  0
  9 10  1  0  0  0
 22 23  2  0  0  0
 23 19  1  0  0  0
 10  5  2  0  0  0
 18 13  1  0  0  0
 33 34  1  0  0  0
 27 28  1  0  0  0
  1  4  1  0  0  0
M  END
> <minimizedAffinity>
-9.65392

$$$$



 34 36  0  0  0  0  0  0  0  0999 V2000
    0.1073   64.3875   80.3545 N   0  0  0  0  0  0  0  0  0  0  0  0
    0.4606   64.8452   81.6012 C   0  0  0  0  0  0  0  0  0  0  0  0
    0.2886   64.2960   82.6816 O   0  0  0  0  0  0  0  0  0  0  0  0
    0.3084   64.9800   79.5589 H   0  0  0  0  0  0  0  0  0  0  0  0
    1.1269   66.1883   81.5432 C   0  0  0  0  0  0  0  0  0  0  0  0
    1.2113   66.8720   80.3386 C   0  0  0  0  0  0  0  0  0  0  0  0
    1.8374   68.1122   80.3345 C   0  0  0  0  0  0  0  0  0  0  0  0
    2.3510   68.6227   81.5243 C   0  0  0  0  0  0  0  0  0  0  0  0
    2.2217   67.8801   82.6986 C   0  0  0  0  0  0  0  0  0  0  0  0
    1.6226   66.6609   82.7262 N   0  0  0  0  0  0  0  0  0  0  0  0
    2.7830   68.4085   84.0026 C   0  0  0  0  0  0  0  0  0  0  0  0
    4.2074   68.3060   84.0825 O   0  0  0  0  0  0  0  0  0  0  0  0
    4.7472   67.4760   85.0258 C   0  0  0  0  0  0  0  0  0  0  0  0
    5.1188   67.8286   86.3236 C   0  0  0  0  0  0  0  0  0  0  0  0
    5.6714   66.8712   87.1809 C   0  0  0  0  0  0  0  0  0  0  0  0
    5.8567   65.5604   86.7458 C   0  0  0  0  0  0  0  0  0  0  0  0
    5.4925   65.2040   85.4502 C   0  0  0  0  0  0  0  0  0  0  0  0
    4.9424   66.1603   84.5951 C   0  0  0  0  0  0  0  0  0  0  0  0
   -1.9093   61.4905   80.0339 C   0  0  0  0  0  0  0  0  0  0  0  0
   -0.8173   60.9259   79.3939 C   0  0  0  0  0  0  0  0  0  0  0  0
    0.4768   62.0491   79.3298 S   0  0  0  0  0  0  0  0  0  0  0  0
   -0.5014   63.1897   80.1373 C   0  0  0  0  0  0  0  0  0  0  0  0
   -1.7066   62.7978   80.4558 N   0  0  0  0  0  0  0  0  0  0  0  0
   -3.2471   60.8524   80.3159 C   0  0  0  0  0  0  0  0  0  0  0  0
   -3.4333   59.6365   79.4267 C   0  0  0  0  0  0  0  0  0  0  0  0
   -3.6191   59.6230   78.2194 O   0  0  0  0  0  0  0  0  0  0  0  0
   -3.3003   58.4725   80.0983 O   0  0  0  0  0  0  0  0  0  0  0  0
   -3.4601   57.7815   79.4215 H   0  0  0  0  0  0  0  0  0  0  0  0
   -3.3937   60.4591   81.7990 C   0  0  0  0  0  0  0  0  0  0  0  0
   -2.1625   60.7632   82.6577 C   0  0  0  0  0  0  0  0  0  0  0  0
   -2.9210   61.4593   84.8695 O   0  0  0  0  0  0  0  0  0  0  0  0
   -2.4554   61.7255   83.7760 C   0  0  0  0  0  0  0  0  0  0  0  0
   -2.1812   62.9989   83.4362 O   0  0  0  0  0  0  0  0  0  0  0  0
   -2.4122   63.5120   84.2394 H   0  0  0  0  0  0  0  0  0  0  0  0
 31 32  2  0  0  0
 32 33  1  0  0  0
 32 30  1  0  0  0
 30 29  1  0  0  0
 29 24  1  0  0  0
 24 25  1  0  0  0
 25 26  2  0  0  0
 25 27  1  0  0  0
 24 19  1  0  0  0
 19 20  2  0  0  0
 20 21  1  0  0  0
 21 22  1  0  0  0
 22  1  1  0  0  0
  1  2  1  0  0  0
  2  3  2  0  0  0
  2  5  1  0  0  0
  5  6  1  0  0  0
  6  7  2  0  0  0
  7  8  1  0  0  0
  8  9  2  0  0  0
  9 11  1  0  0  0
 11 12  1  0  0  0
 12 13  1  0  0  0
 13 14  2  0  0  0
 14 15  1  0  0  0
 15 16  2  0  0  0
 16 17  1  0  0  0
 17 18  2  0  0  0
  9 10  1  0  0  0
 22 23  2  0  0  0
 23 19  1  0  0  0
 10  5  2  0  0  0
 18 13  1  0  0  0
 33 34  1  0  0  0
 27 28  1  0  0  0
  1  4  1  0  0  0
M  END
> <minimizedAffinity>
-9.22114

$$$$



 34 36  0  0  0  0  0  0  0  0999 V2000
    0.2877   64.8611   79.5071 N   0  0  0  0  0  0  0  0  0  0  0  0
    0.5392   65.0927   80.8382 C   0  0  0  0  0  0  0  0  0  0  0  0
    0.2595   64.3790   81.7926 O   0  0  0  0  0  0  0  0  0  0  0  0
    0.5722   65.5692   78.8421 H   0  0  0  0  0  0  0  0  0  0  0  0
    1.2385   66.4010   81.0628 C   0  0  0  0  0  0  0  0  0  0  0  0
    1.5057   67.2406   79.9908 C   0  0  0  0  0  0  0  0  0  0  0  0
    2.1552   68.4414   80.2481 C   0  0  0  0  0  0  0  0  0  0  0  0
    2.5101   68.7599   81.5568 C   0  0  0  0  0  0  0  0  0  0  0  0
    2.2013   67.8682   82.5848 C   0  0  0  0  0  0  0  0  0  0  0  0
    1.5757   66.6837   82.3571 N   0  0  0  0  0  0  0  0  0  0  0  0
    2.5880   68.1865   84.0144 C   0  0  0  0  0  0  0  0  0  0  0  0
    4.0017   68.2967   84.2018 O   0  0  0  0  0  0  0  0  0  0  0  0
    4.6069   67.4530   85.0916 C   0  0  0  0  0  0  0  0  0  0  0  0
    5.0919   67.7916   86.3552 C   0  0  0  0  0  0  0  0  0  0  0  0
    5.7007   66.8210   87.1577 C   0  0  0  0  0  0  0  0  0  0  0  0
    5.8293   65.5105   86.7014 C   0  0  0  0  0  0  0  0  0  0  0  0
    5.3518   65.1678   85.4394 C   0  0  0  0  0  0  0  0  0  0  0  0
    4.7456   66.1374   84.6390 C   0  0  0  0  0  0  0  0  0  0  0  0
   -1.7633   62.1459   78.5158 C   0  0  0  0  0  0  0  0  0  0  0  0
   -0.6174   61.6253   77.9354 C   0  0  0  0  0  0  0  0  0  0  0  0
    0.7096   62.6794   78.1969 S   0  0  0  0  0  0  0  0  0  0  0  0
   -0.3264   63.7393   79.0414 C   0  0  0  0  0  0  0  0  0  0  0  0
   -1.5741   63.3668   79.1496 N   0  0  0  0  0  0  0  0  0  0  0  0
   -3.1458   61.5420   78.5354 C   0  0  0  0  0  0  0  0  0  0  0  0
   -3.1292   60.1993   77.8277 C   0  0  0  0  0  0  0  0  0  0  0  0
   -2.6148   59.1624   78.2181 O   0  0  0  0  0  0  0  0  0  0  0  0
   -3.8368   60.2060   76.6775 O   0  0  0  0  0  0  0  0  0  0  0  0
   -3.7289   59.2993   76.3203 H   0  0  0  0  0  0  0  0  0  0  0  0
   -3.6823   61.3840   79.9717 C   0  0  0  0  0  0  0  0  0  0  0  0
   -2.6138   61.0273   81.0093 C   0  0  0  0  0  0  0  0  0  0  0  0
   -3.0457   59.7788   83.0605 O   0  0  0  0  0  0  0  0  0  0  0  0
   -2.9888   59.8341   81.8451 C   0  0  0  0  0  0  0  0  0  0  0  0
   -3.2349   58.7443   81.0942 O   0  0  0  0  0  0  0  0  0  0  0  0
   -3.4636   58.0526   81.7508 H   0  0  0  0  0  0  0  0  0  0  0  0
 31 32  2  0  0  0
 32 33  1  0  0  0
 32 30  1  0  0  0
 30 29  1  0  0  0
 29 24  1  0  0  0
 24 25  1  0  0  0
 25 26  2  0  0  0
 25 27  1  0  0  0
 24 19  1  0  0  0
 19 20  2  0  0  0
 20 21  1  0  0  0
 21 22  1  0  0  0
 22  1  1  0  0  0
  1  2  1  0  0  0
  2  3  2  0  0  0
  2  5  1  0  0  0
  5  6  1  0  0  0
  6  7  2  0  0  0
  7  8  1  0  0  0
  8  9  2  0  0  0
  9 11  1  0  0  0
 11 12  1  0  0  0
 12 13  1  0  0  0
 13 14  2  0  0  0
 14 15  1  0  0  0
 15 16  2  0  0  0
 16 17  1  0  0  0
 17 18  2  0  0  0
  9 10  1  0  0  0
 22 23  2  0  0  0
 23 19  1  0  0  0
 10  5  2  0  0  0
 18 13  1  0  0  0
 33 34  1  0  0  0
 27 28  1  0  0  0
  1  4  1  0  0  0
M  END
> <minimizedAffinity>
-9.15662

$$$$



 34 36  0  0  0  0  0  0  0  0999 V2000
    0.2339   63.8486   80.8372 N   0  0  0  0  0  0  0  0  0  0  0  0
   -0.0890   65.1254   81.2299 C   0  0  0  0  0  0  0  0  0  0  0  0
   -0.7557   65.9538   80.6234 O   0  0  0  0  0  0  0  0  0  0  0  0
    0.8142   63.2963   81.4559 H   0  0  0  0  0  0  0  0  0  0  0  0
    0.4881   65.4679   82.5718 C   0  0  0  0  0  0  0  0  0  0  0  0
    0.2481   64.6453   83.6633 C   0  0  0  0  0  0  0  0  0  0  0  0
    0.8034   65.0035   84.8853 C   0  0  0  0  0  0  0  0  0  0  0  0
    1.5744   66.1602   84.9730 C   0  0  0  0  0  0  0  0  0  0  0  0
    1.7783   66.9339   83.8297 C   0  0  0  0  0  0  0  0  0  0  0  0
    1.2377   66.6098   82.6260 N   0  0  0  0  0  0  0  0  0  0  0  0
    2.6026   68.2027   83.9025 C   0  0  0  0  0  0  0  0  0  0  0  0
    3.9998   67.9765   83.6965 O   0  0  0  0  0  0  0  0  0  0  0  0
    4.6899   67.2699   84.6423 C   0  0  0  0  0  0  0  0  0  0  0  0
    5.2118   65.9840   84.4978 C   0  0  0  0  0  0  0  0  0  0  0  0
    5.8903   65.3776   85.5602 C   0  0  0  0  0  0  0  0  0  0  0  0
    6.0486   66.0509   86.7699 C   0  0  0  0  0  0  0  0  0  0  0  0
    5.5257   67.3322   86.9216 C   0  0  0  0  0  0  0  0  0  0  0  0
    4.8476   67.9359   85.8614 C   0  0  0  0  0  0  0  0  0  0  0  0
   -1.2060   62.1442   78.0834 C   0  0  0  0  0  0  0  0  0  0  0  0
   -0.2814   62.8268   77.3087 C   0  0  0  0  0  0  0  0  0  0  0  0
    0.6960   63.8286   78.2993 S   0  0  0  0  0  0  0  0  0  0  0  0
   -0.1779   63.2953   79.6638 C   0  0  0  0  0  0  0  0  0  0  0  0
   -1.1296   62.4283   79.4404 N   0  0  0  0  0  0  0  0  0  0  0  0
   -2.2469   61.1541   77.6224 C   0  0  0  0  0  0  0  0  0  0  0  0
   -1.6124   59.7863   77.4481 C   0  0  0  0  0  0  0  0  0  0  0  0
   -1.9597   58.9007   76.6818 O   0  0  0  0  0  0  0  0  0  0  0  0
   -0.5069   59.6226   78.2062 O   0  0  0  0  0  0  0  0  0  0  0  0
   -0.2140   58.7067   78.0146 H   0  0  0  0  0  0  0  0  0  0  0  0
   -3.4346   61.0730   78.6015 C   0  0  0  0  0  0  0  0  0  0  0  0
   -3.5259   59.7547   79.3757 C   0  0  0  0  0  0  0  0  0  0  0  0
   -3.3949   60.9893   81.4758 O   0  0  0  0  0  0  0  0  0  0  0  0
   -3.3684   59.9387   80.8603 C   0  0  0  0  0  0  0  0  0  0  0  0
   -3.1399   58.7742   81.4957 O   0  0  0  0  0  0  0  0  0  0  0  0
   -3.0587   59.0323   82.4384 H   0  0  0  0  0  0  0  0  0  0  0  0
 31 32  2  0  0  0
 32 33  1  0  0  0
 32 30  1  0  0  0
 30 29  1  0  0  0
 29 24  1  0  0  0
 24 25  1  0  0  0
 25 26  2  0  0  0
 25 27  1  0  0  0
 24 19  1  0  0  0
 19 20  2  0  0  0
 20 21  1  0  0  0
 21 22  1  0  0  0
 22  1  1  0  0  0
  1  2  1  0  0  0
  2  3  2  0  0  0
  2  5  1  0  0  0
  5  6  1  0  0  0
  6  7  2  0  0  0
  7  8  1  0  0  0
  8  9  2  0  0  0
  9 11  1  0  0  0
 11 12  1  0  0  0
 12 13  1  0  0  0
 13 14  2  0  0  0
 14 15  1  0  0  0
 15 16  2  0  0  0
 16 17  1  0  0  0
 17 18  2  0  0  0
  9 10  1  0  0  0
 22 23  2  0  0  0
 23 19  1  0  0  0
 10  5  2  0  0  0
 18 13  1  0  0  0
 33 34  1  0  0  0
 27 28  1  0  0  0
  1  4  1  0  0  0
M  END
> <minimizedAffinity>
-9.15509

$$$$



 34 36  0  0  0  0  0  0  0  0999 V2000
    0.7258   66.1634   80.6077 N   0  0  0  0  0  0  0  0  0  0  0  0
   -0.0547   67.2945   80.5924 C   0  0  0  0  0  0  0  0  0  0  0  0
   -1.1603   67.4396   80.0875 O   0  0  0  0  0  0  0  0  0  0  0  0
    1.6308   66.2196   81.0576 H   0  0  0  0  0  0  0  0  0  0  0  0
    0.6027   68.4453   81.2958 C   0  0  0  0  0  0  0  0  0  0  0  0
    0.2321   69.7483   80.9951 C   0  0  0  0  0  0  0  0  0  0  0  0
    0.8688   70.7809   81.6723 C   0  0  0  0  0  0  0  0  0  0  0  0
    1.8438   70.4780   82.6198 C   0  0  0  0  0  0  0  0  0  0  0  0
    2.1581   69.1424   82.8740 C   0  0  0  0  0  0  0  0  0  0  0  0
    1.5566   68.1158   82.2179 N   0  0  0  0  0  0  0  0  0  0  0  0
    3.2236   68.7882   83.8908 C   0  0  0  0  0  0  0  0  0  0  0  0
    3.4245   67.3785   84.0249 O   0  0  0  0  0  0  0  0  0  0  0  0
    4.5946   66.9388   84.5794 C   0  0  0  0  0  0  0  0  0  0  0  0
    5.8287   67.5879   84.5317 C   0  0  0  0  0  0  0  0  0  0  0  0
    6.9498   67.0118   85.1384 C   0  0  0  0  0  0  0  0  0  0  0  0
    6.8436   65.7859   85.7926 C   0  0  0  0  0  0  0  0  0  0  0  0
    5.6160   65.1311   85.8392 C   0  0  0  0  0  0  0  0  0  0  0  0
    4.4983   65.7062   85.2323 C   0  0  0  0  0  0  0  0  0  0  0  0
   -0.3865   62.9370   79.6513 C   0  0  0  0  0  0  0  0  0  0  0  0
   -0.0645   63.3211   78.3591 C   0  0  0  0  0  0  0  0  0  0  0  0
    0.5607   64.9177   78.3548 S   0  0  0  0  0  0  0  0  0  0  0  0
    0.3497   64.9820   80.0463 C   0  0  0  0  0  0  0  0  0  0  0  0
   -0.1396   63.9099   80.6107 N   0  0  0  0  0  0  0  0  0  0  0  0
   -0.9521   61.6153   80.1090 C   0  0  0  0  0  0  0  0  0  0  0  0
   -0.4215   61.2812   81.4912 C   0  0  0  0  0  0  0  0  0  0  0  0
    0.7097   60.9257   81.7846 O   0  0  0  0  0  0  0  0  0  0  0  0
   -1.3347   61.4853   82.4650 O   0  0  0  0  0  0  0  0  0  0  0  0
   -0.8757   61.2176   83.2889 H   0  0  0  0  0  0  0  0  0  0  0  0
   -2.4934   61.6219   80.1138 C   0  0  0  0  0  0  0  0  0  0  0  0
   -3.1323   60.3913   79.4634 C   0  0  0  0  0  0  0  0  0  0  0  0
   -3.2472   59.2591   81.6214 O   0  0  0  0  0  0  0  0  0  0  0  0
   -3.2345   59.2220   80.4041 C   0  0  0  0  0  0  0  0  0  0  0  0
   -3.2731   58.0456   79.7509 O   0  0  0  0  0  0  0  0  0  0  0  0
   -3.3390   57.3800   80.4681 H   0  0  0  0  0  0  0  0  0  0  0  0
 31 32  2  0  0  0
 32 33  1  0  0  0
 32 30  1  0  0  0
 30 29  1  0  0  0
 29 24  1  0  0  0
 24 25  1  0  0  0
 25 26  2  0  0  0
 25 27  1  0  0  0
 24 19  1  0  0  0
 19 20  2  0  0  0
 20 21  1  0  0  0
 21 22  1  0  0  0
 22  1  1  0  0  0
  1  2  1  0  0  0
  2  3  2  0  0  0
  2  5  1  0  0  0
  5  6  1  0  0  0
  6  7  2  0  0  0
  7  8  1  0  0  0
  8  9  2  0  0  0
  9 11  1  0  0  0
 11 12  1  0  0  0
 12 13  1  0  0  0
 13 14  2  0  0  0
 14 15  1  0  0  0
 15 16  2  0  0  0
 16 17  1  0  0  0
 17 18  2  0  0  0
  9 10  1  0  0  0
 22 23  2  0  0  0
 23 19  1  0  0  0
 10  5  2  0  0  0
 18 13  1  0  0  0
 33 34  1  0  0  0
 27 28  1  0  0  0
  1  4  1  0  0  0
M  END
> <minimizedAffinity>
-8.96652

$$$$



 34 36  0  0  0  0  0  0  0  0999 V2000
   -0.0589   64.3960   80.2167 N   0  0  0  0  0  0  0  0  0  0  0  0
   -0.2993   64.1594   81.5489 C   0  0  0  0  0  0  0  0  0  0  0  0
   -1.0166   63.2995   82.0436 O   0  0  0  0  0  0  0  0  0  0  0  0
    0.5524   65.1660   79.9762 H   0  0  0  0  0  0  0  0  0  0  0  0
    0.4398   65.1171   82.4363 C   0  0  0  0  0  0  0  0  0  0  0  0
    0.5315   64.8740   83.7994 C   0  0  0  0  0  0  0  0  0  0  0  0
    1.2260   65.7892   84.5806 C   0  0  0  0  0  0  0  0  0  0  0  0
    1.8017   66.9048   83.9773 C   0  0  0  0  0  0  0  0  0  0  0  0
    1.6739   67.0785   82.5986 C   0  0  0  0  0  0  0  0  0  0  0  0
    0.9913   66.2029   81.8152 N   0  0  0  0  0  0  0  0  0  0  0  0
    2.2805   68.2901   81.9215 C   0  0  0  0  0  0  0  0  0  0  0  0
    2.3240   69.4425   82.7676 O   0  0  0  0  0  0  0  0  0  0  0  0
    1.5717   70.5309   82.4222 C   0  0  0  0  0  0  0  0  0  0  0  0
    1.8823   71.8669   82.6778 C   0  0  0  0  0  0  0  0  0  0  0  0
    1.0085   72.8815   82.2730 C   0  0  0  0  0  0  0  0  0  0  0  0
   -0.1782   72.5665   81.6138 C   0  0  0  0  0  0  0  0  0  0  0  0
   -0.4959   71.2349   81.3603 C   0  0  0  0  0  0  0  0  0  0  0  0
    0.3761   70.2233   81.7659 C   0  0  0  0  0  0  0  0  0  0  0  0
   -1.6820   62.1628   77.9941 C   0  0  0  0  0  0  0  0  0  0  0  0
   -1.1707   62.9601   76.9822 C   0  0  0  0  0  0  0  0  0  0  0  0
   -0.2494   64.2436   77.6486 S   0  0  0  0  0  0  0  0  0  0  0  0
   -0.6029   63.6575   79.2111 C   0  0  0  0  0  0  0  0  0  0  0  0
   -1.3424   62.5821   79.2735 N   0  0  0  0  0  0  0  0  0  0  0  0
   -2.5345   60.9258   77.8547 C   0  0  0  0  0  0  0  0  0  0  0  0
   -1.6494   59.6931   77.8268 C   0  0  0  0  0  0  0  0  0  0  0  0
   -1.8654   58.6389   77.2487 O   0  0  0  0  0  0  0  0  0  0  0  0
   -0.4799   59.8745   78.4772 O   0  0  0  0  0  0  0  0  0  0  0  0
   -0.0217   59.0112   78.3992 H   0  0  0  0  0  0  0  0  0  0  0  0
   -3.5728   60.8142   78.9884 C   0  0  0  0  0  0  0  0  0  0  0  0
   -3.3176   59.6646   79.9677 C   0  0  0  0  0  0  0  0  0  0  0  0
   -3.4758   60.3394   82.3069 O   0  0  0  0  0  0  0  0  0  0  0  0
   -2.8148   60.1383   81.3039 C   0  0  0  0  0  0  0  0  0  0  0  0
   -1.4902   60.3780   81.2930 O   0  0  0  0  0  0  0  0  0  0  0  0
   -1.2969   60.6742   82.2077 H   0  0  0  0  0  0  0  0  0  0  0  0
 31 32  2  0  0  0
 32 33  1  0  0  0
 32 30  1  0  0  0
 30 29  1  0  0  0
 29 24  1  0  0  0
 24 25  1  0  0  0
 25 26  2  0  0  0
 25 27  1  0  0  0
 24 19  1  0  0  0
 19 20  2  0  0  0
 20 21  1  0  0  0
 21 22  1  0  0  0
 22  1  1  0  0  0
  1  2  1  0  0  0
  2  3  2  0  0  0
  2  5  1  0  0  0
  5  6  1  0  0  0
  6  7  2  0  0  0
  7  8  1  0  0  0
  8  9  2  0  0  0
  9 11  1  0  0  0
 11 12  1  0  0  0
 12 13  1  0  0  0
 13 14  2  0  0  0
 14 15  1  0  0  0
 15 16  2  0  0  0
 16 17  1  0  0  0
 17 18  2  0  0  0
  9 10  1  0  0  0
 22 23  2  0  0  0
 23 19  1  0  0  0
 10  5  2  0  0  0
 18 13  1  0  0  0
 33 34  1  0  0  0
 27 28  1  0  0  0
  1  4  1  0  0  0
M  END
> <minimizedAffinity>
-8.94250

$$$$



 34 36  0  0  0  0  0  0  0  0999 V2000
   -1.3649   61.9936   82.0903 N   0  0  0  0  0  0  0  0  0  0  0  0
   -2.0834   60.8451   81.8595 C   0  0  0  0  0  0  0  0  0  0  0  0
   -2.4898   60.0333   82.6807 O   0  0  0  0  0  0  0  0  0  0  0  0
   -1.0903   62.5484   81.2895 H   0  0  0  0  0  0  0  0  0  0  0  0
   -2.3558   60.6316   80.3996 C   0  0  0  0  0  0  0  0  0  0  0  0
   -3.6622   60.5317   79.9426 C   0  0  0  0  0  0  0  0  0  0  0  0
   -3.8646   60.3341   78.5824 C   0  0  0  0  0  0  0  0  0  0  0  0
   -2.7641   60.2461   77.7332 C   0  0  0  0  0  0  0  0  0  0  0  0
   -1.4794   60.3636   78.2651 C   0  0  0  0  0  0  0  0  0  0  0  0
   -1.2556   60.5471   79.5927 N   0  0  0  0  0  0  0  0  0  0  0  0
   -0.2665   60.2588   77.3637 C   0  0  0  0  0  0  0  0  0  0  0  0
   -0.0943   61.4009   76.5200 O   0  0  0  0  0  0  0  0  0  0  0  0
    0.0028   62.6327   77.1059 C   0  0  0  0  0  0  0  0  0  0  0  0
    0.9295   63.0177   78.0752 C   0  0  0  0  0  0  0  0  0  0  0  0
    0.9040   64.3160   78.5954 C   0  0  0  0  0  0  0  0  0  0  0  0
   -0.0468   65.2332   78.1518 C   0  0  0  0  0  0  0  0  0  0  0  0
   -0.9772   64.8533   77.1884 C   0  0  0  0  0  0  0  0  0  0  0  0
   -0.9517   63.5571   76.6710 C   0  0  0  0  0  0  0  0  0  0  0  0
   -0.7967   62.7535   85.5052 C   0  0  0  0  0  0  0  0  0  0  0  0
    0.1893   63.6116   85.0444 C   0  0  0  0  0  0  0  0  0  0  0  0
    0.2607   63.5655   83.3318 S   0  0  0  0  0  0  0  0  0  0  0  0
   -1.0000   62.4164   83.3315 C   0  0  0  0  0  0  0  0  0  0  0  0
   -1.4720   62.0732   84.5006 N   0  0  0  0  0  0  0  0  0  0  0  0
   -1.2030   62.4953   86.9351 C   0  0  0  0  0  0  0  0  0  0  0  0
   -2.6854   62.1753   86.9976 C   0  0  0  0  0  0  0  0  0  0  0  0
   -3.2060   61.0703   86.9850 O   0  0  0  0  0  0  0  0  0  0  0  0
   -3.4518   63.2766   87.1506 O   0  0  0  0  0  0  0  0  0  0  0  0
   -4.3706   62.9346   87.1569 H   0  0  0  0  0  0  0  0  0  0  0  0
   -0.3816   61.3546   87.5675 C   0  0  0  0  0  0  0  0  0  0  0  0
    0.4011   61.7594   88.8202 C   0  0  0  0  0  0  0  0  0  0  0  0
    1.7047   63.7273   88.2034 O   0  0  0  0  0  0  0  0  0  0  0  0
    0.7893   63.2127   88.8204 C   0  0  0  0  0  0  0  0  0  0  0  0
    0.0172   63.9452   89.6446 O   0  0  0  0  0  0  0  0  0  0  0  0
    0.3701   64.8555   89.5508 H   0  0  0  0  0  0  0  0  0  0  0  0
 31 32  2  0  0  0
 32 33  1  0  0  0
 32 30  1  0  0  0
 30 29  1  0  0  0
 29 24  1  0  0  0
 24 25  1  0  0  0
 25 26  2  0  0  0
 25 27  1  0  0  0
 24 19  1  0  0  0
 19 20  2  0  0  0
 20 21  1  0  0  0
 21 22  1  0  0  0
 22  1  1  0  0  0
  1  2  1  0  0  0
  2  3  2  0  0  0
  2  5  1  0  0  0
  5  6  1  0  0  0
  6  7  2  0  0  0
  7  8  1  0  0  0
  8  9  2  0  0  0
  9 11  1  0  0  0
 11 12  1  0  0  0
 12 13  1  0  0  0
 13 14  2  0  0  0
 14 15  1  0  0  0
 15 16  2  0  0  0
 16 17  1  0  0  0
 17 18  2  0  0  0
  9 10  1  0  0  0
 22 23  2  0  0  0
 23 19  1  0  0  0
 10  5  2  0  0  0
 18 13  1  0  0  0
 33 34  1  0  0  0
 27 28  1  0  0  0
  1  4  1  0  0  0
M  END
> <minimizedAffinity>
-8.75861

$$$$



 34 36  0  0  0  0  0  0  0  0999 V2000
    1.4498   65.5467   83.1304 N   0  0  0  0  0  0  0  0  0  0  0  0
    1.2547   65.6577   81.7746 C   0  0  0  0  0  0  0  0  0  0  0  0
    1.7854   66.4423   80.9992 O   0  0  0  0  0  0  0  0  0  0  0  0
    0.9123   64.8494   83.6298 H   0  0  0  0  0  0  0  0  0  0  0  0
    0.2519   64.6654   81.2640 C   0  0  0  0  0  0  0  0  0  0  0  0
    0.1962   64.3658   79.9102 C   0  0  0  0  0  0  0  0  0  0  0  0
   -0.7491   63.4408   79.4846 C   0  0  0  0  0  0  0  0  0  0  0  0
   -1.5972   62.8510   80.4189 C   0  0  0  0  0  0  0  0  0  0  0  0
   -1.4769   63.1970   81.7654 C   0  0  0  0  0  0  0  0  0  0  0  0
   -0.5673   64.1059   82.2045 N   0  0  0  0  0  0  0  0  0  0  0  0
   -2.3959   62.5784   82.7985 C   0  0  0  0  0  0  0  0  0  0  0  0
   -1.6937   61.8497   83.8093 O   0  0  0  0  0  0  0  0  0  0  0  0
   -1.7080   62.3342   85.0879 C   0  0  0  0  0  0  0  0  0  0  0  0
   -2.8064   62.3700   85.9475 C   0  0  0  0  0  0  0  0  0  0  0  0
   -2.6760   62.9072   87.2325 C   0  0  0  0  0  0  0  0  0  0  0  0
   -1.4505   63.4120   87.6630 C   0  0  0  0  0  0  0  0  0  0  0  0
   -0.3522   63.3836   86.8079 C   0  0  0  0  0  0  0  0  0  0  0  0
   -0.4837   62.8485   85.5255 C   0  0  0  0  0  0  0  0  0  0  0  0
    3.8782   67.1109   85.1842 C   0  0  0  0  0  0  0  0  0  0  0  0
    3.4629   68.2957   84.5968 C   0  0  0  0  0  0  0  0  0  0  0  0
    2.2091   67.9888   83.4681 S   0  0  0  0  0  0  0  0  0  0  0  0
    2.3177   66.3258   83.8320 C   0  0  0  0  0  0  0  0  0  0  0  0
    3.2044   65.9853   84.7294 N   0  0  0  0  0  0  0  0  0  0  0  0
    4.9450   66.9243   86.2346 C   0  0  0  0  0  0  0  0  0  0  0  0
    5.1207   65.4460   86.5305 C   0  0  0  0  0  0  0  0  0  0  0  0
    5.9359   64.6830   86.0349 O   0  0  0  0  0  0  0  0  0  0  0  0
    4.2976   65.0070   87.5069 O   0  0  0  0  0  0  0  0  0  0  0  0
    4.4986   64.0503   87.5826 H   0  0  0  0  0  0  0  0  0  0  0  0
    6.2876   67.5481   85.8055 C   0  0  0  0  0  0  0  0  0  0  0  0
    6.7698   67.1160   84.4175 C   0  0  0  0  0  0  0  0  0  0  0  0
    9.1961   67.2669   84.6244 O   0  0  0  0  0  0  0  0  0  0  0  0
    8.1877   66.6139   84.4235 C   0  0  0  0  0  0  0  0  0  0  0  0
    8.2641   65.3025   84.1295 O   0  0  0  0  0  0  0  0  0  0  0  0
    9.2247   65.1082   84.1674 H   0  0  0  0  0  0  0  0  0  0  0  0
 31 32  2  0  0  0
 32 33  1  0  0  0
 32 30  1  0  0  0
 30 29  1  0  0  0
 29 24  1  0  0  0
 24 25  1  0  0  0
 25 26  2  0  0  0
 25 27  1  0  0  0
 24 19  1  0  0  0
 19 20  2  0  0  0
 20 21  1  0  0  0
 21 22  1  0  0  0
 22  1  1  0  0  0
  1  2  1  0  0  0
  2  3  2  0  0  0
  2  5  1  0  0  0
  5  6  1  0  0  0
  6  7  2  0  0  0
  7  8  1  0  0  0
  8  9  2  0  0  0
  9 11  1  0  0  0
 11 12  1  0  0  0
 12 13  1  0  0  0
 13 14  2  0  0  0
 14 15  1  0  0  0
 15 16  2  0  0  0
 16 17  1  0  0  0
 17 18  2  0  0  0
  9 10  1  0  0  0
 22 23  2  0  0  0
 23 19  1  0  0  0
 10  5  2  0  0  0
 18 13  1  0  0  0
 33 34  1  0  0  0
 27 28  1  0  0  0
  1  4  1  0  0  0
M  END
> <minimizedAffinity>
-8.73573

$$$$



 34 36  0  0  0  0  0  0  0  0999 V2000
   -0.1477   65.8743   81.2218 N   0  0  0  0  0  0  0  0  0  0  0  0
    0.1057   64.9179   80.2680 C   0  0  0  0  0  0  0  0  0  0  0  0
    0.9151   64.9650   79.3508 O   0  0  0  0  0  0  0  0  0  0  0  0
   -0.8693   65.6812   81.9048 H   0  0  0  0  0  0  0  0  0  0  0  0
   -0.7597   63.7043   80.4395 C   0  0  0  0  0  0  0  0  0  0  0  0
   -1.1031   62.9330   79.3383 C   0  0  0  0  0  0  0  0  0  0  0  0
   -1.9064   61.8187   79.5466 C   0  0  0  0  0  0  0  0  0  0  0  0
   -2.3331   61.5153   80.8373 C   0  0  0  0  0  0  0  0  0  0  0  0
   -1.9406   62.3341   81.8969 C   0  0  0  0  0  0  0  0  0  0  0  0
   -1.1640   63.4345   81.7172 N   0  0  0  0  0  0  0  0  0  0  0  0
   -2.4020   62.0319   83.3077 C   0  0  0  0  0  0  0  0  0  0  0  0
   -1.3243   61.7263   84.1970 O   0  0  0  0  0  0  0  0  0  0  0  0
   -1.2713   62.3737   85.4003 C   0  0  0  0  0  0  0  0  0  0  0  0
   -0.1816   63.0770   85.9148 C   0  0  0  0  0  0  0  0  0  0  0  0
   -0.2673   63.6843   87.1720 C   0  0  0  0  0  0  0  0  0  0  0  0
   -1.4391   63.5903   87.9204 C   0  0  0  0  0  0  0  0  0  0  0  0
   -2.5280   62.8857   87.4144 C   0  0  0  0  0  0  0  0  0  0  0  0
   -2.4410   62.2789   86.1604 C   0  0  0  0  0  0  0  0  0  0  0  0
    1.8949   68.7204   81.7596 C   0  0  0  0  0  0  0  0  0  0  0  0
    1.0836   69.3514   80.8298 C   0  0  0  0  0  0  0  0  0  0  0  0
   -0.1291   68.2736   80.2746 S   0  0  0  0  0  0  0  0  0  0  0  0
    0.5126   67.0625   81.2901 C   0  0  0  0  0  0  0  0  0  0  0  0
    1.5484   67.3996   82.0117 N   0  0  0  0  0  0  0  0  0  0  0  0
    3.0709   69.3011   82.5053 C   0  0  0  0  0  0  0  0  0  0  0  0
    2.9174   70.8073   82.6127 C   0  0  0  0  0  0  0  0  0  0  0  0
    3.5060   71.6600   81.9656 O   0  0  0  0  0  0  0  0  0  0  0  0
    1.9601   71.1738   83.4919 O   0  0  0  0  0  0  0  0  0  0  0  0
    1.9787   72.1540   83.4772 H   0  0  0  0  0  0  0  0  0  0  0  0
    3.2263   68.6773   83.9062 C   0  0  0  0  0  0  0  0  0  0  0  0
    4.6027   68.0611   84.1740 C   0  0  0  0  0  0  0  0  0  0  0  0
    4.7814   66.2119   85.7554 O   0  0  0  0  0  0  0  0  0  0  0  0
    4.6944   67.4046   85.5243 C   0  0  0  0  0  0  0  0  0  0  0  0
    4.6278   68.2974   86.5295 O   0  0  0  0  0  0  0  0  0  0  0  0
    4.6985   67.7472   87.3383 H   0  0  0  0  0  0  0  0  0  0  0  0
 31 32  2  0  0  0
 32 33  1  0  0  0
 32 30  1  0  0  0
 30 29  1  0  0  0
 29 24  1  0  0  0
 24 25  1  0  0  0
 25 26  2  0  0  0
 25 27  1  0  0  0
 24 19  1  0  0  0
 19 20  2  0  0  0
 20 21  1  0  0  0
 21 22  1  0  0  0
 22  1  1  0  0  0
  1  2  1  0  0  0
  2  3  2  0  0  0
  2  5  1  0  0  0
  5  6  1  0  0  0
  6  7  2  0  0  0
  7  8  1  0  0  0
  8  9  2  0  0  0
  9 11  1  0  0  0
 11 12  1  0  0  0
 12 13  1  0  0  0
 13 14  2  0  0  0
 14 15  1  0  0  0
 15 16  2  0  0  0
 16 17  1  0  0  0
 17 18  2  0  0  0
  9 10  1  0  0  0
 22 23  2  0  0  0
 23 19  1  0  0  0
 10  5  2  0  0  0
 18 13  1  0  0  0
 33 34  1  0  0  0
 27 28  1  0  0  0
  1  4  1  0  0  0
M  END
> <minimizedAffinity>
-8.70028

$$$$
