
     RDKit          3D

 52 54  0  0  0  0  0  0  0  0999 V2000
    5.8856    3.1744    0.5765 C   0  0  0  0  0  0  0  0  0  0  0  0
    5.8573    1.8754    1.1108 O   0  0  0  0  0  0  0  0  0  0  0  0
    5.1082    0.8680    0.5151 C   0  0  0  0  0  0  0  0  0  0  0  0
    4.3691    1.1301   -0.6273 C   0  0  0  0  0  0  0  0  0  0  0  0
    3.6271    0.1023   -1.2041 C   0  0  0  0  0  0  0  0  0  0  0  0
    3.5782   -1.1629   -0.7123 C   0  0  0  0  0  0  0  0  0  0  0  0
    2.8057   -2.2870   -1.2597 C   0  0  0  0  0  0  0  0  0  0  0  0
    1.5164   -2.4991   -0.6318 N   0  0  0  0  0  0  0  0  0  0  0  0
    0.4598   -1.5649   -0.6339 C   0  0  0  0  0  0  0  0  0  0  0  0
    0.6011   -0.3843   -1.2497 N   0  0  0  0  0  0  0  0  0  0  0  0
   -0.3793    0.4936   -1.2608 N   0  0  0  0  0  0  0  0  0  0  0  0
   -1.5725    0.3059   -0.6809 C   0  0  0  0  0  0  0  0  0  0  0  0
   -2.5162    1.3569   -0.7704 N   0  0  0  0  0  0  0  0  0  0  0  0
   -2.9971    2.1213    0.3617 C   0  0  0  0  0  0  0  0  0  0  0  0
   -4.4706    2.3924    0.3267 C   0  0  0  0  0  0  0  0  0  0  0  0
   -5.1697    1.7515   -0.8188 C   0  0  0  0  0  0  0  0  0  0  0  0
   -6.3164    1.3211   -0.7005 O   0  0  0  0  0  0  0  0  0  0  0  0
   -4.5467    1.5883   -2.1601 C   0  0  0  0  0  0  0  0  0  0  0  0
   -3.0469    1.7062   -2.0742 C   0  0  0  0  0  0  0  0  0  0  0  0
   -1.7833   -0.8845   -0.0324 C   0  0  0  0  0  0  0  0  0  0  0  0
   -2.9964   -1.1178    0.5716 C   0  0  0  0  0  0  0  0  0  0  0  0
   -3.2429   -2.3044    1.2288 C   0  0  0  0  0  0  0  0  0  0  0  0
   -2.2191   -3.2288    1.2449 C   0  0  0  0  0  0  0  0  0  0  0  0
   -2.4523   -4.4892    1.9315 C   0  0  0  0  0  0  0  0  0  0  0  0
   -2.6412   -5.5169    2.4704 N   0  0  0  0  0  0  0  0  0  0  0  0
   -0.9967   -2.9934    0.6355 C   0  0  0  0  0  0  0  0  0  0  0  0
   -0.7560   -1.8049   -0.0204 C   0  0  0  0  0  0  0  0  0  0  0  0
    4.3273   -1.4200    0.4413 C   0  0  0  0  0  0  0  0  0  0  0  0
    5.0730   -0.4138    1.0323 C   0  0  0  0  0  0  0  0  0  0  0  0
    6.0210   -0.7191    2.4833 Cl  0  0  0  0  0  0  0  0  0  0  0  0
    0.6828    0.0000    0.0000 Cl  0  0  0  0  0  0  0  0  0  0  0  0
    4.9862    3.7702    0.8543 H   0  0  0  0  0  0  0  0  0  0  0  0
    6.0178    3.1973   -0.5071 H   0  0  0  0  0  0  0  0  0  0  0  0
    6.7713    3.6905    1.0464 H   0  0  0  0  0  0  0  0  0  0  0  0
    4.3680    2.1207   -1.0663 H   0  0  0  0  0  0  0  0  0  0  0  0
    3.0847    0.3605   -2.0943 H   0  0  0  0  0  0  0  0  0  0  0  0
    3.4327   -3.1973   -1.2558 H   0  0  0  0  0  0  0  0  0  0  0  0
    2.6324   -2.0402   -2.3486 H   0  0  0  0  0  0  0  0  0  0  0  0
    1.4143   -3.4370   -0.1522 H   0  0  0  0  0  0  0  0  0  0  0  0
   -2.7066    1.5847    1.3009 H   0  0  0  0  0  0  0  0  0  0  0  0
   -2.4355    3.1039    0.3040 H   0  0  0  0  0  0  0  0  0  0  0  0
   -4.6560    3.4973    0.1944 H   0  0  0  0  0  0  0  0  0  0  0  0
   -4.9802    2.0620    1.2780 H   0  0  0  0  0  0  0  0  0  0  0  0
   -4.9569    2.4327   -2.7858 H   0  0  0  0  0  0  0  0  0  0  0  0
   -4.8622    0.6201   -2.6001 H   0  0  0  0  0  0  0  0  0  0  0  0
   -2.5517    1.1162   -2.8728 H   0  0  0  0  0  0  0  0  0  0  0  0
   -2.7757    2.7701   -2.3155 H   0  0  0  0  0  0  0  0  0  0  0  0
   -3.7739   -0.3920    0.5421 H   0  0  0  0  0  0  0  0  0  0  0  0
   -4.2025   -2.4722    1.6990 H   0  0  0  0  0  0  0  0  0  0  0  0
   -0.2715   -3.7809    0.7091 H   0  0  0  0  0  0  0  0  0  0  0  0
    4.3386   -2.4029    0.8910 H   0  0  0  0  0  0  0  0  0  0  0  0
   -0.6828    0.0000    0.0000 H   0  0  0  0  0  0  0  0  0  0  0  0
  1  2  1  0
  2  3  1  0
  3  4  1  0
  4  5  2  0
  5  6  1  0
  6  7  1  0
  7  8  1  0
  8  9  1  0
  9 10  1  0
 10 11  2  0
 11 12  1  0
 12 13  1  0
 13 14  1  0
 14 15  1  0
 15 16  1  0
 16 17  2  0
 16 18  1  0
 18 19  1  0
 12 20  2  0
 20 21  1  0
 21 22  2  0
 22 23  1  0
 23 24  1  0
 24 25  3  0
 23 26  2  0
 26 27  1  0
  6 28  2  0
 28 29  1  0
 29 30  1  0
 29  3  2  0
 27  9  2  0
 19 13  1  0
 27 20  1  0
  1 32  1  0
  1 33  1  0
  1 34  1  0
  4 35  1  0
  5 36  1  0
  7 37  1  0
  7 38  1  0
  8 39  1  0
 14 40  1  0
 14 41  1  0
 15 42  1  0
 15 43  1  0
 18 44  1  0
 18 45  1  0
 19 46  1  0
 19 47  1  0
 21 48  1  0
 22 49  1  0
 26 50  1  0
 28 51  1  0
 31 52  1  0
M  END
$$$$
