
     RDKit          3D

 25 29  0  0  0  0  0  0  0  0999 V2000
    0.0411   64.3240   82.5214 C   0  0  0  0  0  0  0  0  0  0  0  0
    0.6744   65.4282   82.9312 N   0  0  0  0  0  0  0  0  0  0  0  0
    0.8936   65.5507   84.2506 C   0  0  0  0  0  0  0  0  0  0  0  0
    0.4769   64.5661   85.1665 C   0  0  0  0  0  0  0  0  0  0  0  0
    0.6563   64.6506   86.5716 C   0  0  0  0  0  0  0  0  0  0  0  0
    0.2049   63.6134   87.3526 C   0  0  0  0  0  0  0  0  0  0  0  0
   -0.4094   62.5227   86.7979 C   0  0  0  0  0  0  0  0  0  0  0  0
   -0.6058   62.4174   85.4376 C   0  0  0  0  0  0  0  0  0  0  0  0
   -0.1685   63.4405   84.6039 C   0  0  0  0  0  0  0  0  0  0  0  0
   -0.3809   63.3167   83.2929 N   0  0  0  0  0  0  0  0  0  0  0  0
   -0.7841   61.6078   87.7314 O   0  0  0  0  0  0  0  0  0  0  0  0
   -0.3416   62.2571   88.9419 C   0  0  0  0  0  0  0  0  0  0  0  0
    0.2968   63.5298   88.7049 O   0  0  0  0  0  0  0  0  0  0  0  0
    1.5660   66.6953   84.7341 N   0  0  0  0  0  0  0  0  0  0  0  0
    1.8961   66.4894   85.6722 H   0  0  0  0  0  0  0  0  0  0  0  0
    2.6428   67.2172   83.8987 C   0  0  0  0  0  0  0  0  0  0  0  0
    3.9963   66.7592   84.3954 C   0  0  0  0  0  0  0  0  0  0  0  0
    4.0965   65.6671   85.2909 C   0  0  0  0  0  0  0  0  0  0  0  0
    5.3393   65.2253   85.7555 C   0  0  0  0  0  0  0  0  0  0  0  0
    6.4606   65.8913   85.3128 C   0  0  0  0  0  0  0  0  0  0  0  0
    6.3759   66.9552   84.4462 C   0  0  0  0  0  0  0  0  0  0  0  0
    5.1650   67.4124   83.9706 C   0  0  0  0  0  0  0  0  0  0  0  0
    7.5960   67.4713   84.1372 O   0  0  0  0  0  0  0  0  0  0  0  0
    8.4558   66.6180   84.9202 C   0  0  0  0  0  0  0  0  0  0  0  0
    7.7440   65.6037   85.6585 O   0  0  0  0  0  0  0  0  0  0  0  0
  1  2  2  0
  2  3  1  0
  3 14  1  0
 14 16  1  0
 16 17  1  0
 17 18  1  0
 18 19  2  0
 19 20  1  0
 20 21  2  0
 21 22  1  0
 21 23  1  0
 23 24  1  0
 24 25  1  0
  3  4  2  0
  4  5  1  0
  5  6  2  0
  6  7  1  0
  7  8  2  0
  8  9  1  0
  9 10  2  0
  7 11  1  0
 11 12  1  0
 12 13  1  0
 10  1  1  0
 22 17  2  0
  9  4  1  0
 25 20  1  0
 13  6  1  0
 14 15  1  0
M  END
>  <minimizedAffinity>  (1) 
-9.52051

$$$$
