


 25 29  0  0  0  0  0  0  0  0999 V2000
    0.0411   64.3240   82.5214 C   0  0  0  0  0  0  0  0  0  0  0  0
    0.6744   65.4282   82.9312 N   0  0  0  0  0  0  0  0  0  0  0  0
    0.8936   65.5507   84.2506 C   0  0  0  0  0  0  0  0  0  0  0  0
    0.4769   64.5661   85.1665 C   0  0  0  0  0  0  0  0  0  0  0  0
    0.6563   64.6506   86.5716 C   0  0  0  0  0  0  0  0  0  0  0  0
    0.2049   63.6134   87.3526 C   0  0  0  0  0  0  0  0  0  0  0  0
   -0.4094   62.5227   86.7979 C   0  0  0  0  0  0  0  0  0  0  0  0
   -0.6058   62.4174   85.4376 C   0  0  0  0  0  0  0  0  0  0  0  0
   -0.1685   63.4405   84.6039 C   0  0  0  0  0  0  0  0  0  0  0  0
   -0.3809   63.3167   83.2929 N   0  0  0  0  0  0  0  0  0  0  0  0
   -0.7841   61.6078   87.7314 O   0  0  0  0  0  0  0  0  0  0  0  0
   -0.3416   62.2571   88.9419 C   0  0  0  0  0  0  0  0  0  0  0  0
    0.2968   63.5298   88.7049 O   0  0  0  0  0  0  0  0  0  0  0  0
    1.5660   66.6953   84.7341 N   0  0  0  0  0  0  0  0  0  0  0  0
    1.8961   66.4894   85.6722 H   0  0  0  0  0  0  0  0  0  0  0  0
    2.6428   67.2172   83.8987 C   0  0  0  0  0  0  0  0  0  0  0  0
    3.9963   66.7592   84.3954 C   0  0  0  0  0  0  0  0  0  0  0  0
    4.0965   65.6671   85.2909 C   0  0  0  0  0  0  0  0  0  0  0  0
    5.3393   65.2253   85.7555 C   0  0  0  0  0  0  0  0  0  0  0  0
    6.4606   65.8913   85.3128 C   0  0  0  0  0  0  0  0  0  0  0  0
    6.3759   66.9552   84.4462 C   0  0  0  0  0  0  0  0  0  0  0  0
    5.1650   67.4124   83.9706 C   0  0  0  0  0  0  0  0  0  0  0  0
    7.5960   67.4713   84.1372 O   0  0  0  0  0  0  0  0  0  0  0  0
    8.4558   66.6180   84.9202 C   0  0  0  0  0  0  0  0  0  0  0  0
    7.7440   65.6037   85.6585 O   0  0  0  0  0  0  0  0  0  0  0  0
  1  2  2  0  0  0
  2  3  1  0  0  0
  3 14  1  0  0  0
 14 16  1  0  0  0
 16 17  1  0  0  0
 17 18  1  0  0  0
 18 19  2  0  0  0
 19 20  1  0  0  0
 20 21  2  0  0  0
 21 22  1  0  0  0
 21 23  1  0  0  0
 23 24  1  0  0  0
 24 25  1  0  0  0
  3  4  2  0  0  0
  4  5  1  0  0  0
  5  6  2  0  0  0
  6  7  1  0  0  0
  7  8  2  0  0  0
  8  9  1  0  0  0
  9 10  2  0  0  0
  7 11  1  0  0  0
 11 12  1  0  0  0
 12 13  1  0  0  0
 10  1  1  0  0  0
 22 17  2  0  0  0
  9  4  1  0  0  0
 25 20  1  0  0  0
 13  6  1  0  0  0
 14 15  1  0  0  0
M  END
> <minimizedAffinity>
-9.52051

$$$$



 25 29  0  0  0  0  0  0  0  0999 V2000
   -0.4651   63.9521   79.6744 C   0  0  0  0  0  0  0  0  0  0  0  0
   -0.6395   63.1365   80.7197 N   0  0  0  0  0  0  0  0  0  0  0  0
   -0.1966   63.5701   81.9113 C   0  0  0  0  0  0  0  0  0  0  0  0
    0.4254   64.8242   82.0602 C   0  0  0  0  0  0  0  0  0  0  0  0
    0.9362   65.3257   83.2854 C   0  0  0  0  0  0  0  0  0  0  0  0
    1.5169   66.5716   83.2913 C   0  0  0  0  0  0  0  0  0  0  0  0
    1.6098   67.3167   82.1464 C   0  0  0  0  0  0  0  0  0  0  0  0
    1.1310   66.8517   80.9403 C   0  0  0  0  0  0  0  0  0  0  0  0
    0.5357   65.5967   80.8807 C   0  0  0  0  0  0  0  0  0  0  0  0
    0.0906   65.1681   79.6986 N   0  0  0  0  0  0  0  0  0  0  0  0
    2.2152   68.5161   82.3557 O   0  0  0  0  0  0  0  0  0  0  0  0
    2.5020   68.4335   83.7677 C   0  0  0  0  0  0  0  0  0  0  0  0
    2.0511   67.2014   84.3694 O   0  0  0  0  0  0  0  0  0  0  0  0
   -0.3640   62.7492   83.0489 N   0  0  0  0  0  0  0  0  0  0  0  0
    0.3628   62.9899   83.7162 H   0  0  0  0  0  0  0  0  0  0  0  0
   -1.6820   62.7679   83.6750 C   0  0  0  0  0  0  0  0  0  0  0  0
   -1.5747   62.8447   85.1820 C   0  0  0  0  0  0  0  0  0  0  0  0
   -2.7311   62.7127   85.9881 C   0  0  0  0  0  0  0  0  0  0  0  0
   -2.6505   62.7743   87.3829 C   0  0  0  0  0  0  0  0  0  0  0  0
   -1.4077   62.9697   87.9432 C   0  0  0  0  0  0  0  0  0  0  0  0
   -0.2781   63.1027   87.1709 C   0  0  0  0  0  0  0  0  0  0  0  0
   -0.3264   63.0454   85.7940 C   0  0  0  0  0  0  0  0  0  0  0  0
    0.8427   63.2907   87.9187 O   0  0  0  0  0  0  0  0  0  0  0  0
    0.2852   63.2742   89.2489 C   0  0  0  0  0  0  0  0  0  0  0  0
   -1.1406   63.0571   89.2738 O   0  0  0  0  0  0  0  0  0  0  0  0
  1  2  2  0  0  0
  2  3  1  0  0  0
  3 14  1  0  0  0
 14 16  1  0  0  0
 16 17  1  0  0  0
 17 18  1  0  0  0
 18 19  2  0  0  0
 19 20  1  0  0  0
 20 21  2  0  0  0
 21 22  1  0  0  0
 21 23  1  0  0  0
 23 24  1  0  0  0
 24 25  1  0  0  0
  3  4  2  0  0  0
  4  5  1  0  0  0
  5  6  2  0  0  0
  6  7  1  0  0  0
  7  8  2  0  0  0
  8  9  1  0  0  0
  9 10  2  0  0  0
  7 11  1  0  0  0
 11 12  1  0  0  0
 12 13  1  0  0  0
 10  1  1  0  0  0
 22 17  2  0  0  0
  9  4  1  0  0  0
 25 20  1  0  0  0
 13  6  1  0  0  0
 14 15  1  0  0  0
M  END
> <minimizedAffinity>
-9.51948

$$$$



 25 29  0  0  0  0  0  0  0  0999 V2000
   -1.9851   62.8158   82.4879 C   0  0  0  0  0  0  0  0  0  0  0  0
   -0.8365   63.4500   82.2295 N   0  0  0  0  0  0  0  0  0  0  0  0
   -0.0980   63.8276   83.2859 C   0  0  0  0  0  0  0  0  0  0  0  0
   -0.5090   63.5722   84.6079 C   0  0  0  0  0  0  0  0  0  0  0  0
    0.2136   63.9683   85.7631 C   0  0  0  0  0  0  0  0  0  0  0  0
   -0.3003   63.6499   86.9977 C   0  0  0  0  0  0  0  0  0  0  0  0
   -1.4833   62.9716   87.1204 C   0  0  0  0  0  0  0  0  0  0  0  0
   -2.2114   62.5823   86.0166 C   0  0  0  0  0  0  0  0  0  0  0  0
   -1.7354   62.8814   84.7450 C   0  0  0  0  0  0  0  0  0  0  0  0
   -2.4657   62.5015   83.6955 N   0  0  0  0  0  0  0  0  0  0  0  0
   -1.8234   62.7525   88.4185 O   0  0  0  0  0  0  0  0  0  0  0  0
   -0.7183   63.3831   89.0996 C   0  0  0  0  0  0  0  0  0  0  0  0
    0.2584   63.9477   88.1991 O   0  0  0  0  0  0  0  0  0  0  0  0
    1.1282   64.4941   83.0665 N   0  0  0  0  0  0  0  0  0  0  0  0
    1.5294   64.1329   82.2063 H   0  0  0  0  0  0  0  0  0  0  0  0
    1.0816   65.9526   83.0549 C   0  0  0  0  0  0  0  0  0  0  0  0
    2.2555   66.5470   83.8012 C   0  0  0  0  0  0  0  0  0  0  0  0
    2.4611   67.9479   83.8101 C   0  0  0  0  0  0  0  0  0  0  0  0
    3.5366   68.5160   84.5000 C   0  0  0  0  0  0  0  0  0  0  0  0
    4.3888   67.6647   85.1678 C   0  0  0  0  0  0  0  0  0  0  0  0
    4.2016   66.3027   85.1638 C   0  0  0  0  0  0  0  0  0  0  0  0
    3.1500   65.7142   84.4935 C   0  0  0  0  0  0  0  0  0  0  0  0
    5.1540   65.6458   85.8792 O   0  0  0  0  0  0  0  0  0  0  0  0
    5.9688   66.7507   86.3217 C   0  0  0  0  0  0  0  0  0  0  0  0
    5.4820   68.0367   85.8860 O   0  0  0  0  0  0  0  0  0  0  0  0
  1  2  2  0  0  0
  2  3  1  0  0  0
  3 14  1  0  0  0
 14 16  1  0  0  0
 16 17  1  0  0  0
 17 18  1  0  0  0
 18 19  2  0  0  0
 19 20  1  0  0  0
 20 21  2  0  0  0
 21 22  1  0  0  0
 21 23  1  0  0  0
 23 24  1  0  0  0
 24 25  1  0  0  0
  3  4  2  0  0  0
  4  5  1  0  0  0
  5  6  2  0  0  0
  6  7  1  0  0  0
  7  8  2  0  0  0
  8  9  1  0  0  0
  9 10  2  0  0  0
  7 11  1  0  0  0
 11 12  1  0  0  0
 12 13  1  0  0  0
 10  1  1  0  0  0
 22 17  2  0  0  0
  9  4  1  0  0  0
 25 20  1  0  0  0
 13  6  1  0  0  0
 14 15  1  0  0  0
M  END
> <minimizedAffinity>
-9.40396

$$$$



 25 29  0  0  0  0  0  0  0  0999 V2000
   -2.3620   61.6646   82.8061 C   0  0  0  0  0  0  0  0  0  0  0  0
   -1.2866   62.2943   82.3209 N   0  0  0  0  0  0  0  0  0  0  0  0
   -0.5017   62.9299   83.2063 C   0  0  0  0  0  0  0  0  0  0  0  0
   -0.7928   62.9386   84.5837 C   0  0  0  0  0  0  0  0  0  0  0  0
   -0.0178   63.6125   85.5629 C   0  0  0  0  0  0  0  0  0  0  0  0
   -0.4130   63.5352   86.8772 C   0  0  0  0  0  0  0  0  0  0  0  0
   -1.5294   62.8317   87.2424 C   0  0  0  0  0  0  0  0  0  0  0  0
   -2.3066   62.1751   86.3123 C   0  0  0  0  0  0  0  0  0  0  0  0
   -1.9504   62.2235   84.9693 C   0  0  0  0  0  0  0  0  0  0  0  0
   -2.7264   61.5876   84.0903 N   0  0  0  0  0  0  0  0  0  0  0  0
   -1.7544   62.8749   88.5827 O   0  0  0  0  0  0  0  0  0  0  0  0
   -0.6519   63.6984   89.0174 C   0  0  0  0  0  0  0  0  0  0  0  0
    0.2099   64.1135   87.9364 O   0  0  0  0  0  0  0  0  0  0  0  0
    0.6513   63.6038   82.7457 N   0  0  0  0  0  0  0  0  0  0  0  0
    1.2626   62.9164   82.3152 H   0  0  0  0  0  0  0  0  0  0  0  0
    0.4281   64.7403   81.8579 C   0  0  0  0  0  0  0  0  0  0  0  0
    1.1648   65.9699   82.3417 C   0  0  0  0  0  0  0  0  0  0  0  0
    1.3916   66.1685   83.7251 C   0  0  0  0  0  0  0  0  0  0  0  0
    2.0765   67.2954   84.1906 C   0  0  0  0  0  0  0  0  0  0  0  0
    2.5199   68.2048   83.2562 C   0  0  0  0  0  0  0  0  0  0  0  0
    2.3029   68.0248   81.9106 C   0  0  0  0  0  0  0  0  0  0  0  0
    1.6319   66.9235   81.4222 C   0  0  0  0  0  0  0  0  0  0  0  0
    2.8174   69.0372   81.1618 O   0  0  0  0  0  0  0  0  0  0  0  0
    3.3706   69.8808   82.1927 C   0  0  0  0  0  0  0  0  0  0  0  0
    3.1982   69.3527   83.5239 O   0  0  0  0  0  0  0  0  0  0  0  0
  1  2  2  0  0  0
  2  3  1  0  0  0
  3 14  1  0  0  0
 14 16  1  0  0  0
 16 17  1  0  0  0
 17 18  1  0  0  0
 18 19  2  0  0  0
 19 20  1  0  0  0
 20 21  2  0  0  0
 21 22  1  0  0  0
 21 23  1  0  0  0
 23 24  1  0  0  0
 24 25  1  0  0  0
  3  4  2  0  0  0
  4  5  1  0  0  0
  5  6  2  0  0  0
  6  7  1  0  0  0
  7  8  2  0  0  0
  8  9  1  0  0  0
  9 10  2  0  0  0
  7 11  1  0  0  0
 11 12  1  0  0  0
 12 13  1  0  0  0
 10  1  1  0  0  0
 22 17  2  0  0  0
  9  4  1  0  0  0
 25 20  1  0  0  0
 13  6  1  0  0  0
 14 15  1  0  0  0
M  END
> <minimizedAffinity>
-9.40181

$$$$



 25 29  0  0  0  0  0  0  0  0999 V2000
   -3.0208   60.0440   82.5447 C   0  0  0  0  0  0  0  0  0  0  0  0
   -2.0950   60.8620   83.0566 N   0  0  0  0  0  0  0  0  0  0  0  0
   -1.2167   61.4024   82.1961 C   0  0  0  0  0  0  0  0  0  0  0  0
   -1.2616   61.1234   80.8169 C   0  0  0  0  0  0  0  0  0  0  0  0
   -0.3474   61.6422   79.8636 C   0  0  0  0  0  0  0  0  0  0  0  0
   -0.5088   61.2920   78.5442 C   0  0  0  0  0  0  0  0  0  0  0  0
   -1.5212   60.4589   78.1498 C   0  0  0  0  0  0  0  0  0  0  0  0
   -2.4183   59.9325   79.0544 C   0  0  0  0  0  0  0  0  0  0  0  0
   -2.2975   60.2549   80.4014 C   0  0  0  0  0  0  0  0  0  0  0  0
   -3.1731   59.7230   81.2556 N   0  0  0  0  0  0  0  0  0  0  0  0
   -1.5135   60.2315   76.8092 O   0  0  0  0  0  0  0  0  0  0  0  0
   -0.3687   61.0129   76.4072 C   0  0  0  0  0  0  0  0  0  0  0  0
    0.2685   61.6972   77.5069 O   0  0  0  0  0  0  0  0  0  0  0  0
   -0.2234   62.2798   82.6854 N   0  0  0  0  0  0  0  0  0  0  0  0
    0.4167   62.4816   81.9232 H   0  0  0  0  0  0  0  0  0  0  0  0
   -0.6956   63.5079   83.3167 C   0  0  0  0  0  0  0  0  0  0  0  0
   -0.2493   63.5919   84.7597 C   0  0  0  0  0  0  0  0  0  0  0  0
    0.6911   64.5715   85.1607 C   0  0  0  0  0  0  0  0  0  0  0  0
    1.1104   64.6689   86.4912 C   0  0  0  0  0  0  0  0  0  0  0  0
    0.5779   63.7773   87.3958 C   0  0  0  0  0  0  0  0  0  0  0  0
   -0.3332   62.8195   87.0181 C   0  0  0  0  0  0  0  0  0  0  0  0
   -0.7658   62.7001   85.7142 C   0  0  0  0  0  0  0  0  0  0  0  0
   -0.7303   62.0411   88.0605 O   0  0  0  0  0  0  0  0  0  0  0  0
    0.0465   62.6111   89.1339 C   0  0  0  0  0  0  0  0  0  0  0  0
    0.8690   63.7225   88.7231 O   0  0  0  0  0  0  0  0  0  0  0  0
  1  2  2  0  0  0
  2  3  1  0  0  0
  3 14  1  0  0  0
 14 16  1  0  0  0
 16 17  1  0  0  0
 17 18  1  0  0  0
 18 19  2  0  0  0
 19 20  1  0  0  0
 20 21  2  0  0  0
 21 22  1  0  0  0
 21 23  1  0  0  0
 23 24  1  0  0  0
 24 25  1  0  0  0
  3  4  2  0  0  0
  4  5  1  0  0  0
  5  6  2  0  0  0
  6  7  1  0  0  0
  7  8  2  0  0  0
  8  9  1  0  0  0
  9 10  2  0  0  0
  7 11  1  0  0  0
 11 12  1  0  0  0
 12 13  1  0  0  0
 10  1  1  0  0  0
 22 17  2  0  0  0
  9  4  1  0  0  0
 25 20  1  0  0  0
 13  6  1  0  0  0
 14 15  1  0  0  0
M  END
> <minimizedAffinity>
-9.35099

$$$$



 25 29  0  0  0  0  0  0  0  0999 V2000
    0.6399   65.3485   82.8631 C   0  0  0  0  0  0  0  0  0  0  0  0
   -0.3136   64.5126   82.4385 N   0  0  0  0  0  0  0  0  0  0  0  0
   -0.8267   63.6633   83.3437 C   0  0  0  0  0  0  0  0  0  0  0  0
   -0.3843   63.6471   84.6801 C   0  0  0  0  0  0  0  0  0  0  0  0
   -0.8683   62.7578   85.6744 C   0  0  0  0  0  0  0  0  0  0  0  0
   -0.3520   62.8528   86.9448 C   0  0  0  0  0  0  0  0  0  0  0  0
    0.6105   63.7766   87.2523 C   0  0  0  0  0  0  0  0  0  0  0  0
    1.1063   64.6469   86.3052 C   0  0  0  0  0  0  0  0  0  0  0  0
    0.6178   64.5907   85.0047 C   0  0  0  0  0  0  0  0  0  0  0  0
    1.1230   65.4378   84.1068 N   0  0  0  0  0  0  0  0  0  0  0  0
    0.9925   63.7135   88.5557 O   0  0  0  0  0  0  0  0  0  0  0  0
    0.1628   62.6324   89.0305 C   0  0  0  0  0  0  0  0  0  0  0  0
   -0.7014   62.0875   88.0108 O   0  0  0  0  0  0  0  0  0  0  0  0
   -1.8425   62.7650   82.9475 N   0  0  0  0  0  0  0  0  0  0  0  0
   -2.3935   62.5359   83.7693 H   0  0  0  0  0  0  0  0  0  0  0  0
   -2.6951   63.1945   81.8438 C   0  0  0  0  0  0  0  0  0  0  0  0
   -2.7329   62.1587   80.7419 C   0  0  0  0  0  0  0  0  0  0  0  0
   -3.9640   61.5839   80.3438 C   0  0  0  0  0  0  0  0  0  0  0  0
   -4.0195   60.6300   79.3227 C   0  0  0  0  0  0  0  0  0  0  0  0
   -2.8347   60.2689   78.7205 C   0  0  0  0  0  0  0  0  0  0  0  0
   -1.6326   60.8173   79.1005 C   0  0  0  0  0  0  0  0  0  0  0  0
   -1.5470   61.7603   80.1031 C   0  0  0  0  0  0  0  0  0  0  0  0
   -0.5871   60.3234   78.3840 O   0  0  0  0  0  0  0  0  0  0  0  0
   -1.2689   59.3915   77.5197 C   0  0  0  0  0  0  0  0  0  0  0  0
   -2.6975   59.3610   77.7174 O   0  0  0  0  0  0  0  0  0  0  0  0
  1  2  2  0  0  0
  2  3  1  0  0  0
  3 14  1  0  0  0
 14 16  1  0  0  0
 16 17  1  0  0  0
 17 18  1  0  0  0
 18 19  2  0  0  0
 19 20  1  0  0  0
 20 21  2  0  0  0
 21 22  1  0  0  0
 21 23  1  0  0  0
 23 24  1  0  0  0
 24 25  1  0  0  0
  3  4  2  0  0  0
  4  5  1  0  0  0
  5  6  2  0  0  0
  6  7  1  0  0  0
  7  8  2  0  0  0
  8  9  1  0  0  0
  9 10  2  0  0  0
  7 11  1  0  0  0
 11 12  1  0  0  0
 12 13  1  0  0  0
 10  1  1  0  0  0
 22 17  2  0  0  0
  9  4  1  0  0  0
 25 20  1  0  0  0
 13  6  1  0  0  0
 14 15  1  0  0  0
M  END
> <minimizedAffinity>
-9.34132

$$$$



 25 29  0  0  0  0  0  0  0  0999 V2000
    0.1310   65.6078   81.2289 C   0  0  0  0  0  0  0  0  0  0  0  0
   -0.1756   64.7729   82.2275 N   0  0  0  0  0  0  0  0  0  0  0  0
   -0.4080   63.4911   81.9005 C   0  0  0  0  0  0  0  0  0  0  0  0
   -0.3356   63.0403   80.5688 C   0  0  0  0  0  0  0  0  0  0  0  0
   -0.5952   61.7070   80.1582 C   0  0  0  0  0  0  0  0  0  0  0  0
   -0.4836   61.3999   78.8230 C   0  0  0  0  0  0  0  0  0  0  0  0
   -0.1359   62.3520   77.9025 C   0  0  0  0  0  0  0  0  0  0  0  0
    0.1130   63.6568   78.2707 C   0  0  0  0  0  0  0  0  0  0  0  0
    0.0123   64.0192   79.6092 C   0  0  0  0  0  0  0  0  0  0  0  0
    0.2486   65.2908   79.9351 N   0  0  0  0  0  0  0  0  0  0  0  0
   -0.0793   61.8549   76.6382 O   0  0  0  0  0  0  0  0  0  0  0  0
   -0.4430   60.4778   76.8705 C   0  0  0  0  0  0  0  0  0  0  0  0
   -0.6923   60.1813   78.2611 O   0  0  0  0  0  0  0  0  0  0  0  0
   -0.7281   62.5670   82.9200 N   0  0  0  0  0  0  0  0  0  0  0  0
    0.0518   62.5378   83.5698 H   0  0  0  0  0  0  0  0  0  0  0  0
   -1.9901   62.7837   83.6201 C   0  0  0  0  0  0  0  0  0  0  0  0
   -1.7828   62.8648   85.1164 C   0  0  0  0  0  0  0  0  0  0  0  0
   -2.8806   62.7190   85.9985 C   0  0  0  0  0  0  0  0  0  0  0  0
   -2.7073   62.7842   87.3846 C   0  0  0  0  0  0  0  0  0  0  0  0
   -1.4324   62.9973   87.8600 C   0  0  0  0  0  0  0  0  0  0  0  0
   -0.3591   63.1439   87.0134 C   0  0  0  0  0  0  0  0  0  0  0  0
   -0.4990   63.0834   85.6429 C   0  0  0  0  0  0  0  0  0  0  0  0
    0.8067   63.3482   87.6840 O   0  0  0  0  0  0  0  0  0  0  0  0
    0.3401   63.3269   89.0486 C   0  0  0  0  0  0  0  0  0  0  0  0
   -1.0777   63.0908   89.1695 O   0  0  0  0  0  0  0  0  0  0  0  0
  1  2  2  0  0  0
  2  3  1  0  0  0
  3 14  1  0  0  0
 14 16  1  0  0  0
 16 17  1  0  0  0
 17 18  1  0  0  0
 18 19  2  0  0  0
 19 20  1  0  0  0
 20 21  2  0  0  0
 21 22  1  0  0  0
 21 23  1  0  0  0
 23 24  1  0  0  0
 24 25  1  0  0  0
  3  4  2  0  0  0
  4  5  1  0  0  0
  5  6  2  0  0  0
  6  7  1  0  0  0
  7  8  2  0  0  0
  8  9  1  0  0  0
  9 10  2  0  0  0
  7 11  1  0  0  0
 11 12  1  0  0  0
 12 13  1  0  0  0
 10  1  1  0  0  0
 22 17  2  0  0  0
  9  4  1  0  0  0
 25 20  1  0  0  0
 13  6  1  0  0  0
 14 15  1  0  0  0
M  END
> <minimizedAffinity>
-9.29406

$$$$



 25 29  0  0  0  0  0  0  0  0999 V2000
   -0.6189   63.8257   82.1522 C   0  0  0  0  0  0  0  0  0  0  0  0
    0.1697   64.9017   82.2452 N   0  0  0  0  0  0  0  0  0  0  0  0
    0.6310   65.2152   83.4670 C   0  0  0  0  0  0  0  0  0  0  0  0
    0.3019   64.4514   84.6029 C   0  0  0  0  0  0  0  0  0  0  0  0
    0.7362   64.7466   85.9212 C   0  0  0  0  0  0  0  0  0  0  0  0
    0.3444   63.9129   86.9414 C   0  0  0  0  0  0  0  0  0  0  0  0
   -0.4504   62.8240   86.7024 C   0  0  0  0  0  0  0  0  0  0  0  0
   -0.8951   62.5178   85.4341 C   0  0  0  0  0  0  0  0  0  0  0  0
   -0.5277   63.3306   84.3676 C   0  0  0  0  0  0  0  0  0  0  0  0
   -0.9810   63.0163   83.1531 N   0  0  0  0  0  0  0  0  0  0  0  0
   -0.7292   62.1265   87.8358 O   0  0  0  0  0  0  0  0  0  0  0  0
   -0.0233   62.9119   88.8194 C   0  0  0  0  0  0  0  0  0  0  0  0
    0.6692   64.0450   88.2534 O   0  0  0  0  0  0  0  0  0  0  0  0
    1.4746   66.3384   83.6177 N   0  0  0  0  0  0  0  0  0  0  0  0
    2.1821   66.1059   84.3082 H   0  0  0  0  0  0  0  0  0  0  0  0
    2.0803   66.8639   82.3985 C   0  0  0  0  0  0  0  0  0  0  0  0
    1.4771   68.1971   82.0144 C   0  0  0  0  0  0  0  0  0  0  0  0
    0.5501   68.2809   80.9475 C   0  0  0  0  0  0  0  0  0  0  0  0
   -0.0229   69.5032   80.5826 C   0  0  0  0  0  0  0  0  0  0  0  0
    0.3481   70.6213   81.2961 C   0  0  0  0  0  0  0  0  0  0  0  0
    1.2497   70.5532   82.3317 C   0  0  0  0  0  0  0  0  0  0  0  0
    1.8302   69.3624   82.7147 C   0  0  0  0  0  0  0  0  0  0  0  0
    1.4800   71.7674   82.9001 O   0  0  0  0  0  0  0  0  0  0  0  0
    0.6299   72.6083   82.0934 C   0  0  0  0  0  0  0  0  0  0  0  0
   -0.1026   71.8864   81.0820 O   0  0  0  0  0  0  0  0  0  0  0  0
  1  2  2  0  0  0
  2  3  1  0  0  0
  3 14  1  0  0  0
 14 16  1  0  0  0
 16 17  1  0  0  0
 17 18  1  0  0  0
 18 19  2  0  0  0
 19 20  1  0  0  0
 20 21  2  0  0  0
 21 22  1  0  0  0
 21 23  1  0  0  0
 23 24  1  0  0  0
 24 25  1  0  0  0
  3  4  2  0  0  0
  4  5  1  0  0  0
  5  6  2  0  0  0
  6  7  1  0  0  0
  7  8  2  0  0  0
  8  9  1  0  0  0
  9 10  2  0  0  0
  7 11  1  0  0  0
 11 12  1  0  0  0
 12 13  1  0  0  0
 10  1  1  0  0  0
 22 17  2  0  0  0
  9  4  1  0  0  0
 25 20  1  0  0  0
 13  6  1  0  0  0
 14 15  1  0  0  0
M  END
> <minimizedAffinity>
-9.28330

$$$$



 25 29  0  0  0  0  0  0  0  0999 V2000
    0.7220   64.0704   78.0513 C   0  0  0  0  0  0  0  0  0  0  0  0
    0.4403   64.6973   79.1984 N   0  0  0  0  0  0  0  0  0  0  0  0
   -0.4103   64.0818   80.0361 C   0  0  0  0  0  0  0  0  0  0  0  0
   -0.9842   62.8342   79.7263 C   0  0  0  0  0  0  0  0  0  0  0  0
   -1.9074   62.1477   80.5571 C   0  0  0  0  0  0  0  0  0  0  0  0
   -2.3883   60.9310   80.1352 C   0  0  0  0  0  0  0  0  0  0  0  0
   -1.9961   60.3884   78.9408 C   0  0  0  0  0  0  0  0  0  0  0  0
   -1.1082   61.0365   78.1091 C   0  0  0  0  0  0  0  0  0  0  0  0
   -0.5934   62.2708   78.4895 C   0  0  0  0  0  0  0  0  0  0  0  0
    0.2557   62.8797   77.6605 N   0  0  0  0  0  0  0  0  0  0  0  0
   -2.5806   59.1844   78.7012 O   0  0  0  0  0  0  0  0  0  0  0  0
   -3.3962   59.0378   79.8827 C   0  0  0  0  0  0  0  0  0  0  0  0
   -3.2700   60.1429   80.8027 O   0  0  0  0  0  0  0  0  0  0  0  0
   -0.7345   64.6987   81.2650 N   0  0  0  0  0  0  0  0  0  0  0  0
   -1.3579   64.0766   81.7708 H   0  0  0  0  0  0  0  0  0  0  0  0
    0.3885   65.1130   82.0999 C   0  0  0  0  0  0  0  0  0  0  0  0
    0.2501   64.5846   83.5106 C   0  0  0  0  0  0  0  0  0  0  0  0
    0.8853   65.2488   84.5877 C   0  0  0  0  0  0  0  0  0  0  0  0
    0.7633   64.7791   85.8992 C   0  0  0  0  0  0  0  0  0  0  0  0
    0.0058   63.6474   86.1048 C   0  0  0  0  0  0  0  0  0  0  0  0
   -0.6130   62.9918   85.0668 C   0  0  0  0  0  0  0  0  0  0  0  0
   -0.5115   63.4318   83.7639 C   0  0  0  0  0  0  0  0  0  0  0  0
   -1.3070   61.8986   85.4835 O   0  0  0  0  0  0  0  0  0  0  0  0
   -1.0417   61.9350   86.9008 C   0  0  0  0  0  0  0  0  0  0  0  0
   -0.2207   63.0499   87.3052 O   0  0  0  0  0  0  0  0  0  0  0  0
  1  2  2  0  0  0
  2  3  1  0  0  0
  3 14  1  0  0  0
 14 16  1  0  0  0
 16 17  1  0  0  0
 17 18  1  0  0  0
 18 19  2  0  0  0
 19 20  1  0  0  0
 20 21  2  0  0  0
 21 22  1  0  0  0
 21 23  1  0  0  0
 23 24  1  0  0  0
 24 25  1  0  0  0
  3  4  2  0  0  0
  4  5  1  0  0  0
  5  6  2  0  0  0
  6  7  1  0  0  0
  7  8  2  0  0  0
  8  9  1  0  0  0
  9 10  2  0  0  0
  7 11  1  0  0  0
 11 12  1  0  0  0
 12 13  1  0  0  0
 10  1  1  0  0  0
 22 17  2  0  0  0
  9  4  1  0  0  0
 25 20  1  0  0  0
 13  6  1  0  0  0
 14 15  1  0  0  0
M  END
> <minimizedAffinity>
-9.20028

$$$$
