


 33 35  0  0  0  0  0  0  0  0999 V2000
   -0.0568   62.2096   80.7562 C   0  0  0  0  0  0  0  0  0  0  0  0
   -0.2775   61.6470   82.0134 C   0  0  0  0  0  0  0  0  0  0  0  0
   -0.1479   62.4052   83.1913 C   0  0  0  0  0  0  0  0  0  0  0  0
   -0.4056   61.7946   84.4221 C   0  0  0  0  0  0  0  0  0  0  0  0
   -0.3096   62.4901   85.6345 C   0  0  0  0  0  0  0  0  0  0  0  0
    0.0631   63.8550   85.6241 C   0  0  0  0  0  0  0  0  0  0  0  0
    0.3356   64.4982   84.3768 C   0  0  0  0  0  0  0  0  0  0  0  0
    0.2205   63.7673   83.1410 C   0  0  0  0  0  0  0  0  0  0  0  0
    0.4286   64.3155   81.8459 C   0  0  0  0  0  0  0  0  0  0  0  0
    0.2973   63.5611   80.6703 C   0  0  0  0  0  0  0  0  0  0  0  0
   -0.6580   61.7431   86.9046 C   0  0  0  0  0  0  0  0  0  0  0  0
   -2.0357   61.4062   86.9239 O   0  0  0  0  0  0  0  0  0  0  0  0
   -2.5282   62.2453   86.8027 H   0  0  0  0  0  0  0  0  0  0  0  0
    0.0958   64.6043   86.9402 C   0  0  0  0  0  0  0  0  0  0  0  0
    1.2889   64.2502   87.6314 O   0  0  0  0  0  0  0  0  0  0  0  0
    1.1915   63.3099   87.8767 H   0  0  0  0  0  0  0  0  0  0  0  0
   -1.3436   60.7685   79.3474 C   0  0  0  0  0  0  0  0  0  0  0  0
   -0.1677   61.5336   79.5675 O   0  0  0  0  0  0  0  0  0  0  0  0
    0.4860   64.0547   79.4030 O   0  0  0  0  0  0  0  0  0  0  0  0
    0.2469   65.4364   79.1800 C   0  0  0  0  0  0  0  0  0  0  0  0
    0.7060   65.9817   84.3587 C   0  0  0  0  0  0  0  0  0  0  0  0
    2.1951   66.2641   84.4043 C   0  0  0  0  0  0  0  0  0  0  0  0
    3.0981   65.3746   85.0120 C   0  0  0  0  0  0  0  0  0  0  0  0
    4.4671   65.6598   85.0658 C   0  0  0  0  0  0  0  0  0  0  0  0
    4.9365   66.8707   84.5276 C   0  0  0  0  0  0  0  0  0  0  0  0
    4.0543   67.7532   83.8922 C   0  0  0  0  0  0  0  0  0  0  0  0
    2.6887   67.4613   83.8667 C   0  0  0  0  0  0  0  0  0  0  0  0
    5.4091   64.8421   85.6365 O   0  0  0  0  0  0  0  0  0  0  0  0
    5.4304   64.7613   87.0562 C   0  0  0  0  0  0  0  0  0  0  0  0
    6.2773   67.1651   84.6027 O   0  0  0  0  0  0  0  0  0  0  0  0
    6.5308   67.9656   85.7582 C   0  0  0  0  0  0  0  0  0  0  0  0
    4.3965   68.9501   83.3191 O   0  0  0  0  0  0  0  0  0  0  0  0
    3.2881   69.7089   82.8389 C   0  0  0  0  0  0  0  0  0  0  0  0
 17 18  1  0  0  0
 18  1  1  0  0  0
  1  2  1  0  0  0
  2  3  2  0  0  0
  3  4  1  0  0  0
  4  5  2  0  0  0
  5 11  1  0  0  0
 11 12  1  0  0  0
  5  6  1  0  0  0
  6 14  1  0  0  0
 14 15  1  0  0  0
  6  7  2  0  0  0
  7 21  1  0  0  0
 21 22  1  0  0  0
 22 23  1  0  0  0
 23 24  2  0  0  0
 24 28  1  0  0  0
 28 29  1  0  0  0
 24 25  1  0  0  0
 25 30  1  0  0  0
 30 31  1  0  0  0
 25 26  2  0  0  0
 26 32  1  0  0  0
 32 33  1  0  0  0
 26 27  1  0  0  0
  7  8  1  0  0  0
  8  9  2  0  0  0
  9 10  1  0  0  0
 10 19  1  0  0  0
 19 20  1  0  0  0
 10  1  2  0  0  0
  8  3  1  0  0  0
 27 22  2  0  0  0
 12 13  1  0  0  0
 15 16  1  0  0  0
M  END
> <minimizedAffinity>
-9.02438

$$$$



 33 35  0  0  0  0  0  0  0  0999 V2000
    1.8172   66.1999   83.4517 C   0  0  0  0  0  0  0  0  0  0  0  0
    1.8763   65.7756   84.7792 C   0  0  0  0  0  0  0  0  0  0  0  0
    0.9656   64.8334   85.2913 C   0  0  0  0  0  0  0  0  0  0  0  0
    1.0884   64.4268   86.6230 C   0  0  0  0  0  0  0  0  0  0  0  0
    0.2265   63.4832   87.1973 C   0  0  0  0  0  0  0  0  0  0  0  0
   -0.8076   62.9198   86.4131 C   0  0  0  0  0  0  0  0  0  0  0  0
   -0.9541   63.3247   85.0498 C   0  0  0  0  0  0  0  0  0  0  0  0
   -0.0503   64.2884   84.4761 C   0  0  0  0  0  0  0  0  0  0  0  0
   -0.0791   64.7317   83.1257 C   0  0  0  0  0  0  0  0  0  0  0  0
    0.8298   65.6695   82.6131 C   0  0  0  0  0  0  0  0  0  0  0  0
    0.4807   63.0799   88.6344 C   0  0  0  0  0  0  0  0  0  0  0  0
   -0.3936   63.7735   89.5099 O   0  0  0  0  0  0  0  0  0  0  0  0
   -0.2646   64.7289   89.3313 H   0  0  0  0  0  0  0  0  0  0  0  0
   -1.6854   61.8531   87.0346 C   0  0  0  0  0  0  0  0  0  0  0  0
   -2.7405   62.4939   87.7436 O   0  0  0  0  0  0  0  0  0  0  0  0
   -2.3219   62.9503   88.4988 H   0  0  0  0  0  0  0  0  0  0  0  0
    3.0316   68.2499   83.6516 C   0  0  0  0  0  0  0  0  0  0  0  0
    2.6718   67.1107   82.8839 O   0  0  0  0  0  0  0  0  0  0  0  0
    0.8366   66.1189   81.3158 O   0  0  0  0  0  0  0  0  0  0  0  0
    0.3246   65.2609   80.3070 C   0  0  0  0  0  0  0  0  0  0  0  0
   -2.0493   62.6935   84.1894 C   0  0  0  0  0  0  0  0  0  0  0  0
   -1.5861   62.2058   82.8304 C   0  0  0  0  0  0  0  0  0  0  0  0
   -0.2640   61.7838   82.6076 C   0  0  0  0  0  0  0  0  0  0  0  0
    0.1544   61.3571   81.3422 C   0  0  0  0  0  0  0  0  0  0  0  0
   -0.7594   61.3813   80.2741 C   0  0  0  0  0  0  0  0  0  0  0  0
   -2.0877   61.7701   80.4864 C   0  0  0  0  0  0  0  0  0  0  0  0
   -2.4813   62.2124   81.7514 C   0  0  0  0  0  0  0  0  0  0  0  0
    1.4235   60.9279   81.0474 O   0  0  0  0  0  0  0  0  0  0  0  0
    2.2552   60.5502   82.1374 C   0  0  0  0  0  0  0  0  0  0  0  0
   -0.3435   60.9876   79.0242 O   0  0  0  0  0  0  0  0  0  0  0  0
    0.0197   62.1343   78.2540 C   0  0  0  0  0  0  0  0  0  0  0  0
   -3.0684   61.8186   79.5303 O   0  0  0  0  0  0  0  0  0  0  0  0
   -3.7801   60.5945   79.3572 C   0  0  0  0  0  0  0  0  0  0  0  0
 17 18  1  0  0  0
 18  1  1  0  0  0
  1  2  1  0  0  0
  2  3  2  0  0  0
  3  4  1  0  0  0
  4  5  2  0  0  0
  5 11  1  0  0  0
 11 12  1  0  0  0
  5  6  1  0  0  0
  6 14  1  0  0  0
 14 15  1  0  0  0
  6  7  2  0  0  0
  7 21  1  0  0  0
 21 22  1  0  0  0
 22 23  1  0  0  0
 23 24  2  0  0  0
 24 28  1  0  0  0
 28 29  1  0  0  0
 24 25  1  0  0  0
 25 30  1  0  0  0
 30 31  1  0  0  0
 25 26  2  0  0  0
 26 32  1  0  0  0
 32 33  1  0  0  0
 26 27  1  0  0  0
  7  8  1  0  0  0
  8  9  2  0  0  0
  9 10  1  0  0  0
 10 19  1  0  0  0
 19 20  1  0  0  0
 10  1  2  0  0  0
  8  3  1  0  0  0
 27 22  2  0  0  0
 12 13  1  0  0  0
 15 16  1  0  0  0
M  END
> <minimizedAffinity>
-8.87687

$$$$



 33 35  0  0  0  0  0  0  0  0999 V2000
    0.0874   62.5685   80.6932 C   0  0  0  0  0  0  0  0  0  0  0  0
   -0.1394   61.9054   81.8993 C   0  0  0  0  0  0  0  0  0  0  0  0
   -0.0411   62.5715   83.1345 C   0  0  0  0  0  0  0  0  0  0  0  0
   -0.3036   61.8619   84.3099 C   0  0  0  0  0  0  0  0  0  0  0  0
   -0.2382   62.4623   85.5741 C   0  0  0  0  0  0  0  0  0  0  0  0
    0.1074   63.8306   85.6757 C   0  0  0  0  0  0  0  0  0  0  0  0
    0.3842   64.5743   84.4865 C   0  0  0  0  0  0  0  0  0  0  0  0
    0.3007   63.9401   83.1960 C   0  0  0  0  0  0  0  0  0  0  0  0
    0.5157   64.5916   81.9508 C   0  0  0  0  0  0  0  0  0  0  0  0
    0.4157   63.9290   80.7182 C   0  0  0  0  0  0  0  0  0  0  0  0
   -0.5891   61.6120   86.7767 C   0  0  0  0  0  0  0  0  0  0  0  0
   -1.9962   61.5167   86.9275 O   0  0  0  0  0  0  0  0  0  0  0  0
   -2.3333   62.4363   86.9728 H   0  0  0  0  0  0  0  0  0  0  0  0
    0.1070   64.4753   87.0464 C   0  0  0  0  0  0  0  0  0  0  0  0
    1.3559   64.2034   87.6732 O   0  0  0  0  0  0  0  0  0  0  0  0
    1.3699   63.2420   87.8445 H   0  0  0  0  0  0  0  0  0  0  0  0
   -0.9053   60.9097   79.2859 C   0  0  0  0  0  0  0  0  0  0  0  0
    0.0064   61.9855   79.4539 O   0  0  0  0  0  0  0  0  0  0  0  0
    0.6119   64.5235   79.4962 O   0  0  0  0  0  0  0  0  0  0  0  0
   -0.1000   65.7183   79.2107 C   0  0  0  0  0  0  0  0  0  0  0  0
    0.7252   66.0613   84.5896 C   0  0  0  0  0  0  0  0  0  0  0  0
    2.2075   66.3769   84.5406 C   0  0  0  0  0  0  0  0  0  0  0  0
    2.6965   67.5345   83.9107 C   0  0  0  0  0  0  0  0  0  0  0  0
    4.0692   67.8010   83.8544 C   0  0  0  0  0  0  0  0  0  0  0  0
    4.9701   66.8774   84.4128 C   0  0  0  0  0  0  0  0  0  0  0  0
    4.4974   65.7349   85.0701 C   0  0  0  0  0  0  0  0  0  0  0  0
    3.1253   65.4754   85.0981 C   0  0  0  0  0  0  0  0  0  0  0  0
    4.6219   68.9082   83.2626 O   0  0  0  0  0  0  0  0  0  0  0  0
    3.7760   69.6986   82.4366 C   0  0  0  0  0  0  0  0  0  0  0  0
    6.3203   67.1240   84.3355 O   0  0  0  0  0  0  0  0  0  0  0  0
    6.7809   67.6751   85.5702 C   0  0  0  0  0  0  0  0  0  0  0  0
    5.2754   64.7757   85.6640 O   0  0  0  0  0  0  0  0  0  0  0  0
    5.1765   64.7378   87.0865 C   0  0  0  0  0  0  0  0  0  0  0  0
 17 18  1  0  0  0
 18  1  1  0  0  0
  1  2  1  0  0  0
  2  3  2  0  0  0
  3  4  1  0  0  0
  4  5  2  0  0  0
  5 11  1  0  0  0
 11 12  1  0  0  0
  5  6  1  0  0  0
  6 14  1  0  0  0
 14 15  1  0  0  0
  6  7  2  0  0  0
  7 21  1  0  0  0
 21 22  1  0  0  0
 22 23  1  0  0  0
 23 24  2  0  0  0
 24 28  1  0  0  0
 28 29  1  0  0  0
 24 25  1  0  0  0
 25 30  1  0  0  0
 30 31  1  0  0  0
 25 26  2  0  0  0
 26 32  1  0  0  0
 32 33  1  0  0  0
 26 27  1  0  0  0
  7  8  1  0  0  0
  8  9  2  0  0  0
  9 10  1  0  0  0
 10 19  1  0  0  0
 19 20  1  0  0  0
 10  1  2  0  0  0
  8  3  1  0  0  0
 27 22  2  0  0  0
 12 13  1  0  0  0
 15 16  1  0  0  0
M  END
> <minimizedAffinity>
-8.79830

$$$$



 33 35  0  0  0  0  0  0  0  0999 V2000
   -2.1062   60.8733   81.8223 C   0  0  0  0  0  0  0  0  0  0  0  0
   -2.5929   61.1638   83.0969 C   0  0  0  0  0  0  0  0  0  0  0  0
   -1.8630   61.9591   83.9991 C   0  0  0  0  0  0  0  0  0  0  0  0
   -2.4118   62.2378   85.2542 C   0  0  0  0  0  0  0  0  0  0  0  0
   -1.7488   63.0327   86.1984 C   0  0  0  0  0  0  0  0  0  0  0  0
   -0.4801   63.5733   85.8824 C   0  0  0  0  0  0  0  0  0  0  0  0
    0.1018   63.2974   84.6060 C   0  0  0  0  0  0  0  0  0  0  0  0
   -0.6017   62.4864   83.6458 C   0  0  0  0  0  0  0  0  0  0  0  0
   -0.1366   62.1823   82.3373 C   0  0  0  0  0  0  0  0  0  0  0  0
   -0.8645   61.3912   81.4358 C   0  0  0  0  0  0  0  0  0  0  0  0
   -2.4571   63.3096   87.5076 C   0  0  0  0  0  0  0  0  0  0  0  0
   -3.1859   62.1692   87.9322 O   0  0  0  0  0  0  0  0  0  0  0  0
   -3.7848   61.9318   87.1931 H   0  0  0  0  0  0  0  0  0  0  0  0
    0.1882   64.4839   86.8918 C   0  0  0  0  0  0  0  0  0  0  0  0
    0.9921   63.6872   87.7552 O   0  0  0  0  0  0  0  0  0  0  0  0
    0.3721   63.1416   88.2765 H   0  0  0  0  0  0  0  0  0  0  0  0
   -3.7983   60.7256   80.1393 C   0  0  0  0  0  0  0  0  0  0  0  0
   -2.7628   60.1095   80.8908 O   0  0  0  0  0  0  0  0  0  0  0  0
   -0.4513   61.0789   80.1642 O   0  0  0  0  0  0  0  0  0  0  0  0
    0.2860   62.0534   79.4413 C   0  0  0  0  0  0  0  0  0  0  0  0
    1.4576   63.9072   84.2480 C   0  0  0  0  0  0  0  0  0  0  0  0
    1.3862   65.2778   83.6033 C   0  0  0  0  0  0  0  0  0  0  0  0
    0.6912   65.4939   82.4007 C   0  0  0  0  0  0  0  0  0  0  0  0
    0.6529   66.7602   81.8062 C   0  0  0  0  0  0  0  0  0  0  0  0
    1.3473   67.8224   82.4111 C   0  0  0  0  0  0  0  0  0  0  0  0
    2.0190   67.6305   83.6246 C   0  0  0  0  0  0  0  0  0  0  0  0
    2.0635   66.3550   84.1920 C   0  0  0  0  0  0  0  0  0  0  0  0
   -0.0057   67.0505   80.6385 O   0  0  0  0  0  0  0  0  0  0  0  0
    0.0472   66.0805   79.5998 C   0  0  0  0  0  0  0  0  0  0  0  0
    1.3330   69.0612   81.8150 O   0  0  0  0  0  0  0  0  0  0  0  0
    2.5022   69.2222   81.0104 C   0  0  0  0  0  0  0  0  0  0  0  0
    2.7141   68.5899   84.3133 O   0  0  0  0  0  0  0  0  0  0  0  0
    4.0811   68.2631   84.5566 C   0  0  0  0  0  0  0  0  0  0  0  0
 17 18  1  0  0  0
 18  1  1  0  0  0
  1  2  1  0  0  0
  2  3  2  0  0  0
  3  4  1  0  0  0
  4  5  2  0  0  0
  5 11  1  0  0  0
 11 12  1  0  0  0
  5  6  1  0  0  0
  6 14  1  0  0  0
 14 15  1  0  0  0
  6  7  2  0  0  0
  7 21  1  0  0  0
 21 22  1  0  0  0
 22 23  1  0  0  0
 23 24  2  0  0  0
 24 28  1  0  0  0
 28 29  1  0  0  0
 24 25  1  0  0  0
 25 30  1  0  0  0
 30 31  1  0  0  0
 25 26  2  0  0  0
 26 32  1  0  0  0
 32 33  1  0  0  0
 26 27  1  0  0  0
  7  8  1  0  0  0
  8  9  2  0  0  0
  9 10  1  0  0  0
 10 19  1  0  0  0
 19 20  1  0  0  0
 10  1  2  0  0  0
  8  3  1  0  0  0
 27 22  2  0  0  0
 12 13  1  0  0  0
 15 16  1  0  0  0
M  END
> <minimizedAffinity>
-8.74638

$$$$



 33 35  0  0  0  0  0  0  0  0999 V2000
    1.8092   66.2055   83.3491 C   0  0  0  0  0  0  0  0  0  0  0  0
    1.8846   65.7921   84.6792 C   0  0  0  0  0  0  0  0  0  0  0  0
    0.9799   64.8548   85.2104 C   0  0  0  0  0  0  0  0  0  0  0  0
    1.1190   64.4591   86.5438 C   0  0  0  0  0  0  0  0  0  0  0  0
    0.2638   63.5209   87.1366 C   0  0  0  0  0  0  0  0  0  0  0  0
   -0.7804   62.9518   86.3700 C   0  0  0  0  0  0  0  0  0  0  0  0
   -0.9436   63.3455   85.0054 C   0  0  0  0  0  0  0  0  0  0  0  0
   -0.0465   64.3038   84.4125 C   0  0  0  0  0  0  0  0  0  0  0  0
   -0.0919   64.7360   83.0589 C   0  0  0  0  0  0  0  0  0  0  0  0
    0.8111   65.6689   82.5273 C   0  0  0  0  0  0  0  0  0  0  0  0
    0.5357   63.1292   88.5737 C   0  0  0  0  0  0  0  0  0  0  0  0
   -0.3360   63.8208   89.4533 O   0  0  0  0  0  0  0  0  0  0  0  0
   -0.2173   64.7761   89.2672 H   0  0  0  0  0  0  0  0  0  0  0  0
   -1.6509   61.8908   87.0112 C   0  0  0  0  0  0  0  0  0  0  0  0
   -2.6859   62.5384   87.7432 O   0  0  0  0  0  0  0  0  0  0  0  0
   -2.2478   62.9924   88.4888 H   0  0  0  0  0  0  0  0  0  0  0  0
    2.6454   68.4436   83.2538 C   0  0  0  0  0  0  0  0  0  0  0  0
    2.6571   67.1110   82.7632 O   0  0  0  0  0  0  0  0  0  0  0  0
    0.8020   66.1077   81.2263 O   0  0  0  0  0  0  0  0  0  0  0  0
   -0.0778   65.4717   80.3112 C   0  0  0  0  0  0  0  0  0  0  0  0
   -2.0499   62.7080   84.1640 C   0  0  0  0  0  0  0  0  0  0  0  0
   -1.6322   62.3144   82.7604 C   0  0  0  0  0  0  0  0  0  0  0  0
   -2.5121   62.4221   81.6696 C   0  0  0  0  0  0  0  0  0  0  0  0
   -2.1194   62.0340   80.3838 C   0  0  0  0  0  0  0  0  0  0  0  0
   -0.8327   61.5011   80.1919 C   0  0  0  0  0  0  0  0  0  0  0  0
    0.0660   61.4155   81.2623 C   0  0  0  0  0  0  0  0  0  0  0  0
   -0.3510   61.7883   82.5422 C   0  0  0  0  0  0  0  0  0  0  0  0
   -2.9175   62.1124   79.2709 O   0  0  0  0  0  0  0  0  0  0  0  0
   -4.2151   61.5366   79.3555 C   0  0  0  0  0  0  0  0  0  0  0  0
   -0.4538   61.0946   78.9344 O   0  0  0  0  0  0  0  0  0  0  0  0
    0.2392   62.1546   78.2739 C   0  0  0  0  0  0  0  0  0  0  0  0
    1.3460   60.9308   81.1939 O   0  0  0  0  0  0  0  0  0  0  0  0
    2.0050   60.8341   82.4553 C   0  0  0  0  0  0  0  0  0  0  0  0
 17 18  1  0  0  0
 18  1  1  0  0  0
  1  2  1  0  0  0
  2  3  2  0  0  0
  3  4  1  0  0  0
  4  5  2  0  0  0
  5 11  1  0  0  0
 11 12  1  0  0  0
  5  6  1  0  0  0
  6 14  1  0  0  0
 14 15  1  0  0  0
  6  7  2  0  0  0
  7 21  1  0  0  0
 21 22  1  0  0  0
 22 23  1  0  0  0
 23 24  2  0  0  0
 24 28  1  0  0  0
 28 29  1  0  0  0
 24 25  1  0  0  0
 25 30  1  0  0  0
 30 31  1  0  0  0
 25 26  2  0  0  0
 26 32  1  0  0  0
 32 33  1  0  0  0
 26 27  1  0  0  0
  7  8  1  0  0  0
  8  9  2  0  0  0
  9 10  1  0  0  0
 10 19  1  0  0  0
 19 20  1  0  0  0
 10  1  2  0  0  0
  8  3  1  0  0  0
 27 22  2  0  0  0
 12 13  1  0  0  0
 15 16  1  0  0  0
M  END
> <minimizedAffinity>
-8.74614

$$$$



 33 35  0  0  0  0  0  0  0  0999 V2000
   -2.2989   60.8966   81.5711 C   0  0  0  0  0  0  0  0  0  0  0  0
   -2.7942   61.1888   82.8419 C   0  0  0  0  0  0  0  0  0  0  0  0
   -2.0413   61.9277   83.7727 C   0  0  0  0  0  0  0  0  0  0  0  0
   -2.5990   62.2116   85.0227 C   0  0  0  0  0  0  0  0  0  0  0  0
   -1.9137   62.9529   85.9942 C   0  0  0  0  0  0  0  0  0  0  0  0
   -0.6126   63.4316   85.7121 C   0  0  0  0  0  0  0  0  0  0  0  0
   -0.0213   63.1491   84.4416 C   0  0  0  0  0  0  0  0  0  0  0  0
   -0.7476   62.3942   83.4530 C   0  0  0  0  0  0  0  0  0  0  0  0
   -0.2738   62.0902   82.1476 C   0  0  0  0  0  0  0  0  0  0  0  0
   -1.0245   61.3554   81.2176 C   0  0  0  0  0  0  0  0  0  0  0  0
   -2.6318   63.2425   87.2953 C   0  0  0  0  0  0  0  0  0  0  0  0
   -3.0746   62.0384   87.9002 O   0  0  0  0  0  0  0  0  0  0  0  0
   -3.6239   61.5777   87.2314 H   0  0  0  0  0  0  0  0  0  0  0  0
    0.0828   64.2869   86.7512 C   0  0  0  0  0  0  0  0  0  0  0  0
    0.7689   63.4286   87.6562 O   0  0  0  0  0  0  0  0  0  0  0  0
    0.0778   62.9438   88.1473 H   0  0  0  0  0  0  0  0  0  0  0  0
   -3.9173   60.8843   79.8110 C   0  0  0  0  0  0  0  0  0  0  0  0
   -2.9763   60.1858   80.6130 O   0  0  0  0  0  0  0  0  0  0  0  0
   -0.6037   61.0452   79.9480 O   0  0  0  0  0  0  0  0  0  0  0  0
    0.2696   61.9522   79.2916 C   0  0  0  0  0  0  0  0  0  0  0  0
    1.3712   63.6931   84.1204 C   0  0  0  0  0  0  0  0  0  0  0  0
    1.3896   65.1097   83.5799 C   0  0  0  0  0  0  0  0  0  0  0  0
    2.0633   66.1471   84.2477 C   0  0  0  0  0  0  0  0  0  0  0  0
    2.0527   67.4542   83.7481 C   0  0  0  0  0  0  0  0  0  0  0  0
    1.3303   67.7335   82.5748 C   0  0  0  0  0  0  0  0  0  0  0  0
    0.6793   66.7057   81.8816 C   0  0  0  0  0  0  0  0  0  0  0  0
    0.6837   65.4115   82.4068 C   0  0  0  0  0  0  0  0  0  0  0  0
    2.6879   68.5168   84.3389 O   0  0  0  0  0  0  0  0  0  0  0  0
    3.9575   68.2721   84.9313 C   0  0  0  0  0  0  0  0  0  0  0  0
    1.2967   69.0220   82.0965 O   0  0  0  0  0  0  0  0  0  0  0  0
    2.3208   69.1991   81.1167 C   0  0  0  0  0  0  0  0  0  0  0  0
   -0.0394   66.8534   80.7241 O   0  0  0  0  0  0  0  0  0  0  0  0
   -0.0979   65.6793   79.9160 C   0  0  0  0  0  0  0  0  0  0  0  0
 17 18  1  0  0  0
 18  1  1  0  0  0
  1  2  1  0  0  0
  2  3  2  0  0  0
  3  4  1  0  0  0
  4  5  2  0  0  0
  5 11  1  0  0  0
 11 12  1  0  0  0
  5  6  1  0  0  0
  6 14  1  0  0  0
 14 15  1  0  0  0
  6  7  2  0  0  0
  7 21  1  0  0  0
 21 22  1  0  0  0
 22 23  1  0  0  0
 23 24  2  0  0  0
 24 28  1  0  0  0
 28 29  1  0  0  0
 24 25  1  0  0  0
 25 30  1  0  0  0
 30 31  1  0  0  0
 25 26  2  0  0  0
 26 32  1  0  0  0
 32 33  1  0  0  0
 26 27  1  0  0  0
  7  8  1  0  0  0
  8  9  2  0  0  0
  9 10  1  0  0  0
 10 19  1  0  0  0
 19 20  1  0  0  0
 10  1  2  0  0  0
  8  3  1  0  0  0
 27 22  2  0  0  0
 12 13  1  0  0  0
 15 16  1  0  0  0
M  END
> <minimizedAffinity>
-8.49850

$$$$



 33 35  0  0  0  0  0  0  0  0999 V2000
   -0.2443   63.1369   86.1144 C   0  0  0  0  0  0  0  0  0  0  0  0
    0.8877   63.9520   86.1100 C   0  0  0  0  0  0  0  0  0  0  0  0
    1.1679   64.8156   85.0354 C   0  0  0  0  0  0  0  0  0  0  0  0
    2.3040   65.6277   85.0971 C   0  0  0  0  0  0  0  0  0  0  0  0
    2.6391   66.5210   84.0711 C   0  0  0  0  0  0  0  0  0  0  0  0
    1.8086   66.6093   82.9290 C   0  0  0  0  0  0  0  0  0  0  0  0
    0.6439   65.7847   82.8431 C   0  0  0  0  0  0  0  0  0  0  0  0
    0.3121   64.8808   83.9143 C   0  0  0  0  0  0  0  0  0  0  0  0
   -0.8385   64.0466   83.9516 C   0  0  0  0  0  0  0  0  0  0  0  0
   -1.1204   63.1866   85.0237 C   0  0  0  0  0  0  0  0  0  0  0  0
    3.8658   67.3872   84.2640 C   0  0  0  0  0  0  0  0  0  0  0  0
    3.7019   68.2430   85.3832 O   0  0  0  0  0  0  0  0  0  0  0  0
    2.8745   68.7460   85.2290 H   0  0  0  0  0  0  0  0  0  0  0  0
    2.1533   67.6290   81.8631 C   0  0  0  0  0  0  0  0  0  0  0  0
    1.4980   68.8523   82.1804 O   0  0  0  0  0  0  0  0  0  0  0  0
    0.5421   68.6843   82.0717 H   0  0  0  0  0  0  0  0  0  0  0  0
   -0.9739   62.8351   88.3713 C   0  0  0  0  0  0  0  0  0  0  0  0
   -0.5823   62.2748   87.1266 O   0  0  0  0  0  0  0  0  0  0  0  0
   -2.2215   62.3698   85.0982 O   0  0  0  0  0  0  0  0  0  0  0  0
   -2.6450   61.7072   83.9160 C   0  0  0  0  0  0  0  0  0  0  0  0
   -0.2742   65.9013   81.6259 C   0  0  0  0  0  0  0  0  0  0  0  0
   -0.0215   64.8734   80.5401 C   0  0  0  0  0  0  0  0  0  0  0  0
   -0.2027   65.1756   79.1794 C   0  0  0  0  0  0  0  0  0  0  0  0
    0.0132   64.2097   78.1900 C   0  0  0  0  0  0  0  0  0  0  0  0
    0.3887   62.9098   78.5718 C   0  0  0  0  0  0  0  0  0  0  0  0
    0.6026   62.6012   79.9208 C   0  0  0  0  0  0  0  0  0  0  0  0
    0.3621   63.5724   80.8953 C   0  0  0  0  0  0  0  0  0  0  0  0
   -0.1383   64.4286   76.8444 O   0  0  0  0  0  0  0  0  0  0  0  0
   -1.3736   64.9814   76.4073 C   0  0  0  0  0  0  0  0  0  0  0  0
    0.5758   61.9521   77.6034 O   0  0  0  0  0  0  0  0  0  0  0  0
   -0.5983   61.1467   77.4892 C   0  0  0  0  0  0  0  0  0  0  0  0
    0.9840   61.3791   80.4098 O   0  0  0  0  0  0  0  0  0  0  0  0
    0.7063   61.1892   81.7961 C   0  0  0  0  0  0  0  0  0  0  0  0
 17 18  1  0  0  0
 18  1  1  0  0  0
  1  2  1  0  0  0
  2  3  2  0  0  0
  3  4  1  0  0  0
  4  5  2  0  0  0
  5 11  1  0  0  0
 11 12  1  0  0  0
  5  6  1  0  0  0
  6 14  1  0  0  0
 14 15  1  0  0  0
  6  7  2  0  0  0
  7 21  1  0  0  0
 21 22  1  0  0  0
 22 23  1  0  0  0
 23 24  2  0  0  0
 24 28  1  0  0  0
 28 29  1  0  0  0
 24 25  1  0  0  0
 25 30  1  0  0  0
 30 31  1  0  0  0
 25 26  2  0  0  0
 26 32  1  0  0  0
 32 33  1  0  0  0
 26 27  1  0  0  0
  7  8  1  0  0  0
  8  9  2  0  0  0
  9 10  1  0  0  0
 10 19  1  0  0  0
 19 20  1  0  0  0
 10  1  2  0  0  0
  8  3  1  0  0  0
 27 22  2  0  0  0
 12 13  1  0  0  0
 15 16  1  0  0  0
M  END
> <minimizedAffinity>
-8.45931

$$$$



 33 35  0  0  0  0  0  0  0  0999 V2000
   -0.4068   62.9925   85.5268 C   0  0  0  0  0  0  0  0  0  0  0  0
    0.6792   63.8502   85.7024 C   0  0  0  0  0  0  0  0  0  0  0  0
    1.0165   64.8168   84.7374 C   0  0  0  0  0  0  0  0  0  0  0  0
    2.1006   65.6656   84.9786 C   0  0  0  0  0  0  0  0  0  0  0  0
    2.4863   66.6597   84.0697 C   0  0  0  0  0  0  0  0  0  0  0  0
    1.7635   66.8155   82.8635 C   0  0  0  0  0  0  0  0  0  0  0  0
    0.6539   65.9552   82.5945 C   0  0  0  0  0  0  0  0  0  0  0  0
    0.2676   64.9467   83.5475 C   0  0  0  0  0  0  0  0  0  0  0  0
   -0.8391   64.0664   83.4012 C   0  0  0  0  0  0  0  0  0  0  0  0
   -1.1779   63.1036   84.3638 C   0  0  0  0  0  0  0  0  0  0  0  0
    3.6456   67.5544   84.4546 C   0  0  0  0  0  0  0  0  0  0  0  0
    3.2476   68.4900   85.4435 O   0  0  0  0  0  0  0  0  0  0  0  0
    2.4742   68.9686   85.0773 H   0  0  0  0  0  0  0  0  0  0  0  0
    2.1564   67.9393   81.9267 C   0  0  0  0  0  0  0  0  0  0  0  0
    1.4089   69.0995   82.2756 O   0  0  0  0  0  0  0  0  0  0  0  0
    0.4786   68.8992   82.0560 H   0  0  0  0  0  0  0  0  0  0  0  0
   -0.8511   62.3890   87.7974 C   0  0  0  0  0  0  0  0  0  0  0  0
   -0.7957   62.0306   86.4244 O   0  0  0  0  0  0  0  0  0  0  0  0
   -2.2398   62.2393   84.2607 O   0  0  0  0  0  0  0  0  0  0  0  0
   -2.3524   61.4543   83.0830 C   0  0  0  0  0  0  0  0  0  0  0  0
   -0.1505   66.1423   81.3075 C   0  0  0  0  0  0  0  0  0  0  0  0
   -0.0112   65.0150   80.3030 C   0  0  0  0  0  0  0  0  0  0  0  0
    0.3176   63.7073   80.7001 C   0  0  0  0  0  0  0  0  0  0  0  0
    0.4643   62.6821   79.7589 C   0  0  0  0  0  0  0  0  0  0  0  0
    0.3079   62.9779   78.3934 C   0  0  0  0  0  0  0  0  0  0  0  0
   -0.0492   64.2684   77.9841 C   0  0  0  0  0  0  0  0  0  0  0  0
   -0.1709   65.2832   78.9361 C   0  0  0  0  0  0  0  0  0  0  0  0
    0.7791   61.3832   80.0678 O   0  0  0  0  0  0  0  0  0  0  0  0
    1.1720   61.1067   81.4064 C   0  0  0  0  0  0  0  0  0  0  0  0
    0.4776   61.9781   77.4651 O   0  0  0  0  0  0  0  0  0  0  0  0
   -0.7731   61.3346   77.2163 C   0  0  0  0  0  0  0  0  0  0  0  0
   -0.2442   64.6702   76.6885 O   0  0  0  0  0  0  0  0  0  0  0  0
   -1.5648   65.1320   76.4098 C   0  0  0  0  0  0  0  0  0  0  0  0
 17 18  1  0  0  0
 18  1  1  0  0  0
  1  2  1  0  0  0
  2  3  2  0  0  0
  3  4  1  0  0  0
  4  5  2  0  0  0
  5 11  1  0  0  0
 11 12  1  0  0  0
  5  6  1  0  0  0
  6 14  1  0  0  0
 14 15  1  0  0  0
  6  7  2  0  0  0
  7 21  1  0  0  0
 21 22  1  0  0  0
 22 23  1  0  0  0
 23 24  2  0  0  0
 24 28  1  0  0  0
 28 29  1  0  0  0
 24 25  1  0  0  0
 25 30  1  0  0  0
 30 31  1  0  0  0
 25 26  2  0  0  0
 26 32  1  0  0  0
 32 33  1  0  0  0
 26 27  1  0  0  0
  7  8  1  0  0  0
  8  9  2  0  0  0
  9 10  1  0  0  0
 10 19  1  0  0  0
 19 20  1  0  0  0
 10  1  2  0  0  0
  8  3  1  0  0  0
 27 22  2  0  0  0
 12 13  1  0  0  0
 15 16  1  0  0  0
M  END
> <minimizedAffinity>
-8.41832

$$$$



 33 35  0  0  0  0  0  0  0  0999 V2000
    2.2448   66.1691   83.6284 C   0  0  0  0  0  0  0  0  0  0  0  0
    1.8437   65.2966   84.6402 C   0  0  0  0  0  0  0  0  0  0  0  0
    0.6760   64.5208   84.5221 C   0  0  0  0  0  0  0  0  0  0  0  0
    0.3366   63.6451   85.5575 C   0  0  0  0  0  0  0  0  0  0  0  0
   -0.8033   62.8324   85.5036 C   0  0  0  0  0  0  0  0  0  0  0  0
   -1.6474   62.8949   84.3698 C   0  0  0  0  0  0  0  0  0  0  0  0
   -1.3216   63.7869   83.3011 C   0  0  0  0  0  0  0  0  0  0  0  0
   -0.1389   64.6059   83.3722 C   0  0  0  0  0  0  0  0  0  0  0  0
    0.3006   65.4953   82.3539 C   0  0  0  0  0  0  0  0  0  0  0  0
    1.4660   66.2678   82.4694 C   0  0  0  0  0  0  0  0  0  0  0  0
   -1.0488   61.8858   86.6596 C   0  0  0  0  0  0  0  0  0  0  0  0
   -0.6958   62.4975   87.8896 O   0  0  0  0  0  0  0  0  0  0  0  0
    0.2363   62.7874   87.7979 H   0  0  0  0  0  0  0  0  0  0  0  0
   -2.8372   61.9597   84.3033 C   0  0  0  0  0  0  0  0  0  0  0  0
   -2.4248   60.7489   83.6782 O   0  0  0  0  0  0  0  0  0  0  0  0
   -2.2282   60.9765   82.7491 H   0  0  0  0  0  0  0  0  0  0  0  0
    4.4141   66.5631   84.5537 C   0  0  0  0  0  0  0  0  0  0  0  0
    3.3703   66.9522   83.6729 O   0  0  0  0  0  0  0  0  0  0  0  0
    1.9248   67.1339   81.5078 O   0  0  0  0  0  0  0  0  0  0  0  0
    1.6728   66.8179   80.1467 C   0  0  0  0  0  0  0  0  0  0  0  0
   -2.2129   63.8331   82.0595 C   0  0  0  0  0  0  0  0  0  0  0  0
   -1.8440   62.8378   80.9766 C   0  0  0  0  0  0  0  0  0  0  0  0
   -2.7113   61.7966   80.6029 C   0  0  0  0  0  0  0  0  0  0  0  0
   -2.3475   60.8724   79.6171 C   0  0  0  0  0  0  0  0  0  0  0  0
   -1.0810   60.9749   79.0155 C   0  0  0  0  0  0  0  0  0  0  0  0
   -0.2179   62.0240   79.3550 C   0  0  0  0  0  0  0  0  0  0  0  0
   -0.5899   62.9244   80.3558 C   0  0  0  0  0  0  0  0  0  0  0  0
   -3.1387   59.8339   79.1959 O   0  0  0  0  0  0  0  0  0  0  0  0
   -3.4128   58.7997   80.1328 C   0  0  0  0  0  0  0  0  0  0  0  0
   -0.7110   60.0525   78.0657 O   0  0  0  0  0  0  0  0  0  0  0  0
   -0.9854   60.5671   76.7618 C   0  0  0  0  0  0  0  0  0  0  0  0
    1.0289   62.2353   78.8269 O   0  0  0  0  0  0  0  0  0  0  0  0
    1.1711   63.4750   78.1358 C   0  0  0  0  0  0  0  0  0  0  0  0
 17 18  1  0  0  0
 18  1  1  0  0  0
  1  2  1  0  0  0
  2  3  2  0  0  0
  3  4  1  0  0  0
  4  5  2  0  0  0
  5 11  1  0  0  0
 11 12  1  0  0  0
  5  6  1  0  0  0
  6 14  1  0  0  0
 14 15  1  0  0  0
  6  7  2  0  0  0
  7 21  1  0  0  0
 21 22  1  0  0  0
 22 23  1  0  0  0
 23 24  2  0  0  0
 24 28  1  0  0  0
 28 29  1  0  0  0
 24 25  1  0  0  0
 25 30  1  0  0  0
 30 31  1  0  0  0
 25 26  2  0  0  0
 26 32  1  0  0  0
 32 33  1  0  0  0
 26 27  1  0  0  0
  7  8  1  0  0  0
  8  9  2  0  0  0
  9 10  1  0  0  0
 10 19  1  0  0  0
 19 20  1  0  0  0
 10  1  2  0  0  0
  8  3  1  0  0  0
 27 22  2  0  0  0
 12 13  1  0  0  0
 15 16  1  0  0  0
M  END
> <minimizedAffinity>
-8.37955

$$$$
