


 41 44  0  0  0  0  0  0  0  0999 V2000
    3.1925   66.9069   84.2062 C   0  0  0  0  0  0  0  0  0  0  0  0
    4.0654   67.9797   83.9740 C   0  0  0  0  0  0  0  0  0  0  0  0
    3.8360   68.8603   82.9163 C   0  0  0  0  0  0  0  0  0  0  0  0
    2.7474   68.6463   82.0718 C   0  0  0  0  0  0  0  0  0  0  0  0
    1.8891   67.5617   82.2718 C   0  0  0  0  0  0  0  0  0  0  0  0
    2.1035   66.6746   83.3384 C   0  0  0  0  0  0  0  0  0  0  0  0
    1.1665   65.5571   83.5063 C   0  0  0  0  0  0  0  0  0  0  0  0
    0.6772   64.7930   82.5403 N   0  0  0  0  0  0  0  0  0  0  0  0
   -0.1523   63.8896   83.1625 C   0  0  0  0  0  0  0  0  0  0  0  0
   -0.9543   62.8363   82.5828 C   0  0  0  0  0  0  0  0  0  0  0  0
   -0.9661   62.5941   81.3784 O   0  0  0  0  0  0  0  0  0  0  0  0
   -1.7090   62.1310   83.5373 N   0  0  0  0  0  0  0  0  0  0  0  0
   -2.5456   61.0504   83.0539 C   0  0  0  0  0  0  0  0  0  0  0  0
   -1.6926   62.3283   84.9342 C   0  0  0  0  0  0  0  0  0  0  0  0
   -2.3600   61.6189   85.6926 O   0  0  0  0  0  0  0  0  0  0  0  0
   -0.8846   63.3681   85.4325 N   0  0  0  0  0  0  0  0  0  0  0  0
   -0.1612   64.0945   84.5123 C   0  0  0  0  0  0  0  0  0  0  0  0
    0.6766   65.1440   84.7294 N   0  0  0  0  0  0  0  0  0  0  0  0
    0.9059   65.5887   85.6074 H   0  0  0  0  0  0  0  0  0  0  0  0
   -0.8632   63.6135   86.8745 C   0  0  0  0  0  0  0  0  0  0  0  0
    0.2503   62.8419   87.6089 C   0  0  0  0  0  0  0  0  0  0  0  0
   -0.2156   62.3014   88.9618 C   0  0  0  0  0  0  0  0  0  0  0  0
    1.4649   63.7511   87.8070 C   0  0  0  0  0  0  0  0  0  0  0  0
    2.4350   69.7714   80.7338 S   0  0  0  0  0  0  0  0  0  0  0  0
    1.6673   69.0408   79.7501 O   0  0  0  0  0  0  0  0  0  0  0  0
    3.6872   70.4143   80.3944 O   0  0  0  0  0  0  0  0  0  0  0  0
    1.4327   70.9532   81.4414 N   0  0  0  0  0  0  0  0  0  0  0  0
    2.0034   72.3419   81.4766 C   0  0  0  0  0  0  0  0  0  0  0  0
    1.0904   73.2609   82.3126 C   0  0  0  0  0  0  0  0  0  0  0  0
   -0.2800   73.2605   81.7818 N   0  0  0  0  0  0  0  0  0  0  0  0
   -0.5968   74.1325   80.7448 C   0  0  0  0  0  0  0  0  0  0  0  0
   -1.1474   73.7437   79.7157 O   0  0  0  0  0  0  0  0  0  0  0  0
   -0.2390   75.4627   80.9409 N   0  0  0  0  0  0  0  0  0  0  0  0
   -0.3712   76.3450   79.7954 C   0  0  0  0  0  0  0  0  0  0  0  0
   -0.4399   76.0978   82.2369 C   0  0  0  0  0  0  0  0  0  0  0  0
   -0.8467   71.9114   81.6992 C   0  0  0  0  0  0  0  0  0  0  0  0
    0.0419   70.9719   80.8656 C   0  0  0  0  0  0  0  0  0  0  0  0
    3.4082   66.0187   85.2329 O   0  0  0  0  0  0  0  0  0  0  0  0
    4.7810   65.6948   85.4910 C   0  0  0  0  0  0  0  0  0  0  0  0
    5.5799   65.6799   87.8951 C   0  0  0  0  0  0  0  0  0  0  0  0
    4.8910   64.8954   86.7869 C   0  0  0  0  0  0  0  0  0  0  0  0
 40 41  1  0  0  0
 41 39  1  0  0  0
 39 38  1  0  0  0
 38  1  1  0  0  0
  1  2  1  0  0  0
  2  3  2  0  0  0
  3  4  1  0  0  0
  4 24  1  0  0  0
 24 25  2  0  0  0
 24 26  2  0  0  0
 24 27  1  0  0  0
 27 28  1  0  0  0
 28 29  1  0  0  0
 29 30  1  0  0  0
 30 31  1  0  0  0
 31 32  2  0  0  0
 31 33  1  0  0  0
 33 34  1  0  0  0
 33 35  1  0  0  0
 30 36  1  0  0  0
 36 37  1  0  0  0
  4  5  2  0  0  0
  5  6  1  0  0  0
  6  7  1  0  0  0
  7  8  2  0  0  0
  8  9  1  0  0  0
  9 10  1  0  0  0
 10 11  2  0  0  0
 10 12  1  0  0  0
 12 13  1  0  0  0
 12 14  1  0  0  0
 14 15  2  0  0  0
 14 16  1  0  0  0
 16 20  1  0  0  0
 20 21  1  0  0  0
 21 22  1  0  0  0
 21 23  1  0  0  0
 16 17  1  0  0  0
 17 18  1  0  0  0
  6  1  2  0  0  0
 18  7  1  0  0  0
 37 27  1  0  0  0
 17  9  2  0  0  0
 18 19  1  0  0  0
M  END
> <minimizedAffinity>
-10.29711

$$$$



 41 44  0  0  0  0  0  0  0  0999 V2000
    1.1424   65.9962   83.1435 C   0  0  0  0  0  0  0  0  0  0  0  0
    1.7667   67.0357   83.8482 C   0  0  0  0  0  0  0  0  0  0  0  0
    2.2044   68.1791   83.1790 C   0  0  0  0  0  0  0  0  0  0  0  0
    2.0439   68.2662   81.7967 C   0  0  0  0  0  0  0  0  0  0  0  0
    1.4539   67.2231   81.0778 C   0  0  0  0  0  0  0  0  0  0  0  0
    1.0003   66.0721   81.7410 C   0  0  0  0  0  0  0  0  0  0  0  0
    0.3815   65.0107   80.9376 C   0  0  0  0  0  0  0  0  0  0  0  0
    0.7408   64.6418   79.7164 N   0  0  0  0  0  0  0  0  0  0  0  0
   -0.1148   63.6235   79.3669 C   0  0  0  0  0  0  0  0  0  0  0  0
   -0.1809   62.8679   78.1367 C   0  0  0  0  0  0  0  0  0  0  0  0
    0.5968   63.0465   77.2025 O   0  0  0  0  0  0  0  0  0  0  0  0
   -1.2201   61.9200   78.1285 N   0  0  0  0  0  0  0  0  0  0  0  0
   -1.3671   61.1080   76.9368 C   0  0  0  0  0  0  0  0  0  0  0  0
   -2.1048   61.6340   79.1897 C   0  0  0  0  0  0  0  0  0  0  0  0
   -2.9554   60.7443   79.0968 O   0  0  0  0  0  0  0  0  0  0  0  0
   -1.9815   62.4042   80.3619 N   0  0  0  0  0  0  0  0  0  0  0  0
   -0.9913   63.3617   80.3804 C   0  0  0  0  0  0  0  0  0  0  0  0
   -0.6735   64.2342   81.3745 N   0  0  0  0  0  0  0  0  0  0  0  0
   -1.1199   64.3453   82.2743 H   0  0  0  0  0  0  0  0  0  0  0  0
   -2.8989   62.1479   81.4721 C   0  0  0  0  0  0  0  0  0  0  0  0
   -2.3168   61.2010   82.5394 C   0  0  0  0  0  0  0  0  0  0  0  0
   -3.0232   59.8445   82.5568 C   0  0  0  0  0  0  0  0  0  0  0  0
   -2.4183   61.8533   83.9197 C   0  0  0  0  0  0  0  0  0  0  0  0
    2.5802   69.7247   80.9370 S   0  0  0  0  0  0  0  0  0  0  0  0
    2.2764   69.5156   79.5389 O   0  0  0  0  0  0  0  0  0  0  0  0
    3.9224   70.0336   81.3838 O   0  0  0  0  0  0  0  0  0  0  0  0
    1.5507   70.9385   81.5444 N   0  0  0  0  0  0  0  0  0  0  0  0
    2.0768   72.3408   81.4346 C   0  0  0  0  0  0  0  0  0  0  0  0
    1.1469   73.3085   82.1936 C   0  0  0  0  0  0  0  0  0  0  0  0
   -0.2304   73.2143   81.6897 N   0  0  0  0  0  0  0  0  0  0  0  0
   -0.5903   73.9709   80.5789 C   0  0  0  0  0  0  0  0  0  0  0  0
   -1.1431   73.4670   79.6022 O   0  0  0  0  0  0  0  0  0  0  0  0
   -0.2728   75.3243   80.6386 N   0  0  0  0  0  0  0  0  0  0  0  0
   -0.4502   76.0862   79.4155 C   0  0  0  0  0  0  0  0  0  0  0  0
   -0.4751   76.0762   81.8703 C   0  0  0  0  0  0  0  0  0  0  0  0
   -0.7543   71.8468   81.7483 C   0  0  0  0  0  0  0  0  0  0  0  0
    0.1518   70.8582   80.9942 C   0  0  0  0  0  0  0  0  0  0  0  0
    0.7174   64.8547   83.7805 O   0  0  0  0  0  0  0  0  0  0  0  0
    0.9696   64.8045   85.1912 C   0  0  0  0  0  0  0  0  0  0  0  0
   -0.1454   64.0020   87.3198 C   0  0  0  0  0  0  0  0  0  0  0  0
    0.0884   63.7391   85.8384 C   0  0  0  0  0  0  0  0  0  0  0  0
 40 41  1  0  0  0
 41 39  1  0  0  0
 39 38  1  0  0  0
 38  1  1  0  0  0
  1  2  1  0  0  0
  2  3  2  0  0  0
  3  4  1  0  0  0
  4 24  1  0  0  0
 24 25  2  0  0  0
 24 26  2  0  0  0
 24 27  1  0  0  0
 27 28  1  0  0  0
 28 29  1  0  0  0
 29 30  1  0  0  0
 30 31  1  0  0  0
 31 32  2  0  0  0
 31 33  1  0  0  0
 33 34  1  0  0  0
 33 35  1  0  0  0
 30 36  1  0  0  0
 36 37  1  0  0  0
  4  5  2  0  0  0
  5  6  1  0  0  0
  6  7  1  0  0  0
  7  8  2  0  0  0
  8  9  1  0  0  0
  9 10  1  0  0  0
 10 11  2  0  0  0
 10 12  1  0  0  0
 12 13  1  0  0  0
 12 14  1  0  0  0
 14 15  2  0  0  0
 14 16  1  0  0  0
 16 20  1  0  0  0
 20 21  1  0  0  0
 21 22  1  0  0  0
 21 23  1  0  0  0
 16 17  1  0  0  0
 17 18  1  0  0  0
  6  1  2  0  0  0
 18  7  1  0  0  0
 37 27  1  0  0  0
 17  9  2  0  0  0
 18 19  1  0  0  0
M  END
> <minimizedAffinity>
-10.14633

$$$$



 41 44  0  0  0  0  0  0  0  0999 V2000
    3.6059   67.5499   84.0454 C   0  0  0  0  0  0  0  0  0  0  0  0
    4.3483   68.5866   83.4616 C   0  0  0  0  0  0  0  0  0  0  0  0
    3.8330   69.3013   82.3796 C   0  0  0  0  0  0  0  0  0  0  0  0
    2.5852   68.9549   81.8629 C   0  0  0  0  0  0  0  0  0  0  0  0
    1.8499   67.9020   82.4139 C   0  0  0  0  0  0  0  0  0  0  0  0
    2.3529   67.1821   83.5090 C   0  0  0  0  0  0  0  0  0  0  0  0
    1.5351   66.0910   84.0528 C   0  0  0  0  0  0  0  0  0  0  0  0
    1.4676   65.7207   85.3235 N   0  0  0  0  0  0  0  0  0  0  0  0
    0.5861   64.6657   85.3588 C   0  0  0  0  0  0  0  0  0  0  0  0
    0.1560   63.8724   86.4877 C   0  0  0  0  0  0  0  0  0  0  0  0
    0.5392   64.0843   87.6355 O   0  0  0  0  0  0  0  0  0  0  0  0
   -0.7362   62.8455   86.1302 N   0  0  0  0  0  0  0  0  0  0  0  0
   -1.2286   61.9947   87.1955 C   0  0  0  0  0  0  0  0  0  0  0  0
   -1.2520   62.5913   84.8418 C   0  0  0  0  0  0  0  0  0  0  0  0
   -2.0717   61.6900   84.6427 O   0  0  0  0  0  0  0  0  0  0  0  0
   -0.7950   63.4059   83.7882 N   0  0  0  0  0  0  0  0  0  0  0  0
    0.1053   64.3979   84.1094 C   0  0  0  0  0  0  0  0  0  0  0  0
    0.7005   65.3023   83.2858 N   0  0  0  0  0  0  0  0  0  0  0  0
    0.5987   65.3971   82.2849 H   0  0  0  0  0  0  0  0  0  0  0  0
   -1.2931   63.1533   82.4363 C   0  0  0  0  0  0  0  0  0  0  0  0
   -0.3927   62.2050   81.6208 C   0  0  0  0  0  0  0  0  0  0  0  0
    0.2010   62.8885   80.3880 C   0  0  0  0  0  0  0  0  0  0  0  0
   -1.1931   60.9733   81.1926 C   0  0  0  0  0  0  0  0  0  0  0  0
    1.9113   69.8697   80.4981 S   0  0  0  0  0  0  0  0  0  0  0  0
    0.9340   69.0109   79.8672 O   0  0  0  0  0  0  0  0  0  0  0  0
    3.0177   70.4345   79.7542 O   0  0  0  0  0  0  0  0  0  0  0  0
    1.0968   71.1602   81.2552 N   0  0  0  0  0  0  0  0  0  0  0  0
    1.8044   72.4839   81.2050 C   0  0  0  0  0  0  0  0  0  0  0  0
    1.0633   73.5063   82.0896 C   0  0  0  0  0  0  0  0  0  0  0  0
   -0.3408   73.6359   81.6758 N   0  0  0  0  0  0  0  0  0  0  0  0
   -0.6570   74.5166   80.6460 C   0  0  0  0  0  0  0  0  0  0  0  0
   -1.3303   74.1672   79.6775 O   0  0  0  0  0  0  0  0  0  0  0  0
   -0.1524   75.8068   80.7755 N   0  0  0  0  0  0  0  0  0  0  0  0
   -0.2940   76.6768   79.6219 C   0  0  0  0  0  0  0  0  0  0  0  0
   -0.1764   76.4826   82.0663 C   0  0  0  0  0  0  0  0  0  0  0  0
   -1.0446   72.3503   81.6773 C   0  0  0  0  0  0  0  0  0  0  0  0
   -0.3295   71.3100   80.7978 C   0  0  0  0  0  0  0  0  0  0  0  0
    4.1008   66.8231   85.1021 O   0  0  0  0  0  0  0  0  0  0  0  0
    5.5047   66.9743   85.3517 C   0  0  0  0  0  0  0  0  0  0  0  0
    7.5555   65.6948   84.5931 C   0  0  0  0  0  0  0  0  0  0  0  0
    6.1953   65.6152   85.2727 C   0  0  0  0  0  0  0  0  0  0  0  0
 40 41  1  0  0  0
 41 39  1  0  0  0
 39 38  1  0  0  0
 38  1  1  0  0  0
  1  2  1  0  0  0
  2  3  2  0  0  0
  3  4  1  0  0  0
  4 24  1  0  0  0
 24 25  2  0  0  0
 24 26  2  0  0  0
 24 27  1  0  0  0
 27 28  1  0  0  0
 28 29  1  0  0  0
 29 30  1  0  0  0
 30 31  1  0  0  0
 31 32  2  0  0  0
 31 33  1  0  0  0
 33 34  1  0  0  0
 33 35  1  0  0  0
 30 36  1  0  0  0
 36 37  1  0  0  0
  4  5  2  0  0  0
  5  6  1  0  0  0
  6  7  1  0  0  0
  7  8  2  0  0  0
  8  9  1  0  0  0
  9 10  1  0  0  0
 10 11  2  0  0  0
 10 12  1  0  0  0
 12 13  1  0  0  0
 12 14  1  0  0  0
 14 15  2  0  0  0
 14 16  1  0  0  0
 16 20  1  0  0  0
 20 21  1  0  0  0
 21 22  1  0  0  0
 21 23  1  0  0  0
 16 17  1  0  0  0
 17 18  1  0  0  0
  6  1  2  0  0  0
 18  7  1  0  0  0
 37 27  1  0  0  0
 17  9  2  0  0  0
 18 19  1  0  0  0
M  END
> <minimizedAffinity>
-9.88141

$$$$



 41 44  0  0  0  0  0  0  0  0999 V2000
    3.6996   67.2788   84.2897 C   0  0  0  0  0  0  0  0  0  0  0  0
    4.4722   68.3358   83.7871 C   0  0  0  0  0  0  0  0  0  0  0  0
    3.9293   69.2302   82.8639 C   0  0  0  0  0  0  0  0  0  0  0  0
    2.6202   69.0457   82.4210 C   0  0  0  0  0  0  0  0  0  0  0  0
    1.8507   67.9768   82.8885 C   0  0  0  0  0  0  0  0  0  0  0  0
    2.3821   67.0762   83.8249 C   0  0  0  0  0  0  0  0  0  0  0  0
    1.5271   65.9763   84.2876 C   0  0  0  0  0  0  0  0  0  0  0  0
    1.2608   65.6680   85.5487 N   0  0  0  0  0  0  0  0  0  0  0  0
    0.4273   64.5753   85.4982 C   0  0  0  0  0  0  0  0  0  0  0  0
   -0.1559   63.8205   86.5839 C   0  0  0  0  0  0  0  0  0  0  0  0
    0.0201   64.1083   87.7653 O   0  0  0  0  0  0  0  0  0  0  0  0
   -0.9349   62.7354   86.1433 N   0  0  0  0  0  0  0  0  0  0  0  0
   -1.5664   61.9171   87.1595 C   0  0  0  0  0  0  0  0  0  0  0  0
   -1.2161   62.3920   84.8041 C   0  0  0  0  0  0  0  0  0  0  0  0
   -1.9551   61.4437   84.5241 O   0  0  0  0  0  0  0  0  0  0  0  0
   -0.6199   63.1731   83.7957 N   0  0  0  0  0  0  0  0  0  0  0  0
    0.1745   64.2219   84.2039 C   0  0  0  0  0  0  0  0  0  0  0  0
    0.8646   65.1108   83.4397 N   0  0  0  0  0  0  0  0  0  0  0  0
    0.9293   65.1498   82.4319 H   0  0  0  0  0  0  0  0  0  0  0  0
   -0.8731   62.8289   82.3967 C   0  0  0  0  0  0  0  0  0  0  0  0
    0.4066   62.4796   81.6123 C   0  0  0  0  0  0  0  0  0  0  0  0
    0.1372   62.2944   80.1182 C   0  0  0  0  0  0  0  0  0  0  0  0
    1.0328   61.2065   82.1854 C   0  0  0  0  0  0  0  0  0  0  0  0
    1.9126   70.1886   81.2605 S   0  0  0  0  0  0  0  0  0  0  0  0
    0.4939   70.2326   81.5363 O   0  0  0  0  0  0  0  0  0  0  0  0
    2.4200   69.8559   79.9459 O   0  0  0  0  0  0  0  0  0  0  0  0
    2.6028   71.6801   81.7089 N   0  0  0  0  0  0  0  0  0  0  0  0
    2.7649   72.6736   80.5944 C   0  0  0  0  0  0  0  0  0  0  0  0
    3.5751   73.8879   81.0907 C   0  0  0  0  0  0  0  0  0  0  0  0
    2.9346   74.5007   82.2629 N   0  0  0  0  0  0  0  0  0  0  0  0
    1.9273   75.4393   82.0614 C   0  0  0  0  0  0  0  0  0  0  0  0
    0.8357   75.3498   82.6217 O   0  0  0  0  0  0  0  0  0  0  0  0
    2.2286   76.4718   81.1787 N   0  0  0  0  0  0  0  0  0  0  0  0
    1.1292   77.3398   80.7971 C   0  0  0  0  0  0  0  0  0  0  0  0
    3.5384   77.1098   81.2086 C   0  0  0  0  0  0  0  0  0  0  0  0
    2.7278   73.5417   83.3517 C   0  0  0  0  0  0  0  0  0  0  0  0
    1.9170   72.3198   82.8865 C   0  0  0  0  0  0  0  0  0  0  0  0
    4.2192   66.3773   85.1881 O   0  0  0  0  0  0  0  0  0  0  0  0
    5.2415   66.8882   86.0542 C   0  0  0  0  0  0  0  0  0  0  0  0
    5.6007   65.5305   88.1627 C   0  0  0  0  0  0  0  0  0  0  0  0
    5.9953   65.7318   86.7060 C   0  0  0  0  0  0  0  0  0  0  0  0
 40 41  1  0  0  0
 41 39  1  0  0  0
 39 38  1  0  0  0
 38  1  1  0  0  0
  1  2  1  0  0  0
  2  3  2  0  0  0
  3  4  1  0  0  0
  4 24  1  0  0  0
 24 25  2  0  0  0
 24 26  2  0  0  0
 24 27  1  0  0  0
 27 28  1  0  0  0
 28 29  1  0  0  0
 29 30  1  0  0  0
 30 31  1  0  0  0
 31 32  2  0  0  0
 31 33  1  0  0  0
 33 34  1  0  0  0
 33 35  1  0  0  0
 30 36  1  0  0  0
 36 37  1  0  0  0
  4  5  2  0  0  0
  5  6  1  0  0  0
  6  7  1  0  0  0
  7  8  2  0  0  0
  8  9  1  0  0  0
  9 10  1  0  0  0
 10 11  2  0  0  0
 10 12  1  0  0  0
 12 13  1  0  0  0
 12 14  1  0  0  0
 14 15  2  0  0  0
 14 16  1  0  0  0
 16 20  1  0  0  0
 20 21  1  0  0  0
 21 22  1  0  0  0
 21 23  1  0  0  0
 16 17  1  0  0  0
 17 18  1  0  0  0
  6  1  2  0  0  0
 18  7  1  0  0  0
 37 27  1  0  0  0
 17  9  2  0  0  0
 18 19  1  0  0  0
M  END
> <minimizedAffinity>
-9.70215

$$$$



 41 44  0  0  0  0  0  0  0  0999 V2000
    0.9194   66.1002   80.7130 C   0  0  0  0  0  0  0  0  0  0  0  0
    1.4008   66.9979   79.7490 C   0  0  0  0  0  0  0  0  0  0  0  0
    2.1999   68.0776   80.1265 C   0  0  0  0  0  0  0  0  0  0  0  0
    2.4905   68.2748   81.4759 C   0  0  0  0  0  0  0  0  0  0  0  0
    1.9893   67.4070   82.4499 C   0  0  0  0  0  0  0  0  0  0  0  0
    1.1927   66.3114   82.0818 C   0  0  0  0  0  0  0  0  0  0  0  0
    0.6994   65.4279   83.1453 C   0  0  0  0  0  0  0  0  0  0  0  0
    1.1659   65.3561   84.3837 N   0  0  0  0  0  0  0  0  0  0  0  0
    0.4063   64.3985   85.0141 C   0  0  0  0  0  0  0  0  0  0  0  0
    0.4964   63.9086   86.3707 C   0  0  0  0  0  0  0  0  0  0  0  0
    1.3074   64.3446   87.1841 O   0  0  0  0  0  0  0  0  0  0  0  0
   -0.4336   62.8914   86.6510 N   0  0  0  0  0  0  0  0  0  0  0  0
   -0.4246   62.3355   87.9897 C   0  0  0  0  0  0  0  0  0  0  0  0
   -1.4216   62.3919   85.7764 C   0  0  0  0  0  0  0  0  0  0  0  0
   -2.2246   61.5272   86.1386 O   0  0  0  0  0  0  0  0  0  0  0  0
   -1.4571   62.9174   84.4706 N   0  0  0  0  0  0  0  0  0  0  0  0
   -0.5334   63.8921   84.1630 C   0  0  0  0  0  0  0  0  0  0  0  0
   -0.3517   64.5469   82.9846 N   0  0  0  0  0  0  0  0  0  0  0  0
   -0.8549   64.4226   82.1170 H   0  0  0  0  0  0  0  0  0  0  0  0
   -2.4549   62.4041   83.5322 C   0  0  0  0  0  0  0  0  0  0  0  0
   -1.9404   61.2316   82.6745 C   0  0  0  0  0  0  0  0  0  0  0  0
   -1.5305   61.6782   81.2702 C   0  0  0  0  0  0  0  0  0  0  0  0
   -3.0183   60.1500   82.5780 C   0  0  0  0  0  0  0  0  0  0  0  0
    3.5220   69.6348   81.9660 S   0  0  0  0  0  0  0  0  0  0  0  0
    4.2691   70.0306   80.7930 O   0  0  0  0  0  0  0  0  0  0  0  0
    4.1852   69.2655   83.1991 O   0  0  0  0  0  0  0  0  0  0  0  0
    2.4012   70.8620   82.3398 N   0  0  0  0  0  0  0  0  0  0  0  0
    2.9965   72.2126   82.6169 C   0  0  0  0  0  0  0  0  0  0  0  0
    1.9029   73.1698   83.1316 C   0  0  0  0  0  0  0  0  0  0  0  0
    0.7940   73.2623   82.1717 N   0  0  0  0  0  0  0  0  0  0  0  0
    0.8906   74.1707   81.1222 C   0  0  0  0  0  0  0  0  0  0  0  0
    0.7007   73.8350   79.9540 O   0  0  0  0  0  0  0  0  0  0  0  0
    1.2285   75.4730   81.4770 N   0  0  0  0  0  0  0  0  0  0  0  0
    1.5357   76.3825   80.3878 C   0  0  0  0  0  0  0  0  0  0  0  0
    0.6345   76.0953   82.6533 C   0  0  0  0  0  0  0  0  0  0  0  0
    0.2206   71.9518   81.8528 C   0  0  0  0  0  0  0  0  0  0  0  0
    1.2893   70.9755   81.3314 C   0  0  0  0  0  0  0  0  0  0  0  0
    0.1183   65.0388   80.3649 O   0  0  0  0  0  0  0  0  0  0  0  0
   -0.0032   64.7923   78.9576 C   0  0  0  0  0  0  0  0  0  0  0  0
    0.0042   62.7013   77.5272 C   0  0  0  0  0  0  0  0  0  0  0  0
    0.7372   63.5091   78.5895 C   0  0  0  0  0  0  0  0  0  0  0  0
 40 41  1  0  0  0
 41 39  1  0  0  0
 39 38  1  0  0  0
 38  1  1  0  0  0
  1  2  1  0  0  0
  2  3  2  0  0  0
  3  4  1  0  0  0
  4 24  1  0  0  0
 24 25  2  0  0  0
 24 26  2  0  0  0
 24 27  1  0  0  0
 27 28  1  0  0  0
 28 29  1  0  0  0
 29 30  1  0  0  0
 30 31  1  0  0  0
 31 32  2  0  0  0
 31 33  1  0  0  0
 33 34  1  0  0  0
 33 35  1  0  0  0
 30 36  1  0  0  0
 36 37  1  0  0  0
  4  5  2  0  0  0
  5  6  1  0  0  0
  6  7  1  0  0  0
  7  8  2  0  0  0
  8  9  1  0  0  0
  9 10  1  0  0  0
 10 11  2  0  0  0
 10 12  1  0  0  0
 12 13  1  0  0  0
 12 14  1  0  0  0
 14 15  2  0  0  0
 14 16  1  0  0  0
 16 20  1  0  0  0
 20 21  1  0  0  0
 21 22  1  0  0  0
 21 23  1  0  0  0
 16 17  1  0  0  0
 17 18  1  0  0  0
  6  1  2  0  0  0
 18  7  1  0  0  0
 37 27  1  0  0  0
 17  9  2  0  0  0
 18 19  1  0  0  0
M  END
> <minimizedAffinity>
-9.69560

$$$$



 41 44  0  0  0  0  0  0  0  0999 V2000
    3.1747   67.0709   83.6752 C   0  0  0  0  0  0  0  0  0  0  0  0
    3.9889   68.2123   83.7102 C   0  0  0  0  0  0  0  0  0  0  0  0
    3.7355   69.2866   82.8566 C   0  0  0  0  0  0  0  0  0  0  0  0
    2.6835   69.2030   81.9454 C   0  0  0  0  0  0  0  0  0  0  0  0
    1.8854   68.0579   81.8771 C   0  0  0  0  0  0  0  0  0  0  0  0
    2.1239   66.9746   82.7374 C   0  0  0  0  0  0  0  0  0  0  0  0
    1.2501   65.8000   82.6276 C   0  0  0  0  0  0  0  0  0  0  0  0
    0.6371   65.3793   81.5306 N   0  0  0  0  0  0  0  0  0  0  0  0
   -0.0661   64.2575   81.9025 C   0  0  0  0  0  0  0  0  0  0  0  0
   -0.9223   63.4099   81.1042 C   0  0  0  0  0  0  0  0  0  0  0  0
   -1.1123   63.5955   79.9047 O   0  0  0  0  0  0  0  0  0  0  0  0
   -1.5056   62.3651   81.8434 N   0  0  0  0  0  0  0  0  0  0  0  0
   -2.3805   61.4562   81.1295 C   0  0  0  0  0  0  0  0  0  0  0  0
   -1.2805   62.0716   83.2050 C   0  0  0  0  0  0  0  0  0  0  0  0
   -1.8074   61.0969   83.7492 O   0  0  0  0  0  0  0  0  0  0  0  0
   -0.4306   62.9351   83.9223 N   0  0  0  0  0  0  0  0  0  0  0  0
    0.1265   63.9854   83.2264 C   0  0  0  0  0  0  0  0  0  0  0  0
    0.9626   64.9566   83.6825 N   0  0  0  0  0  0  0  0  0  0  0  0
    1.3129   65.0890   84.6212 H   0  0  0  0  0  0  0  0  0  0  0  0
   -0.1949   62.6715   85.3417 C   0  0  0  0  0  0  0  0  0  0  0  0
   -1.0066   63.5895   86.2763 C   0  0  0  0  0  0  0  0  0  0  0  0
   -0.1774   64.0879   87.4610 C   0  0  0  0  0  0  0  0  0  0  0  0
   -2.2413   62.8446   86.7878 C   0  0  0  0  0  0  0  0  0  0  0  0
    2.3401   70.5717   80.8672 S   0  0  0  0  0  0  0  0  0  0  0  0
    0.9015   70.7095   80.8195 O   0  0  0  0  0  0  0  0  0  0  0  0
    3.1258   70.3954   79.6639 O   0  0  0  0  0  0  0  0  0  0  0  0
    2.9890   71.9044   81.7068 N   0  0  0  0  0  0  0  0  0  0  0  0
    3.6764   72.9296   80.8512 C   0  0  0  0  0  0  0  0  0  0  0  0
    4.3837   73.9671   81.7457 C   0  0  0  0  0  0  0  0  0  0  0  0
    3.4312   74.5965   82.6711 N   0  0  0  0  0  0  0  0  0  0  0  0
    2.6953   75.6926   82.2317 C   0  0  0  0  0  0  0  0  0  0  0  0
    1.4712   75.7398   82.3456 O   0  0  0  0  0  0  0  0  0  0  0  0
    3.4287   76.7194   81.6454 N   0  0  0  0  0  0  0  0  0  0  0  0
    2.6667   77.7720   80.9978 C   0  0  0  0  0  0  0  0  0  0  0  0
    4.6995   77.1405   82.2209 C   0  0  0  0  0  0  0  0  0  0  0  0
    2.7167   73.6140   83.4909 C   0  0  0  0  0  0  0  0  0  0  0  0
    1.9961   72.5670   82.6240 C   0  0  0  0  0  0  0  0  0  0  0  0
    3.4156   65.9951   84.4964 O   0  0  0  0  0  0  0  0  0  0  0  0
    4.3985   66.2067   85.5187 C   0  0  0  0  0  0  0  0  0  0  0  0
    6.7872   65.8675   84.7459 C   0  0  0  0  0  0  0  0  0  0  0  0
    5.5482   65.2174   85.3461 C   0  0  0  0  0  0  0  0  0  0  0  0
 40 41  1  0  0  0
 41 39  1  0  0  0
 39 38  1  0  0  0
 38  1  1  0  0  0
  1  2  1  0  0  0
  2  3  2  0  0  0
  3  4  1  0  0  0
  4 24  1  0  0  0
 24 25  2  0  0  0
 24 26  2  0  0  0
 24 27  1  0  0  0
 27 28  1  0  0  0
 28 29  1  0  0  0
 29 30  1  0  0  0
 30 31  1  0  0  0
 31 32  2  0  0  0
 31 33  1  0  0  0
 33 34  1  0  0  0
 33 35  1  0  0  0
 30 36  1  0  0  0
 36 37  1  0  0  0
  4  5  2  0  0  0
  5  6  1  0  0  0
  6  7  1  0  0  0
  7  8  2  0  0  0
  8  9  1  0  0  0
  9 10  1  0  0  0
 10 11  2  0  0  0
 10 12  1  0  0  0
 12 13  1  0  0  0
 12 14  1  0  0  0
 14 15  2  0  0  0
 14 16  1  0  0  0
 16 20  1  0  0  0
 20 21  1  0  0  0
 21 22  1  0  0  0
 21 23  1  0  0  0
 16 17  1  0  0  0
 17 18  1  0  0  0
  6  1  2  0  0  0
 18  7  1  0  0  0
 37 27  1  0  0  0
 17  9  2  0  0  0
 18 19  1  0  0  0
M  END
> <minimizedAffinity>
-9.60215

$$$$



 41 44  0  0  0  0  0  0  0  0999 V2000
    1.5734   65.7264   83.9301 C   0  0  0  0  0  0  0  0  0  0  0  0
    2.3094   66.8736   84.2602 C   0  0  0  0  0  0  0  0  0  0  0  0
    2.4696   67.9014   83.3303 C   0  0  0  0  0  0  0  0  0  0  0  0
    1.9174   67.7645   82.0573 C   0  0  0  0  0  0  0  0  0  0  0  0
    1.2104   66.6119   81.7044 C   0  0  0  0  0  0  0  0  0  0  0  0
    1.0337   65.5753   82.6344 C   0  0  0  0  0  0  0  0  0  0  0  0
    0.2761   64.3907   82.2127 C   0  0  0  0  0  0  0  0  0  0  0  0
   -0.4454   63.6022   82.9963 N   0  0  0  0  0  0  0  0  0  0  0  0
   -0.9650   62.6312   82.1726 C   0  0  0  0  0  0  0  0  0  0  0  0
   -1.8115   61.5081   82.5056 C   0  0  0  0  0  0  0  0  0  0  0  0
   -2.2144   61.2926   83.6460 O   0  0  0  0  0  0  0  0  0  0  0  0
   -2.1169   60.7011   81.3948 N   0  0  0  0  0  0  0  0  0  0  0  0
   -2.9648   59.5485   81.6261 C   0  0  0  0  0  0  0  0  0  0  0  0
   -1.7294   60.9305   80.0577 C   0  0  0  0  0  0  0  0  0  0  0  0
   -2.0929   60.1834   79.1448 O   0  0  0  0  0  0  0  0  0  0  0  0
   -0.9093   62.0463   79.8028 N   0  0  0  0  0  0  0  0  0  0  0  0
   -0.5699   62.8331   80.8814 C   0  0  0  0  0  0  0  0  0  0  0  0
    0.2091   63.9480   80.9064 N   0  0  0  0  0  0  0  0  0  0  0  0
    0.6918   64.3899   80.1364 H   0  0  0  0  0  0  0  0  0  0  0  0
   -0.4712   62.2988   78.4301 C   0  0  0  0  0  0  0  0  0  0  0  0
   -1.3061   63.3762   77.7109 C   0  0  0  0  0  0  0  0  0  0  0  0
   -2.0755   62.8102   76.5163 C   0  0  0  0  0  0  0  0  0  0  0  0
   -0.3929   64.5121   77.2453 C   0  0  0  0  0  0  0  0  0  0  0  0
    2.0990   69.0742   80.8719 S   0  0  0  0  0  0  0  0  0  0  0  0
    1.4177   68.6428   79.6717 O   0  0  0  0  0  0  0  0  0  0  0  0
    3.4930   69.4652   80.8541 O   0  0  0  0  0  0  0  0  0  0  0  0
    1.2204   70.3572   81.5677 N   0  0  0  0  0  0  0  0  0  0  0  0
    1.9381   71.6755   81.6153 C   0  0  0  0  0  0  0  0  0  0  0  0
    1.1178   72.6874   82.4401 C   0  0  0  0  0  0  0  0  0  0  0  0
   -0.2363   72.8367   81.8888 N   0  0  0  0  0  0  0  0  0  0  0  0
   -0.4405   73.7392   80.8496 C   0  0  0  0  0  0  0  0  0  0  0  0
   -1.0144   73.4138   79.8112 O   0  0  0  0  0  0  0  0  0  0  0  0
    0.0568   75.0224   81.0548 N   0  0  0  0  0  0  0  0  0  0  0  0
    0.0388   75.9151   79.9100 C   0  0  0  0  0  0  0  0  0  0  0  0
   -0.0936   75.6740   82.3495 C   0  0  0  0  0  0  0  0  0  0  0  0
   -0.9450   71.5573   81.7938 C   0  0  0  0  0  0  0  0  0  0  0  0
   -0.1512   70.5277   80.9711 C   0  0  0  0  0  0  0  0  0  0  0  0
    1.4160   64.6954   84.8256 O   0  0  0  0  0  0  0  0  0  0  0  0
    0.7758   65.0428   86.0608 C   0  0  0  0  0  0  0  0  0  0  0  0
    0.1116   63.5496   87.9966 C   0  0  0  0  0  0  0  0  0  0  0  0
   -0.1087   63.8901   86.5291 C   0  0  0  0  0  0  0  0  0  0  0  0
 40 41  1  0  0  0
 41 39  1  0  0  0
 39 38  1  0  0  0
 38  1  1  0  0  0
  1  2  1  0  0  0
  2  3  2  0  0  0
  3  4  1  0  0  0
  4 24  1  0  0  0
 24 25  2  0  0  0
 24 26  2  0  0  0
 24 27  1  0  0  0
 27 28  1  0  0  0
 28 29  1  0  0  0
 29 30  1  0  0  0
 30 31  1  0  0  0
 31 32  2  0  0  0
 31 33  1  0  0  0
 33 34  1  0  0  0
 33 35  1  0  0  0
 30 36  1  0  0  0
 36 37  1  0  0  0
  4  5  2  0  0  0
  5  6  1  0  0  0
  6  7  1  0  0  0
  7  8  2  0  0  0
  8  9  1  0  0  0
  9 10  1  0  0  0
 10 11  2  0  0  0
 10 12  1  0  0  0
 12 13  1  0  0  0
 12 14  1  0  0  0
 14 15  2  0  0  0
 14 16  1  0  0  0
 16 20  1  0  0  0
 20 21  1  0  0  0
 21 22  1  0  0  0
 21 23  1  0  0  0
 16 17  1  0  0  0
 17 18  1  0  0  0
  6  1  2  0  0  0
 18  7  1  0  0  0
 37 27  1  0  0  0
 17  9  2  0  0  0
 18 19  1  0  0  0
M  END
> <minimizedAffinity>
-9.49500

$$$$



 41 44  0  0  0  0  0  0  0  0999 V2000
    0.1697   64.2973   84.4436 C   0  0  0  0  0  0  0  0  0  0  0  0
    0.7910   64.7712   85.6082 C   0  0  0  0  0  0  0  0  0  0  0  0
    1.7874   65.7448   85.5306 C   0  0  0  0  0  0  0  0  0  0  0  0
    2.1829   66.2208   84.2812 C   0  0  0  0  0  0  0  0  0  0  0  0
    1.5955   65.7326   83.1109 C   0  0  0  0  0  0  0  0  0  0  0  0
    0.5850   64.7605   83.1764 C   0  0  0  0  0  0  0  0  0  0  0  0
   -0.0025   64.2889   81.9165 C   0  0  0  0  0  0  0  0  0  0  0  0
    0.4114   64.5962   80.6955 N   0  0  0  0  0  0  0  0  0  0  0  0
   -0.4336   63.9330   79.8367 C   0  0  0  0  0  0  0  0  0  0  0  0
   -0.4468   63.9274   78.3916 C   0  0  0  0  0  0  0  0  0  0  0  0
    0.3751   64.5412   77.7154 O   0  0  0  0  0  0  0  0  0  0  0  0
   -1.4906   63.1530   77.8541 N   0  0  0  0  0  0  0  0  0  0  0  0
   -1.5869   63.0816   76.4095 C   0  0  0  0  0  0  0  0  0  0  0  0
   -2.4261   62.3848   78.5790 C   0  0  0  0  0  0  0  0  0  0  0  0
   -3.2772   61.6982   78.0062 O   0  0  0  0  0  0  0  0  0  0  0  0
   -2.3529   62.4312   79.9843 N   0  0  0  0  0  0  0  0  0  0  0  0
   -1.3584   63.2100   80.5338 C   0  0  0  0  0  0  0  0  0  0  0  0
   -1.0819   63.4305   81.8474 N   0  0  0  0  0  0  0  0  0  0  0  0
   -1.5693   63.0721   82.6568 H   0  0  0  0  0  0  0  0  0  0  0  0
   -3.3232   61.6640   80.7652 C   0  0  0  0  0  0  0  0  0  0  0  0
   -2.7821   60.3029   81.2445 C   0  0  0  0  0  0  0  0  0  0  0  0
   -3.2667   59.1466   80.3684 C   0  0  0  0  0  0  0  0  0  0  0  0
   -3.2020   60.0619   82.6959 C   0  0  0  0  0  0  0  0  0  0  0  0
    3.4369   67.4735   84.1714 S   0  0  0  0  0  0  0  0  0  0  0  0
    4.6560   66.8044   83.7757 O   0  0  0  0  0  0  0  0  0  0  0  0
    3.3680   68.2756   85.3750 O   0  0  0  0  0  0  0  0  0  0  0  0
    2.9048   68.4487   82.8800 N   0  0  0  0  0  0  0  0  0  0  0  0
    1.6490   69.2300   83.1403 C   0  0  0  0  0  0  0  0  0  0  0  0
    1.1742   69.9050   81.8379 C   0  0  0  0  0  0  0  0  0  0  0  0
    2.2289   70.7613   81.2776 N   0  0  0  0  0  0  0  0  0  0  0  0
    2.3468   72.0683   81.7402 C   0  0  0  0  0  0  0  0  0  0  0  0
    3.4201   72.5229   82.1336 O   0  0  0  0  0  0  0  0  0  0  0  0
    1.1749   72.8184   81.7425 N   0  0  0  0  0  0  0  0  0  0  0  0
    1.2313   74.1067   82.4096 C   0  0  0  0  0  0  0  0  0  0  0  0
    0.2483   72.7433   80.6203 C   0  0  0  0  0  0  0  0  0  0  0  0
    3.4796   70.0315   81.0512 C   0  0  0  0  0  0  0  0  0  0  0  0
    3.9808   69.3504   82.3366 C   0  0  0  0  0  0  0  0  0  0  0  0
   -0.8033   63.3277   84.4960 O   0  0  0  0  0  0  0  0  0  0  0  0
   -0.6587   62.3642   85.5482 C   0  0  0  0  0  0  0  0  0  0  0  0
   -2.2388   63.2783   87.3049 C   0  0  0  0  0  0  0  0  0  0  0  0
   -1.9894   62.1853   86.2746 C   0  0  0  0  0  0  0  0  0  0  0  0
 40 41  1  0  0  0
 41 39  1  0  0  0
 39 38  1  0  0  0
 38  1  1  0  0  0
  1  2  1  0  0  0
  2  3  2  0  0  0
  3  4  1  0  0  0
  4 24  1  0  0  0
 24 25  2  0  0  0
 24 26  2  0  0  0
 24 27  1  0  0  0
 27 28  1  0  0  0
 28 29  1  0  0  0
 29 30  1  0  0  0
 30 31  1  0  0  0
 31 32  2  0  0  0
 31 33  1  0  0  0
 33 34  1  0  0  0
 33 35  1  0  0  0
 30 36  1  0  0  0
 36 37  1  0  0  0
  4  5  2  0  0  0
  5  6  1  0  0  0
  6  7  1  0  0  0
  7  8  2  0  0  0
  8  9  1  0  0  0
  9 10  1  0  0  0
 10 11  2  0  0  0
 10 12  1  0  0  0
 12 13  1  0  0  0
 12 14  1  0  0  0
 14 15  2  0  0  0
 14 16  1  0  0  0
 16 20  1  0  0  0
 20 21  1  0  0  0
 21 22  1  0  0  0
 21 23  1  0  0  0
 16 17  1  0  0  0
 17 18  1  0  0  0
  6  1  2  0  0  0
 18  7  1  0  0  0
 37 27  1  0  0  0
 17  9  2  0  0  0
 18 19  1  0  0  0
M  END
> <minimizedAffinity>
-9.39672

$$$$



 41 44  0  0  0  0  0  0  0  0999 V2000
    1.1254   65.7731   81.3229 C   0  0  0  0  0  0  0  0  0  0  0  0
    1.6658   66.6620   80.3823 C   0  0  0  0  0  0  0  0  0  0  0  0
    2.3644   67.7947   80.8015 C   0  0  0  0  0  0  0  0  0  0  0  0
    2.4941   68.0526   82.1656 C   0  0  0  0  0  0  0  0  0  0  0  0
    1.9316   67.1928   83.1129 C   0  0  0  0  0  0  0  0  0  0  0  0
    1.2352   66.0446   82.7039 C   0  0  0  0  0  0  0  0  0  0  0  0
    0.6714   65.1725   83.7414 C   0  0  0  0  0  0  0  0  0  0  0  0
    1.0873   65.0775   84.9962 N   0  0  0  0  0  0  0  0  0  0  0  0
    0.2717   64.1431   85.5904 C   0  0  0  0  0  0  0  0  0  0  0  0
    0.2928   63.6425   86.9459 C   0  0  0  0  0  0  0  0  0  0  0  0
    1.0865   64.0455   87.7927 O   0  0  0  0  0  0  0  0  0  0  0  0
   -0.6817   62.6565   87.1834 N   0  0  0  0  0  0  0  0  0  0  0  0
   -0.7431   62.0930   88.5174 C   0  0  0  0  0  0  0  0  0  0  0  0
   -1.6520   62.1966   86.2681 C   0  0  0  0  0  0  0  0  0  0  0  0
   -2.4976   61.3581   86.5934 O   0  0  0  0  0  0  0  0  0  0  0  0
   -1.6193   62.7306   84.9658 N   0  0  0  0  0  0  0  0  0  0  0  0
   -0.6516   63.6745   84.7005 C   0  0  0  0  0  0  0  0  0  0  0  0
   -0.4024   64.3294   83.5345 N   0  0  0  0  0  0  0  0  0  0  0  0
   -0.8760   64.2276   82.6476 H   0  0  0  0  0  0  0  0  0  0  0  0
   -2.5974   62.2575   83.9864 C   0  0  0  0  0  0  0  0  0  0  0  0
   -2.0281   61.2074   83.0127 C   0  0  0  0  0  0  0  0  0  0  0  0
   -1.6353   61.8189   81.6670 C   0  0  0  0  0  0  0  0  0  0  0  0
   -3.0555   60.0950   82.7938 C   0  0  0  0  0  0  0  0  0  0  0  0
    3.3973   69.4811   82.7109 S   0  0  0  0  0  0  0  0  0  0  0  0
    2.4441   70.3458   83.3702 O   0  0  0  0  0  0  0  0  0  0  0  0
    4.2025   69.9461   81.6010 O   0  0  0  0  0  0  0  0  0  0  0  0
    4.4618   68.8487   83.8809 N   0  0  0  0  0  0  0  0  0  0  0  0
    3.8465   68.5613   85.2204 C   0  0  0  0  0  0  0  0  0  0  0  0
    4.9484   68.1880   86.2321 C   0  0  0  0  0  0  0  0  0  0  0  0
    5.7358   67.0445   85.7503 N   0  0  0  0  0  0  0  0  0  0  0  0
    5.2711   65.7575   86.0025 C   0  0  0  0  0  0  0  0  0  0  0  0
    5.1605   64.9207   85.1075 O   0  0  0  0  0  0  0  0  0  0  0  0
    4.9279   65.4850   87.3231 N   0  0  0  0  0  0  0  0  0  0  0  0
    4.2507   64.2247   87.5698 C   0  0  0  0  0  0  0  0  0  0  0  0
    5.7649   65.9616   88.4166 C   0  0  0  0  0  0  0  0  0  0  0  0
    6.3150   67.2837   84.4254 C   0  0  0  0  0  0  0  0  0  0  0  0
    5.2368   67.6543   83.3923 C   0  0  0  0  0  0  0  0  0  0  0  0
    0.4206   64.6595   80.9320 O   0  0  0  0  0  0  0  0  0  0  0  0
    0.0530   64.6164   79.5466 C   0  0  0  0  0  0  0  0  0  0  0  0
    0.0705   63.1507   77.4803 C   0  0  0  0  0  0  0  0  0  0  0  0
    0.5298   63.3069   78.9235 C   0  0  0  0  0  0  0  0  0  0  0  0
 40 41  1  0  0  0
 41 39  1  0  0  0
 39 38  1  0  0  0
 38  1  1  0  0  0
  1  2  1  0  0  0
  2  3  2  0  0  0
  3  4  1  0  0  0
  4 24  1  0  0  0
 24 25  2  0  0  0
 24 26  2  0  0  0
 24 27  1  0  0  0
 27 28  1  0  0  0
 28 29  1  0  0  0
 29 30  1  0  0  0
 30 31  1  0  0  0
 31 32  2  0  0  0
 31 33  1  0  0  0
 33 34  1  0  0  0
 33 35  1  0  0  0
 30 36  1  0  0  0
 36 37  1  0  0  0
  4  5  2  0  0  0
  5  6  1  0  0  0
  6  7  1  0  0  0
  7  8  2  0  0  0
  8  9  1  0  0  0
  9 10  1  0  0  0
 10 11  2  0  0  0
 10 12  1  0  0  0
 12 13  1  0  0  0
 12 14  1  0  0  0
 14 15  2  0  0  0
 14 16  1  0  0  0
 16 20  1  0  0  0
 20 21  1  0  0  0
 21 22  1  0  0  0
 21 23  1  0  0  0
 16 17  1  0  0  0
 17 18  1  0  0  0
  6  1  2  0  0  0
 18  7  1  0  0  0
 37 27  1  0  0  0
 17  9  2  0  0  0
 18 19  1  0  0  0
M  END
> <minimizedAffinity>
-9.28267

$$$$
