
     RDKit          3D

 61 65  0  0  0  0  0  0  0  0999 V2000
   -1.7175    5.2307   -2.2252 C   0  0  0  0  0  0  0  0  0  0  0  0
   -1.2820    5.0567   -0.7814 C   0  0  0  0  0  0  0  0  0  0  0  0
   -0.5414    3.8284   -0.5794 N   0  0  0  0  0  0  0  0  0  0  0  0
    0.8016    3.8183   -0.7246 N   0  0  0  0  0  0  0  0  0  0  0  0
    1.1282    2.5523   -0.4442 C   0  0  0  0  0  0  0  0  0  0  0  0
    0.0080    1.7332   -0.1533 C   0  0  0  0  0  0  0  0  0  0  0  0
   -0.2573    0.3705    0.1840 C   0  0  0  0  0  0  0  0  0  0  0  0
    0.7267   -0.6396    0.2517 C   0  0  0  0  0  0  0  0  0  0  0  0
    2.0651   -0.3588   -0.0897 N   0  0  0  0  0  0  0  0  0  0  0  0
    2.9760   -1.4884    0.0520 C   0  0  0  0  0  0  0  0  0  0  0  0
    4.3587   -1.0410   -0.3633 C   0  0  0  0  0  0  0  0  0  0  0  0
    4.9211   -1.4650   -1.5733 C   0  0  0  0  0  0  0  0  0  0  0  0
    6.1969   -1.0347   -1.9594 C   0  0  0  0  0  0  0  0  0  0  0  0
    6.9333   -0.1679   -1.1451 C   0  0  0  0  0  0  0  0  0  0  0  0
    8.1860    0.3014   -1.4431 O   0  0  0  0  0  0  0  0  0  0  0  0
    8.7716   -0.1087   -2.6710 C   0  0  0  0  0  0  0  0  0  0  0  0
    6.3659    0.2624    0.0648 C   0  0  0  0  0  0  0  0  0  0  0  0
    7.2102    1.3378    1.1250 Cl  0  0  0  0  0  0  0  0  0  0  0  0
    5.0922   -0.1671    0.4506 C   0  0  0  0  0  0  0  0  0  0  0  0
    0.3812   -1.8845    0.6340 N   0  0  0  0  0  0  0  0  0  0  0  0
   -0.9225   -2.2060    0.9303 N   0  0  0  0  0  0  0  0  0  0  0  0
   -1.9039   -1.2822    0.8611 C   0  0  0  0  0  0  0  0  0  0  0  0
   -3.2324   -1.6458    1.2062 N   0  0  0  0  0  0  0  0  0  0  0  0
   -3.5261   -3.0433    0.8773 C   0  0  0  0  0  0  0  0  0  0  0  0
   -5.0432   -3.2458    0.9412 C   0  0  0  0  0  0  0  0  0  0  0  0
   -5.7146   -2.4069    2.0432 C   0  0  0  0  0  0  0  0  0  0  0  0
   -6.3462   -1.1478    1.4805 C   0  0  0  0  0  0  0  0  0  0  0  0
   -6.1381    0.0027    1.8287 O   0  0  0  0  0  0  0  0  0  0  0  0
   -7.2804   -1.4098    0.5444 O   0  0  0  0  0  0  0  0  0  0  0  0
   -4.7182   -2.0585    3.1542 C   0  0  0  0  0  0  0  0  0  0  0  0
   -3.4794   -1.3191    2.6273 C   0  0  0  0  0  0  0  0  0  0  0  0
   -1.6025    0.0361    0.4725 C   0  0  0  0  0  0  0  0  0  0  0  0
   -2.5724    1.0432    0.3335 C   0  0  0  0  0  0  0  0  0  0  0  0
   -2.3635    2.3339   -0.0224 N   0  0  0  0  0  0  0  0  0  0  0  0
   -1.0648    2.6108   -0.2338 C   0  0  0  0  0  0  0  0  0  0  0  0
   -2.2692    6.1680   -2.3456 H   0  0  0  0  0  0  0  0  0  0  0  0
   -0.8537    5.2533   -2.8981 H   0  0  0  0  0  0  0  0  0  0  0  0
   -2.3669    4.4084   -2.5439 H   0  0  0  0  0  0  0  0  0  0  0  0
   -2.1507    5.0435   -0.1147 H   0  0  0  0  0  0  0  0  0  0  0  0
   -0.6393    5.8877   -0.4701 H   0  0  0  0  0  0  0  0  0  0  0  0
    2.1762    2.2823   -0.4600 H   0  0  0  0  0  0  0  0  0  0  0  0
    2.0840    0.0015   -1.0409 H   0  0  0  0  0  0  0  0  0  0  0  0
    3.0179   -1.8378    1.0917 H   0  0  0  0  0  0  0  0  0  0  0  0
    2.6594   -2.3318   -0.5750 H   0  0  0  0  0  0  0  0  0  0  0  0
    4.3713   -2.1376   -2.2295 H   0  0  0  0  0  0  0  0  0  0  0  0
    6.5858   -1.3972   -2.9055 H   0  0  0  0  0  0  0  0  0  0  0  0
    8.9190   -1.1934   -2.6950 H   0  0  0  0  0  0  0  0  0  0  0  0
    9.7566    0.3621   -2.7453 H   0  0  0  0  0  0  0  0  0  0  0  0
    8.1761    0.2298   -3.5252 H   0  0  0  0  0  0  0  0  0  0  0  0
    4.6628    0.1845    1.3870 H   0  0  0  0  0  0  0  0  0  0  0  0
   -3.1854   -3.3000   -0.1343 H   0  0  0  0  0  0  0  0  0  0  0  0
   -3.0283   -3.7272    1.5782 H   0  0  0  0  0  0  0  0  0  0  0  0
   -5.4726   -3.0196   -0.0420 H   0  0  0  0  0  0  0  0  0  0  0  0
   -5.2395   -4.3105    1.1188 H   0  0  0  0  0  0  0  0  0  0  0  0
   -6.5378   -2.9826    2.4859 H   0  0  0  0  0  0  0  0  0  0  0  0
   -7.6143   -0.5238    0.2900 H   0  0  0  0  0  0  0  0  0  0  0  0
   -4.3946   -2.9911    3.6354 H   0  0  0  0  0  0  0  0  0  0  0  0
   -5.1929   -1.4601    3.9413 H   0  0  0  0  0  0  0  0  0  0  0  0
   -3.6340   -0.2391    2.7337 H   0  0  0  0  0  0  0  0  0  0  0  0
   -2.6222   -1.5842    3.2614 H   0  0  0  0  0  0  0  0  0  0  0  0
   -3.6240    0.8177    0.5136 H   0  0  0  0  0  0  0  0  0  0  0  0
  1  2  1  0
  2  3  1  0
  3  4  1  0
  4  5  2  0
  5  6  1  0
  6  7  1  0
  7  8  2  0
  8  9  1  0
  9 10  1  0
 10 11  1  0
 11 12  1  0
 12 13  2  0
 13 14  1  0
 14 15  1  0
 15 16  1  0
 14 17  2  0
 17 18  1  0
 17 19  1  0
  8 20  1  0
 20 21  2  0
 21 22  1  0
 22 23  1  0
 23 24  1  0
 24 25  1  0
 25 26  1  0
 26 27  1  0
 27 28  2  0
 27 29  1  0
 26 30  1  0
 30 31  1  0
 22 32  2  0
 32 33  1  0
 33 34  2  0
 34 35  1  0
 35  3  1  0
 35  6  2  0
 32  7  1  0
 19 11  2  0
 31 23  1  0
  1 36  1  0
  1 37  1  0
  1 38  1  0
  2 39  1  0
  2 40  1  0
  5 41  1  0
  9 42  1  0
 10 43  1  0
 10 44  1  0
 12 45  1  0
 13 46  1  0
 16 47  1  0
 16 48  1  0
 16 49  1  0
 19 50  1  0
 24 51  1  0
 24 52  1  0
 25 53  1  0
 25 54  1  0
 26 55  1  0
 29 56  1  0
 30 57  1  0
 30 58  1  0
 31 59  1  0
 31 60  1  0
 33 61  1  0
M  END
$$$$
