
     RDKit          3D

 73 76  0  0  0  0  0  0  0  0999 V2000
    3.6426    1.9293   -3.5657 C   0  0  0  0  0  0  0  0  0  0  0  0
    2.3152    2.5418   -3.1536 C   0  0  0  0  0  0  0  0  0  0  0  0
    2.2142    2.8969   -1.6670 C   0  0  0  0  0  0  0  0  0  0  0  0
    2.3068    1.6960   -0.7186 C   0  0  0  0  0  0  0  0  0  0  0  0
    3.7178    1.4858   -0.1573 C   0  0  0  0  0  0  0  0  0  0  0  0
    3.7979    0.3329    0.8505 C   0  0  0  0  0  0  0  0  0  0  0  0
    3.6325   -0.9818    0.2394 N   0  0  0  0  0  0  0  0  0  0  0  0
    4.7176   -1.5930   -0.3975 C   0  0  0  0  0  0  0  0  0  0  0  0
    5.8247   -1.0490   -0.4566 O   0  0  0  0  0  0  0  0  0  0  0  0
    4.4977   -2.8617   -0.9753 N   0  0  0  0  0  0  0  0  0  0  0  0
    5.6378   -3.4775   -1.6243 C   0  0  0  0  0  0  0  0  0  0  0  0
    3.2820   -3.5503   -0.9869 C   0  0  0  0  0  0  0  0  0  0  0  0
    3.0980   -4.6466   -1.5055 O   0  0  0  0  0  0  0  0  0  0  0  0
    2.2496   -2.8389   -0.3288 C   0  0  0  0  0  0  0  0  0  0  0  0
    0.9394   -3.1509   -0.1336 N   0  0  0  0  0  0  0  0  0  0  0  0
    0.3518   -2.1024    0.5474 C   0  0  0  0  0  0  0  0  0  0  0  0
   -1.0727   -2.0413    0.9138 C   0  0  0  0  0  0  0  0  0  0  0  0
   -1.5197   -0.8859    1.5784 C   0  0  0  0  0  0  0  0  0  0  0  0
   -2.8625   -0.7436    1.9302 C   0  0  0  0  0  0  0  0  0  0  0  0
   -3.3938    0.7504    2.7255 S   0  0  0  0  0  0  0  0  0  0  0  0
   -2.7384    0.8019    4.0136 O   0  0  0  0  0  0  0  0  0  0  0  0
   -4.8348    0.8397    2.6069 O   0  0  0  0  0  0  0  0  0  0  0  0
   -2.7357    1.9665    1.7341 N   0  0  0  0  0  0  0  0  0  0  0  0
   -3.2861    2.0516    0.3420 C   0  0  0  0  0  0  0  0  0  0  0  0
   -4.2158    3.2665    0.1765 C   0  0  0  0  0  0  0  0  0  0  0  0
   -3.5219    4.5552    0.3847 N   0  0  0  0  0  0  0  0  0  0  0  0
   -4.4810    5.6024    0.7286 C   0  0  0  0  0  0  0  0  0  0  0  0
   -2.4494    4.4368    1.3947 C   0  0  0  0  0  0  0  0  0  0  0  0
   -2.6504    3.2994    2.4126 C   0  0  0  0  0  0  0  0  0  0  0  0
   -3.7820   -1.7470    1.6382 C   0  0  0  0  0  0  0  0  0  0  0  0
   -3.3506   -2.9066    0.9890 C   0  0  0  0  0  0  0  0  0  0  0  0
   -2.0047   -3.0664    0.6221 C   0  0  0  0  0  0  0  0  0  0  0  0
   -1.5230   -4.1776   -0.0279 O   0  0  0  0  0  0  0  0  0  0  0  0
   -2.4190   -5.2673   -0.2510 C   0  0  0  0  0  0  0  0  0  0  0  0
   -1.6333   -6.3824   -0.9176 C   0  0  0  0  0  0  0  0  0  0  0  0
    1.2596   -1.1657    0.7970 N   0  0  0  0  0  0  0  0  0  0  0  0
    2.4182   -1.6249    0.2522 C   0  0  0  0  0  0  0  0  0  0  0  0
    3.6866    1.8274   -4.6549 H   0  0  0  0  0  0  0  0  0  0  0  0
    3.7691    0.9300   -3.1393 H   0  0  0  0  0  0  0  0  0  0  0  0
    4.4822    2.5565   -3.2507 H   0  0  0  0  0  0  0  0  0  0  0  0
    1.5030    1.8570   -3.4253 H   0  0  0  0  0  0  0  0  0  0  0  0
    2.1590    3.4578   -3.7360 H   0  0  0  0  0  0  0  0  0  0  0  0
    1.2342    3.3686   -1.5175 H   0  0  0  0  0  0  0  0  0  0  0  0
    2.9624    3.6559   -1.4098 H   0  0  0  0  0  0  0  0  0  0  0  0
    1.6304    1.8754    0.1270 H   0  0  0  0  0  0  0  0  0  0  0  0
    1.9464    0.7942   -1.2244 H   0  0  0  0  0  0  0  0  0  0  0  0
    4.0316    2.4043    0.3543 H   0  0  0  0  0  0  0  0  0  0  0  0
    4.4326    1.3186   -0.9682 H   0  0  0  0  0  0  0  0  0  0  0  0
    3.0625    0.4668    1.6527 H   0  0  0  0  0  0  0  0  0  0  0  0
    4.7851    0.3592    1.3283 H   0  0  0  0  0  0  0  0  0  0  0  0
    5.9674   -2.8336   -2.4465 H   0  0  0  0  0  0  0  0  0  0  0  0
    5.4096   -4.4703   -2.0201 H   0  0  0  0  0  0  0  0  0  0  0  0
    6.4572   -3.5628   -0.9027 H   0  0  0  0  0  0  0  0  0  0  0  0
    0.4568   -3.9863   -0.4412 H   0  0  0  0  0  0  0  0  0  0  0  0
   -0.8145   -0.0889    1.8159 H   0  0  0  0  0  0  0  0  0  0  0  0
   -2.4387    2.1173   -0.3516 H   0  0  0  0  0  0  0  0  0  0  0  0
   -3.8308    1.1402    0.0747 H   0  0  0  0  0  0  0  0  0  0  0  0
   -5.0519    3.1578    0.8804 H   0  0  0  0  0  0  0  0  0  0  0  0
   -4.6400    3.2588   -0.8341 H   0  0  0  0  0  0  0  0  0  0  0  0
   -4.9715    5.4148    1.6904 H   0  0  0  0  0  0  0  0  0  0  0  0
   -5.2534    5.6858   -0.0439 H   0  0  0  0  0  0  0  0  0  0  0  0
   -3.9827    6.5769    0.7799 H   0  0  0  0  0  0  0  0  0  0  0  0
   -2.2962    5.3849    1.9246 H   0  0  0  0  0  0  0  0  0  0  0  0
   -1.5144    4.2490    0.8505 H   0  0  0  0  0  0  0  0  0  0  0  0
   -3.5591    3.4886    2.9965 H   0  0  0  0  0  0  0  0  0  0  0  0
   -1.7965    3.2809    3.0990 H   0  0  0  0  0  0  0  0  0  0  0  0
   -4.8297   -1.6383    1.9118 H   0  0  0  0  0  0  0  0  0  0  0  0
   -4.0971   -3.6666    0.7790 H   0  0  0  0  0  0  0  0  0  0  0  0
   -2.8205   -5.6324    0.7014 H   0  0  0  0  0  0  0  0  0  0  0  0
   -3.2344   -4.9581   -0.9146 H   0  0  0  0  0  0  0  0  0  0  0  0
   -0.8005   -6.6997   -0.2811 H   0  0  0  0  0  0  0  0  0  0  0  0
   -1.1987   -6.0367   -1.8614 H   0  0  0  0  0  0  0  0  0  0  0  0
   -2.2740   -7.2457   -1.1180 H   0  0  0  0  0  0  0  0  0  0  0  0
  1  2  1  0
  2  3  1  0
  3  4  1  0
  4  5  1  0
  5  6  1  0
  6  7  1  0
  7  8  1  0
  8  9  2  0
  8 10  1  0
 10 11  1  0
 10 12  1  0
 12 13  2  0
 12 14  1  0
 14 15  1  0
 15 16  1  0
 16 17  1  0
 17 18  1  0
 18 19  2  0
 19 20  1  0
 20 21  2  0
 20 22  2  0
 20 23  1  0
 23 24  1  0
 24 25  1  0
 25 26  1  0
 26 27  1  0
 26 28  1  0
 28 29  1  0
 19 30  1  0
 30 31  2  0
 31 32  1  0
 32 33  1  0
 33 34  1  0
 34 35  1  0
 16 36  2  0
 36 37  1  0
 37  7  1  0
 37 14  2  0
 32 17  2  0
 29 23  1  0
  1 38  1  0
  1 39  1  0
  1 40  1  0
  2 41  1  0
  2 42  1  0
  3 43  1  0
  3 44  1  0
  4 45  1  0
  4 46  1  0
  5 47  1  0
  5 48  1  0
  6 49  1  0
  6 50  1  0
 11 51  1  0
 11 52  1  0
 11 53  1  0
 15 54  1  0
 18 55  1  0
 24 56  1  0
 24 57  1  0
 25 58  1  0
 25 59  1  0
 27 60  1  0
 27 61  1  0
 27 62  1  0
 28 63  1  0
 28 64  1  0
 29 65  1  0
 29 66  1  0
 30 67  1  0
 31 68  1  0
 34 69  1  0
 34 70  1  0
 35 71  1  0
 35 72  1  0
 35 73  1  0
M  END
$$$$
