
     RDKit          3D

 38 41  0  0  0  0  0  0  0  0999 V2000
    1.1599   65.3183   83.3899 C   0  0  0  0  0  0  0  0  0  0  0  0
    0.2358   64.3554   83.6005 N   0  0  0  0  0  0  0  0  0  0  0  0
    0.0528   63.8728   84.8412 C   0  0  0  0  0  0  0  0  0  0  0  0
    0.7455   64.3165   85.9004 N   0  0  0  0  0  0  0  0  0  0  0  0
    1.6667   65.2749   85.6762 C   0  0  0  0  0  0  0  0  0  0  0  0
    1.9319   65.8028   84.4342 C   0  0  0  0  0  0  0  0  0  0  0  0
   -0.9122   62.9137   85.0378 N   0  0  0  0  0  0  0  0  0  0  0  0
   -1.8198   62.6001   83.9467 C   0  0  0  0  0  0  0  0  0  0  0  0
   -2.8841   61.7434   84.6230 C   0  0  0  0  0  0  0  0  0  0  0  0
   -3.0136   62.3961   85.9925 C   0  0  0  0  0  0  0  0  0  0  0  0
   -1.5713   62.8127   86.3447 C   0  0  1  0  0  0  0  0  0  0  0  0
   -0.8594   61.7743   87.2259 C   0  0  0  0  0  0  0  0  0  0  0  0
   -0.0838   62.4119   88.2395 O   0  0  0  0  0  0  0  0  0  0  0  0
    0.3706   61.7038   88.7277 H   0  0  0  0  0  0  0  0  0  0  0  0
    2.9097   66.8907   84.2518 C   0  0  0  0  0  0  0  0  0  0  0  0
    2.5127   68.0353   84.0550 O   0  0  0  0  0  0  0  0  0  0  0  0
    4.2397   66.5424   84.3326 N   0  0  0  0  0  0  0  0  0  0  0  0
    4.5075   65.5974   84.6013 H   0  0  0  0  0  0  0  0  0  0  0  0
    5.3085   67.5314   84.3824 C   0  0  1  0  0  0  0  0  0  0  0  0
    5.3167   68.2260   85.7471 C   0  0  0  0  0  0  0  0  0  0  0  0
    5.6148   67.2638   86.9093 C   0  0  0  0  0  0  0  0  0  0  0  0
    6.4749   66.0508   86.5140 C   0  0  2  0  0  0  0  0  0  0  0  0
    7.4143   66.4173   85.3633 C   0  0  0  0  0  0  0  0  0  0  0  0
    6.6661   66.8670   84.0997 C   0  0  0  0  0  0  0  0  0  0  0  0
    5.5837   64.9878   86.1309 O   0  0  0  0  0  0  0  0  0  0  0  0
    4.7129   64.5811   87.1820 C   0  0  0  0  0  0  0  0  0  0  0  0
    1.4034   65.7364   82.0672 N   0  0  0  0  0  0  0  0  0  0  0  0
    2.3264   66.1792   82.0179 H   0  0  0  0  0  0  0  0  0  0  0  0
    0.3588   66.5569   81.4793 C   0  0  0  0  0  0  0  0  0  0  0  0
    1.9565   70.4911   80.5864 C   0  0  0  0  0  0  0  0  0  0  0  0
    2.7037   69.3411   80.3113 C   0  0  0  0  0  0  0  0  0  0  0  0
    2.1912   68.0713   80.6041 C   0  0  0  0  0  0  0  0  0  0  0  0
    0.9253   67.9267   81.1852 C   0  0  0  0  0  0  0  0  0  0  0  0
    0.1699   69.0765   81.4495 C   0  0  0  0  0  0  0  0  0  0  0  0
    0.6823   70.3445   81.1578 C   0  0  0  0  0  0  0  0  0  0  0  0
   -0.3060   71.7179   81.5215 Cl  0  0  0  0  0  0  0  0  0  0  0  0
    3.2888   72.3566   81.2585 C   0  0  0  0  0  0  0  0  0  0  0  0
    2.3802   71.7708   80.3366 O   0  0  0  0  0  0  0  0  0  0  0  0
 37 38  1  0
 38 30  1  0
 30 31  1  0
 31 32  2  0
 32 33  1  0
 33 29  1  0
 29 27  1  0
 27  1  1  0
  1  2  1  0
  2  3  2  0
  3  7  1  0
  7  8  1  0
  8  9  1  0
  9 10  1  0
 10 11  1  0
 11 12  1  1
 12 13  1  0
  3  4  1  0
  4  5  2  0
  5  6  1  0
  6 15  1  0
 15 16  2  0
 15 17  1  0
 19 17  1  1
 19 20  1  0
 20 21  1  0
 21 22  1  0
 22 25  1  6
 25 26  1  0
 22 23  1  0
 23 24  1  0
 33 34  2  0
 34 35  1  0
 35 36  1  0
 35 30  2  0
  6  1  2  0
 24 19  1  0
 11  7  1  0
 27 28  1  0
 13 14  1  0
 17 18  1  0
M  END
>  <minimizedAffinity>  (1) 
-9.45452

$$$$
