
     RDKit          3D

 37 43  0  0  0  0  0  0  0  0999 V2000
   -0.7224   63.0785   85.2165 N   0  0  0  0  0  0  0  0  0  0  0  0
    0.3118   63.7523   85.9027 C   0  0  0  0  0  0  0  0  0  0  0  0
    0.5601   63.5701   87.0937 O   0  0  0  0  0  0  0  0  0  0  0  0
    1.0539   64.7147   85.0829 C   0  0  0  0  0  0  0  0  0  0  0  0
    2.0593   65.5586   85.4741 N   0  0  0  0  0  0  0  0  0  0  0  0
    2.3881   66.2504   84.3958 C   0  0  0  0  0  0  0  0  0  0  0  0
    1.6278   65.8544   83.2979 N   0  0  0  0  0  0  0  0  0  0  0  0
    0.7590   64.8942   83.7494 C   0  0  0  0  0  0  0  0  0  0  0  0
   -0.2230   64.1926   83.1442 N   0  0  0  0  0  0  0  0  0  0  0  0
   -0.8631   64.4317   81.8724 C   0  0  0  0  0  0  0  0  0  0  0  0
   -1.9644   63.3404   81.8824 C   0  0  1  0  0  0  0  0  0  0  0  0
   -3.3423   63.8834   81.4469 C   0  0  0  0  0  0  0  0  0  0  0  0
   -4.1140   62.6910   80.8635 C   0  0  0  0  0  0  0  0  0  0  0  0
   -2.9968   61.8668   80.3043 C   0  0  0  0  0  0  0  0  0  0  0  0
   -3.0820   60.8383   79.3808 C   0  0  0  0  0  0  0  0  0  0  0  0
   -1.9133   60.1547   79.0405 C   0  0  0  0  0  0  0  0  0  0  0  0
   -0.6888   60.4920   79.6366 C   0  0  0  0  0  0  0  0  0  0  0  0
   -0.6146   61.5223   80.5767 C   0  0  0  0  0  0  0  0  0  0  0  0
   -1.7745   62.2148   80.8946 C   0  0  0  0  0  0  0  0  0  0  0  0
   -2.0530   62.8161   83.2814 N   0  0  0  0  0  0  0  0  0  0  0  0
   -1.0170   63.3364   83.8817 C   0  0  0  0  0  0  0  0  0  0  0  0
   -2.7099   62.8644   86.6604 C   0  0  0  0  0  0  0  0  0  0  0  0
   -1.5524   62.1520   85.9753 C   0  0  0  0  0  0  0  0  0  0  0  0
    3.4277   67.3364   84.3774 C   0  0  0  0  0  0  0  0  0  0  0  0
    4.8292   66.8665   84.6999 C   0  0  0  0  0  0  0  0  0  0  0  0
    5.9008   67.7723   84.6751 C   0  0  0  0  0  0  0  0  0  0  0  0
    7.1949   67.3481   84.9811 C   0  0  0  0  0  0  0  0  0  0  0  0
    7.4304   66.0187   85.3265 C   0  0  0  0  0  0  0  0  0  0  0  0
    6.3720   65.1138   85.3737 C   0  0  0  0  0  0  0  0  0  0  0  0
    5.0773   65.5356   85.0685 C   0  0  0  0  0  0  0  0  0  0  0  0
    1.8156   66.3346   81.9381 C   0  0  0  0  0  0  0  0  0  0  0  0
    1.1012   67.6313   81.6359 C   0  0  0  0  0  0  0  0  0  0  0  0
    0.0907   67.7390   80.6678 C   0  0  0  0  0  0  0  0  0  0  0  0
   -0.5171   68.9688   80.4059 C   0  0  0  0  0  0  0  0  0  0  0  0
   -0.1158   70.1093   81.0966 C   0  0  0  0  0  0  0  0  0  0  0  0
    0.8967   70.0235   82.0481 C   0  0  0  0  0  0  0  0  0  0  0  0
    1.5047   68.7951   82.3120 C   0  0  0  0  0  0  0  0  0  0  0  0
 22 23  1  0
 23  1  1  0
  1  2  1  0
  2  3  2  0
  2  4  1  0
  4  5  1  0
  5  6  2  0
  6 24  1  0
 24 25  1  0
 25 26  2  0
 26 27  1  0
 27 28  2  0
 28 29  1  0
 29 30  2  0
  6  7  1  0
  7 31  1  0
 31 32  1  0
 32 33  2  0
 33 34  1  0
 34 35  2  0
 35 36  1  0
 36 37  2  0
  7  8  1  0
  8  9  1  0
  9 10  1  0
 11 10  1  1
 11 12  1  0
 12 13  1  0
 13 14  1  0
 14 15  2  0
 15 16  1  0
 16 17  2  0
 17 18  1  0
 18 19  2  0
 11 20  1  0
 20 21  2  0
 21  1  1  0
  8  4  2  0
 21  9  1  0
 30 25  1  0
 37 32  1  0
 19 11  1  0
 19 14  1  0
M  END
>  <minimizedAffinity>  (1) 
-10.20351

$$$$
