
     RDKit          3D

 54 58  0  0  0  0  0  0  0  0999 V2000
    6.1019    1.6266    0.7664 C   0  0  0  0  0  0  0  0  0  0  0  0
    5.6671    0.5689    1.7916 C   0  0  0  0  0  0  0  0  0  0  0  0
    5.9733   -0.8446    1.2756 C   0  0  0  0  0  0  0  0  0  0  0  0
    6.4750    0.7927    3.0818 C   0  0  0  0  0  0  0  0  0  0  0  0
    4.2885    0.7234    2.2024 O   0  0  0  0  0  0  0  0  0  0  0  0
    3.3397    0.5920    1.2299 C   0  0  0  0  0  0  0  0  0  0  0  0
    2.8654    1.7251    0.5736 C   0  0  0  0  0  0  0  0  0  0  0  0
    1.8447    1.6072   -0.3715 C   0  0  0  0  0  0  0  0  0  0  0  0
    1.2739    0.3558   -0.6462 C   0  0  0  0  0  0  0  0  0  0  0  0
    0.1375    0.2296   -1.6367 C   0  0  0  0  0  0  0  0  0  0  0  0
   -1.2102    0.1119   -1.0019 C   0  0  0  0  0  0  0  0  0  0  0  0
   -1.5026    0.5819    0.2627 N   0  0  0  0  0  0  0  0  0  0  0  0
   -2.8272    0.3530    0.5816 C   0  0  0  0  0  0  0  0  0  0  0  0
   -3.3811    0.7779    1.8311 C   0  0  0  0  0  0  0  0  0  0  0  0
   -2.7417    0.9690    3.0472 C   0  0  0  0  0  0  0  0  0  0  0  0
   -3.7198    1.4053    3.9746 C   0  0  0  0  0  0  0  0  0  0  0  0
   -4.8992    1.4635    3.2760 C   0  0  0  0  0  0  0  0  0  0  0  0
   -4.7027    1.0969    1.9867 O   0  0  0  0  0  0  0  0  0  0  0  0
   -3.3959   -0.2920   -0.5025 C   0  0  0  0  0  0  0  0  0  0  0  0
   -4.7271   -0.8064   -0.7440 C   0  0  0  0  0  0  0  0  0  0  0  0
   -5.6520   -0.7972    0.0581 O   0  0  0  0  0  0  0  0  0  0  0  0
   -4.8993   -1.4054   -2.0996 C   0  0  0  0  0  0  0  0  0  0  0  0
   -6.1448   -1.9148   -2.4839 C   0  0  0  0  0  0  0  0  0  0  0  0
   -6.3033   -2.4786   -3.7515 C   0  0  0  0  0  0  0  0  0  0  0  0
   -5.2228   -2.5360   -4.6348 C   0  0  0  0  0  0  0  0  0  0  0  0
   -3.9772   -2.0307   -4.2568 C   0  0  0  0  0  0  0  0  0  0  0  0
   -3.8128   -1.4655   -2.9917 C   0  0  0  0  0  0  0  0  0  0  0  0
   -2.5526   -0.9882   -2.6860 O   0  0  0  0  0  0  0  0  0  0  0  0
   -2.3828   -0.4211   -1.4754 C   0  0  0  0  0  0  0  0  0  0  0  0
    1.7308   -0.7703    0.0551 C   0  0  0  0  0  0  0  0  0  0  0  0
    2.7508   -0.6485    1.0001 C   0  0  0  0  0  0  0  0  0  0  0  0
    5.8389    2.6344    1.1064 H   0  0  0  0  0  0  0  0  0  0  0  0
    5.6118    1.4742   -0.2011 H   0  0  0  0  0  0  0  0  0  0  0  0
    7.1831    1.5927    0.5928 H   0  0  0  0  0  0  0  0  0  0  0  0
    5.4853   -1.0361    0.3141 H   0  0  0  0  0  0  0  0  0  0  0  0
    7.0491   -0.9914    1.1295 H   0  0  0  0  0  0  0  0  0  0  0  0
    5.6136   -1.6051    1.9775 H   0  0  0  0  0  0  0  0  0  0  0  0
    7.5528    0.7021    2.9102 H   0  0  0  0  0  0  0  0  0  0  0  0
    6.1856    0.0688    3.8527 H   0  0  0  0  0  0  0  0  0  0  0  0
    6.2738    1.7863    3.4994 H   0  0  0  0  0  0  0  0  0  0  0  0
    3.2849    2.7012    0.7993 H   0  0  0  0  0  0  0  0  0  0  0  0
    1.4903    2.4996   -0.8831 H   0  0  0  0  0  0  0  0  0  0  0  0
    0.3258   -0.6460   -2.2715 H   0  0  0  0  0  0  0  0  0  0  0  0
    0.1368    1.0947   -2.3121 H   0  0  0  0  0  0  0  0  0  0  0  0
   -0.8386    1.0431    0.8716 H   0  0  0  0  0  0  0  0  0  0  0  0
   -1.6940    0.7978    3.2495 H   0  0  0  0  0  0  0  0  0  0  0  0
   -3.5832    1.6410    5.0201 H   0  0  0  0  0  0  0  0  0  0  0  0
   -5.9147    1.7295    3.5332 H   0  0  0  0  0  0  0  0  0  0  0  0
   -6.9896   -1.8733   -1.7991 H   0  0  0  0  0  0  0  0  0  0  0  0
   -7.2715   -2.8741   -4.0504 H   0  0  0  0  0  0  0  0  0  0  0  0
   -5.3523   -2.9766   -5.6208 H   0  0  0  0  0  0  0  0  0  0  0  0
   -3.1389   -2.0779   -4.9468 H   0  0  0  0  0  0  0  0  0  0  0  0
    1.2802   -1.7453   -0.1205 H   0  0  0  0  0  0  0  0  0  0  0  0
    3.0772   -1.5207    1.5589 H   0  0  0  0  0  0  0  0  0  0  0  0
  1  2  1  0
  2  3  1  0
  2  4  1  0
  2  5  1  0
  5  6  1  0
  6  7  1  0
  7  8  2  0
  8  9  1  0
  9 10  1  0
 10 11  1  0
 11 12  1  0
 12 13  1  0
 13 14  1  0
 14 15  2  0
 15 16  1  0
 16 17  2  0
 17 18  1  0
 13 19  2  0
 19 20  1  0
 20 21  2  0
 20 22  1  0
 22 23  2  0
 23 24  1  0
 24 25  2  0
 25 26  1  0
 26 27  2  0
 27 28  1  0
 28 29  1  0
  9 30  2  0
 30 31  1  0
 31  6  2  0
 29 11  2  0
 18 14  1  0
 29 19  1  0
 27 22  1  0
  1 32  1  0
  1 33  1  0
  1 34  1  0
  3 35  1  0
  3 36  1  0
  3 37  1  0
  4 38  1  0
  4 39  1  0
  4 40  1  0
  7 41  1  0
  8 42  1  0
 10 43  1  0
 10 44  1  0
 12 45  1  0
 15 46  1  0
 16 47  1  0
 17 48  1  0
 23 49  1  0
 24 50  1  0
 25 51  1  0
 26 52  1  0
 30 53  1  0
 31 54  1  0
M  END
$$$$
