


 32 34  0  0  0  0  0  0  0  0999 V2000
    0.2545   64.1713   80.4149 N   0  0  0  0  0  0  0  0  0  0  0  0
    0.2777   65.5464   80.4090 C   0  0  0  0  0  0  0  0  0  0  0  0
   -0.0962   66.3024   79.5216 O   0  0  0  0  0  0  0  0  0  0  0  0
    0.6066   63.7189   81.2520 H   0  0  0  0  0  0  0  0  0  0  0  0
    0.8402   66.1099   81.6818 C   0  0  0  0  0  0  0  0  0  0  0  0
    1.4714   67.3455   81.6793 C   0  0  0  0  0  0  0  0  0  0  0  0
    1.9742   67.8230   82.8831 C   0  0  0  0  0  0  0  0  0  0  0  0
    1.8326   67.0540   84.0359 C   0  0  0  0  0  0  0  0  0  0  0  0
    1.1927   65.8156   83.9588 C   0  0  0  0  0  0  0  0  0  0  0  0
    0.6809   65.3356   82.7954 N   0  0  0  0  0  0  0  0  0  0  0  0
    1.0073   64.9740   85.2054 C   0  0  0  0  0  0  0  0  0  0  0  0
    0.3856   63.7359   84.8589 O   0  0  0  0  0  0  0  0  0  0  0  0
   -0.6697   63.3343   85.6304 C   0  0  0  0  0  0  0  0  0  0  0  0
   -1.8150   62.6752   85.1807 C   0  0  0  0  0  0  0  0  0  0  0  0
   -2.8218   62.3223   86.0851 C   0  0  0  0  0  0  0  0  0  0  0  0
   -2.6886   62.6248   87.4391 C   0  0  0  0  0  0  0  0  0  0  0  0
   -1.5471   63.2804   87.8929 C   0  0  0  0  0  0  0  0  0  0  0  0
   -0.5425   63.6322   86.9900 C   0  0  0  0  0  0  0  0  0  0  0  0
   -1.6072   61.9906   78.3584 C   0  0  0  0  0  0  0  0  0  0  0  0
   -0.5261   61.9357   77.4960 C   0  0  0  0  0  0  0  0  0  0  0  0
    0.7549   62.9076   78.0835 S   0  0  0  0  0  0  0  0  0  0  0  0
   -0.1896   63.3334   79.4313 C   0  0  0  0  0  0  0  0  0  0  0  0
   -1.3899   62.7995   79.4777 N   0  0  0  0  0  0  0  0  0  0  0  0
   -3.5113   61.3657   76.7886 C   0  0  0  0  0  0  0  0  0  0  0  0
   -2.9580   61.2983   78.2264 C   0  0  0  0  0  0  0  0  0  0  0  0
   -3.9888   61.9660   79.1585 C   0  0  0  0  0  0  0  0  0  0  0  0
   -2.8044   59.8140   78.6259 C   0  0  0  0  0  0  0  0  0  0  0  0
   -2.0730   59.0136   78.0391 O   0  0  0  0  0  0  0  0  0  0  0  0
   -3.5761   59.4104   79.6989 N   0  0  0  0  0  0  0  0  0  0  0  0
   -3.3153   58.0911   80.1495 O   0  0  0  0  0  0  0  0  0  0  0  0
   -3.7661   60.1014   80.4280 H   0  0  0  0  0  0  0  0  0  0  0  0
   -2.6491   57.7753   79.4998 H   0  0  0  0  0  0  0  0  0  0  0  0
 24 25  1  0  0  0
 25 26  1  0  0  0
 25 27  1  0  0  0
 27 28  2  0  0  0
 27 29  1  0  0  0
 29 30  1  0  0  0
 25 19  1  0  0  0
 19 20  2  0  0  0
 20 21  1  0  0  0
 21 22  1  0  0  0
 22  1  1  0  0  0
  1  2  1  0  0  0
  2  3  2  0  0  0
  2  5  1  0  0  0
  5  6  1  0  0  0
  6  7  2  0  0  0
  7  8  1  0  0  0
  8  9  2  0  0  0
  9 11  1  0  0  0
 11 12  1  0  0  0
 12 13  1  0  0  0
 13 14  2  0  0  0
 14 15  1  0  0  0
 15 16  2  0  0  0
 16 17  1  0  0  0
 17 18  2  0  0  0
  9 10  1  0  0  0
 22 23  2  0  0  0
 23 19  1  0  0  0
 10  5  2  0  0  0
 18 13  1  0  0  0
 29 31  1  0  0  0
 30 32  1  0  0  0
  1  4  1  0  0  0
M  END
> <minimizedAffinity>
-10.48742

$$$$



 32 34  0  0  0  0  0  0  0  0999 V2000
    0.0925   63.3042   80.6029 N   0  0  0  0  0  0  0  0  0  0  0  0
   -0.0477   64.6370   80.9118 C   0  0  0  0  0  0  0  0  0  0  0  0
   -0.4180   65.5453   80.1792 O   0  0  0  0  0  0  0  0  0  0  0  0
    0.4103   62.6994   81.3530 H   0  0  0  0  0  0  0  0  0  0  0  0
    0.3134   64.9297   82.3394 C   0  0  0  0  0  0  0  0  0  0  0  0
   -0.1432   64.1055   83.3580 C   0  0  0  0  0  0  0  0  0  0  0  0
    0.2194   64.4190   84.6620 C   0  0  0  0  0  0  0  0  0  0  0  0
    1.0157   65.5369   84.8999 C   0  0  0  0  0  0  0  0  0  0  0  0
    1.4301   66.3242   83.8240 C   0  0  0  0  0  0  0  0  0  0  0  0
    1.0994   66.0283   82.5398 N   0  0  0  0  0  0  0  0  0  0  0  0
    2.3162   67.5309   84.0586 C   0  0  0  0  0  0  0  0  0  0  0  0
    3.6781   67.1804   83.8097 O   0  0  0  0  0  0  0  0  0  0  0  0
    4.4090   66.7349   84.8761 C   0  0  0  0  0  0  0  0  0  0  0  0
    4.7485   65.4080   85.1454 C   0  0  0  0  0  0  0  0  0  0  0  0
    5.5043   65.0937   86.2795 C   0  0  0  0  0  0  0  0  0  0  0  0
    5.9238   66.1012   87.1465 C   0  0  0  0  0  0  0  0  0  0  0  0
    5.5894   67.4265   86.8811 C   0  0  0  0  0  0  0  0  0  0  0  0
    4.8353   67.7396   85.7492 C   0  0  0  0  0  0  0  0  0  0  0  0
   -1.1298   61.2956   77.9720 C   0  0  0  0  0  0  0  0  0  0  0  0
   -0.2076   61.8945   77.1316 C   0  0  0  0  0  0  0  0  0  0  0  0
    0.7179   63.0510   77.9900 S   0  0  0  0  0  0  0  0  0  0  0  0
   -0.1478   62.6882   79.4073 C   0  0  0  0  0  0  0  0  0  0  0  0
   -1.0743   61.7634   79.2882 N   0  0  0  0  0  0  0  0  0  0  0  0
   -1.5107   58.8832   77.2541 C   0  0  0  0  0  0  0  0  0  0  0  0
   -2.1629   60.2277   77.6343 C   0  0  0  0  0  0  0  0  0  0  0  0
   -3.0269   60.6848   76.4420 C   0  0  0  0  0  0  0  0  0  0  0  0
   -3.0747   60.0034   78.8608 C   0  0  0  0  0  0  0  0  0  0  0  0
   -4.1584   60.5673   79.0275 O   0  0  0  0  0  0  0  0  0  0  0  0
   -2.5830   59.1243   79.8069 N   0  0  0  0  0  0  0  0  0  0  0  0
   -3.4916   58.8120   80.8503 O   0  0  0  0  0  0  0  0  0  0  0  0
   -2.0032   58.3508   79.4740 H   0  0  0  0  0  0  0  0  0  0  0  0
   -4.2606   59.3853   80.6373 H   0  0  0  0  0  0  0  0  0  0  0  0
 24 25  1  0  0  0
 25 26  1  0  0  0
 25 27  1  0  0  0
 27 28  2  0  0  0
 27 29  1  0  0  0
 29 30  1  0  0  0
 25 19  1  0  0  0
 19 20  2  0  0  0
 20 21  1  0  0  0
 21 22  1  0  0  0
 22  1  1  0  0  0
  1  2  1  0  0  0
  2  3  2  0  0  0
  2  5  1  0  0  0
  5  6  1  0  0  0
  6  7  2  0  0  0
  7  8  1  0  0  0
  8  9  2  0  0  0
  9 11  1  0  0  0
 11 12  1  0  0  0
 12 13  1  0  0  0
 13 14  2  0  0  0
 14 15  1  0  0  0
 15 16  2  0  0  0
 16 17  1  0  0  0
 17 18  2  0  0  0
  9 10  1  0  0  0
 22 23  2  0  0  0
 23 19  1  0  0  0
 10  5  2  0  0  0
 18 13  1  0  0  0
 29 31  1  0  0  0
 30 32  1  0  0  0
  1  4  1  0  0  0
M  END
> <minimizedAffinity>
-10.04400

$$$$



 32 34  0  0  0  0  0  0  0  0999 V2000
   -1.3400   62.0243   83.0762 N   0  0  0  0  0  0  0  0  0  0  0  0
   -1.8288   62.1222   84.3580 C   0  0  0  0  0  0  0  0  0  0  0  0
   -2.8680   61.6550   84.8058 O   0  0  0  0  0  0  0  0  0  0  0  0
   -0.4507   62.4789   82.8977 H   0  0  0  0  0  0  0  0  0  0  0  0
   -0.9172   62.9095   85.2542 C   0  0  0  0  0  0  0  0  0  0  0  0
   -0.8128   62.5879   86.6000 C   0  0  0  0  0  0  0  0  0  0  0  0
    0.0450   63.3464   87.3866 C   0  0  0  0  0  0  0  0  0  0  0  0
    0.7593   64.3921   86.8064 C   0  0  0  0  0  0  0  0  0  0  0  0
    0.5957   64.6615   85.4464 C   0  0  0  0  0  0  0  0  0  0  0  0
   -0.2266   63.9240   84.6553 N   0  0  0  0  0  0  0  0  0  0  0  0
    1.3810   65.7794   84.7905 C   0  0  0  0  0  0  0  0  0  0  0  0
    2.6661   65.2954   84.3982 O   0  0  0  0  0  0  0  0  0  0  0  0
    3.7545   65.9922   84.8453 C   0  0  0  0  0  0  0  0  0  0  0  0
    4.1939   67.2284   84.3688 C   0  0  0  0  0  0  0  0  0  0  0  0
    5.3297   67.8294   84.9209 C   0  0  0  0  0  0  0  0  0  0  0  0
    6.0290   67.2000   85.9492 C   0  0  0  0  0  0  0  0  0  0  0  0
    5.5935   65.9678   86.4294 C   0  0  0  0  0  0  0  0  0  0  0  0
    4.4598   65.3684   85.8782 C   0  0  0  0  0  0  0  0  0  0  0  0
   -2.4106   61.0048   79.8723 C   0  0  0  0  0  0  0  0  0  0  0  0
   -3.0675   59.9418   80.4672 C   0  0  0  0  0  0  0  0  0  0  0  0
   -2.8427   59.9767   82.1641 S   0  0  0  0  0  0  0  0  0  0  0  0
   -1.9028   61.3845   82.0081 C   0  0  0  0  0  0  0  0  0  0  0  0
   -1.7480   61.8336   80.7824 N   0  0  0  0  0  0  0  0  0  0  0  0
   -1.3688   62.5332   78.1233 C   0  0  0  0  0  0  0  0  0  0  0  0
   -2.3279   61.3561   78.3920 C   0  0  0  0  0  0  0  0  0  0  0  0
   -3.7205   61.7544   77.8635 C   0  0  0  0  0  0  0  0  0  0  0  0
   -1.8256   60.1229   77.6090 C   0  0  0  0  0  0  0  0  0  0  0  0
   -2.5570   59.3738   76.9579 O   0  0  0  0  0  0  0  0  0  0  0  0
   -0.4681   59.8810   77.6998 N   0  0  0  0  0  0  0  0  0  0  0  0
    0.0029   58.8401   76.8593 O   0  0  0  0  0  0  0  0  0  0  0  0
    0.1488   60.6907   77.7954 H   0  0  0  0  0  0  0  0  0  0  0  0
   -0.8268   58.5097   76.4495 H   0  0  0  0  0  0  0  0  0  0  0  0
 24 25  1  0  0  0
 25 26  1  0  0  0
 25 27  1  0  0  0
 27 28  2  0  0  0
 27 29  1  0  0  0
 29 30  1  0  0  0
 25 19  1  0  0  0
 19 20  2  0  0  0
 20 21  1  0  0  0
 21 22  1  0  0  0
 22  1  1  0  0  0
  1  2  1  0  0  0
  2  3  2  0  0  0
  2  5  1  0  0  0
  5  6  1  0  0  0
  6  7  2  0  0  0
  7  8  1  0  0  0
  8  9  2  0  0  0
  9 11  1  0  0  0
 11 12  1  0  0  0
 12 13  1  0  0  0
 13 14  2  0  0  0
 14 15  1  0  0  0
 15 16  2  0  0  0
 16 17  1  0  0  0
 17 18  2  0  0  0
  9 10  1  0  0  0
 22 23  2  0  0  0
 23 19  1  0  0  0
 10  5  2  0  0  0
 18 13  1  0  0  0
 29 31  1  0  0  0
 30 32  1  0  0  0
  1  4  1  0  0  0
M  END
> <minimizedAffinity>
-9.98542

$$$$



 32 34  0  0  0  0  0  0  0  0999 V2000
    1.4355   65.8118   82.6636 N   0  0  0  0  0  0  0  0  0  0  0  0
    1.1062   65.7290   81.3309 C   0  0  0  0  0  0  0  0  0  0  0  0
    1.5357   66.4053   80.4052 O   0  0  0  0  0  0  0  0  0  0  0  0
    0.9722   65.1555   83.2833 H   0  0  0  0  0  0  0  0  0  0  0  0
    0.0947   64.6525   81.0622 C   0  0  0  0  0  0  0  0  0  0  0  0
   -0.0464   64.1303   79.7844 C   0  0  0  0  0  0  0  0  0  0  0  0
   -0.9960   63.1354   79.5882 C   0  0  0  0  0  0  0  0  0  0  0  0
   -1.7663   62.7038   80.6655 C   0  0  0  0  0  0  0  0  0  0  0  0
   -1.5732   63.2828   81.9212 C   0  0  0  0  0  0  0  0  0  0  0  0
   -0.6408   64.2467   82.1390 N   0  0  0  0  0  0  0  0  0  0  0  0
   -2.3841   62.8113   83.1113 C   0  0  0  0  0  0  0  0  0  0  0  0
   -1.5433   62.0787   84.0035 O   0  0  0  0  0  0  0  0  0  0  0  0
   -1.4264   62.5570   85.2792 C   0  0  0  0  0  0  0  0  0  0  0  0
   -0.2781   63.1078   85.8504 C   0  0  0  0  0  0  0  0  0  0  0  0
   -0.3004   63.5590   87.1741 C   0  0  0  0  0  0  0  0  0  0  0  0
   -1.4672   63.4629   87.9304 C   0  0  0  0  0  0  0  0  0  0  0  0
   -2.6159   62.9161   87.3644 C   0  0  0  0  0  0  0  0  0  0  0  0
   -2.5932   62.4661   86.0434 C   0  0  0  0  0  0  0  0  0  0  0  0
    4.0844   67.2915   84.4648 C   0  0  0  0  0  0  0  0  0  0  0  0
    3.5851   68.5334   84.1127 C   0  0  0  0  0  0  0  0  0  0  0  0
    2.1805   68.3596   83.1495 S   0  0  0  0  0  0  0  0  0  0  0  0
    2.3165   66.6688   83.2605 C   0  0  0  0  0  0  0  0  0  0  0  0
    3.3311   66.2238   83.9679 N   0  0  0  0  0  0  0  0  0  0  0  0
    5.5309   67.9813   86.4427 C   0  0  0  0  0  0  0  0  0  0  0  0
    5.3193   66.9705   85.2976 C   0  0  0  0  0  0  0  0  0  0  0  0
    6.5789   66.9965   84.4089 C   0  0  0  0  0  0  0  0  0  0  0  0
    5.1623   65.5603   85.9082 C   0  0  0  0  0  0  0  0  0  0  0  0
    5.8100   64.5756   85.5465 O   0  0  0  0  0  0  0  0  0  0  0  0
    4.2063   65.4515   86.9001 N   0  0  0  0  0  0  0  0  0  0  0  0
    4.1764   64.1936   87.5548 O   0  0  0  0  0  0  0  0  0  0  0  0
    4.0511   66.2680   87.4955 H   0  0  0  0  0  0  0  0  0  0  0  0
    4.8523   63.6822   87.0576 H   0  0  0  0  0  0  0  0  0  0  0  0
 24 25  1  0  0  0
 25 26  1  0  0  0
 25 27  1  0  0  0
 27 28  2  0  0  0
 27 29  1  0  0  0
 29 30  1  0  0  0
 25 19  1  0  0  0
 19 20  2  0  0  0
 20 21  1  0  0  0
 21 22  1  0  0  0
 22  1  1  0  0  0
  1  2  1  0  0  0
  2  3  2  0  0  0
  2  5  1  0  0  0
  5  6  1  0  0  0
  6  7  2  0  0  0
  7  8  1  0  0  0
  8  9  2  0  0  0
  9 11  1  0  0  0
 11 12  1  0  0  0
 12 13  1  0  0  0
 13 14  2  0  0  0
 14 15  1  0  0  0
 15 16  2  0  0  0
 16 17  1  0  0  0
 17 18  2  0  0  0
  9 10  1  0  0  0
 22 23  2  0  0  0
 23 19  1  0  0  0
 10  5  2  0  0  0
 18 13  1  0  0  0
 29 31  1  0  0  0
 30 32  1  0  0  0
  1  4  1  0  0  0
M  END
> <minimizedAffinity>
-9.95004

$$$$



 32 34  0  0  0  0  0  0  0  0999 V2000
   -1.4341   61.9089   83.2914 N   0  0  0  0  0  0  0  0  0  0  0  0
   -1.9889   62.0360   84.5434 C   0  0  0  0  0  0  0  0  0  0  0  0
   -3.0759   61.6276   84.9308 O   0  0  0  0  0  0  0  0  0  0  0  0
   -0.5124   62.3135   83.1643 H   0  0  0  0  0  0  0  0  0  0  0  0
   -1.0878   62.7737   85.4910 C   0  0  0  0  0  0  0  0  0  0  0  0
   -1.2386   62.6182   86.8615 C   0  0  0  0  0  0  0  0  0  0  0  0
   -0.3792   63.3222   87.6957 C   0  0  0  0  0  0  0  0  0  0  0  0
    0.5896   64.1517   87.1358 C   0  0  0  0  0  0  0  0  0  0  0  0
    0.6754   64.2641   85.7469 C   0  0  0  0  0  0  0  0  0  0  0  0
   -0.1449   63.5742   84.9120 N   0  0  0  0  0  0  0  0  0  0  0  0
    1.7374   65.1427   85.1169 C   0  0  0  0  0  0  0  0  0  0  0  0
    1.1369   66.3413   84.6247 O   0  0  0  0  0  0  0  0  0  0  0  0
    1.4156   66.6892   83.3319 C   0  0  0  0  0  0  0  0  0  0  0  0
    2.0720   67.8480   82.9140 C   0  0  0  0  0  0  0  0  0  0  0  0
    2.2905   68.0778   81.5518 C   0  0  0  0  0  0  0  0  0  0  0  0
    1.8561   67.1528   80.6040 C   0  0  0  0  0  0  0  0  0  0  0  0
    1.2027   65.9944   81.0160 C   0  0  0  0  0  0  0  0  0  0  0  0
    0.9850   65.7655   82.3755 C   0  0  0  0  0  0  0  0  0  0  0  0
   -2.4428   60.9912   80.0370 C   0  0  0  0  0  0  0  0  0  0  0  0
   -3.0834   59.8922   80.5821 C   0  0  0  0  0  0  0  0  0  0  0  0
   -2.8801   59.8663   82.2818 S   0  0  0  0  0  0  0  0  0  0  0  0
   -1.9695   61.2989   82.1923 C   0  0  0  0  0  0  0  0  0  0  0  0
   -1.8098   61.7983   80.9868 N   0  0  0  0  0  0  0  0  0  0  0  0
   -1.3849   62.5845   78.3569 C   0  0  0  0  0  0  0  0  0  0  0  0
   -2.3498   61.4012   78.5725 C   0  0  0  0  0  0  0  0  0  0  0  0
   -3.7377   61.8256   78.0521 C   0  0  0  0  0  0  0  0  0  0  0  0
   -1.8470   60.1985   77.7437 C   0  0  0  0  0  0  0  0  0  0  0  0
   -2.5838   59.4444   77.1047 O   0  0  0  0  0  0  0  0  0  0  0  0
   -0.4812   59.9905   77.7772 N   0  0  0  0  0  0  0  0  0  0  0  0
   -0.0169   58.9804   76.8964 O   0  0  0  0  0  0  0  0  0  0  0  0
    0.1180   60.8140   77.8670 H   0  0  0  0  0  0  0  0  0  0  0  0
   -0.8532   58.6370   76.5115 H   0  0  0  0  0  0  0  0  0  0  0  0
 24 25  1  0  0  0
 25 26  1  0  0  0
 25 27  1  0  0  0
 27 28  2  0  0  0
 27 29  1  0  0  0
 29 30  1  0  0  0
 25 19  1  0  0  0
 19 20  2  0  0  0
 20 21  1  0  0  0
 21 22  1  0  0  0
 22  1  1  0  0  0
  1  2  1  0  0  0
  2  3  2  0  0  0
  2  5  1  0  0  0
  5  6  1  0  0  0
  6  7  2  0  0  0
  7  8  1  0  0  0
  8  9  2  0  0  0
  9 11  1  0  0  0
 11 12  1  0  0  0
 12 13  1  0  0  0
 13 14  2  0  0  0
 14 15  1  0  0  0
 15 16  2  0  0  0
 16 17  1  0  0  0
 17 18  2  0  0  0
  9 10  1  0  0  0
 22 23  2  0  0  0
 23 19  1  0  0  0
 10  5  2  0  0  0
 18 13  1  0  0  0
 29 31  1  0  0  0
 30 32  1  0  0  0
  1  4  1  0  0  0
M  END
> <minimizedAffinity>
-9.84739

$$$$



 32 34  0  0  0  0  0  0  0  0999 V2000
   -0.1024   64.5507   80.5148 N   0  0  0  0  0  0  0  0  0  0  0  0
    0.0653   65.0903   81.7686 C   0  0  0  0  0  0  0  0  0  0  0  0
   -0.1140   64.5491   82.8520 O   0  0  0  0  0  0  0  0  0  0  0  0
    0.1030   65.1612   79.7309 H   0  0  0  0  0  0  0  0  0  0  0  0
    0.5292   66.5172   81.7148 C   0  0  0  0  0  0  0  0  0  0  0  0
   -0.0143   67.3934   80.7863 C   0  0  0  0  0  0  0  0  0  0  0  0
    0.4484   68.7034   80.7778 C   0  0  0  0  0  0  0  0  0  0  0  0
    1.4313   69.0869   81.6872 C   0  0  0  0  0  0  0  0  0  0  0  0
    1.9368   68.1464   82.5867 C   0  0  0  0  0  0  0  0  0  0  0  0
    1.4890   66.8641   82.6222 N   0  0  0  0  0  0  0  0  0  0  0  0
    2.9894   68.5489   83.5998 C   0  0  0  0  0  0  0  0  0  0  0  0
    3.0510   67.5721   84.6398 O   0  0  0  0  0  0  0  0  0  0  0  0
    4.2428   66.9242   84.8126 C   0  0  0  0  0  0  0  0  0  0  0  0
    4.4199   65.6648   85.3878 C   0  0  0  0  0  0  0  0  0  0  0  0
    5.7031   65.1202   85.5025 C   0  0  0  0  0  0  0  0  0  0  0  0
    6.8117   65.8294   85.0435 C   0  0  0  0  0  0  0  0  0  0  0  0
    6.6400   67.0852   84.4672 C   0  0  0  0  0  0  0  0  0  0  0  0
    5.3593   67.6281   84.3528 C   0  0  0  0  0  0  0  0  0  0  0  0
   -1.8770   61.5321   80.0795 C   0  0  0  0  0  0  0  0  0  0  0  0
   -0.7780   61.0219   79.4106 C   0  0  0  0  0  0  0  0  0  0  0  0
    0.4706   62.1909   79.3376 S   0  0  0  0  0  0  0  0  0  0  0  0
   -0.5093   63.2873   80.1905 C   0  0  0  0  0  0  0  0  0  0  0  0
   -1.6990   62.8433   80.5303 N   0  0  0  0  0  0  0  0  0  0  0  0
   -4.3851   61.8504   80.3768 C   0  0  0  0  0  0  0  0  0  0  0  0
   -3.2103   60.8517   80.3639 C   0  0  0  0  0  0  0  0  0  0  0  0
   -3.1680   60.1579   81.7401 C   0  0  0  0  0  0  0  0  0  0  0  0
   -3.4774   59.7912   79.2729 C   0  0  0  0  0  0  0  0  0  0  0  0
   -3.3476   58.5772   79.4440 O   0  0  0  0  0  0  0  0  0  0  0  0
   -3.8598   60.2944   78.0440 N   0  0  0  0  0  0  0  0  0  0  0  0
   -4.2465   59.3106   77.0983 O   0  0  0  0  0  0  0  0  0  0  0  0
   -4.4076   61.1576   78.0389 H   0  0  0  0  0  0  0  0  0  0  0  0
   -4.0753   58.4738   77.5843 H   0  0  0  0  0  0  0  0  0  0  0  0
 24 25  1  0  0  0
 25 26  1  0  0  0
 25 27  1  0  0  0
 27 28  2  0  0  0
 27 29  1  0  0  0
 29 30  1  0  0  0
 25 19  1  0  0  0
 19 20  2  0  0  0
 20 21  1  0  0  0
 21 22  1  0  0  0
 22  1  1  0  0  0
  1  2  1  0  0  0
  2  3  2  0  0  0
  2  5  1  0  0  0
  5  6  1  0  0  0
  6  7  2  0  0  0
  7  8  1  0  0  0
  8  9  2  0  0  0
  9 11  1  0  0  0
 11 12  1  0  0  0
 12 13  1  0  0  0
 13 14  2  0  0  0
 14 15  1  0  0  0
 15 16  2  0  0  0
 16 17  1  0  0  0
 17 18  2  0  0  0
  9 10  1  0  0  0
 22 23  2  0  0  0
 23 19  1  0  0  0
 10  5  2  0  0  0
 18 13  1  0  0  0
 29 31  1  0  0  0
 30 32  1  0  0  0
  1  4  1  0  0  0
M  END
> <minimizedAffinity>
-9.67509

$$$$



 32 34  0  0  0  0  0  0  0  0999 V2000
    0.9804   64.9869   84.8228 N   0  0  0  0  0  0  0  0  0  0  0  0
    0.6894   64.2983   85.9772 C   0  0  0  0  0  0  0  0  0  0  0  0
    1.3246   64.2793   87.0236 O   0  0  0  0  0  0  0  0  0  0  0  0
    0.3242   64.8785   84.0566 H   0  0  0  0  0  0  0  0  0  0  0  0
   -0.5774   63.5014   85.8585 C   0  0  0  0  0  0  0  0  0  0  0  0
   -1.4153   63.3548   86.9548 C   0  0  0  0  0  0  0  0  0  0  0  0
   -2.5758   62.6085   86.7929 C   0  0  0  0  0  0  0  0  0  0  0  0
   -2.8538   62.0375   85.5532 C   0  0  0  0  0  0  0  0  0  0  0  0
   -1.9584   62.2217   84.4980 C   0  0  0  0  0  0  0  0  0  0  0  0
   -0.8250   62.9593   84.6298 N   0  0  0  0  0  0  0  0  0  0  0  0
   -2.2536   61.6289   83.1349 C   0  0  0  0  0  0  0  0  0  0  0  0
   -1.7832   62.5127   82.1165 O   0  0  0  0  0  0  0  0  0  0  0  0
   -2.2596   62.3103   80.8508 C   0  0  0  0  0  0  0  0  0  0  0  0
   -1.5725   62.5615   79.6620 C   0  0  0  0  0  0  0  0  0  0  0  0
   -2.1852   62.3074   78.4306 C   0  0  0  0  0  0  0  0  0  0  0  0
   -3.4831   61.8019   78.3819 C   0  0  0  0  0  0  0  0  0  0  0  0
   -4.1720   61.5478   79.5650 C   0  0  0  0  0  0  0  0  0  0  0  0
   -3.5601   61.8013   80.7935 C   0  0  0  0  0  0  0  0  0  0  0  0
    4.1119   66.6126   84.7916 C   0  0  0  0  0  0  0  0  0  0  0  0
    3.6210   67.4662   83.8190 C   0  0  0  0  0  0  0  0  0  0  0  0
    1.9995   67.0684   83.4403 S   0  0  0  0  0  0  0  0  0  0  0  0
    2.0459   65.8065   84.5783 C   0  0  0  0  0  0  0  0  0  0  0  0
    3.1818   65.6629   85.2241 N   0  0  0  0  0  0  0  0  0  0  0  0
    5.9107   67.9655   85.9808 C   0  0  0  0  0  0  0  0  0  0  0  0
    5.5016   66.5903   85.4159 C   0  0  0  0  0  0  0  0  0  0  0  0
    6.5499   66.1849   84.3605 C   0  0  0  0  0  0  0  0  0  0  0  0
    5.5203   65.5599   86.5665 C   0  0  0  0  0  0  0  0  0  0  0  0
    5.6295   64.3430   86.4015 O   0  0  0  0  0  0  0  0  0  0  0  0
    5.3787   66.0908   87.8345 N   0  0  0  0  0  0  0  0  0  0  0  0
    5.5479   65.1559   88.8876 O   0  0  0  0  0  0  0  0  0  0  0  0
    5.7639   67.0233   87.9998 H   0  0  0  0  0  0  0  0  0  0  0  0
    5.6748   64.3119   88.4005 H   0  0  0  0  0  0  0  0  0  0  0  0
 24 25  1  0  0  0
 25 26  1  0  0  0
 25 27  1  0  0  0
 27 28  2  0  0  0
 27 29  1  0  0  0
 29 30  1  0  0  0
 25 19  1  0  0  0
 19 20  2  0  0  0
 20 21  1  0  0  0
 21 22  1  0  0  0
 22  1  1  0  0  0
  1  2  1  0  0  0
  2  3  2  0  0  0
  2  5  1  0  0  0
  5  6  1  0  0  0
  6  7  2  0  0  0
  7  8  1  0  0  0
  8  9  2  0  0  0
  9 11  1  0  0  0
 11 12  1  0  0  0
 12 13  1  0  0  0
 13 14  2  0  0  0
 14 15  1  0  0  0
 15 16  2  0  0  0
 16 17  1  0  0  0
 17 18  2  0  0  0
  9 10  1  0  0  0
 22 23  2  0  0  0
 23 19  1  0  0  0
 10  5  2  0  0  0
 18 13  1  0  0  0
 29 31  1  0  0  0
 30 32  1  0  0  0
  1  4  1  0  0  0
M  END
> <minimizedAffinity>
-9.59584

$$$$



 32 34  0  0  0  0  0  0  0  0999 V2000
    0.3443   64.3814   81.1038 N   0  0  0  0  0  0  0  0  0  0  0  0
    0.3401   65.5013   80.3055 C   0  0  0  0  0  0  0  0  0  0  0  0
   -0.2174   65.6555   79.2266 O   0  0  0  0  0  0  0  0  0  0  0  0
    0.8648   64.4495   81.9719 H   0  0  0  0  0  0  0  0  0  0  0  0
    1.1349   66.6265   80.9025 C   0  0  0  0  0  0  0  0  0  0  0  0
    1.6142   67.6480   80.0949 C   0  0  0  0  0  0  0  0  0  0  0  0
    2.3435   68.6662   80.6959 C   0  0  0  0  0  0  0  0  0  0  0  0
    2.5688   68.6263   82.0700 C   0  0  0  0  0  0  0  0  0  0  0  0
    2.0618   67.5610   82.8165 C   0  0  0  0  0  0  0  0  0  0  0  0
    1.3340   66.5622   82.2520 N   0  0  0  0  0  0  0  0  0  0  0  0
    2.2753   67.5106   84.3159 C   0  0  0  0  0  0  0  0  0  0  0  0
    3.5554   68.0569   84.6358 O   0  0  0  0  0  0  0  0  0  0  0  0
    4.5834   67.1710   84.8047 C   0  0  0  0  0  0  0  0  0  0  0  0
    4.4890   65.8974   85.3682 C   0  0  0  0  0  0  0  0  0  0  0  0
    5.6282   65.0938   85.4802 C   0  0  0  0  0  0  0  0  0  0  0  0
    6.8631   65.5577   85.0302 C   0  0  0  0  0  0  0  0  0  0  0  0
    6.9620   66.8265   84.4655 C   0  0  0  0  0  0  0  0  0  0  0  0
    5.8248   67.6280   84.3538 C   0  0  0  0  0  0  0  0  0  0  0  0
   -1.5477   61.6963   79.8150 C   0  0  0  0  0  0  0  0  0  0  0  0
   -1.1316   60.9311   80.8906 C   0  0  0  0  0  0  0  0  0  0  0  0
   -0.1014   61.8443   81.9083 S   0  0  0  0  0  0  0  0  0  0  0  0
   -0.2715   63.1834   80.8750 C   0  0  0  0  0  0  0  0  0  0  0  0
   -1.0449   63.0006   79.8279 N   0  0  0  0  0  0  0  0  0  0  0  0
   -1.7935   61.5273   77.2869 C   0  0  0  0  0  0  0  0  0  0  0  0
   -2.4540   61.2894   78.6598 C   0  0  0  0  0  0  0  0  0  0  0  0
   -3.7618   62.1051   78.6998 C   0  0  0  0  0  0  0  0  0  0  0  0
   -2.7925   59.7878   78.7899 C   0  0  0  0  0  0  0  0  0  0  0  0
   -2.1528   58.8864   78.2437 O   0  0  0  0  0  0  0  0  0  0  0  0
   -3.9042   59.4995   79.5584 N   0  0  0  0  0  0  0  0  0  0  0  0
   -4.1159   58.1169   79.7937 O   0  0  0  0  0  0  0  0  0  0  0  0
   -4.1076   60.1218   80.3436 H   0  0  0  0  0  0  0  0  0  0  0  0
   -3.3982   57.7020   79.2660 H   0  0  0  0  0  0  0  0  0  0  0  0
 24 25  1  0  0  0
 25 26  1  0  0  0
 25 27  1  0  0  0
 27 28  2  0  0  0
 27 29  1  0  0  0
 29 30  1  0  0  0
 25 19  1  0  0  0
 19 20  2  0  0  0
 20 21  1  0  0  0
 21 22  1  0  0  0
 22  1  1  0  0  0
  1  2  1  0  0  0
  2  3  2  0  0  0
  2  5  1  0  0  0
  5  6  1  0  0  0
  6  7  2  0  0  0
  7  8  1  0  0  0
  8  9  2  0  0  0
  9 11  1  0  0  0
 11 12  1  0  0  0
 12 13  1  0  0  0
 13 14  2  0  0  0
 14 15  1  0  0  0
 15 16  2  0  0  0
 16 17  1  0  0  0
 17 18  2  0  0  0
  9 10  1  0  0  0
 22 23  2  0  0  0
 23 19  1  0  0  0
 10  5  2  0  0  0
 18 13  1  0  0  0
 29 31  1  0  0  0
 30 32  1  0  0  0
  1  4  1  0  0  0
M  END
> <minimizedAffinity>
-9.52585

$$$$



 32 34  0  0  0  0  0  0  0  0999 V2000
    0.0068   63.2806   80.8602 N   0  0  0  0  0  0  0  0  0  0  0  0
   -0.0599   62.6001   82.0535 C   0  0  0  0  0  0  0  0  0  0  0  0
   -0.3366   61.4214   82.2342 O   0  0  0  0  0  0  0  0  0  0  0  0
    0.2598   64.2616   80.9150 H   0  0  0  0  0  0  0  0  0  0  0  0
    0.2626   63.4795   83.2269 C   0  0  0  0  0  0  0  0  0  0  0  0
   -0.1271   63.1080   84.5057 C   0  0  0  0  0  0  0  0  0  0  0  0
    0.1961   63.9559   85.5576 C   0  0  0  0  0  0  0  0  0  0  0  0
    0.8883   65.1361   85.2962 C   0  0  0  0  0  0  0  0  0  0  0  0
    1.2397   65.4471   83.9814 C   0  0  0  0  0  0  0  0  0  0  0  0
    0.9465   64.6260   82.9394 N   0  0  0  0  0  0  0  0  0  0  0  0
    2.0135   66.7143   83.6782 C   0  0  0  0  0  0  0  0  0  0  0  0
    1.9916   66.9638   82.2722 O   0  0  0  0  0  0  0  0  0  0  0  0
    1.3583   68.1012   81.8537 C   0  0  0  0  0  0  0  0  0  0  0  0
    1.5100   69.3768   82.3997 C   0  0  0  0  0  0  0  0  0  0  0  0
    0.7953   70.4561   81.8699 C   0  0  0  0  0  0  0  0  0  0  0  0
   -0.0709   70.2660   80.7946 C   0  0  0  0  0  0  0  0  0  0  0  0
   -0.2241   68.9959   80.2452 C   0  0  0  0  0  0  0  0  0  0  0  0
    0.4895   67.9193   80.7742 C   0  0  0  0  0  0  0  0  0  0  0  0
   -1.2902   61.7020   77.9833 C   0  0  0  0  0  0  0  0  0  0  0  0
   -0.2021   62.1783   77.2729 C   0  0  0  0  0  0  0  0  0  0  0  0
    0.8244   63.0901   78.2955 S   0  0  0  0  0  0  0  0  0  0  0  0
   -0.2220   62.7976   79.6027 C   0  0  0  0  0  0  0  0  0  0  0  0
   -1.2797   62.0650   79.3333 N   0  0  0  0  0  0  0  0  0  0  0  0
   -2.0102   59.8026   76.4490 C   0  0  0  0  0  0  0  0  0  0  0  0
   -2.4562   60.8625   77.4764 C   0  0  0  0  0  0  0  0  0  0  0  0
   -3.5029   61.7665   76.7948 C   0  0  0  0  0  0  0  0  0  0  0  0
   -3.1156   60.1417   78.6730 C   0  0  0  0  0  0  0  0  0  0  0  0
   -4.1432   60.5308   79.2320 O   0  0  0  0  0  0  0  0  0  0  0  0
   -2.4559   59.0107   79.1150 N   0  0  0  0  0  0  0  0  0  0  0  0
   -3.1479   58.2760   80.1116 O   0  0  0  0  0  0  0  0  0  0  0  0
   -1.9559   58.4549   78.4176 H   0  0  0  0  0  0  0  0  0  0  0  0
   -3.9401   58.8348   80.2720 H   0  0  0  0  0  0  0  0  0  0  0  0
 24 25  1  0  0  0
 25 26  1  0  0  0
 25 27  1  0  0  0
 27 28  2  0  0  0
 27 29  1  0  0  0
 29 30  1  0  0  0
 25 19  1  0  0  0
 19 20  2  0  0  0
 20 21  1  0  0  0
 21 22  1  0  0  0
 22  1  1  0  0  0
  1  2  1  0  0  0
  2  3  2  0  0  0
  2  5  1  0  0  0
  5  6  1  0  0  0
  6  7  2  0  0  0
  7  8  1  0  0  0
  8  9  2  0  0  0
  9 11  1  0  0  0
 11 12  1  0  0  0
 12 13  1  0  0  0
 13 14  2  0  0  0
 14 15  1  0  0  0
 15 16  2  0  0  0
 16 17  1  0  0  0
 17 18  2  0  0  0
  9 10  1  0  0  0
 22 23  2  0  0  0
 23 19  1  0  0  0
 10  5  2  0  0  0
 18 13  1  0  0  0
 29 31  1  0  0  0
 30 32  1  0  0  0
  1  4  1  0  0  0
M  END
> <minimizedAffinity>
-9.49151

$$$$
