


 37 43  0  0  0  0  0  0  0  0999 V2000
    0.8066   61.1926   82.2558 O   0  0  0  0  0  0  0  0  0  0  0  0
    0.2477   61.9665   81.4755 C   0  0  0  0  0  0  0  0  0  0  0  0
    0.2427   63.3284   81.7314 N   0  0  0  0  0  0  0  0  0  0  0  0
   -0.0488   64.3957   80.7709 C   0  0  0  0  0  0  0  0  0  0  0  0
    0.5228   65.6164   81.4036 C   0  0  0  0  0  0  0  0  0  0  0  0
    1.0506   65.3284   82.6479 C   0  0  0  0  0  0  0  0  0  0  0  0
    1.6573   66.2281   83.4430 N   0  0  0  0  0  0  0  0  0  0  0  0
    1.7261   67.4914   82.9873 C   0  0  0  0  0  0  0  0  0  0  0  0
    2.3407   68.4343   83.7982 C   0  0  0  0  0  0  0  0  0  0  0  0
    2.4690   69.7703   83.4142 C   0  0  0  0  0  0  0  0  0  0  0  0
    1.9745   70.1834   82.1857 C   0  0  0  0  0  0  0  0  0  0  0  0
    1.3496   69.2606   81.3465 C   0  0  0  0  0  0  0  0  0  0  0  0
    1.2069   67.9032   81.7280 C   0  0  0  0  0  0  0  0  0  0  0  0
    0.5865   66.9094   80.9372 C   0  0  0  0  0  0  0  0  0  0  0  0
    0.0297   67.1394   79.7114 O   0  0  0  0  0  0  0  0  0  0  0  0
    0.8586   63.8520   82.9601 C   0  0  0  0  0  0  0  0  0  0  0  0
   -0.0019   68.0921   79.5376 H   0  0  0  0  0  0  0  0  0  0  0  0
   -0.4023   61.4634   80.2748 C   0  0  0  0  0  0  0  0  0  0  0  0
    0.1025   61.3359   78.9907 C   0  0  0  0  0  0  0  0  0  0  0  0
   -0.9214   60.7721   78.1887 C   0  0  0  0  0  0  0  0  0  0  0  0
   -1.0547   60.4016   76.8387 C   0  0  0  0  0  0  0  0  0  0  0  0
   -2.2721   59.8530   76.4077 C   0  0  0  0  0  0  0  0  0  0  0  0
   -3.3257   59.6799   77.3058 C   0  0  0  0  0  0  0  0  0  0  0  0
   -4.5152   59.1465   76.8959 O   0  0  0  0  0  0  0  0  0  0  0  0
   -3.2200   60.0370   78.6492 C   0  0  0  0  0  0  0  0  0  0  0  0
   -1.9995   60.5778   79.0419 C   0  0  0  0  0  0  0  0  0  0  0  0
   -1.6863   60.9884   80.3000 O   0  0  0  0  0  0  0  0  0  0  0  0
   -4.4546   58.9329   75.9503 H   0  0  0  0  0  0  0  0  0  0  0  0
   -0.0110   63.5984   84.1837 C   0  0  0  0  0  0  0  0  0  0  0  0
   -1.3316   63.0982   84.0630 C   0  0  0  0  0  0  0  0  0  0  0  0
   -2.1245   62.8658   85.1905 C   0  0  0  0  0  0  0  0  0  0  0  0
   -1.5770   63.1245   86.4277 C   0  0  0  0  0  0  0  0  0  0  0  0
   -0.2889   63.6121   86.5708 C   0  0  0  0  0  0  0  0  0  0  0  0
    0.5070   63.8601   85.4657 C   0  0  0  0  0  0  0  0  0  0  0  0
   -0.0144   63.8494   88.0046 C   0  0  0  0  0  0  0  0  0  0  0  0
   -1.1825   63.0655   88.6045 C   0  0  0  0  0  0  0  0  0  0  0  0
   -2.2345   62.9478   87.6176 O   0  0  0  0  0  0  0  0  0  0  0  0
  1  2  2  0  0  0
  2 18  1  0  0  0
 18 19  2  0  0  0
 19 20  1  0  0  0
 20 21  2  0  0  0
 21 22  1  0  0  0
 22 23  2  0  0  0
 23 24  1  0  0  0
 23 25  1  0  0  0
 25 26  2  0  0  0
 26 27  1  0  0  0
  2  3  1  0  0  0
  3  4  1  0  0  0
  4  5  1  0  0  0
  5  6  1  0  0  0
  6  7  2  0  0  0
  7  8  1  0  0  0
  8  9  2  0  0  0
  9 10  1  0  0  0
 10 11  2  0  0  0
 11 12  1  0  0  0
 12 13  2  0  0  0
 13 14  1  0  0  0
 14 15  1  0  0  0
  6 16  1  0  0  0
 16 29  1  0  0  0
 29 30  1  0  0  0
 30 31  2  0  0  0
 31 32  1  0  0  0
 32 33  2  0  0  0
 33 34  1  0  0  0
 33 35  1  0  0  0
 35 36  1  0  0  0
 36 37  1  0  0  0
 27 18  1  0  0  0
 16  3  1  0  0  0
 34 29  2  0  0  0
 26 20  1  0  0  0
 14  5  2  0  0  0
 37 32  1  0  0  0
 13  8  1  0  0  0
 24 28  1  0  0  0
 15 17  1  0  0  0
M  END
> <minimizedAffinity>
-13.72327

$$$$



 37 43  0  0  0  0  0  0  0  0999 V2000
    0.6065   67.3735   81.9246 O   0  0  0  0  0  0  0  0  0  0  0  0
    0.4888   66.1496   81.8314 C   0  0  0  0  0  0  0  0  0  0  0  0
    0.6198   65.3511   82.9562 N   0  0  0  0  0  0  0  0  0  0  0  0
    0.1736   63.9627   83.0975 C   0  0  0  0  0  0  0  0  0  0  0  0
    0.1239   63.7479   84.5701 C   0  0  0  0  0  0  0  0  0  0  0  0
    0.5560   64.8712   85.2494 C   0  0  0  0  0  0  0  0  0  0  0  0
    0.5967   64.9802   86.5896 N   0  0  0  0  0  0  0  0  0  0  0  0
    0.2064   63.9058   87.2978 C   0  0  0  0  0  0  0  0  0  0  0  0
    0.2502   63.9977   88.6812 C   0  0  0  0  0  0  0  0  0  0  0  0
   -0.1398   62.9413   89.5062 C   0  0  0  0  0  0  0  0  0  0  0  0
   -0.5903   61.7573   88.9410 C   0  0  0  0  0  0  0  0  0  0  0  0
   -0.6457   61.6314   87.5526 C   0  0  0  0  0  0  0  0  0  0  0  0
   -0.2459   62.6940   86.7045 C   0  0  0  0  0  0  0  0  0  0  0  0
   -0.2707   62.6448   85.2921 C   0  0  0  0  0  0  0  0  0  0  0  0
   -0.6670   61.5568   84.5678 O   0  0  0  0  0  0  0  0  0  0  0  0
    0.9508   65.9539   84.2564 C   0  0  0  0  0  0  0  0  0  0  0  0
   -0.7866   60.7958   85.1556 H   0  0  0  0  0  0  0  0  0  0  0  0
    0.2013   65.5309   80.5462 C   0  0  0  0  0  0  0  0  0  0  0  0
   -0.3662   66.0871   79.4110 C   0  0  0  0  0  0  0  0  0  0  0  0
   -0.4089   65.0739   78.4206 C   0  0  0  0  0  0  0  0  0  0  0  0
   -0.8539   64.9843   77.0896 C   0  0  0  0  0  0  0  0  0  0  0  0
   -0.7178   63.7616   76.4147 C   0  0  0  0  0  0  0  0  0  0  0  0
   -0.1501   62.6604   77.0563 C   0  0  0  0  0  0  0  0  0  0  0  0
   -0.0132   61.4655   76.4077 O   0  0  0  0  0  0  0  0  0  0  0  0
    0.3005   62.7222   78.3740 C   0  0  0  0  0  0  0  0  0  0  0  0
    0.1500   63.9492   79.0129 C   0  0  0  0  0  0  0  0  0  0  0  0
    0.5232   64.2246   80.2913 O   0  0  0  0  0  0  0  0  0  0  0  0
   -0.3526   61.5586   75.5024 H   0  0  0  0  0  0  0  0  0  0  0  0
    2.4184   66.3496   84.3416 C   0  0  0  0  0  0  0  0  0  0  0  0
    2.8742   67.6086   83.8770 C   0  0  0  0  0  0  0  0  0  0  0  0
    4.2229   67.9667   83.9596 C   0  0  0  0  0  0  0  0  0  0  0  0
    5.0966   67.0621   84.5214 C   0  0  0  0  0  0  0  0  0  0  0  0
    4.6746   65.8268   84.9834 C   0  0  0  0  0  0  0  0  0  0  0  0
    3.3454   65.4494   84.8990 C   0  0  0  0  0  0  0  0  0  0  0  0
    5.8447   65.0614   85.4655 C   0  0  0  0  0  0  0  0  0  0  0  0
    6.8603   66.2020   85.5446 C   0  0  0  0  0  0  0  0  0  0  0  0
    6.4433   67.2735   84.6656 O   0  0  0  0  0  0  0  0  0  0  0  0
  1  2  2  0  0  0
  2 18  1  0  0  0
 18 19  2  0  0  0
 19 20  1  0  0  0
 20 21  2  0  0  0
 21 22  1  0  0  0
 22 23  2  0  0  0
 23 24  1  0  0  0
 23 25  1  0  0  0
 25 26  2  0  0  0
 26 27  1  0  0  0
  2  3  1  0  0  0
  3  4  1  0  0  0
  4  5  1  0  0  0
  5  6  1  0  0  0
  6  7  2  0  0  0
  7  8  1  0  0  0
  8  9  2  0  0  0
  9 10  1  0  0  0
 10 11  2  0  0  0
 11 12  1  0  0  0
 12 13  2  0  0  0
 13 14  1  0  0  0
 14 15  1  0  0  0
  6 16  1  0  0  0
 16 29  1  0  0  0
 29 30  1  0  0  0
 30 31  2  0  0  0
 31 32  1  0  0  0
 32 33  2  0  0  0
 33 34  1  0  0  0
 33 35  1  0  0  0
 35 36  1  0  0  0
 36 37  1  0  0  0
 27 18  1  0  0  0
 16  3  1  0  0  0
 34 29  2  0  0  0
 26 20  1  0  0  0
 14  5  2  0  0  0
 37 32  1  0  0  0
 13  8  1  0  0  0
 24 28  1  0  0  0
 15 17  1  0  0  0
M  END
> <minimizedAffinity>
-12.38122

$$$$



 37 43  0  0  0  0  0  0  0  0999 V2000
    1.1825   65.2318   83.7976 O   0  0  0  0  0  0  0  0  0  0  0  0
    2.0536   66.1041   83.7735 C   0  0  0  0  0  0  0  0  0  0  0  0
    1.8842   67.2344   82.9900 N   0  0  0  0  0  0  0  0  0  0  0  0
    2.6198   68.4960   83.1076 C   0  0  0  0  0  0  0  0  0  0  0  0
    1.7655   69.4802   82.3873 C   0  0  0  0  0  0  0  0  0  0  0  0
    0.6575   68.8646   81.8366 C   0  0  0  0  0  0  0  0  0  0  0  0
   -0.3055   69.5058   81.1501 N   0  0  0  0  0  0  0  0  0  0  0  0
   -0.1506   70.8309   80.9816 C   0  0  0  0  0  0  0  0  0  0  0  0
   -1.1300   71.5067   80.2686 C   0  0  0  0  0  0  0  0  0  0  0  0
   -1.0657   72.8830   80.0442 C   0  0  0  0  0  0  0  0  0  0  0  0
    0.0024   73.6125   80.5455 C   0  0  0  0  0  0  0  0  0  0  0  0
    1.0052   72.9633   81.2661 C   0  0  0  0  0  0  0  0  0  0  0  0
    0.9549   71.5656   81.4945 C   0  0  0  0  0  0  0  0  0  0  0  0
    1.9297   70.8351   82.2116 C   0  0  0  0  0  0  0  0  0  0  0  0
    3.0536   71.3851   82.7591 O   0  0  0  0  0  0  0  0  0  0  0  0
    0.6892   67.3752   82.1441 C   0  0  0  0  0  0  0  0  0  0  0  0
    3.1490   72.3027   82.4626 H   0  0  0  0  0  0  0  0  0  0  0  0
    3.2616   65.9640   84.5726 C   0  0  0  0  0  0  0  0  0  0  0  0
    4.5678   66.3019   84.2566 C   0  0  0  0  0  0  0  0  0  0  0  0
    5.3693   65.9880   85.3828 C   0  0  0  0  0  0  0  0  0  0  0  0
    6.7351   66.0802   85.7044 C   0  0  0  0  0  0  0  0  0  0  0  0
    7.1591   65.6534   86.9721 C   0  0  0  0  0  0  0  0  0  0  0  0
    6.2386   65.1494   87.8916 C   0  0  0  0  0  0  0  0  0  0  0  0
    6.6415   64.7312   89.1286 O   0  0  0  0  0  0  0  0  0  0  0  0
    4.8793   65.0484   87.5994 C   0  0  0  0  0  0  0  0  0  0  0  0
    4.4942   65.4803   86.3339 C   0  0  0  0  0  0  0  0  0  0  0  0
    3.2235   65.4707   85.8493 O   0  0  0  0  0  0  0  0  0  0  0  0
    7.6004   64.8633   89.2082 H   0  0  0  0  0  0  0  0  0  0  0  0
    0.7676   66.5002   80.9007 C   0  0  0  0  0  0  0  0  0  0  0  0
    1.7350   66.7326   79.8914 C   0  0  0  0  0  0  0  0  0  0  0  0
    1.8030   65.9245   78.7528 C   0  0  0  0  0  0  0  0  0  0  0  0
    0.9079   64.8828   78.6475 C   0  0  0  0  0  0  0  0  0  0  0  0
   -0.0450   64.6353   79.6211 C   0  0  0  0  0  0  0  0  0  0  0  0
   -0.1358   65.4320   80.7496 C   0  0  0  0  0  0  0  0  0  0  0  0
   -0.8935   63.5013   79.1951 C   0  0  0  0  0  0  0  0  0  0  0  0
   -0.0178   62.9590   78.0647 C   0  0  0  0  0  0  0  0  0  0  0  0
    0.8541   64.0123   77.5899 O   0  0  0  0  0  0  0  0  0  0  0  0
  1  2  2  0  0  0
  2 18  1  0  0  0
 18 19  2  0  0  0
 19 20  1  0  0  0
 20 21  2  0  0  0
 21 22  1  0  0  0
 22 23  2  0  0  0
 23 24  1  0  0  0
 23 25  1  0  0  0
 25 26  2  0  0  0
 26 27  1  0  0  0
  2  3  1  0  0  0
  3  4  1  0  0  0
  4  5  1  0  0  0
  5  6  1  0  0  0
  6  7  2  0  0  0
  7  8  1  0  0  0
  8  9  2  0  0  0
  9 10  1  0  0  0
 10 11  2  0  0  0
 11 12  1  0  0  0
 12 13  2  0  0  0
 13 14  1  0  0  0
 14 15  1  0  0  0
  6 16  1  0  0  0
 16 29  1  0  0  0
 29 30  1  0  0  0
 30 31  2  0  0  0
 31 32  1  0  0  0
 32 33  2  0  0  0
 33 34  1  0  0  0
 33 35  1  0  0  0
 35 36  1  0  0  0
 36 37  1  0  0  0
 27 18  1  0  0  0
 16  3  1  0  0  0
 34 29  2  0  0  0
 26 20  1  0  0  0
 14  5  2  0  0  0
 37 32  1  0  0  0
 13  8  1  0  0  0
 24 28  1  0  0  0
 15 17  1  0  0  0
M  END
> <minimizedAffinity>
-10.98878

$$$$
