
     RDKit          3D

 34 39  0  0  0  0  0  0  0  0999 V2000
   -0.6877   67.6290   79.9823 C   0  0  0  0  0  0  0  0  0  0  0  0
   -0.2314   66.4980   80.8748 C   0  0  0  0  0  0  0  0  0  0  0  0
   -0.8638   65.3796   80.7175 N   0  0  0  0  0  0  0  0  0  0  0  0
   -0.4997   64.3120   81.4933 N   0  0  0  0  0  0  0  0  0  0  0  0
    0.5039   64.3492   82.4483 C   0  0  0  0  0  0  0  0  0  0  0  0
    0.8158   63.3762   83.1370 O   0  0  0  0  0  0  0  0  0  0  0  0
    1.2196   65.6674   82.6203 C   0  0  0  0  0  0  0  0  0  0  0  0
    2.2173   65.7013   83.5916 N   0  0  0  0  0  0  0  0  0  0  0  0
    2.8802   66.8095   83.7951 C   0  0  0  0  0  0  0  0  0  0  0  0
    2.5660   67.9294   82.9978 N   0  0  0  0  0  0  0  0  0  0  0  0
    3.2331   69.0963   83.0834 N   0  0  0  0  0  0  0  0  0  0  0  0
    2.6592   69.9010   82.1778 C   0  0  0  0  0  0  0  0  0  0  0  0
    1.6228   69.2083   81.4923 C   0  0  0  0  0  0  0  0  0  0  0  0
    1.5871   67.9382   82.0255 C   0  0  0  0  0  0  0  0  0  0  0  0
    0.8733   66.7187   81.8490 C   0  0  0  0  0  0  0  0  0  0  0  0
    3.9294   66.7945   84.8549 C   0  0  0  0  0  0  0  0  0  0  0  0
    4.4016   67.9432   85.4924 C   0  0  0  0  0  0  0  0  0  0  0  0
    5.3801   67.8309   86.4801 C   0  0  0  0  0  0  0  0  0  0  0  0
    5.8495   66.5691   86.8054 C   0  0  0  0  0  0  0  0  0  0  0  0
    5.4067   65.4354   86.2236 N   0  0  0  0  0  0  0  0  0  0  0  0
    4.4507   65.5720   85.2695 C   0  0  0  0  0  0  0  0  0  0  0  0
    3.1121   71.2836   81.9844 C   0  0  0  0  0  0  0  0  0  0  0  0
    3.8271   71.6408   80.8301 C   0  0  0  0  0  0  0  0  0  0  0  0
    4.2608   72.9545   80.6328 C   0  0  0  0  0  0  0  0  0  0  0  0
    3.9872   73.9290   81.5888 C   0  0  0  0  0  0  0  0  0  0  0  0
    3.2820   73.5911   82.7415 C   0  0  0  0  0  0  0  0  0  0  0  0
    2.8469   72.2766   82.9393 C   0  0  0  0  0  0  0  0  0  0  0  0
   -1.1855   63.0515   81.2234 C   0  0  0  0  0  0  0  0  0  0  0  0
   -1.0433   62.6250   79.7801 C   0  0  0  0  0  0  0  0  0  0  0  0
   -2.1749   62.2942   79.0207 C   0  0  0  0  0  0  0  0  0  0  0  0
   -2.0447   61.9155   77.6836 C   0  0  0  0  0  0  0  0  0  0  0  0
   -0.7842   61.8714   77.0905 C   0  0  0  0  0  0  0  0  0  0  0  0
    0.3464   62.2109   77.8315 C   0  0  0  0  0  0  0  0  0  0  0  0
    0.2181   62.5892   79.1688 C   0  0  0  0  0  0  0  0  0  0  0  0
  1  2  1  0
  2  3  2  0
  3  4  1  0
  4 28  1  0
 28 29  1  0
 29 30  2  0
 30 31  1  0
 31 32  2  0
 32 33  1  0
 33 34  2  0
  4  5  1  0
  5  6  2  0
  5  7  1  0
  7  8  1  0
  8  9  2  0
  9 16  1  0
 16 17  2  0
 17 18  1  0
 18 19  2  0
 19 20  1  0
 20 21  2  0
  9 10  1  0
 10 11  1  0
 11 12  2  0
 12 22  1  0
 22 23  2  0
 23 24  1  0
 24 25  2  0
 25 26  1  0
 26 27  2  0
 12 13  1  0
 13 14  2  0
 14 15  1  0
 15  2  1  0
 34 29  1  0
 15  7  2  0
 21 16  1  0
 14 10  1  0
 27 22  1  0
M  END
>  <minimizedAffinity>  (1) 
-10.65327

$$$$
