


 33 37  0  0  0  0  0  0  0  0999 V2000
   -0.0825   63.5164   83.5031 C   0  0  0  0  0  0  0  0  0  0  0  0
    0.9909   64.3114   83.3012 N   0  0  0  0  0  0  0  0  0  0  0  0
    1.3254   64.7573   84.5332 N   0  0  0  0  0  0  0  0  0  0  0  0
    0.4880   64.3188   85.5194 C   0  0  0  0  0  0  0  0  0  0  0  0
    0.5586   64.6233   86.8328 N   0  0  0  0  0  0  0  0  0  0  0  0
   -0.4062   64.0190   87.5664 C   0  0  0  0  0  0  0  0  0  0  0  0
   -1.3833   63.1751   87.0633 C   0  0  0  0  0  0  0  0  0  0  0  0
   -2.2925   62.6303   87.8819 F   0  0  0  0  0  0  0  0  0  0  0  0
   -1.4211   62.8941   85.7021 C   0  0  0  0  0  0  0  0  0  0  0  0
   -0.4399   63.4955   84.8916 C   0  0  0  0  0  0  0  0  0  0  0  0
   -2.6237   60.7006   79.3579 C   0  0  0  0  0  0  0  0  0  0  0  0
   -3.8895   61.3896   78.8524 C   0  0  0  0  0  0  0  0  0  0  0  0
   -2.9643   59.5158   80.3041 C   0  0  0  0  0  0  0  0  0  0  0  0
   -3.6073   58.5132   80.0423 O   0  0  0  0  0  0  0  0  0  0  0  0
   -2.4295   59.7871   81.5545 N   0  0  0  0  0  0  0  0  0  0  0  0
   -1.8256   61.0251   81.5839 C   0  0  0  0  0  0  0  0  0  0  0  0
   -1.2525   61.5742   82.6512 N   0  0  0  0  0  0  0  0  0  0  0  0
   -0.7468   62.8047   82.3976 C   0  0  0  0  0  0  0  0  0  0  0  0
   -0.8063   63.4342   81.1836 N   0  0  0  0  0  0  0  0  0  0  0  0
   -1.4065   62.8259   80.1206 N   0  0  0  0  0  0  0  0  0  0  0  0
   -1.9147   61.6129   80.3442 C   0  0  0  0  0  0  0  0  0  0  0  0
   -2.5207   59.1789   82.3532 H   0  0  0  0  0  0  0  0  0  0  0  0
   -1.6146   60.3076   78.2576 C   0  0  0  0  0  0  0  0  0  0  0  0
   -0.8689   62.1055   76.5703 C   0  0  0  0  0  0  0  0  0  0  0  0
   -1.5578   61.0156   76.9268 C   0  0  0  0  0  0  0  0  0  0  0  0
    2.4638   65.6483   84.7017 C   0  0  0  0  0  0  0  0  0  0  0  0
    2.2939   66.9201   83.9152 C   0  0  0  0  0  0  0  0  0  0  0  0
    1.4451   66.9763   82.7984 C   0  0  0  0  0  0  0  0  0  0  0  0
    1.3029   68.1630   82.0749 C   0  0  0  0  0  0  0  0  0  0  0  0
    2.0036   69.3063   82.4586 C   0  0  0  0  0  0  0  0  0  0  0  0
    2.8462   69.2628   83.5674 C   0  0  0  0  0  0  0  0  0  0  0  0
    2.9840   68.0770   84.2838 C   0  0  0  0  0  0  0  0  0  0  0  0
    3.7902   68.0637   85.3544 F   0  0  0  0  0  0  0  0  0  0  0  0
 24 25  2  0  0  0
 25 23  1  0  0  0
 23 11  1  0  0  0
 11 12  1  0  0  0
 11 13  1  0  0  0
 13 14  2  0  0  0
 13 15  1  0  0  0
 15 16  1  0  0  0
 16 17  1  0  0  0
 17 18  2  0  0  0
 18  1  1  0  0  0
  1  2  2  0  0  0
  2  3  1  0  0  0
  3 26  1  0  0  0
 26 27  1  0  0  0
 27 28  2  0  0  0
 28 29  1  0  0  0
 29 30  2  0  0  0
 30 31  1  0  0  0
 31 32  2  0  0  0
 32 33  1  0  0  0
  3  4  1  0  0  0
  4  5  1  0  0  0
  5  6  2  0  0  0
  6  7  1  0  0  0
  7  8  1  0  0  0
  7  9  2  0  0  0
  9 10  1  0  0  0
 18 19  1  0  0  0
 19 20  2  0  0  0
 20 21  1  0  0  0
 21 11  1  0  0  0
 21 16  2  0  0  0
 10  1  1  0  0  0
 32 27  1  0  0  0
 10  4  2  0  0  0
 15 22  1  0  0  0
M  END
> <minimizedAffinity>
-11.10935

$$$$



 33 37  0  0  0  0  0  0  0  0999 V2000
    0.1175   64.2000   82.5309 C   0  0  0  0  0  0  0  0  0  0  0  0
    0.5483   63.8120   83.7510 N   0  0  0  0  0  0  0  0  0  0  0  0
    1.1491   64.9076   84.2681 N   0  0  0  0  0  0  0  0  0  0  0  0
    1.1631   65.9763   83.4174 C   0  0  0  0  0  0  0  0  0  0  0  0
    1.7158   67.1859   83.6500 N   0  0  0  0  0  0  0  0  0  0  0  0
    1.5517   68.0475   82.6179 C   0  0  0  0  0  0  0  0  0  0  0  0
    0.8978   67.7587   81.4309 C   0  0  0  0  0  0  0  0  0  0  0  0
    0.7939   68.6890   80.4732 F   0  0  0  0  0  0  0  0  0  0  0  0
    0.3486   66.4969   81.2326 C   0  0  0  0  0  0  0  0  0  0  0  0
    0.4891   65.5609   82.2745 C   0  0  0  0  0  0  0  0  0  0  0  0
   -2.5985   60.7119   79.0630 C   0  0  0  0  0  0  0  0  0  0  0  0
   -3.3207   59.5815   79.7932 C   0  0  0  0  0  0  0  0  0  0  0  0
   -1.2655   60.2183   78.4349 C   0  0  0  0  0  0  0  0  0  0  0  0
   -1.1147   59.3508   77.5911 O   0  0  0  0  0  0  0  0  0  0  0  0
   -0.2211   60.9202   79.0178 N   0  0  0  0  0  0  0  0  0  0  0  0
   -0.6769   61.7777   79.9951 C   0  0  0  0  0  0  0  0  0  0  0  0
    0.0910   62.5588   80.7496 N   0  0  0  0  0  0  0  0  0  0  0  0
   -0.6221   63.2913   81.6380 C   0  0  0  0  0  0  0  0  0  0  0  0
   -1.9845   63.2495   81.7634 N   0  0  0  0  0  0  0  0  0  0  0  0
   -2.7254   62.4296   80.9639 N   0  0  0  0  0  0  0  0  0  0  0  0
   -2.0466   61.6957   80.0806 C   0  0  0  0  0  0  0  0  0  0  0  0
    0.7511   60.7791   78.7922 H   0  0  0  0  0  0  0  0  0  0  0  0
   -3.4697   61.4979   78.0598 C   0  0  0  0  0  0  0  0  0  0  0  0
   -2.1556   63.2825   76.7469 C   0  0  0  0  0  0  0  0  0  0  0  0
   -2.8881   62.1669   76.8394 C   0  0  0  0  0  0  0  0  0  0  0  0
    1.7338   64.8580   85.5999 C   0  0  0  0  0  0  0  0  0  0  0  0
    0.8301   64.1548   86.5765 C   0  0  0  0  0  0  0  0  0  0  0  0
   -0.5303   63.9547   86.2938 C   0  0  0  0  0  0  0  0  0  0  0  0
   -1.3577   63.3054   87.2136 C   0  0  0  0  0  0  0  0  0  0  0  0
   -0.8368   62.8471   88.4235 C   0  0  0  0  0  0  0  0  0  0  0  0
    0.5127   63.0373   88.7131 C   0  0  0  0  0  0  0  0  0  0  0  0
    1.3318   63.6855   87.7926 C   0  0  0  0  0  0  0  0  0  0  0  0
    2.6292   63.8449   88.0883 F   0  0  0  0  0  0  0  0  0  0  0  0
 24 25  2  0  0  0
 25 23  1  0  0  0
 23 11  1  0  0  0
 11 12  1  0  0  0
 11 13  1  0  0  0
 13 14  2  0  0  0
 13 15  1  0  0  0
 15 16  1  0  0  0
 16 17  1  0  0  0
 17 18  2  0  0  0
 18  1  1  0  0  0
  1  2  2  0  0  0
  2  3  1  0  0  0
  3 26  1  0  0  0
 26 27  1  0  0  0
 27 28  2  0  0  0
 28 29  1  0  0  0
 29 30  2  0  0  0
 30 31  1  0  0  0
 31 32  2  0  0  0
 32 33  1  0  0  0
  3  4  1  0  0  0
  4  5  1  0  0  0
  5  6  2  0  0  0
  6  7  1  0  0  0
  7  8  1  0  0  0
  7  9  2  0  0  0
  9 10  1  0  0  0
 18 19  1  0  0  0
 19 20  2  0  0  0
 20 21  1  0  0  0
 21 11  1  0  0  0
 21 16  2  0  0  0
 10  1  1  0  0  0
 32 27  1  0  0  0
 10  4  2  0  0  0
 15 22  1  0  0  0
M  END
> <minimizedAffinity>
-11.03685

$$$$



 33 37  0  0  0  0  0  0  0  0999 V2000
    1.9142   67.1420   82.8884 C   0  0  0  0  0  0  0  0  0  0  0  0
    3.1260   66.9934   83.4668 N   0  0  0  0  0  0  0  0  0  0  0  0
    3.6456   68.2413   83.5023 N   0  0  0  0  0  0  0  0  0  0  0  0
    2.8394   69.1857   82.9328 C   0  0  0  0  0  0  0  0  0  0  0  0
    3.1080   70.5020   82.7995 N   0  0  0  0  0  0  0  0  0  0  0  0
    2.1020   71.1876   82.2058 C   0  0  0  0  0  0  0  0  0  0  0  0
    0.9103   70.6362   81.7632 C   0  0  0  0  0  0  0  0  0  0  0  0
   -0.0190   71.4095   81.1871 F   0  0  0  0  0  0  0  0  0  0  0  0
    0.6792   69.2738   81.9162 C   0  0  0  0  0  0  0  0  0  0  0  0
    1.6922   68.5122   82.5287 C   0  0  0  0  0  0  0  0  0  0  0  0
   -1.5430   62.7636   82.2198 C   0  0  0  0  0  0  0  0  0  0  0  0
   -2.9567   63.1722   81.8111 C   0  0  0  0  0  0  0  0  0  0  0  0
   -1.4709   62.4119   83.7318 C   0  0  0  0  0  0  0  0  0  0  0  0
   -2.0762   61.5337   84.3230 O   0  0  0  0  0  0  0  0  0  0  0  0
   -0.5985   63.2981   84.3457 N   0  0  0  0  0  0  0  0  0  0  0  0
   -0.1223   64.2329   83.4527 C   0  0  0  0  0  0  0  0  0  0  0  0
    0.7058   65.2293   83.7536 N   0  0  0  0  0  0  0  0  0  0  0  0
    1.0016   66.0041   82.6828 C   0  0  0  0  0  0  0  0  0  0  0  0
    0.5144   65.8027   81.4196 N   0  0  0  0  0  0  0  0  0  0  0  0
   -0.3331   64.7648   81.1652 N   0  0  0  0  0  0  0  0  0  0  0  0
   -0.6420   63.9867   82.2039 C   0  0  0  0  0  0  0  0  0  0  0  0
   -0.3850   63.2910   85.3308 H   0  0  0  0  0  0  0  0  0  0  0  0
   -0.8969   61.6807   81.3291 C   0  0  0  0  0  0  0  0  0  0  0  0
    1.4571   61.0233   82.1425 C   0  0  0  0  0  0  0  0  0  0  0  0
    0.5979   61.5013   81.2354 C   0  0  0  0  0  0  0  0  0  0  0  0
    4.9632   68.4661   84.0780 C   0  0  0  0  0  0  0  0  0  0  0  0
    5.3629   67.3475   85.0021 C   0  0  0  0  0  0  0  0  0  0  0  0
    5.8747   66.1395   84.5023 C   0  0  0  0  0  0  0  0  0  0  0  0
    6.2354   65.1081   85.3730 C   0  0  0  0  0  0  0  0  0  0  0  0
    6.0916   65.2711   86.7507 C   0  0  0  0  0  0  0  0  0  0  0  0
    5.5878   66.4670   87.2579 C   0  0  0  0  0  0  0  0  0  0  0  0
    5.2296   67.4908   86.3849 C   0  0  0  0  0  0  0  0  0  0  0  0
    4.7597   68.6365   86.8975 F   0  0  0  0  0  0  0  0  0  0  0  0
 24 25  2  0  0  0
 25 23  1  0  0  0
 23 11  1  0  0  0
 11 12  1  0  0  0
 11 13  1  0  0  0
 13 14  2  0  0  0
 13 15  1  0  0  0
 15 16  1  0  0  0
 16 17  1  0  0  0
 17 18  2  0  0  0
 18  1  1  0  0  0
  1  2  2  0  0  0
  2  3  1  0  0  0
  3 26  1  0  0  0
 26 27  1  0  0  0
 27 28  2  0  0  0
 28 29  1  0  0  0
 29 30  2  0  0  0
 30 31  1  0  0  0
 31 32  2  0  0  0
 32 33  1  0  0  0
  3  4  1  0  0  0
  4  5  1  0  0  0
  5  6  2  0  0  0
  6  7  1  0  0  0
  7  8  1  0  0  0
  7  9  2  0  0  0
  9 10  1  0  0  0
 18 19  1  0  0  0
 19 20  2  0  0  0
 20 21  1  0  0  0
 21 11  1  0  0  0
 21 16  2  0  0  0
 10  1  1  0  0  0
 32 27  1  0  0  0
 10  4  2  0  0  0
 15 22  1  0  0  0
M  END
> <minimizedAffinity>
-10.98831

$$$$



 33 37  0  0  0  0  0  0  0  0999 V2000
    0.0969   64.2666   81.3158 C   0  0  0  0  0  0  0  0  0  0  0  0
    0.7293   65.1964   80.5671 N   0  0  0  0  0  0  0  0  0  0  0  0
    1.3557   65.9918   81.4635 N   0  0  0  0  0  0  0  0  0  0  0  0
    1.1211   65.6419   82.7629 C   0  0  0  0  0  0  0  0  0  0  0  0
    1.5882   66.2676   83.8643 N   0  0  0  0  0  0  0  0  0  0  0  0
    1.1952   65.6718   85.0153 C   0  0  0  0  0  0  0  0  0  0  0  0
    0.3962   64.5429   85.0996 C   0  0  0  0  0  0  0  0  0  0  0  0
    0.0666   64.0361   86.2946 F   0  0  0  0  0  0  0  0  0  0  0  0
   -0.0669   63.9346   83.9383 C   0  0  0  0  0  0  0  0  0  0  0  0
    0.3123   64.5122   82.7120 C   0  0  0  0  0  0  0  0  0  0  0  0
   -2.8182   60.0937   78.9368 C   0  0  0  0  0  0  0  0  0  0  0  0
   -3.4051   59.1163   79.9531 C   0  0  0  0  0  0  0  0  0  0  0  0
   -1.5401   59.5149   78.2686 C   0  0  0  0  0  0  0  0  0  0  0  0
   -1.4425   58.4997   77.5999 O   0  0  0  0  0  0  0  0  0  0  0  0
   -0.4716   60.3430   78.5780 N   0  0  0  0  0  0  0  0  0  0  0  0
   -0.8571   61.3681   79.4138 C   0  0  0  0  0  0  0  0  0  0  0  0
   -0.0481   62.3018   79.9066 N   0  0  0  0  0  0  0  0  0  0  0  0
   -0.6932   63.1809   80.7100 C   0  0  0  0  0  0  0  0  0  0  0  0
   -2.0307   63.1340   80.9973 N   0  0  0  0  0  0  0  0  0  0  0  0
   -2.8159   62.1540   80.4652 N   0  0  0  0  0  0  0  0  0  0  0  0
   -2.2044   61.2737   79.6709 C   0  0  0  0  0  0  0  0  0  0  0  0
    0.4759   60.1817   78.2741 H   0  0  0  0  0  0  0  0  0  0  0  0
   -3.8277   60.6430   77.9060 C   0  0  0  0  0  0  0  0  0  0  0  0
   -2.9359   62.5417   76.4111 C   0  0  0  0  0  0  0  0  0  0  0  0
   -3.3896   61.3009   76.6213 C   0  0  0  0  0  0  0  0  0  0  0  0
    2.1565   67.1172   81.0047 C   0  0  0  0  0  0  0  0  0  0  0  0
    1.4239   68.4218   81.1670 C   0  0  0  0  0  0  0  0  0  0  0  0
    0.3050   68.7303   80.3772 C   0  0  0  0  0  0  0  0  0  0  0  0
   -0.3606   69.9484   80.5357 C   0  0  0  0  0  0  0  0  0  0  0  0
    0.0810   70.8705   81.4843 C   0  0  0  0  0  0  0  0  0  0  0  0
    1.1885   70.5734   82.2758 C   0  0  0  0  0  0  0  0  0  0  0  0
    1.8478   69.3580   82.1127 C   0  0  0  0  0  0  0  0  0  0  0  0
    2.9025   69.0897   82.8949 F   0  0  0  0  0  0  0  0  0  0  0  0
 24 25  2  0  0  0
 25 23  1  0  0  0
 23 11  1  0  0  0
 11 12  1  0  0  0
 11 13  1  0  0  0
 13 14  2  0  0  0
 13 15  1  0  0  0
 15 16  1  0  0  0
 16 17  1  0  0  0
 17 18  2  0  0  0
 18  1  1  0  0  0
  1  2  2  0  0  0
  2  3  1  0  0  0
  3 26  1  0  0  0
 26 27  1  0  0  0
 27 28  2  0  0  0
 28 29  1  0  0  0
 29 30  2  0  0  0
 30 31  1  0  0  0
 31 32  2  0  0  0
 32 33  1  0  0  0
  3  4  1  0  0  0
  4  5  1  0  0  0
  5  6  2  0  0  0
  6  7  1  0  0  0
  7  8  1  0  0  0
  7  9  2  0  0  0
  9 10  1  0  0  0
 18 19  1  0  0  0
 19 20  2  0  0  0
 20 21  1  0  0  0
 21 11  1  0  0  0
 21 16  2  0  0  0
 10  1  1  0  0  0
 32 27  1  0  0  0
 10  4  2  0  0  0
 15 22  1  0  0  0
M  END
> <minimizedAffinity>
-10.93721

$$$$



 33 37  0  0  0  0  0  0  0  0999 V2000
   -0.5249   64.2429   81.6551 C   0  0  0  0  0  0  0  0  0  0  0  0
   -1.1901   63.8160   82.7507 N   0  0  0  0  0  0  0  0  0  0  0  0
   -1.5392   62.5410   82.4660 N   0  0  0  0  0  0  0  0  0  0  0  0
   -1.1653   62.1379   81.2155 C   0  0  0  0  0  0  0  0  0  0  0  0
   -1.4031   60.9351   80.6504 N   0  0  0  0  0  0  0  0  0  0  0  0
   -0.8911   60.8294   79.4009 C   0  0  0  0  0  0  0  0  0  0  0  0
   -0.1954   61.8253   78.7345 C   0  0  0  0  0  0  0  0  0  0  0  0
    0.2680   61.6130   77.4961 F   0  0  0  0  0  0  0  0  0  0  0  0
    0.0211   63.0513   79.3537 C   0  0  0  0  0  0  0  0  0  0  0  0
   -0.4892   63.2159   80.6552 C   0  0  0  0  0  0  0  0  0  0  0  0
    1.7539   69.3735   81.4223 C   0  0  0  0  0  0  0  0  0  0  0  0
    2.3232   69.7154   80.0470 C   0  0  0  0  0  0  0  0  0  0  0  0
    2.8792   68.9733   82.4166 C   0  0  0  0  0  0  0  0  0  0  0  0
    3.8212   69.6522   82.7895 O   0  0  0  0  0  0  0  0  0  0  0  0
    2.6631   67.6634   82.8173 N   0  0  0  0  0  0  0  0  0  0  0  0
    1.5732   67.1161   82.1765 C   0  0  0  0  0  0  0  0  0  0  0  0
    1.1388   65.8685   82.3311 N   0  0  0  0  0  0  0  0  0  0  0  0
    0.0527   65.5954   81.5694 C   0  0  0  0  0  0  0  0  0  0  0  0
   -0.5496   66.4894   80.7259 N   0  0  0  0  0  0  0  0  0  0  0  0
   -0.0628   67.7577   80.6043 N   0  0  0  0  0  0  0  0  0  0  0  0
    1.0081   68.0523   81.3432 C   0  0  0  0  0  0  0  0  0  0  0  0
    3.2611   67.1604   83.4541 H   0  0  0  0  0  0  0  0  0  0  0  0
    0.7945   70.4311   82.0093 C   0  0  0  0  0  0  0  0  0  0  0  0
   -1.0291   72.1749   81.4908 C   0  0  0  0  0  0  0  0  0  0  0  0
   -0.1852   71.1936   81.1525 C   0  0  0  0  0  0  0  0  0  0  0  0
   -2.2760   61.7518   83.4419 C   0  0  0  0  0  0  0  0  0  0  0  0
   -1.9567   62.1733   84.8509 C   0  0  0  0  0  0  0  0  0  0  0  0
   -2.9588   62.6457   85.7131 C   0  0  0  0  0  0  0  0  0  0  0  0
   -2.6452   63.0391   87.0165 C   0  0  0  0  0  0  0  0  0  0  0  0
   -1.3300   62.9637   87.4744 C   0  0  0  0  0  0  0  0  0  0  0  0
   -0.3279   62.4933   86.6283 C   0  0  0  0  0  0  0  0  0  0  0  0
   -0.6468   62.1033   85.3303 C   0  0  0  0  0  0  0  0  0  0  0  0
    0.3322   61.6420   84.5398 F   0  0  0  0  0  0  0  0  0  0  0  0
 24 25  2  0  0  0
 25 23  1  0  0  0
 23 11  1  0  0  0
 11 12  1  0  0  0
 11 13  1  0  0  0
 13 14  2  0  0  0
 13 15  1  0  0  0
 15 16  1  0  0  0
 16 17  1  0  0  0
 17 18  2  0  0  0
 18  1  1  0  0  0
  1  2  2  0  0  0
  2  3  1  0  0  0
  3 26  1  0  0  0
 26 27  1  0  0  0
 27 28  2  0  0  0
 28 29  1  0  0  0
 29 30  2  0  0  0
 30 31  1  0  0  0
 31 32  2  0  0  0
 32 33  1  0  0  0
  3  4  1  0  0  0
  4  5  1  0  0  0
  5  6  2  0  0  0
  6  7  1  0  0  0
  7  8  1  0  0  0
  7  9  2  0  0  0
  9 10  1  0  0  0
 18 19  1  0  0  0
 19 20  2  0  0  0
 20 21  1  0  0  0
 21 11  1  0  0  0
 21 16  2  0  0  0
 10  1  1  0  0  0
 32 27  1  0  0  0
 10  4  2  0  0  0
 15 22  1  0  0  0
M  END
> <minimizedAffinity>
-10.90869

$$$$



 33 37  0  0  0  0  0  0  0  0999 V2000
    0.3980   64.5532   82.4992 C   0  0  0  0  0  0  0  0  0  0  0  0
    0.1572   63.5730   81.6013 N   0  0  0  0  0  0  0  0  0  0  0  0
   -0.2240   62.5105   82.3457 N   0  0  0  0  0  0  0  0  0  0  0  0
   -0.1992   62.7481   83.6907 C   0  0  0  0  0  0  0  0  0  0  0  0
   -0.4992   61.8699   84.6712 N   0  0  0  0  0  0  0  0  0  0  0  0
   -0.3978   62.4081   85.9099 C   0  0  0  0  0  0  0  0  0  0  0  0
   -0.0252   63.7136   86.1870 C   0  0  0  0  0  0  0  0  0  0  0  0
    0.0434   64.1423   87.4538 F   0  0  0  0  0  0  0  0  0  0  0  0
    0.2807   64.5819   85.1450 C   0  0  0  0  0  0  0  0  0  0  0  0
    0.1908   64.0748   83.8350 C   0  0  0  0  0  0  0  0  0  0  0  0
    2.0266   69.7315   81.0492 C   0  0  0  0  0  0  0  0  0  0  0  0
    3.1592   69.7396   80.0246 C   0  0  0  0  0  0  0  0  0  0  0  0
    2.5575   70.0195   82.4811 C   0  0  0  0  0  0  0  0  0  0  0  0
    3.1332   71.0193   82.8761 O   0  0  0  0  0  0  0  0  0  0  0  0
    2.2936   68.9140   83.2758 N   0  0  0  0  0  0  0  0  0  0  0  0
    1.7075   67.9015   82.5482 C   0  0  0  0  0  0  0  0  0  0  0  0
    1.3679   66.7087   83.0286 N   0  0  0  0  0  0  0  0  0  0  0  0
    0.8192   65.9036   82.0879 C   0  0  0  0  0  0  0  0  0  0  0  0
    0.6247   66.2571   80.7800 N   0  0  0  0  0  0  0  0  0  0  0  0
    0.9919   67.4943   80.3386 N   0  0  0  0  0  0  0  0  0  0  0  0
    1.5367   68.3069   81.2456 C   0  0  0  0  0  0  0  0  0  0  0  0
    2.5492   68.8421   84.2482 H   0  0  0  0  0  0  0  0  0  0  0  0
    0.8115   70.6098   80.6811 C   0  0  0  0  0  0  0  0  0  0  0  0
   -1.1330   71.9718   81.6807 C   0  0  0  0  0  0  0  0  0  0  0  0
   -0.2663   70.9527   81.6790 C   0  0  0  0  0  0  0  0  0  0  0  0
   -0.5764   61.2557   81.6982 C   0  0  0  0  0  0  0  0  0  0  0  0
   -1.7237   61.4292   80.7399 C   0  0  0  0  0  0  0  0  0  0  0  0
   -3.0346   61.6237   81.2029 C   0  0  0  0  0  0  0  0  0  0  0  0
   -4.0900   61.7770   80.3003 C   0  0  0  0  0  0  0  0  0  0  0  0
   -3.8491   61.7400   78.9270 C   0  0  0  0  0  0  0  0  0  0  0  0
   -2.5515   61.5508   78.4563 C   0  0  0  0  0  0  0  0  0  0  0  0
   -1.5042   61.3981   79.3609 C   0  0  0  0  0  0  0  0  0  0  0  0
   -0.2630   61.2305   78.8838 F   0  0  0  0  0  0  0  0  0  0  0  0
 24 25  2  0  0  0
 25 23  1  0  0  0
 23 11  1  0  0  0
 11 12  1  0  0  0
 11 13  1  0  0  0
 13 14  2  0  0  0
 13 15  1  0  0  0
 15 16  1  0  0  0
 16 17  1  0  0  0
 17 18  2  0  0  0
 18  1  1  0  0  0
  1  2  2  0  0  0
  2  3  1  0  0  0
  3 26  1  0  0  0
 26 27  1  0  0  0
 27 28  2  0  0  0
 28 29  1  0  0  0
 29 30  2  0  0  0
 30 31  1  0  0  0
 31 32  2  0  0  0
 32 33  1  0  0  0
  3  4  1  0  0  0
  4  5  1  0  0  0
  5  6  2  0  0  0
  6  7  1  0  0  0
  7  8  1  0  0  0
  7  9  2  0  0  0
  9 10  1  0  0  0
 18 19  1  0  0  0
 19 20  2  0  0  0
 20 21  1  0  0  0
 21 11  1  0  0  0
 21 16  2  0  0  0
 10  1  1  0  0  0
 32 27  1  0  0  0
 10  4  2  0  0  0
 15 22  1  0  0  0
M  END
> <minimizedAffinity>
-10.81190

$$$$



 33 37  0  0  0  0  0  0  0  0999 V2000
    1.5859   66.8893   82.2763 C   0  0  0  0  0  0  0  0  0  0  0  0
    2.3792   66.6795   83.3495 N   0  0  0  0  0  0  0  0  0  0  0  0
    2.6635   67.9171   83.8143 N   0  0  0  0  0  0  0  0  0  0  0  0
    2.1227   68.9212   83.0624 C   0  0  0  0  0  0  0  0  0  0  0  0
    2.2617   70.2482   83.2682 N   0  0  0  0  0  0  0  0  0  0  0  0
    1.5900   70.9955   82.3600 C   0  0  0  0  0  0  0  0  0  0  0  0
    0.8333   70.4934   81.3134 C   0  0  0  0  0  0  0  0  0  0  0  0
    0.2092   71.3263   80.4706 F   0  0  0  0  0  0  0  0  0  0  0  0
    0.7229   69.1188   81.1364 C   0  0  0  0  0  0  0  0  0  0  0  0
    1.4008   68.2936   82.0534 C   0  0  0  0  0  0  0  0  0  0  0  0
   -0.5027   62.7043   79.1629 C   0  0  0  0  0  0  0  0  0  0  0  0
    0.0571   61.3355   79.5443 C   0  0  0  0  0  0  0  0  0  0  0  0
    0.1762   63.2547   77.8779 C   0  0  0  0  0  0  0  0  0  0  0  0
    0.1776   62.7583   76.7639 O   0  0  0  0  0  0  0  0  0  0  0  0
    0.8327   64.4329   78.2005 N   0  0  0  0  0  0  0  0  0  0  0  0
    0.7302   64.7120   79.5458 C   0  0  0  0  0  0  0  0  0  0  0  0
    1.2828   65.7560   80.1571 N   0  0  0  0  0  0  0  0  0  0  0  0
    1.0285   65.7772   81.4872 C   0  0  0  0  0  0  0  0  0  0  0  0
    0.2861   64.8385   82.1515 N   0  0  0  0  0  0  0  0  0  0  0  0
   -0.2583   63.7862   81.4760 N   0  0  0  0  0  0  0  0  0  0  0  0
   -0.0214   63.7408   80.1639 C   0  0  0  0  0  0  0  0  0  0  0  0
    1.3631   64.9834   77.5435 H   0  0  0  0  0  0  0  0  0  0  0  0
   -2.0432   62.7806   79.0971 C   0  0  0  0  0  0  0  0  0  0  0  0
   -4.2011   61.5204   79.7224 C   0  0  0  0  0  0  0  0  0  0  0  0
   -2.9301   61.8850   79.9257 C   0  0  0  0  0  0  0  0  0  0  0  0
    3.5051   68.0783   84.9907 C   0  0  0  0  0  0  0  0  0  0  0  0
    4.7352   67.2146   84.9151 C   0  0  0  0  0  0  0  0  0  0  0  0
    5.9251   67.6927   84.3440 C   0  0  0  0  0  0  0  0  0  0  0  0
    7.0569   66.8763   84.2757 C   0  0  0  0  0  0  0  0  0  0  0  0
    7.0147   65.5758   84.7779 C   0  0  0  0  0  0  0  0  0  0  0  0
    5.8399   65.0921   85.3498 C   0  0  0  0  0  0  0  0  0  0  0  0
    4.7153   65.9104   85.4144 C   0  0  0  0  0  0  0  0  0  0  0  0
    3.6012   65.4268   85.9811 F   0  0  0  0  0  0  0  0  0  0  0  0
 24 25  2  0  0  0
 25 23  1  0  0  0
 23 11  1  0  0  0
 11 12  1  0  0  0
 11 13  1  0  0  0
 13 14  2  0  0  0
 13 15  1  0  0  0
 15 16  1  0  0  0
 16 17  1  0  0  0
 17 18  2  0  0  0
 18  1  1  0  0  0
  1  2  2  0  0  0
  2  3  1  0  0  0
  3 26  1  0  0  0
 26 27  1  0  0  0
 27 28  2  0  0  0
 28 29  1  0  0  0
 29 30  2  0  0  0
 30 31  1  0  0  0
 31 32  2  0  0  0
 32 33  1  0  0  0
  3  4  1  0  0  0
  4  5  1  0  0  0
  5  6  2  0  0  0
  6  7  1  0  0  0
  7  8  1  0  0  0
  7  9  2  0  0  0
  9 10  1  0  0  0
 18 19  1  0  0  0
 19 20  2  0  0  0
 20 21  1  0  0  0
 21 11  1  0  0  0
 21 16  2  0  0  0
 10  1  1  0  0  0
 32 27  1  0  0  0
 10  4  2  0  0  0
 15 22  1  0  0  0
M  END
> <minimizedAffinity>
-10.60505

$$$$



 33 37  0  0  0  0  0  0  0  0999 V2000
    0.5323   64.9022   82.0457 C   0  0  0  0  0  0  0  0  0  0  0  0
    0.7362   64.3364   83.2554 N   0  0  0  0  0  0  0  0  0  0  0  0
    0.2438   63.0827   83.1362 N   0  0  0  0  0  0  0  0  0  0  0  0
   -0.3090   62.8263   81.9136 C   0  0  0  0  0  0  0  0  0  0  0  0
   -0.8993   61.6778   81.5195 N   0  0  0  0  0  0  0  0  0  0  0  0
   -1.3375   61.7231   80.2388 C   0  0  0  0  0  0  0  0  0  0  0  0
   -1.2177   62.8119   79.3902 C   0  0  0  0  0  0  0  0  0  0  0  0
   -1.6888   62.7479   78.1383 F   0  0  0  0  0  0  0  0  0  0  0  0
   -0.6072   63.9769   79.8412 C   0  0  0  0  0  0  0  0  0  0  0  0
   -0.1316   63.9850   81.1660 C   0  0  0  0  0  0  0  0  0  0  0  0
    2.1645   70.1809   81.0254 C   0  0  0  0  0  0  0  0  0  0  0  0
    3.3536   70.2675   80.0709 C   0  0  0  0  0  0  0  0  0  0  0  0
    2.6083   70.3818   82.5011 C   0  0  0  0  0  0  0  0  0  0  0  0
    3.1457   71.3605   82.9917 O   0  0  0  0  0  0  0  0  0  0  0  0
    2.3157   69.2246   83.2072 N   0  0  0  0  0  0  0  0  0  0  0  0
    1.7873   68.2547   82.3837 C   0  0  0  0  0  0  0  0  0  0  0  0
    1.4384   67.0297   82.7667 N   0  0  0  0  0  0  0  0  0  0  0  0
    0.9563   66.2808   81.7464 C   0  0  0  0  0  0  0  0  0  0  0  0
    0.8318   66.7158   80.4545 N   0  0  0  0  0  0  0  0  0  0  0  0
    1.2053   67.9828   80.1149 N   0  0  0  0  0  0  0  0  0  0  0  0
    1.6853   68.7413   81.1019 C   0  0  0  0  0  0  0  0  0  0  0  0
    2.5164   69.0931   84.1862 H   0  0  0  0  0  0  0  0  0  0  0  0
    0.9597   71.0676   80.6441 C   0  0  0  0  0  0  0  0  0  0  0  0
   -1.1507   72.0214   81.7719 C   0  0  0  0  0  0  0  0  0  0  0  0
   -0.3458   71.0203   81.3982 C   0  0  0  0  0  0  0  0  0  0  0  0
    0.3032   62.1659   84.2650 C   0  0  0  0  0  0  0  0  0  0  0  0
   -0.6877   62.5384   85.3347 C   0  0  0  0  0  0  0  0  0  0  0  0
   -2.0500   62.2252   85.2045 C   0  0  0  0  0  0  0  0  0  0  0  0
   -2.9586   62.5834   86.2037 C   0  0  0  0  0  0  0  0  0  0  0  0
   -2.5181   63.2553   87.3437 C   0  0  0  0  0  0  0  0  0  0  0  0
   -1.1677   63.5683   87.4849 C   0  0  0  0  0  0  0  0  0  0  0  0
   -0.2675   63.2091   86.4854 C   0  0  0  0  0  0  0  0  0  0  0  0
    1.0282   63.5095   86.6502 F   0  0  0  0  0  0  0  0  0  0  0  0
 24 25  2  0  0  0
 25 23  1  0  0  0
 23 11  1  0  0  0
 11 12  1  0  0  0
 11 13  1  0  0  0
 13 14  2  0  0  0
 13 15  1  0  0  0
 15 16  1  0  0  0
 16 17  1  0  0  0
 17 18  2  0  0  0
 18  1  1  0  0  0
  1  2  2  0  0  0
  2  3  1  0  0  0
  3 26  1  0  0  0
 26 27  1  0  0  0
 27 28  2  0  0  0
 28 29  1  0  0  0
 29 30  2  0  0  0
 30 31  1  0  0  0
 31 32  2  0  0  0
 32 33  1  0  0  0
  3  4  1  0  0  0
  4  5  1  0  0  0
  5  6  2  0  0  0
  6  7  1  0  0  0
  7  8  1  0  0  0
  7  9  2  0  0  0
  9 10  1  0  0  0
 18 19  1  0  0  0
 19 20  2  0  0  0
 20 21  1  0  0  0
 21 11  1  0  0  0
 21 16  2  0  0  0
 10  1  1  0  0  0
 32 27  1  0  0  0
 10  4  2  0  0  0
 15 22  1  0  0  0
M  END
> <minimizedAffinity>
-10.54482

$$$$



 33 37  0  0  0  0  0  0  0  0999 V2000
    0.3075   64.4518   82.8643 C   0  0  0  0  0  0  0  0  0  0  0  0
    1.0012   65.6106   82.8930 N   0  0  0  0  0  0  0  0  0  0  0  0
    1.2579   65.8255   84.2031 N   0  0  0  0  0  0  0  0  0  0  0  0
    0.7231   64.8769   85.0278 C   0  0  0  0  0  0  0  0  0  0  0  0
    0.7926   64.8473   86.3758 N   0  0  0  0  0  0  0  0  0  0  0  0
    0.1771   63.7663   86.9116 C   0  0  0  0  0  0  0  0  0  0  0  0
   -0.4704   62.7755   86.1912 C   0  0  0  0  0  0  0  0  0  0  0  0
   -1.0483   61.7472   86.8253 F   0  0  0  0  0  0  0  0  0  0  0  0
   -0.5220   62.8502   84.8037 C   0  0  0  0  0  0  0  0  0  0  0  0
    0.1030   63.9538   84.1932 C   0  0  0  0  0  0  0  0  0  0  0  0
   -1.5133   62.0688   78.1129 C   0  0  0  0  0  0  0  0  0  0  0  0
   -2.0237   63.0822   77.0906 C   0  0  0  0  0  0  0  0  0  0  0  0
   -2.6884   61.3722   78.8537 C   0  0  0  0  0  0  0  0  0  0  0  0
   -3.5752   60.6892   78.3696 O   0  0  0  0  0  0  0  0  0  0  0  0
   -2.5945   61.6743   80.2040 N   0  0  0  0  0  0  0  0  0  0  0  0
   -1.5437   62.5293   80.4547 C   0  0  0  0  0  0  0  0  0  0  0  0
   -1.2221   63.0204   81.6482 N   0  0  0  0  0  0  0  0  0  0  0  0
   -0.1490   63.8454   81.6017 C   0  0  0  0  0  0  0  0  0  0  0  0
    0.5450   64.1542   80.4631 N   0  0  0  0  0  0  0  0  0  0  0  0
    0.1724   63.6228   79.2634 N   0  0  0  0  0  0  0  0  0  0  0  0
   -0.8834   62.8075   79.2814 C   0  0  0  0  0  0  0  0  0  0  0  0
   -3.2462   61.3527   80.9025 H   0  0  0  0  0  0  0  0  0  0  0  0
   -0.4777   61.0619   77.5679 C   0  0  0  0  0  0  0  0  0  0  0  0
   -1.3051   58.9162   76.4072 C   0  0  0  0  0  0  0  0  0  0  0  0
   -0.7782   60.1459   76.4077 C   0  0  0  0  0  0  0  0  0  0  0  0
    2.0095   67.0017   84.6153 C   0  0  0  0  0  0  0  0  0  0  0  0
    3.4858   66.7190   84.6881 C   0  0  0  0  0  0  0  0  0  0  0  0
    3.9716   65.5343   85.2637 C   0  0  0  0  0  0  0  0  0  0  0  0
    5.3456   65.2894   85.3294 C   0  0  0  0  0  0  0  0  0  0  0  0
    6.2491   66.2219   84.8202 C   0  0  0  0  0  0  0  0  0  0  0  0
    5.7779   67.3996   84.2438 C   0  0  0  0  0  0  0  0  0  0  0  0
    4.4076   67.6380   84.1819 C   0  0  0  0  0  0  0  0  0  0  0  0
    3.9785   68.7721   83.6109 F   0  0  0  0  0  0  0  0  0  0  0  0
 24 25  2  0  0  0
 25 23  1  0  0  0
 23 11  1  0  0  0
 11 12  1  0  0  0
 11 13  1  0  0  0
 13 14  2  0  0  0
 13 15  1  0  0  0
 15 16  1  0  0  0
 16 17  1  0  0  0
 17 18  2  0  0  0
 18  1  1  0  0  0
  1  2  2  0  0  0
  2  3  1  0  0  0
  3 26  1  0  0  0
 26 27  1  0  0  0
 27 28  2  0  0  0
 28 29  1  0  0  0
 29 30  2  0  0  0
 30 31  1  0  0  0
 31 32  2  0  0  0
 32 33  1  0  0  0
  3  4  1  0  0  0
  4  5  1  0  0  0
  5  6  2  0  0  0
  6  7  1  0  0  0
  7  8  1  0  0  0
  7  9  2  0  0  0
  9 10  1  0  0  0
 18 19  1  0  0  0
 19 20  2  0  0  0
 20 21  1  0  0  0
 21 11  1  0  0  0
 21 16  2  0  0  0
 10  1  1  0  0  0
 32 27  1  0  0  0
 10  4  2  0  0  0
 15 22  1  0  0  0
M  END
> <minimizedAffinity>
-10.50675

$$$$
