
     RDKit          3D

 33 35  0  0  0  0  0  0  0  0999 V2000
    2.2448   66.1691   83.6284 C   0  0  0  0  0  0  0  0  0  0  0  0
    1.8437   65.2966   84.6402 C   0  0  0  0  0  0  0  0  0  0  0  0
    0.6760   64.5208   84.5221 C   0  0  0  0  0  0  0  0  0  0  0  0
    0.3366   63.6451   85.5575 C   0  0  0  0  0  0  0  0  0  0  0  0
   -0.8033   62.8324   85.5036 C   0  0  0  0  0  0  0  0  0  0  0  0
   -1.6474   62.8949   84.3698 C   0  0  0  0  0  0  0  0  0  0  0  0
   -1.3216   63.7869   83.3011 C   0  0  0  0  0  0  0  0  0  0  0  0
   -0.1389   64.6059   83.3722 C   0  0  0  0  0  0  0  0  0  0  0  0
    0.3006   65.4953   82.3539 C   0  0  0  0  0  0  0  0  0  0  0  0
    1.4660   66.2678   82.4694 C   0  0  0  0  0  0  0  0  0  0  0  0
   -1.0488   61.8858   86.6596 C   0  0  0  0  0  0  0  0  0  0  0  0
   -0.6958   62.4975   87.8896 O   0  0  0  0  0  0  0  0  0  0  0  0
    0.2363   62.7874   87.7979 H   0  0  0  0  0  0  0  0  0  0  0  0
   -2.8372   61.9597   84.3033 C   0  0  0  0  0  0  0  0  0  0  0  0
   -2.4248   60.7489   83.6782 O   0  0  0  0  0  0  0  0  0  0  0  0
   -2.2282   60.9765   82.7491 H   0  0  0  0  0  0  0  0  0  0  0  0
    4.4141   66.5631   84.5537 C   0  0  0  0  0  0  0  0  0  0  0  0
    3.3703   66.9522   83.6729 O   0  0  0  0  0  0  0  0  0  0  0  0
    1.9248   67.1339   81.5078 O   0  0  0  0  0  0  0  0  0  0  0  0
    1.6728   66.8179   80.1467 C   0  0  0  0  0  0  0  0  0  0  0  0
   -2.2129   63.8331   82.0595 C   0  0  0  0  0  0  0  0  0  0  0  0
   -1.8440   62.8378   80.9766 C   0  0  0  0  0  0  0  0  0  0  0  0
   -2.7113   61.7966   80.6029 C   0  0  0  0  0  0  0  0  0  0  0  0
   -2.3475   60.8724   79.6171 C   0  0  0  0  0  0  0  0  0  0  0  0
   -1.0810   60.9749   79.0155 C   0  0  0  0  0  0  0  0  0  0  0  0
   -0.2179   62.0240   79.3550 C   0  0  0  0  0  0  0  0  0  0  0  0
   -0.5899   62.9244   80.3558 C   0  0  0  0  0  0  0  0  0  0  0  0
   -3.1387   59.8339   79.1959 O   0  0  0  0  0  0  0  0  0  0  0  0
   -3.4128   58.7997   80.1328 C   0  0  0  0  0  0  0  0  0  0  0  0
   -0.7110   60.0525   78.0657 O   0  0  0  0  0  0  0  0  0  0  0  0
   -0.9854   60.5671   76.7618 C   0  0  0  0  0  0  0  0  0  0  0  0
    1.0289   62.2353   78.8269 O   0  0  0  0  0  0  0  0  0  0  0  0
    1.1711   63.4750   78.1358 C   0  0  0  0  0  0  0  0  0  0  0  0
 17 18  1  0
 18  1  1  0
  1  2  1  0
  2  3  2  0
  3  4  1  0
  4  5  2  0
  5 11  1  0
 11 12  1  0
  5  6  1  0
  6 14  1  0
 14 15  1  0
  6  7  2  0
  7 21  1  0
 21 22  1  0
 22 23  2  0
 23 24  1  0
 24 28  1  0
 28 29  1  0
 24 25  2  0
 25 30  1  0
 30 31  1  0
 25 26  1  0
 26 32  1  0
 32 33  1  0
 26 27  2  0
  7  8  1  0
  8  9  2  0
  9 10  1  0
 10 19  1  0
 19 20  1  0
 10  1  2  0
  8  3  1  0
 27 22  1  0
 12 13  1  0
 15 16  1  0
M  END
>  <minimizedAffinity>  (1) 
-8.37955

$$$$
