
     RDKit          3D

 22 24  0  0  0  0  0  0  0  0999 V2000
    1.3545   65.5496   84.5184 C   0  0  0  0  0  0  0  0  0  0  0  0
    0.6428   64.9093   83.6323 N   0  0  0  0  0  0  0  0  0  0  0  0
   -0.1429   63.8758   84.1424 C   0  0  0  0  0  0  0  0  0  0  0  0
   -0.9730   63.0576   83.4342 N   0  0  0  0  0  0  0  0  0  0  0  0
   -1.4953   62.2478   84.3325 C   0  0  0  0  0  0  0  0  0  0  0  0
   -1.0294   62.5179   85.5919 N   0  0  0  0  0  0  0  0  0  0  0  0
   -0.1624   63.5614   85.4705 C   0  0  0  0  0  0  0  0  0  0  0  0
    0.6025   64.2454   86.4416 C   0  0  0  0  0  0  0  0  0  0  0  0
    0.6103   63.9916   87.6399 O   0  0  0  0  0  0  0  0  0  0  0  0
    1.3498   65.2461   85.8747 N   0  0  0  0  0  0  0  0  0  0  0  0
   -1.2767   62.0399   86.4483 H   0  0  0  0  0  0  0  0  0  0  0  0
    1.9269   65.7843   86.5079 H   0  0  0  0  0  0  0  0  0  0  0  0
    3.5872   66.8561   84.4856 C   0  0  0  0  0  0  0  0  0  0  0  0
    4.3133   67.9586   84.0085 C   0  0  0  0  0  0  0  0  0  0  0  0
    3.7263   68.8851   83.1435 C   0  0  0  0  0  0  0  0  0  0  0  0
    2.4068   68.7242   82.7426 C   0  0  0  0  0  0  0  0  0  0  0  0
    1.6717   67.6345   83.2072 C   0  0  0  0  0  0  0  0  0  0  0  0
    2.2433   66.6881   84.0799 C   0  0  0  0  0  0  0  0  0  0  0  0
    4.1198   65.9192   85.3367 O   0  0  0  0  0  0  0  0  0  0  0  0
    5.2006   66.3109   86.1876 C   0  0  0  0  0  0  0  0  0  0  0  0
    5.5985   65.4925   88.5394 C   0  0  0  0  0  0  0  0  0  0  0  0
    5.5479   65.1153   87.0699 C   0  0  0  0  0  0  0  0  0  0  0  0
 21 22  1  0
 22 20  1  0
 20 19  1  0
 19 13  1  0
 13 14  2  0
 14 15  1  0
 15 16  2  0
 16 17  1  0
 17 18  2  0
 18  1  1  0
  1  2  2  0
  2  3  1  0
  3  4  1  0
  4  5  2  0
  5  6  1  0
  6  7  1  0
  7  8  1  0
  8  9  2  0
  8 10  1  0
 18 13  1  0
 10  1  1  0
  7  3  2  0
  6 11  1  0
 10 12  1  0
M  END
>  <minimizedAffinity>  (1) 
-7.94257

$$$$
