


 32 34  0  0  0  0  0  0  0  0999 V2000
    0.2179   64.7024   82.4017 C   0  0  0  0  0  0  0  0  0  0  0  0
    0.8395   65.5902   81.5090 C   0  0  0  0  0  0  0  0  0  0  0  0
    1.6921   66.5944   81.9741 C   0  0  0  0  0  0  0  0  0  0  0  0
    1.9322   66.7111   83.3404 C   0  0  0  0  0  0  0  0  0  0  0  0
    1.3310   65.8359   84.2467 C   0  0  0  0  0  0  0  0  0  0  0  0
    0.4674   64.8256   83.7889 C   0  0  0  0  0  0  0  0  0  0  0  0
   -0.1482   63.9416   84.8354 C   0  0  0  0  0  0  0  0  0  0  0  0
    0.3357   63.9055   86.0388 N   0  0  0  0  0  0  0  0  0  0  0  0
   -0.2635   63.0716   86.9714 C   0  0  0  0  0  0  0  0  0  0  0  0
   -1.3297   62.3064   86.6872 C   0  0  0  0  0  0  0  0  0  0  0  0
   -1.8853   62.3564   85.3328 C   0  0  0  0  0  0  0  0  0  0  0  0
   -2.8733   61.7041   85.0220 O   0  0  0  0  0  0  0  0  0  0  0  0
   -1.2269   63.1775   84.4723 N   0  0  0  0  0  0  0  0  0  0  0  0
   -1.6023   63.2435   83.5341 H   0  0  0  0  0  0  0  0  0  0  0  0
    0.3336   63.0500   88.3686 C   0  0  0  0  0  0  0  0  0  0  0  0
    0.3992   61.7935   88.8895 F   0  0  0  0  0  0  0  0  0  0  0  0
    1.6007   63.5402   88.3918 F   0  0  0  0  0  0  0  0  0  0  0  0
   -0.3953   63.7890   89.2464 F   0  0  0  0  0  0  0  0  0  0  0  0
    3.0115   67.9828   83.9536 S   0  0  0  0  0  0  0  0  0  0  0  0
    3.1495   68.9506   82.8880 O   0  0  0  0  0  0  0  0  0  0  0  0
    2.5412   68.3691   85.2659 O   0  0  0  0  0  0  0  0  0  0  0  0
    4.4871   67.1584   84.1403 N   0  0  0  0  0  0  0  0  0  0  0  0
    4.4176   65.7343   84.5891 C   0  0  0  0  0  0  0  0  0  0  0  0
    4.3568   65.5955   86.1257 C   0  0  0  0  0  0  0  0  0  0  0  0
    5.3910   66.3419   86.8694 N   0  0  0  0  0  0  0  0  0  0  0  0
    6.7027   65.7072   86.7649 C   0  0  0  0  0  0  0  0  0  0  0  0
    5.4155   67.7441   86.4034 C   0  0  0  0  0  0  0  0  0  0  0  0
    5.5450   67.9128   84.8779 C   0  0  0  0  0  0  0  0  0  0  0  0
   -0.6311   63.7027   81.9983 O   0  0  0  0  0  0  0  0  0  0  0  0
   -0.1844   62.7959   80.9870 C   0  0  0  0  0  0  0  0  0  0  0  0
    1.3439   61.1369   82.1424 C   0  0  0  0  0  0  0  0  0  0  0  0
   -0.0545   61.4041   81.6030 C   0  0  0  0  0  0  0  0  0  0  0  0
 31 32  1  0  0  0
 32 30  1  0  0  0
 30 29  1  0  0  0
 29  1  1  0  0  0
  1  2  1  0  0  0
  2  3  2  0  0  0
  3  4  1  0  0  0
  4 19  1  0  0  0
 19 20  2  0  0  0
 19 21  2  0  0  0
 19 22  1  0  0  0
 22 23  1  0  0  0
 23 24  1  0  0  0
 24 25  1  0  0  0
 25 26  1  0  0  0
 25 27  1  0  0  0
 27 28  1  0  0  0
  4  5  2  0  0  0
  5  6  1  0  0  0
  6  7  1  0  0  0
  7  8  2  0  0  0
  8  9  1  0  0  0
  9 15  1  0  0  0
 15 16  1  0  0  0
 15 17  1  0  0  0
 15 18  1  0  0  0
  9 10  2  0  0  0
 10 11  1  0  0  0
 11 12  2  0  0  0
 11 13  1  0  0  0
  6  1  2  0  0  0
 13  7  1  0  0  0
 28 22  1  0  0  0
 13 14  1  0  0  0
M  END
> <minimizedAffinity>
-10.02387

$$$$



 32 34  0  0  0  0  0  0  0  0999 V2000
    1.8985   65.9547   83.6780 C   0  0  0  0  0  0  0  0  0  0  0  0
    0.9403   66.4819   82.7973 C   0  0  0  0  0  0  0  0  0  0  0  0
    1.1873   67.6628   82.0929 C   0  0  0  0  0  0  0  0  0  0  0  0
    2.4023   68.3208   82.2630 C   0  0  0  0  0  0  0  0  0  0  0  0
    3.3730   67.8123   83.1279 C   0  0  0  0  0  0  0  0  0  0  0  0
    3.1317   66.6276   83.8450 C   0  0  0  0  0  0  0  0  0  0  0  0
    4.2244   66.1640   84.7652 C   0  0  0  0  0  0  0  0  0  0  0  0
    5.4691   66.2468   84.4084 N   0  0  0  0  0  0  0  0  0  0  0  0
    6.4441   65.8031   85.2898 C   0  0  0  0  0  0  0  0  0  0  0  0
    6.1578   65.3003   86.5015 C   0  0  0  0  0  0  0  0  0  0  0  0
    4.7539   65.2188   86.9109 C   0  0  0  0  0  0  0  0  0  0  0  0
    4.4325   64.7969   88.0141 O   0  0  0  0  0  0  0  0  0  0  0  0
    3.8592   65.6495   85.9823 N   0  0  0  0  0  0  0  0  0  0  0  0
    2.8825   65.6202   86.2481 H   0  0  0  0  0  0  0  0  0  0  0  0
    7.8905   65.9093   84.8361 C   0  0  0  0  0  0  0  0  0  0  0  0
    8.7692   65.8580   85.8751 F   0  0  0  0  0  0  0  0  0  0  0  0
    8.2377   64.9030   83.9916 F   0  0  0  0  0  0  0  0  0  0  0  0
    8.1369   67.0775   84.1859 F   0  0  0  0  0  0  0  0  0  0  0  0
    2.7362   69.8257   81.3785 S   0  0  0  0  0  0  0  0  0  0  0  0
    4.1689   70.0171   81.4238 O   0  0  0  0  0  0  0  0  0  0  0  0
    2.0231   69.7687   80.1212 O   0  0  0  0  0  0  0  0  0  0  0  0
    1.9944   71.0026   82.3563 N   0  0  0  0  0  0  0  0  0  0  0  0
    0.6385   71.4751   81.9406 C   0  0  0  0  0  0  0  0  0  0  0  0
    0.6970   72.6282   80.9155 C   0  0  0  0  0  0  0  0  0  0  0  0
    1.5686   73.7607   81.2868 N   0  0  0  0  0  0  0  0  0  0  0  0
    0.9715   74.5883   82.3323 C   0  0  0  0  0  0  0  0  0  0  0  0
    2.8989   73.2494   81.6775 C   0  0  0  0  0  0  0  0  0  0  0  0
    2.8738   72.1445   82.7503 C   0  0  0  0  0  0  0  0  0  0  0  0
    1.7046   64.8021   84.3970 O   0  0  0  0  0  0  0  0  0  0  0  0
    0.3978   64.5303   84.9095 C   0  0  0  0  0  0  0  0  0  0  0  0
   -0.5926   63.4864   86.9958 C   0  0  0  0  0  0  0  0  0  0  0  0
    0.4878   64.3967   86.4286 C   0  0  0  0  0  0  0  0  0  0  0  0
 31 32  1  0  0  0
 32 30  1  0  0  0
 30 29  1  0  0  0
 29  1  1  0  0  0
  1  2  1  0  0  0
  2  3  2  0  0  0
  3  4  1  0  0  0
  4 19  1  0  0  0
 19 20  2  0  0  0
 19 21  2  0  0  0
 19 22  1  0  0  0
 22 23  1  0  0  0
 23 24  1  0  0  0
 24 25  1  0  0  0
 25 26  1  0  0  0
 25 27  1  0  0  0
 27 28  1  0  0  0
  4  5  2  0  0  0
  5  6  1  0  0  0
  6  7  1  0  0  0
  7  8  2  0  0  0
  8  9  1  0  0  0
  9 15  1  0  0  0
 15 16  1  0  0  0
 15 17  1  0  0  0
 15 18  1  0  0  0
  9 10  2  0  0  0
 10 11  1  0  0  0
 11 12  2  0  0  0
 11 13  1  0  0  0
  6  1  2  0  0  0
 13  7  1  0  0  0
 28 22  1  0  0  0
 13 14  1  0  0  0
M  END
> <minimizedAffinity>
-9.88593

$$$$



 32 34  0  0  0  0  0  0  0  0999 V2000
    1.2352   66.0597   83.1654 C   0  0  0  0  0  0  0  0  0  0  0  0
    1.5004   66.4983   81.8582 C   0  0  0  0  0  0  0  0  0  0  0  0
    1.0860   65.7503   80.7534 C   0  0  0  0  0  0  0  0  0  0  0  0
    0.3960   64.5578   80.9530 C   0  0  0  0  0  0  0  0  0  0  0  0
    0.1148   64.1047   82.2432 C   0  0  0  0  0  0  0  0  0  0  0  0
    0.5322   64.8476   83.3612 C   0  0  0  0  0  0  0  0  0  0  0  0
    0.2020   64.2758   84.7101 C   0  0  0  0  0  0  0  0  0  0  0  0
   -0.9440   63.7063   84.9246 N   0  0  0  0  0  0  0  0  0  0  0  0
   -1.2063   63.1954   86.1873 C   0  0  0  0  0  0  0  0  0  0  0  0
   -0.3224   63.2549   87.1964 C   0  0  0  0  0  0  0  0  0  0  0  0
    0.9768   63.8856   86.9518 C   0  0  0  0  0  0  0  0  0  0  0  0
    1.8340   63.9439   87.8236 O   0  0  0  0  0  0  0  0  0  0  0  0
    1.1464   64.3830   85.6980 N   0  0  0  0  0  0  0  0  0  0  0  0
    2.0434   64.8082   85.4981 H   0  0  0  0  0  0  0  0  0  0  0  0
   -2.5606   62.5413   86.4041 C   0  0  0  0  0  0  0  0  0  0  0  0
   -3.4780   63.4003   86.9286 F   0  0  0  0  0  0  0  0  0  0  0  0
   -3.0944   62.0724   85.2459 F   0  0  0  0  0  0  0  0  0  0  0  0
   -2.4879   61.4903   87.2632 F   0  0  0  0  0  0  0  0  0  0  0  0
   -0.1382   63.5897   79.5617 S   0  0  0  0  0  0  0  0  0  0  0  0
   -1.0135   64.4390   78.7847 O   0  0  0  0  0  0  0  0  0  0  0  0
    1.0317   62.9748   78.9738 O   0  0  0  0  0  0  0  0  0  0  0  0
   -1.0675   62.3687   80.2947 N   0  0  0  0  0  0  0  0  0  0  0  0
   -0.6494   60.9552   80.0466 C   0  0  0  0  0  0  0  0  0  0  0  0
   -1.2481   60.3755   78.7468 C   0  0  0  0  0  0  0  0  0  0  0  0
   -2.7080   60.5367   78.5963 N   0  0  0  0  0  0  0  0  0  0  0  0
   -3.4496   59.6234   79.4625 C   0  0  0  0  0  0  0  0  0  0  0  0
   -3.0738   61.9481   78.8372 C   0  0  0  0  0  0  0  0  0  0  0  0
   -2.5466   62.5324   80.1613 C   0  0  0  0  0  0  0  0  0  0  0  0
    1.6239   66.7530   84.2840 O   0  0  0  0  0  0  0  0  0  0  0  0
    2.9314   67.3310   84.3075 C   0  0  0  0  0  0  0  0  0  0  0  0
    5.3793   66.7297   84.5702 C   0  0  0  0  0  0  0  0  0  0  0  0
    3.9407   66.2396   84.6590 C   0  0  0  0  0  0  0  0  0  0  0  0
 31 32  1  0  0  0
 32 30  1  0  0  0
 30 29  1  0  0  0
 29  1  1  0  0  0
  1  2  1  0  0  0
  2  3  2  0  0  0
  3  4  1  0  0  0
  4 19  1  0  0  0
 19 20  2  0  0  0
 19 21  2  0  0  0
 19 22  1  0  0  0
 22 23  1  0  0  0
 23 24  1  0  0  0
 24 25  1  0  0  0
 25 26  1  0  0  0
 25 27  1  0  0  0
 27 28  1  0  0  0
  4  5  2  0  0  0
  5  6  1  0  0  0
  6  7  1  0  0  0
  7  8  2  0  0  0
  8  9  1  0  0  0
  9 15  1  0  0  0
 15 16  1  0  0  0
 15 17  1  0  0  0
 15 18  1  0  0  0
  9 10  2  0  0  0
 10 11  1  0  0  0
 11 12  2  0  0  0
 11 13  1  0  0  0
  6  1  2  0  0  0
 13  7  1  0  0  0
 28 22  1  0  0  0
 13 14  1  0  0  0
M  END
> <minimizedAffinity>
-9.76484

$$$$



 32 34  0  0  0  0  0  0  0  0999 V2000
    0.2093   63.9450   85.2454 C   0  0  0  0  0  0  0  0  0  0  0  0
   -0.5661   62.7765   85.1759 C   0  0  0  0  0  0  0  0  0  0  0  0
   -0.6949   62.0721   83.9763 C   0  0  0  0  0  0  0  0  0  0  0  0
   -0.0402   62.5329   82.8374 C   0  0  0  0  0  0  0  0  0  0  0  0
    0.7417   63.6885   82.8836 C   0  0  0  0  0  0  0  0  0  0  0  0
    0.8731   64.4070   84.0845 C   0  0  0  0  0  0  0  0  0  0  0  0
    1.7190   65.6471   84.0374 C   0  0  0  0  0  0  0  0  0  0  0  0
    1.3951   66.6397   83.2670 N   0  0  0  0  0  0  0  0  0  0  0  0
    2.2081   67.7635   83.2538 C   0  0  0  0  0  0  0  0  0  0  0  0
    3.3115   67.8747   84.0109 C   0  0  0  0  0  0  0  0  0  0  0  0
    3.6708   66.7603   84.8910 C   0  0  0  0  0  0  0  0  0  0  0  0
    4.6483   66.8147   85.6257 O   0  0  0  0  0  0  0  0  0  0  0  0
    2.8386   65.6872   84.8274 N   0  0  0  0  0  0  0  0  0  0  0  0
    3.0553   64.9104   85.4398 H   0  0  0  0  0  0  0  0  0  0  0  0
    1.8018   68.9037   82.3351 C   0  0  0  0  0  0  0  0  0  0  0  0
    2.6787   69.0862   81.3093 F   0  0  0  0  0  0  0  0  0  0  0  0
    0.5858   68.6947   81.7660 F   0  0  0  0  0  0  0  0  0  0  0  0
    1.7341   70.0907   82.9943 F   0  0  0  0  0  0  0  0  0  0  0  0
   -0.1924   61.6535   81.3006 S   0  0  0  0  0  0  0  0  0  0  0  0
    1.1500   61.2932   80.9012 O   0  0  0  0  0  0  0  0  0  0  0  0
   -1.2245   60.6528   81.4624 O   0  0  0  0  0  0  0  0  0  0  0  0
   -0.7760   62.8515   80.2443 N   0  0  0  0  0  0  0  0  0  0  0  0
   -1.9421   62.4880   79.3825 C   0  0  0  0  0  0  0  0  0  0  0  0
   -1.5198   61.7953   78.0687 C   0  0  0  0  0  0  0  0  0  0  0  0
   -0.4768   62.4945   77.2921 N   0  0  0  0  0  0  0  0  0  0  0  0
   -1.0023   63.6778   76.6152 C   0  0  0  0  0  0  0  0  0  0  0  0
    0.6590   62.8224   78.1787 C   0  0  0  0  0  0  0  0  0  0  0  0
    0.2739   63.5755   79.4659 C   0  0  0  0  0  0  0  0  0  0  0  0
    0.3647   64.6763   86.3960 O   0  0  0  0  0  0  0  0  0  0  0  0
   -0.2040   64.1713   87.6067 C   0  0  0  0  0  0  0  0  0  0  0  0
    0.2714   62.2469   89.1859 C   0  0  0  0  0  0  0  0  0  0  0  0
    0.8647   63.3739   88.3520 C   0  0  0  0  0  0  0  0  0  0  0  0
 31 32  1  0  0  0
 32 30  1  0  0  0
 30 29  1  0  0  0
 29  1  1  0  0  0
  1  2  1  0  0  0
  2  3  2  0  0  0
  3  4  1  0  0  0
  4 19  1  0  0  0
 19 20  2  0  0  0
 19 21  2  0  0  0
 19 22  1  0  0  0
 22 23  1  0  0  0
 23 24  1  0  0  0
 24 25  1  0  0  0
 25 26  1  0  0  0
 25 27  1  0  0  0
 27 28  1  0  0  0
  4  5  2  0  0  0
  5  6  1  0  0  0
  6  7  1  0  0  0
  7  8  2  0  0  0
  8  9  1  0  0  0
  9 15  1  0  0  0
 15 16  1  0  0  0
 15 17  1  0  0  0
 15 18  1  0  0  0
  9 10  2  0  0  0
 10 11  1  0  0  0
 11 12  2  0  0  0
 11 13  1  0  0  0
  6  1  2  0  0  0
 13  7  1  0  0  0
 28 22  1  0  0  0
 13 14  1  0  0  0
M  END
> <minimizedAffinity>
-9.59643

$$$$



 32 34  0  0  0  0  0  0  0  0999 V2000
    0.1473   63.9405   85.2528 C   0  0  0  0  0  0  0  0  0  0  0  0
   -0.6788   62.8081   85.1716 C   0  0  0  0  0  0  0  0  0  0  0  0
   -0.8033   62.0961   83.9761 C   0  0  0  0  0  0  0  0  0  0  0  0
   -0.0934   62.5126   82.8533 C   0  0  0  0  0  0  0  0  0  0  0  0
    0.7394   63.6314   82.9116 C   0  0  0  0  0  0  0  0  0  0  0  0
    0.8671   64.3575   84.1084 C   0  0  0  0  0  0  0  0  0  0  0  0
    1.7705   65.5569   84.0745 C   0  0  0  0  0  0  0  0  0  0  0  0
    2.9437   65.5170   84.6274 N   0  0  0  0  0  0  0  0  0  0  0  0
    3.7423   66.6499   84.5742 C   0  0  0  0  0  0  0  0  0  0  0  0
    3.3595   67.7845   83.9666 C   0  0  0  0  0  0  0  0  0  0  0  0
    2.0408   67.8264   83.3303 C   0  0  0  0  0  0  0  0  0  0  0  0
    1.6482   68.8221   82.7365 O   0  0  0  0  0  0  0  0  0  0  0  0
    1.3102   66.6860   83.4481 N   0  0  0  0  0  0  0  0  0  0  0  0
    0.4016   66.6833   83.0011 H   0  0  0  0  0  0  0  0  0  0  0  0
    5.1070   66.5692   85.2377 C   0  0  0  0  0  0  0  0  0  0  0  0
    5.5949   65.2984   85.2766 F   0  0  0  0  0  0  0  0  0  0  0  0
    6.0376   67.3162   84.5878 F   0  0  0  0  0  0  0  0  0  0  0  0
    5.0750   67.0048   86.5250 F   0  0  0  0  0  0  0  0  0  0  0  0
   -0.2390   61.6226   81.3219 S   0  0  0  0  0  0  0  0  0  0  0  0
    1.1055   61.2634   80.9286 O   0  0  0  0  0  0  0  0  0  0  0  0
   -1.2687   60.6202   81.4875 O   0  0  0  0  0  0  0  0  0  0  0  0
   -0.8229   62.8120   80.2561 N   0  0  0  0  0  0  0  0  0  0  0  0
   -1.9479   62.4215   79.3526 C   0  0  0  0  0  0  0  0  0  0  0  0
   -1.4611   61.7537   78.0484 C   0  0  0  0  0  0  0  0  0  0  0  0
   -0.4143   62.4909   77.3130 N   0  0  0  0  0  0  0  0  0  0  0  0
   -0.9525   63.6640   76.6283 C   0  0  0  0  0  0  0  0  0  0  0  0
    0.6807   62.8448   78.2400 C   0  0  0  0  0  0  0  0  0  0  0  0
    0.2301   63.5743   79.5195 C   0  0  0  0  0  0  0  0  0  0  0  0
    0.3011   64.6778   86.3999 O   0  0  0  0  0  0  0  0  0  0  0  0
   -0.2437   64.1646   87.6181 C   0  0  0  0  0  0  0  0  0  0  0  0
    0.2610   62.2195   89.1623 C   0  0  0  0  0  0  0  0  0  0  0  0
    0.8385   63.3598   88.3354 C   0  0  0  0  0  0  0  0  0  0  0  0
 31 32  1  0  0  0
 32 30  1  0  0  0
 30 29  1  0  0  0
 29  1  1  0  0  0
  1  2  1  0  0  0
  2  3  2  0  0  0
  3  4  1  0  0  0
  4 19  1  0  0  0
 19 20  2  0  0  0
 19 21  2  0  0  0
 19 22  1  0  0  0
 22 23  1  0  0  0
 23 24  1  0  0  0
 24 25  1  0  0  0
 25 26  1  0  0  0
 25 27  1  0  0  0
 27 28  1  0  0  0
  4  5  2  0  0  0
  5  6  1  0  0  0
  6  7  1  0  0  0
  7  8  2  0  0  0
  8  9  1  0  0  0
  9 15  1  0  0  0
 15 16  1  0  0  0
 15 17  1  0  0  0
 15 18  1  0  0  0
  9 10  2  0  0  0
 10 11  1  0  0  0
 11 12  2  0  0  0
 11 13  1  0  0  0
  6  1  2  0  0  0
 13  7  1  0  0  0
 28 22  1  0  0  0
 13 14  1  0  0  0
M  END
> <minimizedAffinity>
-9.55987

$$$$



 32 34  0  0  0  0  0  0  0  0999 V2000
    3.3234   66.5572   84.5336 C   0  0  0  0  0  0  0  0  0  0  0  0
    4.0235   67.5788   83.8721 C   0  0  0  0  0  0  0  0  0  0  0  0
    3.4030   68.3511   82.8869 C   0  0  0  0  0  0  0  0  0  0  0  0
    2.0713   68.1071   82.5626 C   0  0  0  0  0  0  0  0  0  0  0  0
    1.3528   67.1014   83.2114 C   0  0  0  0  0  0  0  0  0  0  0  0
    1.9698   66.3156   84.2002 C   0  0  0  0  0  0  0  0  0  0  0  0
    1.1265   65.2456   84.8324 C   0  0  0  0  0  0  0  0  0  0  0  0
    0.2735   64.5712   84.1245 N   0  0  0  0  0  0  0  0  0  0  0  0
   -0.4862   63.5948   84.7519 C   0  0  0  0  0  0  0  0  0  0  0  0
   -0.3713   63.3087   86.0588 C   0  0  0  0  0  0  0  0  0  0  0  0
    0.6009   64.0600   86.8562 C   0  0  0  0  0  0  0  0  0  0  0  0
    0.7715   63.8248   88.0452 O   0  0  0  0  0  0  0  0  0  0  0  0
    1.2870   65.0152   86.1742 N   0  0  0  0  0  0  0  0  0  0  0  0
    1.9783   65.5366   86.6992 H   0  0  0  0  0  0  0  0  0  0  0  0
   -1.4794   62.8295   83.8934 C   0  0  0  0  0  0  0  0  0  0  0  0
   -2.5849   62.4454   84.5897 F   0  0  0  0  0  0  0  0  0  0  0  0
   -1.9260   63.5686   82.8443 F   0  0  0  0  0  0  0  0  0  0  0  0
   -0.9394   61.6931   83.3786 F   0  0  0  0  0  0  0  0  0  0  0  0
    1.2635   69.0762   81.3109 S   0  0  0  0  0  0  0  0  0  0  0  0
    2.2969   69.5020   80.3933 O   0  0  0  0  0  0  0  0  0  0  0  0
    0.1081   68.3356   80.8534 O   0  0  0  0  0  0  0  0  0  0  0  0
    0.7152   70.4278   82.1850 N   0  0  0  0  0  0  0  0  0  0  0  0
   -0.5770   71.0401   81.7495 C   0  0  0  0  0  0  0  0  0  0  0  0
   -0.3952   72.0756   80.6187 C   0  0  0  0  0  0  0  0  0  0  0  0
    0.6307   73.1083   80.8658 N   0  0  0  0  0  0  0  0  0  0  0  0
    0.1811   74.1018   81.8380 C   0  0  0  0  0  0  0  0  0  0  0  0
    1.8916   72.4588   81.2806 C   0  0  0  0  0  0  0  0  0  0  0  0
    1.7508   71.4708   82.4538 C   0  0  0  0  0  0  0  0  0  0  0  0
    3.8863   65.7672   85.5041 O   0  0  0  0  0  0  0  0  0  0  0  0
    5.1818   66.1148   85.9994 C   0  0  0  0  0  0  0  0  0  0  0  0
    7.3640   65.9370   84.7230 C   0  0  0  0  0  0  0  0  0  0  0  0
    6.2120   65.1797   85.3687 C   0  0  0  0  0  0  0  0  0  0  0  0
 31 32  1  0  0  0
 32 30  1  0  0  0
 30 29  1  0  0  0
 29  1  1  0  0  0
  1  2  1  0  0  0
  2  3  2  0  0  0
  3  4  1  0  0  0
  4 19  1  0  0  0
 19 20  2  0  0  0
 19 21  2  0  0  0
 19 22  1  0  0  0
 22 23  1  0  0  0
 23 24  1  0  0  0
 24 25  1  0  0  0
 25 26  1  0  0  0
 25 27  1  0  0  0
 27 28  1  0  0  0
  4  5  2  0  0  0
  5  6  1  0  0  0
  6  7  1  0  0  0
  7  8  2  0  0  0
  8  9  1  0  0  0
  9 15  1  0  0  0
 15 16  1  0  0  0
 15 17  1  0  0  0
 15 18  1  0  0  0
  9 10  2  0  0  0
 10 11  1  0  0  0
 11 12  2  0  0  0
 11 13  1  0  0  0
  6  1  2  0  0  0
 13  7  1  0  0  0
 28 22  1  0  0  0
 13 14  1  0  0  0
M  END
> <minimizedAffinity>
-9.49729

$$$$



 32 34  0  0  0  0  0  0  0  0999 V2000
    0.7935   64.8255   84.5612 C   0  0  0  0  0  0  0  0  0  0  0  0
    1.5819   65.9732   84.7424 C   0  0  0  0  0  0  0  0  0  0  0  0
    1.7345   66.9074   83.7148 C   0  0  0  0  0  0  0  0  0  0  0  0
    1.0909   66.6991   82.4982 C   0  0  0  0  0  0  0  0  0  0  0  0
    0.2964   65.5691   82.2967 C   0  0  0  0  0  0  0  0  0  0  0  0
    0.1410   64.6208   83.3226 C   0  0  0  0  0  0  0  0  0  0  0  0
   -0.7171   63.4279   83.0118 C   0  0  0  0  0  0  0  0  0  0  0  0
   -0.7028   62.8930   81.8297 N   0  0  0  0  0  0  0  0  0  0  0  0
   -1.5145   61.7945   81.5875 C   0  0  0  0  0  0  0  0  0  0  0  0
   -2.3079   61.2527   82.5255 C   0  0  0  0  0  0  0  0  0  0  0  0
   -2.3148   61.8473   83.8641 C   0  0  0  0  0  0  0  0  0  0  0  0
   -2.9950   61.3803   84.7683 O   0  0  0  0  0  0  0  0  0  0  0  0
   -1.5124   62.9346   84.0134 N   0  0  0  0  0  0  0  0  0  0  0  0
   -1.4857   63.3534   84.9350 H   0  0  0  0  0  0  0  0  0  0  0  0
   -1.4770   61.1980   80.1904 C   0  0  0  0  0  0  0  0  0  0  0  0
   -1.9962   62.0356   79.2504 F   0  0  0  0  0  0  0  0  0  0  0  0
   -0.2107   60.9114   79.7894 F   0  0  0  0  0  0  0  0  0  0  0  0
   -2.1911   60.0442   80.1088 F   0  0  0  0  0  0  0  0  0  0  0  0
    1.2734   67.8737   81.1770 S   0  0  0  0  0  0  0  0  0  0  0  0
    2.1871   67.2803   80.2260 O   0  0  0  0  0  0  0  0  0  0  0  0
   -0.0493   68.3062   80.7820 O   0  0  0  0  0  0  0  0  0  0  0  0
    2.0506   69.1770   81.9445 N   0  0  0  0  0  0  0  0  0  0  0  0
    1.2437   70.4162   82.1625 C   0  0  0  0  0  0  0  0  0  0  0  0
    1.2624   71.3625   80.9426 C   0  0  0  0  0  0  0  0  0  0  0  0
    2.6021   71.6820   80.4107 N   0  0  0  0  0  0  0  0  0  0  0  0
    3.3220   72.6172   81.2720 C   0  0  0  0  0  0  0  0  0  0  0  0
    3.3581   70.4301   80.1990 C   0  0  0  0  0  0  0  0  0  0  0  0
    3.4138   69.4972   81.4233 C   0  0  0  0  0  0  0  0  0  0  0  0
    0.6146   63.8754   85.5348 O   0  0  0  0  0  0  0  0  0  0  0  0
    0.2795   64.3078   86.8558 C   0  0  0  0  0  0  0  0  0  0  0  0
   -1.8763   63.2485   87.6640 C   0  0  0  0  0  0  0  0  0  0  0  0
   -0.3590   63.1393   87.6042 C   0  0  0  0  0  0  0  0  0  0  0  0
 31 32  1  0  0  0
 32 30  1  0  0  0
 30 29  1  0  0  0
 29  1  1  0  0  0
  1  2  1  0  0  0
  2  3  2  0  0  0
  3  4  1  0  0  0
  4 19  1  0  0  0
 19 20  2  0  0  0
 19 21  2  0  0  0
 19 22  1  0  0  0
 22 23  1  0  0  0
 23 24  1  0  0  0
 24 25  1  0  0  0
 25 26  1  0  0  0
 25 27  1  0  0  0
 27 28  1  0  0  0
  4  5  2  0  0  0
  5  6  1  0  0  0
  6  7  1  0  0  0
  7  8  2  0  0  0
  8  9  1  0  0  0
  9 15  1  0  0  0
 15 16  1  0  0  0
 15 17  1  0  0  0
 15 18  1  0  0  0
  9 10  2  0  0  0
 10 11  1  0  0  0
 11 12  2  0  0  0
 11 13  1  0  0  0
  6  1  2  0  0  0
 13  7  1  0  0  0
 28 22  1  0  0  0
 13 14  1  0  0  0
M  END
> <minimizedAffinity>
-9.44754

$$$$



 32 34  0  0  0  0  0  0  0  0999 V2000
    0.3429   63.9882   85.4709 C   0  0  0  0  0  0  0  0  0  0  0  0
   -0.7345   63.1208   85.2298 C   0  0  0  0  0  0  0  0  0  0  0  0
   -1.2672   62.9794   83.9460 C   0  0  0  0  0  0  0  0  0  0  0  0
   -0.7174   63.7041   82.8922 C   0  0  0  0  0  0  0  0  0  0  0  0
    0.3584   64.5676   83.1063 C   0  0  0  0  0  0  0  0  0  0  0  0
    0.8979   64.7207   84.3952 C   0  0  0  0  0  0  0  0  0  0  0  0
    2.0419   65.6837   84.5356 C   0  0  0  0  0  0  0  0  0  0  0  0
    3.1783   65.2937   85.0259 N   0  0  0  0  0  0  0  0  0  0  0  0
    4.2054   66.2189   85.1399 C   0  0  0  0  0  0  0  0  0  0  0  0
    4.0798   67.4995   84.7558 C   0  0  0  0  0  0  0  0  0  0  0  0
    2.8020   67.9376   84.1898 C   0  0  0  0  0  0  0  0  0  0  0  0
    2.6364   69.0845   83.7953 O   0  0  0  0  0  0  0  0  0  0  0  0
    1.8395   66.9790   84.1353 N   0  0  0  0  0  0  0  0  0  0  0  0
    0.9520   67.2521   83.7312 H   0  0  0  0  0  0  0  0  0  0  0  0
    5.5198   65.7288   85.7241 C   0  0  0  0  0  0  0  0  0  0  0  0
    6.2920   66.7451   86.1989 F   0  0  0  0  0  0  0  0  0  0  0  0
    5.3313   64.8742   86.7636 F   0  0  0  0  0  0  0  0  0  0  0  0
    6.2753   65.0744   84.8027 F   0  0  0  0  0  0  0  0  0  0  0  0
   -1.3812   63.5409   81.2518 S   0  0  0  0  0  0  0  0  0  0  0  0
   -2.8204   63.5298   81.3926 O   0  0  0  0  0  0  0  0  0  0  0  0
   -0.7145   64.5061   80.4054 O   0  0  0  0  0  0  0  0  0  0  0  0
   -0.8628   61.9871   80.7951 N   0  0  0  0  0  0  0  0  0  0  0  0
    0.1906   61.9058   79.7376 C   0  0  0  0  0  0  0  0  0  0  0  0
   -0.3950   61.9298   78.3092 C   0  0  0  0  0  0  0  0  0  0  0  0
   -1.4841   60.9654   78.0561 N   0  0  0  0  0  0  0  0  0  0  0  0
   -0.9842   59.5980   77.9348 C   0  0  0  0  0  0  0  0  0  0  0  0
   -2.5063   61.0894   79.1159 C   0  0  0  0  0  0  0  0  0  0  0  0
   -1.9579   61.0000   80.5525 C   0  0  0  0  0  0  0  0  0  0  0  0
    0.8999   64.1676   86.7121 O   0  0  0  0  0  0  0  0  0  0  0  0
    0.0426   64.1301   87.8558 C   0  0  0  0  0  0  0  0  0  0  0  0
    0.0322   61.8944   89.0492 C   0  0  0  0  0  0  0  0  0  0  0  0
    0.6962   63.2589   88.9268 C   0  0  0  0  0  0  0  0  0  0  0  0
 31 32  1  0  0  0
 32 30  1  0  0  0
 30 29  1  0  0  0
 29  1  1  0  0  0
  1  2  1  0  0  0
  2  3  2  0  0  0
  3  4  1  0  0  0
  4 19  1  0  0  0
 19 20  2  0  0  0
 19 21  2  0  0  0
 19 22  1  0  0  0
 22 23  1  0  0  0
 23 24  1  0  0  0
 24 25  1  0  0  0
 25 26  1  0  0  0
 25 27  1  0  0  0
 27 28  1  0  0  0
  4  5  2  0  0  0
  5  6  1  0  0  0
  6  7  1  0  0  0
  7  8  2  0  0  0
  8  9  1  0  0  0
  9 15  1  0  0  0
 15 16  1  0  0  0
 15 17  1  0  0  0
 15 18  1  0  0  0
  9 10  2  0  0  0
 10 11  1  0  0  0
 11 12  2  0  0  0
 11 13  1  0  0  0
  6  1  2  0  0  0
 13  7  1  0  0  0
 28 22  1  0  0  0
 13 14  1  0  0  0
M  END
> <minimizedAffinity>
-9.33719

$$$$



 32 34  0  0  0  0  0  0  0  0999 V2000
    2.6374   67.1265   83.5186 C   0  0  0  0  0  0  0  0  0  0  0  0
    1.4695   67.1488   82.7395 C   0  0  0  0  0  0  0  0  0  0  0  0
    0.6383   66.0286   82.6617 C   0  0  0  0  0  0  0  0  0  0  0  0
    0.9707   64.8781   83.3716 C   0  0  0  0  0  0  0  0  0  0  0  0
    2.1230   64.8344   84.1583 C   0  0  0  0  0  0  0  0  0  0  0  0
    2.9684   65.9545   84.2387 C   0  0  0  0  0  0  0  0  0  0  0  0
    4.1946   65.8119   85.0942 C   0  0  0  0  0  0  0  0  0  0  0  0
    5.3786   65.9475   84.5810 N   0  0  0  0  0  0  0  0  0  0  0  0
    6.4823   65.8038   85.4089 C   0  0  0  0  0  0  0  0  0  0  0  0
    6.3802   65.5403   86.7216 C   0  0  0  0  0  0  0  0  0  0  0  0
    5.0439   65.4004   87.3049 C   0  0  0  0  0  0  0  0  0  0  0  0
    4.8864   65.1890   88.5002 O   0  0  0  0  0  0  0  0  0  0  0  0
    4.0166   65.5300   86.4239 N   0  0  0  0  0  0  0  0  0  0  0  0
    3.0817   65.4553   86.8058 H   0  0  0  0  0  0  0  0  0  0  0  0
    7.8530   65.9628   84.7725 C   0  0  0  0  0  0  0  0  0  0  0  0
    7.9498   67.0900   84.0145 F   0  0  0  0  0  0  0  0  0  0  0  0
    8.8427   66.0399   85.7003 F   0  0  0  0  0  0  0  0  0  0  0  0
    8.1577   64.9236   83.9508 F   0  0  0  0  0  0  0  0  0  0  0  0
   -0.0714   63.4412   83.2849 S   0  0  0  0  0  0  0  0  0  0  0  0
    0.8021   62.3178   83.0277 O   0  0  0  0  0  0  0  0  0  0  0  0
   -0.9531   63.4628   84.4315 O   0  0  0  0  0  0  0  0  0  0  0  0
   -1.0024   63.7418   81.8940 N   0  0  0  0  0  0  0  0  0  0  0  0
   -2.4625   63.4317   81.9736 C   0  0  0  0  0  0  0  0  0  0  0  0
   -2.7780   61.9571   81.6421 C   0  0  0  0  0  0  0  0  0  0  0  0
   -2.1906   61.4519   80.3853 N   0  0  0  0  0  0  0  0  0  0  0  0
   -2.8890   61.9687   79.2107 C   0  0  0  0  0  0  0  0  0  0  0  0
   -0.7475   61.7685   80.3553 C   0  0  0  0  0  0  0  0  0  0  0  0
   -0.4079   63.2482   80.6152 C   0  0  0  0  0  0  0  0  0  0  0  0
    3.4900   68.1964   83.6254 O   0  0  0  0  0  0  0  0  0  0  0  0
    3.0527   69.4676   83.1386 C   0  0  0  0  0  0  0  0  0  0  0  0
    3.0132   69.8588   80.6349 C   0  0  0  0  0  0  0  0  0  0  0  0
    3.8667   69.8198   81.8949 C   0  0  0  0  0  0  0  0  0  0  0  0
 31 32  1  0  0  0
 32 30  1  0  0  0
 30 29  1  0  0  0
 29  1  1  0  0  0
  1  2  1  0  0  0
  2  3  2  0  0  0
  3  4  1  0  0  0
  4 19  1  0  0  0
 19 20  2  0  0  0
 19 21  2  0  0  0
 19 22  1  0  0  0
 22 23  1  0  0  0
 23 24  1  0  0  0
 24 25  1  0  0  0
 25 26  1  0  0  0
 25 27  1  0  0  0
 27 28  1  0  0  0
  4  5  2  0  0  0
  5  6  1  0  0  0
  6  7  1  0  0  0
  7  8  2  0  0  0
  8  9  1  0  0  0
  9 15  1  0  0  0
 15 16  1  0  0  0
 15 17  1  0  0  0
 15 18  1  0  0  0
  9 10  2  0  0  0
 10 11  1  0  0  0
 11 12  2  0  0  0
 11 13  1  0  0  0
  6  1  2  0  0  0
 13  7  1  0  0  0
 28 22  1  0  0  0
 13 14  1  0  0  0
M  END
> <minimizedAffinity>
-9.31278

$$$$
