


 33 35  0  0  0  0  0  0  0  0999 V2000
   -0.6116   62.8439   82.9087 C   0  0  0  0  0  0  0  0  0  0  0  0
   -1.4949   61.8666   82.7669 N   0  0  0  0  0  0  0  0  0  0  0  0
   -1.4905   61.5468   81.4308 C   0  0  0  0  0  0  0  0  0  0  0  0
   -2.2623   60.5460   80.7306 C   0  0  0  0  0  0  0  0  0  0  0  0
   -3.0532   59.7964   81.2976 O   0  0  0  0  0  0  0  0  0  0  0  0
   -2.0030   60.5198   79.3492 N   0  0  0  0  0  0  0  0  0  0  0  0
   -2.7339   59.5517   78.5555 C   0  0  0  0  0  0  0  0  0  0  0  0
   -1.0475   61.2952   78.6590 C   0  0  0  0  0  0  0  0  0  0  0  0
   -0.8564   61.1468   77.4485 O   0  0  0  0  0  0  0  0  0  0  0  0
   -0.3209   62.2438   79.4048 N   0  0  0  0  0  0  0  0  0  0  0  0
   -0.5931   62.3215   80.7537 C   0  0  0  0  0  0  0  0  0  0  0  0
   -0.0397   63.1445   81.6869 N   0  0  0  0  0  0  0  0  0  0  0  0
    0.6704   63.8510   81.5512 H   0  0  0  0  0  0  0  0  0  0  0  0
    0.5336   64.6655   84.2422 C   0  0  0  0  0  0  0  0  0  0  0  0
    0.9343   65.1937   85.4776 C   0  0  0  0  0  0  0  0  0  0  0  0
    0.5197   64.5910   86.6637 C   0  0  0  0  0  0  0  0  0  0  0  0
   -0.2867   63.4541   86.6047 C   0  0  0  0  0  0  0  0  0  0  0  0
   -0.6658   62.9071   85.3736 C   0  0  0  0  0  0  0  0  0  0  0  0
   -0.2387   63.4923   84.1709 C   0  0  0  0  0  0  0  0  0  0  0  0
   -0.8384   62.6809   88.0954 S   0  0  0  0  0  0  0  0  0  0  0  0
   -0.0037   63.5337   89.2757 N   0  0  0  0  0  0  0  0  0  0  0  0
   -0.3382   61.3283   88.1285 O   0  0  0  0  0  0  0  0  0  0  0  0
   -2.2315   63.0014   88.3058 O   0  0  0  0  0  0  0  0  0  0  0  0
   -0.6624   64.0177   89.8860 H   0  0  0  0  0  0  0  0  0  0  0  0
    0.6353   62.9092   89.7695 H   0  0  0  0  0  0  0  0  0  0  0  0
    0.9599   65.2914   83.0952 O   0  0  0  0  0  0  0  0  0  0  0  0
    1.6307   66.5280   83.3959 C   0  0  0  0  0  0  0  0  0  0  0  0
    0.9892   68.0030   81.4387 C   0  0  0  0  0  0  0  0  0  0  0  0
    2.0868   67.1781   82.0927 C   0  0  0  0  0  0  0  0  0  0  0  0
    0.6707   63.0780   78.7253 C   0  0  0  0  0  0  0  0  0  0  0  0
    0.2057   64.5304   78.5109 C   0  0  0  0  0  0  0  0  0  0  0  0
   -0.4565   64.7343   77.1473 C   0  0  0  0  0  0  0  0  0  0  0  0
    1.3988   65.4782   78.6525 C   0  0  0  0  0  0  0  0  0  0  0  0
 28 29  1  0  0  0
 29 27  1  0  0  0
 27 26  1  0  0  0
 26 14  1  0  0  0
 14 15  1  0  0  0
 15 16  2  0  0  0
 16 17  1  0  0  0
 17 20  1  0  0  0
 20 21  1  0  0  0
 20 22  2  0  0  0
 20 23  2  0  0  0
 17 18  2  0  0  0
 18 19  1  0  0  0
 19  1  1  0  0  0
  1  2  2  0  0  0
  2  3  1  0  0  0
  3  4  1  0  0  0
  4  5  2  0  0  0
  4  6  1  0  0  0
  6  7  1  0  0  0
  6  8  1  0  0  0
  8  9  2  0  0  0
  8 10  1  0  0  0
 10 30  1  0  0  0
 30 31  1  0  0  0
 31 32  1  0  0  0
 31 33  1  0  0  0
 10 11  1  0  0  0
 11 12  1  0  0  0
 19 14  2  0  0  0
 12  1  1  0  0  0
 11  3  2  0  0  0
 21 24  1  0  0  0
 21 25  1  0  0  0
 12 13  1  0  0  0
M  END
> <minimizedAffinity>
-9.62471

$$$$



 33 35  0  0  0  0  0  0  0  0999 V2000
    1.0561   65.5808   83.3134 C   0  0  0  0  0  0  0  0  0  0  0  0
    0.4240   65.2821   82.1879 N   0  0  0  0  0  0  0  0  0  0  0  0
   -0.3513   64.1841   82.4723 C   0  0  0  0  0  0  0  0  0  0  0  0
   -1.2453   63.4505   81.6061 C   0  0  0  0  0  0  0  0  0  0  0  0
   -1.4448   63.7630   80.4350 O   0  0  0  0  0  0  0  0  0  0  0  0
   -1.8599   62.3609   82.2474 N   0  0  0  0  0  0  0  0  0  0  0  0
   -2.7726   61.5564   81.4593 C   0  0  0  0  0  0  0  0  0  0  0  0
   -1.7347   62.0069   83.6073 C   0  0  0  0  0  0  0  0  0  0  0  0
   -2.3718   61.0633   84.0843 O   0  0  0  0  0  0  0  0  0  0  0  0
   -0.8554   62.7718   84.3983 N   0  0  0  0  0  0  0  0  0  0  0  0
   -0.2037   63.8164   83.7787 C   0  0  0  0  0  0  0  0  0  0  0  0
    0.6890   64.6967   84.3103 N   0  0  0  0  0  0  0  0  0  0  0  0
    1.0355   64.7356   85.2590 H   0  0  0  0  0  0  0  0  0  0  0  0
    3.0927   66.6561   84.3640 C   0  0  0  0  0  0  0  0  0  0  0  0
    3.8863   67.7907   84.5851 C   0  0  0  0  0  0  0  0  0  0  0  0
    3.6094   68.9798   83.9133 C   0  0  0  0  0  0  0  0  0  0  0  0
    2.5304   69.0283   83.0304 C   0  0  0  0  0  0  0  0  0  0  0  0
    1.7186   67.9064   82.8280 C   0  0  0  0  0  0  0  0  0  0  0  0
    1.9739   66.7079   83.5134 C   0  0  0  0  0  0  0  0  0  0  0  0
    2.1685   70.5205   82.1547 S   0  0  0  0  0  0  0  0  0  0  0  0
    1.9881   71.6344   83.3971 N   0  0  0  0  0  0  0  0  0  0  0  0
    0.8773   70.3873   81.5256 O   0  0  0  0  0  0  0  0  0  0  0  0
    3.3470   70.9415   81.4324 O   0  0  0  0  0  0  0  0  0  0  0  0
    2.6983   72.3623   83.3172 H   0  0  0  0  0  0  0  0  0  0  0  0
    1.0312   71.9901   83.4090 H   0  0  0  0  0  0  0  0  0  0  0  0
    3.4011   65.5012   85.0423 O   0  0  0  0  0  0  0  0  0  0  0  0
    4.7407   65.5466   85.5647 C   0  0  0  0  0  0  0  0  0  0  0  0
    5.6130   65.6517   87.9408 C   0  0  0  0  0  0  0  0  0  0  0  0
    4.7629   64.8849   86.9397 C   0  0  0  0  0  0  0  0  0  0  0  0
   -0.6861   62.4302   85.8110 C   0  0  0  0  0  0  0  0  0  0  0  0
   -1.3802   63.4178   86.7673 C   0  0  0  0  0  0  0  0  0  0  0  0
   -0.4856   63.8167   87.9420 C   0  0  0  0  0  0  0  0  0  0  0  0
   -2.6772   62.7986   87.2929 C   0  0  0  0  0  0  0  0  0  0  0  0
 28 29  1  0  0  0
 29 27  1  0  0  0
 27 26  1  0  0  0
 26 14  1  0  0  0
 14 15  1  0  0  0
 15 16  2  0  0  0
 16 17  1  0  0  0
 17 20  1  0  0  0
 20 21  1  0  0  0
 20 22  2  0  0  0
 20 23  2  0  0  0
 17 18  2  0  0  0
 18 19  1  0  0  0
 19  1  1  0  0  0
  1  2  2  0  0  0
  2  3  1  0  0  0
  3  4  1  0  0  0
  4  5  2  0  0  0
  4  6  1  0  0  0
  6  7  1  0  0  0
  6  8  1  0  0  0
  8  9  2  0  0  0
  8 10  1  0  0  0
 10 30  1  0  0  0
 30 31  1  0  0  0
 31 32  1  0  0  0
 31 33  1  0  0  0
 10 11  1  0  0  0
 11 12  1  0  0  0
 19 14  2  0  0  0
 12  1  1  0  0  0
 11  3  2  0  0  0
 21 24  1  0  0  0
 21 25  1  0  0  0
 12 13  1  0  0  0
M  END
> <minimizedAffinity>
-9.50887

$$$$



 33 35  0  0  0  0  0  0  0  0999 V2000
    1.0739   65.5238   83.1503 C   0  0  0  0  0  0  0  0  0  0  0  0
    0.8970   64.8429   82.0275 N   0  0  0  0  0  0  0  0  0  0  0  0
    0.0486   63.8098   82.3442 C   0  0  0  0  0  0  0  0  0  0  0  0
   -0.4766   62.7678   81.4920 C   0  0  0  0  0  0  0  0  0  0  0  0
   -0.2220   62.6957   80.2925 O   0  0  0  0  0  0  0  0  0  0  0  0
   -1.3076   61.8646   82.1775 N   0  0  0  0  0  0  0  0  0  0  0  0
   -1.8806   60.7768   81.4096 C   0  0  0  0  0  0  0  0  0  0  0  0
   -1.7020   61.9463   83.5297 C   0  0  0  0  0  0  0  0  0  0  0  0
   -2.4900   61.1306   84.0169 O   0  0  0  0  0  0  0  0  0  0  0  0
   -1.1620   62.9941   84.3006 N   0  0  0  0  0  0  0  0  0  0  0  0
   -0.3055   63.8646   83.6615 C   0  0  0  0  0  0  0  0  0  0  0  0
    0.3454   64.9460   84.1729 N   0  0  0  0  0  0  0  0  0  0  0  0
    0.3170   65.2996   85.1193 H   0  0  0  0  0  0  0  0  0  0  0  0
    3.0557   66.8061   84.0646 C   0  0  0  0  0  0  0  0  0  0  0  0
    3.7355   68.0188   84.2465 C   0  0  0  0  0  0  0  0  0  0  0  0
    3.2799   69.1770   83.6195 C   0  0  0  0  0  0  0  0  0  0  0  0
    2.1375   69.1154   82.8212 C   0  0  0  0  0  0  0  0  0  0  0  0
    1.4397   67.9130   82.6596 C   0  0  0  0  0  0  0  0  0  0  0  0
    1.8760   66.7430   83.3016 C   0  0  0  0  0  0  0  0  0  0  0  0
    1.5491   70.5675   82.0031 S   0  0  0  0  0  0  0  0  0  0  0  0
    1.8034   71.7605   83.1558 N   0  0  0  0  0  0  0  0  0  0  0  0
    0.1215   70.4554   81.8294 O   0  0  0  0  0  0  0  0  0  0  0  0
    2.4429   70.8911   80.9149 O   0  0  0  0  0  0  0  0  0  0  0  0
    2.4674   72.4495   82.8024 H   0  0  0  0  0  0  0  0  0  0  0  0
    0.9096   72.1591   83.4468 H   0  0  0  0  0  0  0  0  0  0  0  0
    3.5392   65.6852   84.6964 O   0  0  0  0  0  0  0  0  0  0  0  0
    4.5732   66.0239   85.6375 C   0  0  0  0  0  0  0  0  0  0  0  0
    6.9354   65.8305   84.7430 C   0  0  0  0  0  0  0  0  0  0  0  0
    5.7741   65.1099   85.4099 C   0  0  0  0  0  0  0  0  0  0  0  0
   -1.5346   63.1076   85.7110 C   0  0  0  0  0  0  0  0  0  0  0  0
   -0.4051   62.7046   86.6772 C   0  0  0  0  0  0  0  0  0  0  0  0
   -0.7924   61.5198   87.5636 C   0  0  0  0  0  0  0  0  0  0  0  0
   -0.0255   63.9016   87.5518 C   0  0  0  0  0  0  0  0  0  0  0  0
 28 29  1  0  0  0
 29 27  1  0  0  0
 27 26  1  0  0  0
 26 14  1  0  0  0
 14 15  1  0  0  0
 15 16  2  0  0  0
 16 17  1  0  0  0
 17 20  1  0  0  0
 20 21  1  0  0  0
 20 22  2  0  0  0
 20 23  2  0  0  0
 17 18  2  0  0  0
 18 19  1  0  0  0
 19  1  1  0  0  0
  1  2  2  0  0  0
  2  3  1  0  0  0
  3  4  1  0  0  0
  4  5  2  0  0  0
  4  6  1  0  0  0
  6  7  1  0  0  0
  6  8  1  0  0  0
  8  9  2  0  0  0
  8 10  1  0  0  0
 10 30  1  0  0  0
 30 31  1  0  0  0
 31 32  1  0  0  0
 31 33  1  0  0  0
 10 11  1  0  0  0
 11 12  1  0  0  0
 19 14  2  0  0  0
 12  1  1  0  0  0
 11  3  2  0  0  0
 21 24  1  0  0  0
 21 25  1  0  0  0
 12 13  1  0  0  0
M  END
> <minimizedAffinity>
-9.42159

$$$$



 33 35  0  0  0  0  0  0  0  0999 V2000
    0.5638   65.1965   84.0685 C   0  0  0  0  0  0  0  0  0  0  0  0
    1.4298   66.0422   84.6074 N   0  0  0  0  0  0  0  0  0  0  0  0
    1.7617   66.9267   83.6100 C   0  0  0  0  0  0  0  0  0  0  0  0
    2.6633   68.0550   83.6552 C   0  0  0  0  0  0  0  0  0  0  0  0
    3.2630   68.3890   84.6738 O   0  0  0  0  0  0  0  0  0  0  0  0
    2.7678   68.7240   82.4232 N   0  0  0  0  0  0  0  0  0  0  0  0
    3.6546   69.8691   82.3636 C   0  0  0  0  0  0  0  0  0  0  0  0
    2.0414   68.4384   81.2479 C   0  0  0  0  0  0  0  0  0  0  0  0
    2.1649   69.1324   80.2346 O   0  0  0  0  0  0  0  0  0  0  0  0
    1.1706   67.3316   81.2765 N   0  0  0  0  0  0  0  0  0  0  0  0
    1.0881   66.6303   82.4602 C   0  0  0  0  0  0  0  0  0  0  0  0
    0.3333   65.5340   82.7482 N   0  0  0  0  0  0  0  0  0  0  0  0
   -0.3005   65.0366   82.1378 H   0  0  0  0  0  0  0  0  0  0  0  0
   -0.9979   63.2052   84.1299 C   0  0  0  0  0  0  0  0  0  0  0  0
   -1.6767   62.2191   84.8597 C   0  0  0  0  0  0  0  0  0  0  0  0
   -1.4298   62.0630   86.2223 C   0  0  0  0  0  0  0  0  0  0  0  0
   -0.5104   62.9045   86.8491 C   0  0  0  0  0  0  0  0  0  0  0  0
    0.1485   63.9085   86.1304 C   0  0  0  0  0  0  0  0  0  0  0  0
   -0.1056   64.0901   84.7615 C   0  0  0  0  0  0  0  0  0  0  0  0
   -0.1686   62.7159   88.5730 S   0  0  0  0  0  0  0  0  0  0  0  0
    1.1952   63.6722   88.7783 N   0  0  0  0  0  0  0  0  0  0  0  0
    0.2383   61.3540   88.8185 O   0  0  0  0  0  0  0  0  0  0  0  0
   -1.2098   63.3669   89.3346 O   0  0  0  0  0  0  0  0  0  0  0  0
    0.9909   64.4352   89.4238 H   0  0  0  0  0  0  0  0  0  0  0  0
    1.9870   63.0928   89.0606 H   0  0  0  0  0  0  0  0  0  0  0  0
   -1.2659   63.3244   82.7871 O   0  0  0  0  0  0  0  0  0  0  0  0
   -1.0492   62.0788   82.1008 C   0  0  0  0  0  0  0  0  0  0  0  0
    1.3134   61.1645   82.1123 C   0  0  0  0  0  0  0  0  0  0  0  0
    0.3262   62.1058   81.4398 C   0  0  0  0  0  0  0  0  0  0  0  0
    0.4080   66.9925   80.0747 C   0  0  0  0  0  0  0  0  0  0  0  0
    0.8592   65.6766   79.4140 C   0  0  0  0  0  0  0  0  0  0  0  0
    2.1648   65.8353   78.6332 C   0  0  0  0  0  0  0  0  0  0  0  0
   -0.2414   65.1658   78.4817 C   0  0  0  0  0  0  0  0  0  0  0  0
 28 29  1  0  0  0
 29 27  1  0  0  0
 27 26  1  0  0  0
 26 14  1  0  0  0
 14 15  1  0  0  0
 15 16  2  0  0  0
 16 17  1  0  0  0
 17 20  1  0  0  0
 20 21  1  0  0  0
 20 22  2  0  0  0
 20 23  2  0  0  0
 17 18  2  0  0  0
 18 19  1  0  0  0
 19  1  1  0  0  0
  1  2  2  0  0  0
  2  3  1  0  0  0
  3  4  1  0  0  0
  4  5  2  0  0  0
  4  6  1  0  0  0
  6  7  1  0  0  0
  6  8  1  0  0  0
  8  9  2  0  0  0
  8 10  1  0  0  0
 10 30  1  0  0  0
 30 31  1  0  0  0
 31 32  1  0  0  0
 31 33  1  0  0  0
 10 11  1  0  0  0
 11 12  1  0  0  0
 19 14  2  0  0  0
 12  1  1  0  0  0
 11  3  2  0  0  0
 21 24  1  0  0  0
 21 25  1  0  0  0
 12 13  1  0  0  0
M  END
> <minimizedAffinity>
-9.37883

$$$$



 33 35  0  0  0  0  0  0  0  0999 V2000
    0.7789   65.3394   84.1456 C   0  0  0  0  0  0  0  0  0  0  0  0
    0.5158   65.7067   82.9001 N   0  0  0  0  0  0  0  0  0  0  0  0
    1.3407   66.7744   82.6409 C   0  0  0  0  0  0  0  0  0  0  0  0
    1.4684   67.5551   81.4318 C   0  0  0  0  0  0  0  0  0  0  0  0
    0.8205   67.3205   80.4149 O   0  0  0  0  0  0  0  0  0  0  0  0
    2.4109   68.5920   81.5448 N   0  0  0  0  0  0  0  0  0  0  0  0
    2.6084   69.4380   80.3843 C   0  0  0  0  0  0  0  0  0  0  0  0
    3.2421   68.8545   82.6541 C   0  0  0  0  0  0  0  0  0  0  0  0
    4.0842   69.7566   82.6237 O   0  0  0  0  0  0  0  0  0  0  0  0
    3.0737   68.0474   83.7961 N   0  0  0  0  0  0  0  0  0  0  0  0
    2.1204   67.0544   83.7260 C   0  0  0  0  0  0  0  0  0  0  0  0
    1.7630   66.1499   84.6792 N   0  0  0  0  0  0  0  0  0  0  0  0
    2.1348   66.0507   85.6139 H   0  0  0  0  0  0  0  0  0  0  0  0
   -0.5925   63.2131   84.2249 C   0  0  0  0  0  0  0  0  0  0  0  0
   -1.2254   62.2059   84.9669 C   0  0  0  0  0  0  0  0  0  0  0  0
   -1.0588   62.1457   86.3492 C   0  0  0  0  0  0  0  0  0  0  0  0
   -0.2661   63.1034   86.9823 C   0  0  0  0  0  0  0  0  0  0  0  0
    0.3447   64.1270   86.2491 C   0  0  0  0  0  0  0  0  0  0  0  0
    0.1689   64.2115   84.8586 C   0  0  0  0  0  0  0  0  0  0  0  0
   -0.0269   63.0389   88.7324 S   0  0  0  0  0  0  0  0  0  0  0  0
    0.3420   61.4217   88.9879 N   0  0  0  0  0  0  0  0  0  0  0  0
   -1.2911   63.2842   89.3824 O   0  0  0  0  0  0  0  0  0  0  0  0
    1.1765   63.7633   89.0714 O   0  0  0  0  0  0  0  0  0  0  0  0
    1.2840   61.3361   89.3697 H   0  0  0  0  0  0  0  0  0  0  0  0
   -0.3792   60.9876   89.5657 H   0  0  0  0  0  0  0  0  0  0  0  0
   -0.7780   63.2356   82.8632 O   0  0  0  0  0  0  0  0  0  0  0  0
   -0.7114   61.9105   82.3072 C   0  0  0  0  0  0  0  0  0  0  0  0
    1.6112   60.9291   82.0610 C   0  0  0  0  0  0  0  0  0  0  0  0
    0.5337   61.7986   81.4317 C   0  0  0  0  0  0  0  0  0  0  0  0
    3.9065   68.2944   84.9736 C   0  0  0  0  0  0  0  0  0  0  0  0
    4.9299   67.1762   85.2453 C   0  0  0  0  0  0  0  0  0  0  0  0
    5.3709   67.1339   86.7093 C   0  0  0  0  0  0  0  0  0  0  0  0
    6.1512   67.3670   84.3433 C   0  0  0  0  0  0  0  0  0  0  0  0
 28 29  1  0  0  0
 29 27  1  0  0  0
 27 26  1  0  0  0
 26 14  1  0  0  0
 14 15  1  0  0  0
 15 16  2  0  0  0
 16 17  1  0  0  0
 17 20  1  0  0  0
 20 21  1  0  0  0
 20 22  2  0  0  0
 20 23  2  0  0  0
 17 18  2  0  0  0
 18 19  1  0  0  0
 19  1  1  0  0  0
  1  2  2  0  0  0
  2  3  1  0  0  0
  3  4  1  0  0  0
  4  5  2  0  0  0
  4  6  1  0  0  0
  6  7  1  0  0  0
  6  8  1  0  0  0
  8  9  2  0  0  0
  8 10  1  0  0  0
 10 30  1  0  0  0
 30 31  1  0  0  0
 31 32  1  0  0  0
 31 33  1  0  0  0
 10 11  1  0  0  0
 11 12  1  0  0  0
 19 14  2  0  0  0
 12  1  1  0  0  0
 11  3  2  0  0  0
 21 24  1  0  0  0
 21 25  1  0  0  0
 12 13  1  0  0  0
M  END
> <minimizedAffinity>
-9.31396

$$$$
