
     RDKit          3D

 34 36  0  0  0  0  0  0  0  0999 V2000
    0.2339   63.8486   80.8372 N   0  0  0  0  0  0  0  0  0  0  0  0
   -0.0890   65.1254   81.2299 C   0  0  0  0  0  0  0  0  0  0  0  0
   -0.7557   65.9538   80.6234 O   0  0  0  0  0  0  0  0  0  0  0  0
    0.8142   63.2963   81.4559 H   0  0  0  0  0  0  0  0  0  0  0  0
    0.4881   65.4679   82.5718 C   0  0  0  0  0  0  0  0  0  0  0  0
    0.2481   64.6453   83.6633 C   0  0  0  0  0  0  0  0  0  0  0  0
    0.8034   65.0035   84.8853 C   0  0  0  0  0  0  0  0  0  0  0  0
    1.5744   66.1602   84.9730 C   0  0  0  0  0  0  0  0  0  0  0  0
    1.7783   66.9339   83.8297 C   0  0  0  0  0  0  0  0  0  0  0  0
    1.2377   66.6098   82.6260 N   0  0  0  0  0  0  0  0  0  0  0  0
    2.6026   68.2027   83.9025 C   0  0  0  0  0  0  0  0  0  0  0  0
    3.9998   67.9765   83.6965 O   0  0  0  0  0  0  0  0  0  0  0  0
    4.6899   67.2699   84.6423 C   0  0  0  0  0  0  0  0  0  0  0  0
    5.2118   65.9840   84.4978 C   0  0  0  0  0  0  0  0  0  0  0  0
    5.8903   65.3776   85.5602 C   0  0  0  0  0  0  0  0  0  0  0  0
    6.0486   66.0509   86.7699 C   0  0  0  0  0  0  0  0  0  0  0  0
    5.5257   67.3322   86.9216 C   0  0  0  0  0  0  0  0  0  0  0  0
    4.8476   67.9359   85.8614 C   0  0  0  0  0  0  0  0  0  0  0  0
   -1.2060   62.1442   78.0834 C   0  0  0  0  0  0  0  0  0  0  0  0
   -0.2814   62.8268   77.3087 C   0  0  0  0  0  0  0  0  0  0  0  0
    0.6960   63.8286   78.2993 S   0  0  0  0  0  0  0  0  0  0  0  0
   -0.1779   63.2953   79.6638 C   0  0  0  0  0  0  0  0  0  0  0  0
   -1.1296   62.4283   79.4404 N   0  0  0  0  0  0  0  0  0  0  0  0
   -2.2469   61.1541   77.6224 C   0  0  1  0  0  0  0  0  0  0  0  0
   -1.6124   59.7863   77.4481 C   0  0  0  0  0  0  0  0  0  0  0  0
   -1.9597   58.9007   76.6818 O   0  0  0  0  0  0  0  0  0  0  0  0
   -0.5069   59.6226   78.2062 O   0  0  0  0  0  0  0  0  0  0  0  0
   -0.2140   58.7067   78.0146 H   0  0  0  0  0  0  0  0  0  0  0  0
   -3.4346   61.0730   78.6015 C   0  0  0  0  0  0  0  0  0  0  0  0
   -3.5259   59.7547   79.3757 C   0  0  0  0  0  0  0  0  0  0  0  0
   -3.3949   60.9893   81.4758 O   0  0  0  0  0  0  0  0  0  0  0  0
   -3.3684   59.9387   80.8603 C   0  0  0  0  0  0  0  0  0  0  0  0
   -3.1399   58.7742   81.4957 O   0  0  0  0  0  0  0  0  0  0  0  0
   -3.0587   59.0323   82.4384 H   0  0  0  0  0  0  0  0  0  0  0  0
 31 32  2  0
 32 33  1  0
 32 30  1  0
 30 29  1  0
 24 29  1  1
 24 25  1  0
 25 26  2  0
 25 27  1  0
 24 19  1  0
 19 20  2  0
 20 21  1  0
 21 22  1  0
 22  1  1  0
  1  2  1  0
  2  3  2  0
  2  5  1  0
  5  6  2  0
  6  7  1  0
  7  8  2  0
  8  9  1  0
  9 11  1  0
 11 12  1  0
 12 13  1  0
 13 14  2  0
 14 15  1  0
 15 16  2  0
 16 17  1  0
 17 18  2  0
  9 10  2  0
 22 23  2  0
 23 19  1  0
 10  5  1  0
 18 13  1  0
 33 34  1  0
 27 28  1  0
  1  4  1  0
M  END
>  <minimizedAffinity>  (1) 
-9.15509

$$$$
