
     RDKit          3D

 34 36  0  0  0  0  0  0  0  0999 V2000
   -4.5876    1.1503   -1.1310 C   0  0  0  0  0  0  0  0  0  0  0  0
   -3.0951    1.0566   -0.8704 C   0  0  0  0  0  0  0  0  0  0  0  0
   -2.7139   -0.2690   -0.2179 C   0  0  0  0  0  0  0  0  0  0  0  0
   -1.2981   -0.2585   -0.0155 O   0  0  0  0  0  0  0  0  0  0  0  0
   -0.7142   -1.3566    0.5668 C   0  0  0  0  0  0  0  0  0  0  0  0
   -1.4411   -2.4883    0.9685 C   0  0  0  0  0  0  0  0  0  0  0  0
   -0.8007   -3.5814    1.5569 C   0  0  0  0  0  0  0  0  0  0  0  0
    0.5737   -3.5603    1.7525 C   0  0  0  0  0  0  0  0  0  0  0  0
    1.3104   -2.4440    1.3590 C   0  0  0  0  0  0  0  0  0  0  0  0
    0.6856   -1.3308    0.7638 C   0  0  0  0  0  0  0  0  0  0  0  0
    1.5815   -0.1789    0.3779 C   0  0  0  0  0  0  0  0  0  0  0  0
    2.8637   -0.2552    0.6056 N   0  0  0  0  0  0  0  0  0  0  0  0
    3.5999    0.8619    0.2113 C   0  0  0  0  0  0  0  0  0  0  0  0
    4.9469    1.0355    0.3357 N   0  0  0  0  0  0  0  0  0  0  0  0
    5.1812    2.2296   -0.1691 C   0  0  0  0  0  0  0  0  0  0  0  0
    4.0317    2.8280   -0.6128 N   0  0  0  0  0  0  0  0  0  0  0  0
    3.0178    1.9516   -0.3692 C   0  0  0  0  0  0  0  0  0  0  0  0
    1.6313    2.0488   -0.6221 C   0  0  0  0  0  0  0  0  0  0  0  0
    1.0747    3.0091   -1.1402 O   0  0  0  0  0  0  0  0  0  0  0  0
    0.9685    0.9203   -0.2117 N   0  0  0  0  0  0  0  0  0  0  0  0
   -4.8317    2.1094   -1.5983 H   0  0  0  0  0  0  0  0  0  0  0  0
   -4.9195    0.3514   -1.8016 H   0  0  0  0  0  0  0  0  0  0  0  0
   -5.1543    1.0733   -0.1976 H   0  0  0  0  0  0  0  0  0  0  0  0
   -2.5443    1.1747   -1.8114 H   0  0  0  0  0  0  0  0  0  0  0  0
   -2.7759    1.8869   -0.2289 H   0  0  0  0  0  0  0  0  0  0  0  0
   -3.2306   -0.3637    0.7445 H   0  0  0  0  0  0  0  0  0  0  0  0
   -2.9923   -1.0957   -0.8821 H   0  0  0  0  0  0  0  0  0  0  0  0
   -2.5165   -2.5572    0.8389 H   0  0  0  0  0  0  0  0  0  0  0  0
   -1.3785   -4.4506    1.8626 H   0  0  0  0  0  0  0  0  0  0  0  0
    1.0769   -4.4086    2.2101 H   0  0  0  0  0  0  0  0  0  0  0  0
    2.3875   -2.4511    1.5228 H   0  0  0  0  0  0  0  0  0  0  0  0
    6.1493    2.7078   -0.2395 H   0  0  0  0  0  0  0  0  0  0  0  0
    3.9459    3.7413   -1.0388 H   0  0  0  0  0  0  0  0  0  0  0  0
   -0.0324    0.9132   -0.3591 H   0  0  0  0  0  0  0  0  0  0  0  0
  1  2  1  0
  2  3  1  0
  3  4  1  0
  4  5  1  0
  5  6  2  0
  6  7  1  0
  7  8  2  0
  8  9  1  0
  9 10  2  0
 10 11  1  0
 11 12  2  0
 12 13  1  0
 13 14  1  0
 14 15  2  0
 15 16  1  0
 16 17  1  0
 17 18  1  0
 18 19  2  0
 18 20  1  0
 10  5  1  0
 20 11  1  0
 17 13  2  0
  1 21  1  0
  1 22  1  0
  1 23  1  0
  2 24  1  0
  2 25  1  0
  3 26  1  0
  3 27  1  0
  6 28  1  0
  7 29  1  0
  8 30  1  0
  9 31  1  0
 15 32  1  0
 16 33  1  0
 20 34  1  0
M  END
$$$$
