
     RDKit          3D

 77 80  0  0  0  0  0  0  0  0999 V2000
   -2.7393    3.5292    4.2566 C   0  0  0  0  0  0  0  0  0  0  0  0
   -1.4671    4.0198    3.5791 C   0  0  0  0  0  0  0  0  0  0  0  0
   -1.1737    3.2708    2.2817 C   0  0  0  0  0  0  0  0  0  0  0  0
   -0.9863    1.8758    2.5557 O   0  0  0  0  0  0  0  0  0  0  0  0
    0.2537    1.3723    2.2418 C   0  0  0  0  0  0  0  0  0  0  0  0
    1.4287    2.0358    2.6239 C   0  0  0  0  0  0  0  0  0  0  0  0
    2.6772    1.4987    2.3083 C   0  0  0  0  0  0  0  0  0  0  0  0
    2.7472    0.2791    1.6362 C   0  0  0  0  0  0  0  0  0  0  0  0
    4.3305   -0.4047    1.2128 S   0  0  0  0  0  0  0  0  0  0  0  0
    4.5183   -1.5648    2.0552 O   0  0  0  0  0  0  0  0  0  0  0  0
    5.2895    0.6799    1.1903 O   0  0  0  0  0  0  0  0  0  0  0  0
    4.1152   -0.9258   -0.3947 N   0  0  0  0  0  0  0  0  0  0  0  0
    3.8929    0.1676   -1.3999 C   0  0  0  0  0  0  0  0  0  0  0  0
    3.5170   -0.4452   -2.7638 C   0  0  0  0  0  0  0  0  0  0  0  0
    4.5511   -1.3854   -3.2181 N   0  0  0  0  0  0  0  0  0  0  0  0
    5.6517   -0.8879   -3.9089 C   0  0  0  0  0  0  0  0  0  0  0  0
    6.8041   -1.1639   -3.5783 O   0  0  0  0  0  0  0  0  0  0  0  0
    5.3655   -0.0510   -4.9830 N   0  0  0  0  0  0  0  0  0  0  0  0
    6.4920    0.6396   -5.5846 C   0  0  0  0  0  0  0  0  0  0  0  0
    4.2757   -0.3691   -5.8966 C   0  0  0  0  0  0  0  0  0  0  0  0
    4.8164   -2.4410   -2.2366 C   0  0  0  0  0  0  0  0  0  0  0  0
    5.1992   -1.8585   -0.8650 C   0  0  0  0  0  0  0  0  0  0  0  0
    1.5843   -0.4089    1.2794 C   0  0  0  0  0  0  0  0  0  0  0  0
    0.3223    0.1260    1.5823 C   0  0  0  0  0  0  0  0  0  0  0  0
   -0.8658   -0.6352    1.1774 C   0  0  0  0  0  0  0  0  0  0  0  0
   -0.9035   -1.6107    0.2811 N   0  0  0  0  0  0  0  0  0  0  0  0
   -2.2153   -2.0204    0.2298 C   0  0  0  0  0  0  0  0  0  0  0  0
   -2.8209   -3.0443   -0.5909 C   0  0  0  0  0  0  0  0  0  0  0  0
   -2.1774   -3.7351   -1.3771 O   0  0  0  0  0  0  0  0  0  0  0  0
   -4.2086   -3.1590   -0.3924 N   0  0  0  0  0  0  0  0  0  0  0  0
   -4.9085   -4.1629   -1.1692 C   0  0  0  0  0  0  0  0  0  0  0  0
   -4.9877   -2.4335    0.5335 C   0  0  0  0  0  0  0  0  0  0  0  0
   -6.1968   -2.6457    0.6635 O   0  0  0  0  0  0  0  0  0  0  0  0
   -4.3329   -1.4549    1.3055 N   0  0  0  0  0  0  0  0  0  0  0  0
   -5.1170   -0.6694    2.2584 C   0  0  0  0  0  0  0  0  0  0  0  0
   -5.9038    0.4808    1.6005 C   0  0  0  0  0  0  0  0  0  0  0  0
   -4.9819    1.5468    1.0062 C   0  0  0  0  0  0  0  0  0  0  0  0
   -6.8385    1.1218    2.6284 C   0  0  0  0  0  0  0  0  0  0  0  0
   -2.9787   -1.3019    1.1044 C   0  0  0  0  0  0  0  0  0  0  0  0
   -2.1247   -0.4312    1.7069 N   0  0  0  0  0  0  0  0  0  0  0  0
   -2.6661    2.4709    4.5261 H   0  0  0  0  0  0  0  0  0  0  0  0
   -2.9214    4.0983    5.1737 H   0  0  0  0  0  0  0  0  0  0  0  0
   -3.6062    3.6582    3.6010 H   0  0  0  0  0  0  0  0  0  0  0  0
   -0.6332    3.8922    4.2780 H   0  0  0  0  0  0  0  0  0  0  0  0
   -1.5623    5.0901    3.3662 H   0  0  0  0  0  0  0  0  0  0  0  0
   -2.0346    3.3508    1.6079 H   0  0  0  0  0  0  0  0  0  0  0  0
   -0.3273    3.7262    1.7536 H   0  0  0  0  0  0  0  0  0  0  0  0
    1.3903    2.9679    3.1807 H   0  0  0  0  0  0  0  0  0  0  0  0
    3.5839    2.0248    2.6008 H   0  0  0  0  0  0  0  0  0  0  0  0
    3.0765    0.8202   -1.0771 H   0  0  0  0  0  0  0  0  0  0  0  0
    4.8046    0.7689   -1.4972 H   0  0  0  0  0  0  0  0  0  0  0  0
    3.3698    0.3657   -3.4820 H   0  0  0  0  0  0  0  0  0  0  0  0
    2.5781   -1.0052   -2.6834 H   0  0  0  0  0  0  0  0  0  0  0  0
    6.1294    1.5044   -6.1475 H   0  0  0  0  0  0  0  0  0  0  0  0
    7.1834    0.9868   -4.8104 H   0  0  0  0  0  0  0  0  0  0  0  0
    7.0211   -0.0468   -6.2529 H   0  0  0  0  0  0  0  0  0  0  0  0
    3.4820   -0.9512   -5.4241 H   0  0  0  0  0  0  0  0  0  0  0  0
    3.8582    0.5633   -6.2870 H   0  0  0  0  0  0  0  0  0  0  0  0
    4.6763   -0.9651   -6.7231 H   0  0  0  0  0  0  0  0  0  0  0  0
    3.9002   -3.0373   -2.1491 H   0  0  0  0  0  0  0  0  0  0  0  0
    5.6089   -3.1029   -2.6031 H   0  0  0  0  0  0  0  0  0  0  0  0
    5.3109   -2.6869   -0.1581 H   0  0  0  0  0  0  0  0  0  0  0  0
    6.1485   -1.3143   -0.9240 H   0  0  0  0  0  0  0  0  0  0  0  0
    1.6575   -1.3682    0.7664 H   0  0  0  0  0  0  0  0  0  0  0  0
   -4.3132   -4.5304   -2.0090 H   0  0  0  0  0  0  0  0  0  0  0  0
   -5.8432   -3.7471   -1.5598 H   0  0  0  0  0  0  0  0  0  0  0  0
   -5.1510   -5.0028   -0.5099 H   0  0  0  0  0  0  0  0  0  0  0  0
   -4.4582   -0.2876    3.0475 H   0  0  0  0  0  0  0  0  0  0  0  0
   -5.8202   -1.3529    2.7514 H   0  0  0  0  0  0  0  0  0  0  0  0
   -6.5212    0.0788    0.7879 H   0  0  0  0  0  0  0  0  0  0  0  0
   -4.3027    1.9512    1.7635 H   0  0  0  0  0  0  0  0  0  0  0  0
   -5.5639    2.3791    0.5960 H   0  0  0  0  0  0  0  0  0  0  0  0
   -4.3798    1.1392    0.1885 H   0  0  0  0  0  0  0  0  0  0  0  0
   -7.5343    0.3815    3.0372 H   0  0  0  0  0  0  0  0  0  0  0  0
   -7.4331    1.9193    2.1701 H   0  0  0  0  0  0  0  0  0  0  0  0
   -6.2755    1.5553    3.4620 H   0  0  0  0  0  0  0  0  0  0  0  0
   -2.3366    0.2717    2.4014 H   0  0  0  0  0  0  0  0  0  0  0  0
  1  2  1  0
  2  3  1  0
  3  4  1  0
  4  5  1  0
  5  6  1  0
  6  7  2  0
  7  8  1  0
  8  9  1  0
  9 10  2  0
  9 11  2  0
  9 12  1  0
 12 13  1  0
 13 14  1  0
 14 15  1  0
 15 16  1  0
 16 17  2  0
 16 18  1  0
 18 19  1  0
 18 20  1  0
 15 21  1  0
 21 22  1  0
  8 23  2  0
 23 24  1  0
 24 25  1  0
 25 26  2  0
 26 27  1  0
 27 28  1  0
 28 29  2  0
 28 30  1  0
 30 31  1  0
 30 32  1  0
 32 33  2  0
 32 34  1  0
 34 35  1  0
 35 36  1  0
 36 37  1  0
 36 38  1  0
 34 39  1  0
 39 40  1  0
 24  5  2  0
 40 25  1  0
 22 12  1  0
 39 27  2  0
  1 41  1  0
  1 42  1  0
  1 43  1  0
  2 44  1  0
  2 45  1  0
  3 46  1  0
  3 47  1  0
  6 48  1  0
  7 49  1  0
 13 50  1  0
 13 51  1  0
 14 52  1  0
 14 53  1  0
 19 54  1  0
 19 55  1  0
 19 56  1  0
 20 57  1  0
 20 58  1  0
 20 59  1  0
 21 60  1  0
 21 61  1  0
 22 62  1  0
 22 63  1  0
 23 64  1  0
 31 65  1  0
 31 66  1  0
 31 67  1  0
 35 68  1  0
 35 69  1  0
 36 70  1  0
 37 71  1  0
 37 72  1  0
 37 73  1  0
 38 74  1  0
 38 75  1  0
 38 76  1  0
 40 77  1  0
M  END
$$$$
