
     RDKit          3D

 55 57  0  0  0  0  0  0  0  0999 V2000
   -0.0103   -0.3578   -4.1039 C   0  0  0  0  0  0  0  0  0  0  0  0
   -1.5030   -0.1464   -3.9038 C   0  0  0  0  0  0  0  0  0  0  0  0
   -1.9030   -0.1648   -2.4311 C   0  0  0  0  0  0  0  0  0  0  0  0
   -1.2673    0.9358   -1.7572 O   0  0  0  0  0  0  0  0  0  0  0  0
   -2.1131    1.5123   -0.8399 C   0  0  0  0  0  0  0  0  0  0  0  0
   -3.1657    2.3087   -1.3128 C   0  0  0  0  0  0  0  0  0  0  0  0
   -4.0480    2.9071   -0.4153 C   0  0  0  0  0  0  0  0  0  0  0  0
   -3.8636    2.7125    0.9538 C   0  0  0  0  0  0  0  0  0  0  0  0
   -4.9786    3.4482    2.1113 S   0  0  0  0  0  0  0  0  0  0  0  0
   -3.9603    4.4159    3.0297 N   0  0  0  0  0  0  0  0  0  0  0  0
   -5.4790    2.4200    2.9906 O   0  0  0  0  0  0  0  0  0  0  0  0
   -5.8484    4.3654    1.4113 O   0  0  0  0  0  0  0  0  0  0  0  0
   -2.7977    1.9414    1.4312 C   0  0  0  0  0  0  0  0  0  0  0  0
   -1.8895    1.3493    0.5390 C   0  0  0  0  0  0  0  0  0  0  0  0
   -0.7538    0.6033    1.0924 C   0  0  0  0  0  0  0  0  0  0  0  0
   -0.6240    0.2019    2.3484 N   0  0  0  0  0  0  0  0  0  0  0  0
    0.6014   -0.4150    2.4211 C   0  0  0  0  0  0  0  0  0  0  0  0
    1.2461   -1.0302    3.5585 C   0  0  0  0  0  0  0  0  0  0  0  0
    0.7426   -1.0531    4.6787 O   0  0  0  0  0  0  0  0  0  0  0  0
    2.5005   -1.5826    3.2462 N   0  0  0  0  0  0  0  0  0  0  0  0
    3.2264   -2.2296    4.3213 C   0  0  0  0  0  0  0  0  0  0  0  0
    3.1636   -1.5117    2.0029 C   0  0  0  0  0  0  0  0  0  0  0  0
    4.2965   -1.9788    1.8542 O   0  0  0  0  0  0  0  0  0  0  0  0
    2.4829   -0.8874    0.9395 N   0  0  0  0  0  0  0  0  0  0  0  0
    3.1294   -0.8040   -0.3705 C   0  0  0  0  0  0  0  0  0  0  0  0
    2.6212   -1.8574   -1.3724 C   0  0  0  0  0  0  0  0  0  0  0  0
    2.9193   -3.2864   -0.9158 C   0  0  0  0  0  0  0  0  0  0  0  0
    3.2547   -1.6105   -2.7433 C   0  0  0  0  0  0  0  0  0  0  0  0
    1.2299   -0.3807    1.2097 C   0  0  0  0  0  0  0  0  0  0  0  0
    0.3720    0.2597    0.3680 N   0  0  0  0  0  0  0  0  0  0  0  0
    0.2998   -1.3276   -3.7033 H   0  0  0  0  0  0  0  0  0  0  0  0
    0.5748    0.4242   -3.6101 H   0  0  0  0  0  0  0  0  0  0  0  0
    0.2344   -0.3395   -5.1705 H   0  0  0  0  0  0  0  0  0  0  0  0
   -2.0513   -0.9296   -4.4388 H   0  0  0  0  0  0  0  0  0  0  0  0
   -1.7808    0.8175   -4.3459 H   0  0  0  0  0  0  0  0  0  0  0  0
   -1.5654   -1.0929   -1.9551 H   0  0  0  0  0  0  0  0  0  0  0  0
   -2.9980   -0.1337   -2.3605 H   0  0  0  0  0  0  0  0  0  0  0  0
   -3.2999    2.4609   -2.3810 H   0  0  0  0  0  0  0  0  0  0  0  0
   -4.8694    3.5153   -0.7881 H   0  0  0  0  0  0  0  0  0  0  0  0
   -4.2262    5.3954    2.9277 H   0  0  0  0  0  0  0  0  0  0  0  0
   -3.9490    4.0892    3.9969 H   0  0  0  0  0  0  0  0  0  0  0  0
   -2.6643    1.8081    2.5050 H   0  0  0  0  0  0  0  0  0  0  0  0
    2.5951   -2.4283    5.1913 H   0  0  0  0  0  0  0  0  0  0  0  0
    4.0535   -1.5783    4.6221 H   0  0  0  0  0  0  0  0  0  0  0  0
    3.6425   -3.1790    3.9686 H   0  0  0  0  0  0  0  0  0  0  0  0
    2.9516    0.2054   -0.7629 H   0  0  0  0  0  0  0  0  0  0  0  0
    4.2158   -0.8967   -0.2539 H   0  0  0  0  0  0  0  0  0  0  0  0
    1.5340   -1.7584   -1.4783 H   0  0  0  0  0  0  0  0  0  0  0  0
    2.5891   -4.0102   -1.6689 H   0  0  0  0  0  0  0  0  0  0  0  0
    2.3942   -3.5231    0.0147 H   0  0  0  0  0  0  0  0  0  0  0  0
    3.9918   -3.4363   -0.7521 H   0  0  0  0  0  0  0  0  0  0  0  0
    2.8708   -2.3209   -3.4831 H   0  0  0  0  0  0  0  0  0  0  0  0
    3.0282   -0.6008   -3.1013 H   0  0  0  0  0  0  0  0  0  0  0  0
    4.3440   -1.7189   -2.7034 H   0  0  0  0  0  0  0  0  0  0  0  0
    0.5038    0.4734   -0.6111 H   0  0  0  0  0  0  0  0  0  0  0  0
  1  2  1  0
  2  3  1  0
  3  4  1  0
  4  5  1  0
  5  6  1  0
  6  7  2  0
  7  8  1  0
  8  9  1  0
  9 10  1  0
  9 11  2  0
  9 12  2  0
  8 13  2  0
 13 14  1  0
 14 15  1  0
 15 16  2  0
 16 17  1  0
 17 18  1  0
 18 19  2  0
 18 20  1  0
 20 21  1  0
 20 22  1  0
 22 23  2  0
 22 24  1  0
 24 25  1  0
 25 26  1  0
 26 27  1  0
 26 28  1  0
 24 29  1  0
 29 30  1  0
 14  5  2  0
 30 15  1  0
 29 17  2  0
  1 31  1  0
  1 32  1  0
  1 33  1  0
  2 34  1  0
  2 35  1  0
  3 36  1  0
  3 37  1  0
  6 38  1  0
  7 39  1  0
 10 40  1  0
 10 41  1  0
 13 42  1  0
 21 43  1  0
 21 44  1  0
 21 45  1  0
 25 46  1  0
 25 47  1  0
 26 48  1  0
 27 49  1  0
 27 50  1  0
 27 51  1  0
 28 52  1  0
 28 53  1  0
 28 54  1  0
 30 55  1  0
M  END
$$$$
