


 23 26  0  0  0  0  0  0  0  0999 V2000
    0.1970   64.4857   84.8559 C   0  0  0  0  0  0  0  0  0  0  0  0
    1.2732   65.1172   85.3530 N   0  0  0  0  0  0  0  0  0  0  0  0
    2.0255   65.8368   84.5050 C   0  0  0  0  0  0  0  0  0  0  0  0
    1.6935   65.9673   83.1449 C   0  0  0  0  0  0  0  0  0  0  0  0
    2.4096   66.7473   82.2000 C   0  0  0  0  0  0  0  0  0  0  0  0
    2.0068   66.8065   80.8677 C   0  0  0  0  0  0  0  0  0  0  0  0
    0.8866   66.0940   80.4646 C   0  0  0  0  0  0  0  0  0  0  0  0
    0.1754   65.3351   81.3982 C   0  0  0  0  0  0  0  0  0  0  0  0
    0.5564   65.2630   82.7330 C   0  0  0  0  0  0  0  0  0  0  0  0
   -0.1804   64.5260   83.5670 N   0  0  0  0  0  0  0  0  0  0  0  0
   -2.1899   62.1442   87.5796 C   0  0  0  0  0  0  0  0  0  0  0  0
   -2.4518   62.1088   86.2137 C   0  0  0  0  0  0  0  0  0  0  0  0
   -1.6760   62.8689   85.3321 C   0  0  0  0  0  0  0  0  0  0  0  0
   -0.6205   63.6827   85.7900 C   0  0  0  0  0  0  0  0  0  0  0  0
   -0.3807   63.6959   87.1782 C   0  0  0  0  0  0  0  0  0  0  0  0
   -1.1541   62.9374   88.0633 C   0  0  0  0  0  0  0  0  0  0  0  0
    3.1693   66.4982   85.0042 N   0  0  0  0  0  0  0  0  0  0  0  0
    3.2700   67.3889   84.5255 H   0  0  0  0  0  0  0  0  0  0  0  0
    4.4173   65.7279   85.0080 C   0  0  0  0  0  0  0  0  0  0  0  0
    4.7230   65.2960   86.4496 C   0  0  0  0  0  0  0  0  0  0  0  0
    5.6424   66.3817   86.9859 C   0  0  0  0  0  0  0  0  0  0  0  0
    6.5423   66.6746   85.7996 C   0  0  0  0  0  0  0  0  0  0  0  0
    5.6191   66.5944   84.5865 C   0  0  0  0  0  0  0  0  0  0  0  0
 11 12  2  0  0  0
 12 13  1  0  0  0
 13 14  2  0  0  0
 14  1  1  0  0  0
  1  2  2  0  0  0
  2  3  1  0  0  0
  3 17  1  0  0  0
 17 19  1  0  0  0
 19 20  1  0  0  0
 20 21  1  0  0  0
 21 22  1  0  0  0
 22 23  1  0  0  0
  3  4  2  0  0  0
  4  5  1  0  0  0
  5  6  2  0  0  0
  6  7  1  0  0  0
  7  8  2  0  0  0
  8  9  1  0  0  0
  9 10  2  0  0  0
 14 15  1  0  0  0
 15 16  2  0  0  0
 16 11  1  0  0  0
 10  1  1  0  0  0
 23 19  1  0  0  0
  9  4  1  0  0  0
 17 18  1  0  0  0
M  END
> <minimizedAffinity>
-9.78240

$$$$



 23 26  0  0  0  0  0  0  0  0999 V2000
    1.0952   65.9225   83.4947 C   0  0  0  0  0  0  0  0  0  0  0  0
    1.8524   66.4520   84.4696 N   0  0  0  0  0  0  0  0  0  0  0  0
    2.6019   67.5246   84.1689 C   0  0  0  0  0  0  0  0  0  0  0  0
    2.5807   68.1114   82.8913 C   0  0  0  0  0  0  0  0  0  0  0  0
    3.3055   69.2713   82.5124 C   0  0  0  0  0  0  0  0  0  0  0  0
    3.2267   69.7733   81.2153 C   0  0  0  0  0  0  0  0  0  0  0  0
    2.4240   69.1286   80.2852 C   0  0  0  0  0  0  0  0  0  0  0  0
    1.7018   67.9930   80.6622 C   0  0  0  0  0  0  0  0  0  0  0  0
    1.7622   67.4756   81.9509 C   0  0  0  0  0  0  0  0  0  0  0  0
    1.0344   66.3941   82.2380 N   0  0  0  0  0  0  0  0  0  0  0  0
   -1.2741   62.4512   84.4615 C   0  0  0  0  0  0  0  0  0  0  0  0
   -0.4827   63.0503   85.4364 C   0  0  0  0  0  0  0  0  0  0  0  0
    0.2847   64.1765   85.1205 C   0  0  0  0  0  0  0  0  0  0  0  0
    0.2823   64.7328   83.8258 C   0  0  0  0  0  0  0  0  0  0  0  0
   -0.5298   64.1033   82.8619 C   0  0  0  0  0  0  0  0  0  0  0  0
   -1.2986   62.9769   83.1735 C   0  0  0  0  0  0  0  0  0  0  0  0
    3.4158   68.0894   85.1758 N   0  0  0  0  0  0  0  0  0  0  0  0
    3.3282   69.1012   85.1413 H   0  0  0  0  0  0  0  0  0  0  0  0
    4.8166   67.6558   85.2003 C   0  0  0  0  0  0  0  0  0  0  0  0
    4.8741   66.1617   84.8501 C   0  0  0  0  0  0  0  0  0  0  0  0
    4.8551   65.4538   86.1955 C   0  0  0  0  0  0  0  0  0  0  0  0
    5.7498   66.3333   87.0493 C   0  0  0  0  0  0  0  0  0  0  0  0
    5.4168   67.7584   86.6152 C   0  0  0  0  0  0  0  0  0  0  0  0
 11 12  2  0  0  0
 12 13  1  0  0  0
 13 14  2  0  0  0
 14  1  1  0  0  0
  1  2  2  0  0  0
  2  3  1  0  0  0
  3 17  1  0  0  0
 17 19  1  0  0  0
 19 20  1  0  0  0
 20 21  1  0  0  0
 21 22  1  0  0  0
 22 23  1  0  0  0
  3  4  2  0  0  0
  4  5  1  0  0  0
  5  6  2  0  0  0
  6  7  1  0  0  0
  7  8  2  0  0  0
  8  9  1  0  0  0
  9 10  2  0  0  0
 14 15  1  0  0  0
 15 16  2  0  0  0
 16 11  1  0  0  0
 10  1  1  0  0  0
 23 19  1  0  0  0
  9  4  1  0  0  0
 17 18  1  0  0  0
M  END
> <minimizedAffinity>
-9.71454

$$$$



 23 26  0  0  0  0  0  0  0  0999 V2000
   -1.4372   62.5487   84.0279 C   0  0  0  0  0  0  0  0  0  0  0  0
   -0.7446   63.6880   83.8650 N   0  0  0  0  0  0  0  0  0  0  0  0
   -0.0844   64.1778   84.9265 C   0  0  0  0  0  0  0  0  0  0  0  0
   -0.0758   63.5152   86.1667 C   0  0  0  0  0  0  0  0  0  0  0  0
    0.6357   63.9438   87.3174 C   0  0  0  0  0  0  0  0  0  0  0  0
    0.5742   63.2224   88.5076 C   0  0  0  0  0  0  0  0  0  0  0  0
   -0.1921   62.0670   88.5626 C   0  0  0  0  0  0  0  0  0  0  0  0
   -0.8835   61.6396   87.4257 C   0  0  0  0  0  0  0  0  0  0  0  0
   -0.8349   62.3410   86.2266 C   0  0  0  0  0  0  0  0  0  0  0  0
   -1.5134   61.8634   85.1810 N   0  0  0  0  0  0  0  0  0  0  0  0
   -3.5899   61.0089   80.6230 C   0  0  0  0  0  0  0  0  0  0  0  0
   -3.2427   62.3550   80.6794 C   0  0  0  0  0  0  0  0  0  0  0  0
   -2.5441   62.8521   81.7848 C   0  0  0  0  0  0  0  0  0  0  0  0
   -2.1747   62.0203   82.8606 C   0  0  0  0  0  0  0  0  0  0  0  0
   -2.5404   60.6625   82.7726 C   0  0  0  0  0  0  0  0  0  0  0  0
   -3.2391   60.1613   81.6691 C   0  0  0  0  0  0  0  0  0  0  0  0
    0.6396   65.3818   84.7808 N   0  0  0  0  0  0  0  0  0  0  0  0
   -0.0167   66.1492   84.6663 H   0  0  0  0  0  0  0  0  0  0  0  0
    1.6871   65.3917   83.7543 C   0  0  0  0  0  0  0  0  0  0  0  0
    2.9557   66.0159   84.3537 C   0  0  0  0  0  0  0  0  0  0  0  0
    2.8716   67.4864   83.9769 C   0  0  0  0  0  0  0  0  0  0  0  0
    2.3344   67.4385   82.5584 C   0  0  0  0  0  0  0  0  0  0  0  0
    1.3125   66.3046   82.5715 C   0  0  0  0  0  0  0  0  0  0  0  0
 11 12  2  0  0  0
 12 13  1  0  0  0
 13 14  2  0  0  0
 14  1  1  0  0  0
  1  2  2  0  0  0
  2  3  1  0  0  0
  3 17  1  0  0  0
 17 19  1  0  0  0
 19 20  1  0  0  0
 20 21  1  0  0  0
 21 22  1  0  0  0
 22 23  1  0  0  0
  3  4  2  0  0  0
  4  5  1  0  0  0
  5  6  2  0  0  0
  6  7  1  0  0  0
  7  8  2  0  0  0
  8  9  1  0  0  0
  9 10  2  0  0  0
 14 15  1  0  0  0
 15 16  2  0  0  0
 16 11  1  0  0  0
 10  1  1  0  0  0
 23 19  1  0  0  0
  9  4  1  0  0  0
 17 18  1  0  0  0
M  END
> <minimizedAffinity>
-9.66929

$$$$



 23 26  0  0  0  0  0  0  0  0999 V2000
    0.7359   65.0884   84.0491 C   0  0  0  0  0  0  0  0  0  0  0  0
    0.1754   64.1079   83.3220 N   0  0  0  0  0  0  0  0  0  0  0  0
   -0.3634   63.0689   83.9798 C   0  0  0  0  0  0  0  0  0  0  0  0
   -0.3830   63.0084   85.3845 C   0  0  0  0  0  0  0  0  0  0  0  0
   -0.9751   61.9700   86.1496 C   0  0  0  0  0  0  0  0  0  0  0  0
   -0.9349   61.9940   87.5420 C   0  0  0  0  0  0  0  0  0  0  0  0
   -0.3092   63.0522   88.1852 C   0  0  0  0  0  0  0  0  0  0  0  0
    0.2639   64.0800   87.4311 C   0  0  0  0  0  0  0  0  0  0  0  0
    0.2337   64.0792   86.0414 C   0  0  0  0  0  0  0  0  0  0  0  0
    0.7929   65.1022   85.3914 N   0  0  0  0  0  0  0  0  0  0  0  0
    2.5018   68.3988   81.9227 C   0  0  0  0  0  0  0  0  0  0  0  0
    1.8673   67.3776   81.2226 C   0  0  0  0  0  0  0  0  0  0  0  0
    1.2948   66.3050   81.9145 C   0  0  0  0  0  0  0  0  0  0  0  0
    1.3409   66.2238   83.3206 C   0  0  0  0  0  0  0  0  0  0  0  0
    1.9900   67.2737   83.9998 C   0  0  0  0  0  0  0  0  0  0  0  0
    2.5637   68.3481   83.3118 C   0  0  0  0  0  0  0  0  0  0  0  0
   -0.9464   62.0204   83.2343 N   0  0  0  0  0  0  0  0  0  0  0  0
   -0.3941   61.8659   82.3954 H   0  0  0  0  0  0  0  0  0  0  0  0
   -2.3772   62.1486   82.9390 C   0  0  0  0  0  0  0  0  0  0  0  0
   -2.9983   60.7447   82.9012 C   0  0  0  0  0  0  0  0  0  0  0  0
   -2.9503   60.3459   81.4348 C   0  0  0  0  0  0  0  0  0  0  0  0
   -3.3120   61.6373   80.7246 C   0  0  0  0  0  0  0  0  0  0  0  0
   -2.6155   62.7295   81.5324 C   0  0  0  0  0  0  0  0  0  0  0  0
 11 12  2  0  0  0
 12 13  1  0  0  0
 13 14  2  0  0  0
 14  1  1  0  0  0
  1  2  2  0  0  0
  2  3  1  0  0  0
  3 17  1  0  0  0
 17 19  1  0  0  0
 19 20  1  0  0  0
 20 21  1  0  0  0
 21 22  1  0  0  0
 22 23  1  0  0  0
  3  4  2  0  0  0
  4  5  1  0  0  0
  5  6  2  0  0  0
  6  7  1  0  0  0
  7  8  2  0  0  0
  8  9  1  0  0  0
  9 10  2  0  0  0
 14 15  1  0  0  0
 15 16  2  0  0  0
 16 11  1  0  0  0
 10  1  1  0  0  0
 23 19  1  0  0  0
  9  4  1  0  0  0
 17 18  1  0  0  0
M  END
> <minimizedAffinity>
-9.44366

$$$$



 23 26  0  0  0  0  0  0  0  0999 V2000
   -1.0017   62.8847   83.8552 C   0  0  0  0  0  0  0  0  0  0  0  0
   -1.3555   61.7161   83.2952 N   0  0  0  0  0  0  0  0  0  0  0  0
   -1.1944   61.5820   81.9690 C   0  0  0  0  0  0  0  0  0  0  0  0
   -0.6409   62.6061   81.1805 C   0  0  0  0  0  0  0  0  0  0  0  0
   -0.3952   62.5212   79.7853 C   0  0  0  0  0  0  0  0  0  0  0  0
    0.1496   63.5965   79.0871 C   0  0  0  0  0  0  0  0  0  0  0  0
    0.4582   64.7638   79.7707 C   0  0  0  0  0  0  0  0  0  0  0  0
    0.2263   64.8427   81.1467 C   0  0  0  0  0  0  0  0  0  0  0  0
   -0.3135   63.7821   81.8649 C   0  0  0  0  0  0  0  0  0  0  0  0
   -0.4951   63.9294   83.1791 N   0  0  0  0  0  0  0  0  0  0  0  0
   -1.5649   63.3204   88.1086 C   0  0  0  0  0  0  0  0  0  0  0  0
   -2.5823   62.7932   87.3197 C   0  0  0  0  0  0  0  0  0  0  0  0
   -2.3972   62.6524   85.9402 C   0  0  0  0  0  0  0  0  0  0  0  0
   -1.1941   63.0337   85.3135 C   0  0  0  0  0  0  0  0  0  0  0  0
   -0.1835   63.5633   86.1400 C   0  0  0  0  0  0  0  0  0  0  0  0
   -0.3645   63.7058   87.5199 C   0  0  0  0  0  0  0  0  0  0  0  0
   -1.5723   60.3661   81.3577 N   0  0  0  0  0  0  0  0  0  0  0  0
   -1.0351   60.2457   80.5035 H   0  0  0  0  0  0  0  0  0  0  0  0
   -3.0088   60.1651   81.1407 C   0  0  0  0  0  0  0  0  0  0  0  0
   -3.2048   59.4158   79.8147 C   0  0  0  0  0  0  0  0  0  0  0  0
   -3.4209   60.5134   78.7850 C   0  0  0  0  0  0  0  0  0  0  0  0
   -4.2940   61.5054   79.5312 C   0  0  0  0  0  0  0  0  0  0  0  0
   -3.7467   61.5045   80.9563 C   0  0  0  0  0  0  0  0  0  0  0  0
 11 12  2  0  0  0
 12 13  1  0  0  0
 13 14  2  0  0  0
 14  1  1  0  0  0
  1  2  2  0  0  0
  2  3  1  0  0  0
  3 17  1  0  0  0
 17 19  1  0  0  0
 19 20  1  0  0  0
 20 21  1  0  0  0
 21 22  1  0  0  0
 22 23  1  0  0  0
  3  4  2  0  0  0
  4  5  1  0  0  0
  5  6  2  0  0  0
  6  7  1  0  0  0
  7  8  2  0  0  0
  8  9  1  0  0  0
  9 10  2  0  0  0
 14 15  1  0  0  0
 15 16  2  0  0  0
 16 11  1  0  0  0
 10  1  1  0  0  0
 23 19  1  0  0  0
  9  4  1  0  0  0
 17 18  1  0  0  0
M  END
> <minimizedAffinity>
-9.43620

$$$$



 23 26  0  0  0  0  0  0  0  0999 V2000
    0.1287   64.1464   84.8172 C   0  0  0  0  0  0  0  0  0  0  0  0
   -0.5461   63.6354   83.7742 N   0  0  0  0  0  0  0  0  0  0  0  0
   -0.4333   64.2565   82.5892 C   0  0  0  0  0  0  0  0  0  0  0  0
    0.3884   65.3844   82.4168 C   0  0  0  0  0  0  0  0  0  0  0  0
    0.5962   66.0641   81.1884 C   0  0  0  0  0  0  0  0  0  0  0  0
    1.4245   67.1821   81.1195 C   0  0  0  0  0  0  0  0  0  0  0  0
    2.0559   67.6314   82.2704 C   0  0  0  0  0  0  0  0  0  0  0  0
    1.8596   66.9548   83.4774 C   0  0  0  0  0  0  0  0  0  0  0  0
    1.0404   65.8357   83.5700 C   0  0  0  0  0  0  0  0  0  0  0  0
    0.9116   65.2366   84.7558 N   0  0  0  0  0  0  0  0  0  0  0  0
   -0.2721   62.1680   88.6282 C   0  0  0  0  0  0  0  0  0  0  0  0
    0.5363   63.2938   88.5072 C   0  0  0  0  0  0  0  0  0  0  0  0
    0.6644   63.9341   87.2700 C   0  0  0  0  0  0  0  0  0  0  0  0
   -0.0095   63.4682   86.1235 C   0  0  0  0  0  0  0  0  0  0  0  0
   -0.8205   62.3268   86.2795 C   0  0  0  0  0  0  0  0  0  0  0  0
   -0.9514   61.6834   87.5148 C   0  0  0  0  0  0  0  0  0  0  0  0
   -1.1450   63.7436   81.4822 N   0  0  0  0  0  0  0  0  0  0  0  0
   -2.1258   63.9919   81.5772 H   0  0  0  0  0  0  0  0  0  0  0  0
   -0.9607   62.3176   81.1934 C   0  0  0  0  0  0  0  0  0  0  0  0
    0.4974   62.0870   80.7701 C   0  0  0  0  0  0  0  0  0  0  0  0
    0.4715   62.1713   79.2523 C   0  0  0  0  0  0  0  0  0  0  0  0
   -0.8162   61.4504   78.8987 C   0  0  0  0  0  0  0  0  0  0  0  0
   -1.8038   61.8709   79.9841 C   0  0  0  0  0  0  0  0  0  0  0  0
 11 12  2  0  0  0
 12 13  1  0  0  0
 13 14  2  0  0  0
 14  1  1  0  0  0
  1  2  2  0  0  0
  2  3  1  0  0  0
  3 17  1  0  0  0
 17 19  1  0  0  0
 19 20  1  0  0  0
 20 21  1  0  0  0
 21 22  1  0  0  0
 22 23  1  0  0  0
  3  4  2  0  0  0
  4  5  1  0  0  0
  5  6  2  0  0  0
  6  7  1  0  0  0
  7  8  2  0  0  0
  8  9  1  0  0  0
  9 10  2  0  0  0
 14 15  1  0  0  0
 15 16  2  0  0  0
 16 11  1  0  0  0
 10  1  1  0  0  0
 23 19  1  0  0  0
  9  4  1  0  0  0
 17 18  1  0  0  0
M  END
> <minimizedAffinity>
-9.42541

$$$$



 23 26  0  0  0  0  0  0  0  0999 V2000
    0.2439   64.2635   84.8227 C   0  0  0  0  0  0  0  0  0  0  0  0
   -0.3173   63.7452   83.7179 N   0  0  0  0  0  0  0  0  0  0  0  0
   -0.1562   64.4091   82.5620 C   0  0  0  0  0  0  0  0  0  0  0  0
    0.6026   65.5902   82.4832 C   0  0  0  0  0  0  0  0  0  0  0  0
    0.8578   66.3198   81.2929 C   0  0  0  0  0  0  0  0  0  0  0  0
    1.6160   67.4882   81.3176 C   0  0  0  0  0  0  0  0  0  0  0  0
    2.1300   67.9390   82.5249 C   0  0  0  0  0  0  0  0  0  0  0  0
    1.8877   67.2138   83.6949 C   0  0  0  0  0  0  0  0  0  0  0  0
    1.1367   66.0441   83.6945 C   0  0  0  0  0  0  0  0  0  0  0  0
    0.9583   65.4011   84.8506 N   0  0  0  0  0  0  0  0  0  0  0  0
   -0.3179   62.1449   88.5368 C   0  0  0  0  0  0  0  0  0  0  0  0
   -0.9837   61.7294   87.3880 C   0  0  0  0  0  0  0  0  0  0  0  0
   -0.7995   62.4180   86.1843 C   0  0  0  0  0  0  0  0  0  0  0  0
    0.0521   63.5372   86.0960 C   0  0  0  0  0  0  0  0  0  0  0  0
    0.7119   63.9320   87.2766 C   0  0  0  0  0  0  0  0  0  0  0  0
    0.5305   63.2463   88.4824 C   0  0  0  0  0  0  0  0  0  0  0  0
   -0.7492   63.8886   81.3905 N   0  0  0  0  0  0  0  0  0  0  0  0
   -1.4113   64.5682   81.0265 H   0  0  0  0  0  0  0  0  0  0  0  0
   -1.3345   62.5481   81.4971 C   0  0  0  0  0  0  0  0  0  0  0  0
   -1.0568   61.7863   80.1929 C   0  0  0  0  0  0  0  0  0  0  0  0
   -2.2936   62.0249   79.3414 C   0  0  0  0  0  0  0  0  0  0  0  0
   -3.4203   61.9312   80.3537 C   0  0  0  0  0  0  0  0  0  0  0  0
   -2.8697   62.6073   81.6067 C   0  0  0  0  0  0  0  0  0  0  0  0
 11 12  2  0  0  0
 12 13  1  0  0  0
 13 14  2  0  0  0
 14  1  1  0  0  0
  1  2  2  0  0  0
  2  3  1  0  0  0
  3 17  1  0  0  0
 17 19  1  0  0  0
 19 20  1  0  0  0
 20 21  1  0  0  0
 21 22  1  0  0  0
 22 23  1  0  0  0
  3  4  2  0  0  0
  4  5  1  0  0  0
  5  6  2  0  0  0
  6  7  1  0  0  0
  7  8  2  0  0  0
  8  9  1  0  0  0
  9 10  2  0  0  0
 14 15  1  0  0  0
 15 16  2  0  0  0
 16 11  1  0  0  0
 10  1  1  0  0  0
 23 19  1  0  0  0
  9  4  1  0  0  0
 17 18  1  0  0  0
M  END
> <minimizedAffinity>
-9.37702

$$$$



 23 26  0  0  0  0  0  0  0  0999 V2000
   -1.0174   63.6327   81.8568 C   0  0  0  0  0  0  0  0  0  0  0  0
   -0.7833   63.0678   83.0527 N   0  0  0  0  0  0  0  0  0  0  0  0
    0.0391   63.7085   83.8988 C   0  0  0  0  0  0  0  0  0  0  0  0
    0.6169   64.9493   83.5766 C   0  0  0  0  0  0  0  0  0  0  0  0
    1.4547   65.7082   84.4347 C   0  0  0  0  0  0  0  0  0  0  0  0
    1.9889   66.9263   84.0205 C   0  0  0  0  0  0  0  0  0  0  0  0
    1.6917   67.4018   82.7514 C   0  0  0  0  0  0  0  0  0  0  0  0
    0.8575   66.6592   81.9112 C   0  0  0  0  0  0  0  0  0  0  0  0
    0.3106   65.4430   82.3034 C   0  0  0  0  0  0  0  0  0  0  0  0
   -0.4864   64.7976   81.4490 N   0  0  0  0  0  0  0  0  0  0  0  0
   -3.6274   61.5433   79.1327 C   0  0  0  0  0  0  0  0  0  0  0  0
   -4.0076   61.7327   80.4575 C   0  0  0  0  0  0  0  0  0  0  0  0
   -3.1595   62.4111   81.3392 C   0  0  0  0  0  0  0  0  0  0  0  0
   -1.9121   62.9171   80.9224 C   0  0  0  0  0  0  0  0  0  0  0  0
   -1.5569   62.7094   79.5750 C   0  0  0  0  0  0  0  0  0  0  0  0
   -2.4020   62.0315   78.6899 C   0  0  0  0  0  0  0  0  0  0  0  0
    0.3096   63.1255   85.1566 N   0  0  0  0  0  0  0  0  0  0  0  0
    0.5351   62.1437   85.0231 H   0  0  0  0  0  0  0  0  0  0  0  0
   -0.7041   63.3237   86.1978 C   0  0  0  0  0  0  0  0  0  0  0  0
   -0.1264   64.2539   87.2745 C   0  0  0  0  0  0  0  0  0  0  0  0
    0.4538   63.3137   88.3191 C   0  0  0  0  0  0  0  0  0  0  0  0
   -0.5797   62.2042   88.3817 C   0  0  0  0  0  0  0  0  0  0  0  0
   -1.0241   62.0093   86.9344 C   0  0  0  0  0  0  0  0  0  0  0  0
 11 12  2  0  0  0
 12 13  1  0  0  0
 13 14  2  0  0  0
 14  1  1  0  0  0
  1  2  2  0  0  0
  2  3  1  0  0  0
  3 17  1  0  0  0
 17 19  1  0  0  0
 19 20  1  0  0  0
 20 21  1  0  0  0
 21 22  1  0  0  0
 22 23  1  0  0  0
  3  4  2  0  0  0
  4  5  1  0  0  0
  5  6  2  0  0  0
  6  7  1  0  0  0
  7  8  2  0  0  0
  8  9  1  0  0  0
  9 10  2  0  0  0
 14 15  1  0  0  0
 15 16  2  0  0  0
 16 11  1  0  0  0
 10  1  1  0  0  0
 23 19  1  0  0  0
  9  4  1  0  0  0
 17 18  1  0  0  0
M  END
> <minimizedAffinity>
-9.31538

$$$$



 23 26  0  0  0  0  0  0  0  0999 V2000
    1.1396   65.7511   83.7037 C   0  0  0  0  0  0  0  0  0  0  0  0
    0.7073   64.9032   82.7560 N   0  0  0  0  0  0  0  0  0  0  0  0
    0.1145   63.7663   83.1547 C   0  0  0  0  0  0  0  0  0  0  0  0
   -0.0894   63.4720   84.5144 C   0  0  0  0  0  0  0  0  0  0  0  0
   -0.7491   62.3178   85.0109 C   0  0  0  0  0  0  0  0  0  0  0  0
   -0.8945   62.1092   86.3806 C   0  0  0  0  0  0  0  0  0  0  0  0
   -0.3885   63.0480   87.2680 C   0  0  0  0  0  0  0  0  0  0  0  0
    0.2512   64.1900   86.7781 C   0  0  0  0  0  0  0  0  0  0  0  0
    0.4055   64.4211   85.4161 C   0  0  0  0  0  0  0  0  0  0  0  0
    1.0179   65.5409   85.0251 N   0  0  0  0  0  0  0  0  0  0  0  0
    3.0787   69.3808   82.4139 C   0  0  0  0  0  0  0  0  0  0  0  0
    3.2039   68.9523   83.7315 C   0  0  0  0  0  0  0  0  0  0  0  0
    2.5743   67.7744   84.1475 C   0  0  0  0  0  0  0  0  0  0  0  0
    1.8047   66.9950   83.2609 C   0  0  0  0  0  0  0  0  0  0  0  0
    1.6981   67.4558   81.9338 C   0  0  0  0  0  0  0  0  0  0  0  0
    2.3260   68.6332   81.5136 C   0  0  0  0  0  0  0  0  0  0  0  0
   -0.3358   62.8543   82.1747 N   0  0  0  0  0  0  0  0  0  0  0  0
    0.4702   62.4438   81.7114 H   0  0  0  0  0  0  0  0  0  0  0  0
   -1.3248   63.3618   81.2181 C   0  0  0  0  0  0  0  0  0  0  0  0
   -2.7296   63.1163   81.7877 C   0  0  0  0  0  0  0  0  0  0  0  0
   -3.1547   61.7834   81.1925 C   0  0  0  0  0  0  0  0  0  0  0  0
   -2.6356   61.8715   79.7692 C   0  0  0  0  0  0  0  0  0  0  0  0
   -1.2871   62.5761   79.8937 C   0  0  0  0  0  0  0  0  0  0  0  0
 11 12  2  0  0  0
 12 13  1  0  0  0
 13 14  2  0  0  0
 14  1  1  0  0  0
  1  2  2  0  0  0
  2  3  1  0  0  0
  3 17  1  0  0  0
 17 19  1  0  0  0
 19 20  1  0  0  0
 20 21  1  0  0  0
 21 22  1  0  0  0
 22 23  1  0  0  0
  3  4  2  0  0  0
  4  5  1  0  0  0
  5  6  2  0  0  0
  6  7  1  0  0  0
  7  8  2  0  0  0
  8  9  1  0  0  0
  9 10  2  0  0  0
 14 15  1  0  0  0
 15 16  2  0  0  0
 16 11  1  0  0  0
 10  1  1  0  0  0
 23 19  1  0  0  0
  9  4  1  0  0  0
 17 18  1  0  0  0
M  END
> <minimizedAffinity>
-9.31122

$$$$
