
     RDKit          3D

 45 50  0  0  0  0  0  0  0  0999 V2000
    2.0498   66.0667   82.4009 C   0  0  0  0  0  0  0  0  0  0  0  0
    1.7665   65.2297   83.3722 N   0  0  0  0  0  0  0  0  0  0  0  0
    0.5799   64.6699   83.0239 C   0  0  0  0  0  0  0  0  0  0  0  0
    0.1164   65.1621   81.8426 C   0  0  0  0  0  0  0  0  0  0  0  0
   -1.1313   64.7736   81.2826 C   0  0  0  0  0  0  0  0  0  0  0  0
   -1.5855   65.2743   80.2578 O   0  0  0  0  0  0  0  0  0  0  0  0
   -1.7917   63.7978   82.0367 N   0  0  0  0  0  0  0  0  0  0  0  0
   -1.3395   63.2637   83.2599 C   0  0  0  0  0  0  0  0  0  0  0  0
   -1.9930   62.4189   83.8788 O   0  0  0  0  0  0  0  0  0  0  0  0
   -0.1176   63.7333   83.7476 N   0  0  0  0  0  0  0  0  0  0  0  0
    1.0864   66.0336   81.4164 N   0  0  0  0  0  0  0  0  0  0  0  0
    3.1962   66.9358   82.4798 N   0  0  0  0  0  0  0  0  0  0  0  0
    4.1233   66.6405   82.1933 H   0  0  0  0  0  0  0  0  0  0  0  0
    3.1950   68.0620   83.7207 S   0  0  0  0  0  0  0  0  0  0  0  0
    1.8222   68.1195   84.1827 O   0  0  0  0  0  0  0  0  0  0  0  0
    3.8566   69.2678   83.2672 O   0  0  0  0  0  0  0  0  0  0  0  0
    5.6716   66.0883   87.0094 C   0  0  0  0  0  0  0  0  0  0  0  0
    5.0219   65.3066   86.0486 C   0  0  0  0  0  0  0  0  0  0  0  0
    4.2621   65.9014   85.0403 C   0  0  0  0  0  0  0  0  0  0  0  0
    4.1502   67.2917   84.9982 C   0  0  0  0  0  0  0  0  0  0  0  0
    4.8124   68.0860   85.9381 C   0  0  0  0  0  0  0  0  0  0  0  0
    5.5693   67.4805   86.9469 C   0  0  0  0  0  0  0  0  0  0  0  0
    5.8609   65.3856   89.2726 C   0  0  0  0  0  0  0  0  0  0  0  0
    6.3689   65.3744   87.9446 O   0  0  0  0  0  0  0  0  0  0  0  0
   -3.0780   63.3360   81.5348 C   0  0  0  0  0  0  0  0  0  0  0  0
   -2.9148   62.0579   80.7580 C   0  0  0  0  0  0  0  0  0  0  0  0
   -4.0047   61.5960   79.8237 C   0  0  0  0  0  0  0  0  0  0  0  0
   -2.6921   62.0732   79.2667 C   0  0  0  0  0  0  0  0  0  0  0  0
    0.3823   63.2454   85.0274 C   0  0  0  0  0  0  0  0  0  0  0  0
   -0.1261   64.0977   86.1552 C   0  0  0  0  0  0  0  0  0  0  0  0
    0.4916   64.0227   87.5292 C   0  0  0  0  0  0  0  0  0  0  0  0
   -0.8868   63.4697   87.2964 C   0  0  0  0  0  0  0  0  0  0  0  0
    1.0943   66.7852   80.1732 C   0  0  0  0  0  0  0  0  0  0  0  0
    1.2676   68.2681   80.4071 C   0  0  0  0  0  0  0  0  0  0  0  0
    2.3736   68.9594   79.8822 C   0  0  0  0  0  0  0  0  0  0  0  0
    2.5380   70.3285   80.1090 C   0  0  0  0  0  0  0  0  0  0  0  0
    1.5805   71.0089   80.8790 C   0  0  0  0  0  0  0  0  0  0  0  0
    0.4735   70.3389   81.4246 C   0  0  0  0  0  0  0  0  0  0  0  0
    0.3274   68.9710   81.1806 C   0  0  0  0  0  0  0  0  0  0  0  0
    3.5896   71.0747   79.6431 O   0  0  0  0  0  0  0  0  0  0  0  0
    4.8590   70.8597   80.2484 C   0  0  0  0  0  0  0  0  0  0  0  0
    1.7609   72.3467   81.1565 O   0  0  0  0  0  0  0  0  0  0  0  0
    2.3685   72.4967   82.4381 C   0  0  0  0  0  0  0  0  0  0  0  0
   -0.3942   71.1001   82.1643 O   0  0  0  0  0  0  0  0  0  0  0  0
   -1.3355   71.8961   81.4578 C   0  0  0  0  0  0  0  0  0  0  0  0
 23 24  1  0
 24 17  1  0
 17 18  1  0
 18 19  2  0
 19 20  1  0
 20 14  1  0
 14 15  2  0
 14 16  2  0
 14 12  1  0
 12  1  1  0
  1  2  2  0
  2  3  1  0
  3  4  2  0
  4  5  1  0
  5  6  2  0
  5  7  1  0
  7 25  1  0
 25 26  1  0
 26 27  1  0
 27 28  1  0
  7  8  1  0
  8  9  2  0
  8 10  1  0
 10 29  1  0
 29 30  1  0
 30 31  1  0
 31 32  1  0
  4 11  1  0
 11 33  1  0
 33 34  1  0
 34 35  2  0
 35 36  1  0
 36 40  1  0
 40 41  1  0
 36 37  2  0
 37 42  1  0
 42 43  1  0
 37 38  1  0
 38 44  1  0
 44 45  1  0
 38 39  2  0
 20 21  2  0
 21 22  1  0
 22 17  2  0
 11  1  1  0
 39 34  1  0
 10  3  1  0
 32 30  1  0
 28 26  1  0
 12 13  1  0
M  END
>  <minimizedAffinity>  (1) 
-8.02518

$$$$
