


 31 35  0  0  0  0  0  0  0  0999 V2000
   -0.9736   63.1130   85.7667 N   0  0  0  0  0  0  0  0  0  0  0  0
   -0.0577   64.0453   86.2857 C   0  0  0  0  0  0  0  0  0  0  0  0
    0.1991   64.1939   87.4763 O   0  0  0  0  0  0  0  0  0  0  0  0
    0.5933   64.8257   85.2799 C   0  0  0  0  0  0  0  0  0  0  0  0
    1.5665   65.7743   85.3843 N   0  0  0  0  0  0  0  0  0  0  0  0
    1.8695   66.1915   84.1014 C   0  0  0  0  0  0  0  0  0  0  0  0
    1.1229   65.5566   83.2089 N   0  0  0  0  0  0  0  0  0  0  0  0
    0.3415   64.7274   83.9451 C   0  0  0  0  0  0  0  0  0  0  0  0
   -0.5866   63.8817   83.5066 N   0  0  0  0  0  0  0  0  0  0  0  0
   -0.8082   63.4784   82.1534 C   0  0  0  0  0  0  0  0  0  0  0  0
   -1.9221   62.4270   82.3682 C   0  0  0  0  0  0  0  0  0  0  0  0
   -1.9694   62.1234   83.8491 N   0  0  0  0  0  0  0  0  0  0  0  0
   -1.1903   63.0279   84.3893 C   0  0  0  0  0  0  0  0  0  0  0  0
    2.0109   66.0858   86.2394 H   0  0  0  0  0  0  0  0  0  0  0  0
   -2.7958   62.9031   87.4595 C   0  0  0  0  0  0  0  0  0  0  0  0
   -1.6853   62.1985   86.6762 C   0  0  0  0  0  0  0  0  0  0  0  0
   -0.7271   61.4527   87.6078 C   0  0  0  0  0  0  0  0  0  0  0  0
    2.8977   67.2400   83.8101 C   0  0  0  0  0  0  0  0  0  0  0  0
    4.1687   67.0900   84.6159 C   0  0  0  0  0  0  0  0  0  0  0  0
    4.5930   68.1114   85.4781 C   0  0  0  0  0  0  0  0  0  0  0  0
    5.7511   67.9551   86.2412 C   0  0  0  0  0  0  0  0  0  0  0  0
    6.4936   66.7791   86.1515 C   0  0  0  0  0  0  0  0  0  0  0  0
    6.0811   65.7578   85.2980 C   0  0  0  0  0  0  0  0  0  0  0  0
    4.9241   65.9109   84.5334 C   0  0  0  0  0  0  0  0  0  0  0  0
   -1.6860   61.1236   81.5989 C   0  0  0  0  0  0  0  0  0  0  0  0
   -2.0499   61.2301   80.1375 C   0  0  0  0  0  0  0  0  0  0  0  0
   -3.2759   61.7890   79.7510 C   0  0  0  0  0  0  0  0  0  0  0  0
   -3.6069   61.9043   78.4001 C   0  0  0  0  0  0  0  0  0  0  0  0
   -2.7174   61.4613   77.4235 C   0  0  0  0  0  0  0  0  0  0  0  0
   -1.4978   60.9001   77.7967 C   0  0  0  0  0  0  0  0  0  0  0  0
   -1.1650   60.7835   79.1471 C   0  0  0  0  0  0  0  0  0  0  0  0
 15 16  1  0  0  0
 16 17  1  0  0  0
 16  1  1  0  0  0
  1  2  1  0  0  0
  2  3  2  0  0  0
  2  4  1  0  0  0
  4  5  1  0  0  0
  5  6  1  0  0  0
  6 18  1  0  0  0
 18 19  1  0  0  0
 19 20  2  0  0  0
 20 21  1  0  0  0
 21 22  2  0  0  0
 22 23  1  0  0  0
 23 24  2  0  0  0
  6  7  2  0  0  0
  7  8  1  0  0  0
  8  9  1  0  0  0
  9 10  1  0  0  0
 10 11  1  0  0  0
 11 25  1  0  0  0
 25 26  1  0  0  0
 26 27  2  0  0  0
 27 28  1  0  0  0
 28 29  2  0  0  0
 29 30  1  0  0  0
 30 31  2  0  0  0
 11 12  1  0  0  0
 12 13  2  0  0  0
 13  1  1  0  0  0
  8  4  2  0  0  0
 13  9  1  0  0  0
 24 19  1  0  0  0
 31 26  1  0  0  0
  5 14  1  0  0  0
M  END
> <minimizedAffinity>
-10.86196

$$$$



 31 35  0  0  0  0  0  0  0  0999 V2000
   -1.2624   62.8348   85.2087 N   0  0  0  0  0  0  0  0  0  0  0  0
   -2.2686   62.1027   84.5538 C   0  0  0  0  0  0  0  0  0  0  0  0
   -3.1287   61.4298   85.1133 O   0  0  0  0  0  0  0  0  0  0  0  0
   -2.2250   62.2216   83.1295 C   0  0  0  0  0  0  0  0  0  0  0  0
   -3.0511   61.7150   82.1710 N   0  0  0  0  0  0  0  0  0  0  0  0
   -2.5818   62.1617   80.9496 C   0  0  0  0  0  0  0  0  0  0  0  0
   -1.4986   62.9099   81.1042 N   0  0  0  0  0  0  0  0  0  0  0  0
   -1.2878   62.9332   82.4440 C   0  0  0  0  0  0  0  0  0  0  0  0
   -0.3115   63.5504   83.1033 N   0  0  0  0  0  0  0  0  0  0  0  0
    0.5965   64.5217   82.5790 C   0  0  0  0  0  0  0  0  0  0  0  0
    1.3604   64.8965   83.8705 C   0  0  0  0  0  0  0  0  0  0  0  0
    0.5743   64.3328   85.0332 N   0  0  0  0  0  0  0  0  0  0  0  0
   -0.3305   63.5694   84.4716 C   0  0  0  0  0  0  0  0  0  0  0  0
   -3.8764   61.1495   82.3286 H   0  0  0  0  0  0  0  0  0  0  0  0
   -0.7414   61.5188   87.2646 C   0  0  0  0  0  0  0  0  0  0  0  0
   -1.2087   62.8545   86.6807 C   0  0  0  0  0  0  0  0  0  0  0  0
   -2.5345   63.3046   87.2987 C   0  0  0  0  0  0  0  0  0  0  0  0
   -3.2324   61.8039   79.6496 C   0  0  0  0  0  0  0  0  0  0  0  0
   -2.2568   61.3817   78.5738 C   0  0  0  0  0  0  0  0  0  0  0  0
   -1.7546   60.0728   78.5381 C   0  0  0  0  0  0  0  0  0  0  0  0
   -0.8774   59.6809   77.5257 C   0  0  0  0  0  0  0  0  0  0  0  0
   -0.4957   60.5903   76.5411 C   0  0  0  0  0  0  0  0  0  0  0  0
   -0.9887   61.8934   76.5670 C   0  0  0  0  0  0  0  0  0  0  0  0
   -1.8654   62.2886   77.5777 C   0  0  0  0  0  0  0  0  0  0  0  0
    1.5244   66.4071   84.0647 C   0  0  0  0  0  0  0  0  0  0  0  0
    2.9607   66.8186   84.2819 C   0  0  0  0  0  0  0  0  0  0  0  0
    3.8729   65.9286   84.8655 C   0  0  0  0  0  0  0  0  0  0  0  0
    5.2050   66.3007   85.0514 C   0  0  0  0  0  0  0  0  0  0  0  0
    5.6378   67.5652   84.6574 C   0  0  0  0  0  0  0  0  0  0  0  0
    4.7385   68.4594   84.0801 C   0  0  0  0  0  0  0  0  0  0  0  0
    3.4057   68.0894   83.8939 C   0  0  0  0  0  0  0  0  0  0  0  0
 15 16  1  0  0  0
 16 17  1  0  0  0
 16  1  1  0  0  0
  1  2  1  0  0  0
  2  3  2  0  0  0
  2  4  1  0  0  0
  4  5  1  0  0  0
  5  6  1  0  0  0
  6 18  1  0  0  0
 18 19  1  0  0  0
 19 20  2  0  0  0
 20 21  1  0  0  0
 21 22  2  0  0  0
 22 23  1  0  0  0
 23 24  2  0  0  0
  6  7  2  0  0  0
  7  8  1  0  0  0
  8  9  1  0  0  0
  9 10  1  0  0  0
 10 11  1  0  0  0
 11 25  1  0  0  0
 25 26  1  0  0  0
 26 27  2  0  0  0
 27 28  1  0  0  0
 28 29  2  0  0  0
 29 30  1  0  0  0
 30 31  2  0  0  0
 11 12  1  0  0  0
 12 13  2  0  0  0
 13  1  1  0  0  0
  8  4  2  0  0  0
 13  9  1  0  0  0
 24 19  1  0  0  0
 31 26  1  0  0  0
  5 14  1  0  0  0
M  END
> <minimizedAffinity>
-10.34823

$$$$



 31 35  0  0  0  0  0  0  0  0999 V2000
   -0.8716   63.1342   85.7747 N   0  0  0  0  0  0  0  0  0  0  0  0
    0.1019   64.0739   86.1577 C   0  0  0  0  0  0  0  0  0  0  0  0
    0.4951   64.2537   87.3060 O   0  0  0  0  0  0  0  0  0  0  0  0
    0.6354   64.8212   85.0617 C   0  0  0  0  0  0  0  0  0  0  0  0
    1.6180   65.7652   85.0259 N   0  0  0  0  0  0  0  0  0  0  0  0
    1.7724   66.1442   83.7052 C   0  0  0  0  0  0  0  0  0  0  0  0
    0.9252   65.4901   82.9234 N   0  0  0  0  0  0  0  0  0  0  0  0
    0.2307   64.6875   83.7682 C   0  0  0  0  0  0  0  0  0  0  0  0
   -0.7453   63.8368   83.4639 N   0  0  0  0  0  0  0  0  0  0  0  0
   -1.1234   63.3974   82.1575 C   0  0  0  0  0  0  0  0  0  0  0  0
   -2.2092   62.3607   82.5293 C   0  0  0  0  0  0  0  0  0  0  0  0
   -2.0863   62.0988   84.0138 N   0  0  0  0  0  0  0  0  0  0  0  0
   -1.2464   63.0123   84.4345 C   0  0  0  0  0  0  0  0  0  0  0  0
    2.1595   66.0971   85.8147 H   0  0  0  0  0  0  0  0  0  0  0  0
   -2.4930   62.9831   87.6664 C   0  0  0  0  0  0  0  0  0  0  0  0
   -1.4772   62.2506   86.7859 C   0  0  0  0  0  0  0  0  0  0  0  0
   -0.4208   61.5304   87.6271 C   0  0  0  0  0  0  0  0  0  0  0  0
    2.7643   67.1765   83.2674 C   0  0  0  0  0  0  0  0  0  0  0  0
    2.1337   68.4600   82.7753 C   0  0  0  0  0  0  0  0  0  0  0  0
    2.5791   69.7026   83.2488 C   0  0  0  0  0  0  0  0  0  0  0  0
    2.0132   70.8848   82.7690 C   0  0  0  0  0  0  0  0  0  0  0  0
    1.0004   70.8368   81.8128 C   0  0  0  0  0  0  0  0  0  0  0  0
    0.5502   69.6075   81.3354 C   0  0  0  0  0  0  0  0  0  0  0  0
    1.1135   68.4239   81.8131 C   0  0  0  0  0  0  0  0  0  0  0  0
   -2.0689   61.0346   81.7754 C   0  0  0  0  0  0  0  0  0  0  0  0
   -2.3132   61.1737   80.2920 C   0  0  0  0  0  0  0  0  0  0  0  0
   -1.3595   60.7192   79.3707 C   0  0  0  0  0  0  0  0  0  0  0  0
   -1.5908   60.8310   77.9990 C   0  0  0  0  0  0  0  0  0  0  0  0
   -2.7756   61.3988   77.5352 C   0  0  0  0  0  0  0  0  0  0  0  0
   -3.7286   61.8578   78.4422 C   0  0  0  0  0  0  0  0  0  0  0  0
   -3.4990   61.7474   79.8145 C   0  0  0  0  0  0  0  0  0  0  0  0
 15 16  1  0  0  0
 16 17  1  0  0  0
 16  1  1  0  0  0
  1  2  1  0  0  0
  2  3  2  0  0  0
  2  4  1  0  0  0
  4  5  1  0  0  0
  5  6  1  0  0  0
  6 18  1  0  0  0
 18 19  1  0  0  0
 19 20  2  0  0  0
 20 21  1  0  0  0
 21 22  2  0  0  0
 22 23  1  0  0  0
 23 24  2  0  0  0
  6  7  2  0  0  0
  7  8  1  0  0  0
  8  9  1  0  0  0
  9 10  1  0  0  0
 10 11  1  0  0  0
 11 25  1  0  0  0
 25 26  1  0  0  0
 26 27  2  0  0  0
 27 28  1  0  0  0
 28 29  2  0  0  0
 29 30  1  0  0  0
 30 31  2  0  0  0
 11 12  1  0  0  0
 12 13  2  0  0  0
 13  1  1  0  0  0
  8  4  2  0  0  0
 13  9  1  0  0  0
 24 19  1  0  0  0
 31 26  1  0  0  0
  5 14  1  0  0  0
M  END
> <minimizedAffinity>
-10.32000

$$$$



 31 35  0  0  0  0  0  0  0  0999 V2000
    0.8190   67.7898   81.1295 N   0  0  0  0  0  0  0  0  0  0  0  0
    0.0019   66.6855   80.8293 C   0  0  0  0  0  0  0  0  0  0  0  0
   -0.6918   66.5741   79.8233 O   0  0  0  0  0  0  0  0  0  0  0  0
    0.0569   65.6509   81.8147 C   0  0  0  0  0  0  0  0  0  0  0  0
   -0.5393   64.4256   81.8493 N   0  0  0  0  0  0  0  0  0  0  0  0
   -0.1239   63.8019   83.0113 C   0  0  0  0  0  0  0  0  0  0  0  0
    0.6904   64.5858   83.7036 N   0  0  0  0  0  0  0  0  0  0  0  0
    0.7876   65.7175   82.9621 C   0  0  0  0  0  0  0  0  0  0  0  0
    1.4886   66.8135   83.2383 N   0  0  0  0  0  0  0  0  0  0  0  0
    2.4841   66.9613   84.2531 C   0  0  0  0  0  0  0  0  0  0  0  0
    2.9607   68.4013   83.9507 C   0  0  0  0  0  0  0  0  0  0  0  0
    2.4082   68.7783   82.5942 N   0  0  0  0  0  0  0  0  0  0  0  0
    1.5699   67.8130   82.3071 C   0  0  0  0  0  0  0  0  0  0  0  0
   -1.1423   64.0320   81.1372 H   0  0  0  0  0  0  0  0  0  0  0  0
    2.3570   69.2479   79.8109 C   0  0  0  0  0  0  0  0  0  0  0  0
    0.9098   68.9148   80.1827 C   0  0  0  0  0  0  0  0  0  0  0  0
    0.1599   70.1509   80.6846 C   0  0  0  0  0  0  0  0  0  0  0  0
   -0.5776   62.4301   83.4033 C   0  0  0  0  0  0  0  0  0  0  0  0
   -1.1446   62.3508   84.8031 C   0  0  0  0  0  0  0  0  0  0  0  0
   -0.3405   61.9450   85.8780 C   0  0  0  0  0  0  0  0  0  0  0  0
   -0.8614   61.9019   87.1722 C   0  0  0  0  0  0  0  0  0  0  0  0
   -2.1869   62.2645   87.4043 C   0  0  0  0  0  0  0  0  0  0  0  0
   -2.9948   62.6692   86.3435 C   0  0  0  0  0  0  0  0  0  0  0  0
   -2.4775   62.7131   85.0486 C   0  0  0  0  0  0  0  0  0  0  0  0
    4.4855   68.5458   83.9261 C   0  0  0  0  0  0  0  0  0  0  0  0
    5.1812   67.5895   84.8647 C   0  0  0  0  0  0  0  0  0  0  0  0
    5.0604   67.7444   86.2526 C   0  0  0  0  0  0  0  0  0  0  0  0
    5.6885   66.8514   87.1219 C   0  0  0  0  0  0  0  0  0  0  0  0
    6.4436   65.7968   86.6131 C   0  0  0  0  0  0  0  0  0  0  0  0
    6.5738   65.6359   85.2351 C   0  0  0  0  0  0  0  0  0  0  0  0
    5.9469   66.5282   84.3641 C   0  0  0  0  0  0  0  0  0  0  0  0
 15 16  1  0  0  0
 16 17  1  0  0  0
 16  1  1  0  0  0
  1  2  1  0  0  0
  2  3  2  0  0  0
  2  4  1  0  0  0
  4  5  1  0  0  0
  5  6  1  0  0  0
  6 18  1  0  0  0
 18 19  1  0  0  0
 19 20  2  0  0  0
 20 21  1  0  0  0
 21 22  2  0  0  0
 22 23  1  0  0  0
 23 24  2  0  0  0
  6  7  2  0  0  0
  7  8  1  0  0  0
  8  9  1  0  0  0
  9 10  1  0  0  0
 10 11  1  0  0  0
 11 25  1  0  0  0
 25 26  1  0  0  0
 26 27  2  0  0  0
 27 28  1  0  0  0
 28 29  2  0  0  0
 29 30  1  0  0  0
 30 31  2  0  0  0
 11 12  1  0  0  0
 12 13  2  0  0  0
 13  1  1  0  0  0
  8  4  2  0  0  0
 13  9  1  0  0  0
 24 19  1  0  0  0
 31 26  1  0  0  0
  5 14  1  0  0  0
M  END
> <minimizedAffinity>
-10.29146

$$$$



 31 35  0  0  0  0  0  0  0  0999 V2000
   -1.1127   62.5926   79.3466 N   0  0  0  0  0  0  0  0  0  0  0  0
   -0.5494   63.5179   78.4501 C   0  0  0  0  0  0  0  0  0  0  0  0
   -0.6392   63.4600   77.2277 O   0  0  0  0  0  0  0  0  0  0  0  0
    0.1477   64.5861   79.0963 C   0  0  0  0  0  0  0  0  0  0  0  0
    0.7663   65.6842   78.5774 N   0  0  0  0  0  0  0  0  0  0  0  0
    1.2516   66.4209   79.6420 C   0  0  0  0  0  0  0  0  0  0  0  0
    0.9743   65.8265   80.7938 N   0  0  0  0  0  0  0  0  0  0  0  0
    0.3032   64.7006   80.4444 C   0  0  0  0  0  0  0  0  0  0  0  0
   -0.1851   63.7616   81.2498 N   0  0  0  0  0  0  0  0  0  0  0  0
   -0.3256   63.8384   82.6700 C   0  0  0  0  0  0  0  0  0  0  0  0
   -1.0459   62.4964   82.9391 C   0  0  0  0  0  0  0  0  0  0  0  0
   -1.5205   61.9692   81.6035 N   0  0  0  0  0  0  0  0  0  0  0  0
   -0.9486   62.7547   80.7243 C   0  0  0  0  0  0  0  0  0  0  0  0
    0.8246   65.9324   77.5972 H   0  0  0  0  0  0  0  0  0  0  0  0
   -1.0719   60.4995   77.9875 C   0  0  0  0  0  0  0  0  0  0  0  0
   -1.9076   61.4635   78.8334 C   0  0  0  0  0  0  0  0  0  0  0  0
   -3.1555   61.9331   78.0819 C   0  0  0  0  0  0  0  0  0  0  0  0
    2.0031   67.7038   79.4663 C   0  0  0  0  0  0  0  0  0  0  0  0
    1.5660   68.8023   80.4094 C   0  0  0  0  0  0  0  0  0  0  0  0
    2.4410   69.2933   81.3891 C   0  0  0  0  0  0  0  0  0  0  0  0
    2.0420   70.3274   82.2374 C   0  0  0  0  0  0  0  0  0  0  0  0
    0.7686   70.8803   82.1141 C   0  0  0  0  0  0  0  0  0  0  0  0
   -0.1089   70.3999   81.1441 C   0  0  0  0  0  0  0  0  0  0  0  0
    0.2866   69.3662   80.2948 C   0  0  0  0  0  0  0  0  0  0  0  0
   -2.2481   62.6281   83.8793 C   0  0  0  0  0  0  0  0  0  0  0  0
   -1.8471   62.7960   85.3252 C   0  0  0  0  0  0  0  0  0  0  0  0
   -0.5021   62.9868   85.6705 C   0  0  0  0  0  0  0  0  0  0  0  0
   -0.1313   63.1595   87.0048 C   0  0  0  0  0  0  0  0  0  0  0  0
   -1.1000   63.1418   88.0061 C   0  0  0  0  0  0  0  0  0  0  0  0
   -2.4396   62.9485   87.6745 C   0  0  0  0  0  0  0  0  0  0  0  0
   -2.8124   62.7752   86.3407 C   0  0  0  0  0  0  0  0  0  0  0  0
 15 16  1  0  0  0
 16 17  1  0  0  0
 16  1  1  0  0  0
  1  2  1  0  0  0
  2  3  2  0  0  0
  2  4  1  0  0  0
  4  5  1  0  0  0
  5  6  1  0  0  0
  6 18  1  0  0  0
 18 19  1  0  0  0
 19 20  2  0  0  0
 20 21  1  0  0  0
 21 22  2  0  0  0
 22 23  1  0  0  0
 23 24  2  0  0  0
  6  7  2  0  0  0
  7  8  1  0  0  0
  8  9  1  0  0  0
  9 10  1  0  0  0
 10 11  1  0  0  0
 11 25  1  0  0  0
 25 26  1  0  0  0
 26 27  2  0  0  0
 27 28  1  0  0  0
 28 29  2  0  0  0
 29 30  1  0  0  0
 30 31  2  0  0  0
 11 12  1  0  0  0
 12 13  2  0  0  0
 13  1  1  0  0  0
  8  4  2  0  0  0
 13  9  1  0  0  0
 24 19  1  0  0  0
 31 26  1  0  0  0
  5 14  1  0  0  0
M  END
> <minimizedAffinity>
-10.10043

$$$$



 31 35  0  0  0  0  0  0  0  0999 V2000
   -0.3146   64.2453   82.7108 N   0  0  0  0  0  0  0  0  0  0  0  0
    0.2410   64.5876   83.9564 C   0  0  0  0  0  0  0  0  0  0  0  0
   -0.0351   64.0489   85.0238 O   0  0  0  0  0  0  0  0  0  0  0  0
    1.2059   65.6401   83.8805 C   0  0  0  0  0  0  0  0  0  0  0  0
    1.9865   66.1998   84.8476 N   0  0  0  0  0  0  0  0  0  0  0  0
    2.7743   67.1560   84.2338 C   0  0  0  0  0  0  0  0  0  0  0  0
    2.5110   67.2241   82.9366 N   0  0  0  0  0  0  0  0  0  0  0  0
    1.5441   66.2943   82.7349 C   0  0  0  0  0  0  0  0  0  0  0  0
    0.9384   65.9851   81.5920 N   0  0  0  0  0  0  0  0  0  0  0  0
    1.3299   66.3883   80.2778 C   0  0  0  0  0  0  0  0  0  0  0  0
    0.2941   65.6036   79.4391 C   0  0  0  0  0  0  0  0  0  0  0  0
   -0.3521   64.5929   80.3601 N   0  0  0  0  0  0  0  0  0  0  0  0
    0.0724   64.9262   81.5541 C   0  0  0  0  0  0  0  0  0  0  0  0
    2.0113   65.9362   85.8251 H   0  0  0  0  0  0  0  0  0  0  0  0
   -0.7400   61.9493   81.8289 C   0  0  0  0  0  0  0  0  0  0  0  0
   -1.2860   63.1417   82.6185 C   0  0  0  0  0  0  0  0  0  0  0  0
   -2.6362   63.6083   82.0693 C   0  0  0  0  0  0  0  0  0  0  0  0
    3.7649   67.9936   84.9812 C   0  0  0  0  0  0  0  0  0  0  0  0
    5.0910   67.3062   85.2183 C   0  0  0  0  0  0  0  0  0  0  0  0
    5.2941   66.5199   86.3615 C   0  0  0  0  0  0  0  0  0  0  0  0
    6.5101   65.8642   86.5602 C   0  0  0  0  0  0  0  0  0  0  0  0
    7.5316   65.9863   85.6200 C   0  0  0  0  0  0  0  0  0  0  0  0
    7.3404   66.7651   84.4803 C   0  0  0  0  0  0  0  0  0  0  0  0
    6.1264   67.4222   84.2789 C   0  0  0  0  0  0  0  0  0  0  0  0
    0.9091   64.8683   78.2443 C   0  0  0  0  0  0  0  0  0  0  0  0
   -0.0342   63.8669   77.6222 C   0  0  0  0  0  0  0  0  0  0  0  0
    0.2353   62.4937   77.7031 C   0  0  0  0  0  0  0  0  0  0  0  0
   -0.6441   61.5655   77.1439 C   0  0  0  0  0  0  0  0  0  0  0  0
   -1.7994   62.0003   76.4978 C   0  0  0  0  0  0  0  0  0  0  0  0
   -2.0750   63.3632   76.4078 C   0  0  0  0  0  0  0  0  0  0  0  0
   -1.1965   64.2932   76.9660 C   0  0  0  0  0  0  0  0  0  0  0  0
 15 16  1  0  0  0
 16 17  1  0  0  0
 16  1  1  0  0  0
  1  2  1  0  0  0
  2  3  2  0  0  0
  2  4  1  0  0  0
  4  5  1  0  0  0
  5  6  1  0  0  0
  6 18  1  0  0  0
 18 19  1  0  0  0
 19 20  2  0  0  0
 20 21  1  0  0  0
 21 22  2  0  0  0
 22 23  1  0  0  0
 23 24  2  0  0  0
  6  7  2  0  0  0
  7  8  1  0  0  0
  8  9  1  0  0  0
  9 10  1  0  0  0
 10 11  1  0  0  0
 11 25  1  0  0  0
 25 26  1  0  0  0
 26 27  2  0  0  0
 27 28  1  0  0  0
 28 29  2  0  0  0
 29 30  1  0  0  0
 30 31  2  0  0  0
 11 12  1  0  0  0
 12 13  2  0  0  0
 13  1  1  0  0  0
  8  4  2  0  0  0
 13  9  1  0  0  0
 24 19  1  0  0  0
 31 26  1  0  0  0
  5 14  1  0  0  0
M  END
> <minimizedAffinity>
-10.06885

$$$$



 31 35  0  0  0  0  0  0  0  0999 V2000
    1.4172   67.5228   81.8243 N   0  0  0  0  0  0  0  0  0  0  0  0
    1.4441   67.4252   80.4218 C   0  0  0  0  0  0  0  0  0  0  0  0
    1.8021   68.3177   79.6596 O   0  0  0  0  0  0  0  0  0  0  0  0
    1.0247   66.1495   79.9308 C   0  0  0  0  0  0  0  0  0  0  0  0
    0.9696   65.6625   78.6590 N   0  0  0  0  0  0  0  0  0  0  0  0
    0.5261   64.3555   78.7410 C   0  0  0  0  0  0  0  0  0  0  0  0
    0.2923   64.0135   80.0001 N   0  0  0  0  0  0  0  0  0  0  0  0
    0.5962   65.1239   80.7177 C   0  0  0  0  0  0  0  0  0  0  0  0
    0.5187   65.2874   82.0353 N   0  0  0  0  0  0  0  0  0  0  0  0
    0.3279   64.2656   83.0163 C   0  0  0  0  0  0  0  0  0  0  0  0
    0.4515   65.1092   84.3067 C   0  0  0  0  0  0  0  0  0  0  0  0
    1.0236   66.4516   83.9090 N   0  0  0  0  0  0  0  0  0  0  0  0
    0.9902   66.4418   82.5992 C   0  0  0  0  0  0  0  0  0  0  0  0
    1.2404   66.1546   77.8163 H   0  0  0  0  0  0  0  0  0  0  0  0
    1.0311   69.9750   82.0846 C   0  0  0  0  0  0  0  0  0  0  0  0
    1.8719   68.7594   82.4832 C   0  0  0  0  0  0  0  0  0  0  0  0
    3.3652   69.0127   82.2633 C   0  0  0  0  0  0  0  0  0  0  0  0
    0.3311   63.4871   77.5371 C   0  0  0  0  0  0  0  0  0  0  0  0
   -0.8259   62.5212   77.6612 C   0  0  0  0  0  0  0  0  0  0  0  0
   -0.6034   61.1799   78.0049 C   0  0  0  0  0  0  0  0  0  0  0  0
   -1.6776   60.3001   78.1467 C   0  0  0  0  0  0  0  0  0  0  0  0
   -2.9813   60.7514   77.9485 C   0  0  0  0  0  0  0  0  0  0  0  0
   -3.2138   62.0822   77.6068 C   0  0  0  0  0  0  0  0  0  0  0  0
   -2.1423   62.9642   77.4638 C   0  0  0  0  0  0  0  0  0  0  0  0
    1.3585   64.4741   85.3652 C   0  0  0  0  0  0  0  0  0  0  0  0
    0.5945   63.9624   86.5627 C   0  0  0  0  0  0  0  0  0  0  0  0
   -0.7839   63.7233   86.4751 C   0  0  0  0  0  0  0  0  0  0  0  0
   -1.4889   63.2339   87.5755 C   0  0  0  0  0  0  0  0  0  0  0  0
   -0.8242   62.9803   88.7735 C   0  0  0  0  0  0  0  0  0  0  0  0
    0.5451   63.2185   88.8730 C   0  0  0  0  0  0  0  0  0  0  0  0
    1.2520   63.7084   87.7737 C   0  0  0  0  0  0  0  0  0  0  0  0
 15 16  1  0  0  0
 16 17  1  0  0  0
 16  1  1  0  0  0
  1  2  1  0  0  0
  2  3  2  0  0  0
  2  4  1  0  0  0
  4  5  1  0  0  0
  5  6  1  0  0  0
  6 18  1  0  0  0
 18 19  1  0  0  0
 19 20  2  0  0  0
 20 21  1  0  0  0
 21 22  2  0  0  0
 22 23  1  0  0  0
 23 24  2  0  0  0
  6  7  2  0  0  0
  7  8  1  0  0  0
  8  9  1  0  0  0
  9 10  1  0  0  0
 10 11  1  0  0  0
 11 25  1  0  0  0
 25 26  1  0  0  0
 26 27  2  0  0  0
 27 28  1  0  0  0
 28 29  2  0  0  0
 29 30  1  0  0  0
 30 31  2  0  0  0
 11 12  1  0  0  0
 12 13  2  0  0  0
 13  1  1  0  0  0
  8  4  2  0  0  0
 13  9  1  0  0  0
 24 19  1  0  0  0
 31 26  1  0  0  0
  5 14  1  0  0  0
M  END
> <minimizedAffinity>
-10.02027

$$$$



 31 35  0  0  0  0  0  0  0  0999 V2000
   -1.1018   62.9980   78.8155 N   0  0  0  0  0  0  0  0  0  0  0  0
   -1.7681   62.0137   79.5669 C   0  0  0  0  0  0  0  0  0  0  0  0
   -2.2128   60.9628   79.1158 O   0  0  0  0  0  0  0  0  0  0  0  0
   -1.8758   62.3329   80.9565 C   0  0  0  0  0  0  0  0  0  0  0  0
   -2.3947   61.6170   81.9938 N   0  0  0  0  0  0  0  0  0  0  0  0
   -2.2141   62.3691   83.1399 C   0  0  0  0  0  0  0  0  0  0  0  0
   -1.6200   63.5207   82.8610 N   0  0  0  0  0  0  0  0  0  0  0  0
   -1.4239   63.4879   81.5192 C   0  0  0  0  0  0  0  0  0  0  0  0
   -0.8649   64.4223   80.7556 N   0  0  0  0  0  0  0  0  0  0  0  0
   -0.1304   65.5654   81.1989 C   0  0  0  0  0  0  0  0  0  0  0  0
    0.3197   66.1382   79.8346 C   0  0  0  0  0  0  0  0  0  0  0  0
    0.0629   65.0695   78.7956 N   0  0  0  0  0  0  0  0  0  0  0  0
   -0.6346   64.1611   79.4321 C   0  0  0  0  0  0  0  0  0  0  0  0
   -2.8008   60.6908   81.9393 H   0  0  0  0  0  0  0  0  0  0  0  0
   -2.1537   62.8865   76.5546 C   0  0  0  0  0  0  0  0  0  0  0  0
   -0.8659   62.7886   77.3765 C   0  0  0  0  0  0  0  0  0  0  0  0
   -0.1211   61.4806   77.1000 C   0  0  0  0  0  0  0  0  0  0  0  0
   -2.6658   61.9105   84.4916 C   0  0  0  0  0  0  0  0  0  0  0  0
   -1.9100   62.5465   85.6368 C   0  0  0  0  0  0  0  0  0  0  0  0
   -2.5571   62.8366   86.8466 C   0  0  0  0  0  0  0  0  0  0  0  0
   -1.8473   63.3965   87.9100 C   0  0  0  0  0  0  0  0  0  0  0  0
   -0.4873   63.6698   87.7755 C   0  0  0  0  0  0  0  0  0  0  0  0
    0.1656   63.3855   86.5778 C   0  0  0  0  0  0  0  0  0  0  0  0
   -0.5409   62.8262   85.5127 C   0  0  0  0  0  0  0  0  0  0  0  0
    1.8010   66.5262   79.7956 C   0  0  0  0  0  0  0  0  0  0  0  0
    2.0807   67.8450   80.4754 C   0  0  0  0  0  0  0  0  0  0  0  0
    2.0739   69.0378   79.7391 C   0  0  0  0  0  0  0  0  0  0  0  0
    2.3150   70.2598   80.3686 C   0  0  0  0  0  0  0  0  0  0  0  0
    2.5663   70.3014   81.7384 C   0  0  0  0  0  0  0  0  0  0  0  0
    2.5797   69.1213   82.4793 C   0  0  0  0  0  0  0  0  0  0  0  0
    2.3393   67.8981   81.8515 C   0  0  0  0  0  0  0  0  0  0  0  0
 15 16  1  0  0  0
 16 17  1  0  0  0
 16  1  1  0  0  0
  1  2  1  0  0  0
  2  3  2  0  0  0
  2  4  1  0  0  0
  4  5  1  0  0  0
  5  6  1  0  0  0
  6 18  1  0  0  0
 18 19  1  0  0  0
 19 20  2  0  0  0
 20 21  1  0  0  0
 21 22  2  0  0  0
 22 23  1  0  0  0
 23 24  2  0  0  0
  6  7  2  0  0  0
  7  8  1  0  0  0
  8  9  1  0  0  0
  9 10  1  0  0  0
 10 11  1  0  0  0
 11 25  1  0  0  0
 25 26  1  0  0  0
 26 27  2  0  0  0
 27 28  1  0  0  0
 28 29  2  0  0  0
 29 30  1  0  0  0
 30 31  2  0  0  0
 11 12  1  0  0  0
 12 13  2  0  0  0
 13  1  1  0  0  0
  8  4  2  0  0  0
 13  9  1  0  0  0
 24 19  1  0  0  0
 31 26  1  0  0  0
  5 14  1  0  0  0
M  END
> <minimizedAffinity>
-9.77635

$$$$



 31 35  0  0  0  0  0  0  0  0999 V2000
    4.1961   67.2641   84.4907 N   0  0  0  0  0  0  0  0  0  0  0  0
    3.7905   65.9834   84.9062 C   0  0  0  0  0  0  0  0  0  0  0  0
    4.4240   65.2538   85.6625 O   0  0  0  0  0  0  0  0  0  0  0  0
    2.5236   65.5864   84.3754 C   0  0  0  0  0  0  0  0  0  0  0  0
    1.7853   64.4607   84.5891 N   0  0  0  0  0  0  0  0  0  0  0  0
    0.6177   64.5937   83.8605 C   0  0  0  0  0  0  0  0  0  0  0  0
    0.6026   65.7409   83.1967 N   0  0  0  0  0  0  0  0  0  0  0  0
    1.7788   66.3362   83.5164 C   0  0  0  0  0  0  0  0  0  0  0  0
    2.2374   67.5108   83.0937 N   0  0  0  0  0  0  0  0  0  0  0  0
    1.5003   68.5195   82.3996 C   0  0  0  0  0  0  0  0  0  0  0  0
    2.5746   69.6296   82.3238 C   0  0  0  0  0  0  0  0  0  0  0  0
    3.6861   69.2401   83.2726 N   0  0  0  0  0  0  0  0  0  0  0  0
    3.3951   68.0118   83.6243 C   0  0  0  0  0  0  0  0  0  0  0  0
    2.0301   63.6898   85.1985 H   0  0  0  0  0  0  0  0  0  0  0  0
    6.6842   67.0662   84.5015 C   0  0  0  0  0  0  0  0  0  0  0  0
    5.4565   67.8351   84.9963 C   0  0  0  0  0  0  0  0  0  0  0  0
    5.4556   67.9714   86.5206 C   0  0  0  0  0  0  0  0  0  0  0  0
   -0.4499   63.5443   83.8389 C   0  0  0  0  0  0  0  0  0  0  0  0
   -1.0570   63.2622   85.1950 C   0  0  0  0  0  0  0  0  0  0  0  0
   -0.4240   63.7013   86.3668 C   0  0  0  0  0  0  0  0  0  0  0  0
   -1.0041   63.4637   87.6138 C   0  0  0  0  0  0  0  0  0  0  0  0
   -2.2199   62.7880   87.7016 C   0  0  0  0  0  0  0  0  0  0  0  0
   -2.8576   62.3474   86.5436 C   0  0  0  0  0  0  0  0  0  0  0  0
   -2.2803   62.5829   85.2955 C   0  0  0  0  0  0  0  0  0  0  0  0
    2.0484   71.0144   82.7135 C   0  0  0  0  0  0  0  0  0  0  0  0
    2.9458   72.1359   82.2484 C   0  0  0  0  0  0  0  0  0  0  0  0
    3.1229   73.2778   83.0419 C   0  0  0  0  0  0  0  0  0  0  0  0
    3.9655   74.3080   82.6220 C   0  0  0  0  0  0  0  0  0  0  0  0
    4.6376   74.2077   81.4057 C   0  0  0  0  0  0  0  0  0  0  0  0
    4.4655   73.0789   80.6070 C   0  0  0  0  0  0  0  0  0  0  0  0
    3.6229   72.0477   81.0249 C   0  0  0  0  0  0  0  0  0  0  0  0
 15 16  1  0  0  0
 16 17  1  0  0  0
 16  1  1  0  0  0
  1  2  1  0  0  0
  2  3  2  0  0  0
  2  4  1  0  0  0
  4  5  1  0  0  0
  5  6  1  0  0  0
  6 18  1  0  0  0
 18 19  1  0  0  0
 19 20  2  0  0  0
 20 21  1  0  0  0
 21 22  2  0  0  0
 22 23  1  0  0  0
 23 24  2  0  0  0
  6  7  2  0  0  0
  7  8  1  0  0  0
  8  9  1  0  0  0
  9 10  1  0  0  0
 10 11  1  0  0  0
 11 25  1  0  0  0
 25 26  1  0  0  0
 26 27  2  0  0  0
 27 28  1  0  0  0
 28 29  2  0  0  0
 29 30  1  0  0  0
 30 31  2  0  0  0
 11 12  1  0  0  0
 12 13  2  0  0  0
 13  1  1  0  0  0
  8  4  2  0  0  0
 13  9  1  0  0  0
 24 19  1  0  0  0
 31 26  1  0  0  0
  5 14  1  0  0  0
M  END
> <minimizedAffinity>
-9.58892

$$$$
