
     RDKit          3D

 61 64  0  0  0  0  0  0  0  0999 V2000
   -1.7510    6.8240   -0.7802 C   0  0  0  0  0  0  0  0  0  0  0  0
   -1.7368    5.3060   -0.7542 C   0  0  0  0  0  0  0  0  0  0  0  0
   -1.9495    4.7639    0.6563 C   0  0  0  0  0  0  0  0  0  0  0  0
   -1.9737    3.3337    0.6446 O   0  0  0  0  0  0  0  0  0  0  0  0
   -0.8146    2.6252    0.8322 C   0  0  0  0  0  0  0  0  0  0  0  0
    0.4579    3.2163    0.8602 C   0  0  0  0  0  0  0  0  0  0  0  0
    1.6060    2.4413    1.0439 C   0  0  0  0  0  0  0  0  0  0  0  0
    1.4899    1.0620    1.1959 C   0  0  0  0  0  0  0  0  0  0  0  0
    2.9498    0.0873    1.4667 S   0  0  0  0  0  0  0  0  0  0  0  0
    2.5576   -1.1861    2.0299 O   0  0  0  0  0  0  0  0  0  0  0  0
    3.9084    0.9347    2.1453 O   0  0  0  0  0  0  0  0  0  0  0  0
    3.5196   -0.1856   -0.1175 N   0  0  0  0  0  0  0  0  0  0  0  0
    2.5729   -0.9260   -1.0203 C   0  0  0  0  0  0  0  0  0  0  0  0
    3.3133   -1.5203   -2.2325 C   0  0  0  0  0  0  0  0  0  0  0  0
    4.3089   -2.5422   -1.8518 N   0  0  0  0  0  0  0  0  0  0  0  0
    5.3082   -2.7074   -2.9036 C   0  0  0  0  0  0  0  0  0  0  0  0
    4.9240   -2.2392   -0.5434 C   0  0  0  0  0  0  0  0  0  0  0  0
    4.9131   -0.7476   -0.1641 C   0  0  0  0  0  0  0  0  0  0  0  0
    0.2357    0.4525    1.1793 C   0  0  0  0  0  0  0  0  0  0  0  0
   -0.9258    1.2225    0.9821 C   0  0  0  0  0  0  0  0  0  0  0  0
   -2.2244    0.4689    0.9369 C   0  0  0  0  0  0  0  0  0  0  0  0
   -2.2290   -0.8276    0.9037 N   0  0  0  0  0  0  0  0  0  0  0  0
   -3.4414   -1.4787    0.8638 C   0  0  0  0  0  0  0  0  0  0  0  0
   -3.4080   -2.9625    0.8477 C   0  0  0  0  0  0  0  0  0  0  0  0
   -4.2556   -3.7180    0.0212 C   0  0  0  0  0  0  0  0  0  0  0  0
   -4.1932   -5.1147    0.0186 C   0  0  0  0  0  0  0  0  0  0  0  0
   -3.2771   -5.7747    0.8346 C   0  0  0  0  0  0  0  0  0  0  0  0
   -2.4186   -5.0405    1.6490 C   0  0  0  0  0  0  0  0  0  0  0  0
   -2.4814   -3.6447    1.6518 C   0  0  0  0  0  0  0  0  0  0  0  0
   -4.6244   -0.8478    0.8721 C   0  0  0  0  0  0  0  0  0  0  0  0
   -4.6206    0.6180    0.8937 C   0  0  0  0  0  0  0  0  0  0  0  0
   -5.6622    1.2628    0.8711 O   0  0  0  0  0  0  0  0  0  0  0  0
   -3.3884    1.1926    0.9355 N   0  0  0  0  0  0  0  0  0  0  0  0
   -2.7065    7.2141   -0.4152 H   0  0  0  0  0  0  0  0  0  0  0  0
   -0.9508    7.2337   -0.1557 H   0  0  0  0  0  0  0  0  0  0  0  0
   -1.6042    7.1874   -1.8021 H   0  0  0  0  0  0  0  0  0  0  0  0
   -0.7901    4.9411   -1.1671 H   0  0  0  0  0  0  0  0  0  0  0  0
   -2.5200    4.9158   -1.4154 H   0  0  0  0  0  0  0  0  0  0  0  0
   -2.9385    5.0804    1.0089 H   0  0  0  0  0  0  0  0  0  0  0  0
   -1.2351    5.1642    1.3845 H   0  0  0  0  0  0  0  0  0  0  0  0
    0.6006    4.2848    0.7322 H   0  0  0  0  0  0  0  0  0  0  0  0
    2.5840    2.9194    1.0671 H   0  0  0  0  0  0  0  0  0  0  0  0
    1.8200   -0.2189   -1.3846 H   0  0  0  0  0  0  0  0  0  0  0  0
    2.0606   -1.7279   -0.4770 H   0  0  0  0  0  0  0  0  0  0  0  0
    2.5840   -1.9764   -2.9117 H   0  0  0  0  0  0  0  0  0  0  0  0
    3.7929   -0.6952   -2.7770 H   0  0  0  0  0  0  0  0  0  0  0  0
    5.9813   -3.5386   -2.6663 H   0  0  0  0  0  0  0  0  0  0  0  0
    4.8271   -2.9558   -3.8562 H   0  0  0  0  0  0  0  0  0  0  0  0
    5.9123   -1.8042   -3.0458 H   0  0  0  0  0  0  0  0  0  0  0  0
    4.3592   -2.7939    0.2169 H   0  0  0  0  0  0  0  0  0  0  0  0
    5.9491   -2.6259   -0.4895 H   0  0  0  0  0  0  0  0  0  0  0  0
    5.4833   -0.1626   -0.8962 H   0  0  0  0  0  0  0  0  0  0  0  0
    5.4252   -0.6182    0.7951 H   0  0  0  0  0  0  0  0  0  0  0  0
    0.1615   -0.6259    1.3160 H   0  0  0  0  0  0  0  0  0  0  0  0
   -4.9640   -3.2280   -0.6424 H   0  0  0  0  0  0  0  0  0  0  0  0
   -4.8556   -5.6860   -0.6266 H   0  0  0  0  0  0  0  0  0  0  0  0
   -3.2264   -6.8603    0.8303 H   0  0  0  0  0  0  0  0  0  0  0  0
   -1.6954   -5.5502    2.2803 H   0  0  0  0  0  0  0  0  0  0  0  0
   -1.7988   -3.0858    2.2895 H   0  0  0  0  0  0  0  0  0  0  0  0
   -5.5866   -1.3390    0.8699 H   0  0  0  0  0  0  0  0  0  0  0  0
   -3.3587    2.2039    0.9349 H   0  0  0  0  0  0  0  0  0  0  0  0
  1  2  1  0
  2  3  1  0
  3  4  1  0
  4  5  1  0
  5  6  1  0
  6  7  2  0
  7  8  1  0
  8  9  1  0
  9 10  2  0
  9 11  2  0
  9 12  1  0
 12 13  1  0
 13 14  1  0
 14 15  1  0
 15 16  1  0
 15 17  1  0
 17 18  1  0
  8 19  2  0
 19 20  1  0
 20 21  1  0
 21 22  2  0
 22 23  1  0
 23 24  1  0
 24 25  2  0
 25 26  1  0
 26 27  2  0
 27 28  1  0
 28 29  2  0
 23 30  2  0
 30 31  1  0
 31 32  2  0
 31 33  1  0
 20  5  2  0
 33 21  1  0
 18 12  1  0
 29 24  1  0
  1 34  1  0
  1 35  1  0
  1 36  1  0
  2 37  1  0
  2 38  1  0
  3 39  1  0
  3 40  1  0
  6 41  1  0
  7 42  1  0
 13 43  1  0
 13 44  1  0
 14 45  1  0
 14 46  1  0
 16 47  1  0
 16 48  1  0
 16 49  1  0
 17 50  1  0
 17 51  1  0
 18 52  1  0
 18 53  1  0
 19 54  1  0
 25 55  1  0
 26 56  1  0
 27 57  1  0
 28 58  1  0
 29 59  1  0
 30 60  1  0
 33 61  1  0
M  END
$$$$
