
     RDKit          3D

 32 34  0  0  0  0  0  0  0  0999 V2000
    0.2583   65.3845   81.8711 N   0  0  0  0  0  0  0  0  0  0  0  0
    0.1391   64.7033   80.6740 C   0  0  0  0  0  0  0  0  0  0  0  0
    0.7542   64.9150   79.6371 O   0  0  0  0  0  0  0  0  0  0  0  0
   -0.3438   65.0190   82.6061 H   0  0  0  0  0  0  0  0  0  0  0  0
    2.6964   68.7534   82.6627 C   0  0  0  0  0  0  0  0  0  0  0  0
    1.7567   68.7432   81.6260 C   0  0  0  0  0  0  0  0  0  0  0  0
    0.9660   67.6136   81.3893 C   0  0  0  0  0  0  0  0  0  0  0  0
    1.0933   66.4706   82.1804 C   0  0  0  0  0  0  0  0  0  0  0  0
    2.0266   66.4720   83.2159 C   0  0  0  0  0  0  0  0  0  0  0  0
    2.8271   67.6051   83.4708 C   0  0  0  0  0  0  0  0  0  0  0  0
    3.7904   67.4918   84.6110 C   0  0  0  0  0  0  0  0  0  0  0  0
    4.7011   66.6646   84.6059 O   0  0  0  0  0  0  0  0  0  0  0  0
    3.6330   68.3569   85.6688 N   0  0  0  0  0  0  0  0  0  0  0  0
    4.6869   68.3610   86.6135 O   0  0  0  0  0  0  0  0  0  0  0  0
    3.0986   69.2158   85.5668 H   0  0  0  0  0  0  0  0  0  0  0  0
    5.2616   67.6392   86.2739 H   0  0  0  0  0  0  0  0  0  0  0  0
    2.9745   71.1323   82.7604 C   0  0  0  0  0  0  0  0  0  0  0  0
    3.5107   69.8239   82.9334 O   0  0  0  0  0  0  0  0  0  0  0  0
   -0.8706   63.5937   80.7379 C   0  0  0  0  0  0  0  0  0  0  0  0
   -1.3029   62.9789   79.5713 C   0  0  0  0  0  0  0  0  0  0  0  0
   -2.2340   61.9537   79.6808 C   0  0  0  0  0  0  0  0  0  0  0  0
   -2.6960   61.5824   80.9412 C   0  0  0  0  0  0  0  0  0  0  0  0
   -2.2123   62.2459   82.0705 C   0  0  0  0  0  0  0  0  0  0  0  0
   -1.3075   63.2558   81.9881 N   0  0  0  0  0  0  0  0  0  0  0  0
   -2.7241   61.8725   83.4462 C   0  0  0  0  0  0  0  0  0  0  0  0
   -1.6221   61.5169   84.2815 O   0  0  0  0  0  0  0  0  0  0  0  0
   -1.4546   62.2405   85.4298 C   0  0  0  0  0  0  0  0  0  0  0  0
   -0.3170   62.9657   85.7879 C   0  0  0  0  0  0  0  0  0  0  0  0
   -0.2836   63.6656   86.9985 C   0  0  0  0  0  0  0  0  0  0  0  0
   -1.3836   63.6432   87.8543 C   0  0  0  0  0  0  0  0  0  0  0  0
   -2.5202   62.9203   87.5019 C   0  0  0  0  0  0  0  0  0  0  0  0
   -2.5530   62.2223   86.2937 C   0  0  0  0  0  0  0  0  0  0  0  0
 17 18  1  0
 18  5  1  0
  5  6  1  0
  6  7  2  0
  7  8  1  0
  8  1  1  0
  1  2  1  0
  2  3  2  0
  2 19  1  0
 19 20  2  0
 20 21  1  0
 21 22  2  0
 22 23  1  0
 23 25  1  0
 25 26  1  0
 26 27  1  0
 27 28  2  0
 28 29  1  0
 29 30  2  0
 30 31  1  0
 31 32  2  0
 23 24  2  0
  8  9  2  0
  9 10  1  0
 10 11  1  0
 11 12  2  0
 11 13  1  0
 13 14  1  0
 10  5  2  0
 24 19  1  0
 32 27  1  0
  1  4  1  0
 13 15  1  0
 14 16  1  0
M  END
>  <minimizedAffinity>  (1) 
-9.58762

$$$$
