
     RDKit          3D

 47 51  0  0  0  0  0  0  0  0999 V2000
    5.4143    1.5857    1.7046 C   0  0  0  0  0  0  0  0  0  0  0  0
    5.1300    0.4719    0.6951 C   0  0  0  0  0  0  0  0  0  0  0  0
    6.1567    0.4505   -0.4389 C   0  0  0  0  0  0  0  0  0  0  0  0
    5.2171   -0.8823    1.4425 C   0  0  0  0  0  0  0  0  0  0  0  0
    6.1858   -1.3429    2.0222 O   0  0  0  0  0  0  0  0  0  0  0  0
    3.9837   -1.4906    1.3373 N   0  0  0  0  0  0  0  0  0  0  0  0
    3.0951   -0.7174    0.6200 C   0  0  0  0  0  0  0  0  0  0  0  0
    1.8421   -1.0933    0.3852 N   0  0  0  0  0  0  0  0  0  0  0  0
    1.1199   -0.2117   -0.3320 C   0  0  0  0  0  0  0  0  0  0  0  0
   -0.2556   -0.5247   -0.6397 N   0  0  0  0  0  0  0  0  0  0  0  0
   -1.0132    0.3463   -1.3701 N   0  0  0  0  0  0  0  0  0  0  0  0
   -2.2253   -0.2134   -1.4415 C   0  0  0  0  0  0  0  0  0  0  0  0
   -3.3277    0.4845   -2.1715 C   0  0  0  0  0  0  0  0  0  0  0  0
   -4.1176    1.2358   -1.1311 C   0  0  0  0  0  0  0  0  0  0  0  0
   -3.6368    2.4357   -0.5819 C   0  0  0  0  0  0  0  0  0  0  0  0
   -4.3782    3.1233    0.3824 C   0  0  0  0  0  0  0  0  0  0  0  0
   -5.6086    2.6236    0.8084 C   0  0  0  0  0  0  0  0  0  0  0  0
   -6.0981    1.4355    0.2694 C   0  0  0  0  0  0  0  0  0  0  0  0
   -5.3541    0.7552   -0.6908 C   0  0  0  0  0  0  0  0  0  0  0  0
   -5.8480   -0.3835   -1.1985 F   0  0  0  0  0  0  0  0  0  0  0  0
   -2.2609   -1.4771   -0.7991 C   0  0  0  0  0  0  0  0  0  0  0  0
   -3.2408   -2.4693   -0.6030 C   0  0  0  0  0  0  0  0  0  0  0  0
   -2.8996   -3.6179    0.1065 C   0  0  0  0  0  0  0  0  0  0  0  0
   -3.8255   -4.5673    0.2976 F   0  0  0  0  0  0  0  0  0  0  0  0
   -1.6245   -3.8027    0.6191 C   0  0  0  0  0  0  0  0  0  0  0  0
   -0.6374   -2.8298    0.4349 C   0  0  0  0  0  0  0  0  0  0  0  0
   -0.9764   -1.6651   -0.2829 C   0  0  0  0  0  0  0  0  0  0  0  0
    1.6150    0.9675   -0.7847 N   0  0  0  0  0  0  0  0  0  0  0  0
    2.8972    1.2830   -0.5078 C   0  0  0  0  0  0  0  0  0  0  0  0
    3.5234    3.1236   -1.2639 I   0  0  0  0  0  0  0  0  0  0  0  0
    3.7024    0.4505    0.2119 C   0  0  0  0  0  0  0  0  0  0  0  0
    4.6827    1.5826    2.5216 H   0  0  0  0  0  0  0  0  0  0  0  0
    5.3909    2.5766    1.2433 H   0  0  0  0  0  0  0  0  0  0  0  0
    6.4046    1.4614    2.1584 H   0  0  0  0  0  0  0  0  0  0  0  0
    7.1693    0.2927   -0.0493 H   0  0  0  0  0  0  0  0  0  0  0  0
    6.1683    1.3871   -1.0028 H   0  0  0  0  0  0  0  0  0  0  0  0
    5.9540   -0.3612   -1.1479 H   0  0  0  0  0  0  0  0  0  0  0  0
    3.7583   -2.3885    1.7352 H   0  0  0  0  0  0  0  0  0  0  0  0
   -3.9538   -0.2352   -2.7107 H   0  0  0  0  0  0  0  0  0  0  0  0
   -2.9341    1.1826   -2.9201 H   0  0  0  0  0  0  0  0  0  0  0  0
   -2.6734    2.8331   -0.8994 H   0  0  0  0  0  0  0  0  0  0  0  0
   -3.9916    4.0488    0.8025 H   0  0  0  0  0  0  0  0  0  0  0  0
   -6.1836    3.1594    1.5592 H   0  0  0  0  0  0  0  0  0  0  0  0
   -7.0542    1.0344    0.5902 H   0  0  0  0  0  0  0  0  0  0  0  0
   -4.2490   -2.3570   -0.9884 H   0  0  0  0  0  0  0  0  0  0  0  0
   -1.3993   -4.7133    1.1671 H   0  0  0  0  0  0  0  0  0  0  0  0
    0.3566   -2.9871    0.8414 H   0  0  0  0  0  0  0  0  0  0  0  0
  1  2  1  0
  2  3  1  0
  2  4  1  0
  4  5  2  0
  4  6  1  0
  6  7  1  0
  7  8  2  0
  8  9  1  0
  9 10  1  0
 10 11  1  0
 11 12  2  0
 12 13  1  0
 13 14  1  0
 14 15  2  0
 15 16  1  0
 16 17  2  0
 17 18  1  0
 18 19  2  0
 19 20  1  0
 12 21  1  0
 21 22  2  0
 22 23  1  0
 23 24  1  0
 23 25  2  0
 25 26  1  0
 26 27  2  0
  9 28  2  0
 28 29  1  0
 29 30  1  0
 29 31  2  0
 31  2  1  0
 31  7  1  0
 27 10  1  0
 19 14  1  0
 27 21  1  0
  1 32  1  0
  1 33  1  0
  1 34  1  0
  3 35  1  0
  3 36  1  0
  3 37  1  0
  6 38  1  0
 13 39  1  0
 13 40  1  0
 15 41  1  0
 16 42  1  0
 17 43  1  0
 18 44  1  0
 22 45  1  0
 25 46  1  0
 26 47  1  0
M  END
$$$$
