
     RDKit          3D

 28 32  0  0  0  0  0  0  0  0999 V2000
   -0.6102   62.4837   86.2819 C   0  0  0  0  0  0  0  0  0  0  0  0
   -0.3571   63.3054   85.1152 N   0  0  0  0  0  0  0  0  0  0  0  0
    0.4389   64.4517   85.2348 C   0  0  0  0  0  0  0  0  0  0  0  0
    0.9653   64.8060   86.2858 O   0  0  0  0  0  0  0  0  0  0  0  0
    0.5861   65.1852   84.0030 C   0  0  0  0  0  0  0  0  0  0  0  0
    0.0242   64.7804   82.8254 C   0  0  0  0  0  0  0  0  0  0  0  0
    0.2888   65.6229   81.8038 N   0  0  0  0  0  0  0  0  0  0  0  0
    1.0437   66.5847   82.3313 C   0  0  0  0  0  0  0  0  0  0  0  0
    1.2490   66.3498   83.6892 N   0  0  0  0  0  0  0  0  0  0  0  0
   -0.6926   63.6618   82.7655 N   0  0  0  0  0  0  0  0  0  0  0  0
   -0.9196   62.9382   83.9006 C   0  0  0  0  0  0  0  0  0  0  0  0
   -1.6915   61.8881   83.7724 N   0  0  0  0  0  0  0  0  0  0  0  0
   -2.0815   61.8995   82.3231 C   0  0  2  0  0  0  0  0  0  0  0  0
   -1.5441   60.6579   81.6168 C   0  0  0  0  0  0  0  0  0  0  0  0
   -1.0888   61.1723   80.2602 C   0  0  0  0  0  0  0  0  0  0  0  0
   -0.4659   62.5218   80.5850 C   0  0  0  0  0  0  0  0  0  0  0  0
   -1.3892   63.1142   81.6447 C   0  0  2  0  0  0  0  0  0  0  0  0
    1.6155   67.7596   81.5961 C   0  0  0  0  0  0  0  0  0  0  0  0
    1.1398   67.8534   80.3250 F   0  0  0  0  0  0  0  0  0  0  0  0
    2.9687   67.6972   81.4877 F   0  0  0  0  0  0  0  0  0  0  0  0
    1.3284   68.9362   82.2074 F   0  0  0  0  0  0  0  0  0  0  0  0
    1.9731   67.2026   84.6261 C   0  0  0  0  0  0  0  0  0  0  0  0
    3.4510   66.9089   84.6414 C   0  0  0  0  0  0  0  0  0  0  0  0
    4.3772   67.8949   84.2695 C   0  0  0  0  0  0  0  0  0  0  0  0
    5.7470   67.6254   84.2841 C   0  0  0  0  0  0  0  0  0  0  0  0
    6.2081   66.3722   84.6794 C   0  0  0  0  0  0  0  0  0  0  0  0
    5.3010   65.3884   85.0650 C   0  0  0  0  0  0  0  0  0  0  0  0
    3.9310   65.6551   85.0497 C   0  0  0  0  0  0  0  0  0  0  0  0
  1  2  1  0
  2  3  1  0
  3  4  2  0
  3  5  1  0
  5  6  2  0
  6  7  1  0
  7  8  2  0
  8 18  1  0
 18 19  1  0
 18 20  1  0
 18 21  1  0
  8  9  1  0
  9 22  1  0
 22 23  1  0
 23 24  2  0
 24 25  1  0
 25 26  2  0
 26 27  1  0
 27 28  2  0
  6 10  1  0
 10 11  1  0
 11 12  2  0
 12 13  1  0
 13 14  1  6
 14 15  1  0
 15 16  1  0
 17 16  1  6
 11  2  1  0
 17 13  1  0
  9  5  1  0
 28 23  1  0
 17 10  1  0
M  END
>  <minimizedAffinity>  (1) 
-9.39146

$$$$
