


 22 24  0  0  0  0  0  0  0  0999 V2000
   -0.8865   61.9845   84.2358 C   0  0  0  0  0  0  0  0  0  0  0  0
   -2.0835   61.5210   84.0030 N   0  0  0  0  0  0  0  0  0  0  0  0
   -2.2634   60.9620   82.7379 C   0  0  0  0  0  0  0  0  0  0  0  0
   -3.4099   60.4111   82.2460 N   0  0  0  0  0  0  0  0  0  0  0  0
   -3.1007   60.0216   81.0260 C   0  0  0  0  0  0  0  0  0  0  0  0
   -1.7960   60.3033   80.7183 N   0  0  0  0  0  0  0  0  0  0  0  0
   -1.2589   60.9062   81.8153 C   0  0  0  0  0  0  0  0  0  0  0  0
    0.0419   61.4037   82.0527 C   0  0  0  0  0  0  0  0  0  0  0  0
    0.9667   61.3709   81.2502 O   0  0  0  0  0  0  0  0  0  0  0  0
    0.1502   61.9380   83.3113 N   0  0  0  0  0  0  0  0  0  0  0  0
   -1.3189   60.1052   79.8487 H   0  0  0  0  0  0  0  0  0  0  0  0
    1.0554   62.3165   83.5581 H   0  0  0  0  0  0  0  0  0  0  0  0
   -0.0184   63.9002   85.7422 C   0  0  0  0  0  0  0  0  0  0  0  0
    0.2243   64.3758   87.0404 C   0  0  0  0  0  0  0  0  0  0  0  0
   -0.0777   63.5957   88.1591 C   0  0  0  0  0  0  0  0  0  0  0  0
   -0.6261   62.3304   87.9977 C   0  0  0  0  0  0  0  0  0  0  0  0
   -0.8735   61.8432   86.7151 C   0  0  0  0  0  0  0  0  0  0  0  0
   -0.5769   62.6124   85.5731 C   0  0  0  0  0  0  0  0  0  0  0  0
    0.2612   64.6291   84.6124 O   0  0  0  0  0  0  0  0  0  0  0  0
    1.2035   65.7005   84.7110 C   0  0  0  0  0  0  0  0  0  0  0  0
    0.6315   65.4901   82.2641 C   0  0  0  0  0  0  0  0  0  0  0  0
    1.3661   66.2998   83.3172 C   0  0  0  0  0  0  0  0  0  0  0  0
 21 22  1  0  0  0
 22 20  1  0  0  0
 20 19  1  0  0  0
 19 13  1  0  0  0
 13 14  2  0  0  0
 14 15  1  0  0  0
 15 16  2  0  0  0
 16 17  1  0  0  0
 17 18  2  0  0  0
 18  1  1  0  0  0
  1  2  2  0  0  0
  2  3  1  0  0  0
  3  4  1  0  0  0
  4  5  2  0  0  0
  5  6  1  0  0  0
  6  7  1  0  0  0
  7  8  1  0  0  0
  8  9  2  0  0  0
  8 10  1  0  0  0
 18 13  1  0  0  0
 10  1  1  0  0  0
  7  3  2  0  0  0
  6 11  1  0  0  0
 10 12  1  0  0  0
M  END
> <minimizedAffinity>
-8.38647

$$$$



 22 24  0  0  0  0  0  0  0  0999 V2000
   -0.9138   63.1734   83.3330 C   0  0  0  0  0  0  0  0  0  0  0  0
   -0.9802   62.4906   82.2234 N   0  0  0  0  0  0  0  0  0  0  0  0
   -1.8699   61.4167   82.2445 C   0  0  0  0  0  0  0  0  0  0  0  0
   -2.1257   60.5503   81.2228 N   0  0  0  0  0  0  0  0  0  0  0  0
   -3.0240   59.7159   81.7049 C   0  0  0  0  0  0  0  0  0  0  0  0
   -3.3533   60.0167   83.0001 N   0  0  0  0  0  0  0  0  0  0  0  0
   -2.6137   61.1069   83.3464 C   0  0  0  0  0  0  0  0  0  0  0  0
   -2.5526   61.8365   84.5545 C   0  0  0  0  0  0  0  0  0  0  0  0
   -3.2039   61.5883   85.5618 O   0  0  0  0  0  0  0  0  0  0  0  0
   -1.6615   62.8755   84.4660 N   0  0  0  0  0  0  0  0  0  0  0  0
   -4.0150   59.5289   83.5892 H   0  0  0  0  0  0  0  0  0  0  0  0
   -1.5609   63.4477   85.2942 H   0  0  0  0  0  0  0  0  0  0  0  0
    0.7720   64.6954   84.5716 C   0  0  0  0  0  0  0  0  0  0  0  0
    1.6048   65.8249   84.5349 C   0  0  0  0  0  0  0  0  0  0  0  0
    1.6942   66.6139   83.3857 C   0  0  0  0  0  0  0  0  0  0  0  0
    0.9541   66.2868   82.2575 C   0  0  0  0  0  0  0  0  0  0  0  0
    0.1224   65.1681   82.2774 C   0  0  0  0  0  0  0  0  0  0  0  0
    0.0167   64.3584   83.4250 C   0  0  0  0  0  0  0  0  0  0  0  0
    0.6506   63.8894   85.6768 O   0  0  0  0  0  0  0  0  0  0  0  0
    0.3968   64.5053   86.9424 C   0  0  0  0  0  0  0  0  0  0  0  0
    0.2164   63.0075   88.9631 C   0  0  0  0  0  0  0  0  0  0  0  0
   -0.4961   63.5615   87.7425 C   0  0  0  0  0  0  0  0  0  0  0  0
 21 22  1  0  0  0
 22 20  1  0  0  0
 20 19  1  0  0  0
 19 13  1  0  0  0
 13 14  2  0  0  0
 14 15  1  0  0  0
 15 16  2  0  0  0
 16 17  1  0  0  0
 17 18  2  0  0  0
 18  1  1  0  0  0
  1  2  2  0  0  0
  2  3  1  0  0  0
  3  4  1  0  0  0
  4  5  2  0  0  0
  5  6  1  0  0  0
  6  7  1  0  0  0
  7  8  1  0  0  0
  8  9  2  0  0  0
  8 10  1  0  0  0
 18 13  1  0  0  0
 10  1  1  0  0  0
  7  3  2  0  0  0
  6 11  1  0  0  0
 10 12  1  0  0  0
M  END
> <minimizedAffinity>
-8.30047

$$$$



 22 24  0  0  0  0  0  0  0  0999 V2000
    0.2664   64.3060   85.0454 C   0  0  0  0  0  0  0  0  0  0  0  0
    0.9345   64.4753   86.1529 N   0  0  0  0  0  0  0  0  0  0  0  0
    0.5258   63.6712   87.2167 C   0  0  0  0  0  0  0  0  0  0  0  0
    1.0544   63.6520   88.4737 N   0  0  0  0  0  0  0  0  0  0  0  0
    0.3519   62.7450   89.1214 C   0  0  0  0  0  0  0  0  0  0  0  0
   -0.6087   62.1817   88.3238 N   0  0  0  0  0  0  0  0  0  0  0  0
   -0.4976   62.7751   87.1027 C   0  0  0  0  0  0  0  0  0  0  0  0
   -1.2302   62.5807   85.9105 C   0  0  0  0  0  0  0  0  0  0  0  0
   -2.1530   61.7873   85.7714 O   0  0  0  0  0  0  0  0  0  0  0  0
   -0.7785   63.4000   84.9076 N   0  0  0  0  0  0  0  0  0  0  0  0
   -1.2733   61.4652   88.5844 H   0  0  0  0  0  0  0  0  0  0  0  0
   -1.2543   63.3195   84.0184 H   0  0  0  0  0  0  0  0  0  0  0  0
    0.2068   64.8196   82.5105 C   0  0  0  0  0  0  0  0  0  0  0  0
    0.6030   65.6586   81.4571 C   0  0  0  0  0  0  0  0  0  0  0  0
    1.3979   66.7825   81.6944 C   0  0  0  0  0  0  0  0  0  0  0  0
    1.8082   67.0846   82.9859 C   0  0  0  0  0  0  0  0  0  0  0  0
    1.4233   66.2617   84.0434 C   0  0  0  0  0  0  0  0  0  0  0  0
    0.6221   65.1235   83.8273 C   0  0  0  0  0  0  0  0  0  0  0  0
   -0.5735   63.7045   82.3277 O   0  0  0  0  0  0  0  0  0  0  0  0
   -0.2267   62.7972   81.2778 C   0  0  0  0  0  0  0  0  0  0  0  0
    1.4281   61.0890   82.1159 C   0  0  0  0  0  0  0  0  0  0  0  0
   -0.0384   61.4188   81.9046 C   0  0  0  0  0  0  0  0  0  0  0  0
 21 22  1  0  0  0
 22 20  1  0  0  0
 20 19  1  0  0  0
 19 13  1  0  0  0
 13 14  2  0  0  0
 14 15  1  0  0  0
 15 16  2  0  0  0
 16 17  1  0  0  0
 17 18  2  0  0  0
 18  1  1  0  0  0
  1  2  2  0  0  0
  2  3  1  0  0  0
  3  4  1  0  0  0
  4  5  2  0  0  0
  5  6  1  0  0  0
  6  7  1  0  0  0
  7  8  1  0  0  0
  8  9  2  0  0  0
  8 10  1  0  0  0
 18 13  1  0  0  0
 10  1  1  0  0  0
  7  3  2  0  0  0
  6 11  1  0  0  0
 10 12  1  0  0  0
M  END
> <minimizedAffinity>
-8.17533

$$$$



 22 24  0  0  0  0  0  0  0  0999 V2000
   -0.8412   62.4240   82.2135 C   0  0  0  0  0  0  0  0  0  0  0  0
   -0.5923   62.4060   80.9331 N   0  0  0  0  0  0  0  0  0  0  0  0
   -1.2287   61.3880   80.2232 C   0  0  0  0  0  0  0  0  0  0  0  0
   -1.1376   61.1488   78.8836 N   0  0  0  0  0  0  0  0  0  0  0  0
   -1.9031   60.0969   78.6758 C   0  0  0  0  0  0  0  0  0  0  0  0
   -2.4820   59.6531   79.8352 N   0  0  0  0  0  0  0  0  0  0  0  0
   -2.0500   60.4804   80.8273 C   0  0  0  0  0  0  0  0  0  0  0  0
   -2.3290   60.4870   82.2122 C   0  0  0  0  0  0  0  0  0  0  0  0
   -3.0594   59.6901   82.7882 O   0  0  0  0  0  0  0  0  0  0  0  0
   -1.6735   61.5100   82.8488 N   0  0  0  0  0  0  0  0  0  0  0  0
   -3.1083   58.8659   79.9406 H   0  0  0  0  0  0  0  0  0  0  0  0
   -1.8232   61.5821   83.8468 H   0  0  0  0  0  0  0  0  0  0  0  0
    0.0614   63.3309   84.4620 C   0  0  0  0  0  0  0  0  0  0  0  0
    0.6576   64.3902   85.1641 C   0  0  0  0  0  0  0  0  0  0  0  0
    0.9867   65.5844   84.5184 C   0  0  0  0  0  0  0  0  0  0  0  0
    0.7256   65.7378   83.1634 C   0  0  0  0  0  0  0  0  0  0  0  0
    0.1342   64.6953   82.4515 C   0  0  0  0  0  0  0  0  0  0  0  0
   -0.2060   63.4826   83.0820 C   0  0  0  0  0  0  0  0  0  0  0  0
   -0.2801   62.1388   85.0520 O   0  0  0  0  0  0  0  0  0  0  0  0
   -0.8638   62.1694   86.3573 C   0  0  0  0  0  0  0  0  0  0  0  0
   -2.9496   63.2339   87.2927 C   0  0  0  0  0  0  0  0  0  0  0  0
   -2.3657   62.3760   86.1849 C   0  0  0  0  0  0  0  0  0  0  0  0
 21 22  1  0  0  0
 22 20  1  0  0  0
 20 19  1  0  0  0
 19 13  1  0  0  0
 13 14  2  0  0  0
 14 15  1  0  0  0
 15 16  2  0  0  0
 16 17  1  0  0  0
 17 18  2  0  0  0
 18  1  1  0  0  0
  1  2  2  0  0  0
  2  3  1  0  0  0
  3  4  1  0  0  0
  4  5  2  0  0  0
  5  6  1  0  0  0
  6  7  1  0  0  0
  7  8  1  0  0  0
  8  9  2  0  0  0
  8 10  1  0  0  0
 18 13  1  0  0  0
 10  1  1  0  0  0
  7  3  2  0  0  0
  6 11  1  0  0  0
 10 12  1  0  0  0
M  END
> <minimizedAffinity>
-8.03245

$$$$



 22 24  0  0  0  0  0  0  0  0999 V2000
    1.3545   65.5496   84.5184 C   0  0  0  0  0  0  0  0  0  0  0  0
    0.6428   64.9093   83.6323 N   0  0  0  0  0  0  0  0  0  0  0  0
   -0.1429   63.8758   84.1424 C   0  0  0  0  0  0  0  0  0  0  0  0
   -0.9730   63.0576   83.4342 N   0  0  0  0  0  0  0  0  0  0  0  0
   -1.4953   62.2478   84.3325 C   0  0  0  0  0  0  0  0  0  0  0  0
   -1.0294   62.5179   85.5919 N   0  0  0  0  0  0  0  0  0  0  0  0
   -0.1624   63.5614   85.4705 C   0  0  0  0  0  0  0  0  0  0  0  0
    0.6025   64.2454   86.4416 C   0  0  0  0  0  0  0  0  0  0  0  0
    0.6103   63.9916   87.6399 O   0  0  0  0  0  0  0  0  0  0  0  0
    1.3498   65.2461   85.8747 N   0  0  0  0  0  0  0  0  0  0  0  0
   -1.2767   62.0399   86.4483 H   0  0  0  0  0  0  0  0  0  0  0  0
    1.9269   65.7843   86.5079 H   0  0  0  0  0  0  0  0  0  0  0  0
    3.5872   66.8561   84.4856 C   0  0  0  0  0  0  0  0  0  0  0  0
    4.3133   67.9586   84.0085 C   0  0  0  0  0  0  0  0  0  0  0  0
    3.7263   68.8851   83.1435 C   0  0  0  0  0  0  0  0  0  0  0  0
    2.4068   68.7242   82.7426 C   0  0  0  0  0  0  0  0  0  0  0  0
    1.6717   67.6345   83.2072 C   0  0  0  0  0  0  0  0  0  0  0  0
    2.2433   66.6881   84.0799 C   0  0  0  0  0  0  0  0  0  0  0  0
    4.1198   65.9192   85.3367 O   0  0  0  0  0  0  0  0  0  0  0  0
    5.2006   66.3109   86.1876 C   0  0  0  0  0  0  0  0  0  0  0  0
    5.5985   65.4925   88.5394 C   0  0  0  0  0  0  0  0  0  0  0  0
    5.5479   65.1153   87.0699 C   0  0  0  0  0  0  0  0  0  0  0  0
 21 22  1  0  0  0
 22 20  1  0  0  0
 20 19  1  0  0  0
 19 13  1  0  0  0
 13 14  2  0  0  0
 14 15  1  0  0  0
 15 16  2  0  0  0
 16 17  1  0  0  0
 17 18  2  0  0  0
 18  1  1  0  0  0
  1  2  2  0  0  0
  2  3  1  0  0  0
  3  4  1  0  0  0
  4  5  2  0  0  0
  5  6  1  0  0  0
  6  7  1  0  0  0
  7  8  1  0  0  0
  8  9  2  0  0  0
  8 10  1  0  0  0
 18 13  1  0  0  0
 10  1  1  0  0  0
  7  3  2  0  0  0
  6 11  1  0  0  0
 10 12  1  0  0  0
M  END
> <minimizedAffinity>
-7.94257

$$$$



 22 24  0  0  0  0  0  0  0  0999 V2000
    0.7472   64.5522   85.4002 C   0  0  0  0  0  0  0  0  0  0  0  0
   -0.2576   63.8627   84.9348 N   0  0  0  0  0  0  0  0  0  0  0  0
   -0.8969   63.0483   85.8694 C   0  0  0  0  0  0  0  0  0  0  0  0
   -1.9660   62.2324   85.6431 N   0  0  0  0  0  0  0  0  0  0  0  0
   -2.2145   61.6708   86.8087 C   0  0  0  0  0  0  0  0  0  0  0  0
   -1.3422   62.0980   87.7746 N   0  0  0  0  0  0  0  0  0  0  0  0
   -0.4974   62.9810   87.1729 C   0  0  0  0  0  0  0  0  0  0  0  0
    0.5884   63.7213   87.6914 C   0  0  0  0  0  0  0  0  0  0  0  0
    0.9747   63.6864   88.8533 O   0  0  0  0  0  0  0  0  0  0  0  0
    1.1706   64.4987   86.7229 N   0  0  0  0  0  0  0  0  0  0  0  0
   -1.3237   61.8167   88.7459 H   0  0  0  0  0  0  0  0  0  0  0  0
    1.9584   65.0611   87.0172 H   0  0  0  0  0  0  0  0  0  0  0  0
    2.8584   65.8596   84.6745 C   0  0  0  0  0  0  0  0  0  0  0  0
    3.4645   66.7183   83.7441 C   0  0  0  0  0  0  0  0  0  0  0  0
    2.7584   67.1874   82.6339 C   0  0  0  0  0  0  0  0  0  0  0  0
    1.4380   66.8062   82.4368 C   0  0  0  0  0  0  0  0  0  0  0  0
    0.8213   65.9536   83.3515 C   0  0  0  0  0  0  0  0  0  0  0  0
    1.5141   65.4685   84.4778 C   0  0  0  0  0  0  0  0  0  0  0  0
    3.5106   65.3723   85.7804 O   0  0  0  0  0  0  0  0  0  0  0  0
    4.9403   65.3374   85.7655 C   0  0  0  0  0  0  0  0  0  0  0  0
    5.5545   65.4784   88.2072 C   0  0  0  0  0  0  0  0  0  0  0  0
    5.4341   66.2347   86.8966 C   0  0  0  0  0  0  0  0  0  0  0  0
 21 22  1  0  0  0
 22 20  1  0  0  0
 20 19  1  0  0  0
 19 13  1  0  0  0
 13 14  2  0  0  0
 14 15  1  0  0  0
 15 16  2  0  0  0
 16 17  1  0  0  0
 17 18  2  0  0  0
 18  1  1  0  0  0
  1  2  2  0  0  0
  2  3  1  0  0  0
  3  4  1  0  0  0
  4  5  2  0  0  0
  5  6  1  0  0  0
  6  7  1  0  0  0
  7  8  1  0  0  0
  8  9  2  0  0  0
  8 10  1  0  0  0
 18 13  1  0  0  0
 10  1  1  0  0  0
  7  3  2  0  0  0
  6 11  1  0  0  0
 10 12  1  0  0  0
M  END
> <minimizedAffinity>
-7.87700

$$$$



 22 24  0  0  0  0  0  0  0  0999 V2000
    0.6824   64.4993   85.0521 C   0  0  0  0  0  0  0  0  0  0  0  0
    0.9310   64.6871   86.3189 N   0  0  0  0  0  0  0  0  0  0  0  0
    0.3420   63.7603   87.1789 C   0  0  0  0  0  0  0  0  0  0  0  0
    0.4431   63.7315   88.5386 N   0  0  0  0  0  0  0  0  0  0  0  0
   -0.2730   62.6892   88.9082 C   0  0  0  0  0  0  0  0  0  0  0  0
   -0.8297   62.0485   87.8331 N   0  0  0  0  0  0  0  0  0  0  0  0
   -0.4359   62.7348   86.7244 C   0  0  0  0  0  0  0  0  0  0  0  0
   -0.7140   62.5187   85.3563 C   0  0  0  0  0  0  0  0  0  0  0  0
   -1.4062   61.6109   84.9123 O   0  0  0  0  0  0  0  0  0  0  0  0
   -0.1064   63.4625   84.5680 N   0  0  0  0  0  0  0  0  0  0  0  0
   -1.4188   61.2266   87.8521 H   0  0  0  0  0  0  0  0  0  0  0  0
   -0.2582   63.3752   83.5715 H   0  0  0  0  0  0  0  0  0  0  0  0
    2.5389   66.0524   84.1389 C   0  0  0  0  0  0  0  0  0  0  0  0
    2.9750   66.9131   83.1193 C   0  0  0  0  0  0  0  0  0  0  0  0
    2.1724   67.1713   82.0055 C   0  0  0  0  0  0  0  0  0  0  0  0
    0.9239   66.5743   81.8938 C   0  0  0  0  0  0  0  0  0  0  0  0
    0.4759   65.7169   82.8977 C   0  0  0  0  0  0  0  0  0  0  0  0
    1.2683   65.4421   84.0293 C   0  0  0  0  0  0  0  0  0  0  0  0
    3.2910   65.7676   85.2520 O   0  0  0  0  0  0  0  0  0  0  0  0
    4.7161   65.8029   85.1364 C   0  0  0  0  0  0  0  0  0  0  0  0
    5.7439   65.6457   87.4338 C   0  0  0  0  0  0  0  0  0  0  0  0
    5.2874   64.8775   86.2067 C   0  0  0  0  0  0  0  0  0  0  0  0
 21 22  1  0  0  0
 22 20  1  0  0  0
 20 19  1  0  0  0
 19 13  1  0  0  0
 13 14  2  0  0  0
 14 15  1  0  0  0
 15 16  2  0  0  0
 16 17  1  0  0  0
 17 18  2  0  0  0
 18  1  1  0  0  0
  1  2  2  0  0  0
  2  3  1  0  0  0
  3  4  1  0  0  0
  4  5  2  0  0  0
  5  6  1  0  0  0
  6  7  1  0  0  0
  7  8  1  0  0  0
  8  9  2  0  0  0
  8 10  1  0  0  0
 18 13  1  0  0  0
 10  1  1  0  0  0
  7  3  2  0  0  0
  6 11  1  0  0  0
 10 12  1  0  0  0
M  END
> <minimizedAffinity>
-7.55889

$$$$



 22 24  0  0  0  0  0  0  0  0999 V2000
   -1.0127   62.3334   84.2453 C   0  0  0  0  0  0  0  0  0  0  0  0
   -1.1993   61.7886   85.4159 N   0  0  0  0  0  0  0  0  0  0  0  0
   -0.6775   62.5081   86.4908 C   0  0  0  0  0  0  0  0  0  0  0  0
   -0.7361   62.1615   87.8085 N   0  0  0  0  0  0  0  0  0  0  0  0
   -0.1157   63.1361   88.4416 C   0  0  0  0  0  0  0  0  0  0  0  0
    0.3386   64.0958   87.5762 N   0  0  0  0  0  0  0  0  0  0  0  0
   -0.0213   63.6936   86.3255 C   0  0  0  0  0  0  0  0  0  0  0  0
    0.1885   64.2957   85.0649 C   0  0  0  0  0  0  0  0  0  0  0  0
    0.7717   65.3566   84.8785 O   0  0  0  0  0  0  0  0  0  0  0  0
   -0.3477   63.5388   84.0545 N   0  0  0  0  0  0  0  0  0  0  0  0
    0.8431   64.9398   87.8130 H   0  0  0  0  0  0  0  0  0  0  0  0
   -0.2383   63.9047   83.1176 H   0  0  0  0  0  0  0  0  0  0  0  0
   -0.8182   61.5216   81.7967 C   0  0  0  0  0  0  0  0  0  0  0  0
   -1.4122   60.8542   80.7140 C   0  0  0  0  0  0  0  0  0  0  0  0
   -2.6952   60.3122   80.8210 C   0  0  0  0  0  0  0  0  0  0  0  0
   -3.4029   60.4286   82.0098 C   0  0  0  0  0  0  0  0  0  0  0  0
   -2.8273   61.0883   83.0947 C   0  0  0  0  0  0  0  0  0  0  0  0
   -1.5351   61.6423   83.0092 C   0  0  0  0  0  0  0  0  0  0  0  0
    0.4393   62.0706   81.7402 O   0  0  0  0  0  0  0  0  0  0  0  0
    1.4932   61.2964   81.1610 C   0  0  0  0  0  0  0  0  0  0  0  0
    3.5458   59.9962   81.8359 C   0  0  0  0  0  0  0  0  0  0  0  0
    2.2341   60.6028   82.3004 C   0  0  0  0  0  0  0  0  0  0  0  0
 21 22  1  0  0  0
 22 20  1  0  0  0
 20 19  1  0  0  0
 19 13  1  0  0  0
 13 14  2  0  0  0
 14 15  1  0  0  0
 15 16  2  0  0  0
 16 17  1  0  0  0
 17 18  2  0  0  0
 18  1  1  0  0  0
  1  2  2  0  0  0
  2  3  1  0  0  0
  3  4  1  0  0  0
  4  5  2  0  0  0
  5  6  1  0  0  0
  6  7  1  0  0  0
  7  8  1  0  0  0
  8  9  2  0  0  0
  8 10  1  0  0  0
 18 13  1  0  0  0
 10  1  1  0  0  0
  7  3  2  0  0  0
  6 11  1  0  0  0
 10 12  1  0  0  0
M  END
> <minimizedAffinity>
-7.52154

$$$$



 22 24  0  0  0  0  0  0  0  0999 V2000
   -0.2915   63.2109   82.5923 C   0  0  0  0  0  0  0  0  0  0  0  0
   -1.2038   62.6329   83.3240 N   0  0  0  0  0  0  0  0  0  0  0  0
   -1.7727   61.4899   82.7626 C   0  0  0  0  0  0  0  0  0  0  0  0
   -2.7410   60.7054   83.3166 N   0  0  0  0  0  0  0  0  0  0  0  0
   -2.9547   59.7557   82.4289 C   0  0  0  0  0  0  0  0  0  0  0  0
   -2.1573   59.9035   81.3250 N   0  0  0  0  0  0  0  0  0  0  0  0
   -1.3995   61.0151   81.5384 C   0  0  0  0  0  0  0  0  0  0  0  0
   -0.4136   61.6298   80.7348 C   0  0  0  0  0  0  0  0  0  0  0  0
   -0.0535   61.2328   79.6334 O   0  0  0  0  0  0  0  0  0  0  0  0
    0.1033   62.7447   81.3440 N   0  0  0  0  0  0  0  0  0  0  0  0
   -2.1315   59.3076   80.5082 H   0  0  0  0  0  0  0  0  0  0  0  0
    0.8182   63.2424   80.8294 H   0  0  0  0  0  0  0  0  0  0  0  0
    0.7546   64.6780   84.4488 C   0  0  0  0  0  0  0  0  0  0  0  0
    1.3885   65.8805   84.7990 C   0  0  0  0  0  0  0  0  0  0  0  0
    1.6634   66.8542   83.8359 C   0  0  0  0  0  0  0  0  0  0  0  0
    1.3097   66.6415   82.5103 C   0  0  0  0  0  0  0  0  0  0  0  0
    0.6796   65.4524   82.1458 C   0  0  0  0  0  0  0  0  0  0  0  0
    0.3927   64.4569   83.1000 C   0  0  0  0  0  0  0  0  0  0  0  0
    0.4635   63.6915   85.3586 O   0  0  0  0  0  0  0  0  0  0  0  0
    0.3262   64.0555   86.7349 C   0  0  0  0  0  0  0  0  0  0  0  0
   -0.8066   63.1952   88.8171 C   0  0  0  0  0  0  0  0  0  0  0  0
   -0.8551   63.2736   87.3019 C   0  0  0  0  0  0  0  0  0  0  0  0
 21 22  1  0  0  0
 22 20  1  0  0  0
 20 19  1  0  0  0
 19 13  1  0  0  0
 13 14  2  0  0  0
 14 15  1  0  0  0
 15 16  2  0  0  0
 16 17  1  0  0  0
 17 18  2  0  0  0
 18  1  1  0  0  0
  1  2  2  0  0  0
  2  3  1  0  0  0
  3  4  1  0  0  0
  4  5  2  0  0  0
  5  6  1  0  0  0
  6  7  1  0  0  0
  7  8  1  0  0  0
  8  9  2  0  0  0
  8 10  1  0  0  0
 18 13  1  0  0  0
 10  1  1  0  0  0
  7  3  2  0  0  0
  6 11  1  0  0  0
 10 12  1  0  0  0
M  END
> <minimizedAffinity>
-7.51370

$$$$
