


 36 40  0  0  0  0  0  0  0  0999 V2000
    3.3410   66.2036   84.7593 C   0  0  0  0  0  0  0  0  0  0  0  0
    4.1716   67.1722   84.1789 C   0  0  0  0  0  0  0  0  0  0  0  0
    3.6905   68.0173   83.1721 C   0  0  0  0  0  0  0  0  0  0  0  0
    2.3729   67.8914   82.7299 C   0  0  0  0  0  0  0  0  0  0  0  0
    1.5192   66.9628   83.3220 C   0  0  0  0  0  0  0  0  0  0  0  0
    2.0050   66.1126   84.3266 C   0  0  0  0  0  0  0  0  0  0  0  0
    1.0529   65.1029   84.8687 C   0  0  0  0  0  0  0  0  0  0  0  0
    0.9133   65.0776   86.2436 N   0  0  0  0  0  0  0  0  0  0  0  0
    0.0891   64.2175   86.7168 C   0  0  0  0  0  0  0  0  0  0  0  0
   -0.1091   64.1084   88.0362 O   0  0  0  0  0  0  0  0  0  0  0  0
   -0.6564   63.3494   85.9123 C   0  0  0  0  0  0  0  0  0  0  0  0
   -1.5952   62.3604   86.0743 C   0  0  0  0  0  0  0  0  0  0  0  0
   -2.1929   61.8249   87.3162 C   0  0  0  0  0  0  0  0  0  0  0  0
   -1.9683   61.8701   84.8399 N   0  0  0  0  0  0  0  0  0  0  0  0
   -1.2575   62.5467   83.9512 C   0  0  0  0  0  0  0  0  0  0  0  0
   -0.4487   63.4682   84.5779 N   0  0  0  0  0  0  0  0  0  0  0  0
    0.4039   64.3561   84.0187 N   0  0  0  0  0  0  0  0  0  0  0  0
    0.4680   64.7595   88.4679 H   0  0  0  0  0  0  0  0  0  0  0  0
   -1.2909   62.4041   82.4601 C   0  0  0  0  0  0  0  0  0  0  0  0
   -2.4724   63.1860   81.8557 C   0  0  0  0  0  0  0  0  0  0  0  0
   -3.2499   62.1864   81.0063 C   0  0  0  0  0  0  0  0  0  0  0  0
   -2.9657   60.8464   81.6605 C   0  0  0  0  0  0  0  0  0  0  0  0
   -1.4881   60.9490   82.0084 C   0  0  0  0  0  0  0  0  0  0  0  0
    1.7520   68.9645   81.4514 S   0  0  0  0  0  0  0  0  0  0  0  0
    2.8778   69.7173   80.9394 O   0  0  0  0  0  0  0  0  0  0  0  0
    0.5852   69.6334   81.9858 O   0  0  0  0  0  0  0  0  0  0  0  0
    1.2497   67.8938   80.2448 N   0  0  0  0  0  0  0  0  0  0  0  0
   -0.1934   67.5341   80.1616 C   0  0  0  0  0  0  0  0  0  0  0  0
   -0.4225   66.0293   80.3998 C   0  0  0  0  0  0  0  0  0  0  0  0
    0.3358   65.1310   79.5048 N   0  0  0  0  0  0  0  0  0  0  0  0
   -0.5106   64.5624   78.4586 C   0  0  0  0  0  0  0  0  0  0  0  0
    1.5101   65.8048   78.9121 C   0  0  0  0  0  0  0  0  0  0  0  0
    2.1828   66.7910   79.8840 C   0  0  0  0  0  0  0  0  0  0  0  0
    3.7597   65.2987   85.6965 O   0  0  0  0  0  0  0  0  0  0  0  0
    5.4448   65.4905   87.3656 C   0  0  0  0  0  0  0  0  0  0  0  0
    5.1612   65.1523   85.9130 C   0  0  0  0  0  0  0  0  0  0  0  0
 35 36  1  0  0  0
 36 34  1  0  0  0
 34  1  1  0  0  0
  1  2  1  0  0  0
  2  3  2  0  0  0
  3  4  1  0  0  0
  4 24  1  0  0  0
 24 25  2  0  0  0
 24 26  2  0  0  0
 24 27  1  0  0  0
 27 28  1  0  0  0
 28 29  1  0  0  0
 29 30  1  0  0  0
 30 31  1  0  0  0
 30 32  1  0  0  0
 32 33  1  0  0  0
  4  5  2  0  0  0
  5  6  1  0  0  0
  6  7  1  0  0  0
  7  8  1  0  0  0
  8  9  2  0  0  0
  9 10  1  0  0  0
  9 11  1  0  0  0
 11 12  2  0  0  0
 12 13  1  0  0  0
 12 14  1  0  0  0
 14 15  2  0  0  0
 15 19  1  0  0  0
 19 20  1  0  0  0
 20 21  1  0  0  0
 21 22  1  0  0  0
 22 23  1  0  0  0
 15 16  1  0  0  0
 16 17  1  0  0  0
  6  1  2  0  0  0
 17  7  2  0  0  0
 33 27  1  0  0  0
 16 11  1  0  0  0
 23 19  1  0  0  0
 10 18  1  0  0  0
M  END
> <minimizedAffinity>
-10.60794

$$$$



 36 40  0  0  0  0  0  0  0  0999 V2000
    3.4141   66.7877   84.2707 C   0  0  0  0  0  0  0  0  0  0  0  0
    4.2168   67.9336   84.1856 C   0  0  0  0  0  0  0  0  0  0  0  0
    3.7854   69.0585   83.4728 C   0  0  0  0  0  0  0  0  0  0  0  0
    2.5475   69.0403   82.8289 C   0  0  0  0  0  0  0  0  0  0  0  0
    1.7168   67.9266   82.9353 C   0  0  0  0  0  0  0  0  0  0  0  0
    2.1537   66.7979   83.6450 C   0  0  0  0  0  0  0  0  0  0  0  0
    1.2392   65.6219   83.6629 C   0  0  0  0  0  0  0  0  0  0  0  0
    0.9849   65.0325   82.4388 N   0  0  0  0  0  0  0  0  0  0  0  0
    0.2060   64.0145   82.4475 C   0  0  0  0  0  0  0  0  0  0  0  0
   -0.1091   63.3800   81.3117 O   0  0  0  0  0  0  0  0  0  0  0  0
   -0.3584   63.4933   83.6164 C   0  0  0  0  0  0  0  0  0  0  0  0
   -1.1851   62.4578   83.9772 C   0  0  0  0  0  0  0  0  0  0  0  0
   -1.8304   61.4307   83.1317 C   0  0  0  0  0  0  0  0  0  0  0  0
   -1.3682   62.4670   85.3446 N   0  0  0  0  0  0  0  0  0  0  0  0
   -0.6709   63.4976   85.7968 C   0  0  0  0  0  0  0  0  0  0  0  0
   -0.0328   64.1427   84.7609 N   0  0  0  0  0  0  0  0  0  0  0  0
    0.7841   65.2187   84.8169 N   0  0  0  0  0  0  0  0  0  0  0  0
    0.3428   63.8448   80.5885 H   0  0  0  0  0  0  0  0  0  0  0  0
   -0.5281   63.9461   87.2191 C   0  0  0  0  0  0  0  0  0  0  0  0
    0.8846   63.6462   87.7548 C   0  0  0  0  0  0  0  0  0  0  0  0
    0.6886   62.8437   89.0365 C   0  0  0  0  0  0  0  0  0  0  0  0
   -0.6423   62.1425   88.8330 C   0  0  0  0  0  0  0  0  0  0  0  0
   -1.4903   63.2174   88.1695 C   0  0  0  0  0  0  0  0  0  0  0  0
    1.9897   70.4681   81.9224 S   0  0  0  0  0  0  0  0  0  0  0  0
    1.2995   71.3286   82.8602 O   0  0  0  0  0  0  0  0  0  0  0  0
    1.3325   69.9843   80.7272 O   0  0  0  0  0  0  0  0  0  0  0  0
    3.4251   71.2362   81.4705 N   0  0  0  0  0  0  0  0  0  0  0  0
    3.6008   72.6780   81.8009 C   0  0  0  0  0  0  0  0  0  0  0  0
    3.7416   73.5424   80.5334 C   0  0  0  0  0  0  0  0  0  0  0  0
    4.8268   73.1370   79.6163 N   0  0  0  0  0  0  0  0  0  0  0  0
    5.9847   74.0222   79.7171 C   0  0  0  0  0  0  0  0  0  0  0  0
    5.2300   71.7307   79.8256 C   0  0  0  0  0  0  0  0  0  0  0  0
    4.0422   70.8184   80.1814 C   0  0  0  0  0  0  0  0  0  0  0  0
    3.7977   65.6289   84.8893 O   0  0  0  0  0  0  0  0  0  0  0  0
    5.2016   64.9652   86.6923 C   0  0  0  0  0  0  0  0  0  0  0  0
    5.1651   65.4874   85.2672 C   0  0  0  0  0  0  0  0  0  0  0  0
 35 36  1  0  0  0
 36 34  1  0  0  0
 34  1  1  0  0  0
  1  2  1  0  0  0
  2  3  2  0  0  0
  3  4  1  0  0  0
  4 24  1  0  0  0
 24 25  2  0  0  0
 24 26  2  0  0  0
 24 27  1  0  0  0
 27 28  1  0  0  0
 28 29  1  0  0  0
 29 30  1  0  0  0
 30 31  1  0  0  0
 30 32  1  0  0  0
 32 33  1  0  0  0
  4  5  2  0  0  0
  5  6  1  0  0  0
  6  7  1  0  0  0
  7  8  1  0  0  0
  8  9  2  0  0  0
  9 10  1  0  0  0
  9 11  1  0  0  0
 11 12  2  0  0  0
 12 13  1  0  0  0
 12 14  1  0  0  0
 14 15  2  0  0  0
 15 19  1  0  0  0
 19 20  1  0  0  0
 20 21  1  0  0  0
 21 22  1  0  0  0
 22 23  1  0  0  0
 15 16  1  0  0  0
 16 17  1  0  0  0
  6  1  2  0  0  0
 17  7  2  0  0  0
 33 27  1  0  0  0
 16 11  1  0  0  0
 23 19  1  0  0  0
 10 18  1  0  0  0
M  END
> <minimizedAffinity>
-10.54653

$$$$



 36 40  0  0  0  0  0  0  0  0999 V2000
    3.4594   66.3118   84.7664 C   0  0  0  0  0  0  0  0  0  0  0  0
    4.2865   67.2997   84.2145 C   0  0  0  0  0  0  0  0  0  0  0  0
    3.8020   68.1731   83.2338 C   0  0  0  0  0  0  0  0  0  0  0  0
    2.4843   68.0566   82.7892 C   0  0  0  0  0  0  0  0  0  0  0  0
    1.6339   67.1083   83.3541 C   0  0  0  0  0  0  0  0  0  0  0  0
    2.1232   66.2298   84.3325 C   0  0  0  0  0  0  0  0  0  0  0  0
    1.1746   65.2017   84.8451 C   0  0  0  0  0  0  0  0  0  0  0  0
    1.0241   65.1459   86.2179 N   0  0  0  0  0  0  0  0  0  0  0  0
    0.2027   64.2697   86.6658 C   0  0  0  0  0  0  0  0  0  0  0  0
   -0.0054   64.1310   87.9809 O   0  0  0  0  0  0  0  0  0  0  0  0
   -0.5294   63.4134   85.8369 C   0  0  0  0  0  0  0  0  0  0  0  0
   -1.4619   62.4141   85.9700 C   0  0  0  0  0  0  0  0  0  0  0  0
   -2.0654   61.8476   87.1952 C   0  0  0  0  0  0  0  0  0  0  0  0
   -1.8212   61.9474   84.7225 N   0  0  0  0  0  0  0  0  0  0  0  0
   -1.1084   62.6482   83.8542 C   0  0  0  0  0  0  0  0  0  0  0  0
   -0.3119   63.5622   84.5071 N   0  0  0  0  0  0  0  0  0  0  0  0
    0.5384   64.4683   83.9740 N   0  0  0  0  0  0  0  0  0  0  0  0
    0.5632   64.7770   88.4311 H   0  0  0  0  0  0  0  0  0  0  0  0
   -1.1286   62.5372   82.3603 C   0  0  0  0  0  0  0  0  0  0  0  0
   -2.4406   63.0993   81.7812 C   0  0  0  0  0  0  0  0  0  0  0  0
   -3.0264   61.9927   80.9107 C   0  0  0  0  0  0  0  0  0  0  0  0
   -2.4915   60.7141   81.5299 C   0  0  0  0  0  0  0  0  0  0  0  0
   -1.0557   61.0820   81.8733 C   0  0  0  0  0  0  0  0  0  0  0  0
    1.8590   69.1656   81.5440 S   0  0  0  0  0  0  0  0  0  0  0  0
    0.6971   69.8252   82.1018 O   0  0  0  0  0  0  0  0  0  0  0  0
    1.7730   68.4154   80.3094 O   0  0  0  0  0  0  0  0  0  0  0  0
    3.0855   70.3168   81.3866 N   0  0  0  0  0  0  0  0  0  0  0  0
    2.9097   71.6445   82.0388 C   0  0  0  0  0  0  0  0  0  0  0  0
    2.8766   72.7886   81.0075 C   0  0  0  0  0  0  0  0  0  0  0  0
    4.0499   72.8588   80.1122 N   0  0  0  0  0  0  0  0  0  0  0  0
    4.9650   73.9310   80.4961 C   0  0  0  0  0  0  0  0  0  0  0  0
    4.7660   71.5681   80.0382 C   0  0  0  0  0  0  0  0  0  0  0  0
    3.8163   70.3577   80.0900 C   0  0  0  0  0  0  0  0  0  0  0  0
    3.8817   65.3805   85.6758 O   0  0  0  0  0  0  0  0  0  0  0  0
    5.7092   65.3604   87.1996 C   0  0  0  0  0  0  0  0  0  0  0  0
    5.2788   65.1111   85.7653 C   0  0  0  0  0  0  0  0  0  0  0  0
 35 36  1  0  0  0
 36 34  1  0  0  0
 34  1  1  0  0  0
  1  2  1  0  0  0
  2  3  2  0  0  0
  3  4  1  0  0  0
  4 24  1  0  0  0
 24 25  2  0  0  0
 24 26  2  0  0  0
 24 27  1  0  0  0
 27 28  1  0  0  0
 28 29  1  0  0  0
 29 30  1  0  0  0
 30 31  1  0  0  0
 30 32  1  0  0  0
 32 33  1  0  0  0
  4  5  2  0  0  0
  5  6  1  0  0  0
  6  7  1  0  0  0
  7  8  1  0  0  0
  8  9  2  0  0  0
  9 10  1  0  0  0
  9 11  1  0  0  0
 11 12  2  0  0  0
 12 13  1  0  0  0
 12 14  1  0  0  0
 14 15  2  0  0  0
 15 19  1  0  0  0
 19 20  1  0  0  0
 20 21  1  0  0  0
 21 22  1  0  0  0
 22 23  1  0  0  0
 15 16  1  0  0  0
 16 17  1  0  0  0
  6  1  2  0  0  0
 17  7  2  0  0  0
 33 27  1  0  0  0
 16 11  1  0  0  0
 23 19  1  0  0  0
 10 18  1  0  0  0
M  END
> <minimizedAffinity>
-10.17952

$$$$



 36 40  0  0  0  0  0  0  0  0999 V2000
    2.9495   67.0273   83.9870 C   0  0  0  0  0  0  0  0  0  0  0  0
    3.6733   68.2111   83.7883 C   0  0  0  0  0  0  0  0  0  0  0  0
    3.2967   69.1222   82.7946 C   0  0  0  0  0  0  0  0  0  0  0  0
    2.1951   68.8488   81.9827 C   0  0  0  0  0  0  0  0  0  0  0  0
    1.4378   67.6977   82.1907 C   0  0  0  0  0  0  0  0  0  0  0  0
    1.8207   66.7828   83.1831 C   0  0  0  0  0  0  0  0  0  0  0  0
    1.0009   65.5448   83.3058 C   0  0  0  0  0  0  0  0  0  0  0  0
    0.7465   64.8666   82.1286 N   0  0  0  0  0  0  0  0  0  0  0  0
    0.0493   63.7955   82.2275 C   0  0  0  0  0  0  0  0  0  0  0  0
   -0.2589   63.0730   81.1435 O   0  0  0  0  0  0  0  0  0  0  0  0
   -0.4284   63.3037   83.4467 C   0  0  0  0  0  0  0  0  0  0  0  0
   -1.1584   62.2324   83.8998 C   0  0  0  0  0  0  0  0  0  0  0  0
   -1.7543   61.1117   83.1414 C   0  0  0  0  0  0  0  0  0  0  0  0
   -1.2895   62.3088   85.2710 N   0  0  0  0  0  0  0  0  0  0  0  0
   -0.6571   63.4137   85.6347 C   0  0  0  0  0  0  0  0  0  0  0  0
   -0.1105   64.0422   84.5381 N   0  0  0  0  0  0  0  0  0  0  0  0
    0.6225   65.1777   84.4989 N   0  0  0  0  0  0  0  0  0  0  0  0
    0.1280   63.5267   80.3768 H   0  0  0  0  0  0  0  0  0  0  0  0
   -0.4954   63.9550   87.0223 C   0  0  0  0  0  0  0  0  0  0  0  0
    0.9156   63.6655   87.5683 C   0  0  0  0  0  0  0  0  0  0  0  0
    0.7145   62.9557   88.9029 C   0  0  0  0  0  0  0  0  0  0  0  0
   -0.6307   62.2678   88.7559 C   0  0  0  0  0  0  0  0  0  0  0  0
   -1.4637   63.3109   88.0261 C   0  0  0  0  0  0  0  0  0  0  0  0
    1.7072   70.0039   80.7181 S   0  0  0  0  0  0  0  0  0  0  0  0
    0.4390   69.5489   80.1881 O   0  0  0  0  0  0  0  0  0  0  0  0
    2.8522   70.1996   79.8549 O   0  0  0  0  0  0  0  0  0  0  0  0
    1.4307   71.4344   81.5734 N   0  0  0  0  0  0  0  0  0  0  0  0
    0.0342   71.9385   81.6938 C   0  0  0  0  0  0  0  0  0  0  0  0
   -0.1377   73.3137   81.0205 C   0  0  0  0  0  0  0  0  0  0  0  0
    0.7823   74.3653   81.5007 N   0  0  0  0  0  0  0  0  0  0  0  0
    0.1153   75.3042   82.3996 C   0  0  0  0  0  0  0  0  0  0  0  0
    1.9839   73.7955   82.1454 C   0  0  0  0  0  0  0  0  0  0  0  0
    2.4649   72.5003   81.4667 C   0  0  0  0  0  0  0  0  0  0  0  0
    3.2981   66.0595   84.8895 O   0  0  0  0  0  0  0  0  0  0  0  0
    4.7539   65.1788   86.5530 C   0  0  0  0  0  0  0  0  0  0  0  0
    4.6754   65.9210   85.2310 C   0  0  0  0  0  0  0  0  0  0  0  0
 35 36  1  0  0  0
 36 34  1  0  0  0
 34  1  1  0  0  0
  1  2  1  0  0  0
  2  3  2  0  0  0
  3  4  1  0  0  0
  4 24  1  0  0  0
 24 25  2  0  0  0
 24 26  2  0  0  0
 24 27  1  0  0  0
 27 28  1  0  0  0
 28 29  1  0  0  0
 29 30  1  0  0  0
 30 31  1  0  0  0
 30 32  1  0  0  0
 32 33  1  0  0  0
  4  5  2  0  0  0
  5  6  1  0  0  0
  6  7  1  0  0  0
  7  8  1  0  0  0
  8  9  2  0  0  0
  9 10  1  0  0  0
  9 11  1  0  0  0
 11 12  2  0  0  0
 12 13  1  0  0  0
 12 14  1  0  0  0
 14 15  2  0  0  0
 15 19  1  0  0  0
 19 20  1  0  0  0
 20 21  1  0  0  0
 21 22  1  0  0  0
 22 23  1  0  0  0
 15 16  1  0  0  0
 16 17  1  0  0  0
  6  1  2  0  0  0
 17  7  2  0  0  0
 33 27  1  0  0  0
 16 11  1  0  0  0
 23 19  1  0  0  0
 10 18  1  0  0  0
M  END
> <minimizedAffinity>
-10.17773

$$$$



 36 40  0  0  0  0  0  0  0  0999 V2000
    0.1874   63.9186   85.0583 C   0  0  0  0  0  0  0  0  0  0  0  0
   -0.4972   62.7006   85.1708 C   0  0  0  0  0  0  0  0  0  0  0  0
   -0.6935   61.8837   84.0512 C   0  0  0  0  0  0  0  0  0  0  0  0
   -0.2135   62.2867   82.8044 C   0  0  0  0  0  0  0  0  0  0  0  0
    0.5051   63.4740   82.6787 C   0  0  0  0  0  0  0  0  0  0  0  0
    0.6954   64.2942   83.8009 C   0  0  0  0  0  0  0  0  0  0  0  0
    1.4181   65.5779   83.5782 C   0  0  0  0  0  0  0  0  0  0  0  0
    0.8198   66.4673   82.7057 N   0  0  0  0  0  0  0  0  0  0  0  0
    1.4313   67.5778   82.5159 C   0  0  0  0  0  0  0  0  0  0  0  0
    0.9375   68.5011   81.6818 O   0  0  0  0  0  0  0  0  0  0  0  0
    2.6309   67.9092   83.1544 C   0  0  0  0  0  0  0  0  0  0  0  0
    3.5091   68.9642   83.1936 C   0  0  0  0  0  0  0  0  0  0  0  0
    3.4612   70.2553   82.4746 C   0  0  0  0  0  0  0  0  0  0  0  0
    4.5413   68.6748   84.0619 N   0  0  0  0  0  0  0  0  0  0  0  0
    4.2927   67.4612   84.5290 C   0  0  0  0  0  0  0  0  0  0  0  0
    3.1222   66.9678   83.9971 N   0  0  0  0  0  0  0  0  0  0  0  0
    2.5234   65.7803   84.2406 N   0  0  0  0  0  0  0  0  0  0  0  0
    0.1152   68.1417   81.3103 H   0  0  0  0  0  0  0  0  0  0  0  0
    5.1073   66.6810   85.5151 C   0  0  0  0  0  0  0  0  0  0  0  0
    6.3582   67.4695   85.9465 C   0  0  0  0  0  0  0  0  0  0  0  0
    7.5466   66.5487   85.6915 C   0  0  0  0  0  0  0  0  0  0  0  0
    7.0810   65.6501   84.5600 C   0  0  0  0  0  0  0  0  0  0  0  0
    5.6351   65.3604   84.9342 C   0  0  0  0  0  0  0  0  0  0  0  0
   -0.4563   61.2521   81.3753 S   0  0  0  0  0  0  0  0  0  0  0  0
   -1.6384   60.4529   81.6206 O   0  0  0  0  0  0  0  0  0  0  0  0
    0.8170   60.6328   81.0761 O   0  0  0  0  0  0  0  0  0  0  0  0
   -0.8183   62.3531   80.1460 N   0  0  0  0  0  0  0  0  0  0  0  0
   -2.1555   62.2840   79.4934 C   0  0  0  0  0  0  0  0  0  0  0  0
   -2.0435   61.9524   77.9930 C   0  0  0  0  0  0  0  0  0  0  0  0
   -1.1882   62.8691   77.2112 N   0  0  0  0  0  0  0  0  0  0  0  0
   -1.9780   63.8031   76.4123 C   0  0  0  0  0  0  0  0  0  0  0  0
   -0.2334   63.6006   78.0700 C   0  0  0  0  0  0  0  0  0  0  0  0
    0.2934   62.7448   79.2361 C   0  0  0  0  0  0  0  0  0  0  0  0
    0.3565   64.7996   86.0917 O   0  0  0  0  0  0  0  0  0  0  0  0
    1.3096   63.6768   87.9607 C   0  0  0  0  0  0  0  0  0  0  0  0
    0.0648   64.3522   87.4135 C   0  0  0  0  0  0  0  0  0  0  0  0
 35 36  1  0  0  0
 36 34  1  0  0  0
 34  1  1  0  0  0
  1  2  1  0  0  0
  2  3  2  0  0  0
  3  4  1  0  0  0
  4 24  1  0  0  0
 24 25  2  0  0  0
 24 26  2  0  0  0
 24 27  1  0  0  0
 27 28  1  0  0  0
 28 29  1  0  0  0
 29 30  1  0  0  0
 30 31  1  0  0  0
 30 32  1  0  0  0
 32 33  1  0  0  0
  4  5  2  0  0  0
  5  6  1  0  0  0
  6  7  1  0  0  0
  7  8  1  0  0  0
  8  9  2  0  0  0
  9 10  1  0  0  0
  9 11  1  0  0  0
 11 12  2  0  0  0
 12 13  1  0  0  0
 12 14  1  0  0  0
 14 15  2  0  0  0
 15 19  1  0  0  0
 19 20  1  0  0  0
 20 21  1  0  0  0
 21 22  1  0  0  0
 22 23  1  0  0  0
 15 16  1  0  0  0
 16 17  1  0  0  0
  6  1  2  0  0  0
 17  7  2  0  0  0
 33 27  1  0  0  0
 16 11  1  0  0  0
 23 19  1  0  0  0
 10 18  1  0  0  0
M  END
> <minimizedAffinity>
-9.98871

$$$$



 36 40  0  0  0  0  0  0  0  0999 V2000
   -0.1669   63.1925   85.6745 C   0  0  0  0  0  0  0  0  0  0  0  0
    0.5048   64.0546   86.5522 C   0  0  0  0  0  0  0  0  0  0  0  0
    1.2783   65.1137   86.0632 C   0  0  0  0  0  0  0  0  0  0  0  0
    1.3940   65.3119   84.6867 C   0  0  0  0  0  0  0  0  0  0  0  0
    0.7015   64.4914   83.7984 C   0  0  0  0  0  0  0  0  0  0  0  0
   -0.0682   63.4266   84.2904 C   0  0  0  0  0  0  0  0  0  0  0  0
   -0.7289   62.5540   83.2797 C   0  0  0  0  0  0  0  0  0  0  0  0
   -1.7345   61.7320   83.7525 N   0  0  0  0  0  0  0  0  0  0  0  0
   -2.3137   60.9847   82.8870 C   0  0  0  0  0  0  0  0  0  0  0  0
   -3.2933   60.1466   83.2476 O   0  0  0  0  0  0  0  0  0  0  0  0
   -1.9817   60.9892   81.5282 C   0  0  0  0  0  0  0  0  0  0  0  0
   -2.3857   60.3600   80.3764 C   0  0  0  0  0  0  0  0  0  0  0  0
   -3.4372   59.3389   80.1814 C   0  0  0  0  0  0  0  0  0  0  0  0
   -1.6437   60.8253   79.3105 N   0  0  0  0  0  0  0  0  0  0  0  0
   -0.8005   61.7124   79.8154 C   0  0  0  0  0  0  0  0  0  0  0  0
   -0.9890   61.8416   81.1734 N   0  0  0  0  0  0  0  0  0  0  0  0
   -0.3426   62.6556   82.0380 N   0  0  0  0  0  0  0  0  0  0  0  0
   -3.4152   60.2434   84.2063 H   0  0  0  0  0  0  0  0  0  0  0  0
    0.2238   62.5179   79.0761 C   0  0  0  0  0  0  0  0  0  0  0  0
   -0.1027   64.0219   79.1410 C   0  0  0  0  0  0  0  0  0  0  0  0
   -0.1286   64.5111   77.6970 C   0  0  0  0  0  0  0  0  0  0  0  0
   -0.5124   63.2794   76.8969 C   0  0  0  0  0  0  0  0  0  0  0  0
    0.2802   62.1748   77.5797 C   0  0  0  0  0  0  0  0  0  0  0  0
    2.3738   66.6587   84.0560 S   0  0  0  0  0  0  0  0  0  0  0  0
    1.7483   67.8875   84.4981 O   0  0  0  0  0  0  0  0  0  0  0  0
    2.6019   66.3985   82.6508 O   0  0  0  0  0  0  0  0  0  0  0  0
    3.8424   66.4981   84.8756 N   0  0  0  0  0  0  0  0  0  0  0  0
    4.9034   67.5192   84.6511 C   0  0  0  0  0  0  0  0  0  0  0  0
    6.1671   66.9024   84.0215 C   0  0  0  0  0  0  0  0  0  0  0  0
    6.7548   65.7746   84.7736 N   0  0  0  0  0  0  0  0  0  0  0  0
    7.9510   66.1753   85.5103 C   0  0  0  0  0  0  0  0  0  0  0  0
    5.7733   65.1455   85.6819 C   0  0  0  0  0  0  0  0  0  0  0  0
    4.3516   65.1158   85.0922 C   0  0  0  0  0  0  0  0  0  0  0  0
   -0.8829   62.0975   86.0758 O   0  0  0  0  0  0  0  0  0  0  0  0
   -2.8223   62.8800   87.2108 C   0  0  0  0  0  0  0  0  0  0  0  0
   -1.5084   62.1335   87.3564 C   0  0  0  0  0  0  0  0  0  0  0  0
 35 36  1  0  0  0
 36 34  1  0  0  0
 34  1  1  0  0  0
  1  2  1  0  0  0
  2  3  2  0  0  0
  3  4  1  0  0  0
  4 24  1  0  0  0
 24 25  2  0  0  0
 24 26  2  0  0  0
 24 27  1  0  0  0
 27 28  1  0  0  0
 28 29  1  0  0  0
 29 30  1  0  0  0
 30 31  1  0  0  0
 30 32  1  0  0  0
 32 33  1  0  0  0
  4  5  2  0  0  0
  5  6  1  0  0  0
  6  7  1  0  0  0
  7  8  1  0  0  0
  8  9  2  0  0  0
  9 10  1  0  0  0
  9 11  1  0  0  0
 11 12  2  0  0  0
 12 13  1  0  0  0
 12 14  1  0  0  0
 14 15  2  0  0  0
 15 19  1  0  0  0
 19 20  1  0  0  0
 20 21  1  0  0  0
 21 22  1  0  0  0
 22 23  1  0  0  0
 15 16  1  0  0  0
 16 17  1  0  0  0
  6  1  2  0  0  0
 17  7  2  0  0  0
 33 27  1  0  0  0
 16 11  1  0  0  0
 23 19  1  0  0  0
 10 18  1  0  0  0
M  END
> <minimizedAffinity>
-9.79952

$$$$



 36 40  0  0  0  0  0  0  0  0999 V2000
    1.1017   66.0707   80.3747 C   0  0  0  0  0  0  0  0  0  0  0  0
    1.5846   67.0413   79.4862 C   0  0  0  0  0  0  0  0  0  0  0  0
    2.1605   68.2247   79.9627 C   0  0  0  0  0  0  0  0  0  0  0  0
    2.2480   68.4506   81.3370 C   0  0  0  0  0  0  0  0  0  0  0  0
    1.8114   67.4807   82.2373 C   0  0  0  0  0  0  0  0  0  0  0  0
    1.2288   66.2980   81.7576 C   0  0  0  0  0  0  0  0  0  0  0  0
    0.7280   65.3354   82.7785 C   0  0  0  0  0  0  0  0  0  0  0  0
    0.9761   65.6662   84.0974 N   0  0  0  0  0  0  0  0  0  0  0  0
    0.5403   64.8472   84.9819 C   0  0  0  0  0  0  0  0  0  0  0  0
    0.7387   65.0738   86.2862 O   0  0  0  0  0  0  0  0  0  0  0  0
   -0.1661   63.6826   84.6638 C   0  0  0  0  0  0  0  0  0  0  0  0
   -0.7624   62.6373   85.3254 C   0  0  0  0  0  0  0  0  0  0  0  0
   -0.8560   62.3737   86.7773 C   0  0  0  0  0  0  0  0  0  0  0  0
   -1.3279   61.7732   84.4107 N   0  0  0  0  0  0  0  0  0  0  0  0
   -1.0667   62.2858   83.2182 C   0  0  0  0  0  0  0  0  0  0  0  0
   -0.3620   63.4625   83.3406 N   0  0  0  0  0  0  0  0  0  0  0  0
    0.0703   64.2889   82.3616 N   0  0  0  0  0  0  0  0  0  0  0  0
    1.2388   65.9031   86.3605 H   0  0  0  0  0  0  0  0  0  0  0  0
   -1.4676   61.7359   81.8835 C   0  0  0  0  0  0  0  0  0  0  0  0
   -2.6409   62.5349   81.2855 C   0  0  0  0  0  0  0  0  0  0  0  0
   -3.7238   61.5128   80.9567 C   0  0  0  0  0  0  0  0  0  0  0  0
   -3.4781   60.3848   81.9425 C   0  0  0  0  0  0  0  0  0  0  0  0
   -1.9603   60.2830   81.9651 C   0  0  0  0  0  0  0  0  0  0  0  0
    2.9820   69.9522   81.9519 S   0  0  0  0  0  0  0  0  0  0  0  0
    4.2428   70.1269   81.2618 O   0  0  0  0  0  0  0  0  0  0  0  0
    2.9211   69.8959   83.3967 O   0  0  0  0  0  0  0  0  0  0  0  0
    1.9251   71.1573   81.4180 N   0  0  0  0  0  0  0  0  0  0  0  0
    2.4261   72.5565   81.3178 C   0  0  0  0  0  0  0  0  0  0  0  0
    1.6675   73.5051   82.2657 C   0  0  0  0  0  0  0  0  0  0  0  0
    0.2001   73.5202   82.0940 N   0  0  0  0  0  0  0  0  0  0  0  0
   -0.2532   74.7129   81.3823 C   0  0  0  0  0  0  0  0  0  0  0  0
   -0.2898   72.2984   81.4221 C   0  0  0  0  0  0  0  0  0  0  0  0
    0.4985   71.0401   81.8281 C   0  0  0  0  0  0  0  0  0  0  0  0
    0.4653   64.9241   79.9835 O   0  0  0  0  0  0  0  0  0  0  0  0
    0.6547   62.9123   78.7270 C   0  0  0  0  0  0  0  0  0  0  0  0
    0.7165   64.4281   78.6707 C   0  0  0  0  0  0  0  0  0  0  0  0
 35 36  1  0  0  0
 36 34  1  0  0  0
 34  1  1  0  0  0
  1  2  1  0  0  0
  2  3  2  0  0  0
  3  4  1  0  0  0
  4 24  1  0  0  0
 24 25  2  0  0  0
 24 26  2  0  0  0
 24 27  1  0  0  0
 27 28  1  0  0  0
 28 29  1  0  0  0
 29 30  1  0  0  0
 30 31  1  0  0  0
 30 32  1  0  0  0
 32 33  1  0  0  0
  4  5  2  0  0  0
  5  6  1  0  0  0
  6  7  1  0  0  0
  7  8  1  0  0  0
  8  9  2  0  0  0
  9 10  1  0  0  0
  9 11  1  0  0  0
 11 12  2  0  0  0
 12 13  1  0  0  0
 12 14  1  0  0  0
 14 15  2  0  0  0
 15 19  1  0  0  0
 19 20  1  0  0  0
 20 21  1  0  0  0
 21 22  1  0  0  0
 22 23  1  0  0  0
 15 16  1  0  0  0
 16 17  1  0  0  0
  6  1  2  0  0  0
 17  7  2  0  0  0
 33 27  1  0  0  0
 16 11  1  0  0  0
 23 19  1  0  0  0
 10 18  1  0  0  0
M  END
> <minimizedAffinity>
-9.64950

$$$$



 36 40  0  0  0  0  0  0  0  0999 V2000
   -0.8479   63.5690   86.2933 C   0  0  0  0  0  0  0  0  0  0  0  0
   -1.9565   62.7114   86.2703 C   0  0  0  0  0  0  0  0  0  0  0  0
   -2.4095   62.1594   85.0664 C   0  0  0  0  0  0  0  0  0  0  0  0
   -1.7603   62.4714   83.8711 C   0  0  0  0  0  0  0  0  0  0  0  0
   -0.6318   63.2889   83.8775 C   0  0  0  0  0  0  0  0  0  0  0  0
   -0.1831   63.8461   85.0844 C   0  0  0  0  0  0  0  0  0  0  0  0
    0.9905   64.7604   85.0052 C   0  0  0  0  0  0  0  0  0  0  0  0
    2.0168   64.5086   85.8960 N   0  0  0  0  0  0  0  0  0  0  0  0
    3.0340   65.2857   85.8278 C   0  0  0  0  0  0  0  0  0  0  0  0
    4.0754   65.1295   86.6542 O   0  0  0  0  0  0  0  0  0  0  0  0
    3.1382   66.3296   84.9027 C   0  0  0  0  0  0  0  0  0  0  0  0
    4.0453   67.3012   84.5575 C   0  0  0  0  0  0  0  0  0  0  0  0
    5.3752   67.5940   85.1337 C   0  0  0  0  0  0  0  0  0  0  0  0
    3.5465   68.0489   83.5110 N   0  0  0  0  0  0  0  0  0  0  0  0
    2.3545   67.5412   83.2385 C   0  0  0  0  0  0  0  0  0  0  0  0
    2.0787   66.4789   84.0703 N   0  0  0  0  0  0  0  0  0  0  0  0
    0.9800   65.6912   84.0914 N   0  0  0  0  0  0  0  0  0  0  0  0
    3.8690   64.3811   87.2378 H   0  0  0  0  0  0  0  0  0  0  0  0
    1.3959   67.9880   82.1773 C   0  0  0  0  0  0  0  0  0  0  0  0
    1.8249   67.4715   80.7910 C   0  0  0  0  0  0  0  0  0  0  0  0
    1.8992   68.6979   79.8878 C   0  0  0  0  0  0  0  0  0  0  0  0
    2.2050   69.8397   80.8404 C   0  0  0  0  0  0  0  0  0  0  0  0
    1.3310   69.5170   82.0432 C   0  0  0  0  0  0  0  0  0  0  0  0
   -2.3283   61.7711   82.3354 S   0  0  0  0  0  0  0  0  0  0  0  0
   -3.5648   62.4407   81.9904 O   0  0  0  0  0  0  0  0  0  0  0  0
   -2.2705   60.3319   82.4759 O   0  0  0  0  0  0  0  0  0  0  0  0
   -1.1500   62.2482   81.2226 N   0  0  0  0  0  0  0  0  0  0  0  0
   -1.5110   63.2526   80.1835 C   0  0  0  0  0  0  0  0  0  0  0  0
   -1.3973   62.6708   78.7614 C   0  0  0  0  0  0  0  0  0  0  0  0
   -0.0774   62.1001   78.4219 N   0  0  0  0  0  0  0  0  0  0  0  0
    0.6946   62.9891   77.5570 C   0  0  0  0  0  0  0  0  0  0  0  0
    0.6993   61.7488   79.6292 C   0  0  0  0  0  0  0  0  0  0  0  0
   -0.1845   61.2096   80.7685 C   0  0  0  0  0  0  0  0  0  0  0  0
   -0.3914   64.1994   87.4189 O   0  0  0  0  0  0  0  0  0  0  0  0
    0.4918   62.6575   89.0015 C   0  0  0  0  0  0  0  0  0  0  0  0
   -0.6574   63.5973   88.6835 C   0  0  0  0  0  0  0  0  0  0  0  0
 35 36  1  0  0  0
 36 34  1  0  0  0
 34  1  1  0  0  0
  1  2  1  0  0  0
  2  3  2  0  0  0
  3  4  1  0  0  0
  4 24  1  0  0  0
 24 25  2  0  0  0
 24 26  2  0  0  0
 24 27  1  0  0  0
 27 28  1  0  0  0
 28 29  1  0  0  0
 29 30  1  0  0  0
 30 31  1  0  0  0
 30 32  1  0  0  0
 32 33  1  0  0  0
  4  5  2  0  0  0
  5  6  1  0  0  0
  6  7  1  0  0  0
  7  8  1  0  0  0
  8  9  2  0  0  0
  9 10  1  0  0  0
  9 11  1  0  0  0
 11 12  2  0  0  0
 12 13  1  0  0  0
 12 14  1  0  0  0
 14 15  2  0  0  0
 15 19  1  0  0  0
 19 20  1  0  0  0
 20 21  1  0  0  0
 21 22  1  0  0  0
 22 23  1  0  0  0
 15 16  1  0  0  0
 16 17  1  0  0  0
  6  1  2  0  0  0
 17  7  2  0  0  0
 33 27  1  0  0  0
 16 11  1  0  0  0
 23 19  1  0  0  0
 10 18  1  0  0  0
M  END
> <minimizedAffinity>
-9.50478

$$$$



 36 40  0  0  0  0  0  0  0  0999 V2000
    0.5681   65.8651   80.3192 C   0  0  0  0  0  0  0  0  0  0  0  0
    1.3234   67.0394   80.1946 C   0  0  0  0  0  0  0  0  0  0  0  0
    1.9244   67.6261   81.3144 C   0  0  0  0  0  0  0  0  0  0  0  0
    1.7643   67.0454   82.5732 C   0  0  0  0  0  0  0  0  0  0  0  0
    1.0518   65.8559   82.7124 C   0  0  0  0  0  0  0  0  0  0  0  0
    0.4450   65.2729   81.5898 C   0  0  0  0  0  0  0  0  0  0  0  0
   -0.3529   64.0370   81.8253 C   0  0  0  0  0  0  0  0  0  0  0  0
   -0.4759   63.1799   80.7479 N   0  0  0  0  0  0  0  0  0  0  0  0
   -1.1536   62.1099   80.9456 C   0  0  0  0  0  0  0  0  0  0  0  0
   -1.3381   61.2211   79.9618 O   0  0  0  0  0  0  0  0  0  0  0  0
   -1.7352   61.7894   82.1767 C   0  0  0  0  0  0  0  0  0  0  0  0
   -2.4799   60.7715   82.7199 C   0  0  0  0  0  0  0  0  0  0  0  0
   -2.9726   59.5272   82.0912 C   0  0  0  0  0  0  0  0  0  0  0  0
   -2.7449   61.0486   84.0451 N   0  0  0  0  0  0  0  0  0  0  0  0
   -2.1772   62.2190   84.2913 C   0  0  0  0  0  0  0  0  0  0  0  0
   -1.5422   62.6957   83.1662 N   0  0  0  0  0  0  0  0  0  0  0  0
   -0.8362   63.8395   83.0206 N   0  0  0  0  0  0  0  0  0  0  0  0
   -0.8897   61.5685   79.1734 H   0  0  0  0  0  0  0  0  0  0  0  0
   -2.1636   62.9691   85.5882 C   0  0  0  0  0  0  0  0  0  0  0  0
   -0.7278   63.3599   85.9864 C   0  0  0  0  0  0  0  0  0  0  0  0
   -0.5213   62.8259   87.3997 C   0  0  0  0  0  0  0  0  0  0  0  0
   -1.4604   61.6362   87.4855 C   0  0  0  0  0  0  0  0  0  0  0  0
   -2.7016   62.1349   86.7607 C   0  0  0  0  0  0  0  0  0  0  0  0
    2.5279   67.7837   84.0026 S   0  0  0  0  0  0  0  0  0  0  0  0
    1.8498   67.2597   85.1696 O   0  0  0  0  0  0  0  0  0  0  0  0
    2.6036   69.2080   83.7576 O   0  0  0  0  0  0  0  0  0  0  0  0
    4.0953   67.1533   83.9846 N   0  0  0  0  0  0  0  0  0  0  0  0
    4.3866   65.9347   84.7903 C   0  0  0  0  0  0  0  0  0  0  0  0
    5.4288   66.2120   85.8906 C   0  0  0  0  0  0  0  0  0  0  0  0
    6.7090   66.7742   85.4132 N   0  0  0  0  0  0  0  0  0  0  0  0
    7.7699   65.7701   85.3889 C   0  0  0  0  0  0  0  0  0  0  0  0
    6.5710   67.4143   84.0882 C   0  0  0  0  0  0  0  0  0  0  0  0
    5.2185   68.1279   83.9108 C   0  0  0  0  0  0  0  0  0  0  0  0
   -0.1044   65.2744   79.2841 O   0  0  0  0  0  0  0  0  0  0  0  0
   -0.3446   64.3382   77.1097 C   0  0  0  0  0  0  0  0  0  0  0  0
    0.6274   64.9442   78.1060 C   0  0  0  0  0  0  0  0  0  0  0  0
 35 36  1  0  0  0
 36 34  1  0  0  0
 34  1  1  0  0  0
  1  2  1  0  0  0
  2  3  2  0  0  0
  3  4  1  0  0  0
  4 24  1  0  0  0
 24 25  2  0  0  0
 24 26  2  0  0  0
 24 27  1  0  0  0
 27 28  1  0  0  0
 28 29  1  0  0  0
 29 30  1  0  0  0
 30 31  1  0  0  0
 30 32  1  0  0  0
 32 33  1  0  0  0
  4  5  2  0  0  0
  5  6  1  0  0  0
  6  7  1  0  0  0
  7  8  1  0  0  0
  8  9  2  0  0  0
  9 10  1  0  0  0
  9 11  1  0  0  0
 11 12  2  0  0  0
 12 13  1  0  0  0
 12 14  1  0  0  0
 14 15  2  0  0  0
 15 19  1  0  0  0
 19 20  1  0  0  0
 20 21  1  0  0  0
 21 22  1  0  0  0
 22 23  1  0  0  0
 15 16  1  0  0  0
 16 17  1  0  0  0
  6  1  2  0  0  0
 17  7  2  0  0  0
 33 27  1  0  0  0
 16 11  1  0  0  0
 23 19  1  0  0  0
 10 18  1  0  0  0
M  END
> <minimizedAffinity>
-9.38773

$$$$
