
     RDKit          3D

 52 54  0  0  0  0  0  0  0  0999 V2000
   -2.5116   -5.8534    0.6609 C   0  0  0  0  0  0  0  0  0  0  0  0
   -3.0571   -4.9115    1.5509 O   0  0  0  0  0  0  0  0  0  0  0  0
   -2.3051   -3.8058    1.9063 C   0  0  0  0  0  0  0  0  0  0  0  0
   -1.0305   -3.5640    1.4349 C   0  0  0  0  0  0  0  0  0  0  0  0
   -0.3102   -2.4302    1.8250 C   0  0  0  0  0  0  0  0  0  0  0  0
   -0.8975   -1.5449    2.6976 C   0  0  0  0  0  0  0  0  0  0  0  0
   -0.2658   -0.3007    3.1829 C   0  0  0  0  0  0  0  0  0  0  0  0
   -0.6384    0.8890    2.4476 N   0  0  0  0  0  0  0  0  0  0  0  0
   -0.3724    1.1068    1.0781 C   0  0  0  0  0  0  0  0  0  0  0  0
    0.2764    0.1837    0.3562 N   0  0  0  0  0  0  0  0  0  0  0  0
    0.5585    0.3340   -0.9238 N   0  0  0  0  0  0  0  0  0  0  0  0
    0.2140    1.4342   -1.6094 C   0  0  0  0  0  0  0  0  0  0  0  0
    0.5590    1.5016   -2.9768 N   0  0  0  0  0  0  0  0  0  0  0  0
    1.2773    0.4140   -3.6496 C   0  0  0  0  0  0  0  0  0  0  0  0
    2.5971    0.2521   -2.9967 C   0  0  0  0  0  0  0  0  0  0  0  0
    3.6857    1.0056   -3.4490 C   0  0  0  0  0  0  0  0  0  0  0  0
    4.9404    0.8812   -2.8741 C   0  0  0  0  0  0  0  0  0  0  0  0
    5.1010   -0.0164   -1.8270 C   0  0  0  0  0  0  0  0  0  0  0  0
    4.0251   -0.7596   -1.3818 C   0  0  0  0  0  0  0  0  0  0  0  0
    2.8391   -0.5914   -1.9814 N   0  0  0  0  0  0  0  0  0  0  0  0
   -0.4561    2.4209   -0.9232 C   0  0  0  0  0  0  0  0  0  0  0  0
   -0.8282    3.5566   -1.5776 C   0  0  0  0  0  0  0  0  0  0  0  0
   -1.5078    4.5834   -0.9342 C   0  0  0  0  0  0  0  0  0  0  0  0
   -1.8035    4.4266    0.4057 C   0  0  0  0  0  0  0  0  0  0  0  0
   -2.5119    5.4749    1.1129 C   0  0  0  0  0  0  0  0  0  0  0  0
   -3.0833    6.2949    1.6818 N   0  0  0  0  0  0  0  0  0  0  0  0
   -1.4237    3.2735    1.0632 C   0  0  0  0  0  0  0  0  0  0  0  0
   -0.7505    2.2577    0.4240 C   0  0  0  0  0  0  0  0  0  0  0  0
   -2.1910   -1.8008    3.1693 C   0  0  0  0  0  0  0  0  0  0  0  0
   -2.9012   -2.9050    2.7940 C   0  0  0  0  0  0  0  0  0  0  0  0
   -4.5177   -3.1945    3.4020 Cl  0  0  0  0  0  0  0  0  0  0  0  0
    0.6828    0.0000    0.0000 Cl  0  0  0  0  0  0  0  0  0  0  0  0
   -2.3690   -5.3599   -0.3268 H   0  0  0  0  0  0  0  0  0  0  0  0
   -1.5702   -6.3270    1.0292 H   0  0  0  0  0  0  0  0  0  0  0  0
   -3.2863   -6.6610    0.5428 H   0  0  0  0  0  0  0  0  0  0  0  0
   -0.5802   -4.2824    0.7397 H   0  0  0  0  0  0  0  0  0  0  0  0
    0.6801   -2.2784    1.4502 H   0  0  0  0  0  0  0  0  0  0  0  0
   -0.4751   -0.2123    4.2673 H   0  0  0  0  0  0  0  0  0  0  0  0
    0.8487   -0.3690    3.1129 H   0  0  0  0  0  0  0  0  0  0  0  0
   -1.1484    1.6190    3.0328 H   0  0  0  0  0  0  0  0  0  0  0  0
    0.3335    2.3169   -3.6049 H   0  0  0  0  0  0  0  0  0  0  0  0
    0.6832   -0.5160   -3.5253 H   0  0  0  0  0  0  0  0  0  0  0  0
    1.4191    0.6114   -4.7233 H   0  0  0  0  0  0  0  0  0  0  0  0
    3.5817    1.7167   -4.2699 H   0  0  0  0  0  0  0  0  0  0  0  0
    5.8015    1.4437   -3.1949 H   0  0  0  0  0  0  0  0  0  0  0  0
    6.0599   -0.1527   -1.3415 H   0  0  0  0  0  0  0  0  0  0  0  0
    4.0754   -1.4735   -0.5770 H   0  0  0  0  0  0  0  0  0  0  0  0
   -0.6195    3.7247   -2.6242 H   0  0  0  0  0  0  0  0  0  0  0  0
   -1.7925    5.4869   -1.4954 H   0  0  0  0  0  0  0  0  0  0  0  0
   -1.6852    3.2149    2.1082 H   0  0  0  0  0  0  0  0  0  0  0  0
   -2.6670   -1.1143    3.8570 H   0  0  0  0  0  0  0  0  0  0  0  0
   -0.6828    0.0000    0.0000 H   0  0  0  0  0  0  0  0  0  0  0  0
  1  2  1  0
  2  3  1  0
  3  4  1  0
  4  5  2  0
  5  6  1  0
  6  7  1  0
  7  8  1  0
  8  9  1  0
  9 10  1  0
 10 11  2  0
 11 12  1  0
 12 13  1  0
 13 14  1  0
 14 15  1  0
 15 16  2  0
 16 17  1  0
 17 18  2  0
 18 19  1  0
 19 20  2  0
 12 21  2  0
 21 22  1  0
 22 23  2  0
 23 24  1  0
 24 25  1  0
 25 26  3  0
 24 27  2  0
 27 28  1  0
  6 29  2  0
 29 30  1  0
 30 31  1  0
 30  3  2  0
 28  9  2  0
 20 15  1  0
 28 21  1  0
  1 33  1  0
  1 34  1  0
  1 35  1  0
  4 36  1  0
  5 37  1  0
  7 38  1  0
  7 39  1  0
  8 40  1  0
 13 41  1  0
 14 42  1  0
 14 43  1  0
 16 44  1  0
 17 45  1  0
 18 46  1  0
 19 47  1  0
 22 48  1  0
 23 49  1  0
 27 50  1  0
 29 51  1  0
 32 52  1  0
M  END
$$$$
