
     RDKit          3D

 71 75  0  0  0  0  0  0  0  0999 V2000
   -0.5407    6.5210   -0.5822 C   0  0  0  0  0  0  0  0  0  0  0  0
    0.2880    5.4598   -1.2832 C   0  0  0  0  0  0  0  0  0  0  0  0
    0.4225    4.3454   -0.3935 O   0  0  0  0  0  0  0  0  0  0  0  0
    0.8832    3.2278   -1.0397 C   0  0  0  0  0  0  0  0  0  0  0  0
    2.1861    3.2220   -1.5567 C   0  0  0  0  0  0  0  0  0  0  0  0
    2.7126    2.0639   -2.1315 C   0  0  0  0  0  0  0  0  0  0  0  0
    1.9421    0.8996   -2.1617 C   0  0  0  0  0  0  0  0  0  0  0  0
    2.5937   -0.5828   -2.9027 S   0  0  0  0  0  0  0  0  0  0  0  0
    1.4833   -1.2674   -3.5292 O   0  0  0  0  0  0  0  0  0  0  0  0
    3.7657   -0.2066   -3.6654 O   0  0  0  0  0  0  0  0  0  0  0  0
    3.1072   -1.4923   -1.5789 N   0  0  0  0  0  0  0  0  0  0  0  0
    4.3374   -1.0385   -0.8685 C   0  0  0  0  0  0  0  0  0  0  0  0
    4.4940   -1.7321    0.5039 C   0  0  0  0  0  0  0  0  0  0  0  0
    4.0873   -3.1511    0.5375 N   0  0  0  0  0  0  0  0  0  0  0  0
    4.9572   -4.0236   -0.2832 C   0  0  0  0  0  0  0  0  0  0  0  0
    6.4509   -3.9982    0.0912 C   0  0  0  0  0  0  0  0  0  0  0  0
    7.1316   -2.9048   -0.5230 O   0  0  0  0  0  0  0  0  0  0  0  0
    2.6743   -3.2775    0.0929 C   0  0  0  0  0  0  0  0  0  0  0  0
    2.0844   -2.0694   -0.6751 C   0  0  0  0  0  0  0  0  0  0  0  0
    0.6392    0.8960   -1.6567 C   0  0  0  0  0  0  0  0  0  0  0  0
    0.1086    2.0589   -1.0783 C   0  0  0  0  0  0  0  0  0  0  0  0
   -1.2680    1.9762   -0.5131 C   0  0  0  0  0  0  0  0  0  0  0  0
   -2.0693    3.0977   -0.6593 N   0  0  0  0  0  0  0  0  0  0  0  0
   -3.2546    3.0094   -0.1684 C   0  0  0  0  0  0  0  0  0  0  0  0
   -4.1240    4.0304   -0.2365 O   0  0  0  0  0  0  0  0  0  0  0  0
   -3.7434    1.8832    0.4566 N   0  0  0  0  0  0  0  0  0  0  0  0
   -4.9436    1.5535    1.0424 C   0  0  0  0  0  0  0  0  0  0  0  0
   -6.1057    2.4695    1.1381 C   0  0  0  0  0  0  0  0  0  0  0  0
   -4.9085    0.3148    1.5001 N   0  0  0  0  0  0  0  0  0  0  0  0
   -3.6486   -0.1660    1.2037 C   0  0  0  0  0  0  0  0  0  0  0  0
   -3.2430   -1.5554    1.5746 C   0  0  0  0  0  0  0  0  0  0  0  0
   -4.0165   -2.6197    0.7746 C   0  0  0  0  0  0  0  0  0  0  0  0
   -4.4850   -3.6443    1.7996 C   0  0  0  0  0  0  0  0  0  0  0  0
   -4.6981   -2.8200    3.0561 C   0  0  0  0  0  0  0  0  0  0  0  0
   -3.5017   -1.8790    3.0559 C   0  0  0  0  0  0  0  0  0  0  0  0
   -2.9077    0.7989    0.5514 C   0  0  0  0  0  0  0  0  0  0  0  0
   -1.6471    0.8585    0.0469 N   0  0  0  0  0  0  0  0  0  0  0  0
   -1.5283    6.1292   -0.3187 H   0  0  0  0  0  0  0  0  0  0  0  0
   -0.0607    6.8295    0.3524 H   0  0  0  0  0  0  0  0  0  0  0  0
   -0.6687    7.3999   -1.2203 H   0  0  0  0  0  0  0  0  0  0  0  0
   -0.2149    5.1597   -2.2110 H   0  0  0  0  0  0  0  0  0  0  0  0
    1.2739    5.8744   -1.5208 H   0  0  0  0  0  0  0  0  0  0  0  0
    2.8082    4.1113   -1.4923 H   0  0  0  0  0  0  0  0  0  0  0  0
    3.7223    2.0754   -2.5376 H   0  0  0  0  0  0  0  0  0  0  0  0
    5.1975   -1.2769   -1.5027 H   0  0  0  0  0  0  0  0  0  0  0  0
    4.3173    0.0437   -0.7095 H   0  0  0  0  0  0  0  0  0  0  0  0
    3.8700   -1.1967    1.2334 H   0  0  0  0  0  0  0  0  0  0  0  0
    5.5128   -1.5957    0.8816 H   0  0  0  0  0  0  0  0  0  0  0  0
    4.8450   -3.7941   -1.3500 H   0  0  0  0  0  0  0  0  0  0  0  0
    4.6161   -5.0553   -0.1295 H   0  0  0  0  0  0  0  0  0  0  0  0
    6.5903   -3.9348    1.1752 H   0  0  0  0  0  0  0  0  0  0  0  0
    6.9355   -4.9190   -0.2510 H   0  0  0  0  0  0  0  0  0  0  0  0
    7.0799   -3.0390   -1.4856 H   0  0  0  0  0  0  0  0  0  0  0  0
    2.0576   -3.4400    0.9856 H   0  0  0  0  0  0  0  0  0  0  0  0
    2.5387   -4.1799   -0.5181 H   0  0  0  0  0  0  0  0  0  0  0  0
    1.2097   -2.4112   -1.2371 H   0  0  0  0  0  0  0  0  0  0  0  0
    1.7525   -1.3040    0.0361 H   0  0  0  0  0  0  0  0  0  0  0  0
    0.0349   -0.0082   -1.7121 H   0  0  0  0  0  0  0  0  0  0  0  0
   -3.6775    4.7663   -0.6886 H   0  0  0  0  0  0  0  0  0  0  0  0
   -6.9367    1.9756    1.6520 H   0  0  0  0  0  0  0  0  0  0  0  0
   -5.8500    3.3678    1.7081 H   0  0  0  0  0  0  0  0  0  0  0  0
   -6.4567    2.7611    0.1437 H   0  0  0  0  0  0  0  0  0  0  0  0
   -2.1683   -1.6694    1.3811 H   0  0  0  0  0  0  0  0  0  0  0  0
   -3.3861   -3.0851    0.0092 H   0  0  0  0  0  0  0  0  0  0  0  0
   -4.8848   -2.1907    0.2594 H   0  0  0  0  0  0  0  0  0  0  0  0
   -3.7030   -4.3946    1.9663 H   0  0  0  0  0  0  0  0  0  0  0  0
   -5.3934   -4.1638    1.4814 H   0  0  0  0  0  0  0  0  0  0  0  0
   -4.7397   -3.4378    3.9575 H   0  0  0  0  0  0  0  0  0  0  0  0
   -5.6319   -2.2500    2.9855 H   0  0  0  0  0  0  0  0  0  0  0  0
   -3.6741   -0.9980    3.6827 H   0  0  0  0  0  0  0  0  0  0  0  0
   -2.6317   -2.4076    3.4664 H   0  0  0  0  0  0  0  0  0  0  0  0
  1  2  1  0
  2  3  1  0
  3  4  1  0
  4  5  1  0
  5  6  2  0
  6  7  1  0
  7  8  1  0
  8  9  2  0
  8 10  2  0
  8 11  1  0
 11 12  1  0
 12 13  1  0
 13 14  1  0
 14 15  1  0
 15 16  1  0
 16 17  1  0
 14 18  1  0
 18 19  1  0
  7 20  2  0
 20 21  1  0
 21 22  1  0
 22 23  1  0
 23 24  2  0
 24 25  1  0
 24 26  1  0
 26 27  1  0
 27 28  1  0
 27 29  2  0
 29 30  1  0
 30 31  1  0
 31 32  1  0
 32 33  1  0
 33 34  1  0
 34 35  1  0
 30 36  2  0
 36 37  1  0
 21  4  2  0
 37 22  2  0
 19 11  1  0
 36 26  1  0
 35 31  1  0
  1 38  1  0
  1 39  1  0
  1 40  1  0
  2 41  1  0
  2 42  1  0
  5 43  1  0
  6 44  1  0
 12 45  1  0
 12 46  1  0
 13 47  1  0
 13 48  1  0
 15 49  1  0
 15 50  1  0
 16 51  1  0
 16 52  1  0
 17 53  1  0
 18 54  1  0
 18 55  1  0
 19 56  1  0
 19 57  1  0
 20 58  1  0
 25 59  1  0
 28 60  1  0
 28 61  1  0
 28 62  1  0
 31 63  1  0
 32 64  1  0
 32 65  1  0
 33 66  1  0
 33 67  1  0
 34 68  1  0
 34 69  1  0
 35 70  1  0
 35 71  1  0
M  END
$$$$
