


 31 34  0  0  0  0  0  0  0  0999 V2000
    0.6356   65.4531   83.9766 C   0  0  0  0  0  0  0  0  0  0  0  0
    0.4482   65.3868   82.6524 N   0  0  0  0  0  0  0  0  0  0  0  0
   -0.1167   64.3333   82.1018 N   0  0  0  0  0  0  0  0  0  0  0  0
   -0.5459   63.2608   82.7805 C   0  0  0  0  0  0  0  0  0  0  0  0
   -0.3832   63.2643   84.1427 C   0  0  0  0  0  0  0  0  0  0  0  0
   -0.8063   62.1802   84.8752 C   0  0  0  0  0  0  0  0  0  0  0  0
   -0.6551   62.1494   86.2452 C   0  0  0  0  0  0  0  0  0  0  0  0
   -0.0643   63.2509   86.8289 C   0  0  0  0  0  0  0  0  0  0  0  0
    0.3624   64.3432   86.0901 C   0  0  0  0  0  0  0  0  0  0  0  0
    0.2086   64.3683   84.7203 C   0  0  0  0  0  0  0  0  0  0  0  0
   -1.1469   62.2151   82.0400 N   0  0  0  0  0  0  0  0  0  0  0  0
   -0.4158   61.2647   81.2279 C   0  0  0  0  0  0  0  0  0  0  0  0
   -1.0674   60.9660   79.9118 C   0  0  0  0  0  0  0  0  0  0  0  0
   -2.2940   61.7672   79.6561 C   0  0  0  0  0  0  0  0  0  0  0  0
   -2.5792   62.1437   78.5199 O   0  0  0  0  0  0  0  0  0  0  0  0
   -3.2430   62.1623   80.7318 C   0  0  0  0  0  0  0  0  0  0  0  0
   -2.5892   62.0696   82.0863 C   0  0  0  0  0  0  0  0  0  0  0  0
    1.2453   66.5858   84.5547 N   0  0  0  0  0  0  0  0  0  0  0  0
    1.0238   66.8774   85.5477 H   0  0  0  0  0  0  0  0  0  0  0  0
    2.2028   67.4408   83.8811 C   0  0  0  0  0  0  0  0  0  0  0  0
    6.2073   66.7239   85.2433 C   0  0  0  0  0  0  0  0  0  0  0  0
    5.9665   67.7758   84.3740 C   0  0  0  0  0  0  0  0  0  0  0  0
    4.6663   68.0024   83.9293 C   0  0  0  0  0  0  0  0  0  0  0  0
    3.5988   67.2477   84.2981 C   0  0  0  0  0  0  0  0  0  0  0  0
    3.8498   66.1873   85.1759 C   0  0  0  0  0  0  0  0  0  0  0  0
    5.1346   65.9425   85.6312 C   0  0  0  0  0  0  0  0  0  0  0  0
    5.4687   64.6134   86.7353 Cl  0  0  0  0  0  0  0  0  0  0  0  0
    8.4488   65.8424   84.8879 C   0  0  0  0  0  0  0  0  0  0  0  0
    7.4952   66.4757   85.7023 O   0  0  0  0  0  0  0  0  0  0  0  0
    0.1073   63.2448   88.2728 C   0  0  0  0  0  0  0  0  0  0  0  0
    0.2636   63.2350   89.4380 N   0  0  0  0  0  0  0  0  0  0  0  0
 28 29  1  0  0  0
 29 21  1  0  0  0
 21 22  1  0  0  0
 22 23  2  0  0  0
 23 24  1  0  0  0
 24 20  1  0  0  0
 20 18  1  0  0  0
 18  1  1  0  0  0
  1  2  1  0  0  0
  2  3  2  0  0  0
  3  4  1  0  0  0
  4 11  1  0  0  0
 11 12  1  0  0  0
 12 13  1  0  0  0
 13 14  1  0  0  0
 14 15  2  0  0  0
 14 16  1  0  0  0
 16 17  1  0  0  0
  4  5  2  0  0  0
  5  6  1  0  0  0
  6  7  2  0  0  0
  7  8  1  0  0  0
  8 30  1  0  0  0
 30 31  3  0  0  0
  8  9  2  0  0  0
  9 10  1  0  0  0
 24 25  2  0  0  0
 25 26  1  0  0  0
 26 27  1  0  0  0
 26 21  2  0  0  0
 10  1  2  0  0  0
 17 11  1  0  0  0
 10  5  1  0  0  0
 18 19  1  0  0  0
M  END
> <minimizedAffinity>
-10.31767

$$$$



 31 34  0  0  0  0  0  0  0  0999 V2000
    0.2600   64.6804   82.2648 C   0  0  0  0  0  0  0  0  0  0  0  0
   -0.2197   64.3654   81.0549 N   0  0  0  0  0  0  0  0  0  0  0  0
   -1.1455   63.4406   80.9150 N   0  0  0  0  0  0  0  0  0  0  0  0
   -1.6832   62.7460   81.9267 C   0  0  0  0  0  0  0  0  0  0  0  0
   -1.2350   63.0198   83.1940 C   0  0  0  0  0  0  0  0  0  0  0  0
   -1.7584   62.3252   84.2592 C   0  0  0  0  0  0  0  0  0  0  0  0
   -1.3282   62.5729   85.5454 C   0  0  0  0  0  0  0  0  0  0  0  0
   -0.3583   63.5417   85.6993 C   0  0  0  0  0  0  0  0  0  0  0  0
    0.1693   64.2412   84.6253 C   0  0  0  0  0  0  0  0  0  0  0  0
   -0.2647   63.9891   83.3413 C   0  0  0  0  0  0  0  0  0  0  0  0
   -2.6820   61.7947   81.6094 N   0  0  0  0  0  0  0  0  0  0  0  0
   -2.6692   60.4172   82.0560 C   0  0  0  0  0  0  0  0  0  0  0  0
   -3.0795   59.4353   81.0008 C   0  0  0  0  0  0  0  0  0  0  0  0
   -3.3379   60.0558   79.6742 C   0  0  0  0  0  0  0  0  0  0  0  0
   -3.0615   59.4620   78.6325 O   0  0  0  0  0  0  0  0  0  0  0  0
   -3.9358   61.4090   79.5149 C   0  0  0  0  0  0  0  0  0  0  0  0
   -3.8006   62.2093   80.7845 C   0  0  0  0  0  0  0  0  0  0  0  0
    1.2548   65.6707   82.4018 N   0  0  0  0  0  0  0  0  0  0  0  0
    1.8140   65.7621   83.2957 H   0  0  0  0  0  0  0  0  0  0  0  0
    1.6066   66.6334   81.3766 C   0  0  0  0  0  0  0  0  0  0  0  0
    1.5939   70.7495   82.5861 C   0  0  0  0  0  0  0  0  0  0  0  0
    2.6330   69.9280   82.9930 C   0  0  0  0  0  0  0  0  0  0  0  0
    2.6312   68.5909   82.6032 C   0  0  0  0  0  0  0  0  0  0  0  0
    1.6616   68.0282   81.8363 C   0  0  0  0  0  0  0  0  0  0  0  0
    0.6155   68.8639   81.4295 C   0  0  0  0  0  0  0  0  0  0  0  0
    0.5958   70.1967   81.8051 C   0  0  0  0  0  0  0  0  0  0  0  0
   -0.7117   71.2623   81.3028 Cl  0  0  0  0  0  0  0  0  0  0  0  0
    2.7577   72.8301   83.0804 C   0  0  0  0  0  0  0  0  0  0  0  0
    1.5712   72.0873   82.9610 O   0  0  0  0  0  0  0  0  0  0  0  0
    0.1135   63.8231   87.0456 C   0  0  0  0  0  0  0  0  0  0  0  0
    0.4775   64.0536   88.1395 N   0  0  0  0  0  0  0  0  0  0  0  0
 28 29  1  0  0  0
 29 21  1  0  0  0
 21 22  1  0  0  0
 22 23  2  0  0  0
 23 24  1  0  0  0
 24 20  1  0  0  0
 20 18  1  0  0  0
 18  1  1  0  0  0
  1  2  1  0  0  0
  2  3  2  0  0  0
  3  4  1  0  0  0
  4 11  1  0  0  0
 11 12  1  0  0  0
 12 13  1  0  0  0
 13 14  1  0  0  0
 14 15  2  0  0  0
 14 16  1  0  0  0
 16 17  1  0  0  0
  4  5  2  0  0  0
  5  6  1  0  0  0
  6  7  2  0  0  0
  7  8  1  0  0  0
  8 30  1  0  0  0
 30 31  3  0  0  0
  8  9  2  0  0  0
  9 10  1  0  0  0
 24 25  2  0  0  0
 25 26  1  0  0  0
 26 27  1  0  0  0
 26 21  2  0  0  0
 10  1  2  0  0  0
 17 11  1  0  0  0
 10  5  1  0  0  0
 18 19  1  0  0  0
M  END
> <minimizedAffinity>
-10.06201

$$$$



 31 34  0  0  0  0  0  0  0  0999 V2000
    1.1351   65.8733   82.3684 C   0  0  0  0  0  0  0  0  0  0  0  0
    0.3846   66.4943   81.4496 N   0  0  0  0  0  0  0  0  0  0  0  0
    0.5838   67.7624   81.1594 N   0  0  0  0  0  0  0  0  0  0  0  0
    1.5199   68.5333   81.7292 C   0  0  0  0  0  0  0  0  0  0  0  0
    2.3237   67.9580   82.6804 C   0  0  0  0  0  0  0  0  0  0  0  0
    3.2935   68.7169   83.2924 C   0  0  0  0  0  0  0  0  0  0  0  0
    4.1162   68.1713   84.2548 C   0  0  0  0  0  0  0  0  0  0  0  0
    3.9134   66.8422   84.5633 C   0  0  0  0  0  0  0  0  0  0  0  0
    2.9353   66.0778   83.9466 C   0  0  0  0  0  0  0  0  0  0  0  0
    2.1155   66.6289   82.9850 C   0  0  0  0  0  0  0  0  0  0  0  0
    1.6153   69.8766   81.2938 N   0  0  0  0  0  0  0  0  0  0  0  0
    2.6022   70.3616   80.3515 C   0  0  0  0  0  0  0  0  0  0  0  0
    3.1908   71.6893   80.7215 C   0  0  0  0  0  0  0  0  0  0  0  0
    2.7115   72.2128   82.0283 C   0  0  0  0  0  0  0  0  0  0  0  0
    3.4571   72.8591   82.7636 O   0  0  0  0  0  0  0  0  0  0  0  0
    1.3272   71.9975   82.5293 C   0  0  0  0  0  0  0  0  0  0  0  0
    0.6698   70.8454   81.8144 C   0  0  0  0  0  0  0  0  0  0  0  0
    0.9099   64.5148   82.6735 N   0  0  0  0  0  0  0  0  0  0  0  0
    1.6695   63.7912   82.5338 H   0  0  0  0  0  0  0  0  0  0  0  0
   -0.3350   63.9813   83.1904 C   0  0  0  0  0  0  0  0  0  0  0  0
   -0.6056   63.2963   87.4169 C   0  0  0  0  0  0  0  0  0  0  0  0
    0.4135   64.0962   86.9250 C   0  0  0  0  0  0  0  0  0  0  0  0
    0.5017   64.3120   85.5520 C   0  0  0  0  0  0  0  0  0  0  0  0
   -0.3604   63.7817   84.6463 C   0  0  0  0  0  0  0  0  0  0  0  0
   -1.3866   62.9749   85.1504 C   0  0  0  0  0  0  0  0  0  0  0  0
   -1.4942   62.7458   86.5119 C   0  0  0  0  0  0  0  0  0  0  0  0
   -2.7783   61.7340   87.1636 Cl  0  0  0  0  0  0  0  0  0  0  0  0
    0.1922   62.2313   89.4557 C   0  0  0  0  0  0  0  0  0  0  0  0
   -0.7166   63.0646   88.7825 O   0  0  0  0  0  0  0  0  0  0  0  0
    4.7675   66.2414   85.5752 C   0  0  0  0  0  0  0  0  0  0  0  0
    5.4450   65.7584   86.4058 N   0  0  0  0  0  0  0  0  0  0  0  0
 28 29  1  0  0  0
 29 21  1  0  0  0
 21 22  1  0  0  0
 22 23  2  0  0  0
 23 24  1  0  0  0
 24 20  1  0  0  0
 20 18  1  0  0  0
 18  1  1  0  0  0
  1  2  1  0  0  0
  2  3  2  0  0  0
  3  4  1  0  0  0
  4 11  1  0  0  0
 11 12  1  0  0  0
 12 13  1  0  0  0
 13 14  1  0  0  0
 14 15  2  0  0  0
 14 16  1  0  0  0
 16 17  1  0  0  0
  4  5  2  0  0  0
  5  6  1  0  0  0
  6  7  2  0  0  0
  7  8  1  0  0  0
  8 30  1  0  0  0
 30 31  3  0  0  0
  8  9  2  0  0  0
  9 10  1  0  0  0
 24 25  2  0  0  0
 25 26  1  0  0  0
 26 27  1  0  0  0
 26 21  2  0  0  0
 10  1  2  0  0  0
 17 11  1  0  0  0
 10  5  1  0  0  0
 18 19  1  0  0  0
M  END
> <minimizedAffinity>
-10.04532

$$$$



 31 34  0  0  0  0  0  0  0  0999 V2000
    0.8146   65.4406   83.5610 C   0  0  0  0  0  0  0  0  0  0  0  0
    0.6208   65.3011   82.2434 N   0  0  0  0  0  0  0  0  0  0  0  0
   -0.0100   64.2519   81.7605 N   0  0  0  0  0  0  0  0  0  0  0  0
   -0.5043   63.2543   82.5060 C   0  0  0  0  0  0  0  0  0  0  0  0
   -0.3392   63.3353   83.8655 C   0  0  0  0  0  0  0  0  0  0  0  0
   -0.8280   62.3292   84.6653 C   0  0  0  0  0  0  0  0  0  0  0  0
   -0.6764   62.3773   86.0348 C   0  0  0  0  0  0  0  0  0  0  0  0
   -0.0166   63.4749   86.5476 C   0  0  0  0  0  0  0  0  0  0  0  0
    0.4764   64.4884   85.7410 C   0  0  0  0  0  0  0  0  0  0  0  0
    0.3219   64.4348   84.3720 C   0  0  0  0  0  0  0  0  0  0  0  0
   -1.1712   62.2028   81.8330 N   0  0  0  0  0  0  0  0  0  0  0  0
   -0.5137   61.2270   80.9887 C   0  0  0  0  0  0  0  0  0  0  0  0
   -1.2644   60.9120   79.7305 C   0  0  0  0  0  0  0  0  0  0  0  0
   -2.4966   61.7248   79.5496 C   0  0  0  0  0  0  0  0  0  0  0  0
   -2.8603   62.0832   78.4300 O   0  0  0  0  0  0  0  0  0  0  0  0
   -3.3587   62.1535   80.6840 C   0  0  0  0  0  0  0  0  0  0  0  0
   -2.6078   62.0780   81.9883 C   0  0  0  0  0  0  0  0  0  0  0  0
    1.4953   66.5677   84.0663 N   0  0  0  0  0  0  0  0  0  0  0  0
    1.3192   66.9154   85.0503 H   0  0  0  0  0  0  0  0  0  0  0  0
    2.4705   67.3429   83.3249 C   0  0  0  0  0  0  0  0  0  0  0  0
    1.0491   71.0369   81.6698 C   0  0  0  0  0  0  0  0  0  0  0  0
    0.4772   69.8451   81.2545 C   0  0  0  0  0  0  0  0  0  0  0  0
    0.9447   68.6473   81.7896 C   0  0  0  0  0  0  0  0  0  0  0  0
    1.9416   68.5679   82.7087 C   0  0  0  0  0  0  0  0  0  0  0  0
    2.5144   69.7755   83.1231 C   0  0  0  0  0  0  0  0  0  0  0  0
    2.0662   70.9789   82.6047 C   0  0  0  0  0  0  0  0  0  0  0  0
    2.7749   72.5071   83.1142 Cl  0  0  0  0  0  0  0  0  0  0  0  0
   -0.5661   72.8583   81.6370 C   0  0  0  0  0  0  0  0  0  0  0  0
    0.6016   72.2462   81.1519 O   0  0  0  0  0  0  0  0  0  0  0  0
    0.1570   63.5509   87.9893 C   0  0  0  0  0  0  0  0  0  0  0  0
    0.3152   63.6166   89.1524 N   0  0  0  0  0  0  0  0  0  0  0  0
 28 29  1  0  0  0
 29 21  1  0  0  0
 21 22  1  0  0  0
 22 23  2  0  0  0
 23 24  1  0  0  0
 24 20  1  0  0  0
 20 18  1  0  0  0
 18  1  1  0  0  0
  1  2  1  0  0  0
  2  3  2  0  0  0
  3  4  1  0  0  0
  4 11  1  0  0  0
 11 12  1  0  0  0
 12 13  1  0  0  0
 13 14  1  0  0  0
 14 15  2  0  0  0
 14 16  1  0  0  0
 16 17  1  0  0  0
  4  5  2  0  0  0
  5  6  1  0  0  0
  6  7  2  0  0  0
  7  8  1  0  0  0
  8 30  1  0  0  0
 30 31  3  0  0  0
  8  9  2  0  0  0
  9 10  1  0  0  0
 24 25  2  0  0  0
 25 26  1  0  0  0
 26 27  1  0  0  0
 26 21  2  0  0  0
 10  1  2  0  0  0
 17 11  1  0  0  0
 10  5  1  0  0  0
 18 19  1  0  0  0
M  END
> <minimizedAffinity>
-9.93565

$$$$



 31 34  0  0  0  0  0  0  0  0999 V2000
    0.3449   64.5266   82.2765 C   0  0  0  0  0  0  0  0  0  0  0  0
   -0.1027   64.1950   81.0588 N   0  0  0  0  0  0  0  0  0  0  0  0
   -1.0642   63.3088   80.9106 N   0  0  0  0  0  0  0  0  0  0  0  0
   -1.6713   62.6717   81.9210 C   0  0  0  0  0  0  0  0  0  0  0  0
   -1.2592   62.9654   83.1961 C   0  0  0  0  0  0  0  0  0  0  0  0
   -1.8540   62.3294   84.2603 C   0  0  0  0  0  0  0  0  0  0  0  0
   -1.4618   62.5984   85.5544 C   0  0  0  0  0  0  0  0  0  0  0  0
   -0.4548   63.5271   85.7169 C   0  0  0  0  0  0  0  0  0  0  0  0
    0.1448   64.1675   84.6439 C   0  0  0  0  0  0  0  0  0  0  0  0
   -0.2515   63.8943   83.3520 C   0  0  0  0  0  0  0  0  0  0  0  0
   -2.7002   61.7566   81.5936 N   0  0  0  0  0  0  0  0  0  0  0  0
   -2.6943   60.3556   81.9601 C   0  0  0  0  0  0  0  0  0  0  0  0
   -3.1671   59.4429   80.8695 C   0  0  0  0  0  0  0  0  0  0  0  0
   -3.4696   60.1429   79.5928 C   0  0  0  0  0  0  0  0  0  0  0  0
   -3.2485   59.6057   78.5080 O   0  0  0  0  0  0  0  0  0  0  0  0
   -4.0482   61.5126   79.5366 C   0  0  0  0  0  0  0  0  0  0  0  0
   -3.8446   62.2362   80.8426 C   0  0  0  0  0  0  0  0  0  0  0  0
    1.3784   65.4751   82.4225 N   0  0  0  0  0  0  0  0  0  0  0  0
    2.1978   65.4965   81.7530 H   0  0  0  0  0  0  0  0  0  0  0  0
    1.4311   66.4836   83.4627 C   0  0  0  0  0  0  0  0  0  0  0  0
    5.3391   67.1085   85.1187 C   0  0  0  0  0  0  0  0  0  0  0  0
    4.8019   68.0655   84.2727 C   0  0  0  0  0  0  0  0  0  0  0  0
    3.5353   67.8569   83.7324 C   0  0  0  0  0  0  0  0  0  0  0  0
    2.7773   66.7583   83.9844 C   0  0  0  0  0  0  0  0  0  0  0  0
    3.3265   65.7964   84.8394 C   0  0  0  0  0  0  0  0  0  0  0  0
    4.5843   65.9819   85.3883 C   0  0  0  0  0  0  0  0  0  0  0  0
    5.2907   64.7826   86.4654 Cl  0  0  0  0  0  0  0  0  0  0  0  0
    7.7643   66.9773   84.9495 C   0  0  0  0  0  0  0  0  0  0  0  0
    6.6008   67.2917   85.6714 O   0  0  0  0  0  0  0  0  0  0  0  0
   -0.0218   63.8299   87.0716 C   0  0  0  0  0  0  0  0  0  0  0  0
    0.3432   64.0644   88.1644 N   0  0  0  0  0  0  0  0  0  0  0  0
 28 29  1  0  0  0
 29 21  1  0  0  0
 21 22  1  0  0  0
 22 23  2  0  0  0
 23 24  1  0  0  0
 24 20  1  0  0  0
 20 18  1  0  0  0
 18  1  1  0  0  0
  1  2  1  0  0  0
  2  3  2  0  0  0
  3  4  1  0  0  0
  4 11  1  0  0  0
 11 12  1  0  0  0
 12 13  1  0  0  0
 13 14  1  0  0  0
 14 15  2  0  0  0
 14 16  1  0  0  0
 16 17  1  0  0  0
  4  5  2  0  0  0
  5  6  1  0  0  0
  6  7  2  0  0  0
  7  8  1  0  0  0
  8 30  1  0  0  0
 30 31  3  0  0  0
  8  9  2  0  0  0
  9 10  1  0  0  0
 24 25  2  0  0  0
 25 26  1  0  0  0
 26 27  1  0  0  0
 26 21  2  0  0  0
 10  1  2  0  0  0
 17 11  1  0  0  0
 10  5  1  0  0  0
 18 19  1  0  0  0
M  END
> <minimizedAffinity>
-9.90383

$$$$



 31 34  0  0  0  0  0  0  0  0999 V2000
    0.9759   65.9022   83.2875 C   0  0  0  0  0  0  0  0  0  0  0  0
    0.6809   65.8602   81.9821 N   0  0  0  0  0  0  0  0  0  0  0  0
   -0.0495   64.8846   81.4854 N   0  0  0  0  0  0  0  0  0  0  0  0
   -0.5540   63.8727   82.2043 C   0  0  0  0  0  0  0  0  0  0  0  0
   -0.2883   63.8554   83.5501 C   0  0  0  0  0  0  0  0  0  0  0  0
   -0.7840   62.8312   84.3222 C   0  0  0  0  0  0  0  0  0  0  0  0
   -0.5333   62.7813   85.6769 C   0  0  0  0  0  0  0  0  0  0  0  0
    0.2312   63.8014   86.2042 C   0  0  0  0  0  0  0  0  0  0  0  0
    0.7310   64.8332   85.4255 C   0  0  0  0  0  0  0  0  0  0  0  0
    0.4771   64.8778   84.0712 C   0  0  0  0  0  0  0  0  0  0  0  0
   -1.3337   62.9094   81.5209 N   0  0  0  0  0  0  0  0  0  0  0  0
   -2.7747   62.9693   81.3892 C   0  0  0  0  0  0  0  0  0  0  0  0
   -3.4546   61.6465   81.5733 C   0  0  0  0  0  0  0  0  0  0  0  0
   -2.5274   60.5434   81.9407 C   0  0  0  0  0  0  0  0  0  0  0  0
   -2.8818   59.6458   82.7042 O   0  0  0  0  0  0  0  0  0  0  0  0
   -1.1357   60.4479   81.4230 C   0  0  0  0  0  0  0  0  0  0  0  0
   -0.6624   61.7812   80.9044 C   0  0  0  0  0  0  0  0  0  0  0  0
    1.7625   66.9509   83.8076 N   0  0  0  0  0  0  0  0  0  0  0  0
    1.7787   67.1577   84.8454 H   0  0  0  0  0  0  0  0  0  0  0  0
    2.6008   67.8256   83.0115 C   0  0  0  0  0  0  0  0  0  0  0  0
    0.8701   71.6047   81.9490 C   0  0  0  0  0  0  0  0  0  0  0  0
    0.2784   70.4375   81.4932 C   0  0  0  0  0  0  0  0  0  0  0  0
    0.8460   69.2126   81.8353 C   0  0  0  0  0  0  0  0  0  0  0  0
    1.9607   69.0832   82.6005 C   0  0  0  0  0  0  0  0  0  0  0  0
    2.5527   70.2661   83.0569 C   0  0  0  0  0  0  0  0  0  0  0  0
    2.0064   71.4958   82.7292 C   0  0  0  0  0  0  0  0  0  0  0  0
    2.7374   72.9936   83.2944 Cl  0  0  0  0  0  0  0  0  0  0  0  0
   -0.8230   72.9393   80.8177 C   0  0  0  0  0  0  0  0  0  0  0  0
    0.3243   72.8401   81.6224 O   0  0  0  0  0  0  0  0  0  0  0  0
    0.5108   63.7733   87.6309 C   0  0  0  0  0  0  0  0  0  0  0  0
    0.7544   63.7549   88.7809 N   0  0  0  0  0  0  0  0  0  0  0  0
 28 29  1  0  0  0
 29 21  1  0  0  0
 21 22  1  0  0  0
 22 23  2  0  0  0
 23 24  1  0  0  0
 24 20  1  0  0  0
 20 18  1  0  0  0
 18  1  1  0  0  0
  1  2  1  0  0  0
  2  3  2  0  0  0
  3  4  1  0  0  0
  4 11  1  0  0  0
 11 12  1  0  0  0
 12 13  1  0  0  0
 13 14  1  0  0  0
 14 15  2  0  0  0
 14 16  1  0  0  0
 16 17  1  0  0  0
  4  5  2  0  0  0
  5  6  1  0  0  0
  6  7  2  0  0  0
  7  8  1  0  0  0
  8 30  1  0  0  0
 30 31  3  0  0  0
  8  9  2  0  0  0
  9 10  1  0  0  0
 24 25  2  0  0  0
 25 26  1  0  0  0
 26 27  1  0  0  0
 26 21  2  0  0  0
 10  1  2  0  0  0
 17 11  1  0  0  0
 10  5  1  0  0  0
 18 19  1  0  0  0
M  END
> <minimizedAffinity>
-9.80313

$$$$



 31 34  0  0  0  0  0  0  0  0999 V2000
    1.0002   65.8712   82.2199 C   0  0  0  0  0  0  0  0  0  0  0  0
    2.0584   66.6749   82.0547 N   0  0  0  0  0  0  0  0  0  0  0  0
    2.9389   66.8395   83.0189 N   0  0  0  0  0  0  0  0  0  0  0  0
    2.8716   66.2446   84.2176 C   0  0  0  0  0  0  0  0  0  0  0  0
    1.8104   65.4075   84.4526 C   0  0  0  0  0  0  0  0  0  0  0  0
    1.7026   64.7814   85.6721 C   0  0  0  0  0  0  0  0  0  0  0  0
    0.6472   63.9366   85.9427 C   0  0  0  0  0  0  0  0  0  0  0  0
   -0.2790   63.7590   84.9360 C   0  0  0  0  0  0  0  0  0  0  0  0
   -0.1702   64.3908   83.7071 C   0  0  0  0  0  0  0  0  0  0  0  0
    0.8874   65.2346   83.4423 C   0  0  0  0  0  0  0  0  0  0  0  0
    3.9090   66.5152   85.1416 N   0  0  0  0  0  0  0  0  0  0  0  0
    4.3303   67.8451   85.5301 C   0  0  0  0  0  0  0  0  0  0  0  0
    5.8171   68.0035   85.6312 C   0  0  0  0  0  0  0  0  0  0  0  0
    6.5766   66.7894   85.2301 C   0  0  0  0  0  0  0  0  0  0  0  0
    7.6610   66.8816   84.6558 O   0  0  0  0  0  0  0  0  0  0  0  0
    6.0906   65.4071   85.4885 C   0  0  0  0  0  0  0  0  0  0  0  0
    4.6068   65.3991   85.7507 C   0  0  0  0  0  0  0  0  0  0  0  0
    0.0614   65.7055   81.1805 N   0  0  0  0  0  0  0  0  0  0  0  0
   -0.9780   65.7726   81.3685 H   0  0  0  0  0  0  0  0  0  0  0  0
    0.4017   65.4359   79.7974 C   0  0  0  0  0  0  0  0  0  0  0  0
   -0.5347   61.3988   78.6881 C   0  0  0  0  0  0  0  0  0  0  0  0
    0.2307   62.1752   77.8329 C   0  0  0  0  0  0  0  0  0  0  0  0
    0.5283   63.4871   78.1934 C   0  0  0  0  0  0  0  0  0  0  0  0
    0.1112   64.0669   79.3488 C   0  0  0  0  0  0  0  0  0  0  0  0
   -0.6615   63.2767   80.2072 C   0  0  0  0  0  0  0  0  0  0  0  0
   -0.9703   61.9696   79.8697 C   0  0  0  0  0  0  0  0  0  0  0  0
   -1.9408   60.9615   80.9370 Cl  0  0  0  0  0  0  0  0  0  0  0  0
   -1.8949   59.7915   77.4659 C   0  0  0  0  0  0  0  0  0  0  0  0
   -0.8461   60.0868   78.3527 O   0  0  0  0  0  0  0  0  0  0  0  0
   -1.4025   62.8728   85.1948 C   0  0  0  0  0  0  0  0  0  0  0  0
   -2.3002   62.1419   85.3997 N   0  0  0  0  0  0  0  0  0  0  0  0
 28 29  1  0  0  0
 29 21  1  0  0  0
 21 22  1  0  0  0
 22 23  2  0  0  0
 23 24  1  0  0  0
 24 20  1  0  0  0
 20 18  1  0  0  0
 18  1  1  0  0  0
  1  2  1  0  0  0
  2  3  2  0  0  0
  3  4  1  0  0  0
  4 11  1  0  0  0
 11 12  1  0  0  0
 12 13  1  0  0  0
 13 14  1  0  0  0
 14 15  2  0  0  0
 14 16  1  0  0  0
 16 17  1  0  0  0
  4  5  2  0  0  0
  5  6  1  0  0  0
  6  7  2  0  0  0
  7  8  1  0  0  0
  8 30  1  0  0  0
 30 31  3  0  0  0
  8  9  2  0  0  0
  9 10  1  0  0  0
 24 25  2  0  0  0
 25 26  1  0  0  0
 26 27  1  0  0  0
 26 21  2  0  0  0
 10  1  2  0  0  0
 17 11  1  0  0  0
 10  5  1  0  0  0
 18 19  1  0  0  0
M  END
> <minimizedAffinity>
-9.71041

$$$$



 31 34  0  0  0  0  0  0  0  0999 V2000
    0.0477   64.8374   81.5502 C   0  0  0  0  0  0  0  0  0  0  0  0
   -0.8516   63.8478   81.4791 N   0  0  0  0  0  0  0  0  0  0  0  0
   -1.2449   63.2131   82.5628 N   0  0  0  0  0  0  0  0  0  0  0  0
   -0.8049   63.4795   83.8000 C   0  0  0  0  0  0  0  0  0  0  0  0
    0.1194   64.4831   83.9430 C   0  0  0  0  0  0  0  0  0  0  0  0
    0.5996   64.7842   85.1959 C   0  0  0  0  0  0  0  0  0  0  0  0
    1.5314   65.7844   85.3749 C   0  0  0  0  0  0  0  0  0  0  0  0
    1.9475   66.4543   84.2430 C   0  0  0  0  0  0  0  0  0  0  0  0
    1.4636   66.1501   82.9803 C   0  0  0  0  0  0  0  0  0  0  0  0
    0.5319   65.1488   82.8075 C   0  0  0  0  0  0  0  0  0  0  0  0
   -1.3397   62.7143   84.8637 N   0  0  0  0  0  0  0  0  0  0  0  0
   -2.7232   62.7619   85.2891 C   0  0  0  0  0  0  0  0  0  0  0  0
   -2.8990   62.7601   86.7774 C   0  0  0  0  0  0  0  0  0  0  0  0
   -1.6176   62.7965   87.5312 C   0  0  0  0  0  0  0  0  0  0  0  0
   -1.5266   63.4051   88.5968 O   0  0  0  0  0  0  0  0  0  0  0  0
   -0.3812   62.1150   87.0614 C   0  0  0  0  0  0  0  0  0  0  0  0
   -0.4590   61.8167   85.5864 C   0  0  0  0  0  0  0  0  0  0  0  0
    0.4641   65.5079   80.3814 N   0  0  0  0  0  0  0  0  0  0  0  0
    1.2980   65.1680   79.8253 H   0  0  0  0  0  0  0  0  0  0  0  0
   -0.1768   66.6879   79.8351 C   0  0  0  0  0  0  0  0  0  0  0  0
    1.6108   70.4764   80.7609 C   0  0  0  0  0  0  0  0  0  0  0  0
    2.4094   69.4507   80.2809 C   0  0  0  0  0  0  0  0  0  0  0  0
    1.8269   68.2204   79.9866 C   0  0  0  0  0  0  0  0  0  0  0  0
    0.5040   67.9540   80.1408 C   0  0  0  0  0  0  0  0  0  0  0  0
   -0.2960   68.9945   80.6261 C   0  0  0  0  0  0  0  0  0  0  0  0
    0.2610   70.2264   80.9259 C   0  0  0  0  0  0  0  0  0  0  0  0
   -0.7298   71.5462   81.5372 Cl  0  0  0  0  0  0  0  0  0  0  0  0
    2.8062   71.9444   82.2917 C   0  0  0  0  0  0  0  0  0  0  0  0
    2.1665   71.7138   81.0624 O   0  0  0  0  0  0  0  0  0  0  0  0
    2.9299   67.5142   84.4033 C   0  0  0  0  0  0  0  0  0  0  0  0
    3.7377   68.3590   84.5300 N   0  0  0  0  0  0  0  0  0  0  0  0
 28 29  1  0  0  0
 29 21  1  0  0  0
 21 22  1  0  0  0
 22 23  2  0  0  0
 23 24  1  0  0  0
 24 20  1  0  0  0
 20 18  1  0  0  0
 18  1  1  0  0  0
  1  2  1  0  0  0
  2  3  2  0  0  0
  3  4  1  0  0  0
  4 11  1  0  0  0
 11 12  1  0  0  0
 12 13  1  0  0  0
 13 14  1  0  0  0
 14 15  2  0  0  0
 14 16  1  0  0  0
 16 17  1  0  0  0
  4  5  2  0  0  0
  5  6  1  0  0  0
  6  7  2  0  0  0
  7  8  1  0  0  0
  8 30  1  0  0  0
 30 31  3  0  0  0
  8  9  2  0  0  0
  9 10  1  0  0  0
 24 25  2  0  0  0
 25 26  1  0  0  0
 26 27  1  0  0  0
 26 21  2  0  0  0
 10  1  2  0  0  0
 17 11  1  0  0  0
 10  5  1  0  0  0
 18 19  1  0  0  0
M  END
> <minimizedAffinity>
-9.66709

$$$$



 31 34  0  0  0  0  0  0  0  0999 V2000
    0.8380   65.1655   82.8066 C   0  0  0  0  0  0  0  0  0  0  0  0
    0.7417   65.4704   84.1068 N   0  0  0  0  0  0  0  0  0  0  0  0
    0.1268   64.6645   84.9461 N   0  0  0  0  0  0  0  0  0  0  0  0
   -0.4438   63.5021   84.6018 C   0  0  0  0  0  0  0  0  0  0  0  0
   -0.3812   63.1300   83.2828 C   0  0  0  0  0  0  0  0  0  0  0  0
   -0.9589   61.9463   82.8880 C   0  0  0  0  0  0  0  0  0  0  0  0
   -0.9174   61.5438   81.5700 C   0  0  0  0  0  0  0  0  0  0  0  0
   -0.2737   62.3837   80.6850 C   0  0  0  0  0  0  0  0  0  0  0  0
    0.3080   63.5770   81.0834 C   0  0  0  0  0  0  0  0  0  0  0  0
    0.2632   63.9744   82.4028 C   0  0  0  0  0  0  0  0  0  0  0  0
   -1.0531   62.7426   85.6289 N   0  0  0  0  0  0  0  0  0  0  0  0
   -2.4364   62.8797   86.0350 C   0  0  0  0  0  0  0  0  0  0  0  0
   -2.6381   62.8388   87.5194 C   0  0  0  0  0  0  0  0  0  0  0  0
   -1.3710   62.7518   88.2931 C   0  0  0  0  0  0  0  0  0  0  0  0
   -1.2534   63.3139   89.3814 O   0  0  0  0  0  0  0  0  0  0  0  0
   -0.1810   61.9957   87.8174 C   0  0  0  0  0  0  0  0  0  0  0  0
   -0.2551   61.7562   86.3315 C   0  0  0  0  0  0  0  0  0  0  0  0
    1.4963   66.0389   81.9161 N   0  0  0  0  0  0  0  0  0  0  0  0
    2.5434   65.9840   81.7724 H   0  0  0  0  0  0  0  0  0  0  0  0
    0.8392   67.0659   81.1319 C   0  0  0  0  0  0  0  0  0  0  0  0
    1.2771   71.1349   82.4189 C   0  0  0  0  0  0  0  0  0  0  0  0
    2.2035   70.1911   82.8326 C   0  0  0  0  0  0  0  0  0  0  0  0
    2.0553   68.8700   82.4175 C   0  0  0  0  0  0  0  0  0  0  0  0
    1.0453   68.4371   81.6192 C   0  0  0  0  0  0  0  0  0  0  0  0
    0.1137   69.3958   81.2057 C   0  0  0  0  0  0  0  0  0  0  0  0
    0.2404   70.7155   81.6060 C   0  0  0  0  0  0  0  0  0  0  0  0
   -0.9218   71.9346   81.0957 Cl  0  0  0  0  0  0  0  0  0  0  0  0
    2.6533   73.0072   83.1459 C   0  0  0  0  0  0  0  0  0  0  0  0
    1.4015   72.4600   82.8186 O   0  0  0  0  0  0  0  0  0  0  0  0
   -0.2151   61.9832   79.2884 C   0  0  0  0  0  0  0  0  0  0  0  0
   -0.1501   61.6545   78.1614 N   0  0  0  0  0  0  0  0  0  0  0  0
 28 29  1  0  0  0
 29 21  1  0  0  0
 21 22  1  0  0  0
 22 23  2  0  0  0
 23 24  1  0  0  0
 24 20  1  0  0  0
 20 18  1  0  0  0
 18  1  1  0  0  0
  1  2  1  0  0  0
  2  3  2  0  0  0
  3  4  1  0  0  0
  4 11  1  0  0  0
 11 12  1  0  0  0
 12 13  1  0  0  0
 13 14  1  0  0  0
 14 15  2  0  0  0
 14 16  1  0  0  0
 16 17  1  0  0  0
  4  5  2  0  0  0
  5  6  1  0  0  0
  6  7  2  0  0  0
  7  8  1  0  0  0
  8 30  1  0  0  0
 30 31  3  0  0  0
  8  9  2  0  0  0
  9 10  1  0  0  0
 24 25  2  0  0  0
 25 26  1  0  0  0
 26 27  1  0  0  0
 26 21  2  0  0  0
 10  1  2  0  0  0
 17 11  1  0  0  0
 10  5  1  0  0  0
 18 19  1  0  0  0
M  END
> <minimizedAffinity>
-9.49129

$$$$
