


 24 26  0  0  0  0  0  0  0  0999 V2000
   -2.4999   62.1858   83.2522 N   0  0  0  0  0  0  0  0  0  0  0  0
   -1.9294   62.7646   82.6418 H   0  0  0  0  0  0  0  0  0  0  0  0
   -2.0328   62.3601   84.5759 C   0  0  0  0  0  0  0  0  0  0  0  0
   -2.5894   61.6609   85.5898 N   0  0  0  0  0  0  0  0  0  0  0  0
   -2.1363   61.7888   86.8700 N   0  0  0  0  0  0  0  0  0  0  0  0
   -1.1221   62.6339   87.1277 C   0  0  0  0  0  0  0  0  0  0  0  0
   -0.6797   62.6634   88.7916 Cl  0  0  0  0  0  0  0  0  0  0  0  0
   -0.4904   63.4033   86.1445 C   0  0  0  0  0  0  0  0  0  0  0  0
    0.5791   64.3007   86.3983 C   0  0  0  0  0  0  0  0  0  0  0  0
    1.1588   65.0485   85.3727 C   0  0  0  0  0  0  0  0  0  0  0  0
    0.6787   64.9187   84.0783 C   0  0  0  0  0  0  0  0  0  0  0  0
    1.3789   65.8433   82.8085 Cl  0  0  0  0  0  0  0  0  0  0  0  0
   -0.3697   64.0430   83.8019 C   0  0  0  0  0  0  0  0  0  0  0  0
   -0.9693   63.2620   84.8209 C   0  0  0  0  0  0  0  0  0  0  0  0
   -2.5528   60.8077   82.7709 C   0  0  0  0  0  0  0  0  0  0  0  0
   -1.3966   60.5660   78.5936 C   0  0  0  0  0  0  0  0  0  0  0  0
   -2.5204   59.8793   79.0630 C   0  0  0  0  0  0  0  0  0  0  0  0
   -2.8905   59.9589   80.4109 C   0  0  0  0  0  0  0  0  0  0  0  0
   -2.1483   60.7281   81.3173 C   0  0  0  0  0  0  0  0  0  0  0  0
   -1.0192   61.4112   80.8494 C   0  0  0  0  0  0  0  0  0  0  0  0
   -0.6491   61.3321   79.5024 C   0  0  0  0  0  0  0  0  0  0  0  0
    0.7554   62.2091   78.9987 Cl  0  0  0  0  0  0  0  0  0  0  0  0
   -0.7709   59.2832   76.6777 C   0  0  0  0  0  0  0  0  0  0  0  0
   -0.9632   60.5492   77.2933 O   0  0  0  0  0  0  0  0  0  0  0  0
 23 24  1  0  0  0
 24 16  1  0  0  0
 16 17  1  0  0  0
 17 18  2  0  0  0
 18 19  1  0  0  0
 19 15  1  0  0  0
 15  1  1  0  0  0
  1  3  1  0  0  0
  3  4  1  0  0  0
  4  5  2  0  0  0
  5  6  1  0  0  0
  6  7  1  0  0  0
  6  8  2  0  0  0
  8  9  1  0  0  0
  9 10  2  0  0  0
 10 11  1  0  0  0
 11 12  1  0  0  0
 11 13  2  0  0  0
 13 14  1  0  0  0
 19 20  2  0  0  0
 20 21  1  0  0  0
 21 22  1  0  0  0
 21 16  2  0  0  0
 14  3  2  0  0  0
 14  8  1  0  0  0
  1  2  1  0  0  0
M  END
> <minimizedAffinity>
-9.30403

$$$$



 24 26  0  0  0  0  0  0  0  0999 V2000
   -2.4003   62.1016   83.1495 N   0  0  0  0  0  0  0  0  0  0  0  0
   -2.3871   62.9928   82.6608 H   0  0  0  0  0  0  0  0  0  0  0  0
   -1.9523   62.3259   84.4722 C   0  0  0  0  0  0  0  0  0  0  0  0
   -2.4930   61.6328   85.4988 N   0  0  0  0  0  0  0  0  0  0  0  0
   -2.0569   61.8091   86.7791 N   0  0  0  0  0  0  0  0  0  0  0  0
   -1.0760   62.6964   87.0239 C   0  0  0  0  0  0  0  0  0  0  0  0
   -0.6506   62.7837   88.6902 Cl  0  0  0  0  0  0  0  0  0  0  0  0
   -0.4630   63.4631   86.0268 C   0  0  0  0  0  0  0  0  0  0  0  0
    0.5712   64.4045   86.2667 C   0  0  0  0  0  0  0  0  0  0  0  0
    1.1335   65.1467   85.2275 C   0  0  0  0  0  0  0  0  0  0  0  0
    0.6705   64.9672   83.9327 C   0  0  0  0  0  0  0  0  0  0  0  0
    1.3491   65.8842   82.6458 Cl  0  0  0  0  0  0  0  0  0  0  0  0
   -0.3432   64.0476   83.6698 C   0  0  0  0  0  0  0  0  0  0  0  0
   -0.9241   63.2714   84.7032 C   0  0  0  0  0  0  0  0  0  0  0  0
   -1.6789   61.0789   82.3966 C   0  0  0  0  0  0  0  0  0  0  0  0
   -0.7326   62.4797   78.3981 C   0  0  0  0  0  0  0  0  0  0  0  0
    0.2672   62.3667   79.3689 C   0  0  0  0  0  0  0  0  0  0  0  0
   -0.0412   61.9149   80.6578 C   0  0  0  0  0  0  0  0  0  0  0  0
   -1.3533   61.5638   81.0031 C   0  0  0  0  0  0  0  0  0  0  0  0
   -2.3562   61.6826   80.0333 C   0  0  0  0  0  0  0  0  0  0  0  0
   -2.0485   62.1337   78.7452 C   0  0  0  0  0  0  0  0  0  0  0  0
   -3.3411   62.2483   77.6000 Cl  0  0  0  0  0  0  0  0  0  0  0  0
   -0.5141   64.3089   76.8768 C   0  0  0  0  0  0  0  0  0  0  0  0
   -0.5224   62.9079   77.1130 O   0  0  0  0  0  0  0  0  0  0  0  0
 23 24  1  0  0  0
 24 16  1  0  0  0
 16 17  1  0  0  0
 17 18  2  0  0  0
 18 19  1  0  0  0
 19 15  1  0  0  0
 15  1  1  0  0  0
  1  3  1  0  0  0
  3  4  1  0  0  0
  4  5  2  0  0  0
  5  6  1  0  0  0
  6  7  1  0  0  0
  6  8  2  0  0  0
  8  9  1  0  0  0
  9 10  2  0  0  0
 10 11  1  0  0  0
 11 12  1  0  0  0
 11 13  2  0  0  0
 13 14  1  0  0  0
 19 20  2  0  0  0
 20 21  1  0  0  0
 21 22  1  0  0  0
 21 16  2  0  0  0
 14  3  2  0  0  0
 14  8  1  0  0  0
  1  2  1  0  0  0
M  END
> <minimizedAffinity>
-9.30035

$$$$



 24 26  0  0  0  0  0  0  0  0999 V2000
    0.9544   64.5926   82.7588 N   0  0  0  0  0  0  0  0  0  0  0  0
    1.5391   64.7631   83.5725 H   0  0  0  0  0  0  0  0  0  0  0  0
    0.7227   65.8349   82.1234 C   0  0  0  0  0  0  0  0  0  0  0  0
   -0.1775   65.9264   81.1195 N   0  0  0  0  0  0  0  0  0  0  0  0
   -0.4407   67.1188   80.5117 N   0  0  0  0  0  0  0  0  0  0  0  0
    0.2155   68.2217   80.9145 C   0  0  0  0  0  0  0  0  0  0  0  0
   -0.2456   69.6329   80.0421 Cl  0  0  0  0  0  0  0  0  0  0  0  0
    1.1684   68.2213   81.9390 C   0  0  0  0  0  0  0  0  0  0  0  0
    1.8713   69.3741   82.3755 C   0  0  0  0  0  0  0  0  0  0  0  0
    2.8194   69.3035   83.3969 C   0  0  0  0  0  0  0  0  0  0  0  0
    3.0869   68.0820   83.9963 C   0  0  0  0  0  0  0  0  0  0  0  0
    4.2609   67.9817   85.2489 Cl  0  0  0  0  0  0  0  0  0  0  0  0
    2.4092   66.9349   83.5874 C   0  0  0  0  0  0  0  0  0  0  0  0
    1.4328   66.9788   82.5614 C   0  0  0  0  0  0  0  0  0  0  0  0
   -0.2371   63.8284   83.1189 C   0  0  0  0  0  0  0  0  0  0  0  0
   -0.5650   63.4313   87.4294 C   0  0  0  0  0  0  0  0  0  0  0  0
    0.4564   64.1976   86.8599 C   0  0  0  0  0  0  0  0  0  0  0  0
    0.5597   64.3235   85.4693 C   0  0  0  0  0  0  0  0  0  0  0  0
   -0.3561   63.6895   84.6188 C   0  0  0  0  0  0  0  0  0  0  0  0
   -1.3756   62.9169   85.1880 C   0  0  0  0  0  0  0  0  0  0  0  0
   -1.4795   62.7911   86.5776 C   0  0  0  0  0  0  0  0  0  0  0  0
   -2.7698   61.8237   87.2060 Cl  0  0  0  0  0  0  0  0  0  0  0  0
    0.1419   62.3756   89.4527 C   0  0  0  0  0  0  0  0  0  0  0  0
   -0.7453   63.2559   88.7769 O   0  0  0  0  0  0  0  0  0  0  0  0
 23 24  1  0  0  0
 24 16  1  0  0  0
 16 17  1  0  0  0
 17 18  2  0  0  0
 18 19  1  0  0  0
 19 15  1  0  0  0
 15  1  1  0  0  0
  1  3  1  0  0  0
  3  4  1  0  0  0
  4  5  2  0  0  0
  5  6  1  0  0  0
  6  7  1  0  0  0
  6  8  2  0  0  0
  8  9  1  0  0  0
  9 10  2  0  0  0
 10 11  1  0  0  0
 11 12  1  0  0  0
 11 13  2  0  0  0
 13 14  1  0  0  0
 19 20  2  0  0  0
 20 21  1  0  0  0
 21 22  1  0  0  0
 21 16  2  0  0  0
 14  3  2  0  0  0
 14  8  1  0  0  0
  1  2  1  0  0  0
M  END
> <minimizedAffinity>
-9.17506

$$$$



 24 26  0  0  0  0  0  0  0  0999 V2000
    1.2102   66.3139   84.8961 N   0  0  0  0  0  0  0  0  0  0  0  0
    1.7507   65.9855   85.6918 H   0  0  0  0  0  0  0  0  0  0  0  0
    0.5506   65.1981   84.3299 C   0  0  0  0  0  0  0  0  0  0  0  0
    0.3672   65.1246   82.9929 N   0  0  0  0  0  0  0  0  0  0  0  0
   -0.2388   64.0451   82.4201 N   0  0  0  0  0  0  0  0  0  0  0  0
   -0.6690   63.0396   83.2032 C   0  0  0  0  0  0  0  0  0  0  0  0
   -1.4024   61.7617   82.3120 Cl  0  0  0  0  0  0  0  0  0  0  0  0
   -0.5293   63.0323   84.5954 C   0  0  0  0  0  0  0  0  0  0  0  0
   -0.9785   61.9818   85.4369 C   0  0  0  0  0  0  0  0  0  0  0  0
   -0.8185   62.0414   86.8218 C   0  0  0  0  0  0  0  0  0  0  0  0
   -0.2134   63.1514   87.3915 C   0  0  0  0  0  0  0  0  0  0  0  0
   -0.0204   63.2401   89.0981 Cl  0  0  0  0  0  0  0  0  0  0  0  0
    0.2384   64.1962   86.5873 C   0  0  0  0  0  0  0  0  0  0  0  0
    0.1004   64.1573   85.1775 C   0  0  0  0  0  0  0  0  0  0  0  0
    2.0409   67.0947   83.9830 C   0  0  0  0  0  0  0  0  0  0  0  0
    6.2039   67.0269   85.2119 C   0  0  0  0  0  0  0  0  0  0  0  0
    5.7513   67.9650   84.2793 C   0  0  0  0  0  0  0  0  0  0  0  0
    4.4081   67.9841   83.8846 C   0  0  0  0  0  0  0  0  0  0  0  0
    3.4886   67.0692   84.4151 C   0  0  0  0  0  0  0  0  0  0  0  0
    3.9422   66.1254   85.3445 C   0  0  0  0  0  0  0  0  0  0  0  0
    5.2843   66.1061   85.7394 C   0  0  0  0  0  0  0  0  0  0  0  0
    5.7679   64.9134   86.8965 Cl  0  0  0  0  0  0  0  0  0  0  0  0
    8.4389   66.2766   84.8250 C   0  0  0  0  0  0  0  0  0  0  0  0
    7.4968   66.9372   85.6585 O   0  0  0  0  0  0  0  0  0  0  0  0
 23 24  1  0  0  0
 24 16  1  0  0  0
 16 17  1  0  0  0
 17 18  2  0  0  0
 18 19  1  0  0  0
 19 15  1  0  0  0
 15  1  1  0  0  0
  1  3  1  0  0  0
  3  4  1  0  0  0
  4  5  2  0  0  0
  5  6  1  0  0  0
  6  7  1  0  0  0
  6  8  2  0  0  0
  8  9  1  0  0  0
  9 10  2  0  0  0
 10 11  1  0  0  0
 11 12  1  0  0  0
 11 13  2  0  0  0
 13 14  1  0  0  0
 19 20  2  0  0  0
 20 21  1  0  0  0
 21 22  1  0  0  0
 21 16  2  0  0  0
 14  3  2  0  0  0
 14  8  1  0  0  0
  1  2  1  0  0  0
M  END
> <minimizedAffinity>
-8.94012

$$$$



 24 26  0  0  0  0  0  0  0  0999 V2000
    0.5622   65.1400   81.4492 N   0  0  0  0  0  0  0  0  0  0  0  0
    1.1345   64.8281   82.2291 H   0  0  0  0  0  0  0  0  0  0  0  0
    0.5905   66.5540   81.4290 C   0  0  0  0  0  0  0  0  0  0  0  0
   -0.2274   67.2375   80.5979 N   0  0  0  0  0  0  0  0  0  0  0  0
   -0.2404   68.6014   80.5817 N   0  0  0  0  0  0  0  0  0  0  0  0
    0.5832   69.2771   81.4028 C   0  0  0  0  0  0  0  0  0  0  0  0
    0.4285   70.9854   81.2513 Cl  0  0  0  0  0  0  0  0  0  0  0  0
    1.4683   68.6552   82.2903 C   0  0  0  0  0  0  0  0  0  0  0  0
    2.3451   69.3517   83.1620 C   0  0  0  0  0  0  0  0  0  0  0  0
    3.2129   68.6703   84.0162 C   0  0  0  0  0  0  0  0  0  0  0  0
    3.2253   67.2836   84.0119 C   0  0  0  0  0  0  0  0  0  0  0  0
    4.2982   66.4337   85.0532 Cl  0  0  0  0  0  0  0  0  0  0  0  0
    2.3729   66.5755   83.1668 C   0  0  0  0  0  0  0  0  0  0  0  0
    1.4727   67.2406   82.2978 C   0  0  0  0  0  0  0  0  0  0  0  0
   -0.7639   64.5292   81.4934 C   0  0  0  0  0  0  0  0  0  0  0  0
   -1.4061   62.4574   85.2538 C   0  0  0  0  0  0  0  0  0  0  0  0
   -2.2106   62.1846   84.1432 C   0  0  0  0  0  0  0  0  0  0  0  0
   -2.0012   62.8547   82.9319 C   0  0  0  0  0  0  0  0  0  0  0  0
   -0.9826   63.8087   82.8033 C   0  0  0  0  0  0  0  0  0  0  0  0
   -0.1805   64.0870   83.9167 C   0  0  0  0  0  0  0  0  0  0  0  0
   -0.3892   63.4173   85.1273 C   0  0  0  0  0  0  0  0  0  0  0  0
    0.6467   63.8117   86.4565 Cl  0  0  0  0  0  0  0  0  0  0  0  0
   -2.5759   62.3004   87.3310 C   0  0  0  0  0  0  0  0  0  0  0  0
   -1.5357   61.8486   86.4750 O   0  0  0  0  0  0  0  0  0  0  0  0
 23 24  1  0  0  0
 24 16  1  0  0  0
 16 17  1  0  0  0
 17 18  2  0  0  0
 18 19  1  0  0  0
 19 15  1  0  0  0
 15  1  1  0  0  0
  1  3  1  0  0  0
  3  4  1  0  0  0
  4  5  2  0  0  0
  5  6  1  0  0  0
  6  7  1  0  0  0
  6  8  2  0  0  0
  8  9  1  0  0  0
  9 10  2  0  0  0
 10 11  1  0  0  0
 11 12  1  0  0  0
 11 13  2  0  0  0
 13 14  1  0  0  0
 19 20  2  0  0  0
 20 21  1  0  0  0
 21 22  1  0  0  0
 21 16  2  0  0  0
 14  3  2  0  0  0
 14  8  1  0  0  0
  1  2  1  0  0  0
M  END
> <minimizedAffinity>
-8.84335

$$$$



 24 26  0  0  0  0  0  0  0  0999 V2000
   -0.9020   62.3106   82.8210 N   0  0  0  0  0  0  0  0  0  0  0  0
   -0.0544   62.4043   83.3741 H   0  0  0  0  0  0  0  0  0  0  0  0
   -0.6937   62.9789   81.5919 C   0  0  0  0  0  0  0  0  0  0  0  0
   -1.1962   62.4662   80.4468 N   0  0  0  0  0  0  0  0  0  0  0  0
   -1.0348   63.1075   79.2538 N   0  0  0  0  0  0  0  0  0  0  0  0
   -0.3549   64.2675   79.2169 C   0  0  0  0  0  0  0  0  0  0  0  0
   -0.2545   64.9363   77.6333 Cl  0  0  0  0  0  0  0  0  0  0  0  0
    0.2064   64.8689   80.3487 C   0  0  0  0  0  0  0  0  0  0  0  0
    0.9280   66.0905   80.3282 C   0  0  0  0  0  0  0  0  0  0  0  0
    1.4732   66.6318   81.4930 C   0  0  0  0  0  0  0  0  0  0  0  0
    1.3134   65.9618   82.6966 C   0  0  0  0  0  0  0  0  0  0  0  0
    1.9902   66.6146   84.1365 Cl  0  0  0  0  0  0  0  0  0  0  0  0
    0.6075   64.7611   82.7444 C   0  0  0  0  0  0  0  0  0  0  0  0
    0.0325   64.1942   81.5799 C   0  0  0  0  0  0  0  0  0  0  0  0
   -2.0757   62.7287   83.5833 C   0  0  0  0  0  0  0  0  0  0  0  0
   -1.1468   63.0948   87.8080 C   0  0  0  0  0  0  0  0  0  0  0  0
   -2.4058   62.6522   87.3908 C   0  0  0  0  0  0  0  0  0  0  0  0
   -2.7025   62.5355   86.0275 C   0  0  0  0  0  0  0  0  0  0  0  0
   -1.7476   62.8553   85.0528 C   0  0  0  0  0  0  0  0  0  0  0  0
   -0.4887   63.3045   85.4696 C   0  0  0  0  0  0  0  0  0  0  0  0
   -0.1917   63.4209   86.8319 C   0  0  0  0  0  0  0  0  0  0  0  0
    1.3878   63.9776   87.2686 Cl  0  0  0  0  0  0  0  0  0  0  0  0
    0.1055   62.2551   89.6613 C   0  0  0  0  0  0  0  0  0  0  0  0
   -0.7678   63.2353   89.1178 O   0  0  0  0  0  0  0  0  0  0  0  0
 23 24  1  0  0  0
 24 16  1  0  0  0
 16 17  1  0  0  0
 17 18  2  0  0  0
 18 19  1  0  0  0
 19 15  1  0  0  0
 15  1  1  0  0  0
  1  3  1  0  0  0
  3  4  1  0  0  0
  4  5  2  0  0  0
  5  6  1  0  0  0
  6  7  1  0  0  0
  6  8  2  0  0  0
  8  9  1  0  0  0
  9 10  2  0  0  0
 10 11  1  0  0  0
 11 12  1  0  0  0
 11 13  2  0  0  0
 13 14  1  0  0  0
 19 20  2  0  0  0
 20 21  1  0  0  0
 21 22  1  0  0  0
 21 16  2  0  0  0
 14  3  2  0  0  0
 14  8  1  0  0  0
  1  2  1  0  0  0
M  END
> <minimizedAffinity>
-8.81347

$$$$



 24 26  0  0  0  0  0  0  0  0999 V2000
    1.6143   64.9012   84.0981 N   0  0  0  0  0  0  0  0  0  0  0  0
    0.9222   65.1803   83.4080 H   0  0  0  0  0  0  0  0  0  0  0  0
    0.9238   64.3974   85.2251 C   0  0  0  0  0  0  0  0  0  0  0  0
    1.4044   64.6163   86.4692 N   0  0  0  0  0  0  0  0  0  0  0  0
    0.7410   64.1670   87.5731 N   0  0  0  0  0  0  0  0  0  0  0  0
   -0.4085   63.4859   87.4182 C   0  0  0  0  0  0  0  0  0  0  0  0
   -1.1086   63.0020   88.9152 Cl  0  0  0  0  0  0  0  0  0  0  0  0
   -0.9771   63.2059   86.1708 C   0  0  0  0  0  0  0  0  0  0  0  0
   -2.1873   62.4877   85.9886 C   0  0  0  0  0  0  0  0  0  0  0  0
   -2.6953   62.2318   84.7144 C   0  0  0  0  0  0  0  0  0  0  0  0
   -2.0029   62.6824   83.6006 C   0  0  0  0  0  0  0  0  0  0  0  0
   -2.6147   62.3636   82.0252 Cl  0  0  0  0  0  0  0  0  0  0  0  0
   -0.8129   63.3917   83.7521 C   0  0  0  0  0  0  0  0  0  0  0  0
   -0.2797   63.6768   85.0337 C   0  0  0  0  0  0  0  0  0  0  0  0
    2.5602   65.9828   84.3607 C   0  0  0  0  0  0  0  0  0  0  0  0
    1.5752   69.5148   82.0369 C   0  0  0  0  0  0  0  0  0  0  0  0
    2.4532   69.5975   83.1218 C   0  0  0  0  0  0  0  0  0  0  0  0
    2.7686   68.4566   83.8697 C   0  0  0  0  0  0  0  0  0  0  0  0
    2.2165   67.2093   83.5479 C   0  0  0  0  0  0  0  0  0  0  0  0
    1.3324   67.1268   82.4654 C   0  0  0  0  0  0  0  0  0  0  0  0
    1.0171   68.2665   81.7176 C   0  0  0  0  0  0  0  0  0  0  0  0
   -0.0791   68.0834   80.3909 Cl  0  0  0  0  0  0  0  0  0  0  0  0
    0.2359   71.4732   81.7561 C   0  0  0  0  0  0  0  0  0  0  0  0
    1.2133   70.5758   81.2480 O   0  0  0  0  0  0  0  0  0  0  0  0
 23 24  1  0  0  0
 24 16  1  0  0  0
 16 17  1  0  0  0
 17 18  2  0  0  0
 18 19  1  0  0  0
 19 15  1  0  0  0
 15  1  1  0  0  0
  1  3  1  0  0  0
  3  4  1  0  0  0
  4  5  2  0  0  0
  5  6  1  0  0  0
  6  7  1  0  0  0
  6  8  2  0  0  0
  8  9  1  0  0  0
  9 10  2  0  0  0
 10 11  1  0  0  0
 11 12  1  0  0  0
 11 13  2  0  0  0
 13 14  1  0  0  0
 19 20  2  0  0  0
 20 21  1  0  0  0
 21 22  1  0  0  0
 21 16  2  0  0  0
 14  3  2  0  0  0
 14  8  1  0  0  0
  1  2  1  0  0  0
M  END
> <minimizedAffinity>
-8.75273

$$$$



 24 26  0  0  0  0  0  0  0  0999 V2000
    1.6705   66.2735   82.6281 N   0  0  0  0  0  0  0  0  0  0  0  0
    2.4709   65.7162   82.9140 H   0  0  0  0  0  0  0  0  0  0  0  0
    0.5798   65.3953   82.4282 C   0  0  0  0  0  0  0  0  0  0  0  0
   -0.0262   65.3292   81.2220 N   0  0  0  0  0  0  0  0  0  0  0  0
   -1.0600   64.4686   80.9958 N   0  0  0  0  0  0  0  0  0  0  0  0
   -1.4887   63.6777   81.9958 C   0  0  0  0  0  0  0  0  0  0  0  0
   -2.7938   62.6554   81.5303 Cl  0  0  0  0  0  0  0  0  0  0  0  0
   -0.9278   63.6827   83.2776 C   0  0  0  0  0  0  0  0  0  0  0  0
   -1.3681   62.8571   84.3445 C   0  0  0  0  0  0  0  0  0  0  0  0
   -0.7722   62.9192   85.6047 C   0  0  0  0  0  0  0  0  0  0  0  0
    0.2686   63.8089   85.8242 C   0  0  0  0  0  0  0  0  0  0  0  0
    1.0034   63.9010   87.3763 Cl  0  0  0  0  0  0  0  0  0  0  0  0
    0.7212   64.6296   84.7927 C   0  0  0  0  0  0  0  0  0  0  0  0
    0.1433   64.5796   83.4999 C   0  0  0  0  0  0  0  0  0  0  0  0
    2.0082   67.1379   81.5001 C   0  0  0  0  0  0  0  0  0  0  0  0
    1.6935   71.3218   82.6142 C   0  0  0  0  0  0  0  0  0  0  0  0
    2.8585   70.5977   82.8853 C   0  0  0  0  0  0  0  0  0  0  0  0
    2.9568   69.2483   82.5251 C   0  0  0  0  0  0  0  0  0  0  0  0
    1.8955   68.5949   81.8842 C   0  0  0  0  0  0  0  0  0  0  0  0
    0.7262   69.3176   81.6178 C   0  0  0  0  0  0  0  0  0  0  0  0
    0.6277   70.6661   81.9772 C   0  0  0  0  0  0  0  0  0  0  0  0
   -0.8474   71.4935   81.6096 Cl  0  0  0  0  0  0  0  0  0  0  0  0
    2.6625   73.4133   83.2422 C   0  0  0  0  0  0  0  0  0  0  0  0
    1.5106   72.6440   82.9263 O   0  0  0  0  0  0  0  0  0  0  0  0
 23 24  1  0  0  0
 24 16  1  0  0  0
 16 17  1  0  0  0
 17 18  2  0  0  0
 18 19  1  0  0  0
 19 15  1  0  0  0
 15  1  1  0  0  0
  1  3  1  0  0  0
  3  4  1  0  0  0
  4  5  2  0  0  0
  5  6  1  0  0  0
  6  7  1  0  0  0
  6  8  2  0  0  0
  8  9  1  0  0  0
  9 10  2  0  0  0
 10 11  1  0  0  0
 11 12  1  0  0  0
 11 13  2  0  0  0
 13 14  1  0  0  0
 19 20  2  0  0  0
 20 21  1  0  0  0
 21 22  1  0  0  0
 21 16  2  0  0  0
 14  3  2  0  0  0
 14  8  1  0  0  0
  1  2  1  0  0  0
M  END
> <minimizedAffinity>
-8.70380

$$$$



 24 26  0  0  0  0  0  0  0  0999 V2000
   -0.1818   65.3980   80.2556 N   0  0  0  0  0  0  0  0  0  0  0  0
   -0.8256   66.0690   79.8453 H   0  0  0  0  0  0  0  0  0  0  0  0
    0.5348   66.0566   81.2820 C   0  0  0  0  0  0  0  0  0  0  0  0
    1.1981   67.2042   81.0180 N   0  0  0  0  0  0  0  0  0  0  0  0
    1.8710   67.8739   81.9975 N   0  0  0  0  0  0  0  0  0  0  0  0
    1.8807   67.3766   83.2472 C   0  0  0  0  0  0  0  0  0  0  0  0
    2.7719   68.3528   84.3508 Cl  0  0  0  0  0  0  0  0  0  0  0  0
    1.2295   66.1929   83.6115 C   0  0  0  0  0  0  0  0  0  0  0  0
    1.2306   65.6529   84.9237 C   0  0  0  0  0  0  0  0  0  0  0  0
    0.5697   64.4600   85.2189 C   0  0  0  0  0  0  0  0  0  0  0  0
   -0.0985   63.7825   84.2101 C   0  0  0  0  0  0  0  0  0  0  0  0
   -0.9077   62.3060   84.5606 Cl  0  0  0  0  0  0  0  0  0  0  0  0
   -0.1164   64.2924   82.9132 C   0  0  0  0  0  0  0  0  0  0  0  0
    0.5354   65.5075   82.5870 C   0  0  0  0  0  0  0  0  0  0  0  0
    0.6281   64.7503   79.2270 C   0  0  0  0  0  0  0  0  0  0  0  0
   -0.8820   60.7817   78.3244 C   0  0  0  0  0  0  0  0  0  0  0  0
   -0.1404   61.4945   77.3774 C   0  0  0  0  0  0  0  0  0  0  0  0
    0.3450   62.7744   77.6713 C   0  0  0  0  0  0  0  0  0  0  0  0
    0.1027   63.3678   78.9176 C   0  0  0  0  0  0  0  0  0  0  0  0
   -0.6451   62.6572   79.8643 C   0  0  0  0  0  0  0  0  0  0  0  0
   -1.1301   61.3780   79.5711 C   0  0  0  0  0  0  0  0  0  0  0  0
   -2.0414   60.5605   80.7945 Cl  0  0  0  0  0  0  0  0  0  0  0  0
   -1.2917   58.9703   76.8214 C   0  0  0  0  0  0  0  0  0  0  0  0
   -1.3919   59.5249   78.1257 O   0  0  0  0  0  0  0  0  0  0  0  0
 23 24  1  0  0  0
 24 16  1  0  0  0
 16 17  1  0  0  0
 17 18  2  0  0  0
 18 19  1  0  0  0
 19 15  1  0  0  0
 15  1  1  0  0  0
  1  3  1  0  0  0
  3  4  1  0  0  0
  4  5  2  0  0  0
  5  6  1  0  0  0
  6  7  1  0  0  0
  6  8  2  0  0  0
  8  9  1  0  0  0
  9 10  2  0  0  0
 10 11  1  0  0  0
 11 12  1  0  0  0
 11 13  2  0  0  0
 13 14  1  0  0  0
 19 20  2  0  0  0
 20 21  1  0  0  0
 21 22  1  0  0  0
 21 16  2  0  0  0
 14  3  2  0  0  0
 14  8  1  0  0  0
  1  2  1  0  0  0
M  END
> <minimizedAffinity>
-8.63507

$$$$
