
     RDKit          3D

 70 73  0  0  0  0  0  0  0  0999 V2000
   -1.8297    0.2973    4.5091 C   0  0  0  0  0  0  0  0  0  0  0  0
   -0.9754   -0.0287    3.2981 C   0  0  0  0  0  0  0  0  0  0  0  0
   -0.7396    1.1902    2.5743 O   0  0  0  0  0  0  0  0  0  0  0  0
    0.5148    1.1916    2.0132 C   0  0  0  0  0  0  0  0  0  0  0  0
    1.6090    1.4669    2.8434 C   0  0  0  0  0  0  0  0  0  0  0  0
    2.8983    1.4797    2.3153 C   0  0  0  0  0  0  0  0  0  0  0  0
    3.0839    1.2289    0.9540 C   0  0  0  0  0  0  0  0  0  0  0  0
    4.7257    1.2827    0.2761 S   0  0  0  0  0  0  0  0  0  0  0  0
    5.5047    2.1734    1.1118 O   0  0  0  0  0  0  0  0  0  0  0  0
    4.6314    1.5018   -1.1505 O   0  0  0  0  0  0  0  0  0  0  0  0
    5.2940   -0.3053    0.5341 N   0  0  0  0  0  0  0  0  0  0  0  0
    4.5008   -1.3868   -0.1449 C   0  0  0  0  0  0  0  0  0  0  0  0
    5.3132   -2.6915   -0.2419 C   0  0  0  0  0  0  0  0  0  0  0  0
    6.5183   -2.5568   -1.0844 N   0  0  0  0  0  0  0  0  0  0  0  0
    7.4984   -3.5875   -0.7549 C   0  0  0  0  0  0  0  0  0  0  0  0
    7.0901   -1.1975   -0.9992 C   0  0  0  0  0  0  0  0  0  0  0  0
    6.7732   -0.4544    0.3108 C   0  0  0  0  0  0  0  0  0  0  0  0
    1.9895    0.9979    0.1134 C   0  0  0  0  0  0  0  0  0  0  0  0
    0.6856    0.9803    0.6337 C   0  0  0  0  0  0  0  0  0  0  0  0
   -0.4291    0.7408   -0.2861 C   0  0  0  0  0  0  0  0  0  0  0  0
   -0.3529    0.1293   -1.4578 N   0  0  0  0  0  0  0  0  0  0  0  0
   -1.6230    0.1663   -1.9811 C   0  0  0  0  0  0  0  0  0  0  0  0
   -2.0997   -0.3473   -3.2442 C   0  0  0  0  0  0  0  0  0  0  0  0
   -1.3702   -0.9191   -4.0503 O   0  0  0  0  0  0  0  0  0  0  0  0
   -3.4705   -0.1156   -3.4487 N   0  0  0  0  0  0  0  0  0  0  0  0
   -4.0332   -0.5691   -4.7054 C   0  0  0  0  0  0  0  0  0  0  0  0
   -4.3353    0.6053   -2.5996 C   0  0  0  0  0  0  0  0  0  0  0  0
   -5.4970    0.8546   -2.9343 O   0  0  0  0  0  0  0  0  0  0  0  0
   -3.8216    1.0323   -1.3575 N   0  0  0  0  0  0  0  0  0  0  0  0
   -4.7004    1.7607   -0.4376 C   0  0  0  0  0  0  0  0  0  0  0  0
   -5.4842    0.8865    0.5841 C   0  0  0  0  0  0  0  0  0  0  0  0
   -4.5360    0.1190    1.5181 C   0  0  0  0  0  0  0  0  0  0  0  0
   -6.3484    1.8303    1.4452 C   0  0  0  0  0  0  0  0  0  0  0  0
   -6.4160   -0.1184   -0.1116 C   0  0  0  0  0  0  0  0  0  0  0  0
   -2.4796    0.8039   -1.1290 C   0  0  0  0  0  0  0  0  0  0  0  0
   -1.7226    1.1667   -0.0557 N   0  0  0  0  0  0  0  0  0  0  0  0
   -2.0754   -0.6098    5.0682 H   0  0  0  0  0  0  0  0  0  0  0  0
   -1.3022    0.9893    5.1739 H   0  0  0  0  0  0  0  0  0  0  0  0
   -2.7594    0.7913    4.2103 H   0  0  0  0  0  0  0  0  0  0  0  0
   -1.5124   -0.7188    2.6379 H   0  0  0  0  0  0  0  0  0  0  0  0
   -0.0510   -0.5188    3.6288 H   0  0  0  0  0  0  0  0  0  0  0  0
    1.4570    1.6715    3.9002 H   0  0  0  0  0  0  0  0  0  0  0  0
    3.7482    1.6897    2.9617 H   0  0  0  0  0  0  0  0  0  0  0  0
    4.1916   -1.0742   -1.1486 H   0  0  0  0  0  0  0  0  0  0  0  0
    3.6020   -1.5805    0.4501 H   0  0  0  0  0  0  0  0  0  0  0  0
    5.5850   -2.9995    0.7772 H   0  0  0  0  0  0  0  0  0  0  0  0
    4.6784   -3.4807   -0.6608 H   0  0  0  0  0  0  0  0  0  0  0  0
    7.0550   -4.5849   -0.8505 H   0  0  0  0  0  0  0  0  0  0  0  0
    8.3425   -3.5516   -1.4524 H   0  0  0  0  0  0  0  0  0  0  0  0
    7.8877   -3.4778    0.2636 H   0  0  0  0  0  0  0  0  0  0  0  0
    6.6767   -0.6181   -1.8349 H   0  0  0  0  0  0  0  0  0  0  0  0
    8.1750   -1.2145   -1.1607 H   0  0  0  0  0  0  0  0  0  0  0  0
    7.1856   -0.9993    1.1688 H   0  0  0  0  0  0  0  0  0  0  0  0
    7.2731    0.5199    0.2994 H   0  0  0  0  0  0  0  0  0  0  0  0
    2.1449    0.8370   -0.9540 H   0  0  0  0  0  0  0  0  0  0  0  0
   -5.0387   -0.9715   -4.5459 H   0  0  0  0  0  0  0  0  0  0  0  0
   -3.4205   -1.3428   -5.1758 H   0  0  0  0  0  0  0  0  0  0  0  0
   -4.1035    0.2895   -5.3810 H   0  0  0  0  0  0  0  0  0  0  0  0
   -4.0940    2.5048    0.0949 H   0  0  0  0  0  0  0  0  0  0  0  0
   -5.4159    2.3405   -1.0352 H   0  0  0  0  0  0  0  0  0  0  0  0
   -5.0945   -0.4197    2.2924 H   0  0  0  0  0  0  0  0  0  0  0  0
   -3.9429   -0.6232    0.9744 H   0  0  0  0  0  0  0  0  0  0  0  0
   -3.8495    0.8032    2.0260 H   0  0  0  0  0  0  0  0  0  0  0  0
   -5.7270    2.5567    1.9813 H   0  0  0  0  0  0  0  0  0  0  0  0
   -6.9253    1.2725    2.1917 H   0  0  0  0  0  0  0  0  0  0  0  0
   -7.0592    2.3901    0.8270 H   0  0  0  0  0  0  0  0  0  0  0  0
   -7.1098    0.3887   -0.7908 H   0  0  0  0  0  0  0  0  0  0  0  0
   -5.8531   -0.8608   -0.6866 H   0  0  0  0  0  0  0  0  0  0  0  0
   -7.0186   -0.6684    0.6207 H   0  0  0  0  0  0  0  0  0  0  0  0
   -2.0164    1.6621    0.7745 H   0  0  0  0  0  0  0  0  0  0  0  0
  1  2  1  0
  2  3  1  0
  3  4  1  0
  4  5  1  0
  5  6  2  0
  6  7  1  0
  7  8  1  0
  8  9  2  0
  8 10  2  0
  8 11  1  0
 11 12  1  0
 12 13  1  0
 13 14  1  0
 14 15  1  0
 14 16  1  0
 16 17  1  0
  7 18  2  0
 18 19  1  0
 19 20  1  0
 20 21  2  0
 21 22  1  0
 22 23  1  0
 23 24  2  0
 23 25  1  0
 25 26  1  0
 25 27  1  0
 27 28  2  0
 27 29  1  0
 29 30  1  0
 30 31  1  0
 31 32  1  0
 31 33  1  0
 31 34  1  0
 29 35  1  0
 35 36  1  0
 19  4  2  0
 36 20  1  0
 17 11  1  0
 35 22  2  0
  1 37  1  0
  1 38  1  0
  1 39  1  0
  2 40  1  0
  2 41  1  0
  5 42  1  0
  6 43  1  0
 12 44  1  0
 12 45  1  0
 13 46  1  0
 13 47  1  0
 15 48  1  0
 15 49  1  0
 15 50  1  0
 16 51  1  0
 16 52  1  0
 17 53  1  0
 17 54  1  0
 18 55  1  0
 26 56  1  0
 26 57  1  0
 26 58  1  0
 30 59  1  0
 30 60  1  0
 32 61  1  0
 32 62  1  0
 32 63  1  0
 33 64  1  0
 33 65  1  0
 33 66  1  0
 34 67  1  0
 34 68  1  0
 34 69  1  0
 36 70  1  0
M  END
$$$$
