
     RDKit          3D

 36 39  0  0  0  0  0  0  0  0999 V2000
    2.1822   66.7776   83.4142 C   0  0  0  0  0  0  0  0  0  0  0  0
    1.9246   67.7588   82.4408 C   0  0  0  0  0  0  0  0  0  0  0  0
    2.8103   68.8190   82.2482 C   0  0  0  0  0  0  0  0  0  0  0  0
    3.9360   68.9491   83.0606 C   0  0  0  0  0  0  0  0  0  0  0  0
    4.1942   67.9936   84.0473 C   0  0  0  0  0  0  0  0  0  0  0  0
    3.3326   66.9019   84.2292 C   0  0  0  0  0  0  0  0  0  0  0  0
   -0.8432   63.3668   85.2881 N   0  0  0  0  0  0  0  0  0  0  0  0
   -1.6154   62.3329   84.7260 C   0  0  0  0  0  0  0  0  0  0  0  0
   -2.2882   61.5748   85.4298 O   0  0  0  0  0  0  0  0  0  0  0  0
   -1.5880   62.1927   83.3209 N   0  0  0  0  0  0  0  0  0  0  0  0
   -2.3945   61.1192   82.7747 C   0  0  0  0  0  0  0  0  0  0  0  0
   -0.8278   62.9550   82.4161 C   0  0  0  0  0  0  0  0  0  0  0  0
   -0.7941   62.7578   81.2042 O   0  0  0  0  0  0  0  0  0  0  0  0
   -0.0667   64.0004   83.0606 C   0  0  0  0  0  0  0  0  0  0  0  0
    0.7682   64.9387   82.5011 N   0  0  0  0  0  0  0  0  0  0  0  0
    1.2358   65.6564   83.5132 C   0  0  0  0  0  0  0  0  0  0  0  0
    0.7041   65.1954   84.7012 N   0  0  0  0  0  0  0  0  0  0  0  0
   -0.1128   64.1457   84.4168 C   0  0  0  0  0  0  0  0  0  0  0  0
    0.9297   65.5839   85.6061 H   0  0  0  0  0  0  0  0  0  0  0  0
   -0.8356   63.5510   86.7424 C   0  0  0  0  0  0  0  0  0  0  0  0
    0.5758   63.6276   87.3458 C   0  0  0  0  0  0  0  0  0  0  0  0
    0.2277   62.0024   89.2295 C   0  0  0  0  0  0  0  0  0  0  0  0
    0.6445   63.1940   88.7831 C   0  0  0  0  0  0  0  0  0  0  0  0
    2.4605   70.0525   81.0100 S   0  0  0  0  0  0  0  0  0  0  0  0
    1.8571   69.3642   79.8872 O   0  0  0  0  0  0  0  0  0  0  0  0
    3.6567   70.8484   80.8421 O   0  0  0  0  0  0  0  0  0  0  0  0
    1.2706   71.0106   81.7293 N   0  0  0  0  0  0  0  0  0  0  0  0
    0.0576   71.3275   80.9248 C   0  0  0  0  0  0  0  0  0  0  0  0
   -0.8353   72.3509   81.6519 C   0  0  0  0  0  0  0  0  0  0  0  0
   -0.1724   73.6377   81.9551 N   0  0  0  0  0  0  0  0  0  0  0  0
   -0.4680   74.6502   80.9432 C   0  0  0  0  0  0  0  0  0  0  0  0
    1.2871   73.4770   82.1196 C   0  0  0  0  0  0  0  0  0  0  0  0
    1.6984   72.0935   82.6570 C   0  0  0  0  0  0  0  0  0  0  0  0
    3.5322   65.9245   85.1757 O   0  0  0  0  0  0  0  0  0  0  0  0
    4.8763   65.5369   85.4643 C   0  0  0  0  0  0  0  0  0  0  0  0
    4.9124   65.0315   86.8958 C   0  0  0  0  0  0  0  0  0  0  0  0
 22 23  2  0
 23 21  1  0
 21 20  1  0
 20  7  1  0
  7  8  1  0
  8  9  2  0
  8 10  1  0
 10 11  1  0
 10 12  1  0
 12 13  2  0
 12 14  1  0
 14 15  1  0
 15 16  2  0
 16  1  1  0
  1  2  1  0
  2  3  2  0
  3 24  1  0
 24 25  2  0
 24 26  2  0
 24 27  1  0
 27 28  1  0
 28 29  1  0
 29 30  1  0
 30 31  1  0
 30 32  1  0
 32 33  1  0
  3  4  1  0
  4  5  2  0
  5  6  1  0
  6 34  1  0
 34 35  1  0
 35 36  1  0
 16 17  1  0
 17 18  1  0
 18  7  1  0
 18 14  2  0
  6  1  2  0
 33 27  1  0
 17 19  1  0
M  END
>  <minimizedAffinity>  (1) 
-9.46019

$$$$
