


 33 36  0  0  0  0  0  0  0  0999 V2000
    0.6809   66.1187   81.3217 C   0  0  0  0  0  0  0  0  0  0  0  0
    1.3793   67.2394   81.0969 N   0  0  0  0  0  0  0  0  0  0  0  0
    2.0433   67.8790   82.0406 N   0  0  0  0  0  0  0  0  0  0  0  0
    2.0711   67.4528   83.3121 C   0  0  0  0  0  0  0  0  0  0  0  0
    1.3718   66.3052   83.6080 C   0  0  0  0  0  0  0  0  0  0  0  0
    1.3693   65.8340   84.8864 C   0  0  0  0  0  0  0  0  0  0  0  0
    0.6792   64.6814   85.2409 C   0  0  0  0  0  0  0  0  0  0  0  0
   -0.0161   64.0115   84.2534 C   0  0  0  0  0  0  0  0  0  0  0  0
   -0.0096   64.4940   82.9599 C   0  0  0  0  0  0  0  0  0  0  0  0
    0.6747   65.6357   82.6110 C   0  0  0  0  0  0  0  0  0  0  0  0
   -0.0035   65.4767   80.2667 N   0  0  0  0  0  0  0  0  0  0  0  0
   -1.0671   65.4129   80.2580 H   0  0  0  0  0  0  0  0  0  0  0  0
    0.6336   64.8585   79.1235 C   0  0  0  0  0  0  0  0  0  0  0  0
   -0.8465   60.9240   78.4884 C   0  0  0  0  0  0  0  0  0  0  0  0
   -0.2286   61.5831   77.4448 C   0  0  0  0  0  0  0  0  0  0  0  0
    0.2821   62.8763   77.5977 C   0  0  0  0  0  0  0  0  0  0  0  0
    0.1583   63.4930   78.8202 C   0  0  0  0  0  0  0  0  0  0  0  0
   -0.4704   62.8144   79.8716 C   0  0  0  0  0  0  0  0  0  0  0  0
   -0.9715   61.5520   79.7313 C   0  0  0  0  0  0  0  0  0  0  0  0
   -1.7532   60.7320   81.0667 Cl  0  0  0  0  0  0  0  0  0  0  0  0
   -1.2243   58.9422   77.1785 C   0  0  0  0  0  0  0  0  0  0  0  0
   -1.3667   59.6459   78.3873 O   0  0  0  0  0  0  0  0  0  0  0  0
    2.8088   68.2065   84.2507 N   0  0  0  0  0  0  0  0  0  0  0  0
    2.3786   68.7410   85.0503 H   0  0  0  0  0  0  0  0  0  0  0  0
    4.2706   68.3083   84.1861 C   0  0  0  0  0  0  0  0  0  0  0  0
    4.8491   67.3360   85.1423 C   0  0  0  0  0  0  0  0  0  0  0  0
    5.1149   66.0293   84.7189 C   0  0  0  0  0  0  0  0  0  0  0  0
    5.6479   65.0840   85.5806 C   0  0  0  0  0  0  0  0  0  0  0  0
    5.9174   65.4609   86.8895 C   0  0  0  0  0  0  0  0  0  0  0  0
    5.6542   66.7515   87.3058 C   0  0  0  0  0  0  0  0  0  0  0  0
    5.1386   67.6164   86.4223 N   0  0  0  0  0  0  0  0  0  0  0  0
   -0.7492   62.8052   84.5828 C   0  0  0  0  0  0  0  0  0  0  0  0
   -1.3273   61.8420   84.8288 N   0  0  0  0  0  0  0  0  0  0  0  0
 21 22  1  0  0  0
 22 14  1  0  0  0
 14 15  1  0  0  0
 15 16  2  0  0  0
 16 17  1  0  0  0
 17 13  1  0  0  0
 13 11  1  0  0  0
 11  1  1  0  0  0
  1  2  1  0  0  0
  2  3  2  0  0  0
  3  4  1  0  0  0
  4 23  1  0  0  0
 23 25  1  0  0  0
 25 26  1  0  0  0
 26 27  2  0  0  0
 27 28  1  0  0  0
 28 29  2  0  0  0
 29 30  1  0  0  0
 30 31  2  0  0  0
  4  5  2  0  0  0
  5  6  1  0  0  0
  6  7  2  0  0  0
  7  8  1  0  0  0
  8 32  1  0  0  0
 32 33  3  0  0  0
  8  9  2  0  0  0
  9 10  1  0  0  0
 17 18  2  0  0  0
 18 19  1  0  0  0
 19 20  1  0  0  0
 19 14  2  0  0  0
 10  1  2  0  0  0
 31 26  1  0  0  0
 10  5  1  0  0  0
 11 12  1  0  0  0
 23 24  1  0  0  0
M  END
> <minimizedAffinity>
-10.17454

$$$$



 33 36  0  0  0  0  0  0  0  0999 V2000
    0.5345   65.3016   84.0608 C   0  0  0  0  0  0  0  0  0  0  0  0
    0.2427   65.2340   82.7553 N   0  0  0  0  0  0  0  0  0  0  0  0
   -0.4208   64.2304   82.2139 N   0  0  0  0  0  0  0  0  0  0  0  0
   -0.8595   63.1885   82.9359 C   0  0  0  0  0  0  0  0  0  0  0  0
   -0.5908   63.1987   84.2854 C   0  0  0  0  0  0  0  0  0  0  0  0
   -1.0151   62.1612   85.0601 C   0  0  0  0  0  0  0  0  0  0  0  0
   -0.7699   62.1196   86.4269 C   0  0  0  0  0  0  0  0  0  0  0  0
   -0.0753   63.1698   86.9942 C   0  0  0  0  0  0  0  0  0  0  0  0
    0.3519   64.2182   86.2039 C   0  0  0  0  0  0  0  0  0  0  0  0
    0.1079   64.2575   84.8502 C   0  0  0  0  0  0  0  0  0  0  0  0
    1.2423   66.4072   84.5808 N   0  0  0  0  0  0  0  0  0  0  0  0
    1.1423   66.6948   85.6020 H   0  0  0  0  0  0  0  0  0  0  0  0
    2.1476   67.2413   83.8194 C   0  0  0  0  0  0  0  0  0  0  0  0
    6.1429   66.8485   85.2185 C   0  0  0  0  0  0  0  0  0  0  0  0
    5.8363   67.8757   84.3489 C   0  0  0  0  0  0  0  0  0  0  0  0
    4.5380   68.0566   83.8607 C   0  0  0  0  0  0  0  0  0  0  0  0
    3.5553   67.1837   84.2639 C   0  0  0  0  0  0  0  0  0  0  0  0
    3.8782   66.1455   85.1465 C   0  0  0  0  0  0  0  0  0  0  0  0
    5.1426   65.9617   85.6281 C   0  0  0  0  0  0  0  0  0  0  0  0
    5.5128   64.6521   86.7301 Cl  0  0  0  0  0  0  0  0  0  0  0  0
    8.3735   65.9984   84.9217 C   0  0  0  0  0  0  0  0  0  0  0  0
    7.4100   66.6285   85.7288 O   0  0  0  0  0  0  0  0  0  0  0  0
   -1.5594   62.1618   82.2656 N   0  0  0  0  0  0  0  0  0  0  0  0
   -2.5865   61.9645   82.3930 H   0  0  0  0  0  0  0  0  0  0  0  0
   -0.8954   61.2645   81.3140 C   0  0  0  0  0  0  0  0  0  0  0  0
   -1.6883   61.2414   80.0630 C   0  0  0  0  0  0  0  0  0  0  0  0
   -2.9750   61.7906   80.0534 C   0  0  0  0  0  0  0  0  0  0  0  0
   -3.7559   61.7840   78.9087 C   0  0  0  0  0  0  0  0  0  0  0  0
   -3.2324   61.2150   77.7554 C   0  0  0  0  0  0  0  0  0  0  0  0
   -1.9619   60.6731   77.7667 C   0  0  0  0  0  0  0  0  0  0  0  0
   -1.2596   60.7119   78.9067 N   0  0  0  0  0  0  0  0  0  0  0  0
    0.2011   63.1636   88.4171 C   0  0  0  0  0  0  0  0  0  0  0  0
    0.4146   63.1429   89.5469 N   0  0  0  0  0  0  0  0  0  0  0  0
 21 22  1  0  0  0
 22 14  1  0  0  0
 14 15  1  0  0  0
 15 16  2  0  0  0
 16 17  1  0  0  0
 17 13  1  0  0  0
 13 11  1  0  0  0
 11  1  1  0  0  0
  1  2  1  0  0  0
  2  3  2  0  0  0
  3  4  1  0  0  0
  4 23  1  0  0  0
 23 25  1  0  0  0
 25 26  1  0  0  0
 26 27  2  0  0  0
 27 28  1  0  0  0
 28 29  2  0  0  0
 29 30  1  0  0  0
 30 31  2  0  0  0
  4  5  2  0  0  0
  5  6  1  0  0  0
  6  7  2  0  0  0
  7  8  1  0  0  0
  8 32  1  0  0  0
 32 33  3  0  0  0
  8  9  2  0  0  0
  9 10  1  0  0  0
 17 18  2  0  0  0
 18 19  1  0  0  0
 19 20  1  0  0  0
 19 14  2  0  0  0
 10  1  2  0  0  0
 31 26  1  0  0  0
 10  5  1  0  0  0
 11 12  1  0  0  0
 23 24  1  0  0  0
M  END
> <minimizedAffinity>
-9.83573

$$$$



 33 36  0  0  0  0  0  0  0  0999 V2000
    0.5941   65.1765   83.7908 C   0  0  0  0  0  0  0  0  0  0  0  0
    0.2591   65.0589   82.4993 N   0  0  0  0  0  0  0  0  0  0  0  0
   -0.5012   64.0855   82.0354 N   0  0  0  0  0  0  0  0  0  0  0  0
   -1.0031   63.1277   82.8291 C   0  0  0  0  0  0  0  0  0  0  0  0
   -0.6946   63.1927   84.1685 C   0  0  0  0  0  0  0  0  0  0  0  0
   -1.1803   62.2410   85.0141 C   0  0  0  0  0  0  0  0  0  0  0  0
   -0.8990   62.2575   86.3745 C   0  0  0  0  0  0  0  0  0  0  0  0
   -0.1031   63.2761   86.8606 C   0  0  0  0  0  0  0  0  0  0  0  0
    0.3860   64.2375   85.9987 C   0  0  0  0  0  0  0  0  0  0  0  0
    0.1060   64.2193   84.6516 C   0  0  0  0  0  0  0  0  0  0  0  0
    1.4063   66.2464   84.2261 N   0  0  0  0  0  0  0  0  0  0  0  0
    1.2369   66.7201   85.1655 H   0  0  0  0  0  0  0  0  0  0  0  0
    2.5160   66.7988   83.4789 C   0  0  0  0  0  0  0  0  0  0  0  0
    1.6680   70.6417   81.8706 C   0  0  0  0  0  0  0  0  0  0  0  0
    2.6325   70.5246   82.8510 C   0  0  0  0  0  0  0  0  0  0  0  0
    2.9568   69.2851   83.4123 C   0  0  0  0  0  0  0  0  0  0  0  0
    2.2915   68.1668   82.9684 C   0  0  0  0  0  0  0  0  0  0  0  0
    1.3151   68.2980   81.9732 C   0  0  0  0  0  0  0  0  0  0  0  0
    0.9923   69.5037   81.4196 C   0  0  0  0  0  0  0  0  0  0  0  0
   -0.2350   69.6328   80.1772 Cl  0  0  0  0  0  0  0  0  0  0  0  0
    0.5345   72.7584   82.0163 C   0  0  0  0  0  0  0  0  0  0  0  0
    1.3122   71.8436   81.2847 O   0  0  0  0  0  0  0  0  0  0  0  0
   -1.8053   62.1270   82.2389 N   0  0  0  0  0  0  0  0  0  0  0  0
   -2.8522   62.0692   82.3432 H   0  0  0  0  0  0  0  0  0  0  0  0
   -1.2307   61.0602   81.4123 C   0  0  0  0  0  0  0  0  0  0  0  0
   -1.8974   61.0840   80.0897 C   0  0  0  0  0  0  0  0  0  0  0  0
   -3.0725   61.8251   79.9246 C   0  0  0  0  0  0  0  0  0  0  0  0
   -3.7348   61.8697   78.7081 C   0  0  0  0  0  0  0  0  0  0  0  0
   -3.2049   61.1566   77.6412 C   0  0  0  0  0  0  0  0  0  0  0  0
   -2.0446   60.4253   77.8060 C   0  0  0  0  0  0  0  0  0  0  0  0
   -1.4541   60.4243   79.0084 N   0  0  0  0  0  0  0  0  0  0  0  0
    0.2140   63.3284   88.2740 C   0  0  0  0  0  0  0  0  0  0  0  0
    0.4806   63.3629   89.3921 N   0  0  0  0  0  0  0  0  0  0  0  0
 21 22  1  0  0  0
 22 14  1  0  0  0
 14 15  1  0  0  0
 15 16  2  0  0  0
 16 17  1  0  0  0
 17 13  1  0  0  0
 13 11  1  0  0  0
 11  1  1  0  0  0
  1  2  1  0  0  0
  2  3  2  0  0  0
  3  4  1  0  0  0
  4 23  1  0  0  0
 23 25  1  0  0  0
 25 26  1  0  0  0
 26 27  2  0  0  0
 27 28  1  0  0  0
 28 29  2  0  0  0
 29 30  1  0  0  0
 30 31  2  0  0  0
  4  5  2  0  0  0
  5  6  1  0  0  0
  6  7  2  0  0  0
  7  8  1  0  0  0
  8 32  1  0  0  0
 32 33  3  0  0  0
  8  9  2  0  0  0
  9 10  1  0  0  0
 17 18  2  0  0  0
 18 19  1  0  0  0
 19 20  1  0  0  0
 19 14  2  0  0  0
 10  1  2  0  0  0
 31 26  1  0  0  0
 10  5  1  0  0  0
 11 12  1  0  0  0
 23 24  1  0  0  0
M  END
> <minimizedAffinity>
-9.52668

$$$$



 33 36  0  0  0  0  0  0  0  0999 V2000
    0.0924   65.7511   80.8412 C   0  0  0  0  0  0  0  0  0  0  0  0
   -0.6536   64.7200   80.4234 N   0  0  0  0  0  0  0  0  0  0  0  0
   -0.8952   63.6555   81.1644 N   0  0  0  0  0  0  0  0  0  0  0  0
   -0.4076   63.5211   82.4067 C   0  0  0  0  0  0  0  0  0  0  0  0
    0.3679   64.5479   82.8943 C   0  0  0  0  0  0  0  0  0  0  0  0
    0.8868   64.4561   84.1509 C   0  0  0  0  0  0  0  0  0  0  0  0
    1.6773   65.4622   84.6921 C   0  0  0  0  0  0  0  0  0  0  0  0
    1.9307   66.5767   83.9169 C   0  0  0  0  0  0  0  0  0  0  0  0
    1.4020   66.6638   82.6445 C   0  0  0  0  0  0  0  0  0  0  0  0
    0.6191   65.6661   82.1103 C   0  0  0  0  0  0  0  0  0  0  0  0
    0.3084   66.8660   80.0021 N   0  0  0  0  0  0  0  0  0  0  0  0
    1.0911   66.8681   79.2790 H   0  0  0  0  0  0  0  0  0  0  0  0
   -0.4757   68.0823   80.0256 C   0  0  0  0  0  0  0  0  0  0  0  0
    1.8225   71.4313   81.2813 C   0  0  0  0  0  0  0  0  0  0  0  0
    0.4991   71.3464   81.6643 C   0  0  0  0  0  0  0  0  0  0  0  0
   -0.3031   70.2651   81.2852 C   0  0  0  0  0  0  0  0  0  0  0  0
    0.2520   69.2720   80.5133 C   0  0  0  0  0  0  0  0  0  0  0  0
    1.5957   69.3689   80.1310 C   0  0  0  0  0  0  0  0  0  0  0  0
    2.3861   70.4206   80.4966 C   0  0  0  0  0  0  0  0  0  0  0  0
    4.0630   70.5115   80.0003 Cl  0  0  0  0  0  0  0  0  0  0  0  0
    2.7883   72.8262   82.9866 C   0  0  0  0  0  0  0  0  0  0  0  0
    2.6561   72.4790   81.6306 O   0  0  0  0  0  0  0  0  0  0  0  0
   -0.7205   62.3440   83.1208 N   0  0  0  0  0  0  0  0  0  0  0  0
   -0.0544   61.5391   83.2567 H   0  0  0  0  0  0  0  0  0  0  0  0
   -2.0317   62.1424   83.7467 C   0  0  0  0  0  0  0  0  0  0  0  0
   -1.8742   62.2755   85.2136 C   0  0  0  0  0  0  0  0  0  0  0  0
   -2.8631   62.9307   85.9553 C   0  0  0  0  0  0  0  0  0  0  0  0
   -2.7542   63.0860   87.3280 C   0  0  0  0  0  0  0  0  0  0  0  0
   -1.6313   62.5730   87.9636 C   0  0  0  0  0  0  0  0  0  0  0  0
   -0.6559   61.9264   87.2297 C   0  0  0  0  0  0  0  0  0  0  0  0
   -0.8226   61.8105   85.9056 N   0  0  0  0  0  0  0  0  0  0  0  0
    2.7515   67.6482   84.4452 C   0  0  0  0  0  0  0  0  0  0  0  0
    3.4080   68.4881   84.8767 N   0  0  0  0  0  0  0  0  0  0  0  0
 21 22  1  0  0  0
 22 14  1  0  0  0
 14 15  1  0  0  0
 15 16  2  0  0  0
 16 17  1  0  0  0
 17 13  1  0  0  0
 13 11  1  0  0  0
 11  1  1  0  0  0
  1  2  1  0  0  0
  2  3  2  0  0  0
  3  4  1  0  0  0
  4 23  1  0  0  0
 23 25  1  0  0  0
 25 26  1  0  0  0
 26 27  2  0  0  0
 27 28  1  0  0  0
 28 29  2  0  0  0
 29 30  1  0  0  0
 30 31  2  0  0  0
  4  5  2  0  0  0
  5  6  1  0  0  0
  6  7  2  0  0  0
  7  8  1  0  0  0
  8 32  1  0  0  0
 32 33  3  0  0  0
  8  9  2  0  0  0
  9 10  1  0  0  0
 17 18  2  0  0  0
 18 19  1  0  0  0
 19 20  1  0  0  0
 19 14  2  0  0  0
 10  1  2  0  0  0
 31 26  1  0  0  0
 10  5  1  0  0  0
 11 12  1  0  0  0
 23 24  1  0  0  0
M  END
> <minimizedAffinity>
-9.49153

$$$$



 33 36  0  0  0  0  0  0  0  0999 V2000
    0.9806   66.1259   82.5675 C   0  0  0  0  0  0  0  0  0  0  0  0
    0.7012   66.0624   81.2591 N   0  0  0  0  0  0  0  0  0  0  0  0
    0.0069   65.0814   80.7148 N   0  0  0  0  0  0  0  0  0  0  0  0
   -0.4782   64.0602   81.4367 C   0  0  0  0  0  0  0  0  0  0  0  0
   -0.2244   64.0673   82.7891 C   0  0  0  0  0  0  0  0  0  0  0  0
   -0.6956   63.0502   83.5637 C   0  0  0  0  0  0  0  0  0  0  0  0
   -0.4674   63.0064   84.9334 C   0  0  0  0  0  0  0  0  0  0  0  0
    0.2593   64.0331   85.5037 C   0  0  0  0  0  0  0  0  0  0  0  0
    0.7340   65.0609   84.7135 C   0  0  0  0  0  0  0  0  0  0  0  0
    0.5067   65.1023   83.3569 C   0  0  0  0  0  0  0  0  0  0  0  0
    1.7231   67.2071   83.0903 N   0  0  0  0  0  0  0  0  0  0  0  0
    1.8310   67.3444   84.1415 H   0  0  0  0  0  0  0  0  0  0  0  0
    2.3956   68.2103   82.2927 C   0  0  0  0  0  0  0  0  0  0  0  0
    0.4850   71.9978   82.0132 C   0  0  0  0  0  0  0  0  0  0  0  0
   -0.1352   70.8933   81.4647 C   0  0  0  0  0  0  0  0  0  0  0  0
    0.4441   69.6219   81.5316 C   0  0  0  0  0  0  0  0  0  0  0  0
    1.6590   69.4840   82.1602 C   0  0  0  0  0  0  0  0  0  0  0  0
    2.2786   70.6116   82.7130 C   0  0  0  0  0  0  0  0  0  0  0  0
    1.7203   71.8563   82.6526 C   0  0  0  0  0  0  0  0  0  0  0  0
    2.5226   73.2461   83.3535 Cl  0  0  0  0  0  0  0  0  0  0  0  0
   -0.1050   73.9541   80.7438 C   0  0  0  0  0  0  0  0  0  0  0  0
   -0.0469   73.2745   81.9733 O   0  0  0  0  0  0  0  0  0  0  0  0
   -1.2081   63.0567   80.7633 N   0  0  0  0  0  0  0  0  0  0  0  0
   -2.2593   63.0336   80.6957 H   0  0  0  0  0  0  0  0  0  0  0  0
   -0.5443   61.9372   80.0867 C   0  0  0  0  0  0  0  0  0  0  0  0
   -1.4475   61.4300   79.0277 C   0  0  0  0  0  0  0  0  0  0  0  0
   -2.4998   62.2345   78.5772 C   0  0  0  0  0  0  0  0  0  0  0  0
   -3.3742   61.7984   77.5946 C   0  0  0  0  0  0  0  0  0  0  0  0
   -3.1857   60.5320   77.0574 C   0  0  0  0  0  0  0  0  0  0  0  0
   -2.1463   59.7391   77.5035 C   0  0  0  0  0  0  0  0  0  0  0  0
   -1.3370   60.2209   78.4561 N   0  0  0  0  0  0  0  0  0  0  0  0
    0.5194   64.0239   86.9296 C   0  0  0  0  0  0  0  0  0  0  0  0
    0.7310   64.0005   88.0597 N   0  0  0  0  0  0  0  0  0  0  0  0
 21 22  1  0  0  0
 22 14  1  0  0  0
 14 15  1  0  0  0
 15 16  2  0  0  0
 16 17  1  0  0  0
 17 13  1  0  0  0
 13 11  1  0  0  0
 11  1  1  0  0  0
  1  2  1  0  0  0
  2  3  2  0  0  0
  3  4  1  0  0  0
  4 23  1  0  0  0
 23 25  1  0  0  0
 25 26  1  0  0  0
 26 27  2  0  0  0
 27 28  1  0  0  0
 28 29  2  0  0  0
 29 30  1  0  0  0
 30 31  2  0  0  0
  4  5  2  0  0  0
  5  6  1  0  0  0
  6  7  2  0  0  0
  7  8  1  0  0  0
  8 32  1  0  0  0
 32 33  3  0  0  0
  8  9  2  0  0  0
  9 10  1  0  0  0
 17 18  2  0  0  0
 18 19  1  0  0  0
 19 20  1  0  0  0
 19 14  2  0  0  0
 10  1  2  0  0  0
 31 26  1  0  0  0
 10  5  1  0  0  0
 11 12  1  0  0  0
 23 24  1  0  0  0
M  END
> <minimizedAffinity>
-9.25915

$$$$



 33 36  0  0  0  0  0  0  0  0999 V2000
    1.0500   65.9620   82.3654 C   0  0  0  0  0  0  0  0  0  0  0  0
    0.2221   66.5101   81.4664 N   0  0  0  0  0  0  0  0  0  0  0  0
    0.2703   67.7824   81.1206 N   0  0  0  0  0  0  0  0  0  0  0  0
    1.1614   68.6352   81.6477 C   0  0  0  0  0  0  0  0  0  0  0  0
    2.0411   68.1325   82.5788 C   0  0  0  0  0  0  0  0  0  0  0  0
    2.9639   68.9610   83.1433 C   0  0  0  0  0  0  0  0  0  0  0  0
    3.8745   68.5068   84.0892 C   0  0  0  0  0  0  0  0  0  0  0  0
    3.8243   67.1751   84.4517 C   0  0  0  0  0  0  0  0  0  0  0  0
    2.8870   66.3407   83.8760 C   0  0  0  0  0  0  0  0  0  0  0  0
    1.9861   66.7926   82.9392 C   0  0  0  0  0  0  0  0  0  0  0  0
    0.9520   64.5907   82.6877 N   0  0  0  0  0  0  0  0  0  0  0  0
    1.7838   63.9356   82.5679 H   0  0  0  0  0  0  0  0  0  0  0  0
   -0.2387   63.9446   83.1973 C   0  0  0  0  0  0  0  0  0  0  0  0
   -0.5455   63.3557   87.3965 C   0  0  0  0  0  0  0  0  0  0  0  0
    0.4932   64.1183   86.9019 C   0  0  0  0  0  0  0  0  0  0  0  0
    0.6407   64.3501   85.5303 C   0  0  0  0  0  0  0  0  0  0  0  0
   -0.2765   63.7992   84.6670 C   0  0  0  0  0  0  0  0  0  0  0  0
   -1.3262   63.0274   85.1805 C   0  0  0  0  0  0  0  0  0  0  0  0
   -1.4779   62.7963   86.5177 C   0  0  0  0  0  0  0  0  0  0  0  0
   -2.8018   61.8252   87.1266 Cl  0  0  0  0  0  0  0  0  0  0  0  0
    0.2034   62.3043   89.4264 C   0  0  0  0  0  0  0  0  0  0  0  0
   -0.7343   63.0983   88.7428 O   0  0  0  0  0  0  0  0  0  0  0  0
    1.1336   69.9788   81.2148 N   0  0  0  0  0  0  0  0  0  0  0  0
    1.8345   70.4019   80.5517 H   0  0  0  0  0  0  0  0  0  0  0  0
    0.1001   70.9171   81.6652 C   0  0  0  0  0  0  0  0  0  0  0  0
    0.7587   72.1857   82.0541 C   0  0  0  0  0  0  0  0  0  0  0  0
    1.9363   72.1467   82.8085 C   0  0  0  0  0  0  0  0  0  0  0  0
    2.5822   73.3078   83.2019 C   0  0  0  0  0  0  0  0  0  0  0  0
    2.0332   74.5275   82.8294 C   0  0  0  0  0  0  0  0  0  0  0  0
    0.8704   74.5642   82.0846 C   0  0  0  0  0  0  0  0  0  0  0  0
    0.2961   73.4049   81.7372 N   0  0  0  0  0  0  0  0  0  0  0  0
    4.7570   66.6625   85.4357 C   0  0  0  0  0  0  0  0  0  0  0  0
    5.5049   66.2707   86.2166 N   0  0  0  0  0  0  0  0  0  0  0  0
 21 22  1  0  0  0
 22 14  1  0  0  0
 14 15  1  0  0  0
 15 16  2  0  0  0
 16 17  1  0  0  0
 17 13  1  0  0  0
 13 11  1  0  0  0
 11  1  1  0  0  0
  1  2  1  0  0  0
  2  3  2  0  0  0
  3  4  1  0  0  0
  4 23  1  0  0  0
 23 25  1  0  0  0
 25 26  1  0  0  0
 26 27  2  0  0  0
 27 28  1  0  0  0
 28 29  2  0  0  0
 29 30  1  0  0  0
 30 31  2  0  0  0
  4  5  2  0  0  0
  5  6  1  0  0  0
  6  7  2  0  0  0
  7  8  1  0  0  0
  8 32  1  0  0  0
 32 33  3  0  0  0
  8  9  2  0  0  0
  9 10  1  0  0  0
 17 18  2  0  0  0
 18 19  1  0  0  0
 19 20  1  0  0  0
 19 14  2  0  0  0
 10  1  2  0  0  0
 31 26  1  0  0  0
 10  5  1  0  0  0
 11 12  1  0  0  0
 23 24  1  0  0  0
M  END
> <minimizedAffinity>
-9.22823

$$$$



 33 36  0  0  0  0  0  0  0  0999 V2000
    0.2453   64.8064   83.4111 C   0  0  0  0  0  0  0  0  0  0  0  0
    0.7434   65.2616   84.5682 N   0  0  0  0  0  0  0  0  0  0  0  0
    1.6385   66.2283   84.6394 N   0  0  0  0  0  0  0  0  0  0  0  0
    2.1246   66.8370   83.5475 C   0  0  0  0  0  0  0  0  0  0  0  0
    1.6519   66.4138   82.3264 C   0  0  0  0  0  0  0  0  0  0  0  0
    2.1174   67.0013   81.1885 C   0  0  0  0  0  0  0  0  0  0  0  0
    1.6758   66.6122   79.9300 C   0  0  0  0  0  0  0  0  0  0  0  0
    0.7389   65.6003   79.8548 C   0  0  0  0  0  0  0  0  0  0  0  0
    0.2712   65.0091   81.0114 C   0  0  0  0  0  0  0  0  0  0  0  0
    0.7099   65.3960   82.2570 C   0  0  0  0  0  0  0  0  0  0  0  0
   -0.7168   63.7729   83.4021 N   0  0  0  0  0  0  0  0  0  0  0  0
   -1.7505   63.9809   83.5559 H   0  0  0  0  0  0  0  0  0  0  0  0
   -0.4224   62.3716   83.1908 C   0  0  0  0  0  0  0  0  0  0  0  0
   -1.4960   61.0339   79.3008 C   0  0  0  0  0  0  0  0  0  0  0  0
   -0.1627   61.0539   79.6573 C   0  0  0  0  0  0  0  0  0  0  0  0
    0.2483   61.4790   80.9250 C   0  0  0  0  0  0  0  0  0  0  0  0
   -0.7081   61.8837   81.8259 C   0  0  0  0  0  0  0  0  0  0  0  0
   -2.0577   61.8589   81.4531 C   0  0  0  0  0  0  0  0  0  0  0  0
   -2.4677   61.4453   80.2180 C   0  0  0  0  0  0  0  0  0  0  0  0
   -4.1640   61.4277   79.7835 Cl  0  0  0  0  0  0  0  0  0  0  0  0
   -1.4620   59.4231   77.5147 C   0  0  0  0  0  0  0  0  0  0  0  0
   -1.9521   60.6223   78.0611 O   0  0  0  0  0  0  0  0  0  0  0  0
    3.0810   67.8602   83.7260 N   0  0  0  0  0  0  0  0  0  0  0  0
    3.4599   68.4591   82.9464 H   0  0  0  0  0  0  0  0  0  0  0  0
    3.6378   68.1793   85.0449 C   0  0  0  0  0  0  0  0  0  0  0  0
    4.8794   67.3929   85.2302 C   0  0  0  0  0  0  0  0  0  0  0  0
    5.8639   67.4168   84.2364 C   0  0  0  0  0  0  0  0  0  0  0  0
    7.0373   66.6906   84.3629 C   0  0  0  0  0  0  0  0  0  0  0  0
    7.2219   65.9283   85.5087 C   0  0  0  0  0  0  0  0  0  0  0  0
    6.2488   65.9058   86.4888 C   0  0  0  0  0  0  0  0  0  0  0  0
    5.1375   66.6307   86.3041 N   0  0  0  0  0  0  0  0  0  0  0  0
    0.2533   65.1652   78.5603 C   0  0  0  0  0  0  0  0  0  0  0  0
   -0.1274   64.8041   77.5369 N   0  0  0  0  0  0  0  0  0  0  0  0
 21 22  1  0  0  0
 22 14  1  0  0  0
 14 15  1  0  0  0
 15 16  2  0  0  0
 16 17  1  0  0  0
 17 13  1  0  0  0
 13 11  1  0  0  0
 11  1  1  0  0  0
  1  2  1  0  0  0
  2  3  2  0  0  0
  3  4  1  0  0  0
  4 23  1  0  0  0
 23 25  1  0  0  0
 25 26  1  0  0  0
 26 27  2  0  0  0
 27 28  1  0  0  0
 28 29  2  0  0  0
 29 30  1  0  0  0
 30 31  2  0  0  0
  4  5  2  0  0  0
  5  6  1  0  0  0
  6  7  2  0  0  0
  7  8  1  0  0  0
  8 32  1  0  0  0
 32 33  3  0  0  0
  8  9  2  0  0  0
  9 10  1  0  0  0
 17 18  2  0  0  0
 18 19  1  0  0  0
 19 20  1  0  0  0
 19 14  2  0  0  0
 10  1  2  0  0  0
 31 26  1  0  0  0
 10  5  1  0  0  0
 11 12  1  0  0  0
 23 24  1  0  0  0
M  END
> <minimizedAffinity>
-9.20853

$$$$



 33 36  0  0  0  0  0  0  0  0999 V2000
    0.5419   64.5403   84.8644 C   0  0  0  0  0  0  0  0  0  0  0  0
   -0.1924   63.5431   85.3751 N   0  0  0  0  0  0  0  0  0  0  0  0
   -1.0839   62.8694   84.6738 N   0  0  0  0  0  0  0  0  0  0  0  0
   -1.3274   63.1331   83.3814 C   0  0  0  0  0  0  0  0  0  0  0  0
   -0.6046   64.1482   82.7978 C   0  0  0  0  0  0  0  0  0  0  0  0
   -0.8180   64.4540   81.4872 C   0  0  0  0  0  0  0  0  0  0  0  0
   -0.1176   65.4697   80.8487 C   0  0  0  0  0  0  0  0  0  0  0  0
    0.8158   66.1754   81.5823 C   0  0  0  0  0  0  0  0  0  0  0  0
    1.0275   65.8608   82.9098 C   0  0  0  0  0  0  0  0  0  0  0  0
    0.3327   64.8541   83.5404 C   0  0  0  0  0  0  0  0  0  0  0  0
    1.4857   65.2186   85.6661 N   0  0  0  0  0  0  0  0  0  0  0  0
    1.4488   66.2770   85.7846 H   0  0  0  0  0  0  0  0  0  0  0  0
    2.5657   64.5817   86.3892 C   0  0  0  0  0  0  0  0  0  0  0  0
    6.2376   66.6296   85.7583 C   0  0  0  0  0  0  0  0  0  0  0  0
    6.1798   65.6398   86.7186 C   0  0  0  0  0  0  0  0  0  0  0  0
    5.0004   64.9294   86.9655 C   0  0  0  0  0  0  0  0  0  0  0  0
    3.8811   65.2348   86.2280 C   0  0  0  0  0  0  0  0  0  0  0  0
    3.9517   66.2408   85.2563 C   0  0  0  0  0  0  0  0  0  0  0  0
    5.0987   66.9391   85.0086 C   0  0  0  0  0  0  0  0  0  0  0  0
    5.1526   68.1922   83.7866 Cl  0  0  0  0  0  0  0  0  0  0  0  0
    8.4200   66.7506   84.7539 C   0  0  0  0  0  0  0  0  0  0  0  0
    7.3790   67.3592   85.4770 O   0  0  0  0  0  0  0  0  0  0  0  0
   -2.3019   62.3579   82.7159 N   0  0  0  0  0  0  0  0  0  0  0  0
   -3.3124   62.6378   82.6134 H   0  0  0  0  0  0  0  0  0  0  0  0
   -1.9769   61.0677   82.0984 C   0  0  0  0  0  0  0  0  0  0  0  0
   -2.2378   61.1675   80.6437 C   0  0  0  0  0  0  0  0  0  0  0  0
   -3.4385   61.7295   80.1968 C   0  0  0  0  0  0  0  0  0  0  0  0
   -3.7289   61.8358   78.8460 C   0  0  0  0  0  0  0  0  0  0  0  0
   -2.7950   61.3686   77.9309 C   0  0  0  0  0  0  0  0  0  0  0  0
   -1.6100   60.8139   78.3740 C   0  0  0  0  0  0  0  0  0  0  0  0
   -1.3915   60.7409   79.6935 N   0  0  0  0  0  0  0  0  0  0  0  0
    1.5670   67.2431   80.9526 C   0  0  0  0  0  0  0  0  0  0  0  0
    2.1773   68.0840   80.4597 N   0  0  0  0  0  0  0  0  0  0  0  0
 21 22  1  0  0  0
 22 14  1  0  0  0
 14 15  1  0  0  0
 15 16  2  0  0  0
 16 17  1  0  0  0
 17 13  1  0  0  0
 13 11  1  0  0  0
 11  1  1  0  0  0
  1  2  1  0  0  0
  2  3  2  0  0  0
  3  4  1  0  0  0
  4 23  1  0  0  0
 23 25  1  0  0  0
 25 26  1  0  0  0
 26 27  2  0  0  0
 27 28  1  0  0  0
 28 29  2  0  0  0
 29 30  1  0  0  0
 30 31  2  0  0  0
  4  5  2  0  0  0
  5  6  1  0  0  0
  6  7  2  0  0  0
  7  8  1  0  0  0
  8 32  1  0  0  0
 32 33  3  0  0  0
  8  9  2  0  0  0
  9 10  1  0  0  0
 17 18  2  0  0  0
 18 19  1  0  0  0
 19 20  1  0  0  0
 19 14  2  0  0  0
 10  1  2  0  0  0
 31 26  1  0  0  0
 10  5  1  0  0  0
 11 12  1  0  0  0
 23 24  1  0  0  0
M  END
> <minimizedAffinity>
-8.98960

$$$$



 33 36  0  0  0  0  0  0  0  0999 V2000
    2.3957   67.1103   83.5509 C   0  0  0  0  0  0  0  0  0  0  0  0
    2.8035   68.1104   84.3432 N   0  0  0  0  0  0  0  0  0  0  0  0
    3.0077   69.3393   83.9090 N   0  0  0  0  0  0  0  0  0  0  0  0
    2.8211   69.6869   82.6270 C   0  0  0  0  0  0  0  0  0  0  0  0
    2.4020   68.7029   81.7613 C   0  0  0  0  0  0  0  0  0  0  0  0
    2.2002   69.0077   80.4487 C   0  0  0  0  0  0  0  0  0  0  0  0
    1.7790   68.0530   79.5315 C   0  0  0  0  0  0  0  0  0  0  0  0
    1.5652   66.7663   79.9854 C   0  0  0  0  0  0  0  0  0  0  0  0
    1.7713   66.4638   81.3166 C   0  0  0  0  0  0  0  0  0  0  0  0
    2.1885   67.4110   82.2235 C   0  0  0  0  0  0  0  0  0  0  0  0
    2.1883   65.8170   84.0783 N   0  0  0  0  0  0  0  0  0  0  0  0
    2.7456   64.9811   83.7231 H   0  0  0  0  0  0  0  0  0  0  0  0
    1.2360   65.4916   85.1185 C   0  0  0  0  0  0  0  0  0  0  0  0
   -1.5174   62.3395   84.3721 C   0  0  0  0  0  0  0  0  0  0  0  0
   -1.0404   63.0775   83.3076 C   0  0  0  0  0  0  0  0  0  0  0  0
   -0.1290   64.1222   83.4930 C   0  0  0  0  0  0  0  0  0  0  0  0
    0.2921   64.4099   84.7697 C   0  0  0  0  0  0  0  0  0  0  0  0
   -0.1985   63.6543   85.8418 C   0  0  0  0  0  0  0  0  0  0  0  0
   -1.0881   62.6327   85.6700 C   0  0  0  0  0  0  0  0  0  0  0  0
   -1.6829   61.7080   87.0330 Cl  0  0  0  0  0  0  0  0  0  0  0  0
   -2.8265   60.9038   82.9538 C   0  0  0  0  0  0  0  0  0  0  0  0
   -2.4183   61.2977   84.2403 O   0  0  0  0  0  0  0  0  0  0  0  0
    3.0674   71.0273   82.2582 N   0  0  0  0  0  0  0  0  0  0  0  0
    3.7835   71.3230   81.5441 H   0  0  0  0  0  0  0  0  0  0  0  0
    2.3270   72.1441   82.8550 C   0  0  0  0  0  0  0  0  0  0  0  0
    1.2223   72.5139   81.9400 C   0  0  0  0  0  0  0  0  0  0  0  0
    0.0576   71.7390   81.9188 C   0  0  0  0  0  0  0  0  0  0  0  0
   -0.9978   72.0422   81.0736 C   0  0  0  0  0  0  0  0  0  0  0  0
   -0.8781   73.1435   80.2365 C   0  0  0  0  0  0  0  0  0  0  0  0
    0.2726   73.9074   80.2586 C   0  0  0  0  0  0  0  0  0  0  0  0
    1.2557   73.5595   81.0994 N   0  0  0  0  0  0  0  0  0  0  0  0
    1.1258   65.7413   79.0596 C   0  0  0  0  0  0  0  0  0  0  0  0
    0.7626   64.9361   78.3231 N   0  0  0  0  0  0  0  0  0  0  0  0
 21 22  1  0  0  0
 22 14  1  0  0  0
 14 15  1  0  0  0
 15 16  2  0  0  0
 16 17  1  0  0  0
 17 13  1  0  0  0
 13 11  1  0  0  0
 11  1  1  0  0  0
  1  2  1  0  0  0
  2  3  2  0  0  0
  3  4  1  0  0  0
  4 23  1  0  0  0
 23 25  1  0  0  0
 25 26  1  0  0  0
 26 27  2  0  0  0
 27 28  1  0  0  0
 28 29  2  0  0  0
 29 30  1  0  0  0
 30 31  2  0  0  0
  4  5  2  0  0  0
  5  6  1  0  0  0
  6  7  2  0  0  0
  7  8  1  0  0  0
  8 32  1  0  0  0
 32 33  3  0  0  0
  8  9  2  0  0  0
  9 10  1  0  0  0
 17 18  2  0  0  0
 18 19  1  0  0  0
 19 20  1  0  0  0
 19 14  2  0  0  0
 10  1  2  0  0  0
 31 26  1  0  0  0
 10  5  1  0  0  0
 11 12  1  0  0  0
 23 24  1  0  0  0
M  END
> <minimizedAffinity>
-8.90343

$$$$
