


 28 30  0  0  0  0  0  0  0  0999 V2000
   -1.6133   62.1429   83.9001 C   0  0  0  0  0  0  0  0  0  0  0  0
   -2.3125   61.1322   83.3999 N   0  0  0  0  0  0  0  0  0  0  0  0
   -2.0195   61.0990   82.0566 C   0  0  0  0  0  0  0  0  0  0  0  0
   -2.5107   60.2026   81.0347 C   0  0  0  0  0  0  0  0  0  0  0  0
   -3.3061   59.2960   81.2685 O   0  0  0  0  0  0  0  0  0  0  0  0
   -1.9846   60.4814   79.7600 N   0  0  0  0  0  0  0  0  0  0  0  0
   -2.4148   59.6414   78.6601 C   0  0  0  0  0  0  0  0  0  0  0  0
   -1.0755   61.5096   79.4313 C   0  0  0  0  0  0  0  0  0  0  0  0
   -0.6800   61.6720   78.2729 O   0  0  0  0  0  0  0  0  0  0  0  0
   -0.6362   62.3442   80.4753 N   0  0  0  0  0  0  0  0  0  0  0  0
   -1.1373   62.0887   81.7327 C   0  0  0  0  0  0  0  0  0  0  0  0
   -0.8811   62.7440   82.8957 N   0  0  0  0  0  0  0  0  0  0  0  0
   -0.2778   63.5404   83.0449 H   0  0  0  0  0  0  0  0  0  0  0  0
   -0.5207   63.3038   85.8846 C   0  0  0  0  0  0  0  0  0  0  0  0
   -0.5922   63.6825   87.2331 C   0  0  0  0  0  0  0  0  0  0  0  0
   -1.7096   63.3593   88.0066 C   0  0  0  0  0  0  0  0  0  0  0  0
   -2.7674   62.6556   87.4441 C   0  0  0  0  0  0  0  0  0  0  0  0
   -2.7085   62.2733   86.1046 C   0  0  0  0  0  0  0  0  0  0  0  0
   -1.5942   62.5862   85.3050 C   0  0  0  0  0  0  0  0  0  0  0  0
    0.5492   63.5928   85.0695 O   0  0  0  0  0  0  0  0  0  0  0  0
    1.1986   64.8554   85.2337 C   0  0  0  0  0  0  0  0  0  0  0  0
    0.9689   65.6543   83.9526 C   0  0  0  0  0  0  0  0  0  0  0  0
    2.4411   67.1881   82.6070 C   0  0  0  0  0  0  0  0  0  0  0  0
    1.7602   66.9584   83.9470 C   0  0  0  0  0  0  0  0  0  0  0  0
    0.3021   63.4235   80.1695 C   0  0  0  0  0  0  0  0  0  0  0  0
   -0.3734   64.6803   79.5878 C   0  0  0  0  0  0  0  0  0  0  0  0
    0.3190   65.0798   78.2828 C   0  0  0  0  0  0  0  0  0  0  0  0
   -0.3520   65.8575   80.5642 C   0  0  0  0  0  0  0  0  0  0  0  0
 23 24  1  0  0  0
 24 22  1  0  0  0
 22 21  1  0  0  0
 21 20  1  0  0  0
 20 14  1  0  0  0
 14 15  2  0  0  0
 15 16  1  0  0  0
 16 17  2  0  0  0
 17 18  1  0  0  0
 18 19  2  0  0  0
 19  1  1  0  0  0
  1  2  2  0  0  0
  2  3  1  0  0  0
  3  4  1  0  0  0
  4  5  2  0  0  0
  4  6  1  0  0  0
  6  7  1  0  0  0
  6  8  1  0  0  0
  8  9  2  0  0  0
  8 10  1  0  0  0
 10 25  1  0  0  0
 25 26  1  0  0  0
 26 27  1  0  0  0
 26 28  1  0  0  0
 10 11  1  0  0  0
 11 12  1  0  0  0
 19 14  1  0  0  0
 12  1  1  0  0  0
 11  3  2  0  0  0
 12 13  1  0  0  0
M  END
> <minimizedAffinity>
-8.98414

$$$$



 28 30  0  0  0  0  0  0  0  0999 V2000
   -1.3469   61.8121   81.9608 C   0  0  0  0  0  0  0  0  0  0  0  0
   -2.0455   60.8381   81.3918 N   0  0  0  0  0  0  0  0  0  0  0  0
   -1.6503   60.8102   80.0748 C   0  0  0  0  0  0  0  0  0  0  0  0
   -2.0964   59.9484   79.0035 C   0  0  0  0  0  0  0  0  0  0  0  0
   -2.9438   59.0729   79.1605 O   0  0  0  0  0  0  0  0  0  0  0  0
   -1.4617   60.2216   77.7780 N   0  0  0  0  0  0  0  0  0  0  0  0
   -1.8387   59.4147   76.6347 C   0  0  0  0  0  0  0  0  0  0  0  0
   -0.4889   61.2152   77.5372 C   0  0  0  0  0  0  0  0  0  0  0  0
    0.0020   61.3760   76.4157 O   0  0  0  0  0  0  0  0  0  0  0  0
   -0.0986   62.0171   78.6255 N   0  0  0  0  0  0  0  0  0  0  0  0
   -0.7061   61.7664   79.8361 C   0  0  0  0  0  0  0  0  0  0  0  0
   -0.5149   62.3952   81.0259 N   0  0  0  0  0  0  0  0  0  0  0  0
    0.1068   63.1637   81.2342 H   0  0  0  0  0  0  0  0  0  0  0  0
   -0.4210   63.0118   84.0061 C   0  0  0  0  0  0  0  0  0  0  0  0
   -0.5771   63.3661   85.3541 C   0  0  0  0  0  0  0  0  0  0  0  0
   -1.7053   62.9621   86.0720 C   0  0  0  0  0  0  0  0  0  0  0  0
   -2.6896   62.2009   85.4538 C   0  0  0  0  0  0  0  0  0  0  0  0
   -2.5462   61.8419   84.1142 C   0  0  0  0  0  0  0  0  0  0  0  0
   -1.4193   62.2359   83.3700 C   0  0  0  0  0  0  0  0  0  0  0  0
    0.6638   63.3793   83.2442 O   0  0  0  0  0  0  0  0  0  0  0  0
    1.2141   64.6835   83.4416 C   0  0  0  0  0  0  0  0  0  0  0  0
    0.5781   65.6067   82.4046 C   0  0  0  0  0  0  0  0  0  0  0  0
    1.9344   67.3416   83.6216 C   0  0  0  0  0  0  0  0  0  0  0  0
    1.3244   66.9321   82.2904 C   0  0  0  0  0  0  0  0  0  0  0  0
    0.9037   63.0601   78.4107 C   0  0  0  0  0  0  0  0  0  0  0  0
    0.3395   64.4894   78.5255 C   0  0  0  0  0  0  0  0  0  0  0  0
   -0.4793   64.8217   77.2760 C   0  0  0  0  0  0  0  0  0  0  0  0
    1.4388   65.5358   78.7151 C   0  0  0  0  0  0  0  0  0  0  0  0
 23 24  1  0  0  0
 24 22  1  0  0  0
 22 21  1  0  0  0
 21 20  1  0  0  0
 20 14  1  0  0  0
 14 15  2  0  0  0
 15 16  1  0  0  0
 16 17  2  0  0  0
 17 18  1  0  0  0
 18 19  2  0  0  0
 19  1  1  0  0  0
  1  2  2  0  0  0
  2  3  1  0  0  0
  3  4  1  0  0  0
  4  5  2  0  0  0
  4  6  1  0  0  0
  6  7  1  0  0  0
  6  8  1  0  0  0
  8  9  2  0  0  0
  8 10  1  0  0  0
 10 25  1  0  0  0
 25 26  1  0  0  0
 26 27  1  0  0  0
 26 28  1  0  0  0
 10 11  1  0  0  0
 11 12  1  0  0  0
 19 14  1  0  0  0
 12  1  1  0  0  0
 11  3  2  0  0  0
 12 13  1  0  0  0
M  END
> <minimizedAffinity>
-8.89584

$$$$



 28 30  0  0  0  0  0  0  0  0999 V2000
    1.1002   65.7258   83.1659 C   0  0  0  0  0  0  0  0  0  0  0  0
    0.4497   65.3791   82.0627 N   0  0  0  0  0  0  0  0  0  0  0  0
   -0.3100   64.2837   82.4011 C   0  0  0  0  0  0  0  0  0  0  0  0
   -1.2046   63.5011   81.5786 C   0  0  0  0  0  0  0  0  0  0  0  0
   -1.4056   63.7459   80.3917 O   0  0  0  0  0  0  0  0  0  0  0  0
   -1.8096   62.4415   82.2792 N   0  0  0  0  0  0  0  0  0  0  0  0
   -2.7251   61.5907   81.5456 C   0  0  0  0  0  0  0  0  0  0  0  0
   -1.6129   62.1093   83.6366 C   0  0  0  0  0  0  0  0  0  0  0  0
   -2.1919   61.1493   84.1540 O   0  0  0  0  0  0  0  0  0  0  0  0
   -0.7304   62.9150   84.3796 N   0  0  0  0  0  0  0  0  0  0  0  0
   -0.1274   63.9596   83.7142 C   0  0  0  0  0  0  0  0  0  0  0  0
    0.7598   64.8703   84.1948 N   0  0  0  0  0  0  0  0  0  0  0  0
    1.1390   64.9414   85.1285 H   0  0  0  0  0  0  0  0  0  0  0  0
    3.2428   66.7654   84.0649 C   0  0  0  0  0  0  0  0  0  0  0  0
    4.0829   67.8854   84.1463 C   0  0  0  0  0  0  0  0  0  0  0  0
    3.7523   69.0744   83.4916 C   0  0  0  0  0  0  0  0  0  0  0  0
    2.5810   69.1591   82.7489 C   0  0  0  0  0  0  0  0  0  0  0  0
    1.7373   68.0527   82.6604 C   0  0  0  0  0  0  0  0  0  0  0  0
    2.0477   66.8446   83.3108 C   0  0  0  0  0  0  0  0  0  0  0  0
    3.5122   65.5665   84.6837 O   0  0  0  0  0  0  0  0  0  0  0  0
    4.2624   65.5906   85.8999 C   0  0  0  0  0  0  0  0  0  0  0  0
    5.6140   64.9402   85.6129 C   0  0  0  0  0  0  0  0  0  0  0  0
    7.5808   66.1447   84.6072 C   0  0  0  0  0  0  0  0  0  0  0  0
    6.7719   65.8991   85.8710 C   0  0  0  0  0  0  0  0  0  0  0  0
   -0.4990   62.5963   85.7879 C   0  0  0  0  0  0  0  0  0  0  0  0
   -1.2639   63.5144   86.7608 C   0  0  0  0  0  0  0  0  0  0  0  0
   -0.3785   63.8393   87.9659 C   0  0  0  0  0  0  0  0  0  0  0  0
   -2.5768   62.8916   87.2383 C   0  0  0  0  0  0  0  0  0  0  0  0
 23 24  1  0  0  0
 24 22  1  0  0  0
 22 21  1  0  0  0
 21 20  1  0  0  0
 20 14  1  0  0  0
 14 15  2  0  0  0
 15 16  1  0  0  0
 16 17  2  0  0  0
 17 18  1  0  0  0
 18 19  2  0  0  0
 19  1  1  0  0  0
  1  2  2  0  0  0
  2  3  1  0  0  0
  3  4  1  0  0  0
  4  5  2  0  0  0
  4  6  1  0  0  0
  6  7  1  0  0  0
  6  8  1  0  0  0
  8  9  2  0  0  0
  8 10  1  0  0  0
 10 25  1  0  0  0
 25 26  1  0  0  0
 26 27  1  0  0  0
 26 28  1  0  0  0
 10 11  1  0  0  0
 11 12  1  0  0  0
 19 14  1  0  0  0
 12  1  1  0  0  0
 11  3  2  0  0  0
 12 13  1  0  0  0
M  END
> <minimizedAffinity>
-8.70698

$$$$



 28 30  0  0  0  0  0  0  0  0999 V2000
    1.4209   66.2954   83.8032 C   0  0  0  0  0  0  0  0  0  0  0  0
    1.3024   66.0111   85.0938 N   0  0  0  0  0  0  0  0  0  0  0  0
    0.5735   64.8466   85.1583 C   0  0  0  0  0  0  0  0  0  0  0  0
    0.1481   64.0963   86.3181 C   0  0  0  0  0  0  0  0  0  0  0  0
    0.4119   64.4389   87.4680 O   0  0  0  0  0  0  0  0  0  0  0  0
   -0.5927   62.9468   85.9876 N   0  0  0  0  0  0  0  0  0  0  0  0
   -1.0710   62.1221   87.0792 C   0  0  0  0  0  0  0  0  0  0  0  0
   -0.9307   62.5079   84.6896 C   0  0  0  0  0  0  0  0  0  0  0  0
   -1.5943   61.4822   84.5102 O   0  0  0  0  0  0  0  0  0  0  0  0
   -0.4820   63.2846   83.6056 N   0  0  0  0  0  0  0  0  0  0  0  0
    0.2468   64.4144   83.9056 C   0  0  0  0  0  0  0  0  0  0  0  0
    0.7832   65.3273   83.0533 N   0  0  0  0  0  0  0  0  0  0  0  0
    0.7397   65.3416   82.0441 H   0  0  0  0  0  0  0  0  0  0  0  0
    3.3297   67.9779   83.7323 C   0  0  0  0  0  0  0  0  0  0  0  0
    3.9194   69.0881   83.1105 C   0  0  0  0  0  0  0  0  0  0  0  0
    3.3240   69.6803   81.9941 C   0  0  0  0  0  0  0  0  0  0  0  0
    2.1349   69.1721   81.4860 C   0  0  0  0  0  0  0  0  0  0  0  0
    1.5385   68.0689   82.0953 C   0  0  0  0  0  0  0  0  0  0  0  0
    2.1180   67.4552   83.2207 C   0  0  0  0  0  0  0  0  0  0  0  0
    3.8660   67.3487   84.8319 O   0  0  0  0  0  0  0  0  0  0  0  0
    5.2682   67.4894   85.0706 C   0  0  0  0  0  0  0  0  0  0  0  0
    5.4946   67.3045   86.5695 C   0  0  0  0  0  0  0  0  0  0  0  0
    5.5699   65.4990   88.3202 C   0  0  0  0  0  0  0  0  0  0  0  0
    5.9593   65.8905   86.9035 C   0  0  0  0  0  0  0  0  0  0  0  0
   -0.8186   62.8619   82.2467 C   0  0  0  0  0  0  0  0  0  0  0  0
    0.4008   62.4001   81.4256 C   0  0  0  0  0  0  0  0  0  0  0  0
   -0.0426   62.0308   80.0083 C   0  0  0  0  0  0  0  0  0  0  0  0
    1.1186   61.2117   82.0675 C   0  0  0  0  0  0  0  0  0  0  0  0
 23 24  1  0  0  0
 24 22  1  0  0  0
 22 21  1  0  0  0
 21 20  1  0  0  0
 20 14  1  0  0  0
 14 15  2  0  0  0
 15 16  1  0  0  0
 16 17  2  0  0  0
 17 18  1  0  0  0
 18 19  2  0  0  0
 19  1  1  0  0  0
  1  2  2  0  0  0
  2  3  1  0  0  0
  3  4  1  0  0  0
  4  5  2  0  0  0
  4  6  1  0  0  0
  6  7  1  0  0  0
  6  8  1  0  0  0
  8  9  2  0  0  0
  8 10  1  0  0  0
 10 25  1  0  0  0
 25 26  1  0  0  0
 26 27  1  0  0  0
 26 28  1  0  0  0
 10 11  1  0  0  0
 11 12  1  0  0  0
 19 14  1  0  0  0
 12  1  1  0  0  0
 11  3  2  0  0  0
 12 13  1  0  0  0
M  END
> <minimizedAffinity>
-8.63134

$$$$



 28 30  0  0  0  0  0  0  0  0999 V2000
    1.0034   65.0161   85.0608 C   0  0  0  0  0  0  0  0  0  0  0  0
    0.5425   65.5765   83.9499 N   0  0  0  0  0  0  0  0  0  0  0  0
    1.4904   66.4979   83.5707 C   0  0  0  0  0  0  0  0  0  0  0  0
    1.4940   67.3932   82.4360 C   0  0  0  0  0  0  0  0  0  0  0  0
    0.5804   67.4344   81.6157 O   0  0  0  0  0  0  0  0  0  0  0  0
    2.6439   68.2019   82.3776 N   0  0  0  0  0  0  0  0  0  0  0  0
    2.7473   69.1397   81.2776 C   0  0  0  0  0  0  0  0  0  0  0  0
    3.7192   68.2028   83.2916 C   0  0  0  0  0  0  0  0  0  0  0  0
    4.6825   68.9622   83.1501 O   0  0  0  0  0  0  0  0  0  0  0  0
    3.6521   67.3040   84.3720 N   0  0  0  0  0  0  0  0  0  0  0  0
    2.5355   66.5010   84.4485 C   0  0  0  0  0  0  0  0  0  0  0  0
    2.2277   65.5655   85.3854 N   0  0  0  0  0  0  0  0  0  0  0  0
    2.7637   65.2939   86.1975 H   0  0  0  0  0  0  0  0  0  0  0  0
   -0.4847   62.9638   85.2912 C   0  0  0  0  0  0  0  0  0  0  0  0
   -1.0750   62.0057   86.1282 C   0  0  0  0  0  0  0  0  0  0  0  0
   -0.8561   62.0316   87.5077 C   0  0  0  0  0  0  0  0  0  0  0  0
   -0.0464   63.0125   88.0671 C   0  0  0  0  0  0  0  0  0  0  0  0
    0.5461   63.9707   87.2458 C   0  0  0  0  0  0  0  0  0  0  0  0
    0.3407   63.9664   85.8541 C   0  0  0  0  0  0  0  0  0  0  0  0
   -0.6588   62.9918   83.9268 O   0  0  0  0  0  0  0  0  0  0  0  0
   -0.3364   61.8148   83.1829 C   0  0  0  0  0  0  0  0  0  0  0  0
    0.9453   62.1056   82.4054 C   0  0  0  0  0  0  0  0  0  0  0  0
    2.7163   60.3712   81.9741 C   0  0  0  0  0  0  0  0  0  0  0  0
    1.3665   60.9212   81.5412 C   0  0  0  0  0  0  0  0  0  0  0  0
    4.7469   67.2819   85.3413 C   0  0  0  0  0  0  0  0  0  0  0  0
    5.6397   66.0307   85.2334 C   0  0  0  0  0  0  0  0  0  0  0  0
    5.9036   65.4643   86.6303 C   0  0  0  0  0  0  0  0  0  0  0  0
    6.9692   66.3226   84.5357 C   0  0  0  0  0  0  0  0  0  0  0  0
 23 24  1  0  0  0
 24 22  1  0  0  0
 22 21  1  0  0  0
 21 20  1  0  0  0
 20 14  1  0  0  0
 14 15  2  0  0  0
 15 16  1  0  0  0
 16 17  2  0  0  0
 17 18  1  0  0  0
 18 19  2  0  0  0
 19  1  1  0  0  0
  1  2  2  0  0  0
  2  3  1  0  0  0
  3  4  1  0  0  0
  4  5  2  0  0  0
  4  6  1  0  0  0
  6  7  1  0  0  0
  6  8  1  0  0  0
  8  9  2  0  0  0
  8 10  1  0  0  0
 10 25  1  0  0  0
 25 26  1  0  0  0
 26 27  1  0  0  0
 26 28  1  0  0  0
 10 11  1  0  0  0
 11 12  1  0  0  0
 19 14  1  0  0  0
 12  1  1  0  0  0
 11  3  2  0  0  0
 12 13  1  0  0  0
M  END
> <minimizedAffinity>
-8.58803

$$$$
