
     RDKit          3D

 31 35  0  0  0  0  0  0  0  0999 V2000
   -0.9736   63.1130   85.7667 N   0  0  0  0  0  0  0  0  0  0  0  0
   -0.0577   64.0453   86.2857 C   0  0  0  0  0  0  0  0  0  0  0  0
    0.1991   64.1939   87.4763 O   0  0  0  0  0  0  0  0  0  0  0  0
    0.5933   64.8257   85.2799 C   0  0  0  0  0  0  0  0  0  0  0  0
    1.5665   65.7743   85.3843 N   0  0  0  0  0  0  0  0  0  0  0  0
    1.8695   66.1915   84.1014 C   0  0  0  0  0  0  0  0  0  0  0  0
    1.1229   65.5566   83.2089 N   0  0  0  0  0  0  0  0  0  0  0  0
    0.3415   64.7274   83.9451 C   0  0  0  0  0  0  0  0  0  0  0  0
   -0.5866   63.8817   83.5066 N   0  0  0  0  0  0  0  0  0  0  0  0
   -0.8082   63.4784   82.1534 C   0  0  0  0  0  0  0  0  0  0  0  0
   -1.9221   62.4270   82.3682 C   0  0  2  0  0  0  0  0  0  0  0  0
   -1.9694   62.1234   83.8491 N   0  0  0  0  0  0  0  0  0  0  0  0
   -1.1903   63.0279   84.3893 C   0  0  0  0  0  0  0  0  0  0  0  0
    2.0109   66.0858   86.2394 H   0  0  0  0  0  0  0  0  0  0  0  0
   -2.7958   62.9031   87.4595 C   0  0  0  0  0  0  0  0  0  0  0  0
   -1.6853   62.1985   86.6762 C   0  0  0  0  0  0  0  0  0  0  0  0
   -0.7271   61.4527   87.6078 C   0  0  0  0  0  0  0  0  0  0  0  0
    2.8977   67.2400   83.8101 C   0  0  0  0  0  0  0  0  0  0  0  0
    4.1687   67.0900   84.6159 C   0  0  0  0  0  0  0  0  0  0  0  0
    4.5930   68.1114   85.4781 C   0  0  0  0  0  0  0  0  0  0  0  0
    5.7511   67.9551   86.2412 C   0  0  0  0  0  0  0  0  0  0  0  0
    6.4936   66.7791   86.1515 C   0  0  0  0  0  0  0  0  0  0  0  0
    6.0811   65.7578   85.2980 C   0  0  0  0  0  0  0  0  0  0  0  0
    4.9241   65.9109   84.5334 C   0  0  0  0  0  0  0  0  0  0  0  0
   -1.6860   61.1236   81.5989 C   0  0  0  0  0  0  0  0  0  0  0  0
   -2.0499   61.2301   80.1375 C   0  0  0  0  0  0  0  0  0  0  0  0
   -3.2759   61.7890   79.7510 C   0  0  0  0  0  0  0  0  0  0  0  0
   -3.6069   61.9043   78.4001 C   0  0  0  0  0  0  0  0  0  0  0  0
   -2.7174   61.4613   77.4235 C   0  0  0  0  0  0  0  0  0  0  0  0
   -1.4978   60.9001   77.7967 C   0  0  0  0  0  0  0  0  0  0  0  0
   -1.1650   60.7835   79.1471 C   0  0  0  0  0  0  0  0  0  0  0  0
 15 16  1  0
 16 17  1  0
 16  1  1  0
  1  2  1  0
  2  3  2  0
  2  4  1  0
  4  5  1  0
  5  6  1  0
  6 18  1  0
 18 19  1  0
 19 20  2  0
 20 21  1  0
 21 22  2  0
 22 23  1  0
 23 24  2  0
  6  7  2  0
  7  8  1  0
  8  9  1  0
  9 10  1  0
 10 11  1  0
 11 25  1  6
 25 26  1  0
 26 27  2  0
 27 28  1  0
 28 29  2  0
 29 30  1  0
 30 31  2  0
 11 12  1  0
 12 13  2  0
 13  1  1  0
  8  4  2  0
 13  9  1  0
 24 19  1  0
 31 26  1  0
  5 14  1  0
M  END
>  <minimizedAffinity>  (1) 
-10.86196

$$$$
