
     RDKit          3D

 35 37  0  0  0  0  0  0  0  0999 V2000
    5.1035   -1.9738    1.7212 C   0  0  0  0  0  0  0  0  0  0  0  0
    4.5649   -0.6747    1.9236 O   0  0  0  0  0  0  0  0  0  0  0  0
    3.6314   -0.2252    1.0261 C   0  0  0  0  0  0  0  0  0  0  0  0
    3.2077   -0.9376   -0.0999 C   0  0  0  0  0  0  0  0  0  0  0  0
    2.2499   -0.3954   -0.9653 C   0  0  0  0  0  0  0  0  0  0  0  0
    1.6977    0.8703   -0.7262 C   0  0  0  0  0  0  0  0  0  0  0  0
    0.6631    1.4482   -1.6636 C   0  0  0  0  0  0  0  0  0  0  0  0
   -0.5701    0.6664   -1.6252 N   0  0  0  0  0  0  0  0  0  0  0  0
   -1.4592    0.9671   -0.5670 C   0  0  0  0  0  0  0  0  0  0  0  0
   -1.2040    2.0054    0.2597 N   0  0  0  0  0  0  0  0  0  0  0  0
   -2.0614    2.3340    1.2684 N   0  0  0  0  0  0  0  0  0  0  0  0
   -3.1771    1.6044    1.4476 C   0  0  0  0  0  0  0  0  0  0  0  0
   -4.1412    2.1641    2.7600 Cl  0  0  0  0  0  0  0  0  0  0  0  0
   -3.5194    0.5092    0.6469 C   0  0  0  0  0  0  0  0  0  0  0  0
   -4.6906   -0.2725    0.8224 C   0  0  0  0  0  0  0  0  0  0  0  0
   -4.9682   -1.3611   -0.0052 C   0  0  0  0  0  0  0  0  0  0  0  0
   -4.0805   -1.6922   -1.0178 C   0  0  0  0  0  0  0  0  0  0  0  0
   -4.4076   -3.0382   -2.0371 Cl  0  0  0  0  0  0  0  0  0  0  0  0
   -2.9238   -0.9396   -1.2126 C   0  0  0  0  0  0  0  0  0  0  0  0
   -2.6223    0.1782   -0.3956 C   0  0  0  0  0  0  0  0  0  0  0  0
    2.1169    1.5818    0.4045 C   0  0  0  0  0  0  0  0  0  0  0  0
    3.0742    1.0405    1.2694 C   0  0  0  0  0  0  0  0  0  0  0  0
    3.5456    1.9826    2.6426 Cl  0  0  0  0  0  0  0  0  0  0  0  0
    5.6597   -2.0275    0.7796 H   0  0  0  0  0  0  0  0  0  0  0  0
    4.3203   -2.7379    1.7636 H   0  0  0  0  0  0  0  0  0  0  0  0
    5.8075   -2.1743    2.5345 H   0  0  0  0  0  0  0  0  0  0  0  0
    3.5991   -1.9217   -0.3355 H   0  0  0  0  0  0  0  0  0  0  0  0
    1.9258   -0.9735   -1.8288 H   0  0  0  0  0  0  0  0  0  0  0  0
    1.0730    1.3901   -2.6803 H   0  0  0  0  0  0  0  0  0  0  0  0
    0.4919    2.5172   -1.4850 H   0  0  0  0  0  0  0  0  0  0  0  0
   -1.0843    0.7516   -2.4978 H   0  0  0  0  0  0  0  0  0  0  0  0
   -5.4008   -0.0406    1.6151 H   0  0  0  0  0  0  0  0  0  0  0  0
   -5.8717   -1.9448    0.1526 H   0  0  0  0  0  0  0  0  0  0  0  0
   -2.2366   -1.2376   -2.0023 H   0  0  0  0  0  0  0  0  0  0  0  0
    1.6865    2.5573    0.6232 H   0  0  0  0  0  0  0  0  0  0  0  0
  1  2  1  0
  2  3  1  0
  3  4  1  0
  4  5  2  0
  5  6  1  0
  6  7  1  0
  7  8  1  0
  8  9  1  0
  9 10  1  0
 10 11  2  0
 11 12  1  0
 12 13  1  0
 12 14  2  0
 14 15  1  0
 15 16  2  0
 16 17  1  0
 17 18  1  0
 17 19  2  0
 19 20  1  0
  6 21  2  0
 21 22  1  0
 22 23  1  0
 22  3  2  0
 20  9  2  0
 20 14  1  0
  1 24  1  0
  1 25  1  0
  1 26  1  0
  4 27  1  0
  5 28  1  0
  7 29  1  0
  7 30  1  0
  8 31  1  0
 15 32  1  0
 16 33  1  0
 19 34  1  0
 21 35  1  0
M  END
$$$$
