
     RDKit          3D

 39 43  0  0  0  0  0  0  0  0999 V2000
    3.3227   66.2996   84.6519 C   0  0  0  0  0  0  0  0  0  0  0  0
    4.1723   67.2852   84.1302 C   0  0  0  0  0  0  0  0  0  0  0  0
    3.7116   68.1589   83.1476 C   0  0  0  0  0  0  0  0  0  0  0  0
    2.3911   68.0591   82.7073 C   0  0  0  0  0  0  0  0  0  0  0  0
    1.5463   67.0673   83.2172 C   0  0  0  0  0  0  0  0  0  0  0  0
    1.9887   66.1797   84.2193 C   0  0  0  0  0  0  0  0  0  0  0  0
    1.0502   65.1960   84.7787 C   0  0  0  0  0  0  0  0  0  0  0  0
    0.9444   65.1235   86.1266 N   0  0  0  0  0  0  0  0  0  0  0  0
    0.1084   64.2108   86.6254 C   0  0  0  0  0  0  0  0  0  0  0  0
    0.0163   64.1724   87.9834 O   0  0  0  0  0  0  0  0  0  0  0  0
   -0.5907   63.3826   85.7889 C   0  0  0  0  0  0  0  0  0  0  0  0
   -0.4135   63.5082   84.4266 C   0  0  0  0  0  0  0  0  0  0  0  0
    0.4233   64.4126   83.8769 N   0  0  0  0  0  0  0  0  0  0  0  0
   -1.2609   62.5296   83.8477 C   0  0  0  0  0  0  0  0  0  0  0  0
   -1.9210   61.8339   84.7904 N   0  0  0  0  0  0  0  0  0  0  0  0
   -1.4940   62.3768   85.9530 N   0  0  0  0  0  0  0  0  0  0  0  0
   -2.0027   61.8731   87.2065 C   0  0  0  0  0  0  0  0  0  0  0  0
    0.6365   64.8855   88.2210 H   0  0  0  0  0  0  0  0  0  0  0  0
   -1.4753   62.2263   82.3973 C   0  0  0  0  0  0  0  0  0  0  0  0
   -2.5757   63.0907   81.7572 C   0  0  0  0  0  0  0  0  0  0  0  0
   -3.3211   62.1525   80.8194 C   0  0  0  0  0  0  0  0  0  0  0  0
   -3.2957   60.8279   81.5600 C   0  0  0  0  0  0  0  0  0  0  0  0
   -1.8840   60.7651   82.1298 C   0  0  0  0  0  0  0  0  0  0  0  0
    1.7945   69.1616   81.4409 S   0  0  0  0  0  0  0  0  0  0  0  0
    2.8450   69.2823   80.4511 O   0  0  0  0  0  0  0  0  0  0  0  0
    0.4672   68.7184   81.0716 O   0  0  0  0  0  0  0  0  0  0  0  0
    1.6605   70.6473   82.2328 N   0  0  0  0  0  0  0  0  0  0  0  0
    0.4602   71.4835   81.9715 C   0  0  0  0  0  0  0  0  0  0  0  0
    0.8264   72.8252   81.3024 C   0  0  0  0  0  0  0  0  0  0  0  0
    1.8497   73.6300   82.0026 N   0  0  0  0  0  0  0  0  0  0  0  0
    2.5913   72.8269   82.9957 C   0  0  0  0  0  0  0  0  0  0  0  0
    2.9108   71.4140   82.4776 C   0  0  0  0  0  0  0  0  0  0  0  0
    1.3186   74.8548   82.6127 C   0  0  0  0  0  0  0  0  0  0  0  0
   -0.0836   75.2262   82.1052 C   0  0  0  0  0  0  0  0  0  0  0  0
   -0.7865   75.9731   83.0958 O   0  0  0  0  0  0  0  0  0  0  0  0
   -0.9400   75.3834   83.8533 H   0  0  0  0  0  0  0  0  0  0  0  0
    3.7833   65.5128   85.6791 O   0  0  0  0  0  0  0  0  0  0  0  0
    5.7710   65.3870   86.9939 C   0  0  0  0  0  0  0  0  0  0  0  0
    5.2001   65.3217   85.5891 C   0  0  0  0  0  0  0  0  0  0  0  0
 38 39  1  0
 39 37  1  0
 37  1  1  0
  1  2  1  0
  2  3  2  0
  3  4  1  0
  4 24  1  0
 24 25  2  0
 24 26  2  0
 24 27  1  0
 27 28  1  0
 28 29  1  0
 29 30  1  0
 30 33  1  0
 33 34  1  0
 34 35  1  0
 30 31  1  0
 31 32  1  0
  4  5  2  0
  5  6  1  0
  6  7  1  0
  7  8  2  0
  8  9  1  0
  9 10  1  0
  9 11  2  0
 11 12  1  0
 12 13  2  0
 12 14  1  0
 14 19  1  0
 19 20  1  0
 20 21  1  0
 21 22  1  0
 22 23  1  0
 14 15  2  0
 15 16  1  0
 16 17  1  0
  6  1  2  0
 13  7  1  0
 23 19  1  0
 32 27  1  0
 16 11  1  0
 35 36  1  0
 10 18  1  0
M  END
>  <minimizedAffinity>  (1) 
-9.88685

$$$$
