
     RDKit          3D

 71 75  0  0  0  0  0  0  0  0999 V2000
   -0.1192   -6.2077   -0.4249 C   0  0  0  0  0  0  0  0  0  0  0  0
    0.4554   -5.1211   -1.3152 C   0  0  0  0  0  0  0  0  0  0  0  0
    0.6564   -3.9524   -0.5115 O   0  0  0  0  0  0  0  0  0  0  0  0
    0.8727   -2.8441   -1.2933 C   0  0  0  0  0  0  0  0  0  0  0  0
    2.1033   -2.7195   -1.9531 C   0  0  0  0  0  0  0  0  0  0  0  0
    2.3927   -1.5699   -2.6850 C   0  0  0  0  0  0  0  0  0  0  0  0
    1.4570   -0.5356   -2.7336 C   0  0  0  0  0  0  0  0  0  0  0  0
    1.8098    0.9337   -3.6781 S   0  0  0  0  0  0  0  0  0  0  0  0
    2.9239    0.6228   -4.5499 O   0  0  0  0  0  0  0  0  0  0  0  0
    0.5545    1.4160   -4.2128 O   0  0  0  0  0  0  0  0  0  0  0  0
    2.3549    2.0345   -2.5191 N   0  0  0  0  0  0  0  0  0  0  0  0
    3.6436    1.7598   -1.8322 C   0  0  0  0  0  0  0  0  0  0  0  0
    3.4543    1.5420   -0.3160 C   0  0  0  0  0  0  0  0  0  0  0  0
    2.7296    2.6146    0.3979 N   0  0  0  0  0  0  0  0  0  0  0  0
    3.5798    3.3973    1.3028 C   0  0  0  0  0  0  0  0  0  0  0  0
    3.9733    2.6338    2.5771 C   0  0  0  0  0  0  0  0  0  0  0  0
    4.7961    3.4494    3.4084 O   0  0  0  0  0  0  0  0  0  0  0  0
    2.0025    3.4981   -0.5359 C   0  0  0  0  0  0  0  0  0  0  0  0
    1.3338    2.7120   -1.6768 C   0  0  0  0  0  0  0  0  0  0  0  0
    0.2231   -0.6643   -2.0870 C   0  0  0  0  0  0  0  0  0  0  0  0
   -0.0861   -1.8144   -1.3323 C   0  0  0  0  0  0  0  0  0  0  0  0
   -1.3652   -1.8827   -0.6108 C   0  0  0  0  0  0  0  0  0  0  0  0
   -2.1041   -3.0092   -0.7457 N   0  0  0  0  0  0  0  0  0  0  0  0
   -3.2749   -3.0520   -0.1069 C   0  0  0  0  0  0  0  0  0  0  0  0
   -3.9872   -4.2032   -0.2535 O   0  0  0  0  0  0  0  0  0  0  0  0
   -3.6972   -1.9820    0.6356 C   0  0  0  0  0  0  0  0  0  0  0  0
   -2.8934   -0.8633    0.7085 C   0  0  0  0  0  0  0  0  0  0  0  0
   -1.7047   -0.7727    0.0768 N   0  0  0  0  0  0  0  0  0  0  0  0
   -3.5962    0.0485    1.5365 C   0  0  0  0  0  0  0  0  0  0  0  0
   -3.1848    1.4232    1.9638 C   0  0  0  0  0  0  0  0  0  0  0  0
   -3.0394    2.4022    0.7856 C   0  0  0  0  0  0  0  0  0  0  0  0
   -1.8176    3.2454    1.1197 C   0  0  0  0  0  0  0  0  0  0  0  0
   -0.8942    2.2604    1.8131 C   0  0  0  0  0  0  0  0  0  0  0  0
   -1.8339    1.4573    2.7039 C   0  0  0  0  0  0  0  0  0  0  0  0
   -4.7674   -0.4675    1.9494 N   0  0  0  0  0  0  0  0  0  0  0  0
   -4.7960   -1.6975    1.3881 N   0  0  0  0  0  0  0  0  0  0  0  0
   -5.9282   -2.5625    1.6193 C   0  0  0  0  0  0  0  0  0  0  0  0
   -1.0691   -5.8853    0.0139 H   0  0  0  0  0  0  0  0  0  0  0  0
    0.5593   -6.4232    0.4071 H   0  0  0  0  0  0  0  0  0  0  0  0
   -0.2866   -7.1279   -0.9916 H   0  0  0  0  0  0  0  0  0  0  0  0
   -0.2426   -4.9182   -2.1372 H   0  0  0  0  0  0  0  0  0  0  0  0
    1.4120   -5.4605   -1.7283 H   0  0  0  0  0  0  0  0  0  0  0  0
    2.8448   -3.5112   -1.8815 H   0  0  0  0  0  0  0  0  0  0  0  0
    3.3453   -1.4878   -3.2040 H   0  0  0  0  0  0  0  0  0  0  0  0
    4.3075    2.6150   -2.0077 H   0  0  0  0  0  0  0  0  0  0  0  0
    4.1466    0.8869   -2.2596 H   0  0  0  0  0  0  0  0  0  0  0  0
    2.8736    0.6224   -0.1719 H   0  0  0  0  0  0  0  0  0  0  0  0
    4.4365    1.3471    0.1295 H   0  0  0  0  0  0  0  0  0  0  0  0
    4.4782    3.7606    0.7864 H   0  0  0  0  0  0  0  0  0  0  0  0
    3.0459    4.2999    1.6302 H   0  0  0  0  0  0  0  0  0  0  0  0
    3.0807    2.3644    3.1513 H   0  0  0  0  0  0  0  0  0  0  0  0
    4.5245    1.7148    2.3571 H   0  0  0  0  0  0  0  0  0  0  0  0
    5.6322    3.6000    2.9357 H   0  0  0  0  0  0  0  0  0  0  0  0
    1.2301    4.0437    0.0181 H   0  0  0  0  0  0  0  0  0  0  0  0
    2.6829    4.2440   -0.9690 H   0  0  0  0  0  0  0  0  0  0  0  0
    0.6357    1.9864   -1.2511 H   0  0  0  0  0  0  0  0  0  0  0  0
    0.7680    3.4096   -2.3038 H   0  0  0  0  0  0  0  0  0  0  0  0
   -0.5113    0.1379   -2.1599 H   0  0  0  0  0  0  0  0  0  0  0  0
   -3.3846   -4.7097   -0.8279 H   0  0  0  0  0  0  0  0  0  0  0  0
   -3.9485    1.8176    2.6488 H   0  0  0  0  0  0  0  0  0  0  0  0
   -3.9339    3.0218    0.6616 H   0  0  0  0  0  0  0  0  0  0  0  0
   -2.8751    1.8807   -0.1650 H   0  0  0  0  0  0  0  0  0  0  0  0
   -1.3640    3.6879    0.2286 H   0  0  0  0  0  0  0  0  0  0  0  0
   -2.0924    4.0563    1.8044 H   0  0  0  0  0  0  0  0  0  0  0  0
   -0.4167    1.6037    1.0775 H   0  0  0  0  0  0  0  0  0  0  0  0
   -0.1064    2.7593    2.3849 H   0  0  0  0  0  0  0  0  0  0  0  0
   -1.4237    0.4692    2.9367 H   0  0  0  0  0  0  0  0  0  0  0  0
   -1.9612    1.9857    3.6574 H   0  0  0  0  0  0  0  0  0  0  0  0
   -6.3933   -2.7885    0.6566 H   0  0  0  0  0  0  0  0  0  0  0  0
   -5.5731   -3.4755    2.1035 H   0  0  0  0  0  0  0  0  0  0  0  0
   -6.6481   -2.0563    2.2679 H   0  0  0  0  0  0  0  0  0  0  0  0
  1  2  1  0
  2  3  1  0
  3  4  1  0
  4  5  1  0
  5  6  2  0
  6  7  1  0
  7  8  1  0
  8  9  2  0
  8 10  2  0
  8 11  1  0
 11 12  1  0
 12 13  1  0
 13 14  1  0
 14 15  1  0
 15 16  1  0
 16 17  1  0
 14 18  1  0
 18 19  1  0
  7 20  2  0
 20 21  1  0
 21 22  1  0
 22 23  2  0
 23 24  1  0
 24 25  1  0
 24 26  2  0
 26 27  1  0
 27 28  2  0
 27 29  1  0
 29 30  1  0
 30 31  1  0
 31 32  1  0
 32 33  1  0
 33 34  1  0
 29 35  2  0
 35 36  1  0
 36 37  1  0
 21  4  2  0
 28 22  1  0
 34 30  1  0
 19 11  1  0
 36 26  1  0
  1 38  1  0
  1 39  1  0
  1 40  1  0
  2 41  1  0
  2 42  1  0
  5 43  1  0
  6 44  1  0
 12 45  1  0
 12 46  1  0
 13 47  1  0
 13 48  1  0
 15 49  1  0
 15 50  1  0
 16 51  1  0
 16 52  1  0
 17 53  1  0
 18 54  1  0
 18 55  1  0
 19 56  1  0
 19 57  1  0
 20 58  1  0
 25 59  1  0
 30 60  1  0
 31 61  1  0
 31 62  1  0
 32 63  1  0
 32 64  1  0
 33 65  1  0
 33 66  1  0
 34 67  1  0
 34 68  1  0
 37 69  1  0
 37 70  1  0
 37 71  1  0
M  END
$$$$
