


 31 32  0  0  0  0  0  0  0  0999 V2000
    1.9330   67.2867   82.6144 C   0  0  0  0  0  0  0  0  0  0  0  0
    1.9255   68.4305   81.8135 C   0  0  0  0  0  0  0  0  0  0  0  0
    2.8573   69.4379   82.0531 C   0  0  0  0  0  0  0  0  0  0  0  0
    3.7722   69.2871   83.0875 C   0  0  0  0  0  0  0  0  0  0  0  0
    3.7137   68.1259   83.8443 C   0  0  0  0  0  0  0  0  0  0  0  0
    2.8087   67.1244   83.6391 N   0  0  0  0  0  0  0  0  0  0  0  0
    4.6778   67.9241   84.9753 C   0  0  0  0  0  0  0  0  0  0  0  0
    4.4798   68.4049   86.0847 O   0  0  0  0  0  0  0  0  0  0  0  0
    5.7717   67.1450   84.6569 N   0  0  0  0  0  0  0  0  0  0  0  0
    5.6726   66.6315   83.7846 H   0  0  0  0  0  0  0  0  0  0  0  0
    6.6378   66.5954   85.6938 C   0  0  0  0  0  0  0  0  0  0  0  0
    7.8349   65.9060   85.0541 C   0  0  0  0  0  0  0  0  0  0  0  0
    5.9014   65.5933   86.5900 C   0  0  0  0  0  0  0  0  0  0  0  0
    5.5511   64.4670   86.2686 O   0  0  0  0  0  0  0  0  0  0  0  0
    5.5850   66.0635   87.8169 O   0  0  0  0  0  0  0  0  0  0  0  0
    5.1498   65.2999   88.2499 H   0  0  0  0  0  0  0  0  0  0  0  0
    0.9117   66.1907   82.3940 C   0  0  0  0  0  0  0  0  0  0  0  0
    1.4260   64.9489   82.8749 O   0  0  0  0  0  0  0  0  0  0  0  0
    0.1331   63.1470   83.6448 C   0  0  0  0  0  0  0  0  0  0  0  0
   -0.5349   62.4638   84.6758 C   0  0  0  0  0  0  0  0  0  0  0  0
   -0.5693   62.9718   85.9823 C   0  0  0  0  0  0  0  0  0  0  0  0
    0.1023   64.1657   86.2567 C   0  0  0  0  0  0  0  0  0  0  0  0
    0.1394   64.6672   87.5285 O   0  0  0  0  0  0  0  0  0  0  0  0
    0.7758   64.8559   85.2400 C   0  0  0  0  0  0  0  0  0  0  0  0
    0.7934   64.3542   83.9336 C   0  0  0  0  0  0  0  0  0  0  0  0
    0.7216   65.4447   87.5628 H   0  0  0  0  0  0  0  0  0  0  0  0
   -1.3134   62.1767   87.0018 C   0  0  0  0  0  0  0  0  0  0  0  0
   -2.6876   62.6117   87.4360 C   0  0  0  0  0  0  0  0  0  0  0  0
   -0.7990   61.1572   87.4626 O   0  0  0  0  0  0  0  0  0  0  0  0
    1.0704   61.3380   82.1705 C   0  0  0  0  0  0  0  0  0  0  0  0
    0.1474   62.5444   82.2573 C   0  0  0  0  0  0  0  0  0  0  0  0
 30 31  1  0  0  0
 31 19  1  0  0  0
 19 20  1  0  0  0
 20 21  2  0  0  0
 21 27  1  0  0  0
 27 28  1  0  0  0
 27 29  2  0  0  0
 21 22  1  0  0  0
 22 23  1  0  0  0
 22 24  2  0  0  0
 24 25  1  0  0  0
 25 18  1  0  0  0
 18 17  1  0  0  0
 17  1  1  0  0  0
  1  2  2  0  0  0
  2  3  1  0  0  0
  3  4  2  0  0  0
  4  5  1  0  0  0
  5  7  1  0  0  0
  7  8  2  0  0  0
  7  9  1  0  0  0
  9 11  1  0  0  0
 11 12  1  0  0  0
 11 13  1  0  0  0
 13 14  2  0  0  0
 13 15  1  0  0  0
  5  6  2  0  0  0
 25 19  2  0  0  0
  6  1  1  0  0  0
 23 26  1  0  0  0
  9 10  1  0  0  0
 15 16  1  0  0  0
M  END
> <minimizedAffinity>
-9.89679

$$$$



 31 32  0  0  0  0  0  0  0  0999 V2000
   -0.3205   64.4768   80.2961 C   0  0  0  0  0  0  0  0  0  0  0  0
    0.5338   65.3403   79.6076 C   0  0  0  0  0  0  0  0  0  0  0  0
    0.9443   65.0102   78.3181 C   0  0  0  0  0  0  0  0  0  0  0  0
    0.4999   63.8256   77.7445 C   0  0  0  0  0  0  0  0  0  0  0  0
   -0.3418   63.0154   78.4928 C   0  0  0  0  0  0  0  0  0  0  0  0
   -0.7560   63.3076   79.7606 N   0  0  0  0  0  0  0  0  0  0  0  0
   -0.8403   61.7241   77.9157 C   0  0  0  0  0  0  0  0  0  0  0  0
   -0.1459   61.0385   77.1748 O   0  0  0  0  0  0  0  0  0  0  0  0
   -2.1183   61.3821   78.3090 N   0  0  0  0  0  0  0  0  0  0  0  0
   -2.4645   61.9200   79.0996 H   0  0  0  0  0  0  0  0  0  0  0  0
   -2.6405   60.0363   78.1005 C   0  0  0  0  0  0  0  0  0  0  0  0
   -3.3726   59.9677   76.7676 C   0  0  0  0  0  0  0  0  0  0  0  0
   -3.5955   59.6076   79.2202 C   0  0  0  0  0  0  0  0  0  0  0  0
   -3.5657   58.5422   79.8189 O   0  0  0  0  0  0  0  0  0  0  0  0
   -4.5739   60.4984   79.4959 O   0  0  0  0  0  0  0  0  0  0  0  0
   -5.0639   60.0797   80.2339 H   0  0  0  0  0  0  0  0  0  0  0  0
   -0.7573   64.7977   81.7100 C   0  0  0  0  0  0  0  0  0  0  0  0
    0.3297   64.5847   82.6104 O   0  0  0  0  0  0  0  0  0  0  0  0
    0.6841   64.8880   84.9112 C   0  0  0  0  0  0  0  0  0  0  0  0
    0.4388   64.5386   86.2505 C   0  0  0  0  0  0  0  0  0  0  0  0
   -0.4202   63.4808   86.5811 C   0  0  0  0  0  0  0  0  0  0  0  0
   -1.0607   62.7885   85.5504 C   0  0  0  0  0  0  0  0  0  0  0  0
   -1.9479   61.7863   85.8311 O   0  0  0  0  0  0  0  0  0  0  0  0
   -0.8291   63.1280   84.2107 C   0  0  0  0  0  0  0  0  0  0  0  0
    0.0423   64.1735   83.8845 C   0  0  0  0  0  0  0  0  0  0  0  0
   -2.3707   61.4771   85.0124 H   0  0  0  0  0  0  0  0  0  0  0  0
   -0.6056   63.1829   88.0308 C   0  0  0  0  0  0  0  0  0  0  0  0
    0.5959   62.9942   88.9179 C   0  0  0  0  0  0  0  0  0  0  0  0
   -1.7462   63.1150   88.4901 O   0  0  0  0  0  0  0  0  0  0  0  0
    3.0704   65.6782   84.8347 C   0  0  0  0  0  0  0  0  0  0  0  0
    1.6107   66.0467   84.6153 C   0  0  0  0  0  0  0  0  0  0  0  0
 30 31  1  0  0  0
 31 19  1  0  0  0
 19 20  1  0  0  0
 20 21  2  0  0  0
 21 27  1  0  0  0
 27 28  1  0  0  0
 27 29  2  0  0  0
 21 22  1  0  0  0
 22 23  1  0  0  0
 22 24  2  0  0  0
 24 25  1  0  0  0
 25 18  1  0  0  0
 18 17  1  0  0  0
 17  1  1  0  0  0
  1  2  2  0  0  0
  2  3  1  0  0  0
  3  4  2  0  0  0
  4  5  1  0  0  0
  5  7  1  0  0  0
  7  8  2  0  0  0
  7  9  1  0  0  0
  9 11  1  0  0  0
 11 12  1  0  0  0
 11 13  1  0  0  0
 13 14  2  0  0  0
 13 15  1  0  0  0
  5  6  2  0  0  0
 25 19  2  0  0  0
  6  1  1  0  0  0
 23 26  1  0  0  0
  9 10  1  0  0  0
 15 16  1  0  0  0
M  END
> <minimizedAffinity>
-9.71550

$$$$



 31 32  0  0  0  0  0  0  0  0999 V2000
   -1.0312   63.0645   85.2954 C   0  0  0  0  0  0  0  0  0  0  0  0
   -0.8782   63.0196   86.6825 C   0  0  0  0  0  0  0  0  0  0  0  0
    0.0872   63.8197   87.2893 C   0  0  0  0  0  0  0  0  0  0  0  0
    0.8826   64.6426   86.5018 C   0  0  0  0  0  0  0  0  0  0  0  0
    0.6765   64.6280   85.1299 C   0  0  0  0  0  0  0  0  0  0  0  0
   -0.2560   63.8506   84.5051 N   0  0  0  0  0  0  0  0  0  0  0  0
    1.5169   65.4954   84.2409 C   0  0  0  0  0  0  0  0  0  0  0  0
    1.0777   65.9683   83.1995 O   0  0  0  0  0  0  0  0  0  0  0  0
    2.7951   65.7204   84.7107 N   0  0  0  0  0  0  0  0  0  0  0  0
    2.9272   65.4639   85.6860 H   0  0  0  0  0  0  0  0  0  0  0  0
    3.6354   66.7710   84.1471 C   0  0  0  0  0  0  0  0  0  0  0  0
    5.0816   66.5584   84.5722 C   0  0  0  0  0  0  0  0  0  0  0  0
    3.1838   68.1687   84.5853 C   0  0  0  0  0  0  0  0  0  0  0  0
    2.5771   68.9750   83.8951 O   0  0  0  0  0  0  0  0  0  0  0  0
    3.5619   68.5151   85.8357 O   0  0  0  0  0  0  0  0  0  0  0  0
    3.1768   69.4085   85.9525 H   0  0  0  0  0  0  0  0  0  0  0  0
   -2.0527   62.1828   84.6085 C   0  0  0  0  0  0  0  0  0  0  0  0
   -2.4690   62.7901   83.3855 O   0  0  0  0  0  0  0  0  0  0  0  0
   -1.9159   62.5997   81.1120 C   0  0  0  0  0  0  0  0  0  0  0  0
   -1.8872   61.8725   79.9094 C   0  0  0  0  0  0  0  0  0  0  0  0
   -2.4360   60.5850   79.8242 C   0  0  0  0  0  0  0  0  0  0  0  0
   -2.9925   60.0147   80.9718 C   0  0  0  0  0  0  0  0  0  0  0  0
   -3.4892   58.7407   80.9455 O   0  0  0  0  0  0  0  0  0  0  0  0
   -3.0247   60.7260   82.1787 C   0  0  0  0  0  0  0  0  0  0  0  0
   -2.4911   62.0176   82.2552 C   0  0  0  0  0  0  0  0  0  0  0  0
   -3.7490   58.4663   81.8410 H   0  0  0  0  0  0  0  0  0  0  0  0
   -2.3646   59.9014   78.5003 C   0  0  0  0  0  0  0  0  0  0  0  0
   -1.0302   59.6877   77.8371 C   0  0  0  0  0  0  0  0  0  0  0  0
   -3.4028   59.5000   77.9735 O   0  0  0  0  0  0  0  0  0  0  0  0
    0.0758   64.0044   80.4919 C   0  0  0  0  0  0  0  0  0  0  0  0
   -1.2969   63.9796   81.1475 C   0  0  0  0  0  0  0  0  0  0  0  0
 30 31  1  0  0  0
 31 19  1  0  0  0
 19 20  1  0  0  0
 20 21  2  0  0  0
 21 27  1  0  0  0
 27 28  1  0  0  0
 27 29  2  0  0  0
 21 22  1  0  0  0
 22 23  1  0  0  0
 22 24  2  0  0  0
 24 25  1  0  0  0
 25 18  1  0  0  0
 18 17  1  0  0  0
 17  1  1  0  0  0
  1  2  2  0  0  0
  2  3  1  0  0  0
  3  4  2  0  0  0
  4  5  1  0  0  0
  5  7  1  0  0  0
  7  8  2  0  0  0
  7  9  1  0  0  0
  9 11  1  0  0  0
 11 12  1  0  0  0
 11 13  1  0  0  0
 13 14  2  0  0  0
 13 15  1  0  0  0
  5  6  2  0  0  0
 25 19  2  0  0  0
  6  1  1  0  0  0
 23 26  1  0  0  0
  9 10  1  0  0  0
 15 16  1  0  0  0
M  END
> <minimizedAffinity>
-9.37637

$$$$



 31 32  0  0  0  0  0  0  0  0999 V2000
    0.0099   64.7616   80.4759 C   0  0  0  0  0  0  0  0  0  0  0  0
    0.9315   65.3768   79.6263 C   0  0  0  0  0  0  0  0  0  0  0  0
    0.9467   65.0380   78.2752 C   0  0  0  0  0  0  0  0  0  0  0  0
    0.0483   64.0907   77.8007 C   0  0  0  0  0  0  0  0  0  0  0  0
   -0.8328   63.5178   78.7065 C   0  0  0  0  0  0  0  0  0  0  0  0
   -0.8677   63.8233   80.0367 N   0  0  0  0  0  0  0  0  0  0  0  0
   -1.8154   62.4857   78.2392 C   0  0  0  0  0  0  0  0  0  0  0  0
   -2.5568   62.6869   77.2848 O   0  0  0  0  0  0  0  0  0  0  0  0
   -1.7876   61.3083   78.9589 N   0  0  0  0  0  0  0  0  0  0  0  0
   -0.9687   61.2074   79.5535 H   0  0  0  0  0  0  0  0  0  0  0  0
   -2.4410   60.1020   78.4634 C   0  0  0  0  0  0  0  0  0  0  0  0
   -3.1067   59.3650   79.6172 C   0  0  0  0  0  0  0  0  0  0  0  0
   -1.4562   59.1569   77.7658 C   0  0  0  0  0  0  0  0  0  0  0  0
   -0.6009   59.4837   76.9558 O   0  0  0  0  0  0  0  0  0  0  0  0
   -1.6249   57.8496   78.0642 O   0  0  0  0  0  0  0  0  0  0  0  0
   -0.9123   57.4054   77.5593 H   0  0  0  0  0  0  0  0  0  0  0  0
   -0.0073   65.0900   81.9539 C   0  0  0  0  0  0  0  0  0  0  0  0
    0.7260   64.1008   82.6761 O   0  0  0  0  0  0  0  0  0  0  0  0
   -0.3037   62.5917   84.1504 C   0  0  0  0  0  0  0  0  0  0  0  0
   -0.7208   62.2234   85.4413 C   0  0  0  0  0  0  0  0  0  0  0  0
   -0.5173   63.0693   86.5409 C   0  0  0  0  0  0  0  0  0  0  0  0
    0.1402   64.2855   86.3402 C   0  0  0  0  0  0  0  0  0  0  0  0
    0.4071   65.1150   87.3943 O   0  0  0  0  0  0  0  0  0  0  0  0
    0.5652   64.6644   85.0598 C   0  0  0  0  0  0  0  0  0  0  0  0
    0.3450   63.8248   83.9620 C   0  0  0  0  0  0  0  0  0  0  0  0
    0.9483   65.8660   87.0981 H   0  0  0  0  0  0  0  0  0  0  0  0
   -1.0061   62.5910   87.8666 C   0  0  0  0  0  0  0  0  0  0  0  0
   -0.0283   62.0565   88.8787 C   0  0  0  0  0  0  0  0  0  0  0  0
   -2.2082   62.6591   88.1251 O   0  0  0  0  0  0  0  0  0  0  0  0
   -2.0209   61.4064   82.7466 C   0  0  0  0  0  0  0  0  0  0  0  0
   -0.5387   61.6328   83.0042 C   0  0  0  0  0  0  0  0  0  0  0  0
 30 31  1  0  0  0
 31 19  1  0  0  0
 19 20  1  0  0  0
 20 21  2  0  0  0
 21 27  1  0  0  0
 27 28  1  0  0  0
 27 29  2  0  0  0
 21 22  1  0  0  0
 22 23  1  0  0  0
 22 24  2  0  0  0
 24 25  1  0  0  0
 25 18  1  0  0  0
 18 17  1  0  0  0
 17  1  1  0  0  0
  1  2  2  0  0  0
  2  3  1  0  0  0
  3  4  2  0  0  0
  4  5  1  0  0  0
  5  7  1  0  0  0
  7  8  2  0  0  0
  7  9  1  0  0  0
  9 11  1  0  0  0
 11 12  1  0  0  0
 11 13  1  0  0  0
 13 14  2  0  0  0
 13 15  1  0  0  0
  5  6  2  0  0  0
 25 19  2  0  0  0
  6  1  1  0  0  0
 23 26  1  0  0  0
  9 10  1  0  0  0
 15 16  1  0  0  0
M  END
> <minimizedAffinity>
-9.27929

$$$$



 31 32  0  0  0  0  0  0  0  0999 V2000
    0.5445   64.7126   83.8922 C   0  0  0  0  0  0  0  0  0  0  0  0
    0.1694   65.1670   82.6263 C   0  0  0  0  0  0  0  0  0  0  0  0
    0.9237   66.1606   82.0064 C   0  0  0  0  0  0  0  0  0  0  0  0
    2.0310   66.6837   82.6622 C   0  0  0  0  0  0  0  0  0  0  0  0
    2.3373   66.1865   83.9207 C   0  0  0  0  0  0  0  0  0  0  0  0
    1.6144   65.2189   84.5572 N   0  0  0  0  0  0  0  0  0  0  0  0
    3.5200   66.7271   84.6678 C   0  0  0  0  0  0  0  0  0  0  0  0
    3.6918   67.9307   84.8191 O   0  0  0  0  0  0  0  0  0  0  0  0
    4.3632   65.7585   85.1739 N   0  0  0  0  0  0  0  0  0  0  0  0
    3.9647   64.8228   85.1721 H   0  0  0  0  0  0  0  0  0  0  0  0
    5.3755   66.0822   86.1728 C   0  0  0  0  0  0  0  0  0  0  0  0
    6.7590   65.7498   85.6315 C   0  0  0  0  0  0  0  0  0  0  0  0
    5.1546   65.3228   87.4858 C   0  0  0  0  0  0  0  0  0  0  0  0
    5.9093   65.3192   88.4474 O   0  0  0  0  0  0  0  0  0  0  0  0
    4.0391   64.5601   87.5129 O   0  0  0  0  0  0  0  0  0  0  0  0
    4.0465   64.1749   88.4138 H   0  0  0  0  0  0  0  0  0  0  0  0
   -0.2757   63.6549   84.6003 C   0  0  0  0  0  0  0  0  0  0  0  0
    0.0782   62.3619   84.1097 O   0  0  0  0  0  0  0  0  0  0  0  0
   -0.2375   61.4709   81.9608 C   0  0  0  0  0  0  0  0  0  0  0  0
   -1.0405   60.8340   80.9987 C   0  0  0  0  0  0  0  0  0  0  0  0
   -2.3704   60.4864   81.2754 C   0  0  0  0  0  0  0  0  0  0  0  0
   -2.8852   60.7575   82.5456 C   0  0  0  0  0  0  0  0  0  0  0  0
   -4.1596   60.3856   82.8742 O   0  0  0  0  0  0  0  0  0  0  0  0
   -2.0955   61.3882   83.5162 C   0  0  0  0  0  0  0  0  0  0  0  0
   -0.7738   61.7489   83.2304 C   0  0  0  0  0  0  0  0  0  0  0  0
   -4.3252   60.5613   83.8157 H   0  0  0  0  0  0  0  0  0  0  0  0
   -3.1414   59.8237   80.1838 C   0  0  0  0  0  0  0  0  0  0  0  0
   -3.4348   60.5723   78.9111 C   0  0  0  0  0  0  0  0  0  0  0  0
   -3.5124   58.6587   80.3308 O   0  0  0  0  0  0  0  0  0  0  0  0
    2.1356   60.6437   81.8676 C   0  0  0  0  0  0  0  0  0  0  0  0
    1.1942   61.8108   81.6099 C   0  0  0  0  0  0  0  0  0  0  0  0
 30 31  1  0  0  0
 31 19  1  0  0  0
 19 20  1  0  0  0
 20 21  2  0  0  0
 21 27  1  0  0  0
 27 28  1  0  0  0
 27 29  2  0  0  0
 21 22  1  0  0  0
 22 23  1  0  0  0
 22 24  2  0  0  0
 24 25  1  0  0  0
 25 18  1  0  0  0
 18 17  1  0  0  0
 17  1  1  0  0  0
  1  2  2  0  0  0
  2  3  1  0  0  0
  3  4  2  0  0  0
  4  5  1  0  0  0
  5  7  1  0  0  0
  7  8  2  0  0  0
  7  9  1  0  0  0
  9 11  1  0  0  0
 11 12  1  0  0  0
 11 13  1  0  0  0
 13 14  2  0  0  0
 13 15  1  0  0  0
  5  6  2  0  0  0
 25 19  2  0  0  0
  6  1  1  0  0  0
 23 26  1  0  0  0
  9 10  1  0  0  0
 15 16  1  0  0  0
M  END
> <minimizedAffinity>
-9.19877

$$$$



 31 32  0  0  0  0  0  0  0  0999 V2000
   -1.1692   62.0648   81.9326 C   0  0  0  0  0  0  0  0  0  0  0  0
   -1.8581   61.8906   83.1345 C   0  0  0  0  0  0  0  0  0  0  0  0
   -2.8300   60.8969   83.2267 C   0  0  0  0  0  0  0  0  0  0  0  0
   -3.0984   60.1024   82.1192 C   0  0  0  0  0  0  0  0  0  0  0  0
   -2.3777   60.3394   80.9577 C   0  0  0  0  0  0  0  0  0  0  0  0
   -1.4246   61.3093   80.8339 N   0  0  0  0  0  0  0  0  0  0  0  0
   -2.6394   59.5101   79.7359 C   0  0  0  0  0  0  0  0  0  0  0  0
   -3.5669   58.7111   79.6857 O   0  0  0  0  0  0  0  0  0  0  0  0
   -1.7675   59.7455   78.6922 N   0  0  0  0  0  0  0  0  0  0  0  0
   -1.2142   60.5920   78.7998 H   0  0  0  0  0  0  0  0  0  0  0  0
   -2.0526   59.2668   77.3442 C   0  0  0  0  0  0  0  0  0  0  0  0
   -0.8653   59.5496   76.4345 C   0  0  0  0  0  0  0  0  0  0  0  0
   -3.3058   59.9216   76.7521 C   0  0  0  0  0  0  0  0  0  0  0  0
   -3.4097   61.0904   76.4093 O   0  0  0  0  0  0  0  0  0  0  0  0
   -4.3814   59.1070   76.6731 O   0  0  0  0  0  0  0  0  0  0  0  0
   -5.0670   59.6721   76.2601 H   0  0  0  0  0  0  0  0  0  0  0  0
   -0.1294   63.1572   81.7972 C   0  0  0  0  0  0  0  0  0  0  0  0
   -0.5705   64.3300   82.4810 O   0  0  0  0  0  0  0  0  0  0  0  0
    0.8815   65.2755   84.0651 C   0  0  0  0  0  0  0  0  0  0  0  0
    1.8439   66.2304   84.4364 C   0  0  0  0  0  0  0  0  0  0  0  0
    2.2751   67.2167   83.5378 C   0  0  0  0  0  0  0  0  0  0  0  0
    1.7514   67.2205   82.2425 C   0  0  0  0  0  0  0  0  0  0  0  0
    2.1850   68.1310   81.3189 O   0  0  0  0  0  0  0  0  0  0  0  0
    0.7942   66.2726   81.8568 C   0  0  0  0  0  0  0  0  0  0  0  0
    0.3539   65.3002   82.7620 C   0  0  0  0  0  0  0  0  0  0  0  0
    1.7934   67.9369   80.4508 H   0  0  0  0  0  0  0  0  0  0  0  0
    3.2919   68.1896   84.0322 C   0  0  0  0  0  0  0  0  0  0  0  0
    4.2300   67.7959   85.1418 C   0  0  0  0  0  0  0  0  0  0  0  0
    3.3646   69.3021   83.5091 O   0  0  0  0  0  0  0  0  0  0  0  0
    0.6013   64.7270   86.5033 C   0  0  0  0  0  0  0  0  0  0  0  0
    0.4639   64.2274   85.0729 C   0  0  0  0  0  0  0  0  0  0  0  0
 30 31  1  0  0  0
 31 19  1  0  0  0
 19 20  1  0  0  0
 20 21  2  0  0  0
 21 27  1  0  0  0
 27 28  1  0  0  0
 27 29  2  0  0  0
 21 22  1  0  0  0
 22 23  1  0  0  0
 22 24  2  0  0  0
 24 25  1  0  0  0
 25 18  1  0  0  0
 18 17  1  0  0  0
 17  1  1  0  0  0
  1  2  2  0  0  0
  2  3  1  0  0  0
  3  4  2  0  0  0
  4  5  1  0  0  0
  5  7  1  0  0  0
  7  8  2  0  0  0
  7  9  1  0  0  0
  9 11  1  0  0  0
 11 12  1  0  0  0
 11 13  1  0  0  0
 13 14  2  0  0  0
 13 15  1  0  0  0
  5  6  2  0  0  0
 25 19  2  0  0  0
  6  1  1  0  0  0
 23 26  1  0  0  0
  9 10  1  0  0  0
 15 16  1  0  0  0
M  END
> <minimizedAffinity>
-9.12665

$$$$



 31 32  0  0  0  0  0  0  0  0999 V2000
   -0.7638   61.7179   82.2216 C   0  0  0  0  0  0  0  0  0  0  0  0
   -1.6558   61.7656   83.2948 C   0  0  0  0  0  0  0  0  0  0  0  0
   -2.8699   61.0889   83.2041 C   0  0  0  0  0  0  0  0  0  0  0  0
   -3.1718   60.3843   82.0456 C   0  0  0  0  0  0  0  0  0  0  0  0
   -2.2385   60.3885   81.0191 C   0  0  0  0  0  0  0  0  0  0  0  0
   -1.0438   61.0472   81.0748 N   0  0  0  0  0  0  0  0  0  0  0  0
   -2.5257   59.6467   79.7477 C   0  0  0  0  0  0  0  0  0  0  0  0
   -3.5028   58.9163   79.6342 O   0  0  0  0  0  0  0  0  0  0  0  0
   -1.6155   59.8791   78.7366 N   0  0  0  0  0  0  0  0  0  0  0  0
   -1.0097   60.6791   78.9026 H   0  0  0  0  0  0  0  0  0  0  0  0
   -1.8997   59.4952   77.3584 C   0  0  0  0  0  0  0  0  0  0  0  0
   -0.7018   59.8169   76.4758 C   0  0  0  0  0  0  0  0  0  0  0  0
   -3.1377   60.2088   76.8039 C   0  0  0  0  0  0  0  0  0  0  0  0
   -3.2107   61.3931   76.5098 O   0  0  0  0  0  0  0  0  0  0  0  0
   -4.2368   59.4289   76.7008 O   0  0  0  0  0  0  0  0  0  0  0  0
   -4.9089   60.0296   76.3169 H   0  0  0  0  0  0  0  0  0  0  0  0
    0.5493   62.4693   82.2830 C   0  0  0  0  0  0  0  0  0  0  0  0
    0.3832   63.6692   83.0383 O   0  0  0  0  0  0  0  0  0  0  0  0
    1.0669   65.9138   83.1110 C   0  0  0  0  0  0  0  0  0  0  0  0
    1.2150   67.1751   82.5083 C   0  0  0  0  0  0  0  0  0  0  0  0
    0.7741   67.4121   81.1985 C   0  0  0  0  0  0  0  0  0  0  0  0
    0.2052   66.3575   80.4801 C   0  0  0  0  0  0  0  0  0  0  0  0
   -0.1880   66.5316   79.1818 O   0  0  0  0  0  0  0  0  0  0  0  0
    0.0546   65.0937   81.0663 C   0  0  0  0  0  0  0  0  0  0  0  0
    0.4806   64.8658   82.3799 C   0  0  0  0  0  0  0  0  0  0  0  0
   -0.4717   65.6825   78.8033 H   0  0  0  0  0  0  0  0  0  0  0  0
    0.9676   68.7872   80.6540 C   0  0  0  0  0  0  0  0  0  0  0  0
    0.2616   69.9534   81.2926 C   0  0  0  0  0  0  0  0  0  0  0  0
    1.7231   68.9544   79.6960 O   0  0  0  0  0  0  0  0  0  0  0  0
    3.0818   65.8868   84.6158 C   0  0  0  0  0  0  0  0  0  0  0  0
    1.5731   65.7135   84.5225 C   0  0  0  0  0  0  0  0  0  0  0  0
 30 31  1  0  0  0
 31 19  1  0  0  0
 19 20  1  0  0  0
 20 21  2  0  0  0
 21 27  1  0  0  0
 27 28  1  0  0  0
 27 29  2  0  0  0
 21 22  1  0  0  0
 22 23  1  0  0  0
 22 24  2  0  0  0
 24 25  1  0  0  0
 25 18  1  0  0  0
 18 17  1  0  0  0
 17  1  1  0  0  0
  1  2  2  0  0  0
  2  3  1  0  0  0
  3  4  2  0  0  0
  4  5  1  0  0  0
  5  7  1  0  0  0
  7  8  2  0  0  0
  7  9  1  0  0  0
  9 11  1  0  0  0
 11 12  1  0  0  0
 11 13  1  0  0  0
 13 14  2  0  0  0
 13 15  1  0  0  0
  5  6  2  0  0  0
 25 19  2  0  0  0
  6  1  1  0  0  0
 23 26  1  0  0  0
  9 10  1  0  0  0
 15 16  1  0  0  0
M  END
> <minimizedAffinity>
-9.11272

$$$$



 31 32  0  0  0  0  0  0  0  0999 V2000
   -0.3980   64.2212   82.0864 C   0  0  0  0  0  0  0  0  0  0  0  0
   -1.1627   63.6610   81.0612 C   0  0  0  0  0  0  0  0  0  0  0  0
   -2.1325   62.7111   81.3736 C   0  0  0  0  0  0  0  0  0  0  0  0
   -2.3161   62.3359   82.6985 C   0  0  0  0  0  0  0  0  0  0  0  0
   -1.5137   62.9314   83.6610 C   0  0  0  0  0  0  0  0  0  0  0  0
   -0.5507   63.8594   83.3860 N   0  0  0  0  0  0  0  0  0  0  0  0
   -1.6728   62.5512   85.1030 C   0  0  0  0  0  0  0  0  0  0  0  0
   -2.4540   61.6762   85.4566 O   0  0  0  0  0  0  0  0  0  0  0  0
   -0.8571   63.2518   85.9684 N   0  0  0  0  0  0  0  0  0  0  0  0
   -0.1082   63.7623   85.5071 H   0  0  0  0  0  0  0  0  0  0  0  0
   -0.6542   62.8095   87.3434 C   0  0  0  0  0  0  0  0  0  0  0  0
   -1.9208   63.0467   88.1538 C   0  0  0  0  0  0  0  0  0  0  0  0
    0.5158   63.5359   88.0167 C   0  0  0  0  0  0  0  0  0  0  0  0
    1.5181   63.9539   87.4556 O   0  0  0  0  0  0  0  0  0  0  0  0
    0.4079   63.6510   89.3590 O   0  0  0  0  0  0  0  0  0  0  0  0
    1.2128   64.1491   89.6118 H   0  0  0  0  0  0  0  0  0  0  0  0
    0.6828   65.2334   81.7702 C   0  0  0  0  0  0  0  0  0  0  0  0
    0.6436   66.2944   82.7244 O   0  0  0  0  0  0  0  0  0  0  0  0
    2.4067   67.7582   83.2344 C   0  0  0  0  0  0  0  0  0  0  0  0
    3.5604   68.0866   83.9673 C   0  0  0  0  0  0  0  0  0  0  0  0
    4.0921   67.2064   84.9206 C   0  0  0  0  0  0  0  0  0  0  0  0
    3.4356   65.9960   85.1572 C   0  0  0  0  0  0  0  0  0  0  0  0
    3.8898   65.1336   86.1165 O   0  0  0  0  0  0  0  0  0  0  0  0
    2.2824   65.6567   84.4371 C   0  0  0  0  0  0  0  0  0  0  0  0
    1.7646   66.5306   83.4744 C   0  0  0  0  0  0  0  0  0  0  0  0
    3.2704   64.3914   86.2170 H   0  0  0  0  0  0  0  0  0  0  0  0
    5.3251   67.6437   85.6371 C   0  0  0  0  0  0  0  0  0  0  0  0
    6.6729   67.4600   84.9921 C   0  0  0  0  0  0  0  0  0  0  0  0
    5.2222   68.1713   86.7450 O   0  0  0  0  0  0  0  0  0  0  0  0
    2.4780   68.5480   80.8478 C   0  0  0  0  0  0  0  0  0  0  0  0
    1.8715   68.7528   82.2280 C   0  0  0  0  0  0  0  0  0  0  0  0
 30 31  1  0  0  0
 31 19  1  0  0  0
 19 20  1  0  0  0
 20 21  2  0  0  0
 21 27  1  0  0  0
 27 28  1  0  0  0
 27 29  2  0  0  0
 21 22  1  0  0  0
 22 23  1  0  0  0
 22 24  2  0  0  0
 24 25  1  0  0  0
 25 18  1  0  0  0
 18 17  1  0  0  0
 17  1  1  0  0  0
  1  2  2  0  0  0
  2  3  1  0  0  0
  3  4  2  0  0  0
  4  5  1  0  0  0
  5  7  1  0  0  0
  7  8  2  0  0  0
  7  9  1  0  0  0
  9 11  1  0  0  0
 11 12  1  0  0  0
 11 13  1  0  0  0
 13 14  2  0  0  0
 13 15  1  0  0  0
  5  6  2  0  0  0
 25 19  2  0  0  0
  6  1  1  0  0  0
 23 26  1  0  0  0
  9 10  1  0  0  0
 15 16  1  0  0  0
M  END
> <minimizedAffinity>
-9.08146

$$$$



 31 32  0  0  0  0  0  0  0  0999 V2000
    0.9946   65.7181   82.1323 C   0  0  0  0  0  0  0  0  0  0  0  0
    0.2605   66.5391   81.2739 C   0  0  0  0  0  0  0  0  0  0  0  0
    0.6015   67.8847   81.1587 C   0  0  0  0  0  0  0  0  0  0  0  0
    1.6618   68.3847   81.9042 C   0  0  0  0  0  0  0  0  0  0  0  0
    2.3395   67.5095   82.7404 C   0  0  0  0  0  0  0  0  0  0  0  0
    2.0253   66.1882   82.8805 N   0  0  0  0  0  0  0  0  0  0  0  0
    3.4862   68.0077   83.5687 C   0  0  0  0  0  0  0  0  0  0  0  0
    3.6574   69.2022   83.7805 O   0  0  0  0  0  0  0  0  0  0  0  0
    4.2968   67.0114   84.0741 N   0  0  0  0  0  0  0  0  0  0  0  0
    3.8933   66.0799   84.0118 H   0  0  0  0  0  0  0  0  0  0  0  0
    5.2593   67.2835   85.1357 C   0  0  0  0  0  0  0  0  0  0  0  0
    6.6748   67.0837   84.6122 C   0  0  0  0  0  0  0  0  0  0  0  0
    5.0435   66.3812   86.3559 C   0  0  0  0  0  0  0  0  0  0  0  0
    5.7085   66.3918   87.3816 O   0  0  0  0  0  0  0  0  0  0  0  0
    4.0528   65.4728   86.2148 O   0  0  0  0  0  0  0  0  0  0  0  0
    4.0417   65.0097   87.0782 H   0  0  0  0  0  0  0  0  0  0  0  0
    0.6255   64.2590   82.2983 C   0  0  0  0  0  0  0  0  0  0  0  0
   -0.5776   64.1496   83.0587 O   0  0  0  0  0  0  0  0  0  0  0  0
   -1.4784   63.0288   84.9144 C   0  0  0  0  0  0  0  0  0  0  0  0
   -1.4443   62.6768   86.2749 C   0  0  0  0  0  0  0  0  0  0  0  0
   -0.4382   63.1562   87.1257 C   0  0  0  0  0  0  0  0  0  0  0  0
    0.5599   63.9748   86.5912 C   0  0  0  0  0  0  0  0  0  0  0  0
    1.5893   64.4193   87.3742 O   0  0  0  0  0  0  0  0  0  0  0  0
    0.5412   64.3310   85.2361 C   0  0  0  0  0  0  0  0  0  0  0  0
   -0.4744   63.8641   84.3939 C   0  0  0  0  0  0  0  0  0  0  0  0
    2.2405   64.8933   86.8302 H   0  0  0  0  0  0  0  0  0  0  0  0
   -0.4970   62.7329   88.5548 C   0  0  0  0  0  0  0  0  0  0  0  0
    0.4218   61.6505   89.0553 C   0  0  0  0  0  0  0  0  0  0  0  0
   -1.2871   63.2920   89.3160 O   0  0  0  0  0  0  0  0  0  0  0  0
   -2.1218   61.2530   83.2539 C   0  0  0  0  0  0  0  0  0  0  0  0
   -2.5810   62.4709   84.0417 C   0  0  0  0  0  0  0  0  0  0  0  0
 30 31  1  0  0  0
 31 19  1  0  0  0
 19 20  1  0  0  0
 20 21  2  0  0  0
 21 27  1  0  0  0
 27 28  1  0  0  0
 27 29  2  0  0  0
 21 22  1  0  0  0
 22 23  1  0  0  0
 22 24  2  0  0  0
 24 25  1  0  0  0
 25 18  1  0  0  0
 18 17  1  0  0  0
 17  1  1  0  0  0
  1  2  2  0  0  0
  2  3  1  0  0  0
  3  4  2  0  0  0
  4  5  1  0  0  0
  5  7  1  0  0  0
  7  8  2  0  0  0
  7  9  1  0  0  0
  9 11  1  0  0  0
 11 12  1  0  0  0
 11 13  1  0  0  0
 13 14  2  0  0  0
 13 15  1  0  0  0
  5  6  2  0  0  0
 25 19  2  0  0  0
  6  1  1  0  0  0
 23 26  1  0  0  0
  9 10  1  0  0  0
 15 16  1  0  0  0
M  END
> <minimizedAffinity>
-9.02868

$$$$
