


 39 43  0  0  0  0  0  0  0  0999 V2000
   -0.3973   64.2327   82.2151 C   0  0  0  0  0  0  0  0  0  0  0  0
   -1.0631   63.1009   81.7244 C   0  0  0  0  0  0  0  0  0  0  0  0
   -1.0440   62.8066   80.3600 C   0  0  0  0  0  0  0  0  0  0  0  0
   -0.3808   63.6649   79.4805 C   0  0  0  0  0  0  0  0  0  0  0  0
    0.2931   64.7915   79.9593 C   0  0  0  0  0  0  0  0  0  0  0  0
    0.2746   65.0891   81.3302 C   0  0  0  0  0  0  0  0  0  0  0  0
    0.9700   66.3314   81.7711 C   0  0  0  0  0  0  0  0  0  0  0  0
    0.3864   67.5344   81.4057 N   0  0  0  0  0  0  0  0  0  0  0  0
    0.9973   68.5967   81.7957 C   0  0  0  0  0  0  0  0  0  0  0  0
    0.5390   69.8232   81.4981 O   0  0  0  0  0  0  0  0  0  0  0  0
    2.1527   68.5848   82.5458 N   0  0  0  0  0  0  0  0  0  0  0  0
    2.9666   69.5605   83.0728 C   0  0  0  0  0  0  0  0  0  0  0  0
    2.7371   71.0165   82.9114 C   0  0  0  0  0  0  0  0  0  0  0  0
    3.9699   69.0151   83.7370 N   0  0  0  0  0  0  0  0  0  0  0  0
    3.7992   67.6490   83.6320 C   0  0  0  0  0  0  0  0  0  0  0  0
    2.6694   67.3618   82.8927 C   0  0  0  0  0  0  0  0  0  0  0  0
    2.0519   66.2184   82.4945 N   0  0  0  0  0  0  0  0  0  0  0  0
   -0.2691   69.7140   80.9686 H   0  0  0  0  0  0  0  0  0  0  0  0
    4.7572   66.6976   84.2719 C   0  0  0  0  0  0  0  0  0  0  0  0
    4.0674   65.7819   85.2999 C   0  0  0  0  0  0  0  0  0  0  0  0
    4.9548   65.8117   86.5375 C   0  0  0  0  0  0  0  0  0  0  0  0
    5.5567   67.2048   86.5113 C   0  0  0  0  0  0  0  0  0  0  0  0
    5.8847   67.4090   85.0391 C   0  0  0  0  0  0  0  0  0  0  0  0
   -0.3358   63.2974   77.7386 S   0  0  0  0  0  0  0  0  0  0  0  0
   -0.9413   64.4186   77.0527 O   0  0  0  0  0  0  0  0  0  0  0  0
    1.0095   62.8657   77.4217 O   0  0  0  0  0  0  0  0  0  0  0  0
   -1.3562   61.9631   77.5909 N   0  0  0  0  0  0  0  0  0  0  0  0
   -2.6592   62.1677   76.8949 C   0  0  0  0  0  0  0  0  0  0  0  0
   -3.3254   60.8238   76.5217 C   0  0  0  0  0  0  0  0  0  0  0  0
   -3.1685   59.7490   77.5219 N   0  0  0  0  0  0  0  0  0  0  0  0
   -1.7237   59.5141   77.7818 C   0  0  0  0  0  0  0  0  0  0  0  0
   -0.7533   60.6341   77.3332 C   0  0  0  0  0  0  0  0  0  0  0  0
   -3.8730   60.0318   78.7928 C   0  0  0  0  0  0  0  0  0  0  0  0
   -3.0840   59.6877   80.0699 C   0  0  0  0  0  0  0  0  0  0  0  0
   -3.4937   58.4383   80.6242 O   0  0  0  0  0  0  0  0  0  0  0  0
   -4.4279   58.5310   80.8810 H   0  0  0  0  0  0  0  0  0  0  0  0
   -0.5107   64.5553   83.5424 O   0  0  0  0  0  0  0  0  0  0  0  0
    0.5981   64.3831   85.6489 C   0  0  0  0  0  0  0  0  0  0  0  0
    0.2172   63.6471   84.3772 C   0  0  0  0  0  0  0  0  0  0  0  0
 38 39  1  0  0  0
 39 37  1  0  0  0
 37  1  1  0  0  0
  1  2  1  0  0  0
  2  3  2  0  0  0
  3  4  1  0  0  0
  4 24  1  0  0  0
 24 25  2  0  0  0
 24 26  2  0  0  0
 24 27  1  0  0  0
 27 28  1  0  0  0
 28 29  1  0  0  0
 29 30  1  0  0  0
 30 33  1  0  0  0
 33 34  1  0  0  0
 34 35  1  0  0  0
 30 31  1  0  0  0
 31 32  1  0  0  0
  4  5  2  0  0  0
  5  6  1  0  0  0
  6  7  1  0  0  0
  7  8  1  0  0  0
  8  9  2  0  0  0
  9 10  1  0  0  0
  9 11  1  0  0  0
 11 12  1  0  0  0
 12 13  1  0  0  0
 12 14  2  0  0  0
 14 15  1  0  0  0
 15 19  1  0  0  0
 19 20  1  0  0  0
 20 21  1  0  0  0
 21 22  1  0  0  0
 22 23  1  0  0  0
 15 16  2  0  0  0
 16 17  1  0  0  0
  6  1  2  0  0  0
 17  7  2  0  0  0
 32 27  1  0  0  0
 16 11  1  0  0  0
 23 19  1  0  0  0
 35 36  1  0  0  0
 10 18  1  0  0  0
M  END
> <minimizedAffinity>
-10.65645

$$$$



 39 43  0  0  0  0  0  0  0  0999 V2000
   -0.8654   63.1549   83.7484 C   0  0  0  0  0  0  0  0  0  0  0  0
   -1.5615   61.9690   84.0202 C   0  0  0  0  0  0  0  0  0  0  0  0
   -2.2983   61.3369   83.0171 C   0  0  0  0  0  0  0  0  0  0  0  0
   -2.3620   61.9104   81.7454 C   0  0  0  0  0  0  0  0  0  0  0  0
   -1.6655   63.0879   81.4609 C   0  0  0  0  0  0  0  0  0  0  0  0
   -0.9249   63.7248   82.4680 C   0  0  0  0  0  0  0  0  0  0  0  0
   -0.2457   65.0034   82.1143 C   0  0  0  0  0  0  0  0  0  0  0  0
   -0.6213   65.5981   80.9199 N   0  0  0  0  0  0  0  0  0  0  0  0
   -0.0278   66.7016   80.6305 C   0  0  0  0  0  0  0  0  0  0  0  0
   -0.2957   67.3704   79.4974 O   0  0  0  0  0  0  0  0  0  0  0  0
    0.9159   67.2988   81.4371 N   0  0  0  0  0  0  0  0  0  0  0  0
    1.6667   68.4481   81.3493 C   0  0  0  0  0  0  0  0  0  0  0  0
    1.6086   69.3988   80.2129 C   0  0  0  0  0  0  0  0  0  0  0  0
    2.4366   68.5785   82.4148 N   0  0  0  0  0  0  0  0  0  0  0  0
    2.1768   67.4802   83.2101 C   0  0  0  0  0  0  0  0  0  0  0  0
    1.2293   66.6708   82.6163 C   0  0  0  0  0  0  0  0  0  0  0  0
    0.6243   65.5011   82.9522 N   0  0  0  0  0  0  0  0  0  0  0  0
   -0.9649   66.8624   79.0081 H   0  0  0  0  0  0  0  0  0  0  0  0
    2.8731   67.2893   84.5183 C   0  0  0  0  0  0  0  0  0  0  0  0
    3.9088   68.3954   84.7921 C   0  0  0  0  0  0  0  0  0  0  0  0
    5.1698   67.6737   85.2492 C   0  0  0  0  0  0  0  0  0  0  0  0
    5.1178   66.3552   84.4991 C   0  0  0  0  0  0  0  0  0  0  0  0
    3.6499   65.9639   84.5948 C   0  0  0  0  0  0  0  0  0  0  0  0
   -3.2869   61.1104   80.4509 S   0  0  0  0  0  0  0  0  0  0  0  0
   -3.2357   59.6876   80.7100 O   0  0  0  0  0  0  0  0  0  0  0  0
   -4.5529   61.8030   80.3316 O   0  0  0  0  0  0  0  0  0  0  0  0
   -2.3856   61.4362   79.0635 N   0  0  0  0  0  0  0  0  0  0  0  0
   -1.2383   60.5326   78.7609 C   0  0  0  0  0  0  0  0  0  0  0  0
   -0.7290   60.7201   77.3137 C   0  0  0  0  0  0  0  0  0  0  0  0
   -0.7384   62.1125   76.8228 N   0  0  0  0  0  0  0  0  0  0  0  0
   -2.1127   62.6702   76.9252 C   0  0  0  0  0  0  0  0  0  0  0  0
   -3.0945   61.9132   77.8528 C   0  0  0  0  0  0  0  0  0  0  0  0
    0.2183   62.9866   77.5386 C   0  0  0  0  0  0  0  0  0  0  0  0
   -0.1287   64.4870   77.5252 C   0  0  0  0  0  0  0  0  0  0  0  0
    0.9677   65.2874   77.9651 O   0  0  0  0  0  0  0  0  0  0  0  0
    1.1481   65.0434   78.8899 H   0  0  0  0  0  0  0  0  0  0  0  0
   -0.2295   63.8094   84.7712 O   0  0  0  0  0  0  0  0  0  0  0  0
    0.1332   64.0866   87.1139 C   0  0  0  0  0  0  0  0  0  0  0  0
   -0.6063   63.2922   86.0526 C   0  0  0  0  0  0  0  0  0  0  0  0
 38 39  1  0  0  0
 39 37  1  0  0  0
 37  1  1  0  0  0
  1  2  1  0  0  0
  2  3  2  0  0  0
  3  4  1  0  0  0
  4 24  1  0  0  0
 24 25  2  0  0  0
 24 26  2  0  0  0
 24 27  1  0  0  0
 27 28  1  0  0  0
 28 29  1  0  0  0
 29 30  1  0  0  0
 30 33  1  0  0  0
 33 34  1  0  0  0
 34 35  1  0  0  0
 30 31  1  0  0  0
 31 32  1  0  0  0
  4  5  2  0  0  0
  5  6  1  0  0  0
  6  7  1  0  0  0
  7  8  1  0  0  0
  8  9  2  0  0  0
  9 10  1  0  0  0
  9 11  1  0  0  0
 11 12  1  0  0  0
 12 13  1  0  0  0
 12 14  2  0  0  0
 14 15  1  0  0  0
 15 19  1  0  0  0
 19 20  1  0  0  0
 20 21  1  0  0  0
 21 22  1  0  0  0
 22 23  1  0  0  0
 15 16  2  0  0  0
 16 17  1  0  0  0
  6  1  2  0  0  0
 17  7  2  0  0  0
 32 27  1  0  0  0
 16 11  1  0  0  0
 23 19  1  0  0  0
 35 36  1  0  0  0
 10 18  1  0  0  0
M  END
> <minimizedAffinity>
-10.42660

$$$$



 39 43  0  0  0  0  0  0  0  0999 V2000
   -0.7212   63.6776   82.8295 C   0  0  0  0  0  0  0  0  0  0  0  0
   -1.5640   62.8188   82.1104 C   0  0  0  0  0  0  0  0  0  0  0  0
   -1.4635   62.7311   80.7208 C   0  0  0  0  0  0  0  0  0  0  0  0
   -0.5360   63.5282   80.0467 C   0  0  0  0  0  0  0  0  0  0  0  0
    0.3149   64.3818   80.7539 C   0  0  0  0  0  0  0  0  0  0  0  0
    0.2150   64.4715   82.1505 C   0  0  0  0  0  0  0  0  0  0  0  0
    1.1163   65.4368   82.8412 C   0  0  0  0  0  0  0  0  0  0  0  0
    1.8045   64.9637   83.9474 N   0  0  0  0  0  0  0  0  0  0  0  0
    2.5796   65.8081   84.5305 C   0  0  0  0  0  0  0  0  0  0  0  0
    3.2933   65.4759   85.6182 O   0  0  0  0  0  0  0  0  0  0  0  0
    2.7571   67.1063   84.1050 N   0  0  0  0  0  0  0  0  0  0  0  0
    3.5128   68.1676   84.5464 C   0  0  0  0  0  0  0  0  0  0  0  0
    4.4019   68.1237   85.7323 C   0  0  0  0  0  0  0  0  0  0  0  0
    3.3326   69.2182   83.7662 N   0  0  0  0  0  0  0  0  0  0  0  0
    2.4325   68.8235   82.7964 C   0  0  0  0  0  0  0  0  0  0  0  0
    2.0629   67.5078   82.9914 C   0  0  0  0  0  0  0  0  0  0  0  0
    1.2320   66.6428   82.3524 N   0  0  0  0  0  0  0  0  0  0  0  0
    3.0903   64.5490   85.8305 H   0  0  0  0  0  0  0  0  0  0  0  0
    1.9880   69.7638   81.7237 C   0  0  0  0  0  0  0  0  0  0  0  0
    0.5185   70.1901   81.8969 C   0  0  0  0  0  0  0  0  0  0  0  0
   -0.1187   70.0366   80.5220 C   0  0  0  0  0  0  0  0  0  0  0  0
    0.6409   68.8769   79.9044 C   0  0  0  0  0  0  0  0  0  0  0  0
    2.0804   69.1520   80.3156 C   0  0  0  0  0  0  0  0  0  0  0  0
   -0.3859   63.4193   78.2756 S   0  0  0  0  0  0  0  0  0  0  0  0
   -0.9660   64.6257   77.7257 O   0  0  0  0  0  0  0  0  0  0  0  0
    0.9811   63.0453   77.9790 O   0  0  0  0  0  0  0  0  0  0  0  0
   -1.3780   62.1158   77.8754 N   0  0  0  0  0  0  0  0  0  0  0  0
   -2.6674   62.4182   77.1899 C   0  0  0  0  0  0  0  0  0  0  0  0
   -3.2999   61.1487   76.5755 C   0  0  0  0  0  0  0  0  0  0  0  0
   -3.1475   59.9212   77.3817 N   0  0  0  0  0  0  0  0  0  0  0  0
   -1.7052   59.6653   77.6363 C   0  0  0  0  0  0  0  0  0  0  0  0
   -0.7450   60.8589   77.4113 C   0  0  0  0  0  0  0  0  0  0  0  0
   -3.8873   59.9729   78.6629 C   0  0  0  0  0  0  0  0  0  0  0  0
   -3.1427   59.3802   79.8738 C   0  0  0  0  0  0  0  0  0  0  0  0
   -3.3719   57.9775   80.0010 O   0  0  0  0  0  0  0  0  0  0  0  0
   -4.3240   57.8560   80.1627 H   0  0  0  0  0  0  0  0  0  0  0  0
   -0.9029   63.8201   84.1807 O   0  0  0  0  0  0  0  0  0  0  0  0
   -0.8375   62.2572   85.9834 C   0  0  0  0  0  0  0  0  0  0  0  0
   -1.5975   62.7029   84.7472 C   0  0  0  0  0  0  0  0  0  0  0  0
 38 39  1  0  0  0
 39 37  1  0  0  0
 37  1  1  0  0  0
  1  2  1  0  0  0
  2  3  2  0  0  0
  3  4  1  0  0  0
  4 24  1  0  0  0
 24 25  2  0  0  0
 24 26  2  0  0  0
 24 27  1  0  0  0
 27 28  1  0  0  0
 28 29  1  0  0  0
 29 30  1  0  0  0
 30 33  1  0  0  0
 33 34  1  0  0  0
 34 35  1  0  0  0
 30 31  1  0  0  0
 31 32  1  0  0  0
  4  5  2  0  0  0
  5  6  1  0  0  0
  6  7  1  0  0  0
  7  8  1  0  0  0
  8  9  2  0  0  0
  9 10  1  0  0  0
  9 11  1  0  0  0
 11 12  1  0  0  0
 12 13  1  0  0  0
 12 14  2  0  0  0
 14 15  1  0  0  0
 15 19  1  0  0  0
 19 20  1  0  0  0
 20 21  1  0  0  0
 21 22  1  0  0  0
 22 23  1  0  0  0
 15 16  2  0  0  0
 16 17  1  0  0  0
  6  1  2  0  0  0
 17  7  2  0  0  0
 32 27  1  0  0  0
 16 11  1  0  0  0
 23 19  1  0  0  0
 35 36  1  0  0  0
 10 18  1  0  0  0
M  END
> <minimizedAffinity>
-10.40514

$$$$



 39 43  0  0  0  0  0  0  0  0999 V2000
    0.1578   63.7406   85.0342 C   0  0  0  0  0  0  0  0  0  0  0  0
   -0.6682   62.6178   85.1821 C   0  0  0  0  0  0  0  0  0  0  0  0
   -1.3096   62.0620   84.0737 C   0  0  0  0  0  0  0  0  0  0  0  0
   -1.1466   62.6508   82.8180 C   0  0  0  0  0  0  0  0  0  0  0  0
   -0.3192   63.7653   82.6573 C   0  0  0  0  0  0  0  0  0  0  0  0
    0.3259   64.3254   83.7702 C   0  0  0  0  0  0  0  0  0  0  0  0
    1.1545   65.5429   83.5409 C   0  0  0  0  0  0  0  0  0  0  0  0
    0.6545   66.4768   82.6470 N   0  0  0  0  0  0  0  0  0  0  0  0
    1.3800   67.5223   82.4620 C   0  0  0  0  0  0  0  0  0  0  0  0
    1.0111   68.4957   81.6139 O   0  0  0  0  0  0  0  0  0  0  0  0
    2.5776   67.7476   83.1045 N   0  0  0  0  0  0  0  0  0  0  0  0
    3.5067   68.7618   83.0780 C   0  0  0  0  0  0  0  0  0  0  0  0
    3.3941   69.9755   82.2337 C   0  0  0  0  0  0  0  0  0  0  0  0
    4.5010   68.4981   83.9068 N   0  0  0  0  0  0  0  0  0  0  0  0
    4.2057   67.2778   84.4811 C   0  0  0  0  0  0  0  0  0  0  0  0
    3.0083   66.7946   83.9930 C   0  0  0  0  0  0  0  0  0  0  0  0
    2.2685   65.6754   84.2102 N   0  0  0  0  0  0  0  0  0  0  0  0
    0.1629   68.2335   81.2174 H   0  0  0  0  0  0  0  0  0  0  0  0
    5.1181   66.6542   85.4867 C   0  0  0  0  0  0  0  0  0  0  0  0
    6.3455   67.5355   85.7830 C   0  0  0  0  0  0  0  0  0  0  0  0
    7.5471   66.6017   85.7184 C   0  0  0  0  0  0  0  0  0  0  0  0
    7.1398   65.5673   84.6851 C   0  0  0  0  0  0  0  0  0  0  0  0
    5.6806   65.2991   85.0251 C   0  0  0  0  0  0  0  0  0  0  0  0
   -1.9473   61.9469   81.3916 S   0  0  0  0  0  0  0  0  0  0  0  0
   -1.7551   60.5143   81.4609 O   0  0  0  0  0  0  0  0  0  0  0  0
   -3.2750   62.5196   81.3137 O   0  0  0  0  0  0  0  0  0  0  0  0
   -1.0475   62.5474   80.0981 N   0  0  0  0  0  0  0  0  0  0  0  0
    0.3890   62.1549   80.0188 C   0  0  0  0  0  0  0  0  0  0  0  0
    0.9929   62.4724   78.6319 C   0  0  0  0  0  0  0  0  0  0  0  0
    0.5228   63.7304   78.0182 N   0  0  0  0  0  0  0  0  0  0  0  0
   -0.9593   63.7084   77.9041 C   0  0  0  0  0  0  0  0  0  0  0  0
   -1.7004   62.6627   78.7728 C   0  0  0  0  0  0  0  0  0  0  0  0
    0.9565   64.9356   78.7605 C   0  0  0  0  0  0  0  0  0  0  0  0
   -0.1767   65.8917   79.1770 C   0  0  0  0  0  0  0  0  0  0  0  0
    0.2932   67.2288   79.3420 O   0  0  0  0  0  0  0  0  0  0  0  0
    0.9403   67.2178   80.0690 H   0  0  0  0  0  0  0  0  0  0  0  0
    0.6988   64.3274   86.1486 O   0  0  0  0  0  0  0  0  0  0  0  0
    0.7655   63.3787   88.3377 C   0  0  0  0  0  0  0  0  0  0  0  0
   -0.0985   64.0947   87.3155 C   0  0  0  0  0  0  0  0  0  0  0  0
 38 39  1  0  0  0
 39 37  1  0  0  0
 37  1  1  0  0  0
  1  2  1  0  0  0
  2  3  2  0  0  0
  3  4  1  0  0  0
  4 24  1  0  0  0
 24 25  2  0  0  0
 24 26  2  0  0  0
 24 27  1  0  0  0
 27 28  1  0  0  0
 28 29  1  0  0  0
 29 30  1  0  0  0
 30 33  1  0  0  0
 33 34  1  0  0  0
 34 35  1  0  0  0
 30 31  1  0  0  0
 31 32  1  0  0  0
  4  5  2  0  0  0
  5  6  1  0  0  0
  6  7  1  0  0  0
  7  8  1  0  0  0
  8  9  2  0  0  0
  9 10  1  0  0  0
  9 11  1  0  0  0
 11 12  1  0  0  0
 12 13  1  0  0  0
 12 14  2  0  0  0
 14 15  1  0  0  0
 15 19  1  0  0  0
 19 20  1  0  0  0
 20 21  1  0  0  0
 21 22  1  0  0  0
 22 23  1  0  0  0
 15 16  2  0  0  0
 16 17  1  0  0  0
  6  1  2  0  0  0
 17  7  2  0  0  0
 32 27  1  0  0  0
 16 11  1  0  0  0
 23 19  1  0  0  0
 35 36  1  0  0  0
 10 18  1  0  0  0
M  END
> <minimizedAffinity>
-10.26833

$$$$



 39 43  0  0  0  0  0  0  0  0999 V2000
   -0.0949   63.2056   85.5879 C   0  0  0  0  0  0  0  0  0  0  0  0
    0.5837   64.0540   86.4737 C   0  0  0  0  0  0  0  0  0  0  0  0
    1.3310   65.1290   85.9891 C   0  0  0  0  0  0  0  0  0  0  0  0
    1.4230   65.3371   84.6113 C   0  0  0  0  0  0  0  0  0  0  0  0
    0.7441   64.5027   83.7194 C   0  0  0  0  0  0  0  0  0  0  0  0
   -0.0071   63.4216   84.2046 C   0  0  0  0  0  0  0  0  0  0  0  0
   -0.6663   62.5398   83.2001 C   0  0  0  0  0  0  0  0  0  0  0  0
   -1.6629   61.6984   83.6693 N   0  0  0  0  0  0  0  0  0  0  0  0
   -2.2232   60.9458   82.7898 C   0  0  0  0  0  0  0  0  0  0  0  0
   -3.1952   60.0799   83.1189 O   0  0  0  0  0  0  0  0  0  0  0  0
   -1.8956   60.9559   81.4518 N   0  0  0  0  0  0  0  0  0  0  0  0
   -2.3425   60.2677   80.3476 C   0  0  0  0  0  0  0  0  0  0  0  0
   -3.4040   59.2329   80.3817 C   0  0  0  0  0  0  0  0  0  0  0  0
   -1.6950   60.6615   79.2656 N   0  0  0  0  0  0  0  0  0  0  0  0
   -0.8032   61.6284   79.6852 C   0  0  0  0  0  0  0  0  0  0  0  0
   -0.9149   61.8261   81.0468 C   0  0  0  0  0  0  0  0  0  0  0  0
   -0.2988   62.6334   81.9500 N   0  0  0  0  0  0  0  0  0  0  0  0
   -3.3412   60.1530   84.0774 H   0  0  0  0  0  0  0  0  0  0  0  0
    0.1093   62.3117   78.7193 C   0  0  0  0  0  0  0  0  0  0  0  0
    0.1202   63.8394   78.9113 C   0  0  0  0  0  0  0  0  0  0  0  0
   -0.0311   64.4302   77.5156 C   0  0  0  0  0  0  0  0  0  0  0  0
   -0.8765   63.4039   76.7837 C   0  0  0  0  0  0  0  0  0  0  0  0
   -0.2902   62.0796   77.2522 C   0  0  0  0  0  0  0  0  0  0  0  0
    2.3615   66.7111   83.9770 S   0  0  0  0  0  0  0  0  0  0  0  0
    2.6282   66.4347   82.5818 O   0  0  0  0  0  0  0  0  0  0  0  0
    1.6814   67.9237   84.3816 O   0  0  0  0  0  0  0  0  0  0  0  0
    3.8140   66.6231   84.8289 N   0  0  0  0  0  0  0  0  0  0  0  0
    4.8676   65.7101   84.2993 C   0  0  0  0  0  0  0  0  0  0  0  0
    6.2419   65.9833   84.9518 C   0  0  0  0  0  0  0  0  0  0  0  0
    6.1957   66.3242   86.3877 N   0  0  0  0  0  0  0  0  0  0  0  0
    5.3215   67.5090   86.5930 C   0  0  0  0  0  0  0  0  0  0  0  0
    4.3580   67.8619   85.4334 C   0  0  0  0  0  0  0  0  0  0  0  0
    5.7359   65.2016   87.2361 C   0  0  0  0  0  0  0  0  0  0  0  0
    5.6674   65.5055   88.7443 C   0  0  0  0  0  0  0  0  0  0  0  0
    6.6110   64.7311   89.4833 O   0  0  0  0  0  0  0  0  0  0  0  0
    6.3674   63.7959   89.3683 H   0  0  0  0  0  0  0  0  0  0  0  0
   -0.7414   62.1012   86.0789 O   0  0  0  0  0  0  0  0  0  0  0  0
   -2.7617   62.8336   87.1172 C   0  0  0  0  0  0  0  0  0  0  0  0
   -1.3406   62.3558   87.3546 C   0  0  0  0  0  0  0  0  0  0  0  0
 38 39  1  0  0  0
 39 37  1  0  0  0
 37  1  1  0  0  0
  1  2  1  0  0  0
  2  3  2  0  0  0
  3  4  1  0  0  0
  4 24  1  0  0  0
 24 25  2  0  0  0
 24 26  2  0  0  0
 24 27  1  0  0  0
 27 28  1  0  0  0
 28 29  1  0  0  0
 29 30  1  0  0  0
 30 33  1  0  0  0
 33 34  1  0  0  0
 34 35  1  0  0  0
 30 31  1  0  0  0
 31 32  1  0  0  0
  4  5  2  0  0  0
  5  6  1  0  0  0
  6  7  1  0  0  0
  7  8  1  0  0  0
  8  9  2  0  0  0
  9 10  1  0  0  0
  9 11  1  0  0  0
 11 12  1  0  0  0
 12 13  1  0  0  0
 12 14  2  0  0  0
 14 15  1  0  0  0
 15 19  1  0  0  0
 19 20  1  0  0  0
 20 21  1  0  0  0
 21 22  1  0  0  0
 22 23  1  0  0  0
 15 16  2  0  0  0
 16 17  1  0  0  0
  6  1  2  0  0  0
 17  7  2  0  0  0
 32 27  1  0  0  0
 16 11  1  0  0  0
 23 19  1  0  0  0
 35 36  1  0  0  0
 10 18  1  0  0  0
M  END
> <minimizedAffinity>
-10.07717

$$$$



 39 43  0  0  0  0  0  0  0  0999 V2000
    3.2745   67.2593   84.1041 C   0  0  0  0  0  0  0  0  0  0  0  0
    4.1147   68.3580   83.8770 C   0  0  0  0  0  0  0  0  0  0  0  0
    3.9167   69.1809   82.7669 C   0  0  0  0  0  0  0  0  0  0  0  0
    2.8922   68.8848   81.8653 C   0  0  0  0  0  0  0  0  0  0  0  0
    2.0434   67.7969   82.0860 C   0  0  0  0  0  0  0  0  0  0  0  0
    2.2412   66.9686   83.2009 C   0  0  0  0  0  0  0  0  0  0  0  0
    1.3337   65.7961   83.3530 C   0  0  0  0  0  0  0  0  0  0  0  0
    0.9730   65.1334   82.1903 N   0  0  0  0  0  0  0  0  0  0  0  0
    0.1916   64.1228   82.3387 C   0  0  0  0  0  0  0  0  0  0  0  0
   -0.2380   63.4034   81.2895 O   0  0  0  0  0  0  0  0  0  0  0  0
   -0.2679   63.6823   83.5605 N   0  0  0  0  0  0  0  0  0  0  0  0
   -1.0852   62.6526   83.9655 C   0  0  0  0  0  0  0  0  0  0  0  0
   -1.7278   61.6846   83.0443 C   0  0  0  0  0  0  0  0  0  0  0  0
   -1.2101   62.6530   85.2806 N   0  0  0  0  0  0  0  0  0  0  0  0
   -0.4544   63.7152   85.7354 C   0  0  0  0  0  0  0  0  0  0  0  0
    0.1419   64.3688   84.6758 C   0  0  0  0  0  0  0  0  0  0  0  0
    0.9645   65.4439   84.5555 N   0  0  0  0  0  0  0  0  0  0  0  0
    0.1400   63.8009   80.4868 H   0  0  0  0  0  0  0  0  0  0  0  0
   -0.3552   64.0269   87.1933 C   0  0  0  0  0  0  0  0  0  0  0  0
    1.0140   63.6360   87.7793 C   0  0  0  0  0  0  0  0  0  0  0  0
    0.7098   62.8830   89.0679 C   0  0  0  0  0  0  0  0  0  0  0  0
   -0.6152   62.2018   88.7785 C   0  0  0  0  0  0  0  0  0  0  0  0
   -1.3988   63.2763   88.0381 C   0  0  0  0  0  0  0  0  0  0  0  0
    2.6178   69.9315   80.4510 S   0  0  0  0  0  0  0  0  0  0  0  0
    3.8719   70.5942   80.1640 O   0  0  0  0  0  0  0  0  0  0  0  0
    1.9471   69.1339   79.4456 O   0  0  0  0  0  0  0  0  0  0  0  0
    1.5210   71.0801   81.0175 N   0  0  0  0  0  0  0  0  0  0  0  0
    0.0695   70.8024   80.8169 C   0  0  0  0  0  0  0  0  0  0  0  0
   -0.8151   71.7355   81.6748 C   0  0  0  0  0  0  0  0  0  0  0  0
   -0.3256   73.1231   81.7972 N   0  0  0  0  0  0  0  0  0  0  0  0
    1.0527   73.1203   82.3545 C   0  0  0  0  0  0  0  0  0  0  0  0
    1.8168   71.7751   82.2925 C   0  0  0  0  0  0  0  0  0  0  0  0
   -0.3528   73.8632   80.5154 C   0  0  0  0  0  0  0  0  0  0  0  0
    0.8396   74.8090   80.2794 C   0  0  0  0  0  0  0  0  0  0  0  0
    1.4773   74.5541   79.0286 O   0  0  0  0  0  0  0  0  0  0  0  0
    1.8330   73.6490   79.0672 H   0  0  0  0  0  0  0  0  0  0  0  0
    3.5468   66.4098   85.1448 O   0  0  0  0  0  0  0  0  0  0  0  0
    5.1406   65.1458   86.3933 C   0  0  0  0  0  0  0  0  0  0  0  0
    4.9304   66.0414   85.1858 C   0  0  0  0  0  0  0  0  0  0  0  0
 38 39  1  0  0  0
 39 37  1  0  0  0
 37  1  1  0  0  0
  1  2  1  0  0  0
  2  3  2  0  0  0
  3  4  1  0  0  0
  4 24  1  0  0  0
 24 25  2  0  0  0
 24 26  2  0  0  0
 24 27  1  0  0  0
 27 28  1  0  0  0
 28 29  1  0  0  0
 29 30  1  0  0  0
 30 33  1  0  0  0
 33 34  1  0  0  0
 34 35  1  0  0  0
 30 31  1  0  0  0
 31 32  1  0  0  0
  4  5  2  0  0  0
  5  6  1  0  0  0
  6  7  1  0  0  0
  7  8  1  0  0  0
  8  9  2  0  0  0
  9 10  1  0  0  0
  9 11  1  0  0  0
 11 12  1  0  0  0
 12 13  1  0  0  0
 12 14  2  0  0  0
 14 15  1  0  0  0
 15 19  1  0  0  0
 19 20  1  0  0  0
 20 21  1  0  0  0
 21 22  1  0  0  0
 22 23  1  0  0  0
 15 16  2  0  0  0
 16 17  1  0  0  0
  6  1  2  0  0  0
 17  7  2  0  0  0
 32 27  1  0  0  0
 16 11  1  0  0  0
 23 19  1  0  0  0
 35 36  1  0  0  0
 10 18  1  0  0  0
M  END
> <minimizedAffinity>
-9.77519

$$$$



 39 43  0  0  0  0  0  0  0  0999 V2000
    3.1171   67.0849   84.2631 C   0  0  0  0  0  0  0  0  0  0  0  0
    3.7747   68.1505   83.6329 C   0  0  0  0  0  0  0  0  0  0  0  0
    3.1916   68.7923   82.5389 C   0  0  0  0  0  0  0  0  0  0  0  0
    1.9596   68.3459   82.0561 C   0  0  0  0  0  0  0  0  0  0  0  0
    1.2913   67.2900   82.6813 C   0  0  0  0  0  0  0  0  0  0  0  0
    1.8760   66.6436   83.7808 C   0  0  0  0  0  0  0  0  0  0  0  0
    1.1361   65.4927   84.3718 C   0  0  0  0  0  0  0  0  0  0  0  0
    1.1395   65.3944   85.7544 N   0  0  0  0  0  0  0  0  0  0  0  0
    0.4949   64.3975   86.2486 C   0  0  0  0  0  0  0  0  0  0  0  0
    0.4310   64.1856   87.5730 O   0  0  0  0  0  0  0  0  0  0  0  0
   -0.1847   63.4713   85.4881 N   0  0  0  0  0  0  0  0  0  0  0  0
   -0.9307   62.3521   85.7767 C   0  0  0  0  0  0  0  0  0  0  0  0
   -1.1806   61.8457   87.1477 C   0  0  0  0  0  0  0  0  0  0  0  0
   -1.3870   61.8029   84.6653 N   0  0  0  0  0  0  0  0  0  0  0  0
   -0.9187   62.5888   83.6311 C   0  0  0  0  0  0  0  0  0  0  0  0
   -0.1671   63.6355   84.1259 C   0  0  0  0  0  0  0  0  0  0  0  0
    0.5074   64.6759   83.5692 N   0  0  0  0  0  0  0  0  0  0  0  0
    0.9430   64.8887   88.0076 H   0  0  0  0  0  0  0  0  0  0  0  0
   -1.2424   62.2691   82.2079 C   0  0  0  0  0  0  0  0  0  0  0  0
   -2.4145   63.1135   81.6747 C   0  0  0  0  0  0  0  0  0  0  0  0
   -3.3428   62.1310   80.9726 C   0  0  0  0  0  0  0  0  0  0  0  0
   -3.1610   60.8451   81.7581 C   0  0  0  0  0  0  0  0  0  0  0  0
   -1.6595   60.8027   82.0039 C   0  0  0  0  0  0  0  0  0  0  0  0
    1.1959   69.1615   80.6694 S   0  0  0  0  0  0  0  0  0  0  0  0
    2.0454   68.9306   79.5209 O   0  0  0  0  0  0  0  0  0  0  0  0
   -0.2000   68.7766   80.6556 O   0  0  0  0  0  0  0  0  0  0  0  0
    1.2786   70.7952   81.0786 N   0  0  0  0  0  0  0  0  0  0  0  0
    2.4404   71.5752   80.5629 C   0  0  0  0  0  0  0  0  0  0  0  0
    2.2165   73.0977   80.7076 C   0  0  0  0  0  0  0  0  0  0  0  0
    1.5212   73.5131   81.9421 N   0  0  0  0  0  0  0  0  0  0  0  0
    0.2077   72.8227   82.0334 C   0  0  0  0  0  0  0  0  0  0  0  0
    0.0213   71.5776   81.1321 C   0  0  0  0  0  0  0  0  0  0  0  0
    2.3132   73.2603   83.1671 C   0  0  0  0  0  0  0  0  0  0  0  0
    3.5042   74.2121   83.3853 C   0  0  0  0  0  0  0  0  0  0  0  0
    3.4241   74.8796   84.6439 O   0  0  0  0  0  0  0  0  0  0  0  0
    2.6195   75.4268   84.6277 H   0  0  0  0  0  0  0  0  0  0  0  0
    3.7510   66.4076   85.2722 O   0  0  0  0  0  0  0  0  0  0  0  0
    5.6019   65.0830   85.9906 C   0  0  0  0  0  0  0  0  0  0  0  0
    5.0532   65.9591   84.8790 C   0  0  0  0  0  0  0  0  0  0  0  0
 38 39  1  0  0  0
 39 37  1  0  0  0
 37  1  1  0  0  0
  1  2  1  0  0  0
  2  3  2  0  0  0
  3  4  1  0  0  0
  4 24  1  0  0  0
 24 25  2  0  0  0
 24 26  2  0  0  0
 24 27  1  0  0  0
 27 28  1  0  0  0
 28 29  1  0  0  0
 29 30  1  0  0  0
 30 33  1  0  0  0
 33 34  1  0  0  0
 34 35  1  0  0  0
 30 31  1  0  0  0
 31 32  1  0  0  0
  4  5  2  0  0  0
  5  6  1  0  0  0
  6  7  1  0  0  0
  7  8  1  0  0  0
  8  9  2  0  0  0
  9 10  1  0  0  0
  9 11  1  0  0  0
 11 12  1  0  0  0
 12 13  1  0  0  0
 12 14  2  0  0  0
 14 15  1  0  0  0
 15 19  1  0  0  0
 19 20  1  0  0  0
 20 21  1  0  0  0
 21 22  1  0  0  0
 22 23  1  0  0  0
 15 16  2  0  0  0
 16 17  1  0  0  0
  6  1  2  0  0  0
 17  7  2  0  0  0
 32 27  1  0  0  0
 16 11  1  0  0  0
 23 19  1  0  0  0
 35 36  1  0  0  0
 10 18  1  0  0  0
M  END
> <minimizedAffinity>
-9.72511

$$$$



 39 43  0  0  0  0  0  0  0  0999 V2000
   -0.2826   66.4903   80.3970 C   0  0  0  0  0  0  0  0  0  0  0  0
   -0.5871   66.6274   79.0356 C   0  0  0  0  0  0  0  0  0  0  0  0
   -0.6470   65.5042   78.2088 C   0  0  0  0  0  0  0  0  0  0  0  0
   -0.3718   64.2429   78.7412 C   0  0  0  0  0  0  0  0  0  0  0  0
   -0.0751   64.0933   80.0984 C   0  0  0  0  0  0  0  0  0  0  0  0
   -0.0141   65.2211   80.9308 C   0  0  0  0  0  0  0  0  0  0  0  0
    0.3562   65.0003   82.3575 C   0  0  0  0  0  0  0  0  0  0  0  0
   -0.5375   64.2719   83.1270 N   0  0  0  0  0  0  0  0  0  0  0  0
   -0.2023   64.0883   84.3548 C   0  0  0  0  0  0  0  0  0  0  0  0
   -0.9867   63.4076   85.2058 O   0  0  0  0  0  0  0  0  0  0  0  0
    0.9705   64.5546   84.9071 N   0  0  0  0  0  0  0  0  0  0  0  0
    1.5383   64.4845   86.1581 C   0  0  0  0  0  0  0  0  0  0  0  0
    0.9150   63.8085   87.3214 C   0  0  0  0  0  0  0  0  0  0  0  0
    2.7072   65.0997   86.1692 N   0  0  0  0  0  0  0  0  0  0  0  0
    2.8963   65.5828   84.8897 C   0  0  0  0  0  0  0  0  0  0  0  0
    1.8228   65.2512   84.0877 C   0  0  0  0  0  0  0  0  0  0  0  0
    1.4987   65.4672   82.7856 N   0  0  0  0  0  0  0  0  0  0  0  0
   -1.7803   63.1317   84.7165 H   0  0  0  0  0  0  0  0  0  0  0  0
    4.1299   66.3420   84.5231 C   0  0  0  0  0  0  0  0  0  0  0  0
    5.3944   65.7402   85.1633 C   0  0  0  0  0  0  0  0  0  0  0  0
    6.1544   66.9184   85.7585 C   0  0  0  0  0  0  0  0  0  0  0  0
    5.0557   67.8871   86.1562 C   0  0  0  0  0  0  0  0  0  0  0  0
    4.0886   67.8091   84.9834 C   0  0  0  0  0  0  0  0  0  0  0  0
   -0.4563   62.7983   77.7032 S   0  0  0  0  0  0  0  0  0  0  0  0
   -0.9350   63.2334   76.4087 O   0  0  0  0  0  0  0  0  0  0  0  0
    0.8025   62.0951   77.8365 O   0  0  0  0  0  0  0  0  0  0  0  0
   -1.6535   61.8597   78.4306 N   0  0  0  0  0  0  0  0  0  0  0  0
   -3.0222   62.4441   78.5257 C   0  0  0  0  0  0  0  0  0  0  0  0
   -4.0781   61.3725   78.8807 C   0  0  0  0  0  0  0  0  0  0  0  0
   -3.6299   60.3482   79.8451 N   0  0  0  0  0  0  0  0  0  0  0  0
   -2.4125   59.6708   79.3261 C   0  0  0  0  0  0  0  0  0  0  0  0
   -1.6529   60.3976   78.1894 C   0  0  0  0  0  0  0  0  0  0  0  0
   -3.3684   60.8971   81.1949 C   0  0  0  0  0  0  0  0  0  0  0  0
   -2.7690   59.8991   82.2032 C   0  0  0  0  0  0  0  0  0  0  0  0
   -3.5199   59.8570   83.4158 O   0  0  0  0  0  0  0  0  0  0  0  0
   -3.4628   60.7409   83.8193 H   0  0  0  0  0  0  0  0  0  0  0  0
   -0.1336   67.6138   81.1679 O   0  0  0  0  0  0  0  0  0  0  0  0
    1.7413   68.9258   81.8460 C   0  0  0  0  0  0  0  0  0  0  0  0
    0.8984   68.4720   80.6680 C   0  0  0  0  0  0  0  0  0  0  0  0
 38 39  1  0  0  0
 39 37  1  0  0  0
 37  1  1  0  0  0
  1  2  1  0  0  0
  2  3  2  0  0  0
  3  4  1  0  0  0
  4 24  1  0  0  0
 24 25  2  0  0  0
 24 26  2  0  0  0
 24 27  1  0  0  0
 27 28  1  0  0  0
 28 29  1  0  0  0
 29 30  1  0  0  0
 30 33  1  0  0  0
 33 34  1  0  0  0
 34 35  1  0  0  0
 30 31  1  0  0  0
 31 32  1  0  0  0
  4  5  2  0  0  0
  5  6  1  0  0  0
  6  7  1  0  0  0
  7  8  1  0  0  0
  8  9  2  0  0  0
  9 10  1  0  0  0
  9 11  1  0  0  0
 11 12  1  0  0  0
 12 13  1  0  0  0
 12 14  2  0  0  0
 14 15  1  0  0  0
 15 19  1  0  0  0
 19 20  1  0  0  0
 20 21  1  0  0  0
 21 22  1  0  0  0
 22 23  1  0  0  0
 15 16  2  0  0  0
 16 17  1  0  0  0
  6  1  2  0  0  0
 17  7  2  0  0  0
 32 27  1  0  0  0
 16 11  1  0  0  0
 23 19  1  0  0  0
 35 36  1  0  0  0
 10 18  1  0  0  0
M  END
> <minimizedAffinity>
-9.36099

$$$$



 39 43  0  0  0  0  0  0  0  0999 V2000
    0.0916   64.0913   83.8897 C   0  0  0  0  0  0  0  0  0  0  0  0
    0.5988   64.5795   85.1018 C   0  0  0  0  0  0  0  0  0  0  0  0
    1.4198   65.7084   85.1202 C   0  0  0  0  0  0  0  0  0  0  0  0
    1.7579   66.3326   83.9176 C   0  0  0  0  0  0  0  0  0  0  0  0
    1.2516   65.8595   82.7042 C   0  0  0  0  0  0  0  0  0  0  0  0
    0.4267   64.7249   82.6838 C   0  0  0  0  0  0  0  0  0  0  0  0
   -0.0401   64.2410   81.3536 C   0  0  0  0  0  0  0  0  0  0  0  0
    0.6591   64.6943   80.2459 N   0  0  0  0  0  0  0  0  0  0  0  0
    0.2454   64.2659   79.1062 C   0  0  0  0  0  0  0  0  0  0  0  0
    0.8319   64.6390   77.9574 O   0  0  0  0  0  0  0  0  0  0  0  0
   -0.8120   63.3965   78.9520 N   0  0  0  0  0  0  0  0  0  0  0  0
   -1.4226   62.8082   77.8688 C   0  0  0  0  0  0  0  0  0  0  0  0
   -1.0151   63.0268   76.4599 C   0  0  0  0  0  0  0  0  0  0  0  0
   -2.4125   62.0282   78.2647 N   0  0  0  0  0  0  0  0  0  0  0  0
   -2.4427   62.1193   79.6420 C   0  0  0  0  0  0  0  0  0  0  0  0
   -1.4502   62.9683   80.0889 C   0  0  0  0  0  0  0  0  0  0  0  0
   -1.0419   63.4038   81.3099 N   0  0  0  0  0  0  0  0  0  0  0  0
    1.5549   65.2491   78.1817 H   0  0  0  0  0  0  0  0  0  0  0  0
   -3.4462   61.3589   80.4465 C   0  0  0  0  0  0  0  0  0  0  0  0
   -3.2713   61.5866   81.9593 C   0  0  0  0  0  0  0  0  0  0  0  0
   -3.3230   60.2021   82.5920 C   0  0  0  0  0  0  0  0  0  0  0  0
   -2.7323   59.2997   81.5241 C   0  0  0  0  0  0  0  0  0  0  0  0
   -3.3493   59.8376   80.2409 C   0  0  0  0  0  0  0  0  0  0  0  0
    2.7937   67.7811   83.9243 S   0  0  0  0  0  0  0  0  0  0  0  0
    3.1859   68.0286   82.5535 O   0  0  0  0  0  0  0  0  0  0  0  0
    2.1137   68.7961   84.7017 O   0  0  0  0  0  0  0  0  0  0  0  0
    4.1537   67.2892   84.7914 N   0  0  0  0  0  0  0  0  0  0  0  0
    5.1784   66.4851   84.0652 C   0  0  0  0  0  0  0  0  0  0  0  0
    6.5057   66.4043   84.8531 C   0  0  0  0  0  0  0  0  0  0  0  0
    6.3576   66.2864   86.3174 N   0  0  0  0  0  0  0  0  0  0  0  0
    5.5604   67.4302   86.8336 C   0  0  0  0  0  0  0  0  0  0  0  0
    4.7335   68.2191   85.7890 C   0  0  0  0  0  0  0  0  0  0  0  0
    5.7406   65.0078   86.7371 C   0  0  0  0  0  0  0  0  0  0  0  0
    4.9051   65.0765   88.0290 C   0  0  0  0  0  0  0  0  0  0  0  0
    3.6289   64.4589   87.8670 O   0  0  0  0  0  0  0  0  0  0  0  0
    3.1492   64.9656   87.1885 H   0  0  0  0  0  0  0  0  0  0  0  0
   -0.6313   62.9268   83.8850 O   0  0  0  0  0  0  0  0  0  0  0  0
   -2.4233   62.5308   85.4111 C   0  0  0  0  0  0  0  0  0  0  0  0
   -0.9196   62.4715   85.2121 C   0  0  0  0  0  0  0  0  0  0  0  0
 38 39  1  0  0  0
 39 37  1  0  0  0
 37  1  1  0  0  0
  1  2  1  0  0  0
  2  3  2  0  0  0
  3  4  1  0  0  0
  4 24  1  0  0  0
 24 25  2  0  0  0
 24 26  2  0  0  0
 24 27  1  0  0  0
 27 28  1  0  0  0
 28 29  1  0  0  0
 29 30  1  0  0  0
 30 33  1  0  0  0
 33 34  1  0  0  0
 34 35  1  0  0  0
 30 31  1  0  0  0
 31 32  1  0  0  0
  4  5  2  0  0  0
  5  6  1  0  0  0
  6  7  1  0  0  0
  7  8  1  0  0  0
  8  9  2  0  0  0
  9 10  1  0  0  0
  9 11  1  0  0  0
 11 12  1  0  0  0
 12 13  1  0  0  0
 12 14  2  0  0  0
 14 15  1  0  0  0
 15 19  1  0  0  0
 19 20  1  0  0  0
 20 21  1  0  0  0
 21 22  1  0  0  0
 22 23  1  0  0  0
 15 16  2  0  0  0
 16 17  1  0  0  0
  6  1  2  0  0  0
 17  7  2  0  0  0
 32 27  1  0  0  0
 16 11  1  0  0  0
 23 19  1  0  0  0
 35 36  1  0  0  0
 10 18  1  0  0  0
M  END
> <minimizedAffinity>
-9.34454

$$$$
