/home/hjpark/lecture_drug1/0905_agent/pde5_harness/sample_run/structures/work/ligand_ref.pdb
 OpenBabel09042623123D

 63 66  0  0  0  0  0  0  0  0999 V2000
   -0.1320   61.4670   80.1200 C   0  0  0  0  0  0  0  0  0  0  0  0
   -0.1690   61.7920   81.5890 C   0  0  0  0  0  0  0  0  0  0  0  0
   -1.2610   62.8640   81.9270 C   0  0  0  0  0  0  0  0  0  0  0  0
   -1.1140   63.0310   83.4050 C   0  0  0  0  0  0  0  0  0  0  0  0
   -1.7980   62.2800   84.3700 N   0  0  0  0  0  0  0  0  0  0  0  0
   -1.4140   62.6960   85.6120 N   0  0  0  0  0  0  0  0  0  0  0  0
   -1.9480   62.1110   86.8450 C   0  0  0  0  0  0  0  0  0  0  0  0
   -0.4950   63.7000   85.4400 C   0  0  0  0  0  0  0  0  0  0  0  0
    0.2600   64.5190   86.3460 C   0  0  0  0  0  0  0  0  0  0  0  0
    0.1800   64.4220   87.5490 O   0  0  0  0  0  0  0  0  0  0  0  0
    1.1250   65.4740   85.8160 N   0  0  0  0  0  0  0  0  0  0  0  0
    1.3080   65.6840   84.4420 C   0  0  0  0  0  0  0  0  0  0  0  0
    0.5970   64.9070   83.5200 N   0  0  0  0  0  0  0  0  0  0  0  0
   -0.2930   63.9280   84.0460 C   0  0  0  0  0  0  0  0  0  0  0  0
    2.2230   66.7020   84.0580 C   0  0  0  0  0  0  0  0  0  0  0  0
    1.7310   67.6550   83.0840 C   0  0  0  0  0  0  0  0  0  0  0  0
    2.5680   68.7580   82.6170 C   0  0  0  0  0  0  0  0  0  0  0  0
    3.9520   68.8600   83.1800 C   0  0  0  0  0  0  0  0  0  0  0  0
    4.4660   67.9110   84.1620 C   0  0  0  0  0  0  0  0  0  0  0  0
    3.6090   66.8060   84.6330 C   0  0  0  0  0  0  0  0  0  0  0  0
    4.0190   65.8300   85.6200 O   0  0  0  0  0  0  0  0  0  0  0  0
    5.3040   65.8030   86.2730 C   0  0  0  0  0  0  0  0  0  0  0  0
    5.2340   64.6230   87.2280 C   0  0  0  0  0  0  0  0  0  0  0  0
    2.0230   69.8310   81.5610 S   0  0  0  0  0  0  0  0  0  0  0  0
    2.3130   69.6000   80.2940 O   0  0  0  0  0  0  0  0  0  0  0  0
    0.7120   69.8610   81.6110 O   0  0  0  0  0  0  0  0  0  0  0  0
    2.6900   71.1590   82.1270 N   0  0  0  0  0  0  0  0  0  0  0  0
    1.7240   72.0870   82.9630 C   0  0  0  0  0  0  0  0  0  0  0  0
    0.8200   73.0570   82.1780 C   0  0  0  0  0  0  0  0  0  0  0  0
    1.4260   73.6860   80.9560 N   0  0  0  0  0  0  0  0  0  0  0  0
    1.5570   75.1560   81.2010 C   0  0  0  0  0  0  0  0  0  0  0  0
    2.7520   73.1450   80.4160 C   0  0  0  0  0  0  0  0  0  0  0  0
    3.5390   72.0920   81.2850 C   0  0  0  0  0  0  0  0  0  0  0  0
    0.6251   60.7337   79.9359 H   0  0  0  0  0  0  0  0  0  0  0  0
    0.0880   62.3542   79.5638 H   0  0  0  0  0  0  0  0  0  0  0  0
   -1.0829   61.0820   79.8158 H   0  0  0  0  0  0  0  0  0  0  0  0
    0.7880   62.1694   81.8833 H   0  0  0  0  0  0  0  0  0  0  0  0
   -0.4118   60.8950   82.1194 H   0  0  0  0  0  0  0  0  0  0  0  0
   -2.2390   62.5110   81.6743 H   0  0  0  0  0  0  0  0  0  0  0  0
   -1.1407   63.7776   81.3832 H   0  0  0  0  0  0  0  0  0  0  0  0
   -2.6515   61.3430   86.5998 H   0  0  0  0  0  0  0  0  0  0  0  0
   -2.4356   62.8714   87.4185 H   0  0  0  0  0  0  0  0  0  0  0  0
   -1.1468   61.6915   87.4169 H   0  0  0  0  0  0  0  0  0  0  0  0
    0.7075   65.0320   82.5498 H   0  0  0  0  0  0  0  0  0  0  0  0
    0.7731   67.5531   82.7137 H   0  0  0  0  0  0  0  0  0  0  0  0
    4.5635   69.6283   82.8624 H   0  0  0  0  0  0  0  0  0  0  0  0
    5.4263   68.0124   84.5261 H   0  0  0  0  0  0  0  0  0  0  0  0
    5.4720   66.7127   86.8107 H   0  0  0  0  0  0  0  0  0  0  0  0
    6.1085   65.7077   85.5740 H   0  0  0  0  0  0  0  0  0  0  0  0
    4.4178   64.7609   87.9061 H   0  0  0  0  0  0  0  0  0  0  0  0
    6.1484   64.5558   87.7795 H   0  0  0  0  0  0  0  0  0  0  0  0
    5.0864   63.7215   86.6708 H   0  0  0  0  0  0  0  0  0  0  0  0
    2.3313   72.6742   83.6197 H   0  0  0  0  0  0  0  0  0  0  0  0
    1.0482   71.4137   83.4477 H   0  0  0  0  0  0  0  0  0  0  0  0
   -0.0496   72.5154   81.8693 H   0  0  0  0  0  0  0  0  0  0  0  0
    0.6195   73.8671   82.8476 H   0  0  0  0  0  0  0  0  0  0  0  0
    1.9877   75.6240   80.3405 H   0  0  0  0  0  0  0  0  0  0  0  0
    2.1871   75.3214   82.0498 H   0  0  0  0  0  0  0  0  0  0  0  0
    0.5899   75.5740   81.3878 H   0  0  0  0  0  0  0  0  0  0  0  0
    3.4005   73.9836   80.2705 H   0  0  0  0  0  0  0  0  0  0  0  0
    2.4773   72.6062   79.5333 H   0  0  0  0  0  0  0  0  0  0  0  0
    4.1868   72.6304   81.9448 H   0  0  0  0  0  0  0  0  0  0  0  0
    4.0507   71.4647   80.5854 H   0  0  0  0  0  0  0  0  0  0  0  0
  1  2  1  0  0  0  0
  1 34  1  0  0  0  0
  1 35  1  0  0  0  0
  1 36  1  0  0  0  0
  2  3  1  0  0  0  0
  2 37  1  0  0  0  0
  2 38  1  0  0  0  0
  3  4  1  0  0  0  0
  3 39  1  0  0  0  0
  3 40  1  0  0  0  0
  4 14  1  0  0  0  0
  4  5  2  0  0  0  0
  5  6  1  0  0  0  0
  6  7  1  0  0  0  0
  7 41  1  0  0  0  0
  7 42  1  0  0  0  0
  7 43  1  0  0  0  0
  8  6  1  0  0  0  0
  8  9  1  0  0  0  0
  9 10  2  0  0  0  0
 11  9  1  0  0  0  0
 12 11  2  0  0  0  0
 13 14  1  0  0  0  0
 13 12  1  0  0  0  0
 13 44  1  0  0  0  0
 14  8  2  0  0  0  0
 15 12  1  0  0  0  0
 15 20  1  0  0  0  0
 16 15  2  0  0  0  0
 16 45  1  0  0  0  0
 17 16  1  0  0  0  0
 17 18  2  0  0  0  0
 18 19  1  0  0  0  0
 18 46  1  0  0  0  0
 19 20  2  0  0  0  0
 19 47  1  0  0  0  0
 20 21  1  0  0  0  0
 21 22  1  0  0  0  0
 22 23  1  0  0  0  0
 22 48  1  0  0  0  0
 22 49  1  0  0  0  0
 23 50  1  0  0  0  0
 23 51  1  0  0  0  0
 23 52  1  0  0  0  0
 24 26  2  0  0  0  0
 24 27  1  0  0  0  0
 24 17  1  0  0  0  0
 25 24  2  0  0  0  0
 27 28  1  0  0  0  0
 28 53  1  0  0  0  0
 28 54  1  0  0  0  0
 29 28  1  0  0  0  0
 29 55  1  0  0  0  0
 29 56  1  0  0  0  0
 30 31  1  0  0  0  0
 30 29  1  0  0  0  0
 31 57  1  0  0  0  0
 31 58  1  0  0  0  0
 31 59  1  0  0  0  0
 32 30  1  0  0  0  0
 32 33  1  0  0  0  0
 32 60  1  0  0  0  0
 32 61  1  0  0  0  0
 33 27  1  0  0  0  0
 33 62  1  0  0  0  0
 33 63  1  0  0  0  0
M  END
$$$$
