/home/hjpark/lecture_drug1/0905_agent/pde5_harness/sample_run/structures/work/ligand_ref.pdb


 34 37  0  0  0  0  0  0  0  0999 V2000
    0.3893   64.1094   83.9082 C   0  0  0  0  0  0  0  0  0  0  0  0
    0.1187   63.3777   82.6875 C   0  0  0  0  0  0  0  0  0  0  0  0
   -0.7333   62.1905   82.6916 C   0  0  0  0  0  0  0  0  0  0  0  0
   -1.3178   61.7654   84.0033 C   0  0  0  0  0  0  0  0  0  0  0  0
   -1.0570   62.4883   85.2437 C   0  0  0  0  0  0  0  0  0  0  0  0
   -0.1881   63.6808   85.2293 C   0  0  0  0  0  0  0  0  0  0  0  0
    4.3162   67.0480   84.8993 C   0  0  0  0  0  0  0  0  0  0  0  0
    4.6666   68.2753   84.3211 N   0  0  0  0  0  0  0  0  0  0  0  0
    3.7392   68.6020   83.3743 N   0  0  0  0  0  0  0  0  0  0  0  0
    3.8138   69.8327   82.5822 C   0  0  0  0  0  0  0  0  0  0  0  0
    2.8092   67.5938   83.3490 C   0  0  0  0  0  0  0  0  0  0  0  0
    1.6185   67.3622   82.5808 C   0  0  0  0  0  0  0  0  0  0  0  0
    1.2181   68.1275   81.7340 O   0  0  0  0  0  0  0  0  0  0  0  0
    0.8859   66.2021   82.8228 N   0  0  0  0  0  0  0  0  0  0  0  0
    1.2441   65.2375   83.7749 C   0  0  0  0  0  0  0  0  0  0  0  0
    2.3990   65.4173   84.5451 N   0  0  0  0  0  0  0  0  0  0  0  0
    3.1575   66.5994   84.3113 C   0  0  0  0  0  0  0  0  0  0  0  0
    2.6750   64.7552   85.2193 H   0  0  0  0  0  0  0  0  0  0  0  0
    5.0917   66.3539   85.9720 C   0  0  0  0  0  0  0  0  0  0  0  0
    7.3592   65.8178   84.9412 C   0  0  0  0  0  0  0  0  0  0  0  0
    5.9550   65.3247   85.1649 C   0  0  0  0  0  0  0  0  0  0  0  0
   -1.0158   61.3605   81.3519 S   0  0  0  0  0  0  0  0  0  0  0  0
    0.0458   60.8910   80.7231 O   0  0  0  0  0  0  0  0  0  0  0  0
   -1.7366   60.3027   81.6412 O   0  0  0  0  0  0  0  0  0  0  0  0
   -1.8211   62.4403   80.5066 N   0  0  0  0  0  0  0  0  0  0  0  0
   -3.3001   62.0298   80.1358 C   0  0  0  0  0  0  0  0  0  0  0  0
   -3.4965   61.1359   78.8961 C   0  0  0  0  0  0  0  0  0  0  0  0
   -2.5882   61.4090   77.7313 N   0  0  0  0  0  0  0  0  0  0  0  0
   -3.4203   61.9176   76.5968 C   0  0  0  0  0  0  0  0  0  0  0  0
   -1.3815   62.3305   77.9240 C   0  0  0  0  0  0  0  0  0  0  0  0
   -1.2588   63.1282   79.2775 C   0  0  0  0  0  0  0  0  0  0  0  0
    0.1484   64.4494   86.4087 O   0  0  0  0  0  0  0  0  0  0  0  0
   -0.2936   64.1472   87.7472 C   0  0  0  0  0  0  0  0  0  0  0  0
    0.8193   63.3038   88.3468 C   0  0  0  0  0  0  0  0  0  0  0  0
 20 21  1  0  0  0
 21 19  1  0  0  0
 19  7  1  0  0  0
  7 17  1  0  0  0
  7  8  2  0  0  0
  8  9  1  0  0  0
  9 10  1  0  0  0
 11  9  1  0  0  0
 11 12  1  0  0  0
 12 13  2  0  0  0
 14 12  1  0  0  0
 15 14  2  0  0  0
 16 17  1  0  0  0
 16 15  1  0  0  0
 16 18  1  0  0  0
 17 11  2  0  0  0
  1 15  1  0  0  0
  1  6  1  0  0  0
  2  1  2  0  0  0
  3  2  1  0  0  0
  3  4  2  0  0  0
  4  5  1  0  0  0
  5  6  2  0  0  0
  6 32  1  0  0  0
 32 33  1  0  0  0
 33 34  1  0  0  0
 22 24  2  0  0  0
 22 25  1  0  0  0
 22  3  1  0  0  0
 23 22  2  0  0  0
 25 26  1  0  0  0
 27 26  1  0  0  0
 28 29  1  0  0  0
 28 27  1  0  0  0
 30 28  1  0  0  0
 30 31  1  0  0  0
 31 25  1  0  0  0
M  END
> <minimizedAffinity>
-9.63611

$$$$
/home/hjpark/lecture_drug1/0905_agent/pde5_harness/sample_run/structures/work/ligand_ref.pdb


 34 37  0  0  0  0  0  0  0  0999 V2000
    2.1353   67.1882   83.3221 C   0  0  0  0  0  0  0  0  0  0  0  0
    1.5798   68.1617   82.4041 C   0  0  0  0  0  0  0  0  0  0  0  0
    2.3253   69.3631   82.0351 C   0  0  0  0  0  0  0  0  0  0  0  0
    3.6842   69.5440   82.6380 C   0  0  0  0  0  0  0  0  0  0  0  0
    4.2611   68.5758   83.5648 C   0  0  0  0  0  0  0  0  0  0  0  0
    3.4958   67.3705   83.9371 C   0  0  0  0  0  0  0  0  0  0  0  0
   -0.1255   63.7552   86.1754 C   0  0  0  0  0  0  0  0  0  0  0  0
   -0.9757   62.7103   85.7900 N   0  0  0  0  0  0  0  0  0  0  0  0
   -1.1335   62.7421   84.4346 N   0  0  0  0  0  0  0  0  0  0  0  0
   -1.9655   61.7776   83.7099 C   0  0  0  0  0  0  0  0  0  0  0  0
   -0.3929   63.7959   83.9621 C   0  0  0  0  0  0  0  0  0  0  0  0
   -0.1597   64.3355   82.6521 C   0  0  0  0  0  0  0  0  0  0  0  0
   -0.6525   63.8734   81.6488 O   0  0  0  0  0  0  0  0  0  0  0  0
    0.6764   65.4430   82.5282 N   0  0  0  0  0  0  0  0  0  0  0  0
    1.3062   66.0704   83.6123 C   0  0  0  0  0  0  0  0  0  0  0  0
    1.1057   65.5828   84.9090 N   0  0  0  0  0  0  0  0  0  0  0  0
    0.2555   64.4497   85.0521 C   0  0  0  0  0  0  0  0  0  0  0  0
    1.5340   66.0051   85.6883 H   0  0  0  0  0  0  0  0  0  0  0  0
    0.2821   64.0534   87.5822 C   0  0  0  0  0  0  0  0  0  0  0  0
    0.2565   62.1308   89.2538 C   0  0  0  0  0  0  0  0  0  0  0  0
   -0.5885   63.0513   88.4151 C   0  0  0  0  0  0  0  0  0  0  0  0
    1.7081   70.4570   81.0423 S   0  0  0  0  0  0  0  0  0  0  0  0
    2.5655   71.0746   80.2510 O   0  0  0  0  0  0  0  0  0  0  0  0
    0.8547   69.8751   80.2327 O   0  0  0  0  0  0  0  0  0  0  0  0
    1.0018   71.4284   82.0846 N   0  0  0  0  0  0  0  0  0  0  0  0
   -0.4666   71.8645   81.7013 C   0  0  0  0  0  0  0  0  0  0  0  0
   -0.6214   73.0470   80.7255 C   0  0  0  0  0  0  0  0  0  0  0  0
    0.3681   74.1666   80.8783 N   0  0  0  0  0  0  0  0  0  0  0  0
   -0.3700   75.3866   81.3310 C   0  0  0  0  0  0  0  0  0  0  0  0
    1.5970   73.9623   81.7675 C   0  0  0  0  0  0  0  0  0  0  0  0
    1.6674   72.6644   82.6585 C   0  0  0  0  0  0  0  0  0  0  0  0
    3.9714   66.3661   84.8645 O   0  0  0  0  0  0  0  0  0  0  0  0
    5.3426   65.9391   84.9904 C   0  0  0  0  0  0  0  0  0  0  0  0
    5.3814   65.1157   86.2670 C   0  0  0  0  0  0  0  0  0  0  0  0
 20 21  1  0  0  0
 21 19  1  0  0  0
 19  7  1  0  0  0
  7 17  1  0  0  0
  7  8  2  0  0  0
  8  9  1  0  0  0
  9 10  1  0  0  0
 11  9  1  0  0  0
 11 12  1  0  0  0
 12 13  2  0  0  0
 14 12  1  0  0  0
 15 14  2  0  0  0
 16 17  1  0  0  0
 16 15  1  0  0  0
 16 18  1  0  0  0
 17 11  2  0  0  0
  1 15  1  0  0  0
  1  6  1  0  0  0
  2  1  2  0  0  0
  3  2  1  0  0  0
  3  4  2  0  0  0
  4  5  1  0  0  0
  5  6  2  0  0  0
  6 32  1  0  0  0
 32 33  1  0  0  0
 33 34  1  0  0  0
 22 24  2  0  0  0
 22 25  1  0  0  0
 22  3  1  0  0  0
 23 22  2  0  0  0
 25 26  1  0  0  0
 27 26  1  0  0  0
 28 29  1  0  0  0
 28 27  1  0  0  0
 30 28  1  0  0  0
 30 31  1  0  0  0
 31 25  1  0  0  0
M  END
> <minimizedAffinity>
-9.49667

$$$$
/home/hjpark/lecture_drug1/0905_agent/pde5_harness/sample_run/structures/work/ligand_ref.pdb


 34 37  0  0  0  0  0  0  0  0999 V2000
    0.1045   64.3199   83.8042 C   0  0  0  0  0  0  0  0  0  0  0  0
   -0.5978   63.9761   82.5845 C   0  0  0  0  0  0  0  0  0  0  0  0
   -1.5799   62.8945   82.5578 C   0  0  0  0  0  0  0  0  0  0  0  0
   -1.8341   62.1617   83.8389 C   0  0  0  0  0  0  0  0  0  0  0  0
   -1.1370   62.4920   85.0774 C   0  0  0  0  0  0  0  0  0  0  0  0
   -0.1409   63.5806   85.0909 C   0  0  0  0  0  0  0  0  0  0  0  0
    4.2332   66.9340   84.8805 C   0  0  0  0  0  0  0  0  0  0  0  0
    4.6834   68.1386   84.3244 N   0  0  0  0  0  0  0  0  0  0  0  0
    3.7951   68.5488   83.3726 N   0  0  0  0  0  0  0  0  0  0  0  0
    3.9732   69.7811   82.5997 C   0  0  0  0  0  0  0  0  0  0  0  0
    2.7909   67.6155   83.3225 C   0  0  0  0  0  0  0  0  0  0  0  0
    1.5951   67.4868   82.5382 C   0  0  0  0  0  0  0  0  0  0  0  0
    1.2646   68.2923   81.6986 O   0  0  0  0  0  0  0  0  0  0  0  0
    0.7728   66.3832   82.7552 N   0  0  0  0  0  0  0  0  0  0  0  0
    1.0448   65.3807   83.6967 C   0  0  0  0  0  0  0  0  0  0  0  0
    2.2009   65.4605   84.4818 N   0  0  0  0  0  0  0  0  0  0  0  0
    3.0505   66.5840   84.2736 C   0  0  0  0  0  0  0  0  0  0  0  0
    2.4173   64.7698   85.1491 H   0  0  0  0  0  0  0  0  0  0  0  0
    4.9404   66.1675   85.9511 C   0  0  0  0  0  0  0  0  0  0  0  0
    7.3297   65.8260   85.1348 C   0  0  0  0  0  0  0  0  0  0  0  0
    5.9319   65.2682   85.1362 C   0  0  0  0  0  0  0  0  0  0  0  0
   -2.3409   62.4905   81.2083 S   0  0  0  0  0  0  0  0  0  0  0  0
   -3.6596   62.5393   81.2467 O   0  0  0  0  0  0  0  0  0  0  0  0
   -1.9965   63.3199   80.2515 O   0  0  0  0  0  0  0  0  0  0  0  0
   -1.7721   61.0226   80.9833 N   0  0  0  0  0  0  0  0  0  0  0  0
   -0.4682   60.9409   80.0964 C   0  0  0  0  0  0  0  0  0  0  0  0
   -0.6520   60.9401   78.5665 C   0  0  0  0  0  0  0  0  0  0  0  0
   -1.8408   60.1865   78.0420 N   0  0  0  0  0  0  0  0  0  0  0  0
   -1.3439   59.0160   77.2540 C   0  0  0  0  0  0  0  0  0  0  0  0
   -2.9181   59.7140   79.0212 C   0  0  0  0  0  0  0  0  0  0  0  0
   -2.6346   59.8471   80.5656 C   0  0  0  0  0  0  0  0  0  0  0  0
    0.6180   63.9667   86.2613 O   0  0  0  0  0  0  0  0  0  0  0  0
    0.0512   64.2741   87.5507 C   0  0  0  0  0  0  0  0  0  0  0  0
    0.4892   63.1331   88.4538 C   0  0  0  0  0  0  0  0  0  0  0  0
 20 21  1  0  0  0
 21 19  1  0  0  0
 19  7  1  0  0  0
  7 17  1  0  0  0
  7  8  2  0  0  0
  8  9  1  0  0  0
  9 10  1  0  0  0
 11  9  1  0  0  0
 11 12  1  0  0  0
 12 13  2  0  0  0
 14 12  1  0  0  0
 15 14  2  0  0  0
 16 17  1  0  0  0
 16 15  1  0  0  0
 16 18  1  0  0  0
 17 11  2  0  0  0
  1 15  1  0  0  0
  1  6  1  0  0  0
  2  1  2  0  0  0
  3  2  1  0  0  0
  3  4  2  0  0  0
  4  5  1  0  0  0
  5  6  2  0  0  0
  6 32  1  0  0  0
 32 33  1  0  0  0
 33 34  1  0  0  0
 22 24  2  0  0  0
 22 25  1  0  0  0
 22  3  1  0  0  0
 23 22  2  0  0  0
 25 26  1  0  0  0
 27 26  1  0  0  0
 28 29  1  0  0  0
 28 27  1  0  0  0
 30 28  1  0  0  0
 30 31  1  0  0  0
 31 25  1  0  0  0
M  END
> <minimizedAffinity>
-9.44286

$$$$
/home/hjpark/lecture_drug1/0905_agent/pde5_harness/sample_run/structures/work/ligand_ref.pdb


 34 37  0  0  0  0  0  0  0  0999 V2000
    0.9200   66.0221   81.8708 C   0  0  0  0  0  0  0  0  0  0  0  0
    1.3902   67.2854   82.4018 C   0  0  0  0  0  0  0  0  0  0  0  0
    1.9678   68.3040   81.5276 C   0  0  0  0  0  0  0  0  0  0  0  0
    2.0489   67.9924   80.0650 C   0  0  0  0  0  0  0  0  0  0  0  0
    1.5815   66.7261   79.5107 C   0  0  0  0  0  0  0  0  0  0  0  0
    1.0079   65.7012   80.4039 C   0  0  0  0  0  0  0  0  0  0  0  0
   -1.9230   62.2687   83.5643 C   0  0  0  0  0  0  0  0  0  0  0  0
   -2.0161   61.7503   84.8626 N   0  0  0  0  0  0  0  0  0  0  0  0
   -1.1681   62.4409   85.6794 N   0  0  0  0  0  0  0  0  0  0  0  0
   -1.0272   62.1463   87.1080 C   0  0  0  0  0  0  0  0  0  0  0  0
   -0.5412   63.3878   84.9097 C   0  0  0  0  0  0  0  0  0  0  0  0
    0.4413   64.3979   85.1854 C   0  0  0  0  0  0  0  0  0  0  0  0
    0.9174   64.5758   86.2830 O   0  0  0  0  0  0  0  0  0  0  0  0
    0.8662   65.2154   84.1403 N   0  0  0  0  0  0  0  0  0  0  0  0
    0.3927   65.1096   82.8249 C   0  0  0  0  0  0  0  0  0  0  0  0
   -0.5626   64.1372   82.5069 N   0  0  0  0  0  0  0  0  0  0  0  0
   -1.0088   63.2952   83.5648 C   0  0  0  0  0  0  0  0  0  0  0  0
   -0.9110   64.0397   81.5913 H   0  0  0  0  0  0  0  0  0  0  0  0
   -2.6937   61.7692   82.3851 C   0  0  0  0  0  0  0  0  0  0  0  0
   -1.0908   61.0666   80.5334 C   0  0  0  0  0  0  0  0  0  0  0  0
   -1.7624   60.6462   81.8129 C   0  0  0  0  0  0  0  0  0  0  0  0
    2.5142   69.6918   82.1097 S   0  0  0  0  0  0  0  0  0  0  0  0
    2.1643   69.9813   83.3492 O   0  0  0  0  0  0  0  0  0  0  0  0
    3.8263   69.6701   82.1217 O   0  0  0  0  0  0  0  0  0  0  0  0
    1.9264   70.7075   81.0365 N   0  0  0  0  0  0  0  0  0  0  0  0
    2.7594   72.0356   80.8482 C   0  0  0  0  0  0  0  0  0  0  0  0
    2.5021   73.1798   81.8476 C   0  0  0  0  0  0  0  0  0  0  0  0
    1.0792   73.3648   82.2917 N   0  0  0  0  0  0  0  0  0  0  0  0
    0.5938   74.6820   81.7744 C   0  0  0  0  0  0  0  0  0  0  0  0
    0.0469   72.2834   81.9637 C   0  0  0  0  0  0  0  0  0  0  0  0
    0.4677   71.1199   80.9877 C   0  0  0  0  0  0  0  0  0  0  0  0
    0.5396   64.4079   79.9536 O   0  0  0  0  0  0  0  0  0  0  0  0
   -0.0792   64.1502   78.6773 C   0  0  0  0  0  0  0  0  0  0  0  0
    0.8080   63.1099   78.0140 C   0  0  0  0  0  0  0  0  0  0  0  0
 20 21  1  0  0  0
 21 19  1  0  0  0
 19  7  1  0  0  0
  7 17  1  0  0  0
  7  8  2  0  0  0
  8  9  1  0  0  0
  9 10  1  0  0  0
 11  9  1  0  0  0
 11 12  1  0  0  0
 12 13  2  0  0  0
 14 12  1  0  0  0
 15 14  2  0  0  0
 16 17  1  0  0  0
 16 15  1  0  0  0
 16 18  1  0  0  0
 17 11  2  0  0  0
  1 15  1  0  0  0
  1  6  1  0  0  0
  2  1  2  0  0  0
  3  2  1  0  0  0
  3  4  2  0  0  0
  4  5  1  0  0  0
  5  6  2  0  0  0
  6 32  1  0  0  0
 32 33  1  0  0  0
 33 34  1  0  0  0
 22 24  2  0  0  0
 22 25  1  0  0  0
 22  3  1  0  0  0
 23 22  2  0  0  0
 25 26  1  0  0  0
 27 26  1  0  0  0
 28 29  1  0  0  0
 28 27  1  0  0  0
 30 28  1  0  0  0
 30 31  1  0  0  0
 31 25  1  0  0  0
M  END
> <minimizedAffinity>
-8.93708

$$$$
/home/hjpark/lecture_drug1/0905_agent/pde5_harness/sample_run/structures/work/ligand_ref.pdb


 34 37  0  0  0  0  0  0  0  0999 V2000
    0.4257   65.1517   81.1034 C   0  0  0  0  0  0  0  0  0  0  0  0
    0.6468   66.4016   80.4050 C   0  0  0  0  0  0  0  0  0  0  0  0
    1.1983   67.5653   81.0956 C   0  0  0  0  0  0  0  0  0  0  0  0
    1.5294   67.4126   82.5481 C   0  0  0  0  0  0  0  0  0  0  0  0
    1.3136   66.1628   83.2696 C   0  0  0  0  0  0  0  0  0  0  0  0
    0.7481   64.9966   82.5643 C   0  0  0  0  0  0  0  0  0  0  0  0
   -2.7887   61.5024   79.9247 C   0  0  0  0  0  0  0  0  0  0  0  0
   -2.7903   60.6563   78.8080 N   0  0  0  0  0  0  0  0  0  0  0  0
   -1.7289   60.9711   78.0096 N   0  0  0  0  0  0  0  0  0  0  0  0
   -1.4427   60.2677   76.7562 C   0  0  0  0  0  0  0  0  0  0  0  0
   -1.0593   62.0068   78.6106 C   0  0  0  0  0  0  0  0  0  0  0  0
    0.1114   62.7633   78.2660 C   0  0  0  0  0  0  0  0  0  0  0  0
    0.7547   62.5658   77.2609 O   0  0  0  0  0  0  0  0  0  0  0  0
    0.5298   63.7722   79.1310 N   0  0  0  0  0  0  0  0  0  0  0  0
   -0.1287   64.0994   80.3246 C   0  0  0  0  0  0  0  0  0  0  0  0
   -1.2768   63.3925   80.7006 N   0  0  0  0  0  0  0  0  0  0  0  0
   -1.7160   62.3566   79.8281 C   0  0  0  0  0  0  0  0  0  0  0  0
   -1.7598   63.6025   81.5323 H   0  0  0  0  0  0  0  0  0  0  0  0
   -3.7998   61.4708   81.0250 C   0  0  0  0  0  0  0  0  0  0  0  0
   -2.8572   59.3858   82.1456 C   0  0  0  0  0  0  0  0  0  0  0  0
   -2.9849   60.8831   82.2277 C   0  0  0  0  0  0  0  0  0  0  0  0
    1.4210   68.9582   80.3380 S   0  0  0  0  0  0  0  0  0  0  0  0
    2.0197   68.8927   79.1633 O   0  0  0  0  0  0  0  0  0  0  0  0
    0.2557   69.5114   80.0968 O   0  0  0  0  0  0  0  0  0  0  0  0
    2.2630   69.7504   81.4300 N   0  0  0  0  0  0  0  0  0  0  0  0
    1.6524   71.1403   81.8643 C   0  0  0  0  0  0  0  0  0  0  0  0
    1.9552   72.3570   80.9686 C   0  0  0  0  0  0  0  0  0  0  0  0
    3.3313   72.4126   80.3690 N   0  0  0  0  0  0  0  0  0  0  0  0
    4.0527   73.5833   80.9581 C   0  0  0  0  0  0  0  0  0  0  0  0
    4.2305   71.1764   80.4446 C   0  0  0  0  0  0  0  0  0  0  0  0
    3.7615   69.9645   81.3360 C   0  0  0  0  0  0  0  0  0  0  0  0
    0.4758   63.7237   83.1972 O   0  0  0  0  0  0  0  0  0  0  0  0
   -0.4493   63.5211   84.2842 C   0  0  0  0  0  0  0  0  0  0  0  0
   -0.3192   62.0497   84.6409 C   0  0  0  0  0  0  0  0  0  0  0  0
 20 21  1  0  0  0
 21 19  1  0  0  0
 19  7  1  0  0  0
  7 17  1  0  0  0
  7  8  2  0  0  0
  8  9  1  0  0  0
  9 10  1  0  0  0
 11  9  1  0  0  0
 11 12  1  0  0  0
 12 13  2  0  0  0
 14 12  1  0  0  0
 15 14  2  0  0  0
 16 17  1  0  0  0
 16 15  1  0  0  0
 16 18  1  0  0  0
 17 11  2  0  0  0
  1 15  1  0  0  0
  1  6  1  0  0  0
  2  1  2  0  0  0
  3  2  1  0  0  0
  3  4  2  0  0  0
  4  5  1  0  0  0
  5  6  2  0  0  0
  6 32  1  0  0  0
 32 33  1  0  0  0
 33 34  1  0  0  0
 22 24  2  0  0  0
 22 25  1  0  0  0
 22  3  1  0  0  0
 23 22  2  0  0  0
 25 26  1  0  0  0
 27 26  1  0  0  0
 28 29  1  0  0  0
 28 27  1  0  0  0
 30 28  1  0  0  0
 30 31  1  0  0  0
 31 25  1  0  0  0
M  END
> <minimizedAffinity>
-8.93147

$$$$
/home/hjpark/lecture_drug1/0905_agent/pde5_harness/sample_run/structures/work/ligand_ref.pdb


 34 37  0  0  0  0  0  0  0  0999 V2000
    0.3672   64.3993   84.5537 C   0  0  0  0  0  0  0  0  0  0  0  0
   -0.1810   64.1403   83.2379 C   0  0  0  0  0  0  0  0  0  0  0  0
   -1.3238   63.2476   83.0582 C   0  0  0  0  0  0  0  0  0  0  0  0
   -1.9069   62.6178   84.2854 C   0  0  0  0  0  0  0  0  0  0  0  0
   -1.3692   62.8652   85.6192 C   0  0  0  0  0  0  0  0  0  0  0  0
   -0.2093   63.7616   85.7880 C   0  0  0  0  0  0  0  0  0  0  0  0
    3.0305   68.5132   83.5433 C   0  0  0  0  0  0  0  0  0  0  0  0
    4.3320   68.8412   83.9454 N   0  0  0  0  0  0  0  0  0  0  0  0
    4.8296   67.8275   84.7122 N   0  0  0  0  0  0  0  0  0  0  0  0
    6.1753   67.8581   85.2917 C   0  0  0  0  0  0  0  0  0  0  0  0
    3.8556   66.8652   84.7984 C   0  0  0  0  0  0  0  0  0  0  0  0
    3.7772   65.5897   85.4531 C   0  0  0  0  0  0  0  0  0  0  0  0
    4.6813   65.1261   86.1093 O   0  0  0  0  0  0  0  0  0  0  0  0
    2.6050   64.8475   85.3254 N   0  0  0  0  0  0  0  0  0  0  0  0
    1.4873   65.2738   84.5944 C   0  0  0  0  0  0  0  0  0  0  0  0
    1.5151   66.5121   83.9422 N   0  0  0  0  0  0  0  0  0  0  0  0
    2.7070   67.2817   84.0613 C   0  0  0  0  0  0  0  0  0  0  0  0
    0.7439   66.8368   83.4237 H   0  0  0  0  0  0  0  0  0  0  0  0
    2.1521   69.3768   82.6969 C   0  0  0  0  0  0  0  0  0  0  0  0
    2.0344   68.1151   80.4865 C   0  0  0  0  0  0  0  0  0  0  0  0
    2.7546   69.1843   81.2631 C   0  0  0  0  0  0  0  0  0  0  0  0
   -1.9190   62.9350   81.6051 S   0  0  0  0  0  0  0  0  0  0  0  0
   -3.2231   63.0858   81.4654 O   0  0  0  0  0  0  0  0  0  0  0  0
   -1.3851   63.7565   80.7321 O   0  0  0  0  0  0  0  0  0  0  0  0
   -1.4351   61.4326   81.4110 N   0  0  0  0  0  0  0  0  0  0  0  0
   -0.2173   61.2461   80.4234 C   0  0  0  0  0  0  0  0  0  0  0  0
   -0.5323   61.1790   78.9165 C   0  0  0  0  0  0  0  0  0  0  0  0
   -1.7931   60.4576   78.5342 N   0  0  0  0  0  0  0  0  0  0  0  0
   -1.4166   59.2277   77.7703 C   0  0  0  0  0  0  0  0  0  0  0  0
   -2.8012   60.0850   79.6240 C   0  0  0  0  0  0  0  0  0  0  0  0
   -2.3801   60.2801   81.1300 C   0  0  0  0  0  0  0  0  0  0  0  0
    0.4092   64.0506   87.0642 O   0  0  0  0  0  0  0  0  0  0  0  0
   -0.2138   63.8536   88.3493 C   0  0  0  0  0  0  0  0  0  0  0  0
    0.4543   62.6153   88.9234 C   0  0  0  0  0  0  0  0  0  0  0  0
 20 21  1  0  0  0
 21 19  1  0  0  0
 19  7  1  0  0  0
  7 17  1  0  0  0
  7  8  2  0  0  0
  8  9  1  0  0  0
  9 10  1  0  0  0
 11  9  1  0  0  0
 11 12  1  0  0  0
 12 13  2  0  0  0
 14 12  1  0  0  0
 15 14  2  0  0  0
 16 17  1  0  0  0
 16 15  1  0  0  0
 16 18  1  0  0  0
 17 11  2  0  0  0
  1 15  1  0  0  0
  1  6  1  0  0  0
  2  1  2  0  0  0
  3  2  1  0  0  0
  3  4  2  0  0  0
  4  5  1  0  0  0
  5  6  2  0  0  0
  6 32  1  0  0  0
 32 33  1  0  0  0
 33 34  1  0  0  0
 22 24  2  0  0  0
 22 25  1  0  0  0
 22  3  1  0  0  0
 23 22  2  0  0  0
 25 26  1  0  0  0
 27 26  1  0  0  0
 28 29  1  0  0  0
 28 27  1  0  0  0
 30 28  1  0  0  0
 30 31  1  0  0  0
 31 25  1  0  0  0
M  END
> <minimizedAffinity>
-8.90610

$$$$
/home/hjpark/lecture_drug1/0905_agent/pde5_harness/sample_run/structures/work/ligand_ref.pdb


 34 37  0  0  0  0  0  0  0  0999 V2000
    2.0148   66.6512   83.8426 C   0  0  0  0  0  0  0  0  0  0  0  0
    1.3750   67.4747   82.8369 C   0  0  0  0  0  0  0  0  0  0  0  0
    2.0542   68.6369   82.2684 C   0  0  0  0  0  0  0  0  0  0  0  0
    3.4356   68.9383   82.7619 C   0  0  0  0  0  0  0  0  0  0  0  0
    4.0971   68.1219   83.7744 C   0  0  0  0  0  0  0  0  0  0  0  0
    3.3985   66.9556   84.3478 C   0  0  0  0  0  0  0  0  0  0  0  0
   -0.8642   62.5685   83.5580 C   0  0  0  0  0  0  0  0  0  0  0  0
   -1.4193   61.8077   84.5954 N   0  0  0  0  0  0  0  0  0  0  0  0
   -1.0498   62.3502   85.7921 N   0  0  0  0  0  0  0  0  0  0  0  0
   -1.4679   61.7900   87.0801 C   0  0  0  0  0  0  0  0  0  0  0  0
   -0.2673   63.4438   85.5201 C   0  0  0  0  0  0  0  0  0  0  0  0
    0.4098   64.4075   86.3413 C   0  0  0  0  0  0  0  0  0  0  0  0
    0.3810   64.3834   87.5503 O   0  0  0  0  0  0  0  0  0  0  0  0
    1.1332   65.4218   85.7176 N   0  0  0  0  0  0  0  0  0  0  0  0
    1.2448   65.5586   84.3268 C   0  0  0  0  0  0  0  0  0  0  0  0
    0.6057   64.6408   83.4852 N   0  0  0  0  0  0  0  0  0  0  0  0
   -0.1397   63.5995   84.1074 C   0  0  0  0  0  0  0  0  0  0  0  0
    0.6688   64.7121   82.5053 H   0  0  0  0  0  0  0  0  0  0  0  0
   -1.0369   62.2851   82.1007 C   0  0  0  0  0  0  0  0  0  0  0  0
   -3.2820   62.1885   80.9000 C   0  0  0  0  0  0  0  0  0  0  0  0
   -2.3746   63.0269   81.7595 C   0  0  0  0  0  0  0  0  0  0  0  0
    1.3442   69.5677   81.1762 S   0  0  0  0  0  0  0  0  0  0  0  0
    2.1154   70.0148   80.2025 O   0  0  0  0  0  0  0  0  0  0  0  0
    0.3971   68.8861   80.5756 O   0  0  0  0  0  0  0  0  0  0  0  0
    0.7732   70.7233   82.1075 N   0  0  0  0  0  0  0  0  0  0  0  0
   -0.6781   71.2231   81.7373 C   0  0  0  0  0  0  0  0  0  0  0  0
   -0.8002   72.2740   80.6171 C   0  0  0  0  0  0  0  0  0  0  0  0
    0.2772   73.3195   80.5685 N   0  0  0  0  0  0  0  0  0  0  0  0
   -0.3407   74.6450   80.8839 C   0  0  0  0  0  0  0  0  0  0  0  0
    1.5365   73.1355   81.4188 C   0  0  0  0  0  0  0  0  0  0  0  0
    1.5610   71.9662   82.4749 C   0  0  0  0  0  0  0  0  0  0  0  0
    3.9602   66.1004   85.3716 O   0  0  0  0  0  0  0  0  0  0  0  0
    5.2126   66.3314   86.0472 C   0  0  0  0  0  0  0  0  0  0  0  0
    6.2123   65.4329   85.3382 C   0  0  0  0  0  0  0  0  0  0  0  0
 20 21  1  0  0  0
 21 19  1  0  0  0
 19  7  1  0  0  0
  7 17  1  0  0  0
  7  8  2  0  0  0
  8  9  1  0  0  0
  9 10  1  0  0  0
 11  9  1  0  0  0
 11 12  1  0  0  0
 12 13  2  0  0  0
 14 12  1  0  0  0
 15 14  2  0  0  0
 16 17  1  0  0  0
 16 15  1  0  0  0
 16 18  1  0  0  0
 17 11  2  0  0  0
  1 15  1  0  0  0
  1  6  1  0  0  0
  2  1  2  0  0  0
  3  2  1  0  0  0
  3  4  2  0  0  0
  4  5  1  0  0  0
  5  6  2  0  0  0
  6 32  1  0  0  0
 32 33  1  0  0  0
 33 34  1  0  0  0
 22 24  2  0  0  0
 22 25  1  0  0  0
 22  3  1  0  0  0
 23 22  2  0  0  0
 25 26  1  0  0  0
 27 26  1  0  0  0
 28 29  1  0  0  0
 28 27  1  0  0  0
 30 28  1  0  0  0
 30 31  1  0  0  0
 31 25  1  0  0  0
M  END
> <minimizedAffinity>
-8.83390

$$$$
/home/hjpark/lecture_drug1/0905_agent/pde5_harness/sample_run/structures/work/ligand_ref.pdb


 34 37  0  0  0  0  0  0  0  0999 V2000
    0.8945   65.5014   83.0408 C   0  0  0  0  0  0  0  0  0  0  0  0
    0.5074   64.9457   81.7600 C   0  0  0  0  0  0  0  0  0  0  0  0
    0.7956   65.6505   80.5128 C   0  0  0  0  0  0  0  0  0  0  0  0
    1.5094   66.9634   80.6114 C   0  0  0  0  0  0  0  0  0  0  0  0
    1.9070   67.5403   81.8913 C   0  0  0  0  0  0  0  0  0  0  0  0
    1.6033   66.8239   83.1451 C   0  0  0  0  0  0  0  0  0  0  0  0
   -1.8261   62.3201   85.7823 C   0  0  0  0  0  0  0  0  0  0  0  0
   -1.6110   61.8819   87.0956 N   0  0  0  0  0  0  0  0  0  0  0  0
   -0.4770   62.4673   87.5799 N   0  0  0  0  0  0  0  0  0  0  0  0
    0.0282   62.2191   88.9330 C   0  0  0  0  0  0  0  0  0  0  0  0
    0.0250   63.2686   86.5859 C   0  0  0  0  0  0  0  0  0  0  0  0
    1.1741   64.1237   86.4872 C   0  0  0  0  0  0  0  0  0  0  0  0
    1.9663   64.2743   87.3887 O   0  0  0  0  0  0  0  0  0  0  0  0
    1.3874   64.8165   85.2973 N   0  0  0  0  0  0  0  0  0  0  0  0
    0.5448   64.7268   84.1804 C   0  0  0  0  0  0  0  0  0  0  0  0
   -0.5856   63.9027   84.2278 N   0  0  0  0  0  0  0  0  0  0  0  0
   -0.8188   63.1897   85.4379 C   0  0  0  0  0  0  0  0  0  0  0  0
   -1.1932   63.8196   83.4577 H   0  0  0  0  0  0  0  0  0  0  0  0
   -2.9651   61.8947   84.9130 C   0  0  0  0  0  0  0  0  0  0  0  0
   -3.0609   60.4613   82.8087 C   0  0  0  0  0  0  0  0  0  0  0  0
   -2.2471   61.4570   83.5905 C   0  0  0  0  0  0  0  0  0  0  0  0
    0.3478   65.0565   79.0950 S   0  0  0  0  0  0  0  0  0  0  0  0
   -0.6935   65.6337   78.5247 O   0  0  0  0  0  0  0  0  0  0  0  0
    1.3296   65.1985   78.2360 O   0  0  0  0  0  0  0  0  0  0  0  0
    0.0887   63.5371   79.4864 N   0  0  0  0  0  0  0  0  0  0  0  0
    0.8084   62.4779   78.5625 C   0  0  0  0  0  0  0  0  0  0  0  0
    0.1089   62.0988   77.2430 C   0  0  0  0  0  0  0  0  0  0  0  0
   -1.3896   62.0058   77.2899 N   0  0  0  0  0  0  0  0  0  0  0  0
   -1.7785   60.5795   77.0608 C   0  0  0  0  0  0  0  0  0  0  0  0
   -2.1339   62.5404   78.5158 C   0  0  0  0  0  0  0  0  0  0  0  0
   -1.2888   62.9715   79.7741 C   0  0  0  0  0  0  0  0  0  0  0  0
    1.9351   67.3242   84.4621 O   0  0  0  0  0  0  0  0  0  0  0  0
    3.1280   68.0644   84.7897 C   0  0  0  0  0  0  0  0  0  0  0  0
    4.2489   67.0389   84.7517 C   0  0  0  0  0  0  0  0  0  0  0  0
 20 21  1  0  0  0
 21 19  1  0  0  0
 19  7  1  0  0  0
  7 17  1  0  0  0
  7  8  2  0  0  0
  8  9  1  0  0  0
  9 10  1  0  0  0
 11  9  1  0  0  0
 11 12  1  0  0  0
 12 13  2  0  0  0
 14 12  1  0  0  0
 15 14  2  0  0  0
 16 17  1  0  0  0
 16 15  1  0  0  0
 16 18  1  0  0  0
 17 11  2  0  0  0
  1 15  1  0  0  0
  1  6  1  0  0  0
  2  1  2  0  0  0
  3  2  1  0  0  0
  3  4  2  0  0  0
  4  5  1  0  0  0
  5  6  2  0  0  0
  6 32  1  0  0  0
 32 33  1  0  0  0
 33 34  1  0  0  0
 22 24  2  0  0  0
 22 25  1  0  0  0
 22  3  1  0  0  0
 23 22  2  0  0  0
 25 26  1  0  0  0
 27 26  1  0  0  0
 28 29  1  0  0  0
 28 27  1  0  0  0
 30 28  1  0  0  0
 30 31  1  0  0  0
 31 25  1  0  0  0
M  END
> <minimizedAffinity>
-8.60353

$$$$
/home/hjpark/lecture_drug1/0905_agent/pde5_harness/sample_run/structures/work/ligand_ref.pdb


 34 37  0  0  0  0  0  0  0  0999 V2000
    1.2797   66.2068   81.9597 C   0  0  0  0  0  0  0  0  0  0  0  0
    1.7229   67.4269   81.3165 C   0  0  0  0  0  0  0  0  0  0  0  0
    2.3628   68.4947   82.0818 C   0  0  0  0  0  0  0  0  0  0  0  0
    2.5460   68.2753   83.5519 C   0  0  0  0  0  0  0  0  0  0  0  0
    2.1061   67.0542   84.2186 C   0  0  0  0  0  0  0  0  0  0  0  0
    1.4533   65.9860   83.4374 C   0  0  0  0  0  0  0  0  0  0  0  0
   -0.7678   61.8207   80.6916 C   0  0  0  0  0  0  0  0  0  0  0  0
   -1.2808   61.4129   79.4532 N   0  0  0  0  0  0  0  0  0  0  0  0
   -1.1517   62.4363   78.5593 N   0  0  0  0  0  0  0  0  0  0  0  0
   -1.5923   62.3327   77.1655 C   0  0  0  0  0  0  0  0  0  0  0  0
   -0.5639   63.4845   79.2212 C   0  0  0  0  0  0  0  0  0  0  0  0
   -0.1767   64.8111   78.8316 C   0  0  0  0  0  0  0  0  0  0  0  0
   -0.3391   65.2468   77.7150 O   0  0  0  0  0  0  0  0  0  0  0  0
    0.4174   65.6371   79.7834 N   0  0  0  0  0  0  0  0  0  0  0  0
    0.6592   65.2513   81.1094 C   0  0  0  0  0  0  0  0  0  0  0  0
    0.2952   63.9691   81.5369 N   0  0  0  0  0  0  0  0  0  0  0  0
   -0.3111   63.1120   80.5752 C   0  0  0  0  0  0  0  0  0  0  0  0
    0.4517   63.6727   82.4626 H   0  0  0  0  0  0  0  0  0  0  0  0
   -0.7379   60.9782   81.9259 C   0  0  0  0  0  0  0  0  0  0  0  0
   -2.9738   59.8520   82.3989 C   0  0  0  0  0  0  0  0  0  0  0  0
   -2.1924   61.1351   82.4879 C   0  0  0  0  0  0  0  0  0  0  0  0
    2.8314   69.8573   81.3837 S   0  0  0  0  0  0  0  0  0  0  0  0
    4.1332   70.0162   81.2328 O   0  0  0  0  0  0  0  0  0  0  0  0
    2.3376   69.9141   80.1692 O   0  0  0  0  0  0  0  0  0  0  0  0
    2.1768   70.9249   82.3638 N   0  0  0  0  0  0  0  0  0  0  0  0
    0.6700   71.2800   82.0532 C   0  0  0  0  0  0  0  0  0  0  0  0
    0.4022   72.3391   80.9664 C   0  0  0  0  0  0  0  0  0  0  0  0
    1.3640   73.4915   80.9125 N   0  0  0  0  0  0  0  0  0  0  0  0
    0.6241   74.7378   81.2832 C   0  0  0  0  0  0  0  0  0  0  0  0
    2.6638   73.4190   81.7173 C   0  0  0  0  0  0  0  0  0  0  0  0
    2.8446   72.2337   82.7399 C   0  0  0  0  0  0  0  0  0  0  0  0
    0.9621   64.7511   84.0105 O   0  0  0  0  0  0  0  0  0  0  0  0
    0.4907   64.5970   85.3642 C   0  0  0  0  0  0  0  0  0  0  0  0
   -0.3955   63.3629   85.3328 C   0  0  0  0  0  0  0  0  0  0  0  0
 20 21  1  0  0  0
 21 19  1  0  0  0
 19  7  1  0  0  0
  7 17  1  0  0  0
  7  8  2  0  0  0
  8  9  1  0  0  0
  9 10  1  0  0  0
 11  9  1  0  0  0
 11 12  1  0  0  0
 12 13  2  0  0  0
 14 12  1  0  0  0
 15 14  2  0  0  0
 16 17  1  0  0  0
 16 15  1  0  0  0
 16 18  1  0  0  0
 17 11  2  0  0  0
  1 15  1  0  0  0
  1  6  1  0  0  0
  2  1  2  0  0  0
  3  2  1  0  0  0
  3  4  2  0  0  0
  4  5  1  0  0  0
  5  6  2  0  0  0
  6 32  1  0  0  0
 32 33  1  0  0  0
 33 34  1  0  0  0
 22 24  2  0  0  0
 22 25  1  0  0  0
 22  3  1  0  0  0
 23 22  2  0  0  0
 25 26  1  0  0  0
 27 26  1  0  0  0
 28 29  1  0  0  0
 28 27  1  0  0  0
 30 28  1  0  0  0
 30 31  1  0  0  0
 31 25  1  0  0  0
M  END
> <minimizedAffinity>
-8.55061

$$$$
