


 35 37  0  0  0  0  0  0  0  0999 V2000
    1.7516   66.5793   83.4491 C   0  0  0  0  0  0  0  0  0  0  0  0
    2.0257   67.2229   82.2363 C   0  0  0  0  0  0  0  0  0  0  0  0
    1.5853   66.6752   81.0263 C   0  0  0  0  0  0  0  0  0  0  0  0
    0.8592   65.4829   81.0302 C   0  0  0  0  0  0  0  0  0  0  0  0
    0.5764   64.8215   82.2261 C   0  0  0  0  0  0  0  0  0  0  0  0
    1.0227   65.3765   83.4308 C   0  0  0  0  0  0  0  0  0  0  0  0
    0.7225   64.6568   84.6860 C   0  0  0  0  0  0  0  0  0  0  0  0
   -0.3700   63.9839   84.8332 N   0  0  0  0  0  0  0  0  0  0  0  0
   -0.5857   63.3212   86.0283 C   0  0  0  0  0  0  0  0  0  0  0  0
    0.2847   63.3452   87.0613 C   0  0  0  0  0  0  0  0  0  0  0  0
    0.0726   62.4827   88.7049 Br  0  0  0  0  0  0  0  0  0  0  0  0
    1.5375   64.1323   86.8715 C   0  0  0  0  0  0  0  0  0  0  0  0
    2.4210   64.2246   87.7192 O   0  0  0  0  0  0  0  0  0  0  0  0
    1.6654   64.7646   85.6701 N   0  0  0  0  0  0  0  0  0  0  0  0
    2.5270   65.2704   85.5295 H   0  0  0  0  0  0  0  0  0  0  0  0
   -1.9082   62.5508   86.0566 C   0  0  0  0  0  0  0  0  0  0  0  0
   -2.9320   63.2492   86.9571 C   0  0  0  0  0  0  0  0  0  0  0  0
   -2.4718   62.3651   84.6434 C   0  0  0  0  0  0  0  0  0  0  0  0
    0.2888   64.7728   79.5066 S   0  0  0  0  0  0  0  0  0  0  0  0
    1.4399   64.6560   78.6390 O   0  0  0  0  0  0  0  0  0  0  0  0
   -0.9089   65.4710   79.0908 O   0  0  0  0  0  0  0  0  0  0  0  0
   -0.1759   63.2073   79.9934 N   0  0  0  0  0  0  0  0  0  0  0  0
   -1.6237   63.0374   80.3529 C   0  0  0  0  0  0  0  0  0  0  0  0
   -2.3964   62.2874   79.2540 C   0  0  0  0  0  0  0  0  0  0  0  0
   -1.9025   60.9102   79.0479 N   0  0  0  0  0  0  0  0  0  0  0  0
   -2.2923   60.4193   77.7278 C   0  0  0  0  0  0  0  0  0  0  0  0
   -0.4439   60.8166   79.2628 C   0  0  0  0  0  0  0  0  0  0  0  0
    0.3196   62.1383   79.0624 C   0  0  0  0  0  0  0  0  0  0  0  0
    2.1001   67.0696   84.6768 O   0  0  0  0  0  0  0  0  0  0  0  0
    3.0135   68.1624   84.7271 C   0  0  0  0  0  0  0  0  0  0  0  0
    4.3486   67.6655   85.2826 C   0  0  0  0  0  0  0  0  0  0  0  0
    4.8806   66.3864   84.6255 C   0  0  0  0  0  0  0  0  0  0  0  0
    5.2972   65.2713   85.5886 C   0  0  0  0  0  0  0  0  0  0  0  0
    5.6326   65.4938   88.0752 C   0  0  0  0  0  0  0  0  0  0  0  0
    6.2319   65.7480   86.7004 C   0  0  0  0  0  0  0  0  0  0  0  0
 34 35  1  0  0  0
 35 33  1  0  0  0
 33 32  1  0  0  0
 32 31  1  0  0  0
 31 30  1  0  0  0
 30 29  1  0  0  0
 29  1  1  0  0  0
  1  2  1  0  0  0
  2  3  2  0  0  0
  3  4  1  0  0  0
  4 19  1  0  0  0
 19 20  2  0  0  0
 19 21  2  0  0  0
 19 22  1  0  0  0
 22 23  1  0  0  0
 23 24  1  0  0  0
 24 25  1  0  0  0
 25 26  1  0  0  0
 25 27  1  0  0  0
 27 28  1  0  0  0
  4  5  2  0  0  0
  5  6  1  0  0  0
  6  7  1  0  0  0
  7  8  2  0  0  0
  8  9  1  0  0  0
  9 16  1  0  0  0
 16 17  1  0  0  0
 16 18  1  0  0  0
  9 10  2  0  0  0
 10 11  1  0  0  0
 10 12  1  0  0  0
 12 13  2  0  0  0
 12 14  1  0  0  0
  6  1  2  0  0  0
 14  7  1  0  0  0
 28 22  1  0  0  0
 14 15  1  0  0  0
M  END
> <minimizedAffinity>
-9.57800

$$$$



 35 37  0  0  0  0  0  0  0  0999 V2000
    3.1907   66.9079   84.3883 C   0  0  0  0  0  0  0  0  0  0  0  0
    3.9174   67.9665   83.8305 C   0  0  0  0  0  0  0  0  0  0  0  0
    3.3755   68.7297   82.7904 C   0  0  0  0  0  0  0  0  0  0  0  0
    2.0967   68.4384   82.3123 C   0  0  0  0  0  0  0  0  0  0  0  0
    1.3544   67.3862   82.8503 C   0  0  0  0  0  0  0  0  0  0  0  0
    1.9059   66.6278   83.8891 C   0  0  0  0  0  0  0  0  0  0  0  0
    1.1093   65.5114   84.4392 C   0  0  0  0  0  0  0  0  0  0  0  0
    0.5226   64.6571   83.6683 N   0  0  0  0  0  0  0  0  0  0  0  0
   -0.1976   63.6267   84.2460 C   0  0  0  0  0  0  0  0  0  0  0  0
   -0.3298   63.4670   85.5809 C   0  0  0  0  0  0  0  0  0  0  0  0
   -1.2813   62.1094   86.4423 Br  0  0  0  0  0  0  0  0  0  0  0  0
    0.3520   64.4675   86.4523 C   0  0  0  0  0  0  0  0  0  0  0  0
    0.3297   64.4320   87.6795 O   0  0  0  0  0  0  0  0  0  0  0  0
    1.0290   65.4572   85.8029 N   0  0  0  0  0  0  0  0  0  0  0  0
    1.5168   66.1153   86.3920 H   0  0  0  0  0  0  0  0  0  0  0  0
   -0.8220   62.6812   83.2168 C   0  0  0  0  0  0  0  0  0  0  0  0
   -1.6155   63.4613   82.1639 C   0  0  0  0  0  0  0  0  0  0  0  0
    0.2447   61.8067   82.5485 C   0  0  0  0  0  0  0  0  0  0  0  0
    1.3895   69.3960   80.9956 S   0  0  0  0  0  0  0  0  0  0  0  0
    0.4036   68.5592   80.3482 O   0  0  0  0  0  0  0  0  0  0  0  0
    2.4617   70.0222   80.2517 O   0  0  0  0  0  0  0  0  0  0  0  0
    0.5725   70.6258   81.8464 N   0  0  0  0  0  0  0  0  0  0  0  0
    1.4453   71.6394   82.5283 C   0  0  0  0  0  0  0  0  0  0  0  0
    1.4541   72.9797   81.7729 C   0  0  0  0  0  0  0  0  0  0  0  0
    0.1210   73.6145   81.7216 N   0  0  0  0  0  0  0  0  0  0  0  0
    0.0555   74.5789   80.6257 C   0  0  0  0  0  0  0  0  0  0  0  0
   -0.9583   72.6092   81.6370 C   0  0  0  0  0  0  0  0  0  0  0  0
   -0.5282   71.2558   81.0424 C   0  0  0  0  0  0  0  0  0  0  0  0
    3.6232   66.1456   85.4376 O   0  0  0  0  0  0  0  0  0  0  0  0
    4.6464   65.1848   85.1907 C   0  0  0  0  0  0  0  0  0  0  0  0
    5.4805   65.0134   86.4606 C   0  0  0  0  0  0  0  0  0  0  0  0
    6.4899   66.1376   86.7218 C   0  0  0  0  0  0  0  0  0  0  0  0
    6.9236   66.9372   85.4900 C   0  0  0  0  0  0  0  0  0  0  0  0
    8.2604   65.2058   84.2410 C   0  0  0  0  0  0  0  0  0  0  0  0
    8.3043   66.5424   84.9659 C   0  0  0  0  0  0  0  0  0  0  0  0
 34 35  1  0  0  0
 35 33  1  0  0  0
 33 32  1  0  0  0
 32 31  1  0  0  0
 31 30  1  0  0  0
 30 29  1  0  0  0
 29  1  1  0  0  0
  1  2  1  0  0  0
  2  3  2  0  0  0
  3  4  1  0  0  0
  4 19  1  0  0  0
 19 20  2  0  0  0
 19 21  2  0  0  0
 19 22  1  0  0  0
 22 23  1  0  0  0
 23 24  1  0  0  0
 24 25  1  0  0  0
 25 26  1  0  0  0
 25 27  1  0  0  0
 27 28  1  0  0  0
  4  5  2  0  0  0
  5  6  1  0  0  0
  6  7  1  0  0  0
  7  8  2  0  0  0
  8  9  1  0  0  0
  9 16  1  0  0  0
 16 17  1  0  0  0
 16 18  1  0  0  0
  9 10  2  0  0  0
 10 11  1  0  0  0
 10 12  1  0  0  0
 12 13  2  0  0  0
 12 14  1  0  0  0
  6  1  2  0  0  0
 14  7  1  0  0  0
 28 22  1  0  0  0
 14 15  1  0  0  0
M  END
> <minimizedAffinity>
-9.39003

$$$$



 35 37  0  0  0  0  0  0  0  0999 V2000
    0.0126   63.9980   84.1389 C   0  0  0  0  0  0  0  0  0  0  0  0
    0.4044   64.6537   85.3122 C   0  0  0  0  0  0  0  0  0  0  0  0
    1.2820   65.7422   85.2583 C   0  0  0  0  0  0  0  0  0  0  0  0
    1.7626   66.1828   84.0239 C   0  0  0  0  0  0  0  0  0  0  0  0
    1.3887   65.5435   82.8411 C   0  0  0  0  0  0  0  0  0  0  0  0
    0.5119   64.4547   82.9058 C   0  0  0  0  0  0  0  0  0  0  0  0
    0.1353   63.7840   81.6441 C   0  0  0  0  0  0  0  0  0  0  0  0
    0.4016   64.3099   80.4949 N   0  0  0  0  0  0  0  0  0  0  0  0
    0.0342   63.6252   79.3502 C   0  0  0  0  0  0  0  0  0  0  0  0
   -0.5996   62.4322   79.3667 C   0  0  0  0  0  0  0  0  0  0  0  0
   -1.1309   61.4428   77.8737 Br  0  0  0  0  0  0  0  0  0  0  0  0
   -0.9015   61.8455   80.7045 C   0  0  0  0  0  0  0  0  0  0  0  0
   -1.4559   60.7618   80.8655 O   0  0  0  0  0  0  0  0  0  0  0  0
   -0.5175   62.5905   81.7801 N   0  0  0  0  0  0  0  0  0  0  0  0
   -0.6926   62.1790   82.6845 H   0  0  0  0  0  0  0  0  0  0  0  0
    0.4276   64.3544   78.0631 C   0  0  0  0  0  0  0  0  0  0  0  0
   -0.8071   64.9119   77.3479 C   0  0  0  0  0  0  0  0  0  0  0  0
    1.4371   65.4725   78.3458 C   0  0  0  0  0  0  0  0  0  0  0  0
    2.8744   67.5636   83.9330 S   0  0  0  0  0  0  0  0  0  0  0  0
    2.5175   68.4636   85.0074 O   0  0  0  0  0  0  0  0  0  0  0  0
    2.9449   68.0110   82.5583 O   0  0  0  0  0  0  0  0  0  0  0  0
    4.3713   66.8433   84.3129 N   0  0  0  0  0  0  0  0  0  0  0  0
    5.3800   67.7402   84.9703 C   0  0  0  0  0  0  0  0  0  0  0  0
    5.5183   67.4331   86.4716 C   0  0  0  0  0  0  0  0  0  0  0  0
    6.0145   66.0659   86.7309 N   0  0  0  0  0  0  0  0  0  0  0  0
    5.6736   65.6469   88.0887 C   0  0  0  0  0  0  0  0  0  0  0  0
    5.5253   65.1075   85.7186 C   0  0  0  0  0  0  0  0  0  0  0  0
    4.2200   65.5262   85.0179 C   0  0  0  0  0  0  0  0  0  0  0  0
   -0.8777   62.9613   84.0968 O   0  0  0  0  0  0  0  0  0  0  0  0
   -1.0850   62.2076   85.2885 C   0  0  0  0  0  0  0  0  0  0  0  0
   -2.5379   62.3766   85.7339 C   0  0  0  0  0  0  0  0  0  0  0  0
   -2.7218   62.6554   87.2304 C   0  0  0  0  0  0  0  0  0  0  0  0
   -1.6598   63.5526   87.8720 C   0  0  0  0  0  0  0  0  0  0  0  0
    0.6541   63.0583   88.7360 C   0  0  0  0  0  0  0  0  0  0  0  0
   -0.8369   62.8440   88.9480 C   0  0  0  0  0  0  0  0  0  0  0  0
 34 35  1  0  0  0
 35 33  1  0  0  0
 33 32  1  0  0  0
 32 31  1  0  0  0
 31 30  1  0  0  0
 30 29  1  0  0  0
 29  1  1  0  0  0
  1  2  1  0  0  0
  2  3  2  0  0  0
  3  4  1  0  0  0
  4 19  1  0  0  0
 19 20  2  0  0  0
 19 21  2  0  0  0
 19 22  1  0  0  0
 22 23  1  0  0  0
 23 24  1  0  0  0
 24 25  1  0  0  0
 25 26  1  0  0  0
 25 27  1  0  0  0
 27 28  1  0  0  0
  4  5  2  0  0  0
  5  6  1  0  0  0
  6  7  1  0  0  0
  7  8  2  0  0  0
  8  9  1  0  0  0
  9 16  1  0  0  0
 16 17  1  0  0  0
 16 18  1  0  0  0
  9 10  2  0  0  0
 10 11  1  0  0  0
 10 12  1  0  0  0
 12 13  2  0  0  0
 12 14  1  0  0  0
  6  1  2  0  0  0
 14  7  1  0  0  0
 28 22  1  0  0  0
 14 15  1  0  0  0
M  END
> <minimizedAffinity>
-9.37220

$$$$



 35 37  0  0  0  0  0  0  0  0999 V2000
    0.4842   64.9400   82.0237 C   0  0  0  0  0  0  0  0  0  0  0  0
    1.2016   65.8151   81.1994 C   0  0  0  0  0  0  0  0  0  0  0  0
    2.0647   66.7665   81.7542 C   0  0  0  0  0  0  0  0  0  0  0  0
    2.2178   66.8368   83.1400 C   0  0  0  0  0  0  0  0  0  0  0  0
    1.5110   65.9774   83.9823 C   0  0  0  0  0  0  0  0  0  0  0  0
    0.6491   65.0304   83.4176 C   0  0  0  0  0  0  0  0  0  0  0  0
   -0.0985   64.1358   84.3256 C   0  0  0  0  0  0  0  0  0  0  0  0
    0.2607   63.9690   85.5550 N   0  0  0  0  0  0  0  0  0  0  0  0
   -0.4893   63.1278   86.3574 C   0  0  0  0  0  0  0  0  0  0  0  0
   -1.5798   62.4595   85.9223 C   0  0  0  0  0  0  0  0  0  0  0  0
   -2.6461   61.3070   86.9348 Br  0  0  0  0  0  0  0  0  0  0  0  0
   -1.9739   62.6630   84.4981 C   0  0  0  0  0  0  0  0  0  0  0  0
   -2.9515   62.1330   83.9776 O   0  0  0  0  0  0  0  0  0  0  0  0
   -1.1741   63.4971   83.7740 N   0  0  0  0  0  0  0  0  0  0  0  0
   -1.4589   63.6601   82.8200 H   0  0  0  0  0  0  0  0  0  0  0  0
    0.0385   63.0392   87.7916 C   0  0  0  0  0  0  0  0  0  0  0  0
    1.4224   63.6856   87.9089 C   0  0  0  0  0  0  0  0  0  0  0  0
   -0.9403   63.6783   88.7830 C   0  0  0  0  0  0  0  0  0  0  0  0
    3.3097   68.0344   83.8642 S   0  0  0  0  0  0  0  0  0  0  0  0
    2.6938   68.4760   85.0959 O   0  0  0  0  0  0  0  0  0  0  0  0
    3.7144   68.9714   82.8379 O   0  0  0  0  0  0  0  0  0  0  0  0
    4.6708   67.0870   84.2558 N   0  0  0  0  0  0  0  0  0  0  0  0
    5.7747   67.7983   84.9837 C   0  0  0  0  0  0  0  0  0  0  0  0
    5.8118   67.4134   86.4729 C   0  0  0  0  0  0  0  0  0  0  0  0
    6.0939   65.9786   86.6845 N   0  0  0  0  0  0  0  0  0  0  0  0
    5.6462   65.5595   88.0109 C   0  0  0  0  0  0  0  0  0  0  0  0
    5.5076   65.1446   85.6152 C   0  0  0  0  0  0  0  0  0  0  0  0
    4.3037   65.7788   84.8952 C   0  0  0  0  0  0  0  0  0  0  0  0
   -0.3396   63.9505   81.5640 O   0  0  0  0  0  0  0  0  0  0  0  0
   -0.1647   63.5027   80.2224 C   0  0  0  0  0  0  0  0  0  0  0  0
    0.4191   62.0898   80.2449 C   0  0  0  0  0  0  0  0  0  0  0  0
    0.2137   61.3316   81.5617 C   0  0  0  0  0  0  0  0  0  0  0  0
    1.4838   61.0527   82.3701 C   0  0  0  0  0  0  0  0  0  0  0  0
    3.6151   59.7100   82.3667 C   0  0  0  0  0  0  0  0  0  0  0  0
    2.6353   60.5111   81.5229 C   0  0  0  0  0  0  0  0  0  0  0  0
 34 35  1  0  0  0
 35 33  1  0  0  0
 33 32  1  0  0  0
 32 31  1  0  0  0
 31 30  1  0  0  0
 30 29  1  0  0  0
 29  1  1  0  0  0
  1  2  1  0  0  0
  2  3  2  0  0  0
  3  4  1  0  0  0
  4 19  1  0  0  0
 19 20  2  0  0  0
 19 21  2  0  0  0
 19 22  1  0  0  0
 22 23  1  0  0  0
 23 24  1  0  0  0
 24 25  1  0  0  0
 25 26  1  0  0  0
 25 27  1  0  0  0
 27 28  1  0  0  0
  4  5  2  0  0  0
  5  6  1  0  0  0
  6  7  1  0  0  0
  7  8  2  0  0  0
  8  9  1  0  0  0
  9 16  1  0  0  0
 16 17  1  0  0  0
 16 18  1  0  0  0
  9 10  2  0  0  0
 10 11  1  0  0  0
 10 12  1  0  0  0
 12 13  2  0  0  0
 12 14  1  0  0  0
  6  1  2  0  0  0
 14  7  1  0  0  0
 28 22  1  0  0  0
 14 15  1  0  0  0
M  END
> <minimizedAffinity>
-9.34462

$$$$



 35 37  0  0  0  0  0  0  0  0999 V2000
    0.0046   64.1548   83.9824 C   0  0  0  0  0  0  0  0  0  0  0  0
    0.4870   64.6838   85.1855 C   0  0  0  0  0  0  0  0  0  0  0  0
    1.3820   65.7594   85.1801 C   0  0  0  0  0  0  0  0  0  0  0  0
    1.7891   66.3145   83.9657 C   0  0  0  0  0  0  0  0  0  0  0  0
    1.3243   65.8024   82.7535 C   0  0  0  0  0  0  0  0  0  0  0  0
    0.4308   64.7255   82.7695 C   0  0  0  0  0  0  0  0  0  0  0  0
   -0.0427   64.1902   81.4761 C   0  0  0  0  0  0  0  0  0  0  0  0
   -0.7823   63.1333   81.4135 N   0  0  0  0  0  0  0  0  0  0  0  0
   -1.2038   62.6905   80.1724 C   0  0  0  0  0  0  0  0  0  0  0  0
   -0.8760   63.3010   79.0127 C   0  0  0  0  0  0  0  0  0  0  0  0
   -1.3992   62.7715   77.2991 Br  0  0  0  0  0  0  0  0  0  0  0  0
   -0.0172   64.5170   79.1079 C   0  0  0  0  0  0  0  0  0  0  0  0
    0.3402   65.1783   78.1371 O   0  0  0  0  0  0  0  0  0  0  0  0
    0.3642   64.8776   80.3665 N   0  0  0  0  0  0  0  0  0  0  0  0
    0.9182   65.7181   80.4337 H   0  0  0  0  0  0  0  0  0  0  0  0
   -2.0869   61.4425   80.2491 C   0  0  0  0  0  0  0  0  0  0  0  0
   -1.8157   60.6555   81.5351 C   0  0  0  0  0  0  0  0  0  0  0  0
   -3.5719   61.8070   80.1436 C   0  0  0  0  0  0  0  0  0  0  0  0
    2.9215   67.6812   83.9367 S   0  0  0  0  0  0  0  0  0  0  0  0
    2.5573   68.5538   85.0310 O   0  0  0  0  0  0  0  0  0  0  0  0
    3.0237   68.1684   82.5776 O   0  0  0  0  0  0  0  0  0  0  0  0
    4.4009   66.9284   84.3217 N   0  0  0  0  0  0  0  0  0  0  0  0
    5.4016   67.7844   85.0429 C   0  0  0  0  0  0  0  0  0  0  0  0
    5.4985   67.4105   86.5322 C   0  0  0  0  0  0  0  0  0  0  0  0
    5.9742   66.0278   86.7436 N   0  0  0  0  0  0  0  0  0  0  0  0
    5.5947   65.5539   88.0728 C   0  0  0  0  0  0  0  0  0  0  0  0
    5.5012   65.1200   85.6783 C   0  0  0  0  0  0  0  0  0  0  0  0
    4.2184   65.5835   84.9643 C   0  0  0  0  0  0  0  0  0  0  0  0
   -0.9083   63.1405   83.8985 O   0  0  0  0  0  0  0  0  0  0  0  0
   -1.1020   62.3170   85.0454 C   0  0  0  0  0  0  0  0  0  0  0  0
   -2.5537   62.4468   85.5077 C   0  0  0  0  0  0  0  0  0  0  0  0
   -2.7285   62.6972   87.0103 C   0  0  0  0  0  0  0  0  0  0  0  0
   -1.6467   63.5583   87.6682 C   0  0  0  0  0  0  0  0  0  0  0  0
    0.6006   63.1886   88.7444 C   0  0  0  0  0  0  0  0  0  0  0  0
   -0.8771   62.8286   88.7692 C   0  0  0  0  0  0  0  0  0  0  0  0
 34 35  1  0  0  0
 35 33  1  0  0  0
 33 32  1  0  0  0
 32 31  1  0  0  0
 31 30  1  0  0  0
 30 29  1  0  0  0
 29  1  1  0  0  0
  1  2  1  0  0  0
  2  3  2  0  0  0
  3  4  1  0  0  0
  4 19  1  0  0  0
 19 20  2  0  0  0
 19 21  2  0  0  0
 19 22  1  0  0  0
 22 23  1  0  0  0
 23 24  1  0  0  0
 24 25  1  0  0  0
 25 26  1  0  0  0
 25 27  1  0  0  0
 27 28  1  0  0  0
  4  5  2  0  0  0
  5  6  1  0  0  0
  6  7  1  0  0  0
  7  8  2  0  0  0
  8  9  1  0  0  0
  9 16  1  0  0  0
 16 17  1  0  0  0
 16 18  1  0  0  0
  9 10  2  0  0  0
 10 11  1  0  0  0
 10 12  1  0  0  0
 12 13  2  0  0  0
 12 14  1  0  0  0
  6  1  2  0  0  0
 14  7  1  0  0  0
 28 22  1  0  0  0
 14 15  1  0  0  0
M  END
> <minimizedAffinity>
-9.33992

$$$$



 35 37  0  0  0  0  0  0  0  0999 V2000
    0.5754   65.1359   82.4822 C   0  0  0  0  0  0  0  0  0  0  0  0
    0.8758   65.9506   81.3840 C   0  0  0  0  0  0  0  0  0  0  0  0
    1.5786   67.1478   81.5589 C   0  0  0  0  0  0  0  0  0  0  0  0
    1.9911   67.5274   82.8374 C   0  0  0  0  0  0  0  0  0  0  0  0
    1.7007   66.7335   83.9478 C   0  0  0  0  0  0  0  0  0  0  0  0
    0.9959   65.5388   83.7626 C   0  0  0  0  0  0  0  0  0  0  0  0
    0.6888   64.7164   84.9512 C   0  0  0  0  0  0  0  0  0  0  0  0
   -0.3977   64.0224   85.0291 N   0  0  0  0  0  0  0  0  0  0  0  0
   -0.6202   63.2625   86.1637 C   0  0  0  0  0  0  0  0  0  0  0  0
    0.2373   63.2114   87.2063 C   0  0  0  0  0  0  0  0  0  0  0  0
    0.0153   62.2160   88.7716 Br  0  0  0  0  0  0  0  0  0  0  0  0
    1.4834   64.0243   87.0973 C   0  0  0  0  0  0  0  0  0  0  0  0
    2.3554   64.0565   87.9610 O   0  0  0  0  0  0  0  0  0  0  0  0
    1.6185   64.7535   85.9529 N   0  0  0  0  0  0  0  0  0  0  0  0
    2.4759   65.2779   85.8650 H   0  0  0  0  0  0  0  0  0  0  0  0
   -1.9341   62.4788   86.1122 C   0  0  0  0  0  0  0  0  0  0  0  0
   -3.0146   63.1611   86.9569 C   0  0  0  0  0  0  0  0  0  0  0  0
   -2.4145   62.2963   84.6682 C   0  0  0  0  0  0  0  0  0  0  0  0
    2.8863   69.0407   83.0808 S   0  0  0  0  0  0  0  0  0  0  0  0
    4.2259   68.6775   83.4868 O   0  0  0  0  0  0  0  0  0  0  0  0
    2.0702   69.9391   83.8694 O   0  0  0  0  0  0  0  0  0  0  0  0
    2.9586   69.6720   81.4997 N   0  0  0  0  0  0  0  0  0  0  0  0
    1.9376   70.7215   81.1676 C   0  0  0  0  0  0  0  0  0  0  0  0
    2.5624   72.1269   81.1258 C   0  0  0  0  0  0  0  0  0  0  0  0
    3.5893   72.2637   80.0725 N   0  0  0  0  0  0  0  0  0  0  0  0
    4.4777   73.3860   80.3669 C   0  0  0  0  0  0  0  0  0  0  0  0
    4.3373   71.0052   79.8741 C   0  0  0  0  0  0  0  0  0  0  0  0
    4.3495   70.0677   81.0951 C   0  0  0  0  0  0  0  0  0  0  0  0
   -0.0614   63.9293   82.3945 O   0  0  0  0  0  0  0  0  0  0  0  0
   -0.5272   63.5091   81.1149 C   0  0  0  0  0  0  0  0  0  0  0  0
    0.0871   62.1477   80.7878 C   0  0  0  0  0  0  0  0  0  0  0  0
    0.2696   61.2196   81.9946 C   0  0  0  0  0  0  0  0  0  0  0  0
    1.7082   61.0574   82.4934 C   0  0  0  0  0  0  0  0  0  0  0  0
    3.9637   59.9937   82.1381 C   0  0  0  0  0  0  0  0  0  0  0  0
    2.6026   60.2842   81.5243 C   0  0  0  0  0  0  0  0  0  0  0  0
 34 35  1  0  0  0
 35 33  1  0  0  0
 33 32  1  0  0  0
 32 31  1  0  0  0
 31 30  1  0  0  0
 30 29  1  0  0  0
 29  1  1  0  0  0
  1  2  1  0  0  0
  2  3  2  0  0  0
  3  4  1  0  0  0
  4 19  1  0  0  0
 19 20  2  0  0  0
 19 21  2  0  0  0
 19 22  1  0  0  0
 22 23  1  0  0  0
 23 24  1  0  0  0
 24 25  1  0  0  0
 25 26  1  0  0  0
 25 27  1  0  0  0
 27 28  1  0  0  0
  4  5  2  0  0  0
  5  6  1  0  0  0
  6  7  1  0  0  0
  7  8  2  0  0  0
  8  9  1  0  0  0
  9 16  1  0  0  0
 16 17  1  0  0  0
 16 18  1  0  0  0
  9 10  2  0  0  0
 10 11  1  0  0  0
 10 12  1  0  0  0
 12 13  2  0  0  0
 12 14  1  0  0  0
  6  1  2  0  0  0
 14  7  1  0  0  0
 28 22  1  0  0  0
 14 15  1  0  0  0
M  END
> <minimizedAffinity>
-9.19139

$$$$



 35 37  0  0  0  0  0  0  0  0999 V2000
    0.8533   64.9692   83.2297 C   0  0  0  0  0  0  0  0  0  0  0  0
    1.6549   65.9028   83.8973 C   0  0  0  0  0  0  0  0  0  0  0  0
    1.9906   67.1163   83.2867 C   0  0  0  0  0  0  0  0  0  0  0  0
    1.5144   67.4010   82.0057 C   0  0  0  0  0  0  0  0  0  0  0  0
    0.7165   66.4848   81.3191 C   0  0  0  0  0  0  0  0  0  0  0  0
    0.3878   65.2734   81.9377 C   0  0  0  0  0  0  0  0  0  0  0  0
   -0.4496   64.3115   81.1913 C   0  0  0  0  0  0  0  0  0  0  0  0
   -0.3151   64.1464   79.9174 N   0  0  0  0  0  0  0  0  0  0  0  0
   -1.1209   63.2205   79.2792 C   0  0  0  0  0  0  0  0  0  0  0  0
   -2.0534   62.4793   79.9166 C   0  0  0  0  0  0  0  0  0  0  0  0
   -3.1809   61.2115   79.1345 Br  0  0  0  0  0  0  0  0  0  0  0  0
   -2.1951   62.6895   81.3866 C   0  0  0  0  0  0  0  0  0  0  0  0
   -2.9885   62.0719   82.0914 O   0  0  0  0  0  0  0  0  0  0  0  0
   -1.3722   63.6289   81.9343 N   0  0  0  0  0  0  0  0  0  0  0  0
   -1.4454   63.7481   82.9335 H   0  0  0  0  0  0  0  0  0  0  0  0
   -0.8410   63.1159   77.7779 C   0  0  0  0  0  0  0  0  0  0  0  0
   -0.4193   64.4712   77.2017 C   0  0  0  0  0  0  0  0  0  0  0  0
    0.2224   62.0516   77.4851 C   0  0  0  0  0  0  0  0  0  0  0  0
    1.9261   68.9357   81.2143 S   0  0  0  0  0  0  0  0  0  0  0  0
    1.4846   68.8335   79.8409 O   0  0  0  0  0  0  0  0  0  0  0  0
    3.2918   69.2777   81.5504 O   0  0  0  0  0  0  0  0  0  0  0  0
    0.9098   70.0391   82.0226 N   0  0  0  0  0  0  0  0  0  0  0  0
    1.5991   71.1920   82.6934 C   0  0  0  0  0  0  0  0  0  0  0  0
    1.4112   72.5005   81.9061 C   0  0  0  0  0  0  0  0  0  0  0  0
   -0.0040   72.9158   81.8192 N   0  0  0  0  0  0  0  0  0  0  0  0
   -0.1997   73.8342   80.6996 C   0  0  0  0  0  0  0  0  0  0  0  0
   -0.9098   71.7512   81.7422 C   0  0  0  0  0  0  0  0  0  0  0  0
   -0.2610   70.4702   81.1870 C   0  0  0  0  0  0  0  0  0  0  0  0
    0.4376   63.7845   83.7709 O   0  0  0  0  0  0  0  0  0  0  0  0
    0.0381   63.7766   85.1389 C   0  0  0  0  0  0  0  0  0  0  0  0
   -1.0302   62.7006   85.3357 C   0  0  0  0  0  0  0  0  0  0  0  0
   -1.1363   62.1558   86.7650 C   0  0  0  0  0  0  0  0  0  0  0  0
   -1.6773   63.1367   87.8089 C   0  0  0  0  0  0  0  0  0  0  0  0
    0.2689   62.2155   89.1161 C   0  0  0  0  0  0  0  0  0  0  0  0
   -0.7234   63.3606   88.9824 C   0  0  0  0  0  0  0  0  0  0  0  0
 34 35  1  0  0  0
 35 33  1  0  0  0
 33 32  1  0  0  0
 32 31  1  0  0  0
 31 30  1  0  0  0
 30 29  1  0  0  0
 29  1  1  0  0  0
  1  2  1  0  0  0
  2  3  2  0  0  0
  3  4  1  0  0  0
  4 19  1  0  0  0
 19 20  2  0  0  0
 19 21  2  0  0  0
 19 22  1  0  0  0
 22 23  1  0  0  0
 23 24  1  0  0  0
 24 25  1  0  0  0
 25 26  1  0  0  0
 25 27  1  0  0  0
 27 28  1  0  0  0
  4  5  2  0  0  0
  5  6  1  0  0  0
  6  7  1  0  0  0
  7  8  2  0  0  0
  8  9  1  0  0  0
  9 16  1  0  0  0
 16 17  1  0  0  0
 16 18  1  0  0  0
  9 10  2  0  0  0
 10 11  1  0  0  0
 10 12  1  0  0  0
 12 13  2  0  0  0
 12 14  1  0  0  0
  6  1  2  0  0  0
 14  7  1  0  0  0
 28 22  1  0  0  0
 14 15  1  0  0  0
M  END
> <minimizedAffinity>
-9.12810

$$$$



 35 37  0  0  0  0  0  0  0  0999 V2000
    0.2783   63.8853   82.4027 C   0  0  0  0  0  0  0  0  0  0  0  0
    0.7760   64.9339   83.1855 C   0  0  0  0  0  0  0  0  0  0  0  0
    0.9732   66.2031   82.6303 C   0  0  0  0  0  0  0  0  0  0  0  0
    0.6622   66.4267   81.2878 C   0  0  0  0  0  0  0  0  0  0  0  0
    0.1679   65.3964   80.4868 C   0  0  0  0  0  0  0  0  0  0  0  0
   -0.0242   64.1303   81.0511 C   0  0  0  0  0  0  0  0  0  0  0  0
   -0.5388   63.0493   80.1850 C   0  0  0  0  0  0  0  0  0  0  0  0
   -1.5751   62.3538   80.5177 N   0  0  0  0  0  0  0  0  0  0  0  0
   -2.0149   61.3642   79.6566 C   0  0  0  0  0  0  0  0  0  0  0  0
   -1.4121   61.0764   78.4823 C   0  0  0  0  0  0  0  0  0  0  0  0
   -1.9373   59.7608   77.2643 Br  0  0  0  0  0  0  0  0  0  0  0  0
   -0.2145   61.8886   78.1202 C   0  0  0  0  0  0  0  0  0  0  0  0
    0.4174   61.7459   77.0771 O   0  0  0  0  0  0  0  0  0  0  0  0
    0.1594   62.8336   79.0295 N   0  0  0  0  0  0  0  0  0  0  0  0
    0.9498   63.4044   78.7701 H   0  0  0  0  0  0  0  0  0  0  0  0
   -3.2600   60.6349   80.1674 C   0  0  0  0  0  0  0  0  0  0  0  0
   -2.9989   59.9921   81.5332 C   0  0  0  0  0  0  0  0  0  0  0  0
   -4.4655   61.5788   80.2380 C   0  0  0  0  0  0  0  0  0  0  0  0
    0.9022   68.0299   80.5646 S   0  0  0  0  0  0  0  0  0  0  0  0
   -0.4067   68.5327   80.2101 O   0  0  0  0  0  0  0  0  0  0  0  0
    1.9721   67.9439   79.5936 O   0  0  0  0  0  0  0  0  0  0  0  0
    1.4836   68.9352   81.8860 N   0  0  0  0  0  0  0  0  0  0  0  0
    2.9699   68.9033   82.0966 C   0  0  0  0  0  0  0  0  0  0  0  0
    3.6329   70.2206   81.6580 C   0  0  0  0  0  0  0  0  0  0  0  0
    3.1725   71.3816   82.4472 N   0  0  0  0  0  0  0  0  0  0  0  0
    3.4187   72.6247   81.7197 C   0  0  0  0  0  0  0  0  0  0  0  0
    1.7553   71.2447   82.8418 C   0  0  0  0  0  0  0  0  0  0  0  0
    0.9218   70.3270   81.9290 C   0  0  0  0  0  0  0  0  0  0  0  0
    0.0092   62.6314   82.8765 O   0  0  0  0  0  0  0  0  0  0  0  0
   -0.4375   62.5060   84.2240 C   0  0  0  0  0  0  0  0  0  0  0  0
   -1.9662   62.5300   84.2423 C   0  0  0  0  0  0  0  0  0  0  0  0
   -2.5903   62.5748   85.6421 C   0  0  0  0  0  0  0  0  0  0  0  0
   -1.6507   62.2192   86.7976 C   0  0  0  0  0  0  0  0  0  0  0  0
   -0.1453   64.1074   87.5141 C   0  0  0  0  0  0  0  0  0  0  0  0
   -1.4452   63.3661   87.7872 C   0  0  0  0  0  0  0  0  0  0  0  0
 34 35  1  0  0  0
 35 33  1  0  0  0
 33 32  1  0  0  0
 32 31  1  0  0  0
 31 30  1  0  0  0
 30 29  1  0  0  0
 29  1  1  0  0  0
  1  2  1  0  0  0
  2  3  2  0  0  0
  3  4  1  0  0  0
  4 19  1  0  0  0
 19 20  2  0  0  0
 19 21  2  0  0  0
 19 22  1  0  0  0
 22 23  1  0  0  0
 23 24  1  0  0  0
 24 25  1  0  0  0
 25 26  1  0  0  0
 25 27  1  0  0  0
 27 28  1  0  0  0
  4  5  2  0  0  0
  5  6  1  0  0  0
  6  7  1  0  0  0
  7  8  2  0  0  0
  8  9  1  0  0  0
  9 16  1  0  0  0
 16 17  1  0  0  0
 16 18  1  0  0  0
  9 10  2  0  0  0
 10 11  1  0  0  0
 10 12  1  0  0  0
 12 13  2  0  0  0
 12 14  1  0  0  0
  6  1  2  0  0  0
 14  7  1  0  0  0
 28 22  1  0  0  0
 14 15  1  0  0  0
M  END
> <minimizedAffinity>
-9.10124

$$$$



 35 37  0  0  0  0  0  0  0  0999 V2000
    0.5745   64.6781   82.7341 C   0  0  0  0  0  0  0  0  0  0  0  0
    1.3272   65.6876   83.3459 C   0  0  0  0  0  0  0  0  0  0  0  0
    1.4864   66.9309   82.7240 C   0  0  0  0  0  0  0  0  0  0  0  0
    0.8819   67.1686   81.4883 C   0  0  0  0  0  0  0  0  0  0  0  0
    0.1295   66.1770   80.8574 C   0  0  0  0  0  0  0  0  0  0  0  0
   -0.0223   64.9363   81.4869 C   0  0  0  0  0  0  0  0  0  0  0  0
   -0.8140   63.8953   80.7991 C   0  0  0  0  0  0  0  0  0  0  0  0
   -0.6731   63.6650   79.5360 N   0  0  0  0  0  0  0  0  0  0  0  0
   -1.4349   62.6674   78.9541 C   0  0  0  0  0  0  0  0  0  0  0  0
   -2.3306   61.9203   79.6357 C   0  0  0  0  0  0  0  0  0  0  0  0
   -3.3976   60.5585   78.9306 Br  0  0  0  0  0  0  0  0  0  0  0  0
   -2.4806   62.2064   81.0920 C   0  0  0  0  0  0  0  0  0  0  0  0
   -3.2431   61.5928   81.8335 O   0  0  0  0  0  0  0  0  0  0  0  0
   -1.7025   63.2130   81.5828 N   0  0  0  0  0  0  0  0  0  0  0  0
   -1.7803   63.3850   82.5739 H   0  0  0  0  0  0  0  0  0  0  0  0
   -1.1519   62.4914   77.4600 C   0  0  0  0  0  0  0  0  0  0  0  0
   -0.7020   63.8116   76.8266 C   0  0  0  0  0  0  0  0  0  0  0  0
   -0.1083   61.3950   77.2189 C   0  0  0  0  0  0  0  0  0  0  0  0
    1.0689   68.7398   80.6836 S   0  0  0  0  0  0  0  0  0  0  0  0
   -0.2512   69.3221   80.5839 O   0  0  0  0  0  0  0  0  0  0  0  0
    1.9132   68.5663   79.5209 O   0  0  0  0  0  0  0  0  0  0  0  0
    1.9599   69.6270   81.8337 N   0  0  0  0  0  0  0  0  0  0  0  0
    3.4095   69.8464   81.5098 C   0  0  0  0  0  0  0  0  0  0  0  0
    3.6764   71.2920   81.0558 C   0  0  0  0  0  0  0  0  0  0  0  0
    3.3785   72.2848   82.1086 N   0  0  0  0  0  0  0  0  0  0  0  0
    3.1666   73.6058   81.5208 C   0  0  0  0  0  0  0  0  0  0  0  0
    2.2367   71.8644   82.9467 C   0  0  0  0  0  0  0  0  0  0  0  0
    1.2643   70.8872   82.2613 C   0  0  0  0  0  0  0  0  0  0  0  0
    0.3274   63.4554   83.2936 O   0  0  0  0  0  0  0  0  0  0  0  0
    0.0027   63.4065   84.6803 C   0  0  0  0  0  0  0  0  0  0  0  0
   -0.8588   62.1710   84.9431 C   0  0  0  0  0  0  0  0  0  0  0  0
   -2.3097   62.4725   85.3368 C   0  0  0  0  0  0  0  0  0  0  0  0
   -2.6398   62.3103   86.8232 C   0  0  0  0  0  0  0  0  0  0  0  0
   -0.9793   62.9630   88.6013 C   0  0  0  0  0  0  0  0  0  0  0  0
   -2.0990   63.4459   87.6920 C   0  0  0  0  0  0  0  0  0  0  0  0
 34 35  1  0  0  0
 35 33  1  0  0  0
 33 32  1  0  0  0
 32 31  1  0  0  0
 31 30  1  0  0  0
 30 29  1  0  0  0
 29  1  1  0  0  0
  1  2  1  0  0  0
  2  3  2  0  0  0
  3  4  1  0  0  0
  4 19  1  0  0  0
 19 20  2  0  0  0
 19 21  2  0  0  0
 19 22  1  0  0  0
 22 23  1  0  0  0
 23 24  1  0  0  0
 24 25  1  0  0  0
 25 26  1  0  0  0
 25 27  1  0  0  0
 27 28  1  0  0  0
  4  5  2  0  0  0
  5  6  1  0  0  0
  6  7  1  0  0  0
  7  8  2  0  0  0
  8  9  1  0  0  0
  9 16  1  0  0  0
 16 17  1  0  0  0
 16 18  1  0  0  0
  9 10  2  0  0  0
 10 11  1  0  0  0
 10 12  1  0  0  0
 12 13  2  0  0  0
 12 14  1  0  0  0
  6  1  2  0  0  0
 14  7  1  0  0  0
 28 22  1  0  0  0
 14 15  1  0  0  0
M  END
> <minimizedAffinity>
-9.09846

$$$$
