


 35 38  0  0  0  0  0  0  0  0999 V2000
    0.4536   65.3063   81.7276 C   0  0  0  0  0  0  0  0  0  0  0  0
    0.5522   66.4736   80.9485 C   0  0  0  0  0  0  0  0  0  0  0  0
    1.1789   67.6126   81.4550 C   0  0  0  0  0  0  0  0  0  0  0  0
    1.7404   67.6035   82.7300 C   0  0  0  0  0  0  0  0  0  0  0  0
    1.6588   66.4494   83.5121 C   0  0  0  0  0  0  0  0  0  0  0  0
    1.0194   65.2985   83.0262 C   0  0  0  0  0  0  0  0  0  0  0  0
   -1.1816   61.8882   78.6637 N   0  0  0  0  0  0  0  0  0  0  0  0
   -2.0145   60.7690   78.7614 C   0  0  0  0  0  0  0  0  0  0  0  0
   -2.2051   60.0164   77.8012 O   0  0  0  0  0  0  0  0  0  0  0  0
   -2.6312   60.5295   80.0082 N   0  0  0  0  0  0  0  0  0  0  0  0
   -3.5007   59.3725   80.0838 C   0  0  0  0  0  0  0  0  0  0  0  0
   -2.4348   61.2813   81.1695 C   0  0  0  0  0  0  0  0  0  0  0  0
   -2.9516   61.0459   82.2568 O   0  0  0  0  0  0  0  0  0  0  0  0
   -1.5514   62.3696   80.9682 C   0  0  0  0  0  0  0  0  0  0  0  0
   -1.1014   63.3201   81.8313 N   0  0  0  0  0  0  0  0  0  0  0  0
   -0.2450   64.1524   81.1362 C   0  0  0  0  0  0  0  0  0  0  0  0
   -0.1556   63.7498   79.8734 N   0  0  0  0  0  0  0  0  0  0  0  0
   -0.9594   62.6555   79.7818 C   0  0  0  0  0  0  0  0  0  0  0  0
   -1.3386   63.4188   82.8108 H   0  0  0  0  0  0  0  0  0  0  0  0
   -0.4976   62.1786   77.4081 C   0  0  0  0  0  0  0  0  0  0  0  0
   -1.2548   64.3870   76.4611 C   0  0  0  0  0  0  0  0  0  0  0  0
   -1.4202   62.8773   76.4089 C   0  0  0  0  0  0  0  0  0  0  0  0
    1.3088   69.0766   80.4593 S   0  0  0  0  0  0  0  0  0  0  0  0
    0.0077   69.3820   79.9053 O   0  0  0  0  0  0  0  0  0  0  0  0
    2.4616   68.9081   79.5992 O   0  0  0  0  0  0  0  0  0  0  0  0
    1.6849   70.2791   81.6103 N   0  0  0  0  0  0  0  0  0  0  0  0
    0.7166   71.4263   81.6742 C   0  0  0  0  0  0  0  0  0  0  0  0
    1.3475   72.6451   82.3721 C   0  0  0  0  0  0  0  0  0  0  0  0
    2.4984   73.1981   81.6303 N   0  0  0  0  0  0  0  0  0  0  0  0
    3.3567   73.9797   82.5162 C   0  0  0  0  0  0  0  0  0  0  0  0
    3.2477   72.1384   80.9243 C   0  0  0  0  0  0  0  0  0  0  0  0
    3.1150   70.7382   81.5496 C   0  0  0  0  0  0  0  0  0  0  0  0
    0.9024   64.1346   83.7482 O   0  0  0  0  0  0  0  0  0  0  0  0
    0.5345   64.2303   85.1250 C   0  0  0  0  0  0  0  0  0  0  0  0
   -0.1408   62.9275   85.5149 C   0  0  0  0  0  0  0  0  0  0  0  0
 21 22  1  0  0  0
 22 20  1  0  0  0
 20  7  1  0  0  0
  7  8  1  0  0  0
  8  9  2  0  0  0
  8 10  1  0  0  0
 10 11  1  0  0  0
 10 12  1  0  0  0
 12 13  2  0  0  0
 12 14  1  0  0  0
 14 15  1  0  0  0
 15 16  1  0  0  0
 16  1  1  0  0  0
  1  2  1  0  0  0
  2  3  2  0  0  0
  3 23  1  0  0  0
 23 24  2  0  0  0
 23 25  2  0  0  0
 23 26  1  0  0  0
 26 27  1  0  0  0
 27 28  1  0  0  0
 28 29  1  0  0  0
 29 30  1  0  0  0
 29 31  1  0  0  0
 31 32  1  0  0  0
  3  4  1  0  0  0
  4  5  2  0  0  0
  5  6  1  0  0  0
  6 33  1  0  0  0
 33 34  1  0  0  0
 34 35  1  0  0  0
 16 17  2  0  0  0
 17 18  1  0  0  0
 18  7  1  0  0  0
 18 14  2  0  0  0
  6  1  2  0  0  0
 32 26  1  0  0  0
 15 19  1  0  0  0
M  END
> <minimizedAffinity>
-1.69277

$$$$



 35 38  0  0  0  0  0  0  0  0999 V2000
    1.0210   65.9564   81.7583 C   0  0  0  0  0  0  0  0  0  0  0  0
    1.4657   67.1537   81.1684 C   0  0  0  0  0  0  0  0  0  0  0  0
    2.0665   68.1454   81.9444 C   0  0  0  0  0  0  0  0  0  0  0  0
    2.2597   67.9546   83.3109 C   0  0  0  0  0  0  0  0  0  0  0  0
    1.8320   66.7677   83.9095 C   0  0  0  0  0  0  0  0  0  0  0  0
    1.2120   65.7645   83.1487 C   0  0  0  0  0  0  0  0  0  0  0  0
   -1.2093   61.9888   80.0178 N   0  0  0  0  0  0  0  0  0  0  0  0
   -1.7154   61.5852   78.7782 C   0  0  0  0  0  0  0  0  0  0  0  0
   -2.3131   60.5136   78.6393 O   0  0  0  0  0  0  0  0  0  0  0  0
   -1.5178   62.4559   77.6851 N   0  0  0  0  0  0  0  0  0  0  0  0
   -2.0381   62.0122   76.4072 C   0  0  0  0  0  0  0  0  0  0  0  0
   -0.9114   63.7132   77.7472 C   0  0  0  0  0  0  0  0  0  0  0  0
   -0.7725   64.4760   76.7966 O   0  0  0  0  0  0  0  0  0  0  0  0
   -0.4644   64.0360   79.0515 C   0  0  0  0  0  0  0  0  0  0  0  0
    0.1589   65.1477   79.5275 N   0  0  0  0  0  0  0  0  0  0  0  0
    0.3724   64.9673   80.8807 C   0  0  0  0  0  0  0  0  0  0  0  0
   -0.0940   63.7806   81.2537 N   0  0  0  0  0  0  0  0  0  0  0  0
   -0.6060   63.2189   80.1248 C   0  0  0  0  0  0  0  0  0  0  0  0
    0.4277   65.9706   79.0022 H   0  0  0  0  0  0  0  0  0  0  0  0
   -1.3997   61.1435   81.1916 C   0  0  0  0  0  0  0  0  0  0  0  0
   -3.1838   60.3389   82.7780 C   0  0  0  0  0  0  0  0  0  0  0  0
   -2.6752   61.5084   81.9516 C   0  0  0  0  0  0  0  0  0  0  0  0
    2.6353   69.6475   81.1882 S   0  0  0  0  0  0  0  0  0  0  0  0
    2.4454   69.5514   79.7572 O   0  0  0  0  0  0  0  0  0  0  0  0
    3.9390   69.9406   81.7466 O   0  0  0  0  0  0  0  0  0  0  0  0
    1.5358   70.8070   81.7873 N   0  0  0  0  0  0  0  0  0  0  0  0
    0.3231   71.0385   80.9308 C   0  0  0  0  0  0  0  0  0  0  0  0
   -0.3553   72.3755   81.2815 C   0  0  0  0  0  0  0  0  0  0  0  0
    0.5019   73.5444   80.9997 N   0  0  0  0  0  0  0  0  0  0  0  0
    0.0710   74.7011   81.7800 C   0  0  0  0  0  0  0  0  0  0  0  0
    1.9304   73.2326   81.2120 C   0  0  0  0  0  0  0  0  0  0  0  0
    2.1928   72.0910   82.2106 C   0  0  0  0  0  0  0  0  0  0  0  0
    0.7654   64.5778   83.6795 O   0  0  0  0  0  0  0  0  0  0  0  0
    0.5977   64.4942   85.0955 C   0  0  0  0  0  0  0  0  0  0  0  0
   -0.2824   63.2918   85.3868 C   0  0  0  0  0  0  0  0  0  0  0  0
 21 22  1  0  0  0
 22 20  1  0  0  0
 20  7  1  0  0  0
  7  8  1  0  0  0
  8  9  2  0  0  0
  8 10  1  0  0  0
 10 11  1  0  0  0
 10 12  1  0  0  0
 12 13  2  0  0  0
 12 14  1  0  0  0
 14 15  1  0  0  0
 15 16  1  0  0  0
 16  1  1  0  0  0
  1  2  1  0  0  0
  2  3  2  0  0  0
  3 23  1  0  0  0
 23 24  2  0  0  0
 23 25  2  0  0  0
 23 26  1  0  0  0
 26 27  1  0  0  0
 27 28  1  0  0  0
 28 29  1  0  0  0
 29 30  1  0  0  0
 29 31  1  0  0  0
 31 32  1  0  0  0
  3  4  1  0  0  0
  4  5  2  0  0  0
  5  6  1  0  0  0
  6 33  1  0  0  0
 33 34  1  0  0  0
 34 35  1  0  0  0
 16 17  2  0  0  0
 17 18  1  0  0  0
 18  7  1  0  0  0
 18 14  2  0  0  0
  6  1  2  0  0  0
 32 26  1  0  0  0
 15 19  1  0  0  0
M  END
> <minimizedAffinity>
-1.67280

$$$$



 35 38  0  0  0  0  0  0  0  0999 V2000
   -0.2469   63.9844   83.4479 C   0  0  0  0  0  0  0  0  0  0  0  0
   -1.0892   63.4226   82.4711 C   0  0  0  0  0  0  0  0  0  0  0  0
   -1.7987   62.2509   82.7364 C   0  0  0  0  0  0  0  0  0  0  0  0
   -1.7050   61.6336   83.9819 C   0  0  0  0  0  0  0  0  0  0  0  0
   -0.8803   62.1843   84.9650 C   0  0  0  0  0  0  0  0  0  0  0  0
   -0.1470   63.3539   84.7124 C   0  0  0  0  0  0  0  0  0  0  0  0
    2.8169   67.7737   83.4301 N   0  0  0  0  0  0  0  0  0  0  0  0
    3.1166   68.8171   82.5486 C   0  0  0  0  0  0  0  0  0  0  0  0
    4.0213   69.6244   82.7826 O   0  0  0  0  0  0  0  0  0  0  0  0
    2.3422   68.9119   81.3724 N   0  0  0  0  0  0  0  0  0  0  0  0
    2.6603   70.0082   80.4795 C   0  0  0  0  0  0  0  0  0  0  0  0
    1.3406   68.0180   80.9850 C   0  0  0  0  0  0  0  0  0  0  0  0
    0.6944   68.0917   79.9449 O   0  0  0  0  0  0  0  0  0  0  0  0
    1.1401   66.9843   81.9319 C   0  0  0  0  0  0  0  0  0  0  0  0
    0.2802   65.9301   81.9278 N   0  0  0  0  0  0  0  0  0  0  0  0
    0.4905   65.2071   83.0865 C   0  0  0  0  0  0  0  0  0  0  0  0
    1.4474   65.7825   83.8063 N   0  0  0  0  0  0  0  0  0  0  0  0
    1.8394   66.8702   83.0885 C   0  0  0  0  0  0  0  0  0  0  0  0
   -0.4002   65.6982   81.2146 H   0  0  0  0  0  0  0  0  0  0  0  0
    3.5950   67.6082   84.6531 C   0  0  0  0  0  0  0  0  0  0  0  0
    5.8877   66.9306   85.4478 C   0  0  0  0  0  0  0  0  0  0  0  0
    4.7752   66.6576   84.4494 C   0  0  0  0  0  0  0  0  0  0  0  0
   -2.8683   61.5567   81.5013 S   0  0  0  0  0  0  0  0  0  0  0  0
   -3.6435   62.6214   80.9024 O   0  0  0  0  0  0  0  0  0  0  0  0
   -3.5192   60.4077   82.0958 O   0  0  0  0  0  0  0  0  0  0  0  0
   -1.7659   60.9868   80.3299 N   0  0  0  0  0  0  0  0  0  0  0  0
   -1.1545   62.0481   79.4595 C   0  0  0  0  0  0  0  0  0  0  0  0
   -0.5587   61.4374   78.1778 C   0  0  0  0  0  0  0  0  0  0  0  0
   -1.5799   60.8171   77.3101 N   0  0  0  0  0  0  0  0  0  0  0  0
   -0.9701   59.8425   76.4099 C   0  0  0  0  0  0  0  0  0  0  0  0
   -2.6794   60.2289   78.1025 C   0  0  0  0  0  0  0  0  0  0  0  0
   -2.2875   59.8228   79.5346 C   0  0  0  0  0  0  0  0  0  0  0  0
    0.6845   63.9415   85.6360 O   0  0  0  0  0  0  0  0  0  0  0  0
    0.1311   64.3154   86.8985 C   0  0  0  0  0  0  0  0  0  0  0  0
    0.7098   63.3860   87.9505 C   0  0  0  0  0  0  0  0  0  0  0  0
 21 22  1  0  0  0
 22 20  1  0  0  0
 20  7  1  0  0  0
  7  8  1  0  0  0
  8  9  2  0  0  0
  8 10  1  0  0  0
 10 11  1  0  0  0
 10 12  1  0  0  0
 12 13  2  0  0  0
 12 14  1  0  0  0
 14 15  1  0  0  0
 15 16  1  0  0  0
 16  1  1  0  0  0
  1  2  1  0  0  0
  2  3  2  0  0  0
  3 23  1  0  0  0
 23 24  2  0  0  0
 23 25  2  0  0  0
 23 26  1  0  0  0
 26 27  1  0  0  0
 27 28  1  0  0  0
 28 29  1  0  0  0
 29 30  1  0  0  0
 29 31  1  0  0  0
 31 32  1  0  0  0
  3  4  1  0  0  0
  4  5  2  0  0  0
  5  6  1  0  0  0
  6 33  1  0  0  0
 33 34  1  0  0  0
 34 35  1  0  0  0
 16 17  2  0  0  0
 17 18  1  0  0  0
 18  7  1  0  0  0
 18 14  2  0  0  0
  6  1  2  0  0  0
 32 26  1  0  0  0
 15 19  1  0  0  0
M  END
> <minimizedAffinity>
-1.67190

$$$$



 35 38  0  0  0  0  0  0  0  0999 V2000
    1.9652   67.0584   82.6778 C   0  0  0  0  0  0  0  0  0  0  0  0
    1.6708   68.1714   81.8690 C   0  0  0  0  0  0  0  0  0  0  0  0
    2.3699   69.3681   82.0290 C   0  0  0  0  0  0  0  0  0  0  0  0
    3.3885   69.4717   82.9739 C   0  0  0  0  0  0  0  0  0  0  0  0
    3.6987   68.3730   83.7779 C   0  0  0  0  0  0  0  0  0  0  0  0
    2.9969   67.1652   83.6425 C   0  0  0  0  0  0  0  0  0  0  0  0
   -0.1896   63.1476   80.7266 N   0  0  0  0  0  0  0  0  0  0  0  0
   -1.0036   62.1119   81.1963 C   0  0  0  0  0  0  0  0  0  0  0  0
   -1.3590   61.1832   80.4641 O   0  0  0  0  0  0  0  0  0  0  0  0
   -1.4043   62.1676   82.5485 N   0  0  0  0  0  0  0  0  0  0  0  0
   -2.2585   61.0920   83.0109 C   0  0  0  0  0  0  0  0  0  0  0  0
   -1.0096   63.1376   83.4735 C   0  0  0  0  0  0  0  0  0  0  0  0
   -1.3386   63.1594   84.6550 O   0  0  0  0  0  0  0  0  0  0  0  0
   -0.1634   64.1191   82.9026 C   0  0  0  0  0  0  0  0  0  0  0  0
    0.4330   65.2091   83.4566 N   0  0  0  0  0  0  0  0  0  0  0  0
    1.1676   65.8379   82.4694 C   0  0  0  0  0  0  0  0  0  0  0  0
    1.0404   65.1750   81.3253 N   0  0  0  0  0  0  0  0  0  0  0  0
    0.2235   64.1225   81.6026 C   0  0  0  0  0  0  0  0  0  0  0  0
    0.3643   65.5222   84.4172 H   0  0  0  0  0  0  0  0  0  0  0  0
    0.2764   63.1368   79.3441 C   0  0  0  0  0  0  0  0  0  0  0  0
   -1.0619   63.0964   77.2100 C   0  0  0  0  0  0  0  0  0  0  0  0
   -0.6618   63.9184   78.4239 C   0  0  0  0  0  0  0  0  0  0  0  0
    1.9992   70.7628   80.9951 S   0  0  0  0  0  0  0  0  0  0  0  0
    0.5629   70.9153   80.9133 O   0  0  0  0  0  0  0  0  0  0  0  0
    2.8020   70.6324   79.7969 O   0  0  0  0  0  0  0  0  0  0  0  0
    2.6157   72.0724   81.8991 N   0  0  0  0  0  0  0  0  0  0  0  0
    1.5847   73.0458   82.3964 C   0  0  0  0  0  0  0  0  0  0  0  0
    2.2319   74.3885   82.7823 C   0  0  0  0  0  0  0  0  0  0  0  0
    2.8429   75.0822   81.6308 N   0  0  0  0  0  0  0  0  0  0  0  0
    3.8475   76.0422   82.0796 C   0  0  0  0  0  0  0  0  0  0  0  0
    3.3908   74.1235   80.6492 C   0  0  0  0  0  0  0  0  0  0  0  0
    3.7808   72.7571   81.2410 C   0  0  0  0  0  0  0  0  0  0  0  0
    3.2516   66.0510   84.4062 O   0  0  0  0  0  0  0  0  0  0  0  0
    4.5859   65.8444   84.8720 C   0  0  0  0  0  0  0  0  0  0  0  0
    4.5020   65.2547   86.2686 C   0  0  0  0  0  0  0  0  0  0  0  0
 21 22  1  0  0  0
 22 20  1  0  0  0
 20  7  1  0  0  0
  7  8  1  0  0  0
  8  9  2  0  0  0
  8 10  1  0  0  0
 10 11  1  0  0  0
 10 12  1  0  0  0
 12 13  2  0  0  0
 12 14  1  0  0  0
 14 15  1  0  0  0
 15 16  1  0  0  0
 16  1  1  0  0  0
  1  2  1  0  0  0
  2  3  2  0  0  0
  3 23  1  0  0  0
 23 24  2  0  0  0
 23 25  2  0  0  0
 23 26  1  0  0  0
 26 27  1  0  0  0
 27 28  1  0  0  0
 28 29  1  0  0  0
 29 30  1  0  0  0
 29 31  1  0  0  0
 31 32  1  0  0  0
  3  4  1  0  0  0
  4  5  2  0  0  0
  5  6  1  0  0  0
  6 33  1  0  0  0
 33 34  1  0  0  0
 34 35  1  0  0  0
 16 17  2  0  0  0
 17 18  1  0  0  0
 18  7  1  0  0  0
 18 14  2  0  0  0
  6  1  2  0  0  0
 32 26  1  0  0  0
 15 19  1  0  0  0
M  END
> <minimizedAffinity>
-1.65174

$$$$



 35 38  0  0  0  0  0  0  0  0999 V2000
    2.3230   67.1767   83.4454 C   0  0  0  0  0  0  0  0  0  0  0  0
    1.8636   68.0649   82.4558 C   0  0  0  0  0  0  0  0  0  0  0  0
    2.6302   69.1698   82.0843 C   0  0  0  0  0  0  0  0  0  0  0  0
    3.8746   69.3962   82.6683 C   0  0  0  0  0  0  0  0  0  0  0  0
    4.3486   68.5184   83.6455 C   0  0  0  0  0  0  0  0  0  0  0  0
    3.5857   67.4098   84.0435 C   0  0  0  0  0  0  0  0  0  0  0  0
   -0.7749   63.4185   83.2896 N   0  0  0  0  0  0  0  0  0  0  0  0
   -1.3148   62.5244   84.2196 C   0  0  0  0  0  0  0  0  0  0  0  0
   -2.0491   61.5937   83.8740 O   0  0  0  0  0  0  0  0  0  0  0  0
   -0.9844   62.7261   85.5769 N   0  0  0  0  0  0  0  0  0  0  0  0
   -1.5653   61.7966   86.5251 C   0  0  0  0  0  0  0  0  0  0  0  0
   -0.1173   63.7070   86.0649 C   0  0  0  0  0  0  0  0  0  0  0  0
    0.1878   63.8542   87.2439 O   0  0  0  0  0  0  0  0  0  0  0  0
    0.3963   64.5364   85.0384 C   0  0  0  0  0  0  0  0  0  0  0  0
    1.2612   65.5851   85.0926 N   0  0  0  0  0  0  0  0  0  0  0  0
    1.4474   66.0480   83.8040 C   0  0  0  0  0  0  0  0  0  0  0  0
    0.7232   65.3232   82.9584 N   0  0  0  0  0  0  0  0  0  0  0  0
    0.0840   64.3986   83.7257 C   0  0  0  0  0  0  0  0  0  0  0  0
    1.7011   65.9734   85.9179 H   0  0  0  0  0  0  0  0  0  0  0  0
   -1.0608   63.2513   81.8687 C   0  0  0  0  0  0  0  0  0  0  0  0
   -0.6547   61.7074   79.9197 C   0  0  0  0  0  0  0  0  0  0  0  0
   -0.0816   62.2831   81.2040 C   0  0  0  0  0  0  0  0  0  0  0  0
    2.0470   70.2777   80.8257 S   0  0  0  0  0  0  0  0  0  0  0  0
    0.7752   69.7962   80.3320 O   0  0  0  0  0  0  0  0  0  0  0  0
    3.1523   70.5177   79.9214 O   0  0  0  0  0  0  0  0  0  0  0  0
    1.7612   71.7165   81.6978 N   0  0  0  0  0  0  0  0  0  0  0  0
    0.4250   72.3576   81.4504 C   0  0  0  0  0  0  0  0  0  0  0  0
    0.4286   73.8327   81.8918 C   0  0  0  0  0  0  0  0  0  0  0  0
    1.3664   74.6628   81.1096 N   0  0  0  0  0  0  0  0  0  0  0  0
    1.7204   75.8742   81.8441 C   0  0  0  0  0  0  0  0  0  0  0  0
    2.5593   73.8932   80.7003 C   0  0  0  0  0  0  0  0  0  0  0  0
    2.8941   72.7009   81.6145 C   0  0  0  0  0  0  0  0  0  0  0  0
    3.9945   66.5132   85.0020 O   0  0  0  0  0  0  0  0  0  0  0  0
    5.3836   66.1883   85.0714 C   0  0  0  0  0  0  0  0  0  0  0  0
    5.8531   66.4652   86.4885 C   0  0  0  0  0  0  0  0  0  0  0  0
 21 22  1  0  0  0
 22 20  1  0  0  0
 20  7  1  0  0  0
  7  8  1  0  0  0
  8  9  2  0  0  0
  8 10  1  0  0  0
 10 11  1  0  0  0
 10 12  1  0  0  0
 12 13  2  0  0  0
 12 14  1  0  0  0
 14 15  1  0  0  0
 15 16  1  0  0  0
 16  1  1  0  0  0
  1  2  1  0  0  0
  2  3  2  0  0  0
  3 23  1  0  0  0
 23 24  2  0  0  0
 23 25  2  0  0  0
 23 26  1  0  0  0
 26 27  1  0  0  0
 27 28  1  0  0  0
 28 29  1  0  0  0
 29 30  1  0  0  0
 29 31  1  0  0  0
 31 32  1  0  0  0
  3  4  1  0  0  0
  4  5  2  0  0  0
  5  6  1  0  0  0
  6 33  1  0  0  0
 33 34  1  0  0  0
 34 35  1  0  0  0
 16 17  2  0  0  0
 17 18  1  0  0  0
 18  7  1  0  0  0
 18 14  2  0  0  0
  6  1  2  0  0  0
 32 26  1  0  0  0
 15 19  1  0  0  0
M  END
> <minimizedAffinity>
-1.63609

$$$$



 35 38  0  0  0  0  0  0  0  0999 V2000
    1.9754   67.1717   82.6211 C   0  0  0  0  0  0  0  0  0  0  0  0
    1.6571   68.3190   81.8716 C   0  0  0  0  0  0  0  0  0  0  0  0
    2.2930   69.5335   82.1306 C   0  0  0  0  0  0  0  0  0  0  0  0
    3.2724   69.6230   83.1175 C   0  0  0  0  0  0  0  0  0  0  0  0
    3.6060   68.4908   83.8638 C   0  0  0  0  0  0  0  0  0  0  0  0
    2.9669   67.2637   83.6285 C   0  0  0  0  0  0  0  0  0  0  0  0
   -0.2626   62.8530   82.9148 N   0  0  0  0  0  0  0  0  0  0  0  0
   -0.9624   62.0239   82.0324 C   0  0  0  0  0  0  0  0  0  0  0  0
   -1.5004   60.9794   82.4124 O   0  0  0  0  0  0  0  0  0  0  0  0
   -1.0328   62.4301   80.6825 N   0  0  0  0  0  0  0  0  0  0  0  0
   -1.7509   61.5497   79.7827 C   0  0  0  0  0  0  0  0  0  0  0  0
   -0.5135   63.6189   80.1637 C   0  0  0  0  0  0  0  0  0  0  0  0
   -0.6074   63.9775   78.9944 O   0  0  0  0  0  0  0  0  0  0  0  0
    0.1461   64.3970   81.1460 C   0  0  0  0  0  0  0  0  0  0  0  0
    0.7694   65.6027   81.0534 N   0  0  0  0  0  0  0  0  0  0  0  0
    1.2438   65.9321   82.3087 C   0  0  0  0  0  0  0  0  0  0  0  0
    0.9380   64.9685   83.1704 N   0  0  0  0  0  0  0  0  0  0  0  0
    0.2640   64.0331   82.4473 C   0  0  0  0  0  0  0  0  0  0  0  0
    0.8781   66.1732   80.2238 H   0  0  0  0  0  0  0  0  0  0  0  0
   -0.1718   62.5001   84.3275 C   0  0  0  0  0  0  0  0  0  0  0  0
   -1.2308   62.7341   86.6015 C   0  0  0  0  0  0  0  0  0  0  0  0
   -1.3949   62.9783   85.1106 C   0  0  0  0  0  0  0  0  0  0  0  0
    1.8930   70.9724   81.1710 S   0  0  0  0  0  0  0  0  0  0  0  0
    0.4647   71.1937   81.2336 O   0  0  0  0  0  0  0  0  0  0  0  0
    2.5689   70.8386   79.8972 O   0  0  0  0  0  0  0  0  0  0  0  0
    2.6574   72.2259   82.0408 N   0  0  0  0  0  0  0  0  0  0  0  0
    1.7328   73.2696   82.6008 C   0  0  0  0  0  0  0  0  0  0  0  0
    2.4998   74.5577   82.9517 C   0  0  0  0  0  0  0  0  0  0  0  0
    3.0924   75.2124   81.7682 N   0  0  0  0  0  0  0  0  0  0  0  0
    4.1904   76.0918   82.1598 C   0  0  0  0  0  0  0  0  0  0  0  0
    3.5088   74.2228   80.7533 C   0  0  0  0  0  0  0  0  0  0  0  0
    3.8298   72.8269   81.3171 C   0  0  0  0  0  0  0  0  0  0  0  0
    3.2473   66.1162   84.3315 O   0  0  0  0  0  0  0  0  0  0  0  0
    4.5929   65.9001   84.7589 C   0  0  0  0  0  0  0  0  0  0  0  0
    4.5493   65.4216   86.1992 C   0  0  0  0  0  0  0  0  0  0  0  0
 21 22  1  0  0  0
 22 20  1  0  0  0
 20  7  1  0  0  0
  7  8  1  0  0  0
  8  9  2  0  0  0
  8 10  1  0  0  0
 10 11  1  0  0  0
 10 12  1  0  0  0
 12 13  2  0  0  0
 12 14  1  0  0  0
 14 15  1  0  0  0
 15 16  1  0  0  0
 16  1  1  0  0  0
  1  2  1  0  0  0
  2  3  2  0  0  0
  3 23  1  0  0  0
 23 24  2  0  0  0
 23 25  2  0  0  0
 23 26  1  0  0  0
 26 27  1  0  0  0
 27 28  1  0  0  0
 28 29  1  0  0  0
 29 30  1  0  0  0
 29 31  1  0  0  0
 31 32  1  0  0  0
  3  4  1  0  0  0
  4  5  2  0  0  0
  5  6  1  0  0  0
  6 33  1  0  0  0
 33 34  1  0  0  0
 34 35  1  0  0  0
 16 17  2  0  0  0
 17 18  1  0  0  0
 18  7  1  0  0  0
 18 14  2  0  0  0
  6  1  2  0  0  0
 32 26  1  0  0  0
 15 19  1  0  0  0
M  END
> <minimizedAffinity>
-1.60943

$$$$



 35 38  0  0  0  0  0  0  0  0999 V2000
    2.8311   72.3127   81.1735 C   0  0  0  0  0  0  0  0  0  0  0  0
    4.1136   72.6111   80.6781 C   0  0  0  0  0  0  0  0  0  0  0  0
    4.4461   73.9159   80.3126 C   0  0  0  0  0  0  0  0  0  0  0  0
    3.5222   74.9485   80.4577 C   0  0  0  0  0  0  0  0  0  0  0  0
    2.2481   74.6699   80.9566 C   0  0  0  0  0  0  0  0  0  0  0  0
    1.8896   73.3614   81.3156 C   0  0  0  0  0  0  0  0  0  0  0  0
    2.6400   67.9732   83.3820 N   0  0  0  0  0  0  0  0  0  0  0  0
    2.0049   66.7512   83.1391 C   0  0  0  0  0  0  0  0  0  0  0  0
    2.0835   65.8098   83.9344 O   0  0  0  0  0  0  0  0  0  0  0  0
    1.2638   66.6346   81.9435 N   0  0  0  0  0  0  0  0  0  0  0  0
    0.6250   65.3557   81.7050 C   0  0  0  0  0  0  0  0  0  0  0  0
    1.0618   67.6545   81.0101 C   0  0  0  0  0  0  0  0  0  0  0  0
    0.3897   67.5521   79.9892 O   0  0  0  0  0  0  0  0  0  0  0  0
    1.7212   68.8556   81.3679 C   0  0  0  0  0  0  0  0  0  0  0  0
    1.7691   70.0631   80.7430 N   0  0  0  0  0  0  0  0  0  0  0  0
    2.5444   70.9086   81.5134 C   0  0  0  0  0  0  0  0  0  0  0  0
    2.9794   70.2619   82.5891 N   0  0  0  0  0  0  0  0  0  0  0  0
    2.4677   69.0047   82.4905 C   0  0  0  0  0  0  0  0  0  0  0  0
    1.3245   70.3182   79.8697 H   0  0  0  0  0  0  0  0  0  0  0  0
    3.4037   68.1647   84.6103 C   0  0  0  0  0  0  0  0  0  0  0  0
    5.4222   67.0540   85.6296 C   0  0  0  0  0  0  0  0  0  0  0  0
    4.8771   67.8010   84.4237 C   0  0  0  0  0  0  0  0  0  0  0  0
    6.0711   74.2841   79.7001 S   0  0  0  0  0  0  0  0  0  0  0  0
    5.9675   74.6921   78.3160 O   0  0  0  0  0  0  0  0  0  0  0  0
    6.9335   73.1875   80.0889 O   0  0  0  0  0  0  0  0  0  0  0  0
    6.5157   75.6517   80.6189 N   0  0  0  0  0  0  0  0  0  0  0  0
    7.5346   76.5490   79.9751 C   0  0  0  0  0  0  0  0  0  0  0  0
    8.2036   77.4640   81.0172 C   0  0  0  0  0  0  0  0  0  0  0  0
    8.9821   76.7138   82.0230 N   0  0  0  0  0  0  0  0  0  0  0  0
    9.1656   77.5098   83.2333 C   0  0  0  0  0  0  0  0  0  0  0  0
    8.3719   75.3993   82.3103 C   0  0  0  0  0  0  0  0  0  0  0  0
    6.8572   75.3276   82.0464 C   0  0  0  0  0  0  0  0  0  0  0  0
    0.6515   73.0227   81.8076 O   0  0  0  0  0  0  0  0  0  0  0  0
   -0.5020   73.5349   81.1389 C   0  0  0  0  0  0  0  0  0  0  0  0
   -1.2474   72.3578   80.5355 C   0  0  0  0  0  0  0  0  0  0  0  0
 21 22  1  0  0  0
 22 20  1  0  0  0
 20  7  1  0  0  0
  7  8  1  0  0  0
  8  9  2  0  0  0
  8 10  1  0  0  0
 10 11  1  0  0  0
 10 12  1  0  0  0
 12 13  2  0  0  0
 12 14  1  0  0  0
 14 15  1  0  0  0
 15 16  1  0  0  0
 16  1  1  0  0  0
  1  2  1  0  0  0
  2  3  2  0  0  0
  3 23  1  0  0  0
 23 24  2  0  0  0
 23 25  2  0  0  0
 23 26  1  0  0  0
 26 27  1  0  0  0
 27 28  1  0  0  0
 28 29  1  0  0  0
 29 30  1  0  0  0
 29 31  1  0  0  0
 31 32  1  0  0  0
  3  4  1  0  0  0
  4  5  2  0  0  0
  5  6  1  0  0  0
  6 33  1  0  0  0
 33 34  1  0  0  0
 34 35  1  0  0  0
 16 17  2  0  0  0
 17 18  1  0  0  0
 18  7  1  0  0  0
 18 14  2  0  0  0
  6  1  2  0  0  0
 32 26  1  0  0  0
 15 19  1  0  0  0
M  END
> <minimizedAffinity>
-1.59483

$$$$



 35 38  0  0  0  0  0  0  0  0999 V2000
    3.1322   72.6951   81.1795 C   0  0  0  0  0  0  0  0  0  0  0  0
    2.2568   73.7172   81.5900 C   0  0  0  0  0  0  0  0  0  0  0  0
    2.5711   75.0560   81.3549 C   0  0  0  0  0  0  0  0  0  0  0  0
    3.7437   75.4007   80.6863 C   0  0  0  0  0  0  0  0  0  0  0  0
    4.6184   74.3972   80.2644 C   0  0  0  0  0  0  0  0  0  0  0  0
    4.3273   73.0455   80.5047 C   0  0  0  0  0  0  0  0  0  0  0  0
    2.6413   68.3242   83.2770 N   0  0  0  0  0  0  0  0  0  0  0  0
    1.9168   67.1585   83.0086 C   0  0  0  0  0  0  0  0  0  0  0  0
    1.9324   66.1933   83.7786 O   0  0  0  0  0  0  0  0  0  0  0  0
    1.1602   67.1278   81.8174 N   0  0  0  0  0  0  0  0  0  0  0  0
    0.4280   65.9056   81.5520 C   0  0  0  0  0  0  0  0  0  0  0  0
    1.0263   68.1841   80.9126 C   0  0  0  0  0  0  0  0  0  0  0  0
    0.3409   68.1578   79.8957 O   0  0  0  0  0  0  0  0  0  0  0  0
    1.7743   69.3241   81.2950 C   0  0  0  0  0  0  0  0  0  0  0  0
    1.9056   70.5410   80.7010 N   0  0  0  0  0  0  0  0  0  0  0  0
    2.7462   71.3071   81.4857 C   0  0  0  0  0  0  0  0  0  0  0  0
    3.1409   70.6022   82.5403 N   0  0  0  0  0  0  0  0  0  0  0  0
    2.5381   69.3887   82.4140 C   0  0  0  0  0  0  0  0  0  0  0  0
    1.4742   70.8507   79.8388 H   0  0  0  0  0  0  0  0  0  0  0  0
    3.4261   68.4271   84.5026 C   0  0  0  0  0  0  0  0  0  0  0  0
    5.3450   67.2960   85.6795 C   0  0  0  0  0  0  0  0  0  0  0  0
    4.8065   67.7884   84.3465 C   0  0  0  0  0  0  0  0  0  0  0  0
    1.4539   76.3375   81.8660 S   0  0  0  0  0  0  0  0  0  0  0  0
    0.0982   75.8421   81.7684 O   0  0  0  0  0  0  0  0  0  0  0  0
    1.8527   77.5504   81.1824 O   0  0  0  0  0  0  0  0  0  0  0  0
    1.8281   76.5213   83.5208 N   0  0  0  0  0  0  0  0  0  0  0  0
    0.9679   77.5038   84.2641 C   0  0  0  0  0  0  0  0  0  0  0  0
    1.6392   77.9442   85.5779 C   0  0  0  0  0  0  0  0  0  0  0  0
    2.9014   78.6785   85.3585 N   0  0  0  0  0  0  0  0  0  0  0  0
    3.7399   78.6331   86.5531 C   0  0  0  0  0  0  0  0  0  0  0  0
    3.6136   78.1862   84.1613 C   0  0  0  0  0  0  0  0  0  0  0  0
    3.2936   76.7289   83.7828 C   0  0  0  0  0  0  0  0  0  0  0  0
    5.1490   72.0132   80.1190 O   0  0  0  0  0  0  0  0  0  0  0  0
    6.3918   72.3388   79.4950 C   0  0  0  0  0  0  0  0  0  0  0  0
    6.2940   71.9396   78.0334 C   0  0  0  0  0  0  0  0  0  0  0  0
 21 22  1  0  0  0
 22 20  1  0  0  0
 20  7  1  0  0  0
  7  8  1  0  0  0
  8  9  2  0  0  0
  8 10  1  0  0  0
 10 11  1  0  0  0
 10 12  1  0  0  0
 12 13  2  0  0  0
 12 14  1  0  0  0
 14 15  1  0  0  0
 15 16  1  0  0  0
 16  1  1  0  0  0
  1  2  1  0  0  0
  2  3  2  0  0  0
  3 23  1  0  0  0
 23 24  2  0  0  0
 23 25  2  0  0  0
 23 26  1  0  0  0
 26 27  1  0  0  0
 27 28  1  0  0  0
 28 29  1  0  0  0
 29 30  1  0  0  0
 29 31  1  0  0  0
 31 32  1  0  0  0
  3  4  1  0  0  0
  4  5  2  0  0  0
  5  6  1  0  0  0
  6 33  1  0  0  0
 33 34  1  0  0  0
 34 35  1  0  0  0
 16 17  2  0  0  0
 17 18  1  0  0  0
 18  7  1  0  0  0
 18 14  2  0  0  0
  6  1  2  0  0  0
 32 26  1  0  0  0
 15 19  1  0  0  0
M  END
> <minimizedAffinity>
-1.56656

$$$$



 35 38  0  0  0  0  0  0  0  0999 V2000
    2.8936   72.4716   81.2030 C   0  0  0  0  0  0  0  0  0  0  0  0
    1.9418   73.4268   81.6044 C   0  0  0  0  0  0  0  0  0  0  0  0
    2.1587   74.7850   81.3702 C   0  0  0  0  0  0  0  0  0  0  0  0
    3.3087   75.2145   80.7115 C   0  0  0  0  0  0  0  0  0  0  0  0
    4.2585   74.2779   80.2987 C   0  0  0  0  0  0  0  0  0  0  0  0
    4.0657   72.9086   80.5384 C   0  0  0  0  0  0  0  0  0  0  0  0
    2.6946   68.0822   83.3098 N   0  0  0  0  0  0  0  0  0  0  0  0
    2.0662   66.8640   83.0325 C   0  0  0  0  0  0  0  0  0  0  0  0
    2.1398   65.9050   83.8069 O   0  0  0  0  0  0  0  0  0  0  0  0
    1.3378   66.7725   81.8270 N   0  0  0  0  0  0  0  0  0  0  0  0
    0.7059   65.4974   81.5527 C   0  0  0  0  0  0  0  0  0  0  0  0
    1.1420   67.8128   80.9151 C   0  0  0  0  0  0  0  0  0  0  0  0
    0.4808   67.7316   79.8851 O   0  0  0  0  0  0  0  0  0  0  0  0
    1.7936   69.0075   81.3070 C   0  0  0  0  0  0  0  0  0  0  0  0
    1.8438   70.2291   80.7103 N   0  0  0  0  0  0  0  0  0  0  0  0
    2.6082   71.0592   81.5078 C   0  0  0  0  0  0  0  0  0  0  0  0
    3.0343   70.3895   82.5730 N   0  0  0  0  0  0  0  0  0  0  0  0
    2.5280   69.1332   82.4404 C   0  0  0  0  0  0  0  0  0  0  0  0
    1.4073   70.5026   79.8385 H   0  0  0  0  0  0  0  0  0  0  0  0
    3.4450   68.2480   84.5500 C   0  0  0  0  0  0  0  0  0  0  0  0
    5.4480   67.1423   85.6047 C   0  0  0  0  0  0  0  0  0  0  0  0
    4.9150   67.8642   84.3783 C   0  0  0  0  0  0  0  0  0  0  0  0
    0.9457   75.9811   81.8696 S   0  0  0  0  0  0  0  0  0  0  0  0
    1.5979   77.0104   82.6495 O   0  0  0  0  0  0  0  0  0  0  0  0
   -0.1836   75.2482   82.4032 O   0  0  0  0  0  0  0  0  0  0  0  0
    0.4679   76.6714   80.3839 N   0  0  0  0  0  0  0  0  0  0  0  0
   -0.2969   77.9599   80.4957 C   0  0  0  0  0  0  0  0  0  0  0  0
   -1.0659   78.2618   79.1964 C   0  0  0  0  0  0  0  0  0  0  0  0
   -2.1089   77.2589   78.9016 N   0  0  0  0  0  0  0  0  0  0  0  0
   -2.4526   77.2728   77.4825 C   0  0  0  0  0  0  0  0  0  0  0  0
   -1.7123   75.9127   79.3635 C   0  0  0  0  0  0  0  0  0  0  0  0
   -0.1917   75.6916   79.4542 C   0  0  0  0  0  0  0  0  0  0  0  0
    4.9644   71.9392   80.1613 O   0  0  0  0  0  0  0  0  0  0  0  0
    6.2258   72.3575   79.6377 C   0  0  0  0  0  0  0  0  0  0  0  0
    6.2769   71.9516   78.1755 C   0  0  0  0  0  0  0  0  0  0  0  0
 21 22  1  0  0  0
 22 20  1  0  0  0
 20  7  1  0  0  0
  7  8  1  0  0  0
  8  9  2  0  0  0
  8 10  1  0  0  0
 10 11  1  0  0  0
 10 12  1  0  0  0
 12 13  2  0  0  0
 12 14  1  0  0  0
 14 15  1  0  0  0
 15 16  1  0  0  0
 16  1  1  0  0  0
  1  2  1  0  0  0
  2  3  2  0  0  0
  3 23  1  0  0  0
 23 24  2  0  0  0
 23 25  2  0  0  0
 23 26  1  0  0  0
 26 27  1  0  0  0
 27 28  1  0  0  0
 28 29  1  0  0  0
 29 30  1  0  0  0
 29 31  1  0  0  0
 31 32  1  0  0  0
  3  4  1  0  0  0
  4  5  2  0  0  0
  5  6  1  0  0  0
  6 33  1  0  0  0
 33 34  1  0  0  0
 34 35  1  0  0  0
 16 17  2  0  0  0
 17 18  1  0  0  0
 18  7  1  0  0  0
 18 14  2  0  0  0
  6  1  2  0  0  0
 32 26  1  0  0  0
 15 19  1  0  0  0
M  END
> <minimizedAffinity>
-1.55978

$$$$
