


 36 41  0  0  0  0  0  0  0  0999 V2000
    0.6009   68.4707   81.3346 N   0  0  0  0  0  0  0  0  0  0  0  0
   -0.1088   67.4776   80.6223 C   0  0  0  0  0  0  0  0  0  0  0  0
   -0.7483   67.7120   79.5978 O   0  0  0  0  0  0  0  0  0  0  0  0
   -0.0115   66.1324   81.1991 C   0  0  0  0  0  0  0  0  0  0  0  0
   -0.5826   64.9728   80.7467 N   0  0  0  0  0  0  0  0  0  0  0  0
   -0.1921   64.0279   81.5865 C   0  0  0  0  0  0  0  0  0  0  0  0
    0.6048   64.5575   82.5985 N   0  0  0  0  0  0  0  0  0  0  0  0
    0.7385   65.8948   82.3294 C   0  0  0  0  0  0  0  0  0  0  0  0
    1.4325   66.8820   82.9299 N   0  0  0  0  0  0  0  0  0  0  0  0
    2.2199   66.8579   84.1314 C   0  0  0  0  0  0  0  0  0  0  0  0
    2.7903   68.2983   84.1616 C   0  0  0  0  0  0  0  0  0  0  0  0
    2.0789   69.0673   83.0830 N   0  0  0  0  0  0  0  0  0  0  0  0
    1.3768   68.1696   82.4480 C   0  0  0  0  0  0  0  0  0  0  0  0
   -0.5020   70.6686   81.4997 C   0  0  0  0  0  0  0  0  0  0  0  0
    0.5722   69.8327   80.8187 C   0  0  0  0  0  0  0  0  0  0  0  0
   -0.5460   62.5742   81.4407 C   0  0  0  0  0  0  0  0  0  0  0  0
   -1.7418   62.3066   80.5527 C   0  0  0  0  0  0  0  0  0  0  0  0
   -3.0005   62.0574   81.1211 C   0  0  0  0  0  0  0  0  0  0  0  0
   -4.1065   61.7988   80.3098 C   0  0  0  0  0  0  0  0  0  0  0  0
   -3.9649   61.7738   78.9239 C   0  0  0  0  0  0  0  0  0  0  0  0
   -2.7164   61.9990   78.3477 C   0  0  0  0  0  0  0  0  0  0  0  0
   -1.6091   62.2573   79.1568 C   0  0  0  0  0  0  0  0  0  0  0  0
    1.1246   63.8095   83.7323 C   0  0  0  0  0  0  0  0  0  0  0  0
    0.1487   63.6807   84.8780 C   0  0  0  0  0  0  0  0  0  0  0  0
    0.4779   64.2504   86.1191 C   0  0  0  0  0  0  0  0  0  0  0  0
   -0.3816   64.1280   87.2122 C   0  0  0  0  0  0  0  0  0  0  0  0
   -1.5761   63.4243   87.0841 C   0  0  0  0  0  0  0  0  0  0  0  0
   -1.9091   62.8385   85.8655 C   0  0  0  0  0  0  0  0  0  0  0  0
   -1.0505   62.9590   84.7708 C   0  0  0  0  0  0  0  0  0  0  0  0
    4.3049   68.3116   83.8942 C   0  0  0  0  0  0  0  0  0  0  0  0
    5.0832   67.4258   84.8403 C   0  0  0  0  0  0  0  0  0  0  0  0
    5.0037   67.6215   86.2253 C   0  0  0  0  0  0  0  0  0  0  0  0
    5.7177   66.8016   87.1002 C   0  0  0  0  0  0  0  0  0  0  0  0
    6.5183   65.7771   86.5995 C   0  0  0  0  0  0  0  0  0  0  0  0
    6.6032   65.5704   85.2241 C   0  0  0  0  0  0  0  0  0  0  0  0
    5.8883   66.3892   84.3476 C   0  0  0  0  0  0  0  0  0  0  0  0
 14 15  1  0  0  0
 15  1  1  0  0  0
  1  2  1  0  0  0
  2  3  2  0  0  0
  2  4  1  0  0  0
  4  5  1  0  0  0
  5  6  2  0  0  0
  6 16  1  0  0  0
 16 17  1  0  0  0
 17 18  2  0  0  0
 18 19  1  0  0  0
 19 20  2  0  0  0
 20 21  1  0  0  0
 21 22  2  0  0  0
  6  7  1  0  0  0
  7 23  1  0  0  0
 23 24  1  0  0  0
 24 25  2  0  0  0
 25 26  1  0  0  0
 26 27  2  0  0  0
 27 28  1  0  0  0
 28 29  2  0  0  0
  7  8  1  0  0  0
  8  9  1  0  0  0
  9 10  1  0  0  0
 10 11  1  0  0  0
 11 30  1  0  0  0
 30 31  1  0  0  0
 31 32  2  0  0  0
 32 33  1  0  0  0
 33 34  2  0  0  0
 34 35  1  0  0  0
 35 36  2  0  0  0
 11 12  1  0  0  0
 12 13  2  0  0  0
 13  1  1  0  0  0
  8  4  2  0  0  0
 13  9  1  0  0  0
 22 17  1  0  0  0
 29 24  1  0  0  0
 36 31  1  0  0  0
M  END
> <minimizedAffinity>
-11.54772

$$$$



 36 41  0  0  0  0  0  0  0  0999 V2000
    0.5945   68.4256   81.3373 N   0  0  0  0  0  0  0  0  0  0  0  0
   -0.1225   67.4293   80.6368 C   0  0  0  0  0  0  0  0  0  0  0  0
   -0.7655   67.6575   79.6132 O   0  0  0  0  0  0  0  0  0  0  0  0
   -0.0281   66.0888   81.2248 C   0  0  0  0  0  0  0  0  0  0  0  0
   -0.6060   64.9277   80.7850 N   0  0  0  0  0  0  0  0  0  0  0  0
   -0.2156   63.9885   81.6312 C   0  0  0  0  0  0  0  0  0  0  0  0
    0.5880   64.5235   82.6351 N   0  0  0  0  0  0  0  0  0  0  0  0
    0.7259   65.8579   82.3538 C   0  0  0  0  0  0  0  0  0  0  0  0
    1.4266   66.8473   82.9426 N   0  0  0  0  0  0  0  0  0  0  0  0
    2.2193   66.8303   84.1408 C   0  0  0  0  0  0  0  0  0  0  0  0
    2.7957   68.2686   84.1560 C   0  0  0  0  0  0  0  0  0  0  0  0
    2.0827   69.0311   83.0740 N   0  0  0  0  0  0  0  0  0  0  0  0
    1.3741   68.1310   82.4499 C   0  0  0  0  0  0  0  0  0  0  0  0
   -0.4958   70.6306   81.4913 C   0  0  0  0  0  0  0  0  0  0  0  0
    0.5691   69.7832   80.8098 C   0  0  0  0  0  0  0  0  0  0  0  0
   -0.5761   62.5351   81.4996 C   0  0  0  0  0  0  0  0  0  0  0  0
   -1.7601   62.2626   80.5973 C   0  0  0  0  0  0  0  0  0  0  0  0
   -1.5976   62.2561   79.2034 C   0  0  0  0  0  0  0  0  0  0  0  0
   -2.6865   62.0164   78.3636 C   0  0  0  0  0  0  0  0  0  0  0  0
   -3.9505   61.7936   78.9058 C   0  0  0  0  0  0  0  0  0  0  0  0
   -4.1293   61.8182   80.2875 C   0  0  0  0  0  0  0  0  0  0  0  0
   -3.0422   62.0580   81.1291 C   0  0  0  0  0  0  0  0  0  0  0  0
    1.1098   63.7831   83.7730 C   0  0  0  0  0  0  0  0  0  0  0  0
    0.1340   63.6577   84.9193 C   0  0  0  0  0  0  0  0  0  0  0  0
    0.4595   64.2389   86.1560 C   0  0  0  0  0  0  0  0  0  0  0  0
   -0.3998   64.1202   87.2496 C   0  0  0  0  0  0  0  0  0  0  0  0
   -1.5902   63.4088   87.1265 C   0  0  0  0  0  0  0  0  0  0  0  0
   -1.9194   62.8117   85.9123 C   0  0  0  0  0  0  0  0  0  0  0  0
   -1.0610   62.9285   84.8172 C   0  0  0  0  0  0  0  0  0  0  0  0
    4.3092   68.2733   83.8818 C   0  0  0  0  0  0  0  0  0  0  0  0
    5.0894   67.4015   84.8393 C   0  0  0  0  0  0  0  0  0  0  0  0
    5.9306   66.3906   84.3563 C   0  0  0  0  0  0  0  0  0  0  0  0
    6.6552   65.5881   85.2387 C   0  0  0  0  0  0  0  0  0  0  0  0
    6.5467   65.7884   86.6132 C   0  0  0  0  0  0  0  0  0  0  0  0
    5.7158   66.7927   87.1058 C   0  0  0  0  0  0  0  0  0  0  0  0
    4.9913   67.5972   86.2240 C   0  0  0  0  0  0  0  0  0  0  0  0
 14 15  1  0  0  0
 15  1  1  0  0  0
  1  2  1  0  0  0
  2  3  2  0  0  0
  2  4  1  0  0  0
  4  5  1  0  0  0
  5  6  2  0  0  0
  6 16  1  0  0  0
 16 17  1  0  0  0
 17 18  2  0  0  0
 18 19  1  0  0  0
 19 20  2  0  0  0
 20 21  1  0  0  0
 21 22  2  0  0  0
  6  7  1  0  0  0
  7 23  1  0  0  0
 23 24  1  0  0  0
 24 25  2  0  0  0
 25 26  1  0  0  0
 26 27  2  0  0  0
 27 28  1  0  0  0
 28 29  2  0  0  0
  7  8  1  0  0  0
  8  9  1  0  0  0
  9 10  1  0  0  0
 10 11  1  0  0  0
 11 30  1  0  0  0
 30 31  1  0  0  0
 31 32  2  0  0  0
 32 33  1  0  0  0
 33 34  2  0  0  0
 34 35  1  0  0  0
 35 36  2  0  0  0
 11 12  1  0  0  0
 12 13  2  0  0  0
 13  1  1  0  0  0
  8  4  2  0  0  0
 13  9  1  0  0  0
 22 17  1  0  0  0
 29 24  1  0  0  0
 36 31  1  0  0  0
M  END
> <minimizedAffinity>
-11.50978

$$$$



 36 41  0  0  0  0  0  0  0  0999 V2000
    0.4929   67.6277   81.2337 N   0  0  0  0  0  0  0  0  0  0  0  0
   -0.2279   66.6307   80.5381 C   0  0  0  0  0  0  0  0  0  0  0  0
   -0.7771   66.8296   79.4554 O   0  0  0  0  0  0  0  0  0  0  0  0
   -0.2588   65.3266   81.2089 C   0  0  0  0  0  0  0  0  0  0  0  0
   -0.8708   64.1740   80.7933 N   0  0  0  0  0  0  0  0  0  0  0  0
   -0.6025   63.2696   81.7210 C   0  0  0  0  0  0  0  0  0  0  0  0
    0.1539   63.8211   82.7522 N   0  0  0  0  0  0  0  0  0  0  0  0
    0.3927   65.1255   82.4053 C   0  0  0  0  0  0  0  0  0  0  0  0
    1.1053   66.1095   82.9889 N   0  0  0  0  0  0  0  0  0  0  0  0
    1.8030   66.1239   84.2448 C   0  0  0  0  0  0  0  0  0  0  0  0
    2.4621   67.5260   84.2215 C   0  0  0  0  0  0  0  0  0  0  0  0
    1.8798   68.2575   83.0440 N   0  0  0  0  0  0  0  0  0  0  0  0
    1.1673   67.3607   82.4195 C   0  0  0  0  0  0  0  0  0  0  0  0
    1.8399   69.0839   79.7710 C   0  0  0  0  0  0  0  0  0  0  0  0
    0.5891   68.9488   80.6276 C   0  0  0  0  0  0  0  0  0  0  0  0
   -1.0389   61.8330   81.6462 C   0  0  0  0  0  0  0  0  0  0  0  0
   -1.8735   61.4943   80.4302 C   0  0  0  0  0  0  0  0  0  0  0  0
   -3.2540   61.7467   80.4299 C   0  0  0  0  0  0  0  0  0  0  0  0
   -4.0331   61.4273   79.3167 C   0  0  0  0  0  0  0  0  0  0  0  0
   -3.4448   60.8412   78.1978 C   0  0  0  0  0  0  0  0  0  0  0  0
   -2.0789   60.5662   78.1935 C   0  0  0  0  0  0  0  0  0  0  0  0
   -1.2980   60.8843   79.3054 C   0  0  0  0  0  0  0  0  0  0  0  0
    0.5430   63.1259   83.9688 C   0  0  0  0  0  0  0  0  0  0  0  0
   -0.5158   63.1413   85.0462 C   0  0  0  0  0  0  0  0  0  0  0  0
   -0.1863   63.6430   86.3162 C   0  0  0  0  0  0  0  0  0  0  0  0
   -1.1258   63.6472   87.3487 C   0  0  0  0  0  0  0  0  0  0  0  0
   -2.4034   63.1388   87.1303 C   0  0  0  0  0  0  0  0  0  0  0  0
   -2.7406   62.6216   85.8822 C   0  0  0  0  0  0  0  0  0  0  0  0
   -1.8022   62.6158   84.8481 C   0  0  0  0  0  0  0  0  0  0  0  0
    3.9895   67.4295   84.0677 C   0  0  0  0  0  0  0  0  0  0  0  0
    4.6667   66.7829   85.2546 C   0  0  0  0  0  0  0  0  0  0  0  0
    4.9104   65.4033   85.2697 C   0  0  0  0  0  0  0  0  0  0  0  0
    5.5398   64.8055   86.3625 C   0  0  0  0  0  0  0  0  0  0  0  0
    5.9325   65.5810   87.4514 C   0  0  0  0  0  0  0  0  0  0  0  0
    5.6985   66.9546   87.4468 C   0  0  0  0  0  0  0  0  0  0  0  0
    5.0700   67.5542   86.3535 C   0  0  0  0  0  0  0  0  0  0  0  0
 14 15  1  0  0  0
 15  1  1  0  0  0
  1  2  1  0  0  0
  2  3  2  0  0  0
  2  4  1  0  0  0
  4  5  1  0  0  0
  5  6  2  0  0  0
  6 16  1  0  0  0
 16 17  1  0  0  0
 17 18  2  0  0  0
 18 19  1  0  0  0
 19 20  2  0  0  0
 20 21  1  0  0  0
 21 22  2  0  0  0
  6  7  1  0  0  0
  7 23  1  0  0  0
 23 24  1  0  0  0
 24 25  2  0  0  0
 25 26  1  0  0  0
 26 27  2  0  0  0
 27 28  1  0  0  0
 28 29  2  0  0  0
  7  8  1  0  0  0
  8  9  1  0  0  0
  9 10  1  0  0  0
 10 11  1  0  0  0
 11 30  1  0  0  0
 30 31  1  0  0  0
 31 32  2  0  0  0
 32 33  1  0  0  0
 33 34  2  0  0  0
 34 35  1  0  0  0
 35 36  2  0  0  0
 11 12  1  0  0  0
 12 13  2  0  0  0
 13  1  1  0  0  0
  8  4  2  0  0  0
 13  9  1  0  0  0
 22 17  1  0  0  0
 29 24  1  0  0  0
 36 31  1  0  0  0
M  END
> <minimizedAffinity>
-11.28294

$$$$



 36 41  0  0  0  0  0  0  0  0999 V2000
   -0.5906   63.0387   85.7433 N   0  0  0  0  0  0  0  0  0  0  0  0
    0.5117   63.9193   85.6609 C   0  0  0  0  0  0  0  0  0  0  0  0
    1.3122   64.0829   86.5805 O   0  0  0  0  0  0  0  0  0  0  0  0
    0.6335   64.6188   84.3774 C   0  0  0  0  0  0  0  0  0  0  0  0
    1.5832   65.5281   83.9943 N   0  0  0  0  0  0  0  0  0  0  0  0
    1.2819   65.8605   82.7496 C   0  0  0  0  0  0  0  0  0  0  0  0
    0.1318   65.2018   82.3214 N   0  0  0  0  0  0  0  0  0  0  0  0
   -0.2601   64.3909   83.3546 C   0  0  0  0  0  0  0  0  0  0  0  0
   -1.2607   63.4974   83.4848 N   0  0  0  0  0  0  0  0  0  0  0  0
   -2.3179   63.1561   82.5736 C   0  0  0  0  0  0  0  0  0  0  0  0
   -3.0268   62.0059   83.3322 C   0  0  0  0  0  0  0  0  0  0  0  0
   -2.4289   61.9650   84.7112 N   0  0  0  0  0  0  0  0  0  0  0  0
   -1.4397   62.8144   84.6658 C   0  0  0  0  0  0  0  0  0  0  0  0
   -1.6125   63.0638   87.9860 C   0  0  0  0  0  0  0  0  0  0  0  0
   -0.7747   62.2891   86.9787 C   0  0  0  0  0  0  0  0  0  0  0  0
    2.0970   66.8042   81.9102 C   0  0  0  0  0  0  0  0  0  0  0  0
    1.6707   68.2532   82.0035 C   0  0  0  0  0  0  0  0  0  0  0  0
    0.5849   68.7190   81.2462 C   0  0  0  0  0  0  0  0  0  0  0  0
    0.1919   70.0565   81.3180 C   0  0  0  0  0  0  0  0  0  0  0  0
    0.8863   70.9451   82.1362 C   0  0  0  0  0  0  0  0  0  0  0  0
    1.9792   70.5000   82.8772 C   0  0  0  0  0  0  0  0  0  0  0  0
    2.3742   69.1635   82.8068 C   0  0  0  0  0  0  0  0  0  0  0  0
   -0.5227   65.4089   81.0393 C   0  0  0  0  0  0  0  0  0  0  0  0
   -0.1163   64.4134   79.9783 C   0  0  0  0  0  0  0  0  0  0  0  0
   -0.1822   64.7940   78.6277 C   0  0  0  0  0  0  0  0  0  0  0  0
    0.1549   63.8948   77.6146 C   0  0  0  0  0  0  0  0  0  0  0  0
    0.5505   62.5992   77.9360 C   0  0  0  0  0  0  0  0  0  0  0  0
    0.6042   62.2006   79.2692 C   0  0  0  0  0  0  0  0  0  0  0  0
    0.2667   63.0981   80.2843 C   0  0  0  0  0  0  0  0  0  0  0  0
   -2.8120   60.6523   82.6341 C   0  0  0  0  0  0  0  0  0  0  0  0
   -2.9768   60.7249   81.1331 C   0  0  0  0  0  0  0  0  0  0  0  0
   -3.9607   61.5445   80.5646 C   0  0  0  0  0  0  0  0  0  0  0  0
   -4.1110   61.6164   79.1790 C   0  0  0  0  0  0  0  0  0  0  0  0
   -3.2788   60.8701   78.3473 C   0  0  0  0  0  0  0  0  0  0  0  0
   -2.2945   60.0536   78.9007 C   0  0  0  0  0  0  0  0  0  0  0  0
   -2.1421   59.9817   80.2868 C   0  0  0  0  0  0  0  0  0  0  0  0
 14 15  1  0  0  0
 15  1  1  0  0  0
  1  2  1  0  0  0
  2  3  2  0  0  0
  2  4  1  0  0  0
  4  5  1  0  0  0
  5  6  2  0  0  0
  6 16  1  0  0  0
 16 17  1  0  0  0
 17 18  2  0  0  0
 18 19  1  0  0  0
 19 20  2  0  0  0
 20 21  1  0  0  0
 21 22  2  0  0  0
  6  7  1  0  0  0
  7 23  1  0  0  0
 23 24  1  0  0  0
 24 25  2  0  0  0
 25 26  1  0  0  0
 26 27  2  0  0  0
 27 28  1  0  0  0
 28 29  2  0  0  0
  7  8  1  0  0  0
  8  9  1  0  0  0
  9 10  1  0  0  0
 10 11  1  0  0  0
 11 30  1  0  0  0
 30 31  1  0  0  0
 31 32  2  0  0  0
 32 33  1  0  0  0
 33 34  2  0  0  0
 34 35  1  0  0  0
 35 36  2  0  0  0
 11 12  1  0  0  0
 12 13  2  0  0  0
 13  1  1  0  0  0
  8  4  2  0  0  0
 13  9  1  0  0  0
 22 17  1  0  0  0
 29 24  1  0  0  0
 36 31  1  0  0  0
M  END
> <minimizedAffinity>
-11.18234

$$$$



 36 41  0  0  0  0  0  0  0  0999 V2000
    0.3207   64.2378   80.0531 N   0  0  0  0  0  0  0  0  0  0  0  0
    0.7478   65.4823   79.5373 C   0  0  0  0  0  0  0  0  0  0  0  0
    0.7114   65.7625   78.3400 O   0  0  0  0  0  0  0  0  0  0  0  0
    1.2300   66.4252   80.5521 C   0  0  0  0  0  0  0  0  0  0  0  0
    1.7075   67.6958   80.3699 N   0  0  0  0  0  0  0  0  0  0  0  0
    1.9994   68.1474   81.5788 C   0  0  0  0  0  0  0  0  0  0  0  0
    1.7453   67.1800   82.5480 N   0  0  0  0  0  0  0  0  0  0  0  0
    1.2289   66.0947   81.8890 C   0  0  0  0  0  0  0  0  0  0  0  0
    0.7589   64.9060   82.3163 N   0  0  0  0  0  0  0  0  0  0  0  0
    0.7202   64.3507   83.6409 C   0  0  0  0  0  0  0  0  0  0  0  0
   -0.0287   63.0158   83.3997 C   0  0  0  0  0  0  0  0  0  0  0  0
   -0.1394   62.8457   81.9099 N   0  0  0  0  0  0  0  0  0  0  0  0
    0.3019   63.9701   81.4170 C   0  0  0  0  0  0  0  0  0  0  0  0
    0.9337   62.4516   78.4693 C   0  0  0  0  0  0  0  0  0  0  0  0
   -0.1912   63.2489   79.1139 C   0  0  0  0  0  0  0  0  0  0  0  0
    2.5108   69.5330   81.8583 C   0  0  0  0  0  0  0  0  0  0  0  0
    1.4511   70.6125   81.8151 C   0  0  0  0  0  0  0  0  0  0  0  0
    1.7804   71.9372   82.1406 C   0  0  0  0  0  0  0  0  0  0  0  0
    0.8068   72.9371   82.1139 C   0  0  0  0  0  0  0  0  0  0  0  0
   -0.5076   72.6226   81.7746 C   0  0  0  0  0  0  0  0  0  0  0  0
   -0.8520   71.3074   81.4696 C   0  0  0  0  0  0  0  0  0  0  0  0
    0.1196   70.3060   81.4960 C   0  0  0  0  0  0  0  0  0  0  0  0
    2.0401   67.3179   83.9654 C   0  0  0  0  0  0  0  0  0  0  0  0
    3.4690   66.9872   84.3269 C   0  0  0  0  0  0  0  0  0  0  0  0
    3.7563   65.7292   84.8821 C   0  0  0  0  0  0  0  0  0  0  0  0
    5.0582   65.3947   85.2585 C   0  0  0  0  0  0  0  0  0  0  0  0
    6.0890   66.3166   85.0972 C   0  0  0  0  0  0  0  0  0  0  0  0
    5.8180   67.5744   84.5646 C   0  0  0  0  0  0  0  0  0  0  0  0
    4.5162   67.9115   84.1880 C   0  0  0  0  0  0  0  0  0  0  0  0
   -1.4340   63.0358   84.0247 C   0  0  0  0  0  0  0  0  0  0  0  0
   -1.4122   63.0396   85.5362 C   0  0  0  0  0  0  0  0  0  0  0  0
   -0.2195   63.2838   86.2297 C   0  0  0  0  0  0  0  0  0  0  0  0
   -0.1987   63.2925   87.6250 C   0  0  0  0  0  0  0  0  0  0  0  0
   -1.3702   63.0576   88.3417 C   0  0  0  0  0  0  0  0  0  0  0  0
   -2.5634   62.8167   87.6635 C   0  0  0  0  0  0  0  0  0  0  0  0
   -2.5859   62.8090   86.2674 C   0  0  0  0  0  0  0  0  0  0  0  0
 14 15  1  0  0  0
 15  1  1  0  0  0
  1  2  1  0  0  0
  2  3  2  0  0  0
  2  4  1  0  0  0
  4  5  1  0  0  0
  5  6  2  0  0  0
  6 16  1  0  0  0
 16 17  1  0  0  0
 17 18  2  0  0  0
 18 19  1  0  0  0
 19 20  2  0  0  0
 20 21  1  0  0  0
 21 22  2  0  0  0
  6  7  1  0  0  0
  7 23  1  0  0  0
 23 24  1  0  0  0
 24 25  2  0  0  0
 25 26  1  0  0  0
 26 27  2  0  0  0
 27 28  1  0  0  0
 28 29  2  0  0  0
  7  8  1  0  0  0
  8  9  1  0  0  0
  9 10  1  0  0  0
 10 11  1  0  0  0
 11 30  1  0  0  0
 30 31  1  0  0  0
 31 32  2  0  0  0
 32 33  1  0  0  0
 33 34  2  0  0  0
 34 35  1  0  0  0
 35 36  2  0  0  0
 11 12  1  0  0  0
 12 13  2  0  0  0
 13  1  1  0  0  0
  8  4  2  0  0  0
 13  9  1  0  0  0
 22 17  1  0  0  0
 29 24  1  0  0  0
 36 31  1  0  0  0
M  END
> <minimizedAffinity>
-11.11601

$$$$



 36 41  0  0  0  0  0  0  0  0999 V2000
   -1.5383   63.0467   85.8600 N   0  0  0  0  0  0  0  0  0  0  0  0
   -2.4215   62.0908   85.3090 C   0  0  0  0  0  0  0  0  0  0  0  0
   -3.4465   61.7160   85.8767 O   0  0  0  0  0  0  0  0  0  0  0  0
   -2.0224   61.5864   83.9907 C   0  0  0  0  0  0  0  0  0  0  0  0
   -2.6614   60.6621   83.2077 N   0  0  0  0  0  0  0  0  0  0  0  0
   -1.9296   60.5522   82.1109 C   0  0  0  0  0  0  0  0  0  0  0  0
   -0.8054   61.3717   82.1765 N   0  0  0  0  0  0  0  0  0  0  0  0
   -0.8858   62.0487   83.3656 C   0  0  0  0  0  0  0  0  0  0  0  0
   -0.1150   63.0007   83.9280 N   0  0  0  0  0  0  0  0  0  0  0  0
    1.1229   63.5728   83.4754 C   0  0  0  0  0  0  0  0  0  0  0  0
    1.3813   64.6547   84.5541 C   0  0  0  0  0  0  0  0  0  0  0  0
    0.3687   64.4300   85.6426 N   0  0  0  0  0  0  0  0  0  0  0  0
   -0.4250   63.5097   85.1682 C   0  0  0  0  0  0  0  0  0  0  0  0
   -1.1876   62.8593   88.2923 C   0  0  0  0  0  0  0  0  0  0  0  0
   -1.8703   63.6134   87.1602 C   0  0  0  0  0  0  0  0  0  0  0  0
   -2.2897   59.6759   80.9439 C   0  0  0  0  0  0  0  0  0  0  0  0
   -2.5937   60.4278   79.6662 C   0  0  0  0  0  0  0  0  0  0  0  0
   -1.9765   60.0522   78.4631 C   0  0  0  0  0  0  0  0  0  0  0  0
   -2.2429   60.7471   77.2823 C   0  0  0  0  0  0  0  0  0  0  0  0
   -3.1178   61.8316   77.2927 C   0  0  0  0  0  0  0  0  0  0  0  0
   -3.7209   62.2277   78.4846 C   0  0  0  0  0  0  0  0  0  0  0  0
   -3.4559   61.5347   79.6665 C   0  0  0  0  0  0  0  0  0  0  0  0
    0.2518   61.4234   81.1790 C   0  0  0  0  0  0  0  0  0  0  0  0
    0.0604   62.5048   80.1419 C   0  0  0  0  0  0  0  0  0  0  0  0
    0.6528   62.3473   78.8779 C   0  0  0  0  0  0  0  0  0  0  0  0
    0.5264   63.3365   77.9012 C   0  0  0  0  0  0  0  0  0  0  0  0
   -0.1830   64.5022   78.1776 C   0  0  0  0  0  0  0  0  0  0  0  0
   -0.7615   64.6816   79.4315 C   0  0  0  0  0  0  0  0  0  0  0  0
   -0.6357   63.6938   80.4104 C   0  0  0  0  0  0  0  0  0  0  0  0
    1.2201   66.0731   83.9813 C   0  0  0  0  0  0  0  0  0  0  0  0
    2.5066   66.8668   83.9888 C   0  0  0  0  0  0  0  0  0  0  0  0
    3.6767   66.3196   84.5313 C   0  0  0  0  0  0  0  0  0  0  0  0
    4.8664   67.0493   84.5346 C   0  0  0  0  0  0  0  0  0  0  0  0
    4.8987   68.3334   83.9950 C   0  0  0  0  0  0  0  0  0  0  0  0
    3.7423   68.8873   83.4496 C   0  0  0  0  0  0  0  0  0  0  0  0
    2.5516   68.1580   83.4444 C   0  0  0  0  0  0  0  0  0  0  0  0
 14 15  1  0  0  0
 15  1  1  0  0  0
  1  2  1  0  0  0
  2  3  2  0  0  0
  2  4  1  0  0  0
  4  5  1  0  0  0
  5  6  2  0  0  0
  6 16  1  0  0  0
 16 17  1  0  0  0
 17 18  2  0  0  0
 18 19  1  0  0  0
 19 20  2  0  0  0
 20 21  1  0  0  0
 21 22  2  0  0  0
  6  7  1  0  0  0
  7 23  1  0  0  0
 23 24  1  0  0  0
 24 25  2  0  0  0
 25 26  1  0  0  0
 26 27  2  0  0  0
 27 28  1  0  0  0
 28 29  2  0  0  0
  7  8  1  0  0  0
  8  9  1  0  0  0
  9 10  1  0  0  0
 10 11  1  0  0  0
 11 30  1  0  0  0
 30 31  1  0  0  0
 31 32  2  0  0  0
 32 33  1  0  0  0
 33 34  2  0  0  0
 34 35  1  0  0  0
 35 36  2  0  0  0
 11 12  1  0  0  0
 12 13  2  0  0  0
 13  1  1  0  0  0
  8  4  2  0  0  0
 13  9  1  0  0  0
 22 17  1  0  0  0
 29 24  1  0  0  0
 36 31  1  0  0  0
M  END
> <minimizedAffinity>
-11.05128

$$$$



 36 41  0  0  0  0  0  0  0  0999 V2000
   -0.4716   64.1514   82.7378 N   0  0  0  0  0  0  0  0  0  0  0  0
    0.2006   64.4957   83.9323 C   0  0  0  0  0  0  0  0  0  0  0  0
    0.0369   63.8952   84.9934 O   0  0  0  0  0  0  0  0  0  0  0  0
    1.1254   65.6268   83.8024 C   0  0  0  0  0  0  0  0  0  0  0  0
    1.9124   66.1936   84.7693 N   0  0  0  0  0  0  0  0  0  0  0  0
    2.5780   67.1659   84.1673 C   0  0  0  0  0  0  0  0  0  0  0  0
    2.2175   67.2614   82.8254 N   0  0  0  0  0  0  0  0  0  0  0  0
    1.3117   66.2592   82.5933 C   0  0  0  0  0  0  0  0  0  0  0  0
    0.6739   65.8448   81.4805 N   0  0  0  0  0  0  0  0  0  0  0  0
    0.6852   66.3921   80.1521 C   0  0  0  0  0  0  0  0  0  0  0  0
   -0.1833   65.3654   79.3824 C   0  0  0  0  0  0  0  0  0  0  0  0
   -0.7902   64.4543   80.4131 N   0  0  0  0  0  0  0  0  0  0  0  0
   -0.2161   64.7968   81.5333 C   0  0  0  0  0  0  0  0  0  0  0  0
   -0.6893   61.7097   82.4830 C   0  0  0  0  0  0  0  0  0  0  0  0
   -1.3957   63.0260   82.7745 C   0  0  0  0  0  0  0  0  0  0  0  0
    3.6051   68.0280   84.8466 C   0  0  0  0  0  0  0  0  0  0  0  0
    4.9254   67.3380   85.1123 C   0  0  0  0  0  0  0  0  0  0  0  0
    5.9509   67.3854   84.1554 C   0  0  0  0  0  0  0  0  0  0  0  0
    7.1679   66.7425   84.3876 C   0  0  0  0  0  0  0  0  0  0  0  0
    7.3691   66.0353   85.5712 C   0  0  0  0  0  0  0  0  0  0  0  0
    6.3515   65.9630   86.5202 C   0  0  0  0  0  0  0  0  0  0  0  0
    5.1338   66.6046   86.2901 C   0  0  0  0  0  0  0  0  0  0  0  0
    2.6926   68.2793   81.9017 C   0  0  0  0  0  0  0  0  0  0  0  0
    1.8868   69.5565   81.9333 C   0  0  0  0  0  0  0  0  0  0  0  0
    2.4441   70.6976   82.5339 C   0  0  0  0  0  0  0  0  0  0  0  0
    1.7216   71.8894   82.6116 C   0  0  0  0  0  0  0  0  0  0  0  0
    0.4277   71.9544   82.1017 C   0  0  0  0  0  0  0  0  0  0  0  0
   -0.1460   70.8273   81.5189 C   0  0  0  0  0  0  0  0  0  0  0  0
    0.5747   69.6338   81.4407 C   0  0  0  0  0  0  0  0  0  0  0  0
    0.6594   64.5412   78.3943 C   0  0  0  0  0  0  0  0  0  0  0  0
   -0.1278   63.4462   77.7111 C   0  0  0  0  0  0  0  0  0  0  0  0
   -1.3234   63.7410   77.0426 C   0  0  0  0  0  0  0  0  0  0  0  0
   -2.0488   62.7321   76.4073 C   0  0  0  0  0  0  0  0  0  0  0  0
   -1.5862   61.4181   76.4332 C   0  0  0  0  0  0  0  0  0  0  0  0
   -0.3969   61.1129   77.0921 C   0  0  0  0  0  0  0  0  0  0  0  0
    0.3306   62.1215   77.7270 C   0  0  0  0  0  0  0  0  0  0  0  0
 14 15  1  0  0  0
 15  1  1  0  0  0
  1  2  1  0  0  0
  2  3  2  0  0  0
  2  4  1  0  0  0
  4  5  1  0  0  0
  5  6  2  0  0  0
  6 16  1  0  0  0
 16 17  1  0  0  0
 17 18  2  0  0  0
 18 19  1  0  0  0
 19 20  2  0  0  0
 20 21  1  0  0  0
 21 22  2  0  0  0
  6  7  1  0  0  0
  7 23  1  0  0  0
 23 24  1  0  0  0
 24 25  2  0  0  0
 25 26  1  0  0  0
 26 27  2  0  0  0
 27 28  1  0  0  0
 28 29  2  0  0  0
  7  8  1  0  0  0
  8  9  1  0  0  0
  9 10  1  0  0  0
 10 11  1  0  0  0
 11 30  1  0  0  0
 30 31  1  0  0  0
 31 32  2  0  0  0
 32 33  1  0  0  0
 33 34  2  0  0  0
 34 35  1  0  0  0
 35 36  2  0  0  0
 11 12  1  0  0  0
 12 13  2  0  0  0
 13  1  1  0  0  0
  8  4  2  0  0  0
 13  9  1  0  0  0
 22 17  1  0  0  0
 29 24  1  0  0  0
 36 31  1  0  0  0
M  END
> <minimizedAffinity>
-10.93593

$$$$



 36 41  0  0  0  0  0  0  0  0999 V2000
   -0.7037   63.2341   84.2717 N   0  0  0  0  0  0  0  0  0  0  0  0
    0.1533   63.9181   85.1633 C   0  0  0  0  0  0  0  0  0  0  0  0
    0.2036   63.6746   86.3681 O   0  0  0  0  0  0  0  0  0  0  0  0
    0.9934   64.9409   84.5311 C   0  0  0  0  0  0  0  0  0  0  0  0
    1.9141   65.7652   85.1215 N   0  0  0  0  0  0  0  0  0  0  0  0
    2.4228   66.4958   84.1427 C   0  0  0  0  0  0  0  0  0  0  0  0
    1.8285   66.1804   82.9233 N   0  0  0  0  0  0  0  0  0  0  0  0
    0.9380   65.1690   83.1741 C   0  0  0  0  0  0  0  0  0  0  0  0
    0.1323   64.4428   82.3741 N   0  0  0  0  0  0  0  0  0  0  0  0
   -0.1127   64.5560   80.9629 C   0  0  0  0  0  0  0  0  0  0  0  0
   -1.0599   63.3557   80.7117 C   0  0  0  0  0  0  0  0  0  0  0  0
   -1.4382   62.8139   82.0623 N   0  0  0  0  0  0  0  0  0  0  0  0
   -0.6907   63.4750   82.9027 C   0  0  0  0  0  0  0  0  0  0  0  0
   -2.7079   62.7682   85.6283 C   0  0  0  0  0  0  0  0  0  0  0  0
   -1.5598   62.1881   84.8148 C   0  0  0  0  0  0  0  0  0  0  0  0
    3.5169   67.5093   84.3309 C   0  0  0  0  0  0  0  0  0  0  0  0
    4.8563   66.9207   84.7181 C   0  0  0  0  0  0  0  0  0  0  0  0
    4.9306   65.9264   85.7056 C   0  0  0  0  0  0  0  0  0  0  0  0
    6.1629   65.3859   86.0765 C   0  0  0  0  0  0  0  0  0  0  0  0
    7.3344   65.8412   85.4749 C   0  0  0  0  0  0  0  0  0  0  0  0
    7.2763   66.8428   84.5080 C   0  0  0  0  0  0  0  0  0  0  0  0
    6.0454   67.3850   84.1359 C   0  0  0  0  0  0  0  0  0  0  0  0
    2.0915   66.8586   81.6640 C   0  0  0  0  0  0  0  0  0  0  0  0
    1.2837   68.1202   81.4695 C   0  0  0  0  0  0  0  0  0  0  0  0
    0.3048   68.1525   80.4626 C   0  0  0  0  0  0  0  0  0  0  0  0
   -0.4426   69.3082   80.2293 C   0  0  0  0  0  0  0  0  0  0  0  0
   -0.2138   70.4514   80.9902 C   0  0  0  0  0  0  0  0  0  0  0  0
    0.7651   70.4416   81.9804 C   0  0  0  0  0  0  0  0  0  0  0  0
    1.5145   69.2869   82.2151 C   0  0  0  0  0  0  0  0  0  0  0  0
   -0.3708   62.2556   79.8866 C   0  0  0  0  0  0  0  0  0  0  0  0
   -1.3032   61.5703   78.9138 C   0  0  0  0  0  0  0  0  0  0  0  0
   -2.4810   62.2016   78.4927 C   0  0  0  0  0  0  0  0  0  0  0  0
   -3.3403   61.5723   77.5909 C   0  0  0  0  0  0  0  0  0  0  0  0
   -3.0308   60.3055   77.1004 C   0  0  0  0  0  0  0  0  0  0  0  0
   -1.8608   59.6686   77.5092 C   0  0  0  0  0  0  0  0  0  0  0  0
   -0.9994   60.2976   78.4104 C   0  0  0  0  0  0  0  0  0  0  0  0
 14 15  1  0  0  0
 15  1  1  0  0  0
  1  2  1  0  0  0
  2  3  2  0  0  0
  2  4  1  0  0  0
  4  5  1  0  0  0
  5  6  2  0  0  0
  6 16  1  0  0  0
 16 17  1  0  0  0
 17 18  2  0  0  0
 18 19  1  0  0  0
 19 20  2  0  0  0
 20 21  1  0  0  0
 21 22  2  0  0  0
  6  7  1  0  0  0
  7 23  1  0  0  0
 23 24  1  0  0  0
 24 25  2  0  0  0
 25 26  1  0  0  0
 26 27  2  0  0  0
 27 28  1  0  0  0
 28 29  2  0  0  0
  7  8  1  0  0  0
  8  9  1  0  0  0
  9 10  1  0  0  0
 10 11  1  0  0  0
 11 30  1  0  0  0
 30 31  1  0  0  0
 31 32  2  0  0  0
 32 33  1  0  0  0
 33 34  2  0  0  0
 34 35  1  0  0  0
 35 36  2  0  0  0
 11 12  1  0  0  0
 12 13  2  0  0  0
 13  1  1  0  0  0
  8  4  2  0  0  0
 13  9  1  0  0  0
 22 17  1  0  0  0
 29 24  1  0  0  0
 36 31  1  0  0  0
M  END
> <minimizedAffinity>
-10.89350

$$$$



 36 41  0  0  0  0  0  0  0  0999 V2000
    0.0078   63.8848   78.9573 N   0  0  0  0  0  0  0  0  0  0  0  0
    0.0492   62.6955   79.7197 C   0  0  0  0  0  0  0  0  0  0  0  0
    0.0274   61.5730   79.2169 O   0  0  0  0  0  0  0  0  0  0  0  0
    0.1332   62.9075   81.1687 C   0  0  0  0  0  0  0  0  0  0  0  0
    0.1861   61.9656   82.1616 N   0  0  0  0  0  0  0  0  0  0  0  0
    0.2722   62.6424   83.2952 C   0  0  0  0  0  0  0  0  0  0  0  0
    0.2490   64.0150   83.0605 N   0  0  0  0  0  0  0  0  0  0  0  0
    0.1883   64.1765   81.7007 C   0  0  0  0  0  0  0  0  0  0  0  0
    0.1958   65.2679   80.9098 N   0  0  0  0  0  0  0  0  0  0  0  0
    0.1928   66.6615   81.2596 C   0  0  0  0  0  0  0  0  0  0  0  0
    0.3006   67.3344   79.8680 C   0  0  0  0  0  0  0  0  0  0  0  0
    0.1243   66.2452   78.8466 N   0  0  0  0  0  0  0  0  0  0  0  0
    0.1078   65.1418   79.5424 C   0  0  0  0  0  0  0  0  0  0  0  0
   -1.4954   63.6935   77.0136 C   0  0  0  0  0  0  0  0  0  0  0  0
   -0.0574   63.7641   77.5071 C   0  0  0  0  0  0  0  0  0  0  0  0
    0.4050   62.0023   84.6489 C   0  0  0  0  0  0  0  0  0  0  0  0
   -0.6623   62.4090   85.6416 C   0  0  0  0  0  0  0  0  0  0  0  0
   -2.0196   62.3006   85.3017 C   0  0  0  0  0  0  0  0  0  0  0  0
   -3.0103   62.6837   86.2072 C   0  0  0  0  0  0  0  0  0  0  0  0
   -2.6564   63.1907   87.4559 C   0  0  0  0  0  0  0  0  0  0  0  0
   -1.3121   63.3231   87.7977 C   0  0  0  0  0  0  0  0  0  0  0  0
   -0.3198   62.9411   86.8939 C   0  0  0  0  0  0  0  0  0  0  0  0
    0.2355   65.0402   84.0919 C   0  0  0  0  0  0  0  0  0  0  0  0
    1.5586   65.7478   84.2668 C   0  0  0  0  0  0  0  0  0  0  0  0
    2.6152   65.0684   84.8954 C   0  0  0  0  0  0  0  0  0  0  0  0
    3.8444   65.6960   85.1045 C   0  0  0  0  0  0  0  0  0  0  0  0
    4.0312   67.0150   84.6998 C   0  0  0  0  0  0  0  0  0  0  0  0
    2.9882   67.7084   84.0911 C   0  0  0  0  0  0  0  0  0  0  0  0
    1.7575   67.0829   83.8816 C   0  0  0  0  0  0  0  0  0  0  0  0
    1.6678   68.0115   79.6726 C   0  0  0  0  0  0  0  0  0  0  0  0
    1.9131   69.1459   80.6413 C   0  0  0  0  0  0  0  0  0  0  0  0
    0.8387   69.7904   81.2684 C   0  0  0  0  0  0  0  0  0  0  0  0
    1.0636   70.8346   82.1666 C   0  0  0  0  0  0  0  0  0  0  0  0
    2.3652   71.2449   82.4476 C   0  0  0  0  0  0  0  0  0  0  0  0
    3.4422   70.6095   81.8327 C   0  0  0  0  0  0  0  0  0  0  0  0
    3.2186   69.5638   80.9348 C   0  0  0  0  0  0  0  0  0  0  0  0
 14 15  1  0  0  0
 15  1  1  0  0  0
  1  2  1  0  0  0
  2  3  2  0  0  0
  2  4  1  0  0  0
  4  5  1  0  0  0
  5  6  2  0  0  0
  6 16  1  0  0  0
 16 17  1  0  0  0
 17 18  2  0  0  0
 18 19  1  0  0  0
 19 20  2  0  0  0
 20 21  1  0  0  0
 21 22  2  0  0  0
  6  7  1  0  0  0
  7 23  1  0  0  0
 23 24  1  0  0  0
 24 25  2  0  0  0
 25 26  1  0  0  0
 26 27  2  0  0  0
 27 28  1  0  0  0
 28 29  2  0  0  0
  7  8  1  0  0  0
  8  9  1  0  0  0
  9 10  1  0  0  0
 10 11  1  0  0  0
 11 30  1  0  0  0
 30 31  1  0  0  0
 31 32  2  0  0  0
 32 33  1  0  0  0
 33 34  2  0  0  0
 34 35  1  0  0  0
 35 36  2  0  0  0
 11 12  1  0  0  0
 12 13  2  0  0  0
 13  1  1  0  0  0
  8  4  2  0  0  0
 13  9  1  0  0  0
 22 17  1  0  0  0
 29 24  1  0  0  0
 36 31  1  0  0  0
M  END
> <minimizedAffinity>
-10.69673

$$$$
