


 32 35  0  0  0  0  0  0  0  0999 V2000
    0.1508   63.3377   82.1838 N   0  0  0  0  0  0  0  0  0  0  0  0
    0.5189   64.4056   83.0107 C   0  0  0  0  0  0  0  0  0  0  0  0
    0.4107   64.3909   84.2336 O   0  0  0  0  0  0  0  0  0  0  0  0
    1.0014   65.5304   82.2877 C   0  0  0  0  0  0  0  0  0  0  0  0
    1.0385   65.5735   80.9291 C   0  0  0  0  0  0  0  0  0  0  0  0
    1.5057   66.7632   80.4717 N   0  0  0  0  0  0  0  0  0  0  0  0
    1.7668   67.4731   81.5497 C   0  0  0  0  0  0  0  0  0  0  0  0
    1.5107   66.7383   82.6950 N   0  0  0  0  0  0  0  0  0  0  0  0
    0.6210   64.5174   80.1542 N   0  0  0  0  0  0  0  0  0  0  0  0
    0.1272   63.3686   80.7753 C   0  0  0  0  0  0  0  0  0  0  0  0
   -0.3202   62.4233   80.1190 O   0  0  0  0  0  0  0  0  0  0  0  0
   -1.8676   62.2152   83.0567 C   0  0  0  0  0  0  0  0  0  0  0  0
   -0.3631   62.1386   82.8356 C   0  0  0  0  0  0  0  0  0  0  0  0
    2.2360   68.7415   81.5896 N   0  0  0  0  0  0  0  0  0  0  0  0
    2.4525   69.1733   82.4807 H   0  0  0  0  0  0  0  0  0  0  0  0
    1.7633   69.6880   80.5783 C   0  0  0  0  0  0  0  0  0  0  0  0
    2.7695   70.8387   80.4524 C   0  0  0  0  0  0  0  0  0  0  0  0
    2.2416   71.9086   81.3954 C   0  0  0  0  0  0  0  0  0  0  0  0
    0.7405   71.8354   81.1810 C   0  0  0  0  0  0  0  0  0  0  0  0
    0.4452   70.3461   81.0216 C   0  0  0  0  0  0  0  0  0  0  0  0
    0.6164   64.6140   78.6990 C   0  0  0  0  0  0  0  0  0  0  0  0
   -0.6779   65.2169   78.1749 C   0  0  0  0  0  0  0  0  0  0  0  0
    1.7542   67.1424   84.0702 C   0  0  0  0  0  0  0  0  0  0  0  0
    3.2022   66.9673   84.4618 C   0  0  0  0  0  0  0  0  0  0  0  0
    4.1440   67.9838   84.2374 C   0  0  0  0  0  0  0  0  0  0  0  0
    5.4870   67.8195   84.6041 C   0  0  0  0  0  0  0  0  0  0  0  0
    5.9130   66.6354   85.2066 C   0  0  0  0  0  0  0  0  0  0  0  0
    4.9723   65.6271   85.4331 C   0  0  0  0  0  0  0  0  0  0  0  0
    5.3458   64.4759   86.0130 F   0  0  0  0  0  0  0  0  0  0  0  0
    3.6353   65.7827   85.0692 C   0  0  0  0  0  0  0  0  0  0  0  0
    7.1914   66.3602   85.6091 O   0  0  0  0  0  0  0  0  0  0  0  0
    8.2430   66.7222   84.7243 C   0  0  0  0  0  0  0  0  0  0  0  0
 12 13  1  0  0  0
 13  1  1  0  0  0
  1  2  1  0  0  0
  2  3  2  0  0  0
  2  4  1  0  0  0
  4  5  2  0  0  0
  5  6  1  0  0  0
  6  7  2  0  0  0
  7 14  1  0  0  0
 14 16  1  0  0  0
 16 17  1  0  0  0
 17 18  1  0  0  0
 18 19  1  0  0  0
 19 20  1  0  0  0
  7  8  1  0  0  0
  8 23  1  0  0  0
 23 24  1  0  0  0
 24 25  1  0  0  0
 25 26  2  0  0  0
 26 27  1  0  0  0
 27 31  1  0  0  0
 31 32  1  0  0  0
 27 28  2  0  0  0
 28 29  1  0  0  0
 28 30  1  0  0  0
  5  9  1  0  0  0
  9 21  1  0  0  0
 21 22  1  0  0  0
  9 10  1  0  0  0
 10 11  2  0  0  0
 10  1  1  0  0  0
  8  4  1  0  0  0
 30 24  2  0  0  0
 20 16  1  0  0  0
 14 15  1  0  0  0
M  END
> <minimizedAffinity>
-1.39121

$$$$



 32 35  0  0  0  0  0  0  0  0999 V2000
   -0.7948   63.8172   80.6672 N   0  0  0  0  0  0  0  0  0  0  0  0
    0.2061   64.7852   80.5228 C   0  0  0  0  0  0  0  0  0  0  0  0
    0.6310   65.1714   79.4375 O   0  0  0  0  0  0  0  0  0  0  0  0
    0.7108   65.2555   81.7657 C   0  0  0  0  0  0  0  0  0  0  0  0
    0.2976   64.7624   82.9638 C   0  0  0  0  0  0  0  0  0  0  0  0
    0.9482   65.3441   84.0035 N   0  0  0  0  0  0  0  0  0  0  0  0
    1.7749   66.2111   83.4566 C   0  0  0  0  0  0  0  0  0  0  0  0
    1.6340   66.2218   82.0791 N   0  0  0  0  0  0  0  0  0  0  0  0
   -0.6552   63.7757   83.0569 N   0  0  0  0  0  0  0  0  0  0  0  0
   -1.2076   63.2480   81.8882 C   0  0  0  0  0  0  0  0  0  0  0  0
   -2.0164   62.3157   81.9220 O   0  0  0  0  0  0  0  0  0  0  0  0
   -0.5868   62.0658   78.9395 C   0  0  0  0  0  0  0  0  0  0  0  0
   -1.3709   63.2691   79.4446 C   0  0  0  0  0  0  0  0  0  0  0  0
    2.6493   67.0153   84.1041 N   0  0  0  0  0  0  0  0  0  0  0  0
    2.4552   68.0062   84.1932 H   0  0  0  0  0  0  0  0  0  0  0  0
    4.0763   66.7026   84.0146 C   0  0  0  0  0  0  0  0  0  0  0  0
    4.4371   65.6720   85.0917 C   0  0  0  0  0  0  0  0  0  0  0  0
    4.9103   66.5067   86.2715 C   0  0  0  0  0  0  0  0  0  0  0  0
    5.7109   67.6103   85.6037 C   0  0  0  0  0  0  0  0  0  0  0  0
    4.9274   67.9433   84.3365 C   0  0  0  0  0  0  0  0  0  0  0  0
   -1.0360   63.2243   84.3522 C   0  0  0  0  0  0  0  0  0  0  0  0
   -0.2509   61.9648   84.6852 C   0  0  0  0  0  0  0  0  0  0  0  0
    2.3059   67.0993   81.1346 C   0  0  0  0  0  0  0  0  0  0  0  0
    1.7134   68.4884   81.1351 C   0  0  0  0  0  0  0  0  0  0  0  0
    0.4313   68.7320   80.6181 C   0  0  0  0  0  0  0  0  0  0  0  0
   -0.1173   70.0221   80.6221 C   0  0  0  0  0  0  0  0  0  0  0  0
    0.6057   71.0934   81.1477 C   0  0  0  0  0  0  0  0  0  0  0  0
    1.8798   70.8470   81.6661 C   0  0  0  0  0  0  0  0  0  0  0  0
    2.6027   71.8531   82.1822 F   0  0  0  0  0  0  0  0  0  0  0  0
    2.4326   69.5670   81.6636 C   0  0  0  0  0  0  0  0  0  0  0  0
    0.1772   72.3914   81.2089 O   0  0  0  0  0  0  0  0  0  0  0  0
   -1.0327   72.7084   80.5341 C   0  0  0  0  0  0  0  0  0  0  0  0
 12 13  1  0  0  0
 13  1  1  0  0  0
  1  2  1  0  0  0
  2  3  2  0  0  0
  2  4  1  0  0  0
  4  5  2  0  0  0
  5  6  1  0  0  0
  6  7  2  0  0  0
  7 14  1  0  0  0
 14 16  1  0  0  0
 16 17  1  0  0  0
 17 18  1  0  0  0
 18 19  1  0  0  0
 19 20  1  0  0  0
  7  8  1  0  0  0
  8 23  1  0  0  0
 23 24  1  0  0  0
 24 25  1  0  0  0
 25 26  2  0  0  0
 26 27  1  0  0  0
 27 31  1  0  0  0
 31 32  1  0  0  0
 27 28  2  0  0  0
 28 29  1  0  0  0
 28 30  1  0  0  0
  5  9  1  0  0  0
  9 21  1  0  0  0
 21 22  1  0  0  0
  9 10  1  0  0  0
 10 11  2  0  0  0
 10  1  1  0  0  0
  8  4  1  0  0  0
 30 24  2  0  0  0
 20 16  1  0  0  0
 14 15  1  0  0  0
M  END
> <minimizedAffinity>
-1.23260

$$$$



 32 35  0  0  0  0  0  0  0  0999 V2000
   -1.2651   63.2403   80.2747 N   0  0  0  0  0  0  0  0  0  0  0  0
   -0.3339   64.2299   79.9381 C   0  0  0  0  0  0  0  0  0  0  0  0
   -0.0419   64.5282   78.7835 O   0  0  0  0  0  0  0  0  0  0  0  0
    0.2708   64.8361   81.0728 C   0  0  0  0  0  0  0  0  0  0  0  0
    0.0073   64.4426   82.3476 C   0  0  0  0  0  0  0  0  0  0  0  0
    0.7306   65.1463   83.2556 N   0  0  0  0  0  0  0  0  0  0  0  0
    1.4526   65.9901   82.5479 C   0  0  0  0  0  0  0  0  0  0  0  0
    1.1715   65.8644   81.1980 N   0  0  0  0  0  0  0  0  0  0  0  0
   -0.8804   63.4314   82.6300 N   0  0  0  0  0  0  0  0  0  0  0  0
   -1.5219   62.7733   81.5790 C   0  0  0  0  0  0  0  0  0  0  0  0
   -2.2753   61.8165   81.7825 O   0  0  0  0  0  0  0  0  0  0  0  0
   -1.1340   61.3581   78.6823 C   0  0  0  0  0  0  0  0  0  0  0  0
   -1.9347   62.5557   79.1747 C   0  0  0  0  0  0  0  0  0  0  0  0
    2.3471   66.8869   83.0237 N   0  0  0  0  0  0  0  0  0  0  0  0
    3.1456   67.1537   82.4590 H   0  0  0  0  0  0  0  0  0  0  0  0
    2.6141   66.9037   84.4625 C   0  0  0  0  0  0  0  0  0  0  0  0
    3.3180   68.2155   84.8315 C   0  0  0  0  0  0  0  0  0  0  0  0
    4.8000   67.8793   84.7750 C   0  0  0  0  0  0  0  0  0  0  0  0
    4.8525   66.4867   85.3772 C   0  0  0  0  0  0  0  0  0  0  0  0
    3.6026   65.7890   84.8466 C   0  0  0  0  0  0  0  0  0  0  0  0
   -1.0988   62.9905   84.0029 C   0  0  0  0  0  0  0  0  0  0  0  0
   -0.0879   61.9363   84.4274 C   0  0  0  0  0  0  0  0  0  0  0  0
    1.6986   66.6747   80.1121 C   0  0  0  0  0  0  0  0  0  0  0  0
    1.4574   68.1481   80.3391 C   0  0  0  0  0  0  0  0  0  0  0  0
    0.1559   68.6654   80.4349 C   0  0  0  0  0  0  0  0  0  0  0  0
   -0.0651   70.0331   80.6481 C   0  0  0  0  0  0  0  0  0  0  0  0
    1.0130   70.9099   80.7737 C   0  0  0  0  0  0  0  0  0  0  0  0
    2.3075   70.3913   80.6827 C   0  0  0  0  0  0  0  0  0  0  0  0
    3.3684   71.2047   80.8014 F   0  0  0  0  0  0  0  0  0  0  0  0
    2.5349   69.0324   80.4688 C   0  0  0  0  0  0  0  0  0  0  0  0
    0.9239   72.2587   80.9850 O   0  0  0  0  0  0  0  0  0  0  0  0
   -0.3401   72.8689   80.7618 C   0  0  0  0  0  0  0  0  0  0  0  0
 12 13  1  0  0  0
 13  1  1  0  0  0
  1  2  1  0  0  0
  2  3  2  0  0  0
  2  4  1  0  0  0
  4  5  2  0  0  0
  5  6  1  0  0  0
  6  7  2  0  0  0
  7 14  1  0  0  0
 14 16  1  0  0  0
 16 17  1  0  0  0
 17 18  1  0  0  0
 18 19  1  0  0  0
 19 20  1  0  0  0
  7  8  1  0  0  0
  8 23  1  0  0  0
 23 24  1  0  0  0
 24 25  1  0  0  0
 25 26  2  0  0  0
 26 27  1  0  0  0
 27 31  1  0  0  0
 31 32  1  0  0  0
 27 28  2  0  0  0
 28 29  1  0  0  0
 28 30  1  0  0  0
  5  9  1  0  0  0
  9 21  1  0  0  0
 21 22  1  0  0  0
  9 10  1  0  0  0
 10 11  2  0  0  0
 10  1  1  0  0  0
  8  4  1  0  0  0
 30 24  2  0  0  0
 20 16  1  0  0  0
 14 15  1  0  0  0
M  END
> <minimizedAffinity>
-1.21649

$$$$



 32 35  0  0  0  0  0  0  0  0999 V2000
    7.3077   75.1013   80.2071 N   0  0  0  0  0  0  0  0  0  0  0  0
    5.9145   75.0267   80.0930 C   0  0  0  0  0  0  0  0  0  0  0  0
    5.3301   74.7051   79.0623 O   0  0  0  0  0  0  0  0  0  0  0  0
    5.2365   75.3961   81.2866 C   0  0  0  0  0  0  0  0  0  0  0  0
    5.8855   75.8339   82.3984 C   0  0  0  0  0  0  0  0  0  0  0  0
    5.0228   76.1586   83.3949 N   0  0  0  0  0  0  0  0  0  0  0  0
    3.8224   75.9213   82.9080 C   0  0  0  0  0  0  0  0  0  0  0  0
    3.9059   75.4096   81.6242 N   0  0  0  0  0  0  0  0  0  0  0  0
    7.2555   75.9375   82.4499 N   0  0  0  0  0  0  0  0  0  0  0  0
    8.0081   75.5997   81.3234 C   0  0  0  0  0  0  0  0  0  0  0  0
    9.2347   75.7404   81.3024 O   0  0  0  0  0  0  0  0  0  0  0  0
    8.2857   75.9361   78.0994 C   0  0  0  0  0  0  0  0  0  0  0  0
    8.0911   74.7464   79.0293 C   0  0  0  0  0  0  0  0  0  0  0  0
    2.6406   76.1172   83.5370 N   0  0  0  0  0  0  0  0  0  0  0  0
    1.9428   75.3819   83.5437 H   0  0  0  0  0  0  0  0  0  0  0  0
    2.0721   77.4657   83.5408 C   0  0  0  0  0  0  0  0  0  0  0  0
    2.4844   78.1853   84.8310 C   0  0  0  0  0  0  0  0  0  0  0  0
    1.3352   77.9270   85.7929 C   0  0  0  0  0  0  0  0  0  0  0  0
    0.1141   78.0503   84.8993 C   0  0  0  0  0  0  0  0  0  0  0  0
    0.5350   77.4092   83.5793 C   0  0  0  0  0  0  0  0  0  0  0  0
    7.9211   76.4664   83.6349 C   0  0  0  0  0  0  0  0  0  0  0  0
    8.0394   77.9821   83.5897 C   0  0  0  0  0  0  0  0  0  0  0  0
    2.8088   74.9455   80.7908 C   0  0  0  0  0  0  0  0  0  0  0  0
    2.4236   73.5200   81.1074 C   0  0  0  0  0  0  0  0  0  0  0  0
    3.3986   72.5259   81.2850 C   0  0  0  0  0  0  0  0  0  0  0  0
    3.0383   71.2039   81.5812 C   0  0  0  0  0  0  0  0  0  0  0  0
    1.6943   70.8519   81.7095 C   0  0  0  0  0  0  0  0  0  0  0  0
    0.7261   71.8447   81.5369 C   0  0  0  0  0  0  0  0  0  0  0  0
   -0.5762   71.5429   81.6556 F   0  0  0  0  0  0  0  0  0  0  0  0
    1.0770   73.1611   81.2401 C   0  0  0  0  0  0  0  0  0  0  0  0
    1.2213   69.6007   81.9973 O   0  0  0  0  0  0  0  0  0  0  0  0
    1.3692   68.6041   80.9950 C   0  0  0  0  0  0  0  0  0  0  0  0
 12 13  1  0  0  0
 13  1  1  0  0  0
  1  2  1  0  0  0
  2  3  2  0  0  0
  2  4  1  0  0  0
  4  5  2  0  0  0
  5  6  1  0  0  0
  6  7  2  0  0  0
  7 14  1  0  0  0
 14 16  1  0  0  0
 16 17  1  0  0  0
 17 18  1  0  0  0
 18 19  1  0  0  0
 19 20  1  0  0  0
  7  8  1  0  0  0
  8 23  1  0  0  0
 23 24  1  0  0  0
 24 25  1  0  0  0
 25 26  2  0  0  0
 26 27  1  0  0  0
 27 31  1  0  0  0
 31 32  1  0  0  0
 27 28  2  0  0  0
 28 29  1  0  0  0
 28 30  1  0  0  0
  5  9  1  0  0  0
  9 21  1  0  0  0
 21 22  1  0  0  0
  9 10  1  0  0  0
 10 11  2  0  0  0
 10  1  1  0  0  0
  8  4  1  0  0  0
 30 24  2  0  0  0
 20 16  1  0  0  0
 14 15  1  0  0  0
M  END
> <minimizedAffinity>
-1.21234

$$$$



 32 35  0  0  0  0  0  0  0  0999 V2000
    0.0830   72.4574   81.2344 N   0  0  0  0  0  0  0  0  0  0  0  0
    0.5884   73.7576   81.1170 C   0  0  0  0  0  0  0  0  0  0  0  0
   -0.1156   74.7536   80.9770 O   0  0  0  0  0  0  0  0  0  0  0  0
    2.0088   73.8082   81.1411 C   0  0  0  0  0  0  0  0  0  0  0  0
    2.7857   72.6943   81.2098 C   0  0  0  0  0  0  0  0  0  0  0  0
    4.1089   72.9960   81.1840 N   0  0  0  0  0  0  0  0  0  0  0  0
    4.1656   74.3091   81.1009 C   0  0  0  0  0  0  0  0  0  0  0  0
    2.8941   74.8570   81.1138 N   0  0  0  0  0  0  0  0  0  0  0  0
    2.2458   71.4315   81.2752 N   0  0  0  0  0  0  0  0  0  0  0  0
    0.8579   71.2808   81.2541 C   0  0  0  0  0  0  0  0  0  0  0  0
    0.3315   70.1640   81.2437 O   0  0  0  0  0  0  0  0  0  0  0  0
   -1.9174   72.3161   79.7941 C   0  0  0  0  0  0  0  0  0  0  0  0
   -1.3671   72.3034   81.2136 C   0  0  0  0  0  0  0  0  0  0  0  0
    5.2834   75.0679   81.0268 N   0  0  0  0  0  0  0  0  0  0  0  0
    5.2075   76.0776   80.9801 H   0  0  0  0  0  0  0  0  0  0  0  0
    6.4387   74.5323   80.3056 C   0  0  0  0  0  0  0  0  0  0  0  0
    7.6865   75.3444   80.6742 C   0  0  0  0  0  0  0  0  0  0  0  0
    7.7757   76.4128   79.5957 C   0  0  0  0  0  0  0  0  0  0  0  0
    7.3827   75.6566   78.3393 C   0  0  0  0  0  0  0  0  0  0  0  0
    6.2669   74.7161   78.7877 C   0  0  0  0  0  0  0  0  0  0  0  0
    3.1033   70.2519   81.2881 C   0  0  0  0  0  0  0  0  0  0  0  0
    3.3475   69.7440   82.7009 C   0  0  0  0  0  0  0  0  0  0  0  0
    2.5463   76.2686   81.1245 C   0  0  0  0  0  0  0  0  0  0  0  0
    2.3769   76.7973   82.5289 C   0  0  0  0  0  0  0  0  0  0  0  0
    3.4746   76.9266   83.3943 C   0  0  0  0  0  0  0  0  0  0  0  0
    3.3148   77.4200   84.6967 C   0  0  0  0  0  0  0  0  0  0  0  0
    2.0531   77.7977   85.1572 C   0  0  0  0  0  0  0  0  0  0  0  0
    0.9630   77.6723   84.2918 C   0  0  0  0  0  0  0  0  0  0  0  0
   -0.2649   78.0285   84.6999 F   0  0  0  0  0  0  0  0  0  0  0  0
    1.1140   77.1805   82.9959 C   0  0  0  0  0  0  0  0  0  0  0  0
    1.7733   78.2928   86.4016 O   0  0  0  0  0  0  0  0  0  0  0  0
    2.8766   78.6787   87.2100 C   0  0  0  0  0  0  0  0  0  0  0  0
 12 13  1  0  0  0
 13  1  1  0  0  0
  1  2  1  0  0  0
  2  3  2  0  0  0
  2  4  1  0  0  0
  4  5  2  0  0  0
  5  6  1  0  0  0
  6  7  2  0  0  0
  7 14  1  0  0  0
 14 16  1  0  0  0
 16 17  1  0  0  0
 17 18  1  0  0  0
 18 19  1  0  0  0
 19 20  1  0  0  0
  7  8  1  0  0  0
  8 23  1  0  0  0
 23 24  1  0  0  0
 24 25  1  0  0  0
 25 26  2  0  0  0
 26 27  1  0  0  0
 27 31  1  0  0  0
 31 32  1  0  0  0
 27 28  2  0  0  0
 28 29  1  0  0  0
 28 30  1  0  0  0
  5  9  1  0  0  0
  9 21  1  0  0  0
 21 22  1  0  0  0
  9 10  1  0  0  0
 10 11  2  0  0  0
 10  1  1  0  0  0
  8  4  1  0  0  0
 30 24  2  0  0  0
 20 16  1  0  0  0
 14 15  1  0  0  0
M  END
> <minimizedAffinity>
-1.20368

$$$$



 32 35  0  0  0  0  0  0  0  0999 V2000
   -0.4265   77.3125   83.2517 N   0  0  0  0  0  0  0  0  0  0  0  0
    0.2063   76.4102   82.3886 C   0  0  0  0  0  0  0  0  0  0  0  0
   -0.3855   75.7434   81.5445 O   0  0  0  0  0  0  0  0  0  0  0  0
    1.6072   76.3150   82.6104 C   0  0  0  0  0  0  0  0  0  0  0  0
    2.2446   76.9911   83.6033 C   0  0  0  0  0  0  0  0  0  0  0  0
    3.5725   76.7114   83.6364 N   0  0  0  0  0  0  0  0  0  0  0  0
    3.7731   75.8552   82.6561 C   0  0  0  0  0  0  0  0  0  0  0  0
    2.5963   75.6126   81.9680 N   0  0  0  0  0  0  0  0  0  0  0  0
    1.5741   77.8315   84.4603 N   0  0  0  0  0  0  0  0  0  0  0  0
    0.1935   77.9871   84.3222 C   0  0  0  0  0  0  0  0  0  0  0  0
   -0.4587   78.6788   85.1101 O   0  0  0  0  0  0  0  0  0  0  0  0
   -2.2166   78.6443   82.1945 C   0  0  0  0  0  0  0  0  0  0  0  0
   -1.8684   77.4740   83.1040 C   0  0  0  0  0  0  0  0  0  0  0  0
    4.9471   75.2754   82.3154 N   0  0  0  0  0  0  0  0  0  0  0  0
    5.3086   74.5036   82.8643 H   0  0  0  0  0  0  0  0  0  0  0  0
    5.9905   76.1158   81.7263 C   0  0  0  0  0  0  0  0  0  0  0  0
    6.6587   75.3585   80.5719 C   0  0  0  0  0  0  0  0  0  0  0  0
    7.8611   74.6800   81.2095 C   0  0  0  0  0  0  0  0  0  0  0  0
    8.3738   75.7373   82.1707 C   0  0  0  0  0  0  0  0  0  0  0  0
    7.1141   76.3827   82.7428 C   0  0  0  0  0  0  0  0  0  0  0  0
    2.2733   78.4976   85.5531 C   0  0  0  0  0  0  0  0  0  0  0  0
    2.2720   77.6588   86.8219 C   0  0  0  0  0  0  0  0  0  0  0  0
    2.4280   74.7963   80.7768 C   0  0  0  0  0  0  0  0  0  0  0  0
    2.3208   73.3272   81.1100 C   0  0  0  0  0  0  0  0  0  0  0  0
    1.1316   72.7823   81.6195 C   0  0  0  0  0  0  0  0  0  0  0  0
    1.0341   71.4178   81.9257 C   0  0  0  0  0  0  0  0  0  0  0  0
    2.1243   70.5708   81.7240 C   0  0  0  0  0  0  0  0  0  0  0  0
    3.3052   71.1152   81.2121 C   0  0  0  0  0  0  0  0  0  0  0  0
    4.3731   70.3297   81.0027 F   0  0  0  0  0  0  0  0  0  0  0  0
    3.4101   72.4717   80.9072 C   0  0  0  0  0  0  0  0  0  0  0  0
    2.1491   69.2274   81.9819 O   0  0  0  0  0  0  0  0  0  0  0  0
    1.5576   68.3694   81.0157 C   0  0  0  0  0  0  0  0  0  0  0  0
 12 13  1  0  0  0
 13  1  1  0  0  0
  1  2  1  0  0  0
  2  3  2  0  0  0
  2  4  1  0  0  0
  4  5  2  0  0  0
  5  6  1  0  0  0
  6  7  2  0  0  0
  7 14  1  0  0  0
 14 16  1  0  0  0
 16 17  1  0  0  0
 17 18  1  0  0  0
 18 19  1  0  0  0
 19 20  1  0  0  0
  7  8  1  0  0  0
  8 23  1  0  0  0
 23 24  1  0  0  0
 24 25  1  0  0  0
 25 26  2  0  0  0
 26 27  1  0  0  0
 27 31  1  0  0  0
 31 32  1  0  0  0
 27 28  2  0  0  0
 28 29  1  0  0  0
 28 30  1  0  0  0
  5  9  1  0  0  0
  9 21  1  0  0  0
 21 22  1  0  0  0
  9 10  1  0  0  0
 10 11  2  0  0  0
 10  1  1  0  0  0
  8  4  1  0  0  0
 30 24  2  0  0  0
 20 16  1  0  0  0
 14 15  1  0  0  0
M  END
> <minimizedAffinity>
-1.17293

$$$$



 32 35  0  0  0  0  0  0  0  0999 V2000
    1.8548   70.3717   80.9136 N   0  0  0  0  0  0  0  0  0  0  0  0
    2.8976   71.2660   81.1827 C   0  0  0  0  0  0  0  0  0  0  0  0
    4.0693   70.9266   81.3222 O   0  0  0  0  0  0  0  0  0  0  0  0
    2.4586   72.6117   81.3142 C   0  0  0  0  0  0  0  0  0  0  0  0
    1.1488   72.9705   81.2442 C   0  0  0  0  0  0  0  0  0  0  0  0
    0.9770   74.3036   81.4339 N   0  0  0  0  0  0  0  0  0  0  0  0
    2.1871   74.7879   81.6223 C   0  0  0  0  0  0  0  0  0  0  0  0
    3.1382   73.7873   81.5155 N   0  0  0  0  0  0  0  0  0  0  0  0
    0.1511   72.0501   81.0259 N   0  0  0  0  0  0  0  0  0  0  0  0
    0.4852   70.7015   80.8872 C   0  0  0  0  0  0  0  0  0  0  0  0
   -0.3827   69.8331   80.7565 O   0  0  0  0  0  0  0  0  0  0  0  0
    2.2230   68.2428   82.1084 C   0  0  0  0  0  0  0  0  0  0  0  0
    2.2072   68.9641   80.7677 C   0  0  0  0  0  0  0  0  0  0  0  0
    2.5131   76.0769   81.8727 N   0  0  0  0  0  0  0  0  0  0  0  0
    3.4269   76.4281   81.6097 H   0  0  0  0  0  0  0  0  0  0  0  0
    1.9635   76.7110   83.0717 C   0  0  0  0  0  0  0  0  0  0  0  0
    1.9769   78.2339   82.8903 C   0  0  0  0  0  0  0  0  0  0  0  0
    3.2903   78.6785   83.5147 C   0  0  0  0  0  0  0  0  0  0  0  0
    3.3945   77.7947   84.7446 C   0  0  0  0  0  0  0  0  0  0  0  0
    2.8598   76.4383   84.2921 C   0  0  0  0  0  0  0  0  0  0  0  0
   -1.2499   72.4550   81.0148 C   0  0  0  0  0  0  0  0  0  0  0  0
   -1.6789   72.9752   79.6514 C   0  0  0  0  0  0  0  0  0  0  0  0
    4.5828   73.9390   81.5752 C   0  0  0  0  0  0  0  0  0  0  0  0
    5.1717   74.2693   80.2243 C   0  0  0  0  0  0  0  0  0  0  0  0
    5.2445   75.5946   79.7674 C   0  0  0  0  0  0  0  0  0  0  0  0
    5.7938   75.8986   78.5140 C   0  0  0  0  0  0  0  0  0  0  0  0
    6.2851   74.8816   77.6947 C   0  0  0  0  0  0  0  0  0  0  0  0
    6.2157   73.5638   78.1543 C   0  0  0  0  0  0  0  0  0  0  0  0
    6.6810   72.5603   77.3941 F   0  0  0  0  0  0  0  0  0  0  0  0
    5.6688   73.2537   79.3988 C   0  0  0  0  0  0  0  0  0  0  0  0
    6.8436   75.0536   76.4576 O   0  0  0  0  0  0  0  0  0  0  0  0
    8.2162   75.4191   76.4099 C   0  0  0  0  0  0  0  0  0  0  0  0
 12 13  1  0  0  0
 13  1  1  0  0  0
  1  2  1  0  0  0
  2  3  2  0  0  0
  2  4  1  0  0  0
  4  5  2  0  0  0
  5  6  1  0  0  0
  6  7  2  0  0  0
  7 14  1  0  0  0
 14 16  1  0  0  0
 16 17  1  0  0  0
 17 18  1  0  0  0
 18 19  1  0  0  0
 19 20  1  0  0  0
  7  8  1  0  0  0
  8 23  1  0  0  0
 23 24  1  0  0  0
 24 25  1  0  0  0
 25 26  2  0  0  0
 26 27  1  0  0  0
 27 31  1  0  0  0
 31 32  1  0  0  0
 27 28  2  0  0  0
 28 29  1  0  0  0
 28 30  1  0  0  0
  5  9  1  0  0  0
  9 21  1  0  0  0
 21 22  1  0  0  0
  9 10  1  0  0  0
 10 11  2  0  0  0
 10  1  1  0  0  0
  8  4  1  0  0  0
 30 24  2  0  0  0
 20 16  1  0  0  0
 14 15  1  0  0  0
M  END
> <minimizedAffinity>
-1.15430

$$$$



 32 35  0  0  0  0  0  0  0  0999 V2000
    3.1872   77.0965   84.0928 N   0  0  0  0  0  0  0  0  0  0  0  0
    2.7423   76.2822   83.0447 C   0  0  0  0  0  0  0  0  0  0  0  0
    1.6033   75.8306   82.9671 O   0  0  0  0  0  0  0  0  0  0  0  0
    3.7563   75.9987   82.0895 C   0  0  0  0  0  0  0  0  0  0  0  0
    5.0387   76.4304   82.2248 C   0  0  0  0  0  0  0  0  0  0  0  0
    5.8276   76.0047   81.2054 N   0  0  0  0  0  0  0  0  0  0  0  0
    5.0361   75.3022   80.4217 C   0  0  0  0  0  0  0  0  0  0  0  0
    3.7384   75.3055   80.9048 N   0  0  0  0  0  0  0  0  0  0  0  0
    5.4435   77.1891   83.2975 N   0  0  0  0  0  0  0  0  0  0  0  0
    4.5178   77.5159   84.2902 C   0  0  0  0  0  0  0  0  0  0  0  0
    4.8522   78.1380   85.3030 O   0  0  0  0  0  0  0  0  0  0  0  0
    1.4145   78.6787   84.7636 C   0  0  0  0  0  0  0  0  0  0  0  0
    2.2175   77.4374   85.1274 C   0  0  0  0  0  0  0  0  0  0  0  0
    5.3863   74.6599   79.2836 N   0  0  0  0  0  0  0  0  0  0  0  0
    4.9342   73.7873   79.0352 H   0  0  0  0  0  0  0  0  0  0  0  0
    6.7775   74.7476   78.8377 C   0  0  0  0  0  0  0  0  0  0  0  0
    6.8967   75.8342   77.7619 C   0  0  0  0  0  0  0  0  0  0  0  0
    6.7447   75.0845   76.4475 C   0  0  0  0  0  0  0  0  0  0  0  0
    7.5218   73.8047   76.6981 C   0  0  0  0  0  0  0  0  0  0  0  0
    7.2124   73.4426   78.1486 C   0  0  0  0  0  0  0  0  0  0  0  0
    6.8383   77.5879   83.4469 C   0  0  0  0  0  0  0  0  0  0  0  0
    7.6799   76.4846   84.0698 C   0  0  0  0  0  0  0  0  0  0  0  0
    2.5664   74.7170   80.2774 C   0  0  0  0  0  0  0  0  0  0  0  0
    2.2860   73.3272   80.7975 C   0  0  0  0  0  0  0  0  0  0  0  0
    0.9859   72.9309   81.1485 C   0  0  0  0  0  0  0  0  0  0  0  0
    0.7281   71.6394   81.6287 C   0  0  0  0  0  0  0  0  0  0  0  0
    1.7666   70.7174   81.7632 C   0  0  0  0  0  0  0  0  0  0  0  0
    3.0590   71.1132   81.4084 C   0  0  0  0  0  0  0  0  0  0  0  0
    4.0819   70.2518   81.5222 F   0  0  0  0  0  0  0  0  0  0  0  0
    3.3232   72.3966   80.9320 C   0  0  0  0  0  0  0  0  0  0  0  0
    1.6391   69.4328   82.2165 O   0  0  0  0  0  0  0  0  0  0  0  0
    1.2488   68.4461   81.2710 C   0  0  0  0  0  0  0  0  0  0  0  0
 12 13  1  0  0  0
 13  1  1  0  0  0
  1  2  1  0  0  0
  2  3  2  0  0  0
  2  4  1  0  0  0
  4  5  2  0  0  0
  5  6  1  0  0  0
  6  7  2  0  0  0
  7 14  1  0  0  0
 14 16  1  0  0  0
 16 17  1  0  0  0
 17 18  1  0  0  0
 18 19  1  0  0  0
 19 20  1  0  0  0
  7  8  1  0  0  0
  8 23  1  0  0  0
 23 24  1  0  0  0
 24 25  1  0  0  0
 25 26  2  0  0  0
 26 27  1  0  0  0
 27 31  1  0  0  0
 31 32  1  0  0  0
 27 28  2  0  0  0
 28 29  1  0  0  0
 28 30  1  0  0  0
  5  9  1  0  0  0
  9 21  1  0  0  0
 21 22  1  0  0  0
  9 10  1  0  0  0
 10 11  2  0  0  0
 10  1  1  0  0  0
  8  4  1  0  0  0
 30 24  2  0  0  0
 20 16  1  0  0  0
 14 15  1  0  0  0
M  END
> <minimizedAffinity>
-1.14751

$$$$



 32 35  0  0  0  0  0  0  0  0999 V2000
    6.4901   76.1805   81.2018 N   0  0  0  0  0  0  0  0  0  0  0  0
    5.4055   75.7904   81.9963 C   0  0  0  0  0  0  0  0  0  0  0  0
    5.0242   76.4121   82.9840 O   0  0  0  0  0  0  0  0  0  0  0  0
    4.8059   74.5760   81.5644 C   0  0  0  0  0  0  0  0  0  0  0  0
    5.2854   73.8465   80.5218 C   0  0  0  0  0  0  0  0  0  0  0  0
    4.5668   72.7121   80.3232 N   0  0  0  0  0  0  0  0  0  0  0  0
    3.6270   72.7286   81.2456 C   0  0  0  0  0  0  0  0  0  0  0  0
    3.7089   73.8808   82.0091 N   0  0  0  0  0  0  0  0  0  0  0  0
    6.3849   74.2438   79.7982 N   0  0  0  0  0  0  0  0  0  0  0  0
    7.0436   75.4234   80.1504 C   0  0  0  0  0  0  0  0  0  0  0  0
    8.0730   75.7836   79.5715 O   0  0  0  0  0  0  0  0  0  0  0  0
    6.6062   78.6194   80.8358 C   0  0  0  0  0  0  0  0  0  0  0  0
    7.1751   77.4139   81.5713 C   0  0  0  0  0  0  0  0  0  0  0  0
    2.6792   71.7855   81.4524 N   0  0  0  0  0  0  0  0  0  0  0  0
    2.0025   71.9029   82.1980 H   0  0  0  0  0  0  0  0  0  0  0  0
    3.0215   70.3878   81.1854 C   0  0  0  0  0  0  0  0  0  0  0  0
    1.8309   69.6949   80.5112 C   0  0  0  0  0  0  0  0  0  0  0  0
    1.0585   69.0654   81.6600 C   0  0  0  0  0  0  0  0  0  0  0  0
    2.1625   68.5496   82.5653 C   0  0  0  0  0  0  0  0  0  0  0  0
    3.2478   69.6213   82.5001 C   0  0  0  0  0  0  0  0  0  0  0  0
    6.9125   73.4116   78.7231 C   0  0  0  0  0  0  0  0  0  0  0  0
    6.3256   73.7913   77.3722 C   0  0  0  0  0  0  0  0  0  0  0  0
    2.8007   74.3020   83.0633 C   0  0  0  0  0  0  0  0  0  0  0  0
    1.7352   75.2404   82.5487 C   0  0  0  0  0  0  0  0  0  0  0  0
    0.9252   74.8916   81.4565 C   0  0  0  0  0  0  0  0  0  0  0  0
   -0.0647   75.7636   80.9824 C   0  0  0  0  0  0  0  0  0  0  0  0
   -0.2661   77.0008   81.5952 C   0  0  0  0  0  0  0  0  0  0  0  0
    0.5385   77.3433   82.6852 C   0  0  0  0  0  0  0  0  0  0  0  0
    0.3711   78.5240   83.3009 F   0  0  0  0  0  0  0  0  0  0  0  0
    1.5264   76.4819   83.1609 C   0  0  0  0  0  0  0  0  0  0  0  0
   -1.1982   77.9317   81.2257 O   0  0  0  0  0  0  0  0  0  0  0  0
   -1.7628   77.8057   79.9276 C   0  0  0  0  0  0  0  0  0  0  0  0
 12 13  1  0  0  0
 13  1  1  0  0  0
  1  2  1  0  0  0
  2  3  2  0  0  0
  2  4  1  0  0  0
  4  5  2  0  0  0
  5  6  1  0  0  0
  6  7  2  0  0  0
  7 14  1  0  0  0
 14 16  1  0  0  0
 16 17  1  0  0  0
 17 18  1  0  0  0
 18 19  1  0  0  0
 19 20  1  0  0  0
  7  8  1  0  0  0
  8 23  1  0  0  0
 23 24  1  0  0  0
 24 25  1  0  0  0
 25 26  2  0  0  0
 26 27  1  0  0  0
 27 31  1  0  0  0
 31 32  1  0  0  0
 27 28  2  0  0  0
 28 29  1  0  0  0
 28 30  1  0  0  0
  5  9  1  0  0  0
  9 21  1  0  0  0
 21 22  1  0  0  0
  9 10  1  0  0  0
 10 11  2  0  0  0
 10  1  1  0  0  0
  8  4  1  0  0  0
 30 24  2  0  0  0
 20 16  1  0  0  0
 14 15  1  0  0  0
M  END
> <minimizedAffinity>
-1.11628

$$$$
