


 45 48  0  0  0  0  0  0  0  0999 V2000
    3.0920   67.1040   83.7958 C   0  0  0  0  0  0  0  0  0  0  0  0
    3.8174   68.3018   83.7404 C   0  0  0  0  0  0  0  0  0  0  0  0
    3.4650   69.3073   82.8346 C   0  0  0  0  0  0  0  0  0  0  0  0
    2.3679   69.1264   81.9931 C   0  0  0  0  0  0  0  0  0  0  0  0
    1.5952   67.9703   82.0857 C   0  0  0  0  0  0  0  0  0  0  0  0
    1.9639   66.9422   82.9672 C   0  0  0  0  0  0  0  0  0  0  0  0
    1.1444   65.6914   82.9123 C   0  0  0  0  0  0  0  0  0  0  0  0
    0.9619   65.1051   81.7626 N   0  0  0  0  0  0  0  0  0  0  0  0
    0.1807   63.9513   81.8207 C   0  0  0  0  0  0  0  0  0  0  0  0
   -0.1648   63.1170   80.7395 C   0  0  0  0  0  0  0  0  0  0  0  0
   -0.9388   62.0798   81.2809 C   0  0  0  0  0  0  0  0  0  0  0  0
   -1.0723   62.3422   82.6439 N   0  0  0  0  0  0  0  0  0  0  0  0
   -1.8562   61.5689   83.5857 C   0  0  0  0  0  0  0  0  0  0  0  0
   -0.3515   63.4603   82.9761 C   0  0  0  0  0  0  0  0  0  0  0  0
   -0.1232   64.0885   84.2385 C   0  0  0  0  0  0  0  0  0  0  0  0
   -0.5073   63.6774   85.3280 O   0  0  0  0  0  0  0  0  0  0  0  0
    0.6215   65.2362   84.1117 N   0  0  0  0  0  0  0  0  0  0  0  0
    0.8559   65.7104   84.9740 H   0  0  0  0  0  0  0  0  0  0  0  0
   -1.5153   60.9277   80.6160 C   0  0  0  0  0  0  0  0  0  0  0  0
   -2.6866   60.9648   80.0638 N   0  0  0  0  0  0  0  0  0  0  0  0
   -2.9740   59.7133   79.5032 O   0  0  0  0  0  0  0  0  0  0  0  0
   -3.8670   59.8528   79.1351 H   0  0  0  0  0  0  0  0  0  0  0  0
    0.2637   63.3206   79.3167 C   0  0  0  0  0  0  0  0  0  0  0  0
   -0.5028   64.4304   78.5928 C   0  0  0  0  0  0  0  0  0  0  0  0
   -0.8920   64.0611   77.1676 C   0  0  0  0  0  0  0  0  0  0  0  0
    1.9033   70.3963   80.8347 S   0  0  0  0  0  0  0  0  0  0  0  0
    2.9137   70.4201   79.7996 O   0  0  0  0  0  0  0  0  0  0  0  0
    0.5062   70.1909   80.5124 O   0  0  0  0  0  0  0  0  0  0  0  0
    2.0168   71.8200   81.7371 N   0  0  0  0  0  0  0  0  0  0  0  0
    0.7805   72.5890   82.0332 C   0  0  0  0  0  0  0  0  0  0  0  0
    0.7430   73.9683   81.3397 C   0  0  0  0  0  0  0  0  0  0  0  0
    1.9856   74.7453   81.4195 N   0  0  0  0  0  0  0  0  0  0  0  0
    3.0774   74.0624   82.1115 C   0  0  0  0  0  0  0  0  0  0  0  0
    3.2520   72.6305   81.5735 C   0  0  0  0  0  0  0  0  0  0  0  0
    1.8424   76.1728   81.6736 C   0  0  0  0  0  0  0  0  0  0  0  0
    1.3184   76.6101   83.0460 C   0  0  0  0  0  0  0  0  0  0  0  0
    1.8938   77.9277   83.5510 C   0  0  0  0  0  0  0  0  0  0  0  0
    1.2396   78.2481   84.7776 O   0  0  0  0  0  0  0  0  0  0  0  0
    2.1326   78.2761   85.8764 N   0  0  0  0  0  0  0  0  0  0  0  0
    3.3121   78.2458   85.5318 O   0  0  0  0  0  0  0  0  0  0  0  0
    1.6379   78.3246   87.0038 O   0  0  0  0  0  0  0  0  0  0  0  0
    3.4054   66.0851   84.6580 O   0  0  0  0  0  0  0  0  0  0  0  0
    4.6682   66.1398   85.3315 C   0  0  0  0  0  0  0  0  0  0  0  0
    5.7682   65.6184   87.5588 C   0  0  0  0  0  0  0  0  0  0  0  0
    4.7507   65.1764   86.5167 C   0  0  0  0  0  0  0  0  0  0  0  0
 44 45  1  0  0  0
 45 43  1  0  0  0
 43 42  1  0  0  0
 42  1  1  0  0  0
  1  2  1  0  0  0
  2  3  2  0  0  0
  3  4  1  0  0  0
  4 26  1  0  0  0
 26 27  2  0  0  0
 26 28  2  0  0  0
 26 29  1  0  0  0
 29 30  1  0  0  0
 30 31  1  0  0  0
 31 32  1  0  0  0
 32 35  1  0  0  0
 35 36  1  0  0  0
 36 37  1  0  0  0
 37 38  1  0  0  0
 38 39  1  0  0  0
 39 40  2  0  0  0
 39 41  1  0  0  0
 32 33  1  0  0  0
 33 34  1  0  0  0
  4  5  2  0  0  0
  5  6  1  0  0  0
  6  7  1  0  0  0
  7  8  2  0  0  0
  8  9  1  0  0  0
  9 10  1  0  0  0
 10 23  1  0  0  0
 23 24  1  0  0  0
 24 25  1  0  0  0
 10 11  2  0  0  0
 11 19  1  0  0  0
 19 20  2  0  0  0
 20 21  1  0  0  0
 11 12  1  0  0  0
 12 13  1  0  0  0
 12 14  1  0  0  0
 14 15  1  0  0  0
 15 16  2  0  0  0
 15 17  1  0  0  0
  6  1  2  0  0  0
 17  7  1  0  0  0
 34 29  1  0  0  0
 14  9  2  0  0  0
 21 22  1  0  0  0
 17 18  1  0  0  0
M  CHG 1  39   1
M  CHG 1  41  -1
M  END
> <minimizedAffinity>
-1.99603

$$$$



 45 48  0  0  0  0  0  0  0  0999 V2000
    2.9346   66.9528   83.7979 C   0  0  0  0  0  0  0  0  0  0  0  0
    3.6724   68.1442   83.7833 C   0  0  0  0  0  0  0  0  0  0  0  0
    3.3649   69.1620   82.8749 C   0  0  0  0  0  0  0  0  0  0  0  0
    2.3001   68.9999   81.9892 C   0  0  0  0  0  0  0  0  0  0  0  0
    1.5140   67.8503   82.0395 C   0  0  0  0  0  0  0  0  0  0  0  0
    1.8386   66.8100   82.9240 C   0  0  0  0  0  0  0  0  0  0  0  0
    1.0105   65.5675   82.8241 C   0  0  0  0  0  0  0  0  0  0  0  0
    0.8582   65.0013   81.6601 N   0  0  0  0  0  0  0  0  0  0  0  0
    0.0659   63.8537   81.6758 C   0  0  0  0  0  0  0  0  0  0  0  0
   -0.2535   63.0397   80.5713 C   0  0  0  0  0  0  0  0  0  0  0  0
   -1.0523   62.0011   81.0722 C   0  0  0  0  0  0  0  0  0  0  0  0
   -1.2252   62.2430   82.4346 N   0  0  0  0  0  0  0  0  0  0  0  0
   -2.0439   61.4618   83.3394 C   0  0  0  0  0  0  0  0  0  0  0  0
   -0.5054   63.3492   82.8064 C   0  0  0  0  0  0  0  0  0  0  0  0
   -0.3104   63.9552   84.0851 C   0  0  0  0  0  0  0  0  0  0  0  0
   -0.7311   63.5303   85.1557 O   0  0  0  0  0  0  0  0  0  0  0  0
    0.4475   65.0981   83.9996 N   0  0  0  0  0  0  0  0  0  0  0  0
    0.6594   65.5564   84.8761 H   0  0  0  0  0  0  0  0  0  0  0  0
   -1.6180   60.8649   80.3715 C   0  0  0  0  0  0  0  0  0  0  0  0
   -2.4223   61.0056   79.3658 N   0  0  0  0  0  0  0  0  0  0  0  0
   -2.8019   59.7413   78.8960 O   0  0  0  0  0  0  0  0  0  0  0  0
   -3.4050   59.9668   78.1626 H   0  0  0  0  0  0  0  0  0  0  0  0
    0.2199   63.2621   79.1657 C   0  0  0  0  0  0  0  0  0  0  0  0
   -0.5435   64.3613   78.4226 C   0  0  0  0  0  0  0  0  0  0  0  0
   -1.0293   63.9299   77.0452 C   0  0  0  0  0  0  0  0  0  0  0  0
    1.8929   70.2856   80.8267 S   0  0  0  0  0  0  0  0  0  0  0  0
    2.9622   70.3355   79.8537 O   0  0  0  0  0  0  0  0  0  0  0  0
    0.5192   70.0744   80.4191 O   0  0  0  0  0  0  0  0  0  0  0  0
    1.9399   71.6945   81.7578 N   0  0  0  0  0  0  0  0  0  0  0  0
    0.6694   72.4000   82.0666 C   0  0  0  0  0  0  0  0  0  0  0  0
    0.5696   73.7899   81.4010 C   0  0  0  0  0  0  0  0  0  0  0  0
    1.7752   74.6212   81.4992 N   0  0  0  0  0  0  0  0  0  0  0  0
    2.8962   73.9751   82.1797 C   0  0  0  0  0  0  0  0  0  0  0  0
    3.1369   72.5638   81.6134 C   0  0  0  0  0  0  0  0  0  0  0  0
    1.5664   76.0351   81.7816 C   0  0  0  0  0  0  0  0  0  0  0  0
    0.1616   76.6110   81.5710 C   0  0  0  0  0  0  0  0  0  0  0  0
   -0.0731   77.2147   80.1917 C   0  0  0  0  0  0  0  0  0  0  0  0
   -1.4493   77.0316   79.8636 O   0  0  0  0  0  0  0  0  0  0  0  0
   -1.6573   76.8693   78.4722 N   0  0  0  0  0  0  0  0  0  0  0  0
   -2.4706   75.9850   78.2126 O   0  0  0  0  0  0  0  0  0  0  0  0
   -1.0207   77.6062   77.7173 O   0  0  0  0  0  0  0  0  0  0  0  0
    3.2046   65.9224   84.6611 O   0  0  0  0  0  0  0  0  0  0  0  0
    4.5762   65.6399   84.9613 C   0  0  0  0  0  0  0  0  0  0  0  0
    6.3404   65.8092   86.7785 C   0  0  0  0  0  0  0  0  0  0  0  0
    4.8631   65.6214   86.4636 C   0  0  0  0  0  0  0  0  0  0  0  0
 44 45  1  0  0  0
 45 43  1  0  0  0
 43 42  1  0  0  0
 42  1  1  0  0  0
  1  2  1  0  0  0
  2  3  2  0  0  0
  3  4  1  0  0  0
  4 26  1  0  0  0
 26 27  2  0  0  0
 26 28  2  0  0  0
 26 29  1  0  0  0
 29 30  1  0  0  0
 30 31  1  0  0  0
 31 32  1  0  0  0
 32 35  1  0  0  0
 35 36  1  0  0  0
 36 37  1  0  0  0
 37 38  1  0  0  0
 38 39  1  0  0  0
 39 40  2  0  0  0
 39 41  1  0  0  0
 32 33  1  0  0  0
 33 34  1  0  0  0
  4  5  2  0  0  0
  5  6  1  0  0  0
  6  7  1  0  0  0
  7  8  2  0  0  0
  8  9  1  0  0  0
  9 10  1  0  0  0
 10 23  1  0  0  0
 23 24  1  0  0  0
 24 25  1  0  0  0
 10 11  2  0  0  0
 11 19  1  0  0  0
 19 20  2  0  0  0
 20 21  1  0  0  0
 11 12  1  0  0  0
 12 13  1  0  0  0
 12 14  1  0  0  0
 14 15  1  0  0  0
 15 16  2  0  0  0
 15 17  1  0  0  0
  6  1  2  0  0  0
 17  7  1  0  0  0
 34 29  1  0  0  0
 14  9  2  0  0  0
 21 22  1  0  0  0
 17 18  1  0  0  0
M  CHG 1  39   1
M  CHG 1  41  -1
M  END
> <minimizedAffinity>
-1.92862

$$$$



 45 48  0  0  0  0  0  0  0  0999 V2000
    3.1481   67.0235   83.8286 C   0  0  0  0  0  0  0  0  0  0  0  0
    3.8942   68.2095   83.8023 C   0  0  0  0  0  0  0  0  0  0  0  0
    3.5589   69.2431   82.9220 C   0  0  0  0  0  0  0  0  0  0  0  0
    2.4585   69.1023   82.0771 C   0  0  0  0  0  0  0  0  0  0  0  0
    1.6658   67.9578   82.1417 C   0  0  0  0  0  0  0  0  0  0  0  0
    2.0170   66.9020   82.9972 C   0  0  0  0  0  0  0  0  0  0  0  0
    1.1758   65.6673   82.9120 C   0  0  0  0  0  0  0  0  0  0  0  0
    0.9866   65.1103   81.7489 N   0  0  0  0  0  0  0  0  0  0  0  0
    0.1851   63.9693   81.7790 C   0  0  0  0  0  0  0  0  0  0  0  0
   -0.1717   63.1657   80.6784 C   0  0  0  0  0  0  0  0  0  0  0  0
   -0.9653   62.1304   81.1944 C   0  0  0  0  0  0  0  0  0  0  0  0
   -1.0984   62.3645   82.5626 N   0  0  0  0  0  0  0  0  0  0  0  0
   -1.8986   61.5841   83.4846 C   0  0  0  0  0  0  0  0  0  0  0  0
   -0.3591   63.4620   82.9217 C   0  0  0  0  0  0  0  0  0  0  0  0
   -0.1236   64.0576   84.1985 C   0  0  0  0  0  0  0  0  0  0  0  0
   -0.5182   63.6289   85.2774 O   0  0  0  0  0  0  0  0  0  0  0  0
    0.6415   65.1945   84.0996 N   0  0  0  0  0  0  0  0  0  0  0  0
    0.8815   65.6450   84.9729 H   0  0  0  0  0  0  0  0  0  0  0  0
   -1.5599   61.0039   80.5022 C   0  0  0  0  0  0  0  0  0  0  0  0
   -2.5989   61.1335   79.7394 N   0  0  0  0  0  0  0  0  0  0  0  0
   -2.9432   59.8830   79.2094 O   0  0  0  0  0  0  0  0  0  0  0  0
   -3.7303   60.0963   78.6732 H   0  0  0  0  0  0  0  0  0  0  0  0
    0.2646   63.3937   79.2618 C   0  0  0  0  0  0  0  0  0  0  0  0
   -0.5018   64.5119   78.5509 C   0  0  0  0  0  0  0  0  0  0  0  0
   -0.9851   64.1201   77.1609 C   0  0  0  0  0  0  0  0  0  0  0  0
    2.0155   70.4083   80.9509 S   0  0  0  0  0  0  0  0  0  0  0  0
    2.8685   70.2780   79.7897 O   0  0  0  0  0  0  0  0  0  0  0  0
    0.5726   70.3938   80.8252 O   0  0  0  0  0  0  0  0  0  0  0  0
    2.4430   71.8148   81.7835 N   0  0  0  0  0  0  0  0  0  0  0  0
    1.3755   72.6387   82.4071 C   0  0  0  0  0  0  0  0  0  0  0  0
    1.2161   74.0259   81.7475 C   0  0  0  0  0  0  0  0  0  0  0  0
    2.4692   74.7416   81.4797 N   0  0  0  0  0  0  0  0  0  0  0  0
    3.6745   73.9995   81.8455 C   0  0  0  0  0  0  0  0  0  0  0  0
    3.6236   72.5670   81.2837 C   0  0  0  0  0  0  0  0  0  0  0  0
    2.4718   76.1713   81.7598 C   0  0  0  0  0  0  0  0  0  0  0  0
    3.3630   76.6796   82.8987 C   0  0  0  0  0  0  0  0  0  0  0  0
    4.5036   77.5857   82.4515 C   0  0  0  0  0  0  0  0  0  0  0  0
    5.4466   77.6597   83.5194 O   0  0  0  0  0  0  0  0  0  0  0  0
    6.7258   77.1798   83.1464 N   0  0  0  0  0  0  0  0  0  0  0  0
    7.3499   77.9791   82.4517 O   0  0  0  0  0  0  0  0  0  0  0  0
    7.0468   76.0599   83.5476 O   0  0  0  0  0  0  0  0  0  0  0  0
    3.4440   65.9783   84.6651 O   0  0  0  0  0  0  0  0  0  0  0  0
    4.4752   66.1700   85.6403 C   0  0  0  0  0  0  0  0  0  0  0  0
    6.9979   65.9291   85.7845 C   0  0  0  0  0  0  0  0  0  0  0  0
    5.6827   65.2587   85.4139 C   0  0  0  0  0  0  0  0  0  0  0  0
 44 45  1  0  0  0
 45 43  1  0  0  0
 43 42  1  0  0  0
 42  1  1  0  0  0
  1  2  1  0  0  0
  2  3  2  0  0  0
  3  4  1  0  0  0
  4 26  1  0  0  0
 26 27  2  0  0  0
 26 28  2  0  0  0
 26 29  1  0  0  0
 29 30  1  0  0  0
 30 31  1  0  0  0
 31 32  1  0  0  0
 32 35  1  0  0  0
 35 36  1  0  0  0
 36 37  1  0  0  0
 37 38  1  0  0  0
 38 39  1  0  0  0
 39 40  2  0  0  0
 39 41  1  0  0  0
 32 33  1  0  0  0
 33 34  1  0  0  0
  4  5  2  0  0  0
  5  6  1  0  0  0
  6  7  1  0  0  0
  7  8  2  0  0  0
  8  9  1  0  0  0
  9 10  1  0  0  0
 10 23  1  0  0  0
 23 24  1  0  0  0
 24 25  1  0  0  0
 10 11  2  0  0  0
 11 19  1  0  0  0
 19 20  2  0  0  0
 20 21  1  0  0  0
 11 12  1  0  0  0
 12 13  1  0  0  0
 12 14  1  0  0  0
 14 15  1  0  0  0
 15 16  2  0  0  0
 15 17  1  0  0  0
  6  1  2  0  0  0
 17  7  1  0  0  0
 34 29  1  0  0  0
 14  9  2  0  0  0
 21 22  1  0  0  0
 17 18  1  0  0  0
M  CHG 1  39   1
M  CHG 1  41  -1
M  END
> <minimizedAffinity>
-1.90278

$$$$



 45 48  0  0  0  0  0  0  0  0999 V2000
    0.4055   73.1236   81.3538 C   0  0  0  0  0  0  0  0  0  0  0  0
   -0.3700   71.9961   81.0518 C   0  0  0  0  0  0  0  0  0  0  0  0
    0.2116   70.7256   80.9938 C   0  0  0  0  0  0  0  0  0  0  0  0
    1.5721   70.5751   81.2603 C   0  0  0  0  0  0  0  0  0  0  0  0
    2.3410   71.6769   81.6305 C   0  0  0  0  0  0  0  0  0  0  0  0
    1.7719   72.9596   81.6560 C   0  0  0  0  0  0  0  0  0  0  0  0
    2.7014   74.0953   81.9487 C   0  0  0  0  0  0  0  0  0  0  0  0
    3.6376   74.3836   81.0890 N   0  0  0  0  0  0  0  0  0  0  0  0
    4.4511   75.4544   81.4589 C   0  0  0  0  0  0  0  0  0  0  0  0
    5.5255   75.9862   80.7191 C   0  0  0  0  0  0  0  0  0  0  0  0
    6.0262   77.0561   81.4757 C   0  0  0  0  0  0  0  0  0  0  0  0
    5.2787   77.1063   82.6518 N   0  0  0  0  0  0  0  0  0  0  0  0
    5.4990   78.0121   83.7610 C   0  0  0  0  0  0  0  0  0  0  0  0
    4.2912   76.1556   82.6173 C   0  0  0  0  0  0  0  0  0  0  0  0
    3.2445   75.8563   83.5420 C   0  0  0  0  0  0  0  0  0  0  0  0
    2.9909   76.4766   84.5690 O   0  0  0  0  0  0  0  0  0  0  0  0
    2.5011   74.7728   83.1404 N   0  0  0  0  0  0  0  0  0  0  0  0
    1.7155   74.5308   83.7299 H   0  0  0  0  0  0  0  0  0  0  0  0
    7.1025   77.9742   81.1584 C   0  0  0  0  0  0  0  0  0  0  0  0
    8.2899   77.5624   80.8444 N   0  0  0  0  0  0  0  0  0  0  0  0
    9.1115   78.6687   80.5904 O   0  0  0  0  0  0  0  0  0  0  0  0
    9.9663   78.2466   80.3815 H   0  0  0  0  0  0  0  0  0  0  0  0
    5.9818   75.4936   79.3781 C   0  0  0  0  0  0  0  0  0  0  0  0
    6.8563   74.2390   79.4448 C   0  0  0  0  0  0  0  0  0  0  0  0
    6.3827   73.1261   78.5194 C   0  0  0  0  0  0  0  0  0  0  0  0
    2.3296   68.9652   81.1928 S   0  0  0  0  0  0  0  0  0  0  0  0
    2.8647   68.8009   79.8588 O   0  0  0  0  0  0  0  0  0  0  0  0
    3.1782   68.8423   82.3601 O   0  0  0  0  0  0  0  0  0  0  0  0
    1.0297   67.9043   81.3907 N   0  0  0  0  0  0  0  0  0  0  0  0
    0.9927   67.0206   82.5845 C   0  0  0  0  0  0  0  0  0  0  0  0
    1.1358   65.5231   82.2357 C   0  0  0  0  0  0  0  0  0  0  0  0
    0.3247   65.0619   81.1028 N   0  0  0  0  0  0  0  0  0  0  0  0
   -0.4597   66.1138   80.4583 C   0  0  0  0  0  0  0  0  0  0  0  0
    0.4190   67.3418   80.1578 C   0  0  0  0  0  0  0  0  0  0  0  0
   -0.3209   63.7645   81.2533 C   0  0  0  0  0  0  0  0  0  0  0  0
   -0.6375   62.9669   79.9832 C   0  0  0  0  0  0  0  0  0  0  0  0
   -1.4443   61.6962   80.2204 C   0  0  0  0  0  0  0  0  0  0  0  0
   -1.2758   60.8533   79.0818 O   0  0  0  0  0  0  0  0  0  0  0  0
   -2.2724   61.0658   78.0984 N   0  0  0  0  0  0  0  0  0  0  0  0
   -1.9183   60.7081   76.9770 O   0  0  0  0  0  0  0  0  0  0  0  0
   -3.3348   61.5661   78.4714 O   0  0  0  0  0  0  0  0  0  0  0  0
   -0.1162   74.3902   81.4114 O   0  0  0  0  0  0  0  0  0  0  0  0
   -0.7117   74.9257   80.2240 C   0  0  0  0  0  0  0  0  0  0  0  0
   -0.8640   77.1253   78.9664 C   0  0  0  0  0  0  0  0  0  0  0  0
   -0.9696   76.4306   80.3165 C   0  0  0  0  0  0  0  0  0  0  0  0
 44 45  1  0  0  0
 45 43  1  0  0  0
 43 42  1  0  0  0
 42  1  1  0  0  0
  1  2  1  0  0  0
  2  3  2  0  0  0
  3  4  1  0  0  0
  4 26  1  0  0  0
 26 27  2  0  0  0
 26 28  2  0  0  0
 26 29  1  0  0  0
 29 30  1  0  0  0
 30 31  1  0  0  0
 31 32  1  0  0  0
 32 35  1  0  0  0
 35 36  1  0  0  0
 36 37  1  0  0  0
 37 38  1  0  0  0
 38 39  1  0  0  0
 39 40  2  0  0  0
 39 41  1  0  0  0
 32 33  1  0  0  0
 33 34  1  0  0  0
  4  5  2  0  0  0
  5  6  1  0  0  0
  6  7  1  0  0  0
  7  8  2  0  0  0
  8  9  1  0  0  0
  9 10  1  0  0  0
 10 23  1  0  0  0
 23 24  1  0  0  0
 24 25  1  0  0  0
 10 11  2  0  0  0
 11 19  1  0  0  0
 19 20  2  0  0  0
 20 21  1  0  0  0
 11 12  1  0  0  0
 12 13  1  0  0  0
 12 14  1  0  0  0
 14 15  1  0  0  0
 15 16  2  0  0  0
 15 17  1  0  0  0
  6  1  2  0  0  0
 17  7  1  0  0  0
 34 29  1  0  0  0
 14  9  2  0  0  0
 21 22  1  0  0  0
 17 18  1  0  0  0
M  CHG 1  39   1
M  CHG 1  41  -1
M  END
> <minimizedAffinity>
-1.84086

$$$$



 45 48  0  0  0  0  0  0  0  0999 V2000
    0.6979   72.6221   81.2625 C   0  0  0  0  0  0  0  0  0  0  0  0
   -0.2805   71.6196   81.2218 C   0  0  0  0  0  0  0  0  0  0  0  0
    0.0701   70.2747   81.3774 C   0  0  0  0  0  0  0  0  0  0  0  0
    1.4029   69.9285   81.5971 C   0  0  0  0  0  0  0  0  0  0  0  0
    2.3762   70.9195   81.7100 C   0  0  0  0  0  0  0  0  0  0  0  0
    2.0373   72.2682   81.5195 C   0  0  0  0  0  0  0  0  0  0  0  0
    3.1675   73.2488   81.5417 C   0  0  0  0  0  0  0  0  0  0  0  0
    3.2271   74.1230   82.5065 N   0  0  0  0  0  0  0  0  0  0  0  0
    4.3152   74.9921   82.4314 C   0  0  0  0  0  0  0  0  0  0  0  0
    4.6319   76.0202   83.3409 C   0  0  0  0  0  0  0  0  0  0  0  0
    5.8143   76.6077   82.8669 C   0  0  0  0  0  0  0  0  0  0  0  0
    6.1436   75.9555   81.6792 N   0  0  0  0  0  0  0  0  0  0  0  0
    7.2523   76.2863   80.8069 C   0  0  0  0  0  0  0  0  0  0  0  0
    5.2511   74.9423   81.4409 C   0  0  0  0  0  0  0  0  0  0  0  0
    5.1992   73.9627   80.4027 C   0  0  0  0  0  0  0  0  0  0  0  0
    6.0323   73.8069   79.5165 O   0  0  0  0  0  0  0  0  0  0  0  0
    4.0889   73.1605   80.5109 N   0  0  0  0  0  0  0  0  0  0  0  0
    4.0110   72.4167   79.8298 H   0  0  0  0  0  0  0  0  0  0  0  0
    6.5971   77.6811   83.4473 C   0  0  0  0  0  0  0  0  0  0  0  0
    7.5492   77.4587   84.2970 N   0  0  0  0  0  0  0  0  0  0  0  0
    8.1227   78.6786   84.6796 O   0  0  0  0  0  0  0  0  0  0  0  0
    8.8044   78.3944   85.3175 H   0  0  0  0  0  0  0  0  0  0  0  0
    3.8485   76.3571   84.5746 C   0  0  0  0  0  0  0  0  0  0  0  0
    3.1163   77.6990   84.4951 C   0  0  0  0  0  0  0  0  0  0  0  0
    1.6006   77.5559   84.4621 C   0  0  0  0  0  0  0  0  0  0  0  0
    1.8677   68.2216   81.7991 S   0  0  0  0  0  0  0  0  0  0  0  0
    3.2833   68.1285   81.5163 O   0  0  0  0  0  0  0  0  0  0  0  0
    1.3269   67.7782   83.0675 O   0  0  0  0  0  0  0  0  0  0  0  0
    1.0161   67.4289   80.5741 N   0  0  0  0  0  0  0  0  0  0  0  0
   -0.3540   66.9270   80.8540 C   0  0  0  0  0  0  0  0  0  0  0  0
   -0.4525   65.3861   80.8309 C   0  0  0  0  0  0  0  0  0  0  0  0
    0.2259   64.7302   79.7067 N   0  0  0  0  0  0  0  0  0  0  0  0
    0.9252   65.6483   78.8092 C   0  0  0  0  0  0  0  0  0  0  0  0
    1.8086   66.6238   79.6082 C   0  0  0  0  0  0  0  0  0  0  0  0
   -0.4791   63.6178   79.0839 C   0  0  0  0  0  0  0  0  0  0  0  0
   -0.5575   62.2945   79.8534 C   0  0  0  0  0  0  0  0  0  0  0  0
   -1.8610   61.5289   79.6618 C   0  0  0  0  0  0  0  0  0  0  0  0
   -1.5551   60.3068   78.9924 O   0  0  0  0  0  0  0  0  0  0  0  0
   -2.0579   60.2738   77.6688 N   0  0  0  0  0  0  0  0  0  0  0  0
   -1.1690   60.3165   76.8209 O   0  0  0  0  0  0  0  0  0  0  0  0
   -3.2807   60.2096   77.5318 O   0  0  0  0  0  0  0  0  0  0  0  0
    0.4055   73.9522   81.1042 O   0  0  0  0  0  0  0  0  0  0  0  0
   -0.4912   74.3217   80.0503 C   0  0  0  0  0  0  0  0  0  0  0  0
   -0.9467   76.8172   80.1409 C   0  0  0  0  0  0  0  0  0  0  0  0
   -0.1761   75.6963   79.4579 C   0  0  0  0  0  0  0  0  0  0  0  0
 44 45  1  0  0  0
 45 43  1  0  0  0
 43 42  1  0  0  0
 42  1  1  0  0  0
  1  2  1  0  0  0
  2  3  2  0  0  0
  3  4  1  0  0  0
  4 26  1  0  0  0
 26 27  2  0  0  0
 26 28  2  0  0  0
 26 29  1  0  0  0
 29 30  1  0  0  0
 30 31  1  0  0  0
 31 32  1  0  0  0
 32 35  1  0  0  0
 35 36  1  0  0  0
 36 37  1  0  0  0
 37 38  1  0  0  0
 38 39  1  0  0  0
 39 40  2  0  0  0
 39 41  1  0  0  0
 32 33  1  0  0  0
 33 34  1  0  0  0
  4  5  2  0  0  0
  5  6  1  0  0  0
  6  7  1  0  0  0
  7  8  2  0  0  0
  8  9  1  0  0  0
  9 10  1  0  0  0
 10 23  1  0  0  0
 23 24  1  0  0  0
 24 25  1  0  0  0
 10 11  2  0  0  0
 11 19  1  0  0  0
 19 20  2  0  0  0
 20 21  1  0  0  0
 11 12  1  0  0  0
 12 13  1  0  0  0
 12 14  1  0  0  0
 14 15  1  0  0  0
 15 16  2  0  0  0
 15 17  1  0  0  0
  6  1  2  0  0  0
 17  7  1  0  0  0
 34 29  1  0  0  0
 14  9  2  0  0  0
 21 22  1  0  0  0
 17 18  1  0  0  0
M  CHG 1  39   1
M  CHG 1  41  -1
M  END
> <minimizedAffinity>
-1.76458

$$$$



 45 48  0  0  0  0  0  0  0  0999 V2000
    1.3700   73.8210   81.4362 C   0  0  0  0  0  0  0  0  0  0  0  0
    0.4338   72.7969   81.6330 C   0  0  0  0  0  0  0  0  0  0  0  0
    0.8529   71.4845   81.8732 C   0  0  0  0  0  0  0  0  0  0  0  0
    2.2153   71.1949   81.9395 C   0  0  0  0  0  0  0  0  0  0  0  0
    3.1567   72.2150   81.8156 C   0  0  0  0  0  0  0  0  0  0  0  0
    2.7443   73.5278   81.5391 C   0  0  0  0  0  0  0  0  0  0  0  0
    3.8291   74.5318   81.3051 C   0  0  0  0  0  0  0  0  0  0  0  0
    4.4646   74.5221   80.1673 N   0  0  0  0  0  0  0  0  0  0  0  0
    5.4582   75.4940   80.0529 C   0  0  0  0  0  0  0  0  0  0  0  0
    6.2872   75.7188   78.9363 C   0  0  0  0  0  0  0  0  0  0  0  0
    7.1101   76.8031   79.2754 C   0  0  0  0  0  0  0  0  0  0  0  0
    6.7881   77.1635   80.5834 N   0  0  0  0  0  0  0  0  0  0  0  0
    7.4431   78.1905   81.3679 C   0  0  0  0  0  0  0  0  0  0  0  0
    5.7502   76.3910   81.0375 C   0  0  0  0  0  0  0  0  0  0  0  0
    5.0303   76.4183   82.2709 C   0  0  0  0  0  0  0  0  0  0  0  0
    5.1836   77.2301   83.1771 O   0  0  0  0  0  0  0  0  0  0  0  0
    4.0912   75.4175   82.3376 N   0  0  0  0  0  0  0  0  0  0  0  0
    3.5156   75.4041   83.1693 H   0  0  0  0  0  0  0  0  0  0  0  0
    8.1155   77.4723   78.4734 C   0  0  0  0  0  0  0  0  0  0  0  0
    7.8124   78.1473   77.4101 N   0  0  0  0  0  0  0  0  0  0  0  0
    8.9818   78.6776   76.8491 O   0  0  0  0  0  0  0  0  0  0  0  0
    8.6398   79.1447   76.0635 H   0  0  0  0  0  0  0  0  0  0  0  0
    6.2371   74.9476   77.6511 C   0  0  0  0  0  0  0  0  0  0  0  0
    7.0674   73.6618   77.6685 C   0  0  0  0  0  0  0  0  0  0  0  0
    8.1501   73.6306   76.5980 C   0  0  0  0  0  0  0  0  0  0  0  0
    2.7675   69.5302   82.2460 S   0  0  0  0  0  0  0  0  0  0  0  0
    3.9104   69.2954   81.3907 O   0  0  0  0  0  0  0  0  0  0  0  0
    2.8616   69.3683   83.6823 O   0  0  0  0  0  0  0  0  0  0  0  0
    1.4808   68.5776   81.7065 N   0  0  0  0  0  0  0  0  0  0  0  0
    1.0709   67.3951   82.5072 C   0  0  0  0  0  0  0  0  0  0  0  0
    1.3295   66.0544   81.7860 C   0  0  0  0  0  0  0  0  0  0  0  0
    0.9267   66.0124   80.3752 N   0  0  0  0  0  0  0  0  0  0  0  0
    0.3815   67.2708   79.8687 C   0  0  0  0  0  0  0  0  0  0  0  0
    1.3007   68.4498   80.2366 C   0  0  0  0  0  0  0  0  0  0  0  0
    0.2769   64.7895   79.9226 C   0  0  0  0  0  0  0  0  0  0  0  0
   -0.3562   63.8777   80.9797 C   0  0  0  0  0  0  0  0  0  0  0  0
   -0.6221   62.4535   80.5075 C   0  0  0  0  0  0  0  0  0  0  0  0
   -0.9300   62.5056   79.1155 O   0  0  0  0  0  0  0  0  0  0  0  0
   -1.8581   61.5084   78.7285 N   0  0  0  0  0  0  0  0  0  0  0  0
   -1.9934   60.6293   79.5769 O   0  0  0  0  0  0  0  0  0  0  0  0
   -2.3976   61.6368   77.6283 O   0  0  0  0  0  0  0  0  0  0  0  0
    1.0086   75.1198   81.1867 O   0  0  0  0  0  0  0  0  0  0  0  0
    0.0100   75.7119   82.0254 C   0  0  0  0  0  0  0  0  0  0  0  0
    0.4345   77.6253   83.6384 C   0  0  0  0  0  0  0  0  0  0  0  0
    0.1931   77.2215   82.1909 C   0  0  0  0  0  0  0  0  0  0  0  0
 44 45  1  0  0  0
 45 43  1  0  0  0
 43 42  1  0  0  0
 42  1  1  0  0  0
  1  2  1  0  0  0
  2  3  2  0  0  0
  3  4  1  0  0  0
  4 26  1  0  0  0
 26 27  2  0  0  0
 26 28  2  0  0  0
 26 29  1  0  0  0
 29 30  1  0  0  0
 30 31  1  0  0  0
 31 32  1  0  0  0
 32 35  1  0  0  0
 35 36  1  0  0  0
 36 37  1  0  0  0
 37 38  1  0  0  0
 38 39  1  0  0  0
 39 40  2  0  0  0
 39 41  1  0  0  0
 32 33  1  0  0  0
 33 34  1  0  0  0
  4  5  2  0  0  0
  5  6  1  0  0  0
  6  7  1  0  0  0
  7  8  2  0  0  0
  8  9  1  0  0  0
  9 10  1  0  0  0
 10 23  1  0  0  0
 23 24  1  0  0  0
 24 25  1  0  0  0
 10 11  2  0  0  0
 11 19  1  0  0  0
 19 20  2  0  0  0
 20 21  1  0  0  0
 11 12  1  0  0  0
 12 13  1  0  0  0
 12 14  1  0  0  0
 14 15  1  0  0  0
 15 16  2  0  0  0
 15 17  1  0  0  0
  6  1  2  0  0  0
 17  7  1  0  0  0
 34 29  1  0  0  0
 14  9  2  0  0  0
 21 22  1  0  0  0
 17 18  1  0  0  0
M  CHG 1  39   1
M  CHG 1  41  -1
M  END
> <minimizedAffinity>
-1.75404

$$$$



 45 48  0  0  0  0  0  0  0  0999 V2000
    3.0296   68.0626   82.8675 C   0  0  0  0  0  0  0  0  0  0  0  0
    2.5116   66.7987   83.1810 C   0  0  0  0  0  0  0  0  0  0  0  0
    1.4572   66.2565   82.4393 C   0  0  0  0  0  0  0  0  0  0  0  0
    0.9298   66.9700   81.3635 C   0  0  0  0  0  0  0  0  0  0  0  0
    1.4810   68.1963   80.9967 C   0  0  0  0  0  0  0  0  0  0  0  0
    2.5154   68.7625   81.7580 C   0  0  0  0  0  0  0  0  0  0  0  0
    2.9623   70.1340   81.3594 C   0  0  0  0  0  0  0  0  0  0  0  0
    2.2305   71.1594   81.6937 N   0  0  0  0  0  0  0  0  0  0  0  0
    2.7330   72.3895   81.2704 C   0  0  0  0  0  0  0  0  0  0  0  0
    2.1582   73.6547   81.5014 C   0  0  0  0  0  0  0  0  0  0  0  0
    3.0218   74.5879   80.9088 C   0  0  0  0  0  0  0  0  0  0  0  0
    4.0511   73.8638   80.3081 N   0  0  0  0  0  0  0  0  0  0  0  0
    5.1302   74.4180   79.5157 C   0  0  0  0  0  0  0  0  0  0  0  0
    3.8941   72.5269   80.5688 C   0  0  0  0  0  0  0  0  0  0  0  0
    4.7091   71.4033   80.2315 C   0  0  0  0  0  0  0  0  0  0  0  0
    5.7952   71.4453   79.6638 O   0  0  0  0  0  0  0  0  0  0  0  0
    4.1453   70.2200   80.6436 N   0  0  0  0  0  0  0  0  0  0  0  0
    4.6909   69.3855   80.4729 H   0  0  0  0  0  0  0  0  0  0  0  0
    2.9284   76.0345   80.8889 C   0  0  0  0  0  0  0  0  0  0  0  0
    3.6371   76.7821   81.6744 N   0  0  0  0  0  0  0  0  0  0  0  0
    3.3359   78.1283   81.4286 O   0  0  0  0  0  0  0  0  0  0  0  0
    3.9067   78.5879   82.0730 H   0  0  0  0  0  0  0  0  0  0  0  0
    0.8918   73.9045   82.2651 C   0  0  0  0  0  0  0  0  0  0  0  0
   -0.3382   74.1015   81.3756 C   0  0  0  0  0  0  0  0  0  0  0  0
   -0.6419   75.5653   81.0851 C   0  0  0  0  0  0  0  0  0  0  0  0
   -0.4115   66.2949   80.4069 S   0  0  0  0  0  0  0  0  0  0  0  0
   -1.3725   65.7529   81.3426 O   0  0  0  0  0  0  0  0  0  0  0  0
   -0.7953   67.3013   79.4384 O   0  0  0  0  0  0  0  0  0  0  0  0
    0.3038   65.0182   79.5627 N   0  0  0  0  0  0  0  0  0  0  0  0
    0.3267   65.0560   78.0777 C   0  0  0  0  0  0  0  0  0  0  0  0
   -0.5399   63.9546   77.4291 C   0  0  0  0  0  0  0  0  0  0  0  0
   -0.3950   62.6161   78.0133 N   0  0  0  0  0  0  0  0  0  0  0  0
    0.5217   62.5533   79.1504 C   0  0  0  0  0  0  0  0  0  0  0  0
    0.2043   63.6642   80.1679 C   0  0  0  0  0  0  0  0  0  0  0  0
   -0.3516   61.5011   77.0766 C   0  0  0  0  0  0  0  0  0  0  0  0
   -1.3677   60.3681   77.2593 C   0  0  0  0  0  0  0  0  0  0  0  0
   -2.7213   60.8147   77.7983 C   0  0  0  0  0  0  0  0  0  0  0  0
   -3.0763   59.9385   78.8667 O   0  0  0  0  0  0  0  0  0  0  0  0
   -3.2158   60.6185   80.1010 N   0  0  0  0  0  0  0  0  0  0  0  0
   -3.9740   61.5834   80.0297 O   0  0  0  0  0  0  0  0  0  0  0  0
   -2.5831   60.1779   81.0620 O   0  0  0  0  0  0  0  0  0  0  0  0
    4.0543   68.6408   83.5713 O   0  0  0  0  0  0  0  0  0  0  0  0
    4.5031   67.9863   84.7636 C   0  0  0  0  0  0  0  0  0  0  0  0
    6.3625   66.6651   85.8770 C   0  0  0  0  0  0  0  0  0  0  0  0
    5.9201   67.4250   84.6347 C   0  0  0  0  0  0  0  0  0  0  0  0
 44 45  1  0  0  0
 45 43  1  0  0  0
 43 42  1  0  0  0
 42  1  1  0  0  0
  1  2  1  0  0  0
  2  3  2  0  0  0
  3  4  1  0  0  0
  4 26  1  0  0  0
 26 27  2  0  0  0
 26 28  2  0  0  0
 26 29  1  0  0  0
 29 30  1  0  0  0
 30 31  1  0  0  0
 31 32  1  0  0  0
 32 35  1  0  0  0
 35 36  1  0  0  0
 36 37  1  0  0  0
 37 38  1  0  0  0
 38 39  1  0  0  0
 39 40  2  0  0  0
 39 41  1  0  0  0
 32 33  1  0  0  0
 33 34  1  0  0  0
  4  5  2  0  0  0
  5  6  1  0  0  0
  6  7  1  0  0  0
  7  8  2  0  0  0
  8  9  1  0  0  0
  9 10  1  0  0  0
 10 23  1  0  0  0
 23 24  1  0  0  0
 24 25  1  0  0  0
 10 11  2  0  0  0
 11 19  1  0  0  0
 19 20  2  0  0  0
 20 21  1  0  0  0
 11 12  1  0  0  0
 12 13  1  0  0  0
 12 14  1  0  0  0
 14 15  1  0  0  0
 15 16  2  0  0  0
 15 17  1  0  0  0
  6  1  2  0  0  0
 17  7  1  0  0  0
 34 29  1  0  0  0
 14  9  2  0  0  0
 21 22  1  0  0  0
 17 18  1  0  0  0
M  CHG 1  39   1
M  CHG 1  41  -1
M  END
> <minimizedAffinity>
-1.74848

$$$$



 45 48  0  0  0  0  0  0  0  0999 V2000
    2.8701   68.0303   82.8562 C   0  0  0  0  0  0  0  0  0  0  0  0
    2.5464   66.6806   83.0496 C   0  0  0  0  0  0  0  0  0  0  0  0
    1.5214   66.0805   82.3114 C   0  0  0  0  0  0  0  0  0  0  0  0
    0.8286   66.8255   81.3577 C   0  0  0  0  0  0  0  0  0  0  0  0
    1.1862   68.1486   81.1051 C   0  0  0  0  0  0  0  0  0  0  0  0
    2.1897   68.7674   81.8668 C   0  0  0  0  0  0  0  0  0  0  0  0
    2.4228   70.2224   81.6055 C   0  0  0  0  0  0  0  0  0  0  0  0
    3.5492   70.5952   81.0662 N   0  0  0  0  0  0  0  0  0  0  0  0
    3.6675   71.9709   80.8695 C   0  0  0  0  0  0  0  0  0  0  0  0
    4.7644   72.6452   80.2980 C   0  0  0  0  0  0  0  0  0  0  0  0
    4.4233   74.0059   80.2914 C   0  0  0  0  0  0  0  0  0  0  0  0
    3.1694   74.1129   80.8921 N   0  0  0  0  0  0  0  0  0  0  0  0
    2.4600   75.3465   81.1648 C   0  0  0  0  0  0  0  0  0  0  0  0
    2.6936   72.8651   81.2030 C   0  0  0  0  0  0  0  0  0  0  0  0
    1.4481   72.4493   81.7651 C   0  0  0  0  0  0  0  0  0  0  0  0
    0.4982   73.1779   82.0306 O   0  0  0  0  0  0  0  0  0  0  0  0
    1.4057   71.0908   81.9668 N   0  0  0  0  0  0  0  0  0  0  0  0
    0.5343   70.7226   82.3251 H   0  0  0  0  0  0  0  0  0  0  0  0
    5.1744   75.1331   79.7746 C   0  0  0  0  0  0  0  0  0  0  0  0
    5.8731   75.9069   80.5435 N   0  0  0  0  0  0  0  0  0  0  0  0
    6.4848   76.9006   79.7677 O   0  0  0  0  0  0  0  0  0  0  0  0
    6.9634   77.4212   80.4403 H   0  0  0  0  0  0  0  0  0  0  0  0
    6.0110   71.9901   79.7825 C   0  0  0  0  0  0  0  0  0  0  0  0
    6.1479   72.0339   78.2585 C   0  0  0  0  0  0  0  0  0  0  0  0
    7.3268   72.8733   77.7846 C   0  0  0  0  0  0  0  0  0  0  0  0
   -0.4783   66.0779   80.4073 S   0  0  0  0  0  0  0  0  0  0  0  0
   -1.4373   65.5417   81.3483 O   0  0  0  0  0  0  0  0  0  0  0  0
   -0.8761   67.0376   79.3980 O   0  0  0  0  0  0  0  0  0  0  0  0
    0.2861   64.7935   79.6197 N   0  0  0  0  0  0  0  0  0  0  0  0
    0.3850   64.8101   78.1374 C   0  0  0  0  0  0  0  0  0  0  0  0
   -0.4415   63.6944   77.4614 C   0  0  0  0  0  0  0  0  0  0  0  0
   -0.3199   62.3652   78.0719 N   0  0  0  0  0  0  0  0  0  0  0  0
    0.5376   62.3242   79.2553 C   0  0  0  0  0  0  0  0  0  0  0  0
    0.1626   63.4478   80.2388 C   0  0  0  0  0  0  0  0  0  0  0  0
   -0.2227   61.2372   77.1551 C   0  0  0  0  0  0  0  0  0  0  0  0
   -1.3376   60.1857   77.1875 C   0  0  0  0  0  0  0  0  0  0  0  0
   -2.7381   60.7561   77.3758 C   0  0  0  0  0  0  0  0  0  0  0  0
   -3.4221   59.9315   78.3178 O   0  0  0  0  0  0  0  0  0  0  0  0
   -3.4025   60.4731   79.6262 N   0  0  0  0  0  0  0  0  0  0  0  0
   -3.1327   59.6352   80.4841 O   0  0  0  0  0  0  0  0  0  0  0  0
   -3.6500   61.6745   79.7428 O   0  0  0  0  0  0  0  0  0  0  0  0
    3.8583   68.6658   83.5628 O   0  0  0  0  0  0  0  0  0  0  0  0
    4.3051   68.0631   84.7828 C   0  0  0  0  0  0  0  0  0  0  0  0
    6.1250   66.6766   85.8821 C   0  0  0  0  0  0  0  0  0  0  0  0
    5.7486   67.5635   84.7038 C   0  0  0  0  0  0  0  0  0  0  0  0
 44 45  1  0  0  0
 45 43  1  0  0  0
 43 42  1  0  0  0
 42  1  1  0  0  0
  1  2  1  0  0  0
  2  3  2  0  0  0
  3  4  1  0  0  0
  4 26  1  0  0  0
 26 27  2  0  0  0
 26 28  2  0  0  0
 26 29  1  0  0  0
 29 30  1  0  0  0
 30 31  1  0  0  0
 31 32  1  0  0  0
 32 35  1  0  0  0
 35 36  1  0  0  0
 36 37  1  0  0  0
 37 38  1  0  0  0
 38 39  1  0  0  0
 39 40  2  0  0  0
 39 41  1  0  0  0
 32 33  1  0  0  0
 33 34  1  0  0  0
  4  5  2  0  0  0
  5  6  1  0  0  0
  6  7  1  0  0  0
  7  8  2  0  0  0
  8  9  1  0  0  0
  9 10  1  0  0  0
 10 23  1  0  0  0
 23 24  1  0  0  0
 24 25  1  0  0  0
 10 11  2  0  0  0
 11 19  1  0  0  0
 19 20  2  0  0  0
 20 21  1  0  0  0
 11 12  1  0  0  0
 12 13  1  0  0  0
 12 14  1  0  0  0
 14 15  1  0  0  0
 15 16  2  0  0  0
 15 17  1  0  0  0
  6  1  2  0  0  0
 17  7  1  0  0  0
 34 29  1  0  0  0
 14  9  2  0  0  0
 21 22  1  0  0  0
 17 18  1  0  0  0
M  CHG 1  39   1
M  CHG 1  41  -1
M  END
> <minimizedAffinity>
-1.73543

$$$$



 45 48  0  0  0  0  0  0  0  0999 V2000
    3.2963   67.3290   83.6971 C   0  0  0  0  0  0  0  0  0  0  0  0
    4.0315   68.5160   83.5769 C   0  0  0  0  0  0  0  0  0  0  0  0
    3.6147   69.5275   82.7057 C   0  0  0  0  0  0  0  0  0  0  0  0
    2.4445   69.3637   81.9653 C   0  0  0  0  0  0  0  0  0  0  0  0
    1.6661   68.2190   82.1267 C   0  0  0  0  0  0  0  0  0  0  0  0
    2.0967   67.1847   82.9722 C   0  0  0  0  0  0  0  0  0  0  0  0
    1.2571   65.9461   82.9909 C   0  0  0  0  0  0  0  0  0  0  0  0
    0.8034   65.4729   81.8644 N   0  0  0  0  0  0  0  0  0  0  0  0
    0.0292   64.3200   81.9928 C   0  0  0  0  0  0  0  0  0  0  0  0
   -0.5733   63.5935   80.9470 C   0  0  0  0  0  0  0  0  0  0  0  0
   -1.2274   62.5105   81.5529 C   0  0  0  0  0  0  0  0  0  0  0  0
   -1.0403   62.6415   82.9285 N   0  0  0  0  0  0  0  0  0  0  0  0
   -1.6065   61.7828   83.9490 C   0  0  0  0  0  0  0  0  0  0  0  0
   -0.2367   63.7215   83.1888 C   0  0  0  0  0  0  0  0  0  0  0  0
    0.2883   64.2256   84.4179 C   0  0  0  0  0  0  0  0  0  0  0  0
    0.1534   63.7128   85.5234 O   0  0  0  0  0  0  0  0  0  0  0  0
    1.0112   65.3790   84.2308 N   0  0  0  0  0  0  0  0  0  0  0  0
    1.4471   65.7682   85.0565 H   0  0  0  0  0  0  0  0  0  0  0  0
   -1.9673   61.4282   80.9340 C   0  0  0  0  0  0  0  0  0  0  0  0
   -3.0958   61.6224   80.3283 N   0  0  0  0  0  0  0  0  0  0  0  0
   -3.5713   60.4012   79.8324 O   0  0  0  0  0  0  0  0  0  0  0  0
   -4.4148   60.6623   79.4167 H   0  0  0  0  0  0  0  0  0  0  0  0
   -0.4761   63.9317   79.4892 C   0  0  0  0  0  0  0  0  0  0  0  0
    0.3151   62.9100   78.6687 C   0  0  0  0  0  0  0  0  0  0  0  0
   -0.4993   62.2794   77.5470 C   0  0  0  0  0  0  0  0  0  0  0  0
    1.8974   70.6414   80.8524 S   0  0  0  0  0  0  0  0  0  0  0  0
    2.9609   70.8584   79.8961 O   0  0  0  0  0  0  0  0  0  0  0  0
    0.5614   70.2878   80.4188 O   0  0  0  0  0  0  0  0  0  0  0  0
    1.7706   72.0047   81.8421 N   0  0  0  0  0  0  0  0  0  0  0  0
    0.4631   72.7021   81.9485 C   0  0  0  0  0  0  0  0  0  0  0  0
    0.4815   74.1222   81.3422 C   0  0  0  0  0  0  0  0  0  0  0  0
    1.6468   74.9411   81.6964 N   0  0  0  0  0  0  0  0  0  0  0  0
    2.6278   74.2575   82.5375 C   0  0  0  0  0  0  0  0  0  0  0  0
    2.9714   72.8730   81.9583 C   0  0  0  0  0  0  0  0  0  0  0  0
    1.3861   76.3414   82.0028 C   0  0  0  0  0  0  0  0  0  0  0  0
    1.8659   77.3982   81.0015 C   0  0  0  0  0  0  0  0  0  0  0  0
    3.2825   77.1806   80.4840 C   0  0  0  0  0  0  0  0  0  0  0  0
    3.1953   76.8520   79.0985 O   0  0  0  0  0  0  0  0  0  0  0  0
    4.4645   76.8077   78.4716 N   0  0  0  0  0  0  0  0  0  0  0  0
    5.2598   77.6137   78.9498 O   0  0  0  0  0  0  0  0  0  0  0  0
    4.6127   75.9972   77.5556 O   0  0  0  0  0  0  0  0  0  0  0  0
    3.6701   66.3048   84.5283 O   0  0  0  0  0  0  0  0  0  0  0  0
    4.5748   66.6039   85.5976 C   0  0  0  0  0  0  0  0  0  0  0  0
    6.2311   65.4298   87.1211 C   0  0  0  0  0  0  0  0  0  0  0  0
    5.7291   65.6051   85.6949 C   0  0  0  0  0  0  0  0  0  0  0  0
 44 45  1  0  0  0
 45 43  1  0  0  0
 43 42  1  0  0  0
 42  1  1  0  0  0
  1  2  1  0  0  0
  2  3  2  0  0  0
  3  4  1  0  0  0
  4 26  1  0  0  0
 26 27  2  0  0  0
 26 28  2  0  0  0
 26 29  1  0  0  0
 29 30  1  0  0  0
 30 31  1  0  0  0
 31 32  1  0  0  0
 32 35  1  0  0  0
 35 36  1  0  0  0
 36 37  1  0  0  0
 37 38  1  0  0  0
 38 39  1  0  0  0
 39 40  2  0  0  0
 39 41  1  0  0  0
 32 33  1  0  0  0
 33 34  1  0  0  0
  4  5  2  0  0  0
  5  6  1  0  0  0
  6  7  1  0  0  0
  7  8  2  0  0  0
  8  9  1  0  0  0
  9 10  1  0  0  0
 10 23  1  0  0  0
 23 24  1  0  0  0
 24 25  1  0  0  0
 10 11  2  0  0  0
 11 19  1  0  0  0
 19 20  2  0  0  0
 20 21  1  0  0  0
 11 12  1  0  0  0
 12 13  1  0  0  0
 12 14  1  0  0  0
 14 15  1  0  0  0
 15 16  2  0  0  0
 15 17  1  0  0  0
  6  1  2  0  0  0
 17  7  1  0  0  0
 34 29  1  0  0  0
 14  9  2  0  0  0
 21 22  1  0  0  0
 17 18  1  0  0  0
M  CHG 1  39   1
M  CHG 1  41  -1
M  END
> <minimizedAffinity>
-1.70446

$$$$
