


 26 29  0  0  0  0  0  0  0  0999 V2000
   -0.7274   62.1372   85.3597 C   0  0  0  0  0  0  0  0  0  0  0  0
   -0.6676   63.0461   84.2356 N   0  0  0  0  0  0  0  0  0  0  0  0
    0.1534   64.1412   84.3405 N   0  0  0  0  0  0  0  0  0  0  0  0
    0.1860   64.7548   83.1923 C   0  0  0  0  0  0  0  0  0  0  0  0
   -0.7560   64.0318   81.8937 S   0  0  0  0  0  0  0  0  0  0  0  0
   -1.2219   62.7501   83.0095 C   0  0  0  0  0  0  0  0  0  0  0  0
   -1.9476   61.7130   82.7263 N   0  0  0  0  0  0  0  0  0  0  0  0
    0.9743   65.9935   82.9635 C   0  0  0  0  0  0  0  0  0  0  0  0
    1.6928   66.5318   84.0441 C   0  0  0  0  0  0  0  0  0  0  0  0
    2.4526   67.6956   83.8883 C   0  0  0  0  0  0  0  0  0  0  0  0
    2.4989   68.3300   82.6501 C   0  0  0  0  0  0  0  0  0  0  0  0
    3.4324   69.7608   82.4553 Cl  0  0  0  0  0  0  0  0  0  0  0  0
    1.7920   67.8105   81.5680 C   0  0  0  0  0  0  0  0  0  0  0  0
    1.0310   66.6455   81.7225 C   0  0  0  0  0  0  0  0  0  0  0  0
   -2.4533   61.5301   81.4340 C   0  0  0  0  0  0  0  0  0  0  0  0
   -3.7698   61.8910   81.1389 C   0  0  0  0  0  0  0  0  0  0  0  0
   -4.2712   61.7360   79.8474 C   0  0  0  0  0  0  0  0  0  0  0  0
   -3.4495   61.2291   78.8390 C   0  0  0  0  0  0  0  0  0  0  0  0
   -2.1178   60.8796   79.1105 C   0  0  0  0  0  0  0  0  0  0  0  0
   -1.6285   61.0432   80.4147 C   0  0  0  0  0  0  0  0  0  0  0  0
   -1.2540   60.3577   78.0603 C   0  0  0  0  0  0  0  0  0  0  0  0
   -0.5044   61.1662   77.2338 N   0  0  0  0  0  0  0  0  0  0  0  0
    0.1552   60.3677   76.4074 N   0  0  0  0  0  0  0  0  0  0  0  0
   -0.2184   59.1353   76.7637 N   0  0  0  0  0  0  0  0  0  0  0  0
   -1.0863   59.0512   77.7819 N   0  0  0  0  0  0  0  0  0  0  0  0
    0.1386   58.3122   76.2871 H   0  0  0  0  0  0  0  0  0  0  0  0
  1  2  1  0  0  0
  2  3  1  0  0  0
  3  4  2  0  0  0
  4  8  1  0  0  0
  8  9  1  0  0  0
  9 10  2  0  0  0
 10 11  1  0  0  0
 11 12  1  0  0  0
 11 13  2  0  0  0
 13 14  1  0  0  0
  4  5  1  0  0  0
  5  6  1  0  0  0
  6  7  2  0  0  0
  7 15  1  0  0  0
 15 16  1  0  0  0
 16 17  2  0  0  0
 17 18  1  0  0  0
 18 19  2  0  0  0
 19 21  1  0  0  0
 21 22  1  0  0  0
 22 23  2  0  0  0
 23 24  1  0  0  0
 24 25  1  0  0  0
 19 20  1  0  0  0
  6  2  1  0  0  0
 20 15  2  0  0  0
 14  8  2  0  0  0
 25 21  2  0  0  0
 24 26  1  0  0  0
M  END
> <minimizedAffinity>
-9.68721

$$$$



 26 29  0  0  0  0  0  0  0  0999 V2000
    0.6597   67.0107   81.2101 C   0  0  0  0  0  0  0  0  0  0  0  0
    0.4965   65.6820   81.7589 N   0  0  0  0  0  0  0  0  0  0  0  0
    0.4411   65.5556   83.1246 N   0  0  0  0  0  0  0  0  0  0  0  0
    0.1501   64.3216   83.4220 C   0  0  0  0  0  0  0  0  0  0  0  0
   -0.1047   63.2307   82.0650 S   0  0  0  0  0  0  0  0  0  0  0  0
    0.1849   64.5889   80.9803 C   0  0  0  0  0  0  0  0  0  0  0  0
    0.1104   64.5658   79.6856 N   0  0  0  0  0  0  0  0  0  0  0  0
    0.0255   63.8386   84.8218 C   0  0  0  0  0  0  0  0  0  0  0  0
    0.7018   64.5455   85.8301 C   0  0  0  0  0  0  0  0  0  0  0  0
    0.6212   64.1378   87.1656 C   0  0  0  0  0  0  0  0  0  0  0  0
   -0.1362   63.0195   87.5023 C   0  0  0  0  0  0  0  0  0  0  0  0
   -0.2374   62.5160   89.1433 Cl  0  0  0  0  0  0  0  0  0  0  0  0
   -0.8126   62.3064   86.5151 C   0  0  0  0  0  0  0  0  0  0  0  0
   -0.7329   62.7133   85.1778 C   0  0  0  0  0  0  0  0  0  0  0  0
   -0.2168   63.3826   79.0129 C   0  0  0  0  0  0  0  0  0  0  0  0
    0.3503   63.1048   77.7672 C   0  0  0  0  0  0  0  0  0  0  0  0
    0.0490   61.9160   77.1043 C   0  0  0  0  0  0  0  0  0  0  0  0
   -0.8148   60.9911   77.6939 C   0  0  0  0  0  0  0  0  0  0  0  0
   -1.3790   61.2425   78.9540 C   0  0  0  0  0  0  0  0  0  0  0  0
   -1.0642   62.4425   79.6082 C   0  0  0  0  0  0  0  0  0  0  0  0
   -2.2744   60.2774   79.5770 C   0  0  0  0  0  0  0  0  0  0  0  0
   -2.7902   59.1899   78.9063 N   0  0  0  0  0  0  0  0  0  0  0  0
   -3.5545   58.5328   79.7664 N   0  0  0  0  0  0  0  0  0  0  0  0
   -3.4691   59.2394   80.8972 N   0  0  0  0  0  0  0  0  0  0  0  0
   -2.6915   60.3306   80.8560 N   0  0  0  0  0  0  0  0  0  0  0  0
   -3.9666   58.9605   81.7380 H   0  0  0  0  0  0  0  0  0  0  0  0
  1  2  1  0  0  0
  2  3  1  0  0  0
  3  4  2  0  0  0
  4  8  1  0  0  0
  8  9  1  0  0  0
  9 10  2  0  0  0
 10 11  1  0  0  0
 11 12  1  0  0  0
 11 13  2  0  0  0
 13 14  1  0  0  0
  4  5  1  0  0  0
  5  6  1  0  0  0
  6  7  2  0  0  0
  7 15  1  0  0  0
 15 16  1  0  0  0
 16 17  2  0  0  0
 17 18  1  0  0  0
 18 19  2  0  0  0
 19 21  1  0  0  0
 21 22  1  0  0  0
 22 23  2  0  0  0
 23 24  1  0  0  0
 24 25  1  0  0  0
 19 20  1  0  0  0
  6  2  1  0  0  0
 20 15  2  0  0  0
 14  8  2  0  0  0
 25 21  2  0  0  0
 24 26  1  0  0  0
M  END
> <minimizedAffinity>
-9.64546

$$$$



 26 29  0  0  0  0  0  0  0  0999 V2000
    2.1477   67.0082   80.1549 C   0  0  0  0  0  0  0  0  0  0  0  0
    1.3678   65.9036   80.6698 N   0  0  0  0  0  0  0  0  0  0  0  0
    1.2987   65.7486   82.0320 N   0  0  0  0  0  0  0  0  0  0  0  0
    0.4468   64.8025   82.3057 C   0  0  0  0  0  0  0  0  0  0  0  0
   -0.3532   64.0505   80.9306 S   0  0  0  0  0  0  0  0  0  0  0  0
    0.5348   65.1469   79.8750 C   0  0  0  0  0  0  0  0  0  0  0  0
    0.4196   65.2318   78.5859 N   0  0  0  0  0  0  0  0  0  0  0  0
    0.1429   64.3696   83.6943 C   0  0  0  0  0  0  0  0  0  0  0  0
   -0.8219   63.3653   83.8800 C   0  0  0  0  0  0  0  0  0  0  0  0
   -1.1490   62.9174   85.1639 C   0  0  0  0  0  0  0  0  0  0  0  0
   -0.5138   63.4712   86.2719 C   0  0  0  0  0  0  0  0  0  0  0  0
   -0.9137   62.9223   87.8516 Cl  0  0  0  0  0  0  0  0  0  0  0  0
    0.4446   64.4684   86.1062 C   0  0  0  0  0  0  0  0  0  0  0  0
    0.7732   64.9178   84.8215 C   0  0  0  0  0  0  0  0  0  0  0  0
   -0.4682   64.3990   77.8947 C   0  0  0  0  0  0  0  0  0  0  0  0
   -1.4891   64.9527   77.1192 C   0  0  0  0  0  0  0  0  0  0  0  0
   -2.3601   64.1293   76.4074 C   0  0  0  0  0  0  0  0  0  0  0  0
   -2.2039   62.7429   76.4590 C   0  0  0  0  0  0  0  0  0  0  0  0
   -1.1719   62.1677   77.2162 C   0  0  0  0  0  0  0  0  0  0  0  0
   -0.3033   63.0103   77.9251 C   0  0  0  0  0  0  0  0  0  0  0  0
   -0.9997   60.7223   77.2671 C   0  0  0  0  0  0  0  0  0  0  0  0
   -1.8684   59.8857   77.9336 N   0  0  0  0  0  0  0  0  0  0  0  0
   -1.4146   58.6512   77.7734 N   0  0  0  0  0  0  0  0  0  0  0  0
   -0.3121   58.7936   77.0321 N   0  0  0  0  0  0  0  0  0  0  0  0
    0.0050   60.0471   76.6779 N   0  0  0  0  0  0  0  0  0  0  0  0
    0.2498   57.9940   76.7546 H   0  0  0  0  0  0  0  0  0  0  0  0
  1  2  1  0  0  0
  2  3  1  0  0  0
  3  4  2  0  0  0
  4  8  1  0  0  0
  8  9  1  0  0  0
  9 10  2  0  0  0
 10 11  1  0  0  0
 11 12  1  0  0  0
 11 13  2  0  0  0
 13 14  1  0  0  0
  4  5  1  0  0  0
  5  6  1  0  0  0
  6  7  2  0  0  0
  7 15  1  0  0  0
 15 16  1  0  0  0
 16 17  2  0  0  0
 17 18  1  0  0  0
 18 19  2  0  0  0
 19 21  1  0  0  0
 21 22  1  0  0  0
 22 23  2  0  0  0
 23 24  1  0  0  0
 24 25  1  0  0  0
 19 20  1  0  0  0
  6  2  1  0  0  0
 20 15  2  0  0  0
 14  8  2  0  0  0
 25 21  2  0  0  0
 24 26  1  0  0  0
M  END
> <minimizedAffinity>
-9.27763

$$$$



 26 29  0  0  0  0  0  0  0  0999 V2000
    4.1557   64.7161   86.8742 C   0  0  0  0  0  0  0  0  0  0  0  0
    3.1433   65.2599   85.9950 N   0  0  0  0  0  0  0  0  0  0  0  0
    3.5468   66.1368   85.0190 N   0  0  0  0  0  0  0  0  0  0  0  0
    2.5329   66.4027   84.2463 C   0  0  0  0  0  0  0  0  0  0  0  0
    1.0223   65.5865   84.6317 S   0  0  0  0  0  0  0  0  0  0  0  0
    1.8527   64.7792   85.9597 C   0  0  0  0  0  0  0  0  0  0  0  0
    1.3441   63.8888   86.7541 N   0  0  0  0  0  0  0  0  0  0  0  0
    2.6230   67.3335   83.0914 C   0  0  0  0  0  0  0  0  0  0  0  0
    3.3247   68.5384   83.2636 C   0  0  0  0  0  0  0  0  0  0  0  0
    3.4428   69.4531   82.2122 C   0  0  0  0  0  0  0  0  0  0  0  0
    2.8594   69.1694   80.9806 C   0  0  0  0  0  0  0  0  0  0  0  0
    3.0031   70.2919   79.6860 Cl  0  0  0  0  0  0  0  0  0  0  0  0
    2.1593   67.9799   80.7926 C   0  0  0  0  0  0  0  0  0  0  0  0
    2.0402   67.0632   81.8442 C   0  0  0  0  0  0  0  0  0  0  0  0
    0.0112   63.4862   86.6108 C   0  0  0  0  0  0  0  0  0  0  0  0
   -0.8877   63.6496   87.6672 C   0  0  0  0  0  0  0  0  0  0  0  0
   -2.2227   63.2750   87.5218 C   0  0  0  0  0  0  0  0  0  0  0  0
   -2.6678   62.7453   86.3093 C   0  0  0  0  0  0  0  0  0  0  0  0
   -1.7849   62.5919   85.2293 C   0  0  0  0  0  0  0  0  0  0  0  0
   -0.4456   62.9752   85.3916 C   0  0  0  0  0  0  0  0  0  0  0  0
   -2.2460   62.0471   83.9597 C   0  0  0  0  0  0  0  0  0  0  0  0
   -2.8925   60.8349   83.8533 N   0  0  0  0  0  0  0  0  0  0  0  0
   -3.1670   60.6552   82.5696 N   0  0  0  0  0  0  0  0  0  0  0  0
   -2.6827   61.7456   81.9681 N   0  0  0  0  0  0  0  0  0  0  0  0
   -2.1016   62.6528   82.7660 N   0  0  0  0  0  0  0  0  0  0  0  0
   -2.7541   61.8753   80.9630 H   0  0  0  0  0  0  0  0  0  0  0  0
  1  2  1  0  0  0
  2  3  1  0  0  0
  3  4  2  0  0  0
  4  8  1  0  0  0
  8  9  1  0  0  0
  9 10  2  0  0  0
 10 11  1  0  0  0
 11 12  1  0  0  0
 11 13  2  0  0  0
 13 14  1  0  0  0
  4  5  1  0  0  0
  5  6  1  0  0  0
  6  7  2  0  0  0
  7 15  1  0  0  0
 15 16  1  0  0  0
 16 17  2  0  0  0
 17 18  1  0  0  0
 18 19  2  0  0  0
 19 21  1  0  0  0
 21 22  1  0  0  0
 22 23  2  0  0  0
 23 24  1  0  0  0
 24 25  1  0  0  0
 19 20  1  0  0  0
  6  2  1  0  0  0
 20 15  2  0  0  0
 14  8  2  0  0  0
 25 21  2  0  0  0
 24 26  1  0  0  0
M  END
> <minimizedAffinity>
-8.96461

$$$$



 26 29  0  0  0  0  0  0  0  0999 V2000
    0.6199   62.2164   80.0926 C   0  0  0  0  0  0  0  0  0  0  0  0
    0.2936   63.1074   81.1849 N   0  0  0  0  0  0  0  0  0  0  0  0
    0.2212   62.5731   82.4473 N   0  0  0  0  0  0  0  0  0  0  0  0
    0.0620   63.5397   83.3053 C   0  0  0  0  0  0  0  0  0  0  0  0
    0.0160   65.1701   82.6450 S   0  0  0  0  0  0  0  0  0  0  0  0
    0.2655   64.4776   81.0440 C   0  0  0  0  0  0  0  0  0  0  0  0
    0.4053   65.1375   79.9362 N   0  0  0  0  0  0  0  0  0  0  0  0
   -0.0673   63.3056   84.7671 C   0  0  0  0  0  0  0  0  0  0  0  0
    0.5151   64.2376   85.6422 C   0  0  0  0  0  0  0  0  0  0  0  0
    0.4255   64.0697   87.0278 C   0  0  0  0  0  0  0  0  0  0  0  0
   -0.2471   62.9677   87.5483 C   0  0  0  0  0  0  0  0  0  0  0  0
   -0.3593   62.7587   89.2514 Cl  0  0  0  0  0  0  0  0  0  0  0  0
   -0.8298   62.0334   86.6951 C   0  0  0  0  0  0  0  0  0  0  0  0
   -0.7410   62.2001   85.3078 C   0  0  0  0  0  0  0  0  0  0  0  0
    0.3554   66.5364   79.9304 C   0  0  0  0  0  0  0  0  0  0  0  0
   -0.8701   67.1935   79.8004 C   0  0  0  0  0  0  0  0  0  0  0  0
   -0.9296   68.5861   79.8205 C   0  0  0  0  0  0  0  0  0  0  0  0
    0.2408   69.3294   79.9844 C   0  0  0  0  0  0  0  0  0  0  0  0
    1.4795   68.6877   80.1370 C   0  0  0  0  0  0  0  0  0  0  0  0
    1.5216   67.2860   80.1161 C   0  0  0  0  0  0  0  0  0  0  0  0
    2.7024   69.4582   80.3162 C   0  0  0  0  0  0  0  0  0  0  0  0
    3.2458   70.2456   79.3245 N   0  0  0  0  0  0  0  0  0  0  0  0
    4.3416   70.7964   79.8260 N   0  0  0  0  0  0  0  0  0  0  0  0
    4.4112   70.3258   81.0746 N   0  0  0  0  0  0  0  0  0  0  0  0
    3.4285   69.4946   81.4494 N   0  0  0  0  0  0  0  0  0  0  0  0
    5.1675   70.5870   81.7006 H   0  0  0  0  0  0  0  0  0  0  0  0
  1  2  1  0  0  0
  2  3  1  0  0  0
  3  4  2  0  0  0
  4  8  1  0  0  0
  8  9  1  0  0  0
  9 10  2  0  0  0
 10 11  1  0  0  0
 11 12  1  0  0  0
 11 13  2  0  0  0
 13 14  1  0  0  0
  4  5  1  0  0  0
  5  6  1  0  0  0
  6  7  2  0  0  0
  7 15  1  0  0  0
 15 16  1  0  0  0
 16 17  2  0  0  0
 17 18  1  0  0  0
 18 19  2  0  0  0
 19 21  1  0  0  0
 21 22  1  0  0  0
 22 23  2  0  0  0
 23 24  1  0  0  0
 24 25  1  0  0  0
 19 20  1  0  0  0
  6  2  1  0  0  0
 20 15  2  0  0  0
 14  8  2  0  0  0
 25 21  2  0  0  0
 24 26  1  0  0  0
M  END
> <minimizedAffinity>
-8.94008

$$$$



 26 29  0  0  0  0  0  0  0  0999 V2000
   -2.0791   62.5714   85.5327 C   0  0  0  0  0  0  0  0  0  0  0  0
   -1.4586   62.6677   84.2292 N   0  0  0  0  0  0  0  0  0  0  0  0
   -2.0514   61.9996   83.1869 N   0  0  0  0  0  0  0  0  0  0  0  0
   -1.4415   62.3179   82.0812 C   0  0  0  0  0  0  0  0  0  0  0  0
   -0.1214   63.4729   82.2223 S   0  0  0  0  0  0  0  0  0  0  0  0
   -0.4432   63.5569   83.9527 C   0  0  0  0  0  0  0  0  0  0  0  0
    0.1601   64.3222   84.8088 N   0  0  0  0  0  0  0  0  0  0  0  0
   -1.8257   61.7576   80.7596 C   0  0  0  0  0  0  0  0  0  0  0  0
   -3.1660   61.8725   80.3546 C   0  0  0  0  0  0  0  0  0  0  0  0
   -3.5859   61.3642   79.1211 C   0  0  0  0  0  0  0  0  0  0  0  0
   -2.6681   60.7366   78.2837 C   0  0  0  0  0  0  0  0  0  0  0  0
   -3.1812   60.1109   76.7665 Cl  0  0  0  0  0  0  0  0  0  0  0  0
   -1.3353   60.6131   78.6698 C   0  0  0  0  0  0  0  0  0  0  0  0
   -0.9135   61.1215   79.9043 C   0  0  0  0  0  0  0  0  0  0  0  0
    1.1822   65.1845   84.3952 C   0  0  0  0  0  0  0  0  0  0  0  0
    0.9354   66.1416   83.4085 C   0  0  0  0  0  0  0  0  0  0  0  0
    1.9416   67.0208   83.0110 C   0  0  0  0  0  0  0  0  0  0  0  0
    3.2003   66.9537   83.6114 C   0  0  0  0  0  0  0  0  0  0  0  0
    3.4622   66.0127   84.6190 C   0  0  0  0  0  0  0  0  0  0  0  0
    2.4385   65.1366   85.0083 C   0  0  0  0  0  0  0  0  0  0  0  0
    4.7711   65.9437   85.2541 C   0  0  0  0  0  0  0  0  0  0  0  0
    4.9594   65.4786   86.5374 N   0  0  0  0  0  0  0  0  0  0  0  0
    6.2583   65.5534   86.7884 N   0  0  0  0  0  0  0  0  0  0  0  0
    6.7874   66.0517   85.6672 N   0  0  0  0  0  0  0  0  0  0  0  0
    5.9276   66.3146   84.6729 N   0  0  0  0  0  0  0  0  0  0  0  0
    7.7855   66.2193   85.5784 H   0  0  0  0  0  0  0  0  0  0  0  0
  1  2  1  0  0  0
  2  3  1  0  0  0
  3  4  2  0  0  0
  4  8  1  0  0  0
  8  9  1  0  0  0
  9 10  2  0  0  0
 10 11  1  0  0  0
 11 12  1  0  0  0
 11 13  2  0  0  0
 13 14  1  0  0  0
  4  5  1  0  0  0
  5  6  1  0  0  0
  6  7  2  0  0  0
  7 15  1  0  0  0
 15 16  1  0  0  0
 16 17  2  0  0  0
 17 18  1  0  0  0
 18 19  2  0  0  0
 19 21  1  0  0  0
 21 22  1  0  0  0
 22 23  2  0  0  0
 23 24  1  0  0  0
 24 25  1  0  0  0
 19 20  1  0  0  0
  6  2  1  0  0  0
 20 15  2  0  0  0
 14  8  2  0  0  0
 25 21  2  0  0  0
 24 26  1  0  0  0
M  END
> <minimizedAffinity>
-8.83742

$$$$



 26 29  0  0  0  0  0  0  0  0999 V2000
    4.8229   66.3483   85.0568 C   0  0  0  0  0  0  0  0  0  0  0  0
    3.4524   66.0995   84.6657 N   0  0  0  0  0  0  0  0  0  0  0  0
    2.7277   65.2004   85.4080 N   0  0  0  0  0  0  0  0  0  0  0  0
    1.4913   65.2167   84.9997 C   0  0  0  0  0  0  0  0  0  0  0  0
    1.1119   66.3443   83.7032 S   0  0  0  0  0  0  0  0  0  0  0  0
    2.7935   66.8701   83.7329 C   0  0  0  0  0  0  0  0  0  0  0  0
    3.3143   67.8156   83.0137 N   0  0  0  0  0  0  0  0  0  0  0  0
    0.4383   64.3472   85.5858 C   0  0  0  0  0  0  0  0  0  0  0  0
   -0.2915   63.5144   84.7212 C   0  0  0  0  0  0  0  0  0  0  0  0
   -1.2944   62.6744   85.2158 C   0  0  0  0  0  0  0  0  0  0  0  0
   -1.5751   62.6616   86.5792 C   0  0  0  0  0  0  0  0  0  0  0  0
   -2.8074   61.6298   87.1903 Cl  0  0  0  0  0  0  0  0  0  0  0  0
   -0.8618   63.4815   87.4507 C   0  0  0  0  0  0  0  0  0  0  0  0
    0.1425   64.3229   86.9570 C   0  0  0  0  0  0  0  0  0  0  0  0
    2.5305   68.5255   82.0966 C   0  0  0  0  0  0  0  0  0  0  0  0
    2.1381   67.9257   80.8979 C   0  0  0  0  0  0  0  0  0  0  0  0
    1.3356   68.6180   79.9922 C   0  0  0  0  0  0  0  0  0  0  0  0
    0.9101   69.9139   80.2900 C   0  0  0  0  0  0  0  0  0  0  0  0
    1.2768   70.5266   81.4981 C   0  0  0  0  0  0  0  0  0  0  0  0
    2.0832   69.8158   82.3990 C   0  0  0  0  0  0  0  0  0  0  0  0
    0.8291   71.8753   81.8171 C   0  0  0  0  0  0  0  0  0  0  0  0
    1.6769   72.8580   82.2802 N   0  0  0  0  0  0  0  0  0  0  0  0
    0.9433   73.9461   82.4628 N   0  0  0  0  0  0  0  0  0  0  0  0
   -0.2922   73.5798   82.1095 N   0  0  0  0  0  0  0  0  0  0  0  0
   -0.4383   72.3131   81.6958 N   0  0  0  0  0  0  0  0  0  0  0  0
   -1.0727   74.2286   82.1531 H   0  0  0  0  0  0  0  0  0  0  0  0
  1  2  1  0  0  0
  2  3  1  0  0  0
  3  4  2  0  0  0
  4  8  1  0  0  0
  8  9  1  0  0  0
  9 10  2  0  0  0
 10 11  1  0  0  0
 11 12  1  0  0  0
 11 13  2  0  0  0
 13 14  1  0  0  0
  4  5  1  0  0  0
  5  6  1  0  0  0
  6  7  2  0  0  0
  7 15  1  0  0  0
 15 16  1  0  0  0
 16 17  2  0  0  0
 17 18  1  0  0  0
 18 19  2  0  0  0
 19 21  1  0  0  0
 21 22  1  0  0  0
 22 23  2  0  0  0
 23 24  1  0  0  0
 24 25  1  0  0  0
 19 20  1  0  0  0
  6  2  1  0  0  0
 20 15  2  0  0  0
 14  8  2  0  0  0
 25 21  2  0  0  0
 24 26  1  0  0  0
M  END
> <minimizedAffinity>
-8.81218

$$$$



 26 29  0  0  0  0  0  0  0  0999 V2000
    0.2352   63.9698   80.9805 C   0  0  0  0  0  0  0  0  0  0  0  0
    0.3582   64.5092   82.3174 N   0  0  0  0  0  0  0  0  0  0  0  0
    0.1292   63.6623   83.3732 N   0  0  0  0  0  0  0  0  0  0  0  0
    0.4246   64.2804   84.4807 C   0  0  0  0  0  0  0  0  0  0  0  0
    1.0280   65.9255   84.3198 S   0  0  0  0  0  0  0  0  0  0  0  0
    0.8940   65.7528   82.5712 C   0  0  0  0  0  0  0  0  0  0  0  0
    1.2435   66.6327   81.6846 N   0  0  0  0  0  0  0  0  0  0  0  0
    0.2776   63.6501   85.8184 C   0  0  0  0  0  0  0  0  0  0  0  0
    1.0896   64.1179   86.8650 C   0  0  0  0  0  0  0  0  0  0  0  0
    0.9952   63.5631   88.1454 C   0  0  0  0  0  0  0  0  0  0  0  0
    0.0879   62.5357   88.3882 C   0  0  0  0  0  0  0  0  0  0  0  0
   -0.0307   61.8518   89.9614 Cl  0  0  0  0  0  0  0  0  0  0  0  0
   -0.7245   62.0591   87.3618 C   0  0  0  0  0  0  0  0  0  0  0  0
   -0.6312   62.6136   86.0796 C   0  0  0  0  0  0  0  0  0  0  0  0
    1.7775   67.8654   82.0779 C   0  0  0  0  0  0  0  0  0  0  0  0
    3.0782   67.9372   82.5816 C   0  0  0  0  0  0  0  0  0  0  0  0
    3.6252   69.1653   82.9502 C   0  0  0  0  0  0  0  0  0  0  0  0
    2.8739   70.3329   82.8034 C   0  0  0  0  0  0  0  0  0  0  0  0
    1.5726   70.2843   82.2803 C   0  0  0  0  0  0  0  0  0  0  0  0
    1.0378   69.0410   81.9128 C   0  0  0  0  0  0  0  0  0  0  0  0
    0.7876   71.5003   82.1177 C   0  0  0  0  0  0  0  0  0  0  0  0
   -0.4223   71.5304   81.4590 N   0  0  0  0  0  0  0  0  0  0  0  0
   -0.8535   72.7826   81.5008 N   0  0  0  0  0  0  0  0  0  0  0  0
    0.0972   73.4416   82.1696 N   0  0  0  0  0  0  0  0  0  0  0  0
    1.1419   72.7119   82.5857 N   0  0  0  0  0  0  0  0  0  0  0  0
    0.0269   74.4388   82.3504 H   0  0  0  0  0  0  0  0  0  0  0  0
  1  2  1  0  0  0
  2  3  1  0  0  0
  3  4  2  0  0  0
  4  8  1  0  0  0
  8  9  1  0  0  0
  9 10  2  0  0  0
 10 11  1  0  0  0
 11 12  1  0  0  0
 11 13  2  0  0  0
 13 14  1  0  0  0
  4  5  1  0  0  0
  5  6  1  0  0  0
  6  7  2  0  0  0
  7 15  1  0  0  0
 15 16  1  0  0  0
 16 17  2  0  0  0
 17 18  1  0  0  0
 18 19  2  0  0  0
 19 21  1  0  0  0
 21 22  1  0  0  0
 22 23  2  0  0  0
 23 24  1  0  0  0
 24 25  1  0  0  0
 19 20  1  0  0  0
  6  2  1  0  0  0
 20 15  2  0  0  0
 14  8  2  0  0  0
 25 21  2  0  0  0
 24 26  1  0  0  0
M  END
> <minimizedAffinity>
-8.80595

$$$$



 26 29  0  0  0  0  0  0  0  0999 V2000
   -0.1435   63.0282   86.6069 C   0  0  0  0  0  0  0  0  0  0  0  0
   -0.1198   63.6503   85.3009 N   0  0  0  0  0  0  0  0  0  0  0  0
    0.6087   64.8045   85.1545 N   0  0  0  0  0  0  0  0  0  0  0  0
    0.6293   65.1327   83.8945 C   0  0  0  0  0  0  0  0  0  0  0  0
   -0.2109   64.0492   82.7916 S   0  0  0  0  0  0  0  0  0  0  0  0
   -0.6097   63.0299   84.1725 C   0  0  0  0  0  0  0  0  0  0  0  0
   -1.2420   61.8981   84.1332 N   0  0  0  0  0  0  0  0  0  0  0  0
    1.3244   66.3452   83.3895 C   0  0  0  0  0  0  0  0  0  0  0  0
    2.0846   67.1007   84.2978 C   0  0  0  0  0  0  0  0  0  0  0  0
    2.7610   68.2514   83.8799 C   0  0  0  0  0  0  0  0  0  0  0  0
    2.6815   68.6551   82.5501 C   0  0  0  0  0  0  0  0  0  0  0  0
    3.5122   70.0691   82.0332 Cl  0  0  0  0  0  0  0  0  0  0  0  0
    1.9316   67.9183   81.6362 C   0  0  0  0  0  0  0  0  0  0  0  0
    1.2540   66.7661   82.0531 C   0  0  0  0  0  0  0  0  0  0  0  0
   -1.6904   61.3758   82.9143 C   0  0  0  0  0  0  0  0  0  0  0  0
   -2.8874   60.6585   82.8570 C   0  0  0  0  0  0  0  0  0  0  0  0
   -3.3527   60.1585   81.6417 C   0  0  0  0  0  0  0  0  0  0  0  0
   -2.6252   60.3865   80.4721 C   0  0  0  0  0  0  0  0  0  0  0  0
   -1.4306   61.1221   80.5055 C   0  0  0  0  0  0  0  0  0  0  0  0
   -0.9773   61.6195   81.7360 C   0  0  0  0  0  0  0  0  0  0  0  0
   -0.6720   61.3696   79.2870 C   0  0  0  0  0  0  0  0  0  0  0  0
    0.1954   62.4307   79.1451 N   0  0  0  0  0  0  0  0  0  0  0  0
    0.7084   62.3496   77.9261 N   0  0  0  0  0  0  0  0  0  0  0  0
    0.1385   61.2641   77.3949 N   0  0  0  0  0  0  0  0  0  0  0  0
   -0.7246   60.6044   78.1805 N   0  0  0  0  0  0  0  0  0  0  0  0
    0.3512   60.9599   76.4492 H   0  0  0  0  0  0  0  0  0  0  0  0
  1  2  1  0  0  0
  2  3  1  0  0  0
  3  4  2  0  0  0
  4  8  1  0  0  0
  8  9  1  0  0  0
  9 10  2  0  0  0
 10 11  1  0  0  0
 11 12  1  0  0  0
 11 13  2  0  0  0
 13 14  1  0  0  0
  4  5  1  0  0  0
  5  6  1  0  0  0
  6  7  2  0  0  0
  7 15  1  0  0  0
 15 16  1  0  0  0
 16 17  2  0  0  0
 17 18  1  0  0  0
 18 19  2  0  0  0
 19 21  1  0  0  0
 21 22  1  0  0  0
 22 23  2  0  0  0
 23 24  1  0  0  0
 24 25  1  0  0  0
 19 20  1  0  0  0
  6  2  1  0  0  0
 20 15  2  0  0  0
 14  8  2  0  0  0
 25 21  2  0  0  0
 24 26  1  0  0  0
M  END
> <minimizedAffinity>
-8.80434

$$$$
