


 35 38  0  0  0  0  0  0  0  0999 V2000
    0.0294   64.0775   85.0796 C   0  0  0  0  0  0  0  0  0  0  0  0
   -0.5755   63.5580   83.9158 C   0  0  0  0  0  0  0  0  0  0  0  0
   -1.6443   62.6543   83.9784 C   0  0  0  0  0  0  0  0  0  0  0  0
   -2.1157   62.2755   85.2376 C   0  0  0  0  0  0  0  0  0  0  0  0
   -1.5295   62.7782   86.4048 C   0  0  0  0  0  0  0  0  0  0  0  0
   -0.4576   63.6780   86.3429 C   0  0  0  0  0  0  0  0  0  0  0  0
    2.3740   67.9829   83.1181 C   0  0  0  0  0  0  0  0  0  0  0  0
    3.6067   68.4843   83.3272 N   0  0  0  0  0  0  0  0  0  0  0  0
    4.1445   67.6581   84.2587 N   0  0  0  0  0  0  0  0  0  0  0  0
    5.4841   67.8922   84.7413 C   0  0  0  0  0  0  0  0  0  0  0  0
    3.3020   66.6606   84.6361 C   0  0  0  0  0  0  0  0  0  0  0  0
    3.4564   65.6016   85.5623 C   0  0  0  0  0  0  0  0  0  0  0  0
    4.4521   65.3792   86.2409 O   0  0  0  0  0  0  0  0  0  0  0  0
    2.3242   64.8223   85.6201 N   0  0  0  0  0  0  0  0  0  0  0  0
    1.1715   65.0421   84.8721 C   0  0  0  0  0  0  0  0  0  0  0  0
    1.0399   66.0234   84.0193 N   0  0  0  0  0  0  0  0  0  0  0  0
    2.1611   66.8476   83.9166 C   0  0  0  0  0  0  0  0  0  0  0  0
    2.3587   64.0450   86.2665 H   0  0  0  0  0  0  0  0  0  0  0  0
    1.4436   68.6190   82.1437 C   0  0  0  0  0  0  0  0  0  0  0  0
   -0.1197   67.0501   80.8840 C   0  0  0  0  0  0  0  0  0  0  0  0
    1.2137   67.7850   80.8811 C   0  0  0  0  0  0  0  0  0  0  0  0
   -2.2525   62.1492   82.7403 C   0  0  0  0  0  0  0  0  0  0  0  0
   -2.6879   62.8645   81.6406 C   0  0  0  0  0  0  0  0  0  0  0  0
   -3.2083   62.0261   80.6129 C   0  0  0  0  0  0  0  0  0  0  0  0
   -3.1501   60.6854   80.9414 C   0  0  0  0  0  0  0  0  0  0  0  0
   -2.4661   60.4646   82.4952 S   0  0  0  0  0  0  0  0  0  0  0  0
   -3.5934   59.5711   80.1181 C   0  0  0  0  0  0  0  0  0  0  0  0
   -3.2110   58.4101   80.2796 O   0  0  0  0  0  0  0  0  0  0  0  0
   -4.5117   59.8600   79.1308 N   0  0  0  0  0  0  0  0  0  0  0  0
   -5.0883   58.7568   78.4593 O   0  0  0  0  0  0  0  0  0  0  0  0
   -5.0280   60.7325   79.1161 H   0  0  0  0  0  0  0  0  0  0  0  0
   -4.6184   57.9945   78.8643 H   0  0  0  0  0  0  0  0  0  0  0  0
    0.1499   64.1992   87.4575 O   0  0  0  0  0  0  0  0  0  0  0  0
   -0.2862   63.7505   88.7426 C   0  0  0  0  0  0  0  0  0  0  0  0
    0.6222   62.6103   89.1667 C   0  0  0  0  0  0  0  0  0  0  0  0
 20 21  1  0  0  0
 21 19  1  0  0  0
 19  7  1  0  0  0
  7  8  2  0  0  0
  8  9  1  0  0  0
  9 10  1  0  0  0
  9 11  1  0  0  0
 11 12  1  0  0  0
 12 13  2  0  0  0
 12 14  1  0  0  0
 14 15  1  0  0  0
 15  1  1  0  0  0
  1  2  1  0  0  0
  2  3  2  0  0  0
  3 22  1  0  0  0
 22 23  2  0  0  0
 23 24  1  0  0  0
 24 25  2  0  0  0
 25 27  1  0  0  0
 27 28  2  0  0  0
 27 29  1  0  0  0
 29 30  1  0  0  0
 25 26  1  0  0  0
  3  4  1  0  0  0
  4  5  2  0  0  0
  5  6  1  0  0  0
  6 33  1  0  0  0
 33 34  1  0  0  0
 34 35  1  0  0  0
 15 16  2  0  0  0
 16 17  1  0  0  0
 17  7  1  0  0  0
 17 11  2  0  0  0
  6  1  2  0  0  0
 26 22  1  0  0  0
 14 18  1  0  0  0
 29 31  1  0  0  0
 30 32  1  0  0  0
M  END
> <minimizedAffinity>
-10.63586

$$$$



 35 38  0  0  0  0  0  0  0  0999 V2000
    0.6173   64.2105   83.8833 C   0  0  0  0  0  0  0  0  0  0  0  0
    0.2537   63.5509   82.6905 C   0  0  0  0  0  0  0  0  0  0  0  0
   -0.5164   62.3805   82.6981 C   0  0  0  0  0  0  0  0  0  0  0  0
   -0.9335   61.8725   83.9307 C   0  0  0  0  0  0  0  0  0  0  0  0
   -0.5831   62.5108   85.1259 C   0  0  0  0  0  0  0  0  0  0  0  0
    0.1910   63.6784   85.1192 C   0  0  0  0  0  0  0  0  0  0  0  0
    4.4326   67.2562   84.7578 C   0  0  0  0  0  0  0  0  0  0  0  0
    4.7385   68.4718   84.2644 N   0  0  0  0  0  0  0  0  0  0  0  0
    3.7265   68.7416   83.4026 N   0  0  0  0  0  0  0  0  0  0  0  0
    3.7176   69.9842   82.6689 C   0  0  0  0  0  0  0  0  0  0  0  0
    2.8007   67.7486   83.3406 C   0  0  0  0  0  0  0  0  0  0  0  0
    1.6097   67.6215   82.5866 C   0  0  0  0  0  0  0  0  0  0  0  0
    1.1683   68.4459   81.7949 O   0  0  0  0  0  0  0  0  0  0  0  0
    0.9802   66.4266   82.8488 N   0  0  0  0  0  0  0  0  0  0  0  0
    1.4487   65.4614   83.7349 C   0  0  0  0  0  0  0  0  0  0  0  0
    2.5502   65.5895   84.4263 N   0  0  0  0  0  0  0  0  0  0  0  0
    3.2314   66.7864   84.2024 C   0  0  0  0  0  0  0  0  0  0  0  0
    0.1208   66.2625   82.3411 H   0  0  0  0  0  0  0  0  0  0  0  0
    5.3139   66.5919   85.7586 C   0  0  0  0  0  0  0  0  0  0  0  0
    7.5255   65.8720   84.7183 C   0  0  0  0  0  0  0  0  0  0  0  0
    6.1401   65.4409   85.1799 C   0  0  0  0  0  0  0  0  0  0  0  0
   -0.8830   61.7343   81.4308 C   0  0  0  0  0  0  0  0  0  0  0  0
   -0.0959   61.5175   80.3154 C   0  0  0  0  0  0  0  0  0  0  0  0
   -0.7944   60.8384   79.2758 C   0  0  0  0  0  0  0  0  0  0  0  0
   -2.0984   60.5386   79.6204 C   0  0  0  0  0  0  0  0  0  0  0  0
   -2.4560   61.0889   81.2016 S   0  0  0  0  0  0  0  0  0  0  0  0
   -3.0772   59.8503   78.7933 C   0  0  0  0  0  0  0  0  0  0  0  0
   -2.8711   59.5246   77.6220 O   0  0  0  0  0  0  0  0  0  0  0  0
   -4.2793   59.5362   79.3915 N   0  0  0  0  0  0  0  0  0  0  0  0
   -5.1536   58.7016   78.6569 O   0  0  0  0  0  0  0  0  0  0  0  0
   -4.4022   59.5644   80.3974 H   0  0  0  0  0  0  0  0  0  0  0  0
   -4.6674   58.5793   77.8116 H   0  0  0  0  0  0  0  0  0  0  0  0
    0.5595   64.3409   86.2631 O   0  0  0  0  0  0  0  0  0  0  0  0
   -0.1853   64.0996   87.4589 C   0  0  0  0  0  0  0  0  0  0  0  0
    0.7130   63.3378   88.4169 C   0  0  0  0  0  0  0  0  0  0  0  0
 20 21  1  0  0  0
 21 19  1  0  0  0
 19  7  1  0  0  0
  7  8  2  0  0  0
  8  9  1  0  0  0
  9 10  1  0  0  0
  9 11  1  0  0  0
 11 12  1  0  0  0
 12 13  2  0  0  0
 12 14  1  0  0  0
 14 15  1  0  0  0
 15  1  1  0  0  0
  1  2  1  0  0  0
  2  3  2  0  0  0
  3 22  1  0  0  0
 22 23  2  0  0  0
 23 24  1  0  0  0
 24 25  2  0  0  0
 25 27  1  0  0  0
 27 28  2  0  0  0
 27 29  1  0  0  0
 29 30  1  0  0  0
 25 26  1  0  0  0
  3  4  1  0  0  0
  4  5  2  0  0  0
  5  6  1  0  0  0
  6 33  1  0  0  0
 33 34  1  0  0  0
 34 35  1  0  0  0
 15 16  2  0  0  0
 16 17  1  0  0  0
 17  7  1  0  0  0
 17 11  2  0  0  0
  6  1  2  0  0  0
 26 22  1  0  0  0
 14 18  1  0  0  0
 29 31  1  0  0  0
 30 32  1  0  0  0
M  END
> <minimizedAffinity>
-10.60494

$$$$



 35 38  0  0  0  0  0  0  0  0999 V2000
   -0.1148   63.5632   83.6642 C   0  0  0  0  0  0  0  0  0  0  0  0
    0.4793   64.7349   83.1501 C   0  0  0  0  0  0  0  0  0  0  0  0
    1.0950   65.6784   83.9829 C   0  0  0  0  0  0  0  0  0  0  0  0
    1.1185   65.4302   85.3574 C   0  0  0  0  0  0  0  0  0  0  0  0
    0.5343   64.2746   85.8884 C   0  0  0  0  0  0  0  0  0  0  0  0
   -0.0858   63.3332   85.0566 C   0  0  0  0  0  0  0  0  0  0  0  0
   -0.7419   61.4098   79.2408 C   0  0  0  0  0  0  0  0  0  0  0  0
   -1.6070   60.4673   78.8190 N   0  0  0  0  0  0  0  0  0  0  0  0
   -2.3445   60.1805   79.9206 N   0  0  0  0  0  0  0  0  0  0  0  0
   -3.3910   59.1897   79.8486 C   0  0  0  0  0  0  0  0  0  0  0  0
   -1.9794   60.9067   81.0099 C   0  0  0  0  0  0  0  0  0  0  0  0
   -2.4744   60.9235   82.3357 C   0  0  0  0  0  0  0  0  0  0  0  0
   -3.3887   60.2335   82.7708 O   0  0  0  0  0  0  0  0  0  0  0  0
   -1.7903   61.8314   83.1105 N   0  0  0  0  0  0  0  0  0  0  0  0
   -0.7440   62.6299   82.6588 C   0  0  0  0  0  0  0  0  0  0  0  0
   -0.2950   62.6062   81.4318 N   0  0  0  0  0  0  0  0  0  0  0  0
   -0.9548   61.7031   80.5975 C   0  0  0  0  0  0  0  0  0  0  0  0
   -2.0867   61.8965   84.0755 H   0  0  0  0  0  0  0  0  0  0  0  0
    0.2604   62.0009   78.3104 C   0  0  0  0  0  0  0  0  0  0  0  0
    0.6490   64.5171   78.4093 C   0  0  0  0  0  0  0  0  0  0  0  0
   -0.1375   63.3782   77.7748 C   0  0  0  0  0  0  0  0  0  0  0  0
    1.7130   66.8781   83.4025 C   0  0  0  0  0  0  0  0  0  0  0  0
    2.4158   67.8808   84.0438 C   0  0  0  0  0  0  0  0  0  0  0  0
    2.8861   68.8810   83.1448 C   0  0  0  0  0  0  0  0  0  0  0  0
    2.5442   68.6181   81.8322 C   0  0  0  0  0  0  0  0  0  0  0  0
    1.6542   67.1606   81.7113 S   0  0  0  0  0  0  0  0  0  0  0  0
    2.8702   69.4324   80.6718 C   0  0  0  0  0  0  0  0  0  0  0  0
    2.1844   69.4645   79.6475 O   0  0  0  0  0  0  0  0  0  0  0  0
    3.9986   70.2192   80.7669 N   0  0  0  0  0  0  0  0  0  0  0  0
    4.2106   71.1516   79.7247 O   0  0  0  0  0  0  0  0  0  0  0  0
    4.4485   70.4079   81.6557 H   0  0  0  0  0  0  0  0  0  0  0  0
    3.4635   70.9602   79.1156 H   0  0  0  0  0  0  0  0  0  0  0  0
   -0.6715   62.1855   85.5285 O   0  0  0  0  0  0  0  0  0  0  0  0
   -1.3088   62.2231   86.8073 C   0  0  0  0  0  0  0  0  0  0  0  0
   -2.7138   62.7627   86.6077 C   0  0  0  0  0  0  0  0  0  0  0  0
 20 21  1  0  0  0
 21 19  1  0  0  0
 19  7  1  0  0  0
  7  8  2  0  0  0
  8  9  1  0  0  0
  9 10  1  0  0  0
  9 11  1  0  0  0
 11 12  1  0  0  0
 12 13  2  0  0  0
 12 14  1  0  0  0
 14 15  1  0  0  0
 15  1  1  0  0  0
  1  2  1  0  0  0
  2  3  2  0  0  0
  3 22  1  0  0  0
 22 23  2  0  0  0
 23 24  1  0  0  0
 24 25  2  0  0  0
 25 27  1  0  0  0
 27 28  2  0  0  0
 27 29  1  0  0  0
 29 30  1  0  0  0
 25 26  1  0  0  0
  3  4  1  0  0  0
  4  5  2  0  0  0
  5  6  1  0  0  0
  6 33  1  0  0  0
 33 34  1  0  0  0
 34 35  1  0  0  0
 15 16  2  0  0  0
 16 17  1  0  0  0
 17  7  1  0  0  0
 17 11  2  0  0  0
  6  1  2  0  0  0
 26 22  1  0  0  0
 14 18  1  0  0  0
 29 31  1  0  0  0
 30 32  1  0  0  0
M  END
> <minimizedAffinity>
-10.36375

$$$$



 35 38  0  0  0  0  0  0  0  0999 V2000
    0.0260   63.2297   83.7481 C   0  0  0  0  0  0  0  0  0  0  0  0
    1.0745   64.1667   83.6339 C   0  0  0  0  0  0  0  0  0  0  0  0
    1.5447   64.8884   84.7388 C   0  0  0  0  0  0  0  0  0  0  0  0
    0.9516   64.6537   85.9817 C   0  0  0  0  0  0  0  0  0  0  0  0
   -0.0904   63.7293   86.1168 C   0  0  0  0  0  0  0  0  0  0  0  0
   -0.5642   63.0109   85.0115 C   0  0  0  0  0  0  0  0  0  0  0  0
    0.0422   62.2455   78.8872 C   0  0  0  0  0  0  0  0  0  0  0  0
   -0.6416   61.3457   78.1541 N   0  0  0  0  0  0  0  0  0  0  0  0
   -1.4055   60.6917   79.0642 N   0  0  0  0  0  0  0  0  0  0  0  0
   -2.2862   59.6318   78.6364 C   0  0  0  0  0  0  0  0  0  0  0  0
   -1.2306   61.1478   80.3325 C   0  0  0  0  0  0  0  0  0  0  0  0
   -1.8163   60.7561   81.5600 C   0  0  0  0  0  0  0  0  0  0  0  0
   -2.6474   59.8682   81.7093 O   0  0  0  0  0  0  0  0  0  0  0  0
   -1.3311   61.5080   82.6049 N   0  0  0  0  0  0  0  0  0  0  0  0
   -0.3847   62.5206   82.4807 C   0  0  0  0  0  0  0  0  0  0  0  0
    0.1495   62.8742   81.3417 N   0  0  0  0  0  0  0  0  0  0  0  0
   -0.3081   62.1454   80.2433 C   0  0  0  0  0  0  0  0  0  0  0  0
   -1.7021   61.2813   83.5183 H   0  0  0  0  0  0  0  0  0  0  0  0
    1.0102   63.1791   78.2459 C   0  0  0  0  0  0  0  0  0  0  0  0
   -0.6454   64.8039   77.1919 C   0  0  0  0  0  0  0  0  0  0  0  0
    0.5094   64.6232   78.1676 C   0  0  0  0  0  0  0  0  0  0  0  0
    2.6480   65.8445   84.5761 C   0  0  0  0  0  0  0  0  0  0  0  0
    2.6265   67.0907   83.9786 C   0  0  0  0  0  0  0  0  0  0  0  0
    3.8925   67.7428   84.0262 C   0  0  0  0  0  0  0  0  0  0  0  0
    4.8545   66.9879   84.6693 C   0  0  0  0  0  0  0  0  0  0  0  0
    4.2063   65.4963   85.2040 S   0  0  0  0  0  0  0  0  0  0  0  0
    6.2430   67.3601   84.8914 C   0  0  0  0  0  0  0  0  0  0  0  0
    6.6136   68.0912   85.8125 O   0  0  0  0  0  0  0  0  0  0  0  0
    7.1717   66.8267   84.0227 N   0  0  0  0  0  0  0  0  0  0  0  0
    8.5332   67.0277   84.3491 O   0  0  0  0  0  0  0  0  0  0  0  0
    6.9517   66.0462   83.4141 H   0  0  0  0  0  0  0  0  0  0  0  0
    8.4763   67.5842   85.1571 H   0  0  0  0  0  0  0  0  0  0  0  0
   -1.5819   62.0940   85.0927 O   0  0  0  0  0  0  0  0  0  0  0  0
   -2.7912   62.4763   85.7519 C   0  0  0  0  0  0  0  0  0  0  0  0
   -2.7304   61.9459   87.1731 C   0  0  0  0  0  0  0  0  0  0  0  0
 20 21  1  0  0  0
 21 19  1  0  0  0
 19  7  1  0  0  0
  7  8  2  0  0  0
  8  9  1  0  0  0
  9 10  1  0  0  0
  9 11  1  0  0  0
 11 12  1  0  0  0
 12 13  2  0  0  0
 12 14  1  0  0  0
 14 15  1  0  0  0
 15  1  1  0  0  0
  1  2  1  0  0  0
  2  3  2  0  0  0
  3 22  1  0  0  0
 22 23  2  0  0  0
 23 24  1  0  0  0
 24 25  2  0  0  0
 25 27  1  0  0  0
 27 28  2  0  0  0
 27 29  1  0  0  0
 29 30  1  0  0  0
 25 26  1  0  0  0
  3  4  1  0  0  0
  4  5  2  0  0  0
  5  6  1  0  0  0
  6 33  1  0  0  0
 33 34  1  0  0  0
 34 35  1  0  0  0
 15 16  2  0  0  0
 16 17  1  0  0  0
 17  7  1  0  0  0
 17 11  2  0  0  0
  6  1  2  0  0  0
 26 22  1  0  0  0
 14 18  1  0  0  0
 29 31  1  0  0  0
 30 32  1  0  0  0
M  END
> <minimizedAffinity>
-10.24056

$$$$



 35 38  0  0  0  0  0  0  0  0999 V2000
    2.3268   66.3501   84.3466 C   0  0  0  0  0  0  0  0  0  0  0  0
    1.6901   67.3918   83.6399 C   0  0  0  0  0  0  0  0  0  0  0  0
    2.4025   68.4904   83.1414 C   0  0  0  0  0  0  0  0  0  0  0  0
    3.7827   68.5332   83.3528 C   0  0  0  0  0  0  0  0  0  0  0  0
    4.4340   67.5107   84.0519 C   0  0  0  0  0  0  0  0  0  0  0  0
    3.7214   66.4145   84.5549 C   0  0  0  0  0  0  0  0  0  0  0  0
   -0.8497   62.5660   83.9138 C   0  0  0  0  0  0  0  0  0  0  0  0
   -1.4187   61.7653   84.8358 N   0  0  0  0  0  0  0  0  0  0  0  0
   -0.9215   62.2154   86.0147 N   0  0  0  0  0  0  0  0  0  0  0  0
   -1.3136   61.5818   87.2504 C   0  0  0  0  0  0  0  0  0  0  0  0
   -0.0704   63.2649   85.8679 C   0  0  0  0  0  0  0  0  0  0  0  0
    0.6570   64.0233   86.8160 C   0  0  0  0  0  0  0  0  0  0  0  0
    0.6492   63.8554   88.0297 O   0  0  0  0  0  0  0  0  0  0  0  0
    1.4017   65.0040   86.2027 N   0  0  0  0  0  0  0  0  0  0  0  0
    1.4436   65.2256   84.8295 C   0  0  0  0  0  0  0  0  0  0  0  0
    0.7673   64.5189   83.9629 N   0  0  0  0  0  0  0  0  0  0  0  0
   -0.0103   63.5084   84.5295 C   0  0  0  0  0  0  0  0  0  0  0  0
    1.9538   65.5860   86.8189 H   0  0  0  0  0  0  0  0  0  0  0  0
   -1.1447   62.3943   82.4636 C   0  0  0  0  0  0  0  0  0  0  0  0
    1.0735   61.2470   81.9579 C   0  0  0  0  0  0  0  0  0  0  0  0
   -0.4429   61.1888   81.8336 C   0  0  0  0  0  0  0  0  0  0  0  0
    1.7002   69.5459   82.3994 C   0  0  0  0  0  0  0  0  0  0  0  0
    0.6591   69.4188   81.4990 C   0  0  0  0  0  0  0  0  0  0  0  0
    0.2185   70.6747   80.9905 C   0  0  0  0  0  0  0  0  0  0  0  0
    0.9228   71.7386   81.5205 C   0  0  0  0  0  0  0  0  0  0  0  0
    2.1115   71.1960   82.6267 S   0  0  0  0  0  0  0  0  0  0  0  0
    0.7236   73.1472   81.2172 C   0  0  0  0  0  0  0  0  0  0  0  0
    1.2508   73.7195   80.2607 O   0  0  0  0  0  0  0  0  0  0  0  0
   -0.1283   73.8433   82.0487 N   0  0  0  0  0  0  0  0  0  0  0  0
   -0.4747   75.1545   81.6468 O   0  0  0  0  0  0  0  0  0  0  0  0
   -0.7601   73.3723   82.6865 H   0  0  0  0  0  0  0  0  0  0  0  0
    0.0586   75.2723   80.8298 H   0  0  0  0  0  0  0  0  0  0  0  0
    4.3139   65.3873   85.2455 O   0  0  0  0  0  0  0  0  0  0  0  0
    5.6413   65.5769   85.7405 C   0  0  0  0  0  0  0  0  0  0  0  0
    5.5659   65.6325   87.2558 C   0  0  0  0  0  0  0  0  0  0  0  0
 20 21  1  0  0  0
 21 19  1  0  0  0
 19  7  1  0  0  0
  7  8  2  0  0  0
  8  9  1  0  0  0
  9 10  1  0  0  0
  9 11  1  0  0  0
 11 12  1  0  0  0
 12 13  2  0  0  0
 12 14  1  0  0  0
 14 15  1  0  0  0
 15  1  1  0  0  0
  1  2  1  0  0  0
  2  3  2  0  0  0
  3 22  1  0  0  0
 22 23  2  0  0  0
 23 24  1  0  0  0
 24 25  2  0  0  0
 25 27  1  0  0  0
 27 28  2  0  0  0
 27 29  1  0  0  0
 29 30  1  0  0  0
 25 26  1  0  0  0
  3  4  1  0  0  0
  4  5  2  0  0  0
  5  6  1  0  0  0
  6 33  1  0  0  0
 33 34  1  0  0  0
 34 35  1  0  0  0
 15 16  2  0  0  0
 16 17  1  0  0  0
 17  7  1  0  0  0
 17 11  2  0  0  0
  6  1  2  0  0  0
 26 22  1  0  0  0
 14 18  1  0  0  0
 29 31  1  0  0  0
 30 32  1  0  0  0
M  END
> <minimizedAffinity>
-10.22426

$$$$



 35 38  0  0  0  0  0  0  0  0999 V2000
    0.5188   65.4608   82.3688 C   0  0  0  0  0  0  0  0  0  0  0  0
    1.5379   65.6089   83.3330 C   0  0  0  0  0  0  0  0  0  0  0  0
    2.3779   66.7300   83.3547 C   0  0  0  0  0  0  0  0  0  0  0  0
    2.1797   67.7222   82.3915 C   0  0  0  0  0  0  0  0  0  0  0  0
    1.1751   67.5947   81.4255 C   0  0  0  0  0  0  0  0  0  0  0  0
    0.3381   66.4716   81.4003 C   0  0  0  0  0  0  0  0  0  0  0  0
   -2.4175   62.1046   84.5393 C   0  0  0  0  0  0  0  0  0  0  0  0
   -2.9751   60.9696   84.0748 N   0  0  0  0  0  0  0  0  0  0  0  0
   -2.5560   60.9000   82.7868 N   0  0  0  0  0  0  0  0  0  0  0  0
   -2.9670   59.7952   81.9545 C   0  0  0  0  0  0  0  0  0  0  0  0
   -1.7578   61.9404   82.4294 C   0  0  0  0  0  0  0  0  0  0  0  0
   -1.1159   62.2545   81.2077 C   0  0  0  0  0  0  0  0  0  0  0  0
   -1.1705   61.5951   80.1764 O   0  0  0  0  0  0  0  0  0  0  0  0
   -0.3994   63.4245   81.3088 N   0  0  0  0  0  0  0  0  0  0  0  0
   -0.3150   64.2058   82.4572 C   0  0  0  0  0  0  0  0  0  0  0  0
   -0.9120   63.9059   83.5803 N   0  0  0  0  0  0  0  0  0  0  0  0
   -1.6535   62.7247   83.5375 C   0  0  0  0  0  0  0  0  0  0  0  0
    0.0849   63.7166   80.4701 H   0  0  0  0  0  0  0  0  0  0  0  0
   -2.6395   62.5477   85.9443 C   0  0  0  0  0  0  0  0  0  0  0  0
   -0.7691   63.5962   87.3207 C   0  0  0  0  0  0  0  0  0  0  0  0
   -1.4369   62.3077   86.8602 C   0  0  0  0  0  0  0  0  0  0  0  0
    3.4176   66.8489   84.3856 C   0  0  0  0  0  0  0  0  0  0  0  0
    4.0030   67.9949   84.8900 C   0  0  0  0  0  0  0  0  0  0  0  0
    4.9671   67.7176   85.9018 C   0  0  0  0  0  0  0  0  0  0  0  0
    5.0918   66.3661   86.1600 C   0  0  0  0  0  0  0  0  0  0  0  0
    4.0374   65.4530   85.1672 S   0  0  0  0  0  0  0  0  0  0  0  0
    5.9801   65.7475   87.1317 C   0  0  0  0  0  0  0  0  0  0  0  0
    7.1885   65.5881   86.9456 O   0  0  0  0  0  0  0  0  0  0  0  0
    5.4120   65.3548   88.3253 N   0  0  0  0  0  0  0  0  0  0  0  0
    6.3008   64.9335   89.3417 O   0  0  0  0  0  0  0  0  0  0  0  0
    4.4956   65.6772   88.6157 H   0  0  0  0  0  0  0  0  0  0  0  0
    7.1736   64.9850   88.8930 H   0  0  0  0  0  0  0  0  0  0  0  0
   -0.6607   66.3009   80.4749 O   0  0  0  0  0  0  0  0  0  0  0  0
   -0.3416   66.4650   79.0914 C   0  0  0  0  0  0  0  0  0  0  0  0
    0.5545   65.3092   78.6836 C   0  0  0  0  0  0  0  0  0  0  0  0
 20 21  1  0  0  0
 21 19  1  0  0  0
 19  7  1  0  0  0
  7  8  2  0  0  0
  8  9  1  0  0  0
  9 10  1  0  0  0
  9 11  1  0  0  0
 11 12  1  0  0  0
 12 13  2  0  0  0
 12 14  1  0  0  0
 14 15  1  0  0  0
 15  1  1  0  0  0
  1  2  1  0  0  0
  2  3  2  0  0  0
  3 22  1  0  0  0
 22 23  2  0  0  0
 23 24  1  0  0  0
 24 25  2  0  0  0
 25 27  1  0  0  0
 27 28  2  0  0  0
 27 29  1  0  0  0
 29 30  1  0  0  0
 25 26  1  0  0  0
  3  4  1  0  0  0
  4  5  2  0  0  0
  5  6  1  0  0  0
  6 33  1  0  0  0
 33 34  1  0  0  0
 34 35  1  0  0  0
 15 16  2  0  0  0
 16 17  1  0  0  0
 17  7  1  0  0  0
 17 11  2  0  0  0
  6  1  2  0  0  0
 26 22  1  0  0  0
 14 18  1  0  0  0
 29 31  1  0  0  0
 30 32  1  0  0  0
M  END
> <minimizedAffinity>
-10.03047

$$$$



 35 38  0  0  0  0  0  0  0  0999 V2000
    0.2356   64.1983   84.5056 C   0  0  0  0  0  0  0  0  0  0  0  0
   -0.2044   63.7089   83.2578 C   0  0  0  0  0  0  0  0  0  0  0  0
   -1.2562   62.7891   83.1536 C   0  0  0  0  0  0  0  0  0  0  0  0
   -1.8795   62.3631   84.3289 C   0  0  0  0  0  0  0  0  0  0  0  0
   -1.4581   62.8354   85.5770 C   0  0  0  0  0  0  0  0  0  0  0  0
   -0.4033   63.7513   85.6822 C   0  0  0  0  0  0  0  0  0  0  0  0
    2.6756   68.2800   83.0972 C   0  0  0  0  0  0  0  0  0  0  0  0
    3.8813   68.7677   83.4483 N   0  0  0  0  0  0  0  0  0  0  0  0
    4.3550   67.8635   84.3413 N   0  0  0  0  0  0  0  0  0  0  0  0
    5.6492   68.0608   84.9482 C   0  0  0  0  0  0  0  0  0  0  0  0
    3.4986   66.8308   84.5589 C   0  0  0  0  0  0  0  0  0  0  0  0
    3.5935   65.6929   85.3952 C   0  0  0  0  0  0  0  0  0  0  0  0
    4.5355   65.4157   86.1281 O   0  0  0  0  0  0  0  0  0  0  0  0
    2.4707   64.9047   85.2921 N   0  0  0  0  0  0  0  0  0  0  0  0
    1.3777   65.1846   84.4776 C   0  0  0  0  0  0  0  0  0  0  0  0
    1.3007   66.2387   83.7090 N   0  0  0  0  0  0  0  0  0  0  0  0
    2.4156   67.0755   83.7707 C   0  0  0  0  0  0  0  0  0  0  0  0
    2.4645   64.0721   85.8664 H   0  0  0  0  0  0  0  0  0  0  0  0
    1.8165   68.9965   82.1132 C   0  0  0  0  0  0  0  0  0  0  0  0
    2.8763   70.0007   80.0250 C   0  0  0  0  0  0  0  0  0  0  0  0
    2.4926   70.2162   81.4826 C   0  0  0  0  0  0  0  0  0  0  0  0
   -1.6903   62.3164   81.8322 C   0  0  0  0  0  0  0  0  0  0  0  0
   -2.9420   62.4082   81.2532 C   0  0  0  0  0  0  0  0  0  0  0  0
   -2.9812   61.8518   79.9422 C   0  0  0  0  0  0  0  0  0  0  0  0
   -1.7562   61.3559   79.5393 C   0  0  0  0  0  0  0  0  0  0  0  0
   -0.5763   61.5713   80.7610 S   0  0  0  0  0  0  0  0  0  0  0  0
   -1.4526   60.7278   78.2629 C   0  0  0  0  0  0  0  0  0  0  0  0
   -1.7818   61.2035   77.1739 O   0  0  0  0  0  0  0  0  0  0  0  0
   -0.7329   59.5525   78.3088 N   0  0  0  0  0  0  0  0  0  0  0  0
   -0.2710   59.0436   77.0726 O   0  0  0  0  0  0  0  0  0  0  0  0
   -0.2411   59.2561   79.1444 H   0  0  0  0  0  0  0  0  0  0  0  0
   -0.6482   59.6822   76.4277 H   0  0  0  0  0  0  0  0  0  0  0  0
    0.0457   64.2441   86.8816 O   0  0  0  0  0  0  0  0  0  0  0  0
   -0.5411   63.7440   88.0852 C   0  0  0  0  0  0  0  0  0  0  0  0
    0.5240   62.9549   88.8254 C   0  0  0  0  0  0  0  0  0  0  0  0
 20 21  1  0  0  0
 21 19  1  0  0  0
 19  7  1  0  0  0
  7  8  2  0  0  0
  8  9  1  0  0  0
  9 10  1  0  0  0
  9 11  1  0  0  0
 11 12  1  0  0  0
 12 13  2  0  0  0
 12 14  1  0  0  0
 14 15  1  0  0  0
 15  1  1  0  0  0
  1  2  1  0  0  0
  2  3  2  0  0  0
  3 22  1  0  0  0
 22 23  2  0  0  0
 23 24  1  0  0  0
 24 25  2  0  0  0
 25 27  1  0  0  0
 27 28  2  0  0  0
 27 29  1  0  0  0
 29 30  1  0  0  0
 25 26  1  0  0  0
  3  4  1  0  0  0
  4  5  2  0  0  0
  5  6  1  0  0  0
  6 33  1  0  0  0
 33 34  1  0  0  0
 34 35  1  0  0  0
 15 16  2  0  0  0
 16 17  1  0  0  0
 17  7  1  0  0  0
 17 11  2  0  0  0
  6  1  2  0  0  0
 26 22  1  0  0  0
 14 18  1  0  0  0
 29 31  1  0  0  0
 30 32  1  0  0  0
M  END
> <minimizedAffinity>
-9.93080

$$$$



 35 38  0  0  0  0  0  0  0  0999 V2000
    0.4158   65.2938   81.8746 C   0  0  0  0  0  0  0  0  0  0  0  0
    0.0352   64.8523   83.1593 C   0  0  0  0  0  0  0  0  0  0  0  0
   -0.4791   63.5674   83.3772 C   0  0  0  0  0  0  0  0  0  0  0  0
   -0.6030   62.7111   82.2805 C   0  0  0  0  0  0  0  0  0  0  0  0
   -0.2321   63.1293   80.9975 C   0  0  0  0  0  0  0  0  0  0  0  0
    0.2776   64.4156   80.7782 C   0  0  0  0  0  0  0  0  0  0  0  0
    3.5283   69.0379   82.8187 C   0  0  0  0  0  0  0  0  0  0  0  0
    3.5472   70.3153   82.3914 N   0  0  0  0  0  0  0  0  0  0  0  0
    2.4655   70.4066   81.5783 N   0  0  0  0  0  0  0  0  0  0  0  0
    2.1612   71.6552   80.9222 C   0  0  0  0  0  0  0  0  0  0  0  0
    1.7706   69.2424   81.4835 C   0  0  0  0  0  0  0  0  0  0  0  0
    0.6033   68.9023   80.7591 C   0  0  0  0  0  0  0  0  0  0  0  0
   -0.0366   69.6534   80.0327 O   0  0  0  0  0  0  0  0  0  0  0  0
    0.2544   67.5878   80.9667 N   0  0  0  0  0  0  0  0  0  0  0  0
    0.9547   66.7003   81.7779 C   0  0  0  0  0  0  0  0  0  0  0  0
    2.0319   67.0253   82.4426 N   0  0  0  0  0  0  0  0  0  0  0  0
    2.4325   68.3509   82.2718 C   0  0  0  0  0  0  0  0  0  0  0  0
   -0.5710   67.2699   80.4759 H   0  0  0  0  0  0  0  0  0  0  0  0
    4.5724   68.5264   83.7504 C   0  0  0  0  0  0  0  0  0  0  0  0
    5.1516   67.8353   86.1335 C   0  0  0  0  0  0  0  0  0  0  0  0
    4.0588   68.2797   85.1710 C   0  0  0  0  0  0  0  0  0  0  0  0
   -0.8501   63.1452   84.7344 C   0  0  0  0  0  0  0  0  0  0  0  0
   -1.9017   62.3393   85.1284 C   0  0  0  0  0  0  0  0  0  0  0  0
   -1.9343   62.1313   86.5375 C   0  0  0  0  0  0  0  0  0  0  0  0
   -0.9005   62.7722   87.1927 C   0  0  0  0  0  0  0  0  0  0  0  0
    0.0937   63.6199   86.0863 S   0  0  0  0  0  0  0  0  0  0  0  0
   -0.6428   62.7618   88.6242 C   0  0  0  0  0  0  0  0  0  0  0  0
   -1.3022   63.4098   89.4401 O   0  0  0  0  0  0  0  0  0  0  0  0
    0.3840   61.9514   89.0608 N   0  0  0  0  0  0  0  0  0  0  0  0
    0.5120   61.7892   90.4600 O   0  0  0  0  0  0  0  0  0  0  0  0
    0.7869   61.2308   88.4723 H   0  0  0  0  0  0  0  0  0  0  0  0
   -0.1927   62.3805   90.8060 H   0  0  0  0  0  0  0  0  0  0  0  0
    0.6556   64.8720   79.5405 O   0  0  0  0  0  0  0  0  0  0  0  0
    0.6895   63.9436   78.4543 C   0  0  0  0  0  0  0  0  0  0  0  0
   -0.2795   64.4367   77.3946 C   0  0  0  0  0  0  0  0  0  0  0  0
 20 21  1  0  0  0
 21 19  1  0  0  0
 19  7  1  0  0  0
  7  8  2  0  0  0
  8  9  1  0  0  0
  9 10  1  0  0  0
  9 11  1  0  0  0
 11 12  1  0  0  0
 12 13  2  0  0  0
 12 14  1  0  0  0
 14 15  1  0  0  0
 15  1  1  0  0  0
  1  2  1  0  0  0
  2  3  2  0  0  0
  3 22  1  0  0  0
 22 23  2  0  0  0
 23 24  1  0  0  0
 24 25  2  0  0  0
 25 27  1  0  0  0
 27 28  2  0  0  0
 27 29  1  0  0  0
 29 30  1  0  0  0
 25 26  1  0  0  0
  3  4  1  0  0  0
  4  5  2  0  0  0
  5  6  1  0  0  0
  6 33  1  0  0  0
 33 34  1  0  0  0
 34 35  1  0  0  0
 15 16  2  0  0  0
 16 17  1  0  0  0
 17  7  1  0  0  0
 17 11  2  0  0  0
  6  1  2  0  0  0
 26 22  1  0  0  0
 14 18  1  0  0  0
 29 31  1  0  0  0
 30 32  1  0  0  0
M  END
> <minimizedAffinity>
-9.72957

$$$$



 35 38  0  0  0  0  0  0  0  0999 V2000
    1.0832   65.5339   83.3551 C   0  0  0  0  0  0  0  0  0  0  0  0
    0.6789   64.9482   82.1371 C   0  0  0  0  0  0  0  0  0  0  0  0
    0.9261   65.5635   80.9028 C   0  0  0  0  0  0  0  0  0  0  0  0
    1.6005   66.7868   80.8982 C   0  0  0  0  0  0  0  0  0  0  0  0
    2.0095   67.3856   82.0952 C   0  0  0  0  0  0  0  0  0  0  0  0
    1.7584   66.7733   83.3299 C   0  0  0  0  0  0  0  0  0  0  0  0
   -1.6318   62.6399   86.3301 C   0  0  0  0  0  0  0  0  0  0  0  0
   -1.4109   62.1813   87.5773 N   0  0  0  0  0  0  0  0  0  0  0  0
   -0.2001   62.6954   87.9076 N   0  0  0  0  0  0  0  0  0  0  0  0
    0.3765   62.4076   89.1987 C   0  0  0  0  0  0  0  0  0  0  0  0
    0.3416   63.4582   86.9218 C   0  0  0  0  0  0  0  0  0  0  0  0
    1.5639   64.1681   86.8485 C   0  0  0  0  0  0  0  0  0  0  0  0
    2.4163   64.2248   87.7269 O   0  0  0  0  0  0  0  0  0  0  0  0
    1.6949   64.8093   85.6384 N   0  0  0  0  0  0  0  0  0  0  0  0
    0.7552   64.7671   84.6129 C   0  0  0  0  0  0  0  0  0  0  0  0
   -0.3706   64.1082   84.6916 N   0  0  0  0  0  0  0  0  0  0  0  0
   -0.5594   63.4386   85.9010 C   0  0  0  0  0  0  0  0  0  0  0  0
    2.5492   65.3358   85.5108 H   0  0  0  0  0  0  0  0  0  0  0  0
   -2.8813   62.2929   85.5965 C   0  0  0  0  0  0  0  0  0  0  0  0
   -2.5792   62.3426   83.0670 C   0  0  0  0  0  0  0  0  0  0  0  0
   -2.6386   61.4818   84.3215 C   0  0  0  0  0  0  0  0  0  0  0  0
    0.4989   64.9107   79.6581 C   0  0  0  0  0  0  0  0  0  0  0  0
    0.3674   65.4624   78.3976 C   0  0  0  0  0  0  0  0  0  0  0  0
   -0.0548   64.5110   77.4247 C   0  0  0  0  0  0  0  0  0  0  0  0
   -0.2267   63.2477   77.9573 C   0  0  0  0  0  0  0  0  0  0  0  0
    0.1250   63.2364   79.6328 S   0  0  0  0  0  0  0  0  0  0  0  0
   -0.6461   62.0541   77.2396 C   0  0  0  0  0  0  0  0  0  0  0  0
    0.0850   61.4321   76.4656 O   0  0  0  0  0  0  0  0  0  0  0  0
   -1.9275   61.6061   77.4823 N   0  0  0  0  0  0  0  0  0  0  0  0
   -2.2714   60.3458   76.9400 O   0  0  0  0  0  0  0  0  0  0  0  0
   -2.4700   61.9332   78.2738 H   0  0  0  0  0  0  0  0  0  0  0  0
   -1.4592   60.1013   76.4435 H   0  0  0  0  0  0  0  0  0  0  0  0
    2.1397   67.3194   84.5296 O   0  0  0  0  0  0  0  0  0  0  0  0
    3.4344   67.9177   84.6240 C   0  0  0  0  0  0  0  0  0  0  0  0
    4.4633   66.8023   84.5778 C   0  0  0  0  0  0  0  0  0  0  0  0
 20 21  1  0  0  0
 21 19  1  0  0  0
 19  7  1  0  0  0
  7  8  2  0  0  0
  8  9  1  0  0  0
  9 10  1  0  0  0
  9 11  1  0  0  0
 11 12  1  0  0  0
 12 13  2  0  0  0
 12 14  1  0  0  0
 14 15  1  0  0  0
 15  1  1  0  0  0
  1  2  1  0  0  0
  2  3  2  0  0  0
  3 22  1  0  0  0
 22 23  2  0  0  0
 23 24  1  0  0  0
 24 25  2  0  0  0
 25 27  1  0  0  0
 27 28  2  0  0  0
 27 29  1  0  0  0
 29 30  1  0  0  0
 25 26  1  0  0  0
  3  4  1  0  0  0
  4  5  2  0  0  0
  5  6  1  0  0  0
  6 33  1  0  0  0
 33 34  1  0  0  0
 34 35  1  0  0  0
 15 16  2  0  0  0
 16 17  1  0  0  0
 17  7  1  0  0  0
 17 11  2  0  0  0
  6  1  2  0  0  0
 26 22  1  0  0  0
 14 18  1  0  0  0
 29 31  1  0  0  0
 30 32  1  0  0  0
M  END
> <minimizedAffinity>
-9.69810

$$$$
