


 26 29  0  0  0  0  0  0  0  0999 V2000
   -1.1306   62.8267   85.7678 C   0  0  0  0  0  0  0  0  0  0  0  0
   -0.6008   63.0070   84.4336 N   0  0  0  0  0  0  0  0  0  0  0  0
   -1.2048   62.3245   83.4071 N   0  0  0  0  0  0  0  0  0  0  0  0
   -0.6901   62.7196   82.2781 C   0  0  0  0  0  0  0  0  0  0  0  0
    0.5455   63.9685   82.3780 S   0  0  0  0  0  0  0  0  0  0  0  0
    0.3257   63.9792   84.1263 C   0  0  0  0  0  0  0  0  0  0  0  0
    0.9215   64.7645   84.9694 N   0  0  0  0  0  0  0  0  0  0  0  0
   -1.1119   62.1684   80.9642 C   0  0  0  0  0  0  0  0  0  0  0  0
   -0.4657   62.6392   79.8089 C   0  0  0  0  0  0  0  0  0  0  0  0
   -0.8203   62.1567   78.5450 C   0  0  0  0  0  0  0  0  0  0  0  0
   -1.8244   61.1999   78.4272 C   0  0  0  0  0  0  0  0  0  0  0  0
   -2.2623   60.6046   76.8746 Cl  0  0  0  0  0  0  0  0  0  0  0  0
   -2.4762   60.7226   79.5620 C   0  0  0  0  0  0  0  0  0  0  0  0
   -2.1223   61.2046   80.8281 C   0  0  0  0  0  0  0  0  0  0  0  0
    1.8483   65.7143   84.5241 C   0  0  0  0  0  0  0  0  0  0  0  0
    1.4278   66.7885   83.7369 C   0  0  0  0  0  0  0  0  0  0  0  0
    2.3413   67.7521   83.3123 C   0  0  0  0  0  0  0  0  0  0  0  0
    3.6826   67.6509   83.6864 C   0  0  0  0  0  0  0  0  0  0  0  0
    4.1212   66.5902   84.4938 C   0  0  0  0  0  0  0  0  0  0  0  0
    3.1890   65.6301   84.9137 C   0  0  0  0  0  0  0  0  0  0  0  0
    5.5178   66.4843   84.8934 C   0  0  0  0  0  0  0  0  0  0  0  0
    6.5256   67.2141   84.3015 N   0  0  0  0  0  0  0  0  0  0  0  0
    7.6547   66.8734   84.9053 N   0  0  0  0  0  0  0  0  0  0  0  0
    7.2866   65.9692   85.8175 N   0  0  0  0  0  0  0  0  0  0  0  0
    5.9785   65.6807   85.8705 N   0  0  0  0  0  0  0  0  0  0  0  0
    7.9635   65.5290   86.4341 H   0  0  0  0  0  0  0  0  0  0  0  0
  1  2  1  0  0  0
  2  3  1  0  0  0
  3  4  2  0  0  0
  4  8  1  0  0  0
  8  9  1  0  0  0
  9 10  2  0  0  0
 10 11  1  0  0  0
 11 12  1  0  0  0
 11 13  2  0  0  0
 13 14  1  0  0  0
  4  5  1  0  0  0
  5  6  1  0  0  0
  6  7  2  0  0  0
  7 15  1  0  0  0
 15 16  1  0  0  0
 16 17  2  0  0  0
 17 18  1  0  0  0
 18 19  2  0  0  0
 19 21  1  0  0  0
 21 22  1  0  0  0
 22 23  2  0  0  0
 23 24  1  0  0  0
 24 25  1  0  0  0
 19 20  1  0  0  0
  6  2  1  0  0  0
 20 15  2  0  0  0
 14  8  2  0  0  0
 25 21  2  0  0  0
 24 26  1  0  0  0
M  END
> <minimizedAffinity>
-1.43814

$$$$



 26 29  0  0  0  0  0  0  0  0999 V2000
   -1.1728   62.9652   85.7501 C   0  0  0  0  0  0  0  0  0  0  0  0
   -0.6128   63.1258   84.4257 N   0  0  0  0  0  0  0  0  0  0  0  0
   -1.2066   62.4446   83.3925 N   0  0  0  0  0  0  0  0  0  0  0  0
   -0.6624   62.8220   82.2712 C   0  0  0  0  0  0  0  0  0  0  0  0
    0.5911   64.0516   82.3867 S   0  0  0  0  0  0  0  0  0  0  0  0
    0.3356   64.0803   84.1300 C   0  0  0  0  0  0  0  0  0  0  0  0
    0.9266   64.8629   84.9789 N   0  0  0  0  0  0  0  0  0  0  0  0
   -1.0661   62.2668   80.9533 C   0  0  0  0  0  0  0  0  0  0  0  0
   -2.0369   61.2515   80.9303 C   0  0  0  0  0  0  0  0  0  0  0  0
   -2.4563   60.6911   79.7195 C   0  0  0  0  0  0  0  0  0  0  0  0
   -1.9072   61.1419   78.5224 C   0  0  0  0  0  0  0  0  0  0  0  0
   -2.4211   60.4551   77.0321 Cl  0  0  0  0  0  0  0  0  0  0  0  0
   -0.9430   62.1472   78.5267 C   0  0  0  0  0  0  0  0  0  0  0  0
   -0.5222   62.7093   79.7381 C   0  0  0  0  0  0  0  0  0  0  0  0
    1.8778   65.7939   84.5453 C   0  0  0  0  0  0  0  0  0  0  0  0
    3.2122   65.6669   84.9373 C   0  0  0  0  0  0  0  0  0  0  0  0
    4.1691   66.5755   84.4875 C   0  0  0  0  0  0  0  0  0  0  0  0
    3.7947   67.6115   83.6298 C   0  0  0  0  0  0  0  0  0  0  0  0
    2.4628   67.7443   83.2083 C   0  0  0  0  0  0  0  0  0  0  0  0
    1.5129   66.8208   83.6687 C   0  0  0  0  0  0  0  0  0  0  0  0
    2.0685   68.8186   82.3073 C   0  0  0  0  0  0  0  0  0  0  0  0
    1.3490   68.6035   81.1520 N   0  0  0  0  0  0  0  0  0  0  0  0
    1.1670   69.7869   80.5846 N   0  0  0  0  0  0  0  0  0  0  0  0
    1.7738   70.6485   81.4060 N   0  0  0  0  0  0  0  0  0  0  0  0
    2.3510   70.1215   82.4951 N   0  0  0  0  0  0  0  0  0  0  0  0
    1.7930   71.6456   81.2119 H   0  0  0  0  0  0  0  0  0  0  0  0
  1  2  1  0  0  0
  2  3  1  0  0  0
  3  4  2  0  0  0
  4  8  1  0  0  0
  8  9  1  0  0  0
  9 10  2  0  0  0
 10 11  1  0  0  0
 11 12  1  0  0  0
 11 13  2  0  0  0
 13 14  1  0  0  0
  4  5  1  0  0  0
  5  6  1  0  0  0
  6  7  2  0  0  0
  7 15  1  0  0  0
 15 16  1  0  0  0
 16 17  2  0  0  0
 17 18  1  0  0  0
 18 19  2  0  0  0
 19 21  1  0  0  0
 21 22  1  0  0  0
 22 23  2  0  0  0
 23 24  1  0  0  0
 24 25  1  0  0  0
 19 20  1  0  0  0
  6  2  1  0  0  0
 20 15  2  0  0  0
 14  8  2  0  0  0
 25 21  2  0  0  0
 24 26  1  0  0  0
M  END
> <minimizedAffinity>
-1.35698

$$$$



 26 29  0  0  0  0  0  0  0  0999 V2000
    0.1320   62.8368   84.9620 C   0  0  0  0  0  0  0  0  0  0  0  0
   -0.0979   63.6293   83.7735 N   0  0  0  0  0  0  0  0  0  0  0  0
    0.6001   64.8040   83.6423 N   0  0  0  0  0  0  0  0  0  0  0  0
    0.3729   65.2991   82.4594 C   0  0  0  0  0  0  0  0  0  0  0  0
   -0.6828   64.3609   81.4099 S   0  0  0  0  0  0  0  0  0  0  0  0
   -0.8101   63.1588   82.6921 C   0  0  0  0  0  0  0  0  0  0  0  0
   -1.4507   62.0329   82.6270 N   0  0  0  0  0  0  0  0  0  0  0  0
    0.9675   66.5792   81.9946 C   0  0  0  0  0  0  0  0  0  0  0  0
    1.7425   67.3193   82.9031 C   0  0  0  0  0  0  0  0  0  0  0  0
    2.3273   68.5312   82.5220 C   0  0  0  0  0  0  0  0  0  0  0  0
    2.1407   69.0122   81.2291 C   0  0  0  0  0  0  0  0  0  0  0  0
    2.8586   70.5018   80.7575 Cl  0  0  0  0  0  0  0  0  0  0  0  0
    1.3746   68.2918   80.3156 C   0  0  0  0  0  0  0  0  0  0  0  0
    0.7886   67.0783   80.6957 C   0  0  0  0  0  0  0  0  0  0  0  0
   -2.1390   61.6724   81.4627 C   0  0  0  0  0  0  0  0  0  0  0  0
   -3.5258   61.8227   81.3933 C   0  0  0  0  0  0  0  0  0  0  0  0
   -4.2141   61.4905   80.2274 C   0  0  0  0  0  0  0  0  0  0  0  0
   -3.5124   61.0167   79.1173 C   0  0  0  0  0  0  0  0  0  0  0  0
   -2.1167   60.8777   79.1600 C   0  0  0  0  0  0  0  0  0  0  0  0
   -1.4393   61.2179   80.3401 C   0  0  0  0  0  0  0  0  0  0  0  0
   -1.3791   60.3914   78.0021 C   0  0  0  0  0  0  0  0  0  0  0  0
   -1.6101   59.1604   77.4275 N   0  0  0  0  0  0  0  0  0  0  0  0
   -0.7722   59.0473   76.4074 N   0  0  0  0  0  0  0  0  0  0  0  0
   -0.0843   60.1927   76.4108 N   0  0  0  0  0  0  0  0  0  0  0  0
   -0.4079   61.0745   77.3674 N   0  0  0  0  0  0  0  0  0  0  0  0
    0.6412   60.3801   75.7248 H   0  0  0  0  0  0  0  0  0  0  0  0
  1  2  1  0  0  0
  2  3  1  0  0  0
  3  4  2  0  0  0
  4  8  1  0  0  0
  8  9  1  0  0  0
  9 10  2  0  0  0
 10 11  1  0  0  0
 11 12  1  0  0  0
 11 13  2  0  0  0
 13 14  1  0  0  0
  4  5  1  0  0  0
  5  6  1  0  0  0
  6  7  2  0  0  0
  7 15  1  0  0  0
 15 16  1  0  0  0
 16 17  2  0  0  0
 17 18  1  0  0  0
 18 19  2  0  0  0
 19 21  1  0  0  0
 21 22  1  0  0  0
 22 23  2  0  0  0
 23 24  1  0  0  0
 24 25  1  0  0  0
 19 20  1  0  0  0
  6  2  1  0  0  0
 20 15  2  0  0  0
 14  8  2  0  0  0
 25 21  2  0  0  0
 24 26  1  0  0  0
M  END
> <minimizedAffinity>
-1.23747

$$$$



 26 29  0  0  0  0  0  0  0  0999 V2000
    3.5516   67.7818   83.8892 C   0  0  0  0  0  0  0  0  0  0  0  0
    2.5833   68.3627   82.9845 N   0  0  0  0  0  0  0  0  0  0  0  0
    2.5434   69.7309   82.8815 N   0  0  0  0  0  0  0  0  0  0  0  0
    1.7214   70.0578   81.9259 C   0  0  0  0  0  0  0  0  0  0  0  0
    0.9576   68.7273   81.0640 S   0  0  0  0  0  0  0  0  0  0  0  0
    1.8637   67.6104   82.0821 C   0  0  0  0  0  0  0  0  0  0  0  0
    1.8602   66.3164   81.9930 N   0  0  0  0  0  0  0  0  0  0  0  0
    1.4341   71.4686   81.5583 C   0  0  0  0  0  0  0  0  0  0  0  0
    2.4858   72.3980   81.6217 C   0  0  0  0  0  0  0  0  0  0  0  0
    2.2749   73.7396   81.2873 C   0  0  0  0  0  0  0  0  0  0  0  0
    1.0102   74.1616   80.8873 C   0  0  0  0  0  0  0  0  0  0  0  0
    0.7479   75.8102   80.4752 Cl  0  0  0  0  0  0  0  0  0  0  0  0
   -0.0442   73.2537   80.8195 C   0  0  0  0  0  0  0  0  0  0  0  0
    0.1654   71.9103   81.1539 C   0  0  0  0  0  0  0  0  0  0  0  0
    1.0792   65.6720   81.0264 C   0  0  0  0  0  0  0  0  0  0  0  0
    1.2442   65.9783   79.6739 C   0  0  0  0  0  0  0  0  0  0  0  0
    0.4882   65.3212   78.7044 C   0  0  0  0  0  0  0  0  0  0  0  0
   -0.4306   64.3415   79.0855 C   0  0  0  0  0  0  0  0  0  0  0  0
   -0.5966   64.0049   80.4377 C   0  0  0  0  0  0  0  0  0  0  0  0
    0.1730   64.6744   81.4003 C   0  0  0  0  0  0  0  0  0  0  0  0
   -1.5480   62.9781   80.8401 C   0  0  0  0  0  0  0  0  0  0  0  0
   -2.2707   62.2289   79.9372 N   0  0  0  0  0  0  0  0  0  0  0  0
   -3.0274   61.4002   80.6415 N   0  0  0  0  0  0  0  0  0  0  0  0
   -2.7349   61.6803   81.9148 N   0  0  0  0  0  0  0  0  0  0  0  0
   -1.8246   62.6440   82.1146 N   0  0  0  0  0  0  0  0  0  0  0  0
   -3.1793   61.1875   82.6840 H   0  0  0  0  0  0  0  0  0  0  0  0
  1  2  1  0  0  0
  2  3  1  0  0  0
  3  4  2  0  0  0
  4  8  1  0  0  0
  8  9  1  0  0  0
  9 10  2  0  0  0
 10 11  1  0  0  0
 11 12  1  0  0  0
 11 13  2  0  0  0
 13 14  1  0  0  0
  4  5  1  0  0  0
  5  6  1  0  0  0
  6  7  2  0  0  0
  7 15  1  0  0  0
 15 16  1  0  0  0
 16 17  2  0  0  0
 17 18  1  0  0  0
 18 19  2  0  0  0
 19 21  1  0  0  0
 21 22  1  0  0  0
 22 23  2  0  0  0
 23 24  1  0  0  0
 24 25  1  0  0  0
 19 20  1  0  0  0
  6  2  1  0  0  0
 20 15  2  0  0  0
 14  8  2  0  0  0
 25 21  2  0  0  0
 24 26  1  0  0  0
M  END
> <minimizedAffinity>
-1.19351

$$$$



 26 29  0  0  0  0  0  0  0  0999 V2000
    1.2831   65.5248   84.6595 C   0  0  0  0  0  0  0  0  0  0  0  0
    1.2057   65.7055   83.2260 N   0  0  0  0  0  0  0  0  0  0  0  0
    0.6026   64.7179   82.4878 N   0  0  0  0  0  0  0  0  0  0  0  0
    0.4992   65.1184   81.2530 C   0  0  0  0  0  0  0  0  0  0  0  0
    1.1017   66.7344   80.9034 S   0  0  0  0  0  0  0  0  0  0  0  0
    1.5120   66.8987   82.6092 C   0  0  0  0  0  0  0  0  0  0  0  0
    2.0049   67.9533   83.1813 N   0  0  0  0  0  0  0  0  0  0  0  0
   -0.0987   64.2798   80.1818 C   0  0  0  0  0  0  0  0  0  0  0  0
   -0.6719   63.0496   80.5446 C   0  0  0  0  0  0  0  0  0  0  0  0
   -1.2496   62.2182   79.5796 C   0  0  0  0  0  0  0  0  0  0  0  0
   -1.2578   62.6112   78.2443 C   0  0  0  0  0  0  0  0  0  0  0  0
   -1.9675   61.5913   77.0557 Cl  0  0  0  0  0  0  0  0  0  0  0  0
   -0.6931   63.8273   77.8668 C   0  0  0  0  0  0  0  0  0  0  0  0
   -0.1145   64.6608   78.8316 C   0  0  0  0  0  0  0  0  0  0  0  0
    2.2726   69.1074   82.4358 C   0  0  0  0  0  0  0  0  0  0  0  0
    3.5642   69.3538   81.9650 C   0  0  0  0  0  0  0  0  0  0  0  0
    3.8317   70.4879   81.1997 C   0  0  0  0  0  0  0  0  0  0  0  0
    2.8005   71.3769   80.8905 C   0  0  0  0  0  0  0  0  0  0  0  0
    1.4920   71.1366   81.3371 C   0  0  0  0  0  0  0  0  0  0  0  0
    1.2395   69.9902   82.1046 C   0  0  0  0  0  0  0  0  0  0  0  0
    0.4111   72.0566   81.0107 C   0  0  0  0  0  0  0  0  0  0  0  0
   -0.8317   71.6359   80.5899 N   0  0  0  0  0  0  0  0  0  0  0  0
   -1.5593   72.7244   80.3863 N   0  0  0  0  0  0  0  0  0  0  0  0
   -0.7394   73.7357   80.6866 N   0  0  0  0  0  0  0  0  0  0  0  0
    0.4956   73.3983   81.0842 N   0  0  0  0  0  0  0  0  0  0  0  0
   -1.0401   74.7036   80.6166 H   0  0  0  0  0  0  0  0  0  0  0  0
  1  2  1  0  0  0
  2  3  1  0  0  0
  3  4  2  0  0  0
  4  8  1  0  0  0
  8  9  1  0  0  0
  9 10  2  0  0  0
 10 11  1  0  0  0
 11 12  1  0  0  0
 11 13  2  0  0  0
 13 14  1  0  0  0
  4  5  1  0  0  0
  5  6  1  0  0  0
  6  7  2  0  0  0
  7 15  1  0  0  0
 15 16  1  0  0  0
 16 17  2  0  0  0
 17 18  1  0  0  0
 18 19  2  0  0  0
 19 21  1  0  0  0
 21 22  1  0  0  0
 22 23  2  0  0  0
 23 24  1  0  0  0
 24 25  1  0  0  0
 19 20  1  0  0  0
  6  2  1  0  0  0
 20 15  2  0  0  0
 14  8  2  0  0  0
 25 21  2  0  0  0
 24 26  1  0  0  0
M  END
> <minimizedAffinity>
-1.19231

$$$$



 26 29  0  0  0  0  0  0  0  0999 V2000
    1.9463   66.0440   84.2581 C   0  0  0  0  0  0  0  0  0  0  0  0
    1.5846   66.2612   82.8741 N   0  0  0  0  0  0  0  0  0  0  0  0
    1.0279   65.2123   82.1855 N   0  0  0  0  0  0  0  0  0  0  0  0
    0.6408   65.6342   81.0159 C   0  0  0  0  0  0  0  0  0  0  0  0
    0.8995   67.3414   80.6769 S   0  0  0  0  0  0  0  0  0  0  0  0
    1.5768   67.5111   82.2947 C   0  0  0  0  0  0  0  0  0  0  0  0
    1.9859   68.6130   82.8432 N   0  0  0  0  0  0  0  0  0  0  0  0
    0.0052   64.7451   80.0091 C   0  0  0  0  0  0  0  0  0  0  0  0
   -0.5335   63.5242   80.4481 C   0  0  0  0  0  0  0  0  0  0  0  0
   -1.1441   62.6470   79.5460 C   0  0  0  0  0  0  0  0  0  0  0  0
   -1.2200   62.9844   78.1977 C   0  0  0  0  0  0  0  0  0  0  0  0
   -1.9704   61.9082   77.0863 Cl  0  0  0  0  0  0  0  0  0  0  0  0
   -0.6903   64.1906   77.7449 C   0  0  0  0  0  0  0  0  0  0  0  0
   -0.0788   65.0699   78.6468 C   0  0  0  0  0  0  0  0  0  0  0  0
    1.9240   69.8226   82.1414 C   0  0  0  0  0  0  0  0  0  0  0  0
    0.6936   70.4496   81.9326 C   0  0  0  0  0  0  0  0  0  0  0  0
    0.6280   71.6675   81.2575 C   0  0  0  0  0  0  0  0  0  0  0  0
    1.8000   72.2715   80.7982 C   0  0  0  0  0  0  0  0  0  0  0  0
    3.0478   71.6676   81.0158 C   0  0  0  0  0  0  0  0  0  0  0  0
    3.0965   70.4432   81.6980 C   0  0  0  0  0  0  0  0  0  0  0  0
    4.2741   72.2974   80.5456 C   0  0  0  0  0  0  0  0  0  0  0  0
    5.2094   71.6390   79.7772 N   0  0  0  0  0  0  0  0  0  0  0  0
    6.1843   72.5022   79.5321 N   0  0  0  0  0  0  0  0  0  0  0  0
    5.8027   73.6227   80.1520 N   0  0  0  0  0  0  0  0  0  0  0  0
    4.6289   73.5715   80.7975 N   0  0  0  0  0  0  0  0  0  0  0  0
    6.3732   74.4631   80.1317 H   0  0  0  0  0  0  0  0  0  0  0  0
  1  2  1  0  0  0
  2  3  1  0  0  0
  3  4  2  0  0  0
  4  8  1  0  0  0
  8  9  1  0  0  0
  9 10  2  0  0  0
 10 11  1  0  0  0
 11 12  1  0  0  0
 11 13  2  0  0  0
 13 14  1  0  0  0
  4  5  1  0  0  0
  5  6  1  0  0  0
  6  7  2  0  0  0
  7 15  1  0  0  0
 15 16  1  0  0  0
 16 17  2  0  0  0
 17 18  1  0  0  0
 18 19  2  0  0  0
 19 21  1  0  0  0
 21 22  1  0  0  0
 22 23  2  0  0  0
 23 24  1  0  0  0
 24 25  1  0  0  0
 19 20  1  0  0  0
  6  2  1  0  0  0
 20 15  2  0  0  0
 14  8  2  0  0  0
 25 21  2  0  0  0
 24 26  1  0  0  0
M  END
> <minimizedAffinity>
-1.15483

$$$$



 26 29  0  0  0  0  0  0  0  0999 V2000
    0.4524   74.4734   82.0387 C   0  0  0  0  0  0  0  0  0  0  0  0
    1.6569   73.8963   81.4823 N   0  0  0  0  0  0  0  0  0  0  0  0
    2.7101   74.7379   81.2243 N   0  0  0  0  0  0  0  0  0  0  0  0
    3.7408   74.0261   80.8682 C   0  0  0  0  0  0  0  0  0  0  0  0
    3.5148   72.2811   80.8470 S   0  0  0  0  0  0  0  0  0  0  0  0
    1.8626   72.5362   81.4041 C   0  0  0  0  0  0  0  0  0  0  0  0
    1.0001   71.6123   81.6952 N   0  0  0  0  0  0  0  0  0  0  0  0
    5.0490   74.6294   80.5037 C   0  0  0  0  0  0  0  0  0  0  0  0
    5.6591   75.4971   81.4250 C   0  0  0  0  0  0  0  0  0  0  0  0
    6.8905   76.0942   81.1368 C   0  0  0  0  0  0  0  0  0  0  0  0
    7.5207   75.8282   79.9245 C   0  0  0  0  0  0  0  0  0  0  0  0
    9.0349   76.5606   79.5675 Cl  0  0  0  0  0  0  0  0  0  0  0  0
    6.9297   74.9710   78.9991 C   0  0  0  0  0  0  0  0  0  0  0  0
    5.6969   74.3724   79.2862 C   0  0  0  0  0  0  0  0  0  0  0  0
    1.3375   70.2595   81.5708 C   0  0  0  0  0  0  0  0  0  0  0  0
    1.0030   69.5574   80.4108 C   0  0  0  0  0  0  0  0  0  0  0  0
    1.3595   68.2171   80.2698 C   0  0  0  0  0  0  0  0  0  0  0  0
    2.0666   67.5752   81.2882 C   0  0  0  0  0  0  0  0  0  0  0  0
    2.4298   68.2687   82.4528 C   0  0  0  0  0  0  0  0  0  0  0  0
    2.0648   69.6171   82.5781 C   0  0  0  0  0  0  0  0  0  0  0  0
    3.1743   67.6060   83.5148 C   0  0  0  0  0  0  0  0  0  0  0  0
    4.3048   68.1456   84.0887 N   0  0  0  0  0  0  0  0  0  0  0  0
    4.7176   67.2870   85.0096 N   0  0  0  0  0  0  0  0  0  0  0  0
    3.8355   66.2850   84.9521 N   0  0  0  0  0  0  0  0  0  0  0  0
    2.8502   66.4149   84.0524 N   0  0  0  0  0  0  0  0  0  0  0  0
    3.9115   65.4734   85.5585 H   0  0  0  0  0  0  0  0  0  0  0  0
  1  2  1  0  0  0
  2  3  1  0  0  0
  3  4  2  0  0  0
  4  8  1  0  0  0
  8  9  1  0  0  0
  9 10  2  0  0  0
 10 11  1  0  0  0
 11 12  1  0  0  0
 11 13  2  0  0  0
 13 14  1  0  0  0
  4  5  1  0  0  0
  5  6  1  0  0  0
  6  7  2  0  0  0
  7 15  1  0  0  0
 15 16  1  0  0  0
 16 17  2  0  0  0
 17 18  1  0  0  0
 18 19  2  0  0  0
 19 21  1  0  0  0
 21 22  1  0  0  0
 22 23  2  0  0  0
 23 24  1  0  0  0
 24 25  1  0  0  0
 19 20  1  0  0  0
  6  2  1  0  0  0
 20 15  2  0  0  0
 14  8  2  0  0  0
 25 21  2  0  0  0
 24 26  1  0  0  0
M  END
> <minimizedAffinity>
-1.14710

$$$$



 26 29  0  0  0  0  0  0  0  0999 V2000
    2.3958   66.1261   84.1210 C   0  0  0  0  0  0  0  0  0  0  0  0
    1.7590   66.9005   83.0778 N   0  0  0  0  0  0  0  0  0  0  0  0
    1.9496   68.2599   83.0825 N   0  0  0  0  0  0  0  0  0  0  0  0
    1.4270   68.7623   82.0007 C   0  0  0  0  0  0  0  0  0  0  0  0
    0.6903   67.6180   80.8853 S   0  0  0  0  0  0  0  0  0  0  0  0
    1.1609   66.3204   81.9807 C   0  0  0  0  0  0  0  0  0  0  0  0
    0.9838   65.0503   81.7860 N   0  0  0  0  0  0  0  0  0  0  0  0
    1.4466   70.2169   81.6976 C   0  0  0  0  0  0  0  0  0  0  0  0
    2.6367   70.9269   81.9289 C   0  0  0  0  0  0  0  0  0  0  0  0
    2.7145   72.2975   81.6620 C   0  0  0  0  0  0  0  0  0  0  0  0
    1.6020   72.9685   81.1620 C   0  0  0  0  0  0  0  0  0  0  0  0
    1.6947   74.6536   80.8326 Cl  0  0  0  0  0  0  0  0  0  0  0  0
    0.4138   72.2804   80.9275 C   0  0  0  0  0  0  0  0  0  0  0  0
    0.3343   70.9082   81.1941 C   0  0  0  0  0  0  0  0  0  0  0  0
    0.3575   64.5896   80.6219 C   0  0  0  0  0  0  0  0  0  0  0  0
    0.6779   65.1517   79.3842 C   0  0  0  0  0  0  0  0  0  0  0  0
    0.0772   64.6795   78.2182 C   0  0  0  0  0  0  0  0  0  0  0  0
   -0.8407   63.6297   78.2854 C   0  0  0  0  0  0  0  0  0  0  0  0
   -1.1609   63.0380   79.5169 C   0  0  0  0  0  0  0  0  0  0  0  0
   -0.5464   63.5238   80.6802 C   0  0  0  0  0  0  0  0  0  0  0  0
   -2.1118   61.9373   79.5915 C   0  0  0  0  0  0  0  0  0  0  0  0
   -2.1786   60.9373   78.6459 N   0  0  0  0  0  0  0  0  0  0  0  0
   -3.1434   60.1118   79.0244 N   0  0  0  0  0  0  0  0  0  0  0  0
   -3.6089   60.6398   80.1601 N   0  0  0  0  0  0  0  0  0  0  0  0
   -3.0160   61.7685   80.5746 N   0  0  0  0  0  0  0  0  0  0  0  0
   -4.3686   60.2061   80.6767 H   0  0  0  0  0  0  0  0  0  0  0  0
  1  2  1  0  0  0
  2  3  1  0  0  0
  3  4  2  0  0  0
  4  8  1  0  0  0
  8  9  1  0  0  0
  9 10  2  0  0  0
 10 11  1  0  0  0
 11 12  1  0  0  0
 11 13  2  0  0  0
 13 14  1  0  0  0
  4  5  1  0  0  0
  5  6  1  0  0  0
  6  7  2  0  0  0
  7 15  1  0  0  0
 15 16  1  0  0  0
 16 17  2  0  0  0
 17 18  1  0  0  0
 18 19  2  0  0  0
 19 21  1  0  0  0
 21 22  1  0  0  0
 22 23  2  0  0  0
 23 24  1  0  0  0
 24 25  1  0  0  0
 19 20  1  0  0  0
  6  2  1  0  0  0
 20 15  2  0  0  0
 14  8  2  0  0  0
 25 21  2  0  0  0
 24 26  1  0  0  0
M  END
> <minimizedAffinity>
-1.13315

$$$$



 26 29  0  0  0  0  0  0  0  0999 V2000
    0.6418   68.4030   80.1834 C   0  0  0  0  0  0  0  0  0  0  0  0
    1.4529   68.8176   81.3075 N   0  0  0  0  0  0  0  0  0  0  0  0
    2.0628   67.8392   82.0525 N   0  0  0  0  0  0  0  0  0  0  0  0
    2.8550   68.4020   82.9193 C   0  0  0  0  0  0  0  0  0  0  0  0
    2.9383   70.1591   82.8752 S   0  0  0  0  0  0  0  0  0  0  0  0
    1.8052   70.1315   81.5260 C   0  0  0  0  0  0  0  0  0  0  0  0
    1.3856   71.1595   80.8556 N   0  0  0  0  0  0  0  0  0  0  0  0
    3.6613   67.6252   83.8964 C   0  0  0  0  0  0  0  0  0  0  0  0
    4.9140   68.1349   84.2768 C   0  0  0  0  0  0  0  0  0  0  0  0
    5.7169   67.4476   85.1928 C   0  0  0  0  0  0  0  0  0  0  0  0
    5.2727   66.2449   85.7349 C   0  0  0  0  0  0  0  0  0  0  0  0
    6.2574   65.3978   86.8616 Cl  0  0  0  0  0  0  0  0  0  0  0  0
    4.0336   65.7246   85.3683 C   0  0  0  0  0  0  0  0  0  0  0  0
    3.2287   66.4115   84.4514 C   0  0  0  0  0  0  0  0  0  0  0  0
    1.8229   72.4485   81.1824 C   0  0  0  0  0  0  0  0  0  0  0  0
    1.0122   73.2912   81.9460 C   0  0  0  0  0  0  0  0  0  0  0  0
    1.4529   74.5663   82.2971 C   0  0  0  0  0  0  0  0  0  0  0  0
    2.7174   74.9999   81.8944 C   0  0  0  0  0  0  0  0  0  0  0  0
    3.5552   74.1608   81.1439 C   0  0  0  0  0  0  0  0  0  0  0  0
    3.0973   72.8804   80.8005 C   0  0  0  0  0  0  0  0  0  0  0  0
    4.8783   74.6054   80.7280 C   0  0  0  0  0  0  0  0  0  0  0  0
    5.5633   74.0407   79.6741 N   0  0  0  0  0  0  0  0  0  0  0  0
    6.7183   74.6825   79.5763 N   0  0  0  0  0  0  0  0  0  0  0  0
    6.6815   75.5889   80.5573 N   0  0  0  0  0  0  0  0  0  0  0  0
    5.5719   75.6022   81.3094 N   0  0  0  0  0  0  0  0  0  0  0  0
    7.4531   76.2297   80.7193 H   0  0  0  0  0  0  0  0  0  0  0  0
  1  2  1  0  0  0
  2  3  1  0  0  0
  3  4  2  0  0  0
  4  8  1  0  0  0
  8  9  1  0  0  0
  9 10  2  0  0  0
 10 11  1  0  0  0
 11 12  1  0  0  0
 11 13  2  0  0  0
 13 14  1  0  0  0
  4  5  1  0  0  0
  5  6  1  0  0  0
  6  7  2  0  0  0
  7 15  1  0  0  0
 15 16  1  0  0  0
 16 17  2  0  0  0
 17 18  1  0  0  0
 18 19  2  0  0  0
 19 21  1  0  0  0
 21 22  1  0  0  0
 22 23  2  0  0  0
 23 24  1  0  0  0
 24 25  1  0  0  0
 19 20  1  0  0  0
  6  2  1  0  0  0
 20 15  2  0  0  0
 14  8  2  0  0  0
 25 21  2  0  0  0
 24 26  1  0  0  0
M  END
> <minimizedAffinity>
-1.12876

$$$$
