


 25 27  0  0  0  0  0  0  0  0999 V2000
   -0.9857   61.4594   80.1787 N   0  0  0  0  0  0  0  0  0  0  0  0
   -0.4462   62.4505   80.8210 C   0  0  0  0  0  0  0  0  0  0  0  0
   -0.7393   64.1639   80.5252 S   0  0  0  0  0  0  0  0  0  0  0  0
    0.4766   64.5290   81.7426 C   0  0  0  0  0  0  0  0  0  0  0  0
    1.0121   63.5102   82.3514 N   0  0  0  0  0  0  0  0  0  0  0  0
    0.4514   62.3538   81.8636 N   0  0  0  0  0  0  0  0  0  0  0  0
    1.1157   61.1086   82.1870 C   0  0  0  0  0  0  0  0  0  0  0  0
   -3.7880   61.4895   80.7655 C   0  0  0  0  0  0  0  0  0  0  0  0
   -3.2634   61.6979   79.3700 C   0  0  0  0  0  0  0  0  0  0  0  0
   -4.1714   61.9088   78.3204 C   0  0  0  0  0  0  0  0  0  0  0  0
   -3.7183   62.0877   77.0165 C   0  0  0  0  0  0  0  0  0  0  0  0
   -2.3523   62.0542   76.7468 C   0  0  0  0  0  0  0  0  0  0  0  0
   -1.4243   61.8530   77.7835 C   0  0  0  0  0  0  0  0  0  0  0  0
   -1.8727   61.6981   79.1121 C   0  0  0  0  0  0  0  0  0  0  0  0
    0.0263   61.8210   77.4563 C   0  0  0  0  0  0  0  0  0  0  0  0
    0.8607   62.6883   77.6296 O   0  0  0  0  0  0  0  0  0  0  0  0
    0.3831   60.6450   76.8974 O   0  0  0  0  0  0  0  0  0  0  0  0
    1.3483   60.7467   76.7607 H   0  0  0  0  0  0  0  0  0  0  0  0
    0.8566   65.9343   82.0416 C   0  0  0  0  0  0  0  0  0  0  0  0
    1.5488   66.3090   83.2031 C   0  0  0  0  0  0  0  0  0  0  0  0
    1.8798   67.6504   83.4295 C   0  0  0  0  0  0  0  0  0  0  0  0
    1.5214   68.6233   82.4992 C   0  0  0  0  0  0  0  0  0  0  0  0
    1.9305   70.2695   82.7817 Cl  0  0  0  0  0  0  0  0  0  0  0  0
    0.8336   68.2684   81.3422 C   0  0  0  0  0  0  0  0  0  0  0  0
    0.5024   66.9288   81.1147 C   0  0  0  0  0  0  0  0  0  0  0  0
  8  9  1  0  0  0
  9 10  2  0  0  0
 10 11  1  0  0  0
 11 12  2  0  0  0
 12 13  1  0  0  0
 13 15  1  0  0  0
 15 16  2  0  0  0
 15 17  1  0  0  0
 13 14  2  0  0  0
 14  1  1  0  0  0
  1  2  2  0  0  0
  2  3  1  0  0  0
  3  4  1  0  0  0
  4 19  1  0  0  0
 19 20  1  0  0  0
 20 21  2  0  0  0
 21 22  1  0  0  0
 22 23  1  0  0  0
 22 24  2  0  0  0
 24 25  1  0  0  0
  4  5  2  0  0  0
  5  6  1  0  0  0
  6  7  1  0  0  0
 14  9  1  0  0  0
  6  2  1  0  0  0
 25 19  2  0  0  0
 17 18  1  0  0  0
M  END
> <minimizedAffinity>
-8.51651

$$$$



 25 27  0  0  0  0  0  0  0  0999 V2000
   -0.8815   61.5884   80.0794 N   0  0  0  0  0  0  0  0  0  0  0  0
   -0.3959   62.5735   80.7720 C   0  0  0  0  0  0  0  0  0  0  0  0
   -0.5490   64.2881   80.3898 S   0  0  0  0  0  0  0  0  0  0  0  0
    0.4823   64.6350   81.7718 C   0  0  0  0  0  0  0  0  0  0  0  0
    0.8630   63.6128   82.4827 N   0  0  0  0  0  0  0  0  0  0  0  0
    0.3238   62.4690   81.9437 N   0  0  0  0  0  0  0  0  0  0  0  0
    0.8637   61.2049   82.3987 C   0  0  0  0  0  0  0  0  0  0  0  0
    0.6518   62.3326   77.7787 C   0  0  0  0  0  0  0  0  0  0  0  0
   -0.8489   62.2227   77.7352 C   0  0  0  0  0  0  0  0  0  0  0  0
   -1.5221   62.4971   76.5343 C   0  0  0  0  0  0  0  0  0  0  0  0
   -2.9102   62.4207   76.4664 C   0  0  0  0  0  0  0  0  0  0  0  0
   -3.6413   62.0727   77.5997 C   0  0  0  0  0  0  0  0  0  0  0  0
   -2.9878   61.7853   78.8108 C   0  0  0  0  0  0  0  0  0  0  0  0
   -1.5796   61.8334   78.8819 C   0  0  0  0  0  0  0  0  0  0  0  0
   -3.8024   61.4196   80.0004 C   0  0  0  0  0  0  0  0  0  0  0  0
   -4.4050   62.1535   80.7599 O   0  0  0  0  0  0  0  0  0  0  0  0
   -3.8248   60.0839   80.1949 O   0  0  0  0  0  0  0  0  0  0  0  0
   -4.4066   59.9820   80.9770 H   0  0  0  0  0  0  0  0  0  0  0  0
    0.8853   66.0297   82.0898 C   0  0  0  0  0  0  0  0  0  0  0  0
    1.5763   66.3784   83.2601 C   0  0  0  0  0  0  0  0  0  0  0  0
    1.9296   67.7109   83.5044 C   0  0  0  0  0  0  0  0  0  0  0  0
    1.5950   68.7009   82.5833 C   0  0  0  0  0  0  0  0  0  0  0  0
    2.0315   70.3360   82.8879 Cl  0  0  0  0  0  0  0  0  0  0  0  0
    0.9087   68.3719   81.4178 C   0  0  0  0  0  0  0  0  0  0  0  0
    0.5551   67.0412   81.1724 C   0  0  0  0  0  0  0  0  0  0  0  0
  8  9  1  0  0  0
  9 10  2  0  0  0
 10 11  1  0  0  0
 11 12  2  0  0  0
 12 13  1  0  0  0
 13 15  1  0  0  0
 15 16  2  0  0  0
 15 17  1  0  0  0
 13 14  2  0  0  0
 14  1  1  0  0  0
  1  2  2  0  0  0
  2  3  1  0  0  0
  3  4  1  0  0  0
  4 19  1  0  0  0
 19 20  1  0  0  0
 20 21  2  0  0  0
 21 22  1  0  0  0
 22 23  1  0  0  0
 22 24  2  0  0  0
 24 25  1  0  0  0
  4  5  2  0  0  0
  5  6  1  0  0  0
  6  7  1  0  0  0
 14  9  1  0  0  0
  6  2  1  0  0  0
 25 19  2  0  0  0
 17 18  1  0  0  0
M  END
> <minimizedAffinity>
-8.20555

$$$$



 25 27  0  0  0  0  0  0  0  0999 V2000
    0.6404   61.4355   79.1853 N   0  0  0  0  0  0  0  0  0  0  0  0
    0.4274   61.4796   80.4654 C   0  0  0  0  0  0  0  0  0  0  0  0
   -0.9974   62.1492   81.2597 S   0  0  0  0  0  0  0  0  0  0  0  0
   -0.2230   61.8265   82.8058 C   0  0  0  0  0  0  0  0  0  0  0  0
    0.9377   61.2383   82.7616 N   0  0  0  0  0  0  0  0  0  0  0  0
    1.2689   61.0029   81.4485 N   0  0  0  0  0  0  0  0  0  0  0  0
    2.6409   60.6353   81.1677 C   0  0  0  0  0  0  0  0  0  0  0  0
    0.9234   64.2009   78.4996 C   0  0  0  0  0  0  0  0  0  0  0  0
   -0.1902   63.3523   77.9465 C   0  0  0  0  0  0  0  0  0  0  0  0
   -1.1235   63.9306   77.0718 C   0  0  0  0  0  0  0  0  0  0  0  0
   -2.1742   63.1767   76.5570 C   0  0  0  0  0  0  0  0  0  0  0  0
   -2.3056   61.8368   76.9139 C   0  0  0  0  0  0  0  0  0  0  0  0
   -1.3779   61.2345   77.7816 C   0  0  0  0  0  0  0  0  0  0  0  0
   -0.2942   61.9833   78.2866 C   0  0  0  0  0  0  0  0  0  0  0  0
   -1.5525   59.8019   78.1417 C   0  0  0  0  0  0  0  0  0  0  0  0
   -2.4947   59.2703   78.6969 O   0  0  0  0  0  0  0  0  0  0  0  0
   -0.4841   59.0637   77.7727 O   0  0  0  0  0  0  0  0  0  0  0  0
   -0.7382   58.1551   78.0385 H   0  0  0  0  0  0  0  0  0  0  0  0
   -0.8787   62.2156   84.0815 C   0  0  0  0  0  0  0  0  0  0  0  0
   -2.2386   61.9899   84.3426 C   0  0  0  0  0  0  0  0  0  0  0  0
   -2.7999   62.3789   85.5648 C   0  0  0  0  0  0  0  0  0  0  0  0
   -2.0077   62.9948   86.5311 C   0  0  0  0  0  0  0  0  0  0  0  0
   -2.7018   63.4704   88.0308 Cl  0  0  0  0  0  0  0  0  0  0  0  0
   -0.6570   63.2269   86.2875 C   0  0  0  0  0  0  0  0  0  0  0  0
   -0.0950   62.8388   85.0670 C   0  0  0  0  0  0  0  0  0  0  0  0
  8  9  1  0  0  0
  9 10  2  0  0  0
 10 11  1  0  0  0
 11 12  2  0  0  0
 12 13  1  0  0  0
 13 15  1  0  0  0
 15 16  2  0  0  0
 15 17  1  0  0  0
 13 14  2  0  0  0
 14  1  1  0  0  0
  1  2  2  0  0  0
  2  3  1  0  0  0
  3  4  1  0  0  0
  4 19  1  0  0  0
 19 20  1  0  0  0
 20 21  2  0  0  0
 21 22  1  0  0  0
 22 23  1  0  0  0
 22 24  2  0  0  0
 24 25  1  0  0  0
  4  5  2  0  0  0
  5  6  1  0  0  0
  6  7  1  0  0  0
 14  9  1  0  0  0
  6  2  1  0  0  0
 25 19  2  0  0  0
 17 18  1  0  0  0
M  END
> <minimizedAffinity>
-8.16673

$$$$



 25 27  0  0  0  0  0  0  0  0999 V2000
   -1.3628   63.4434   79.8765 N   0  0  0  0  0  0  0  0  0  0  0  0
   -0.9615   63.6536   81.0933 C   0  0  0  0  0  0  0  0  0  0  0  0
   -0.9516   62.4734   82.4033 S   0  0  0  0  0  0  0  0  0  0  0  0
   -0.4011   63.7505   83.4802 C   0  0  0  0  0  0  0  0  0  0  0  0
   -0.1892   64.9152   82.9381 N   0  0  0  0  0  0  0  0  0  0  0  0
   -0.4572   64.8362   81.5922 N   0  0  0  0  0  0  0  0  0  0  0  0
   -0.5751   66.0837   80.8667 C   0  0  0  0  0  0  0  0  0  0  0  0
   -3.8555   62.6409   81.0342 C   0  0  0  0  0  0  0  0  0  0  0  0
   -3.1015   61.7592   80.0749 C   0  0  0  0  0  0  0  0  0  0  0  0
   -3.6295   60.5028   79.7383 C   0  0  0  0  0  0  0  0  0  0  0  0
   -2.9478   59.6577   78.8675 C   0  0  0  0  0  0  0  0  0  0  0  0
   -1.7286   60.0579   78.3261 C   0  0  0  0  0  0  0  0  0  0  0  0
   -1.1849   61.3152   78.6422 C   0  0  0  0  0  0  0  0  0  0  0  0
   -1.8819   62.1896   79.5023 C   0  0  0  0  0  0  0  0  0  0  0  0
    0.1206   61.7066   78.0464 C   0  0  0  0  0  0  0  0  0  0  0  0
    0.4083   61.8362   76.8721 O   0  0  0  0  0  0  0  0  0  0  0  0
    1.0536   61.9273   78.9969 O   0  0  0  0  0  0  0  0  0  0  0  0
    1.8400   62.1987   78.4787 H   0  0  0  0  0  0  0  0  0  0  0  0
   -0.1974   63.4895   84.9290 C   0  0  0  0  0  0  0  0  0  0  0  0
    0.5982   64.3042   85.7486 C   0  0  0  0  0  0  0  0  0  0  0  0
    0.7520   64.0072   87.1082 C   0  0  0  0  0  0  0  0  0  0  0  0
    0.1136   62.8967   87.6556 C   0  0  0  0  0  0  0  0  0  0  0  0
    0.3054   62.5364   89.3260 Cl  0  0  0  0  0  0  0  0  0  0  0  0
   -0.6785   62.0777   86.8560 C   0  0  0  0  0  0  0  0  0  0  0  0
   -0.8330   62.3731   85.4978 C   0  0  0  0  0  0  0  0  0  0  0  0
  8  9  1  0  0  0
  9 10  2  0  0  0
 10 11  1  0  0  0
 11 12  2  0  0  0
 12 13  1  0  0  0
 13 15  1  0  0  0
 15 16  2  0  0  0
 15 17  1  0  0  0
 13 14  2  0  0  0
 14  1  1  0  0  0
  1  2  2  0  0  0
  2  3  1  0  0  0
  3  4  1  0  0  0
  4 19  1  0  0  0
 19 20  1  0  0  0
 20 21  2  0  0  0
 21 22  1  0  0  0
 22 23  1  0  0  0
 22 24  2  0  0  0
 24 25  1  0  0  0
  4  5  2  0  0  0
  5  6  1  0  0  0
  6  7  1  0  0  0
 14  9  1  0  0  0
  6  2  1  0  0  0
 25 19  2  0  0  0
 17 18  1  0  0  0
M  END
> <minimizedAffinity>
-8.09469

$$$$



 25 27  0  0  0  0  0  0  0  0999 V2000
    1.4709   69.7043   80.8760 N   0  0  0  0  0  0  0  0  0  0  0  0
    1.9534   68.8659   81.7421 C   0  0  0  0  0  0  0  0  0  0  0  0
    2.7956   69.2820   83.2343 S   0  0  0  0  0  0  0  0  0  0  0  0
    3.0728   67.5648   83.4957 C   0  0  0  0  0  0  0  0  0  0  0  0
    2.5592   66.7539   82.6161 N   0  0  0  0  0  0  0  0  0  0  0  0
    1.8914   67.4903   81.6668 N   0  0  0  0  0  0  0  0  0  0  0  0
    1.5101   66.8082   80.4478 C   0  0  0  0  0  0  0  0  0  0  0  0
   -0.7697   71.1618   81.9024 C   0  0  0  0  0  0  0  0  0  0  0  0
    0.5274   71.8388   81.5484 C   0  0  0  0  0  0  0  0  0  0  0  0
    0.6455   73.2271   81.7201 C   0  0  0  0  0  0  0  0  0  0  0  0
    1.8258   73.8847   81.3859 C   0  0  0  0  0  0  0  0  0  0  0  0
    2.9003   73.1620   80.8729 C   0  0  0  0  0  0  0  0  0  0  0  0
    2.8076   71.7699   80.7005 C   0  0  0  0  0  0  0  0  0  0  0  0
    1.6249   71.0910   81.0621 C   0  0  0  0  0  0  0  0  0  0  0  0
    3.9751   71.0326   80.1477 C   0  0  0  0  0  0  0  0  0  0  0  0
    5.1107   70.9801   80.5791 O   0  0  0  0  0  0  0  0  0  0  0  0
    3.6507   70.3621   79.0217 O   0  0  0  0  0  0  0  0  0  0  0  0
    4.4861   69.9079   78.7840 H   0  0  0  0  0  0  0  0  0  0  0  0
    3.8566   67.0896   84.6656 C   0  0  0  0  0  0  0  0  0  0  0  0
    4.6525   67.9388   85.4491 C   0  0  0  0  0  0  0  0  0  0  0  0
    5.3685   67.4322   86.5404 C   0  0  0  0  0  0  0  0  0  0  0  0
    5.2941   66.0771   86.8544 C   0  0  0  0  0  0  0  0  0  0  0  0
    6.1750   65.4598   88.1959 Cl  0  0  0  0  0  0  0  0  0  0  0  0
    4.5098   65.2209   86.0866 C   0  0  0  0  0  0  0  0  0  0  0  0
    3.7941   65.7256   84.9962 C   0  0  0  0  0  0  0  0  0  0  0  0
  8  9  1  0  0  0
  9 10  2  0  0  0
 10 11  1  0  0  0
 11 12  2  0  0  0
 12 13  1  0  0  0
 13 15  1  0  0  0
 15 16  2  0  0  0
 15 17  1  0  0  0
 13 14  2  0  0  0
 14  1  1  0  0  0
  1  2  2  0  0  0
  2  3  1  0  0  0
  3  4  1  0  0  0
  4 19  1  0  0  0
 19 20  1  0  0  0
 20 21  2  0  0  0
 21 22  1  0  0  0
 22 23  1  0  0  0
 22 24  2  0  0  0
 24 25  1  0  0  0
  4  5  2  0  0  0
  5  6  1  0  0  0
  6  7  1  0  0  0
 14  9  1  0  0  0
  6  2  1  0  0  0
 25 19  2  0  0  0
 17 18  1  0  0  0
M  END
> <minimizedAffinity>
-8.02156

$$$$



 25 27  0  0  0  0  0  0  0  0999 V2000
    1.8100   70.4074   82.5052 N   0  0  0  0  0  0  0  0  0  0  0  0
    2.6924   71.1084   81.8605 C   0  0  0  0  0  0  0  0  0  0  0  0
    3.7422   70.5253   80.5694 S   0  0  0  0  0  0  0  0  0  0  0  0
    4.5097   72.1078   80.5492 C   0  0  0  0  0  0  0  0  0  0  0  0
    4.0210   72.9999   81.3620 N   0  0  0  0  0  0  0  0  0  0  0  0
    2.9713   72.4450   82.0545 N   0  0  0  0  0  0  0  0  0  0  0  0
    2.4885   73.1660   83.2136 C   0  0  0  0  0  0  0  0  0  0  0  0
   -0.1396   69.6875   80.5357 C   0  0  0  0  0  0  0  0  0  0  0  0
    0.6709   68.6533   81.2705 C   0  0  0  0  0  0  0  0  0  0  0  0
    0.4650   67.2936   80.9889 C   0  0  0  0  0  0  0  0  0  0  0  0
    1.1865   66.3129   81.6634 C   0  0  0  0  0  0  0  0  0  0  0  0
    2.1196   66.6807   82.6299 C   0  0  0  0  0  0  0  0  0  0  0  0
    2.3485   68.0366   82.9222 C   0  0  0  0  0  0  0  0  0  0  0  0
    1.6417   69.0384   82.2243 C   0  0  0  0  0  0  0  0  0  0  0  0
    3.3512   68.3905   83.9623 C   0  0  0  0  0  0  0  0  0  0  0  0
    4.5565   68.5009   83.8455 O   0  0  0  0  0  0  0  0  0  0  0  0
    2.7689   68.5990   85.1623 O   0  0  0  0  0  0  0  0  0  0  0  0
    3.5237   68.8462   85.7366 H   0  0  0  0  0  0  0  0  0  0  0  0
    5.6551   72.3869   79.6443 C   0  0  0  0  0  0  0  0  0  0  0  0
    5.9794   71.5740   78.5476 C   0  0  0  0  0  0  0  0  0  0  0  0
    7.0715   71.8889   77.7301 C   0  0  0  0  0  0  0  0  0  0  0  0
    7.8446   73.0150   78.0030 C   0  0  0  0  0  0  0  0  0  0  0  0
    9.1847   73.3977   76.9957 Cl  0  0  0  0  0  0  0  0  0  0  0  0
    7.5370   73.8314   79.0877 C   0  0  0  0  0  0  0  0  0  0  0  0
    6.4464   73.5181   79.9052 C   0  0  0  0  0  0  0  0  0  0  0  0
  8  9  1  0  0  0
  9 10  2  0  0  0
 10 11  1  0  0  0
 11 12  2  0  0  0
 12 13  1  0  0  0
 13 15  1  0  0  0
 15 16  2  0  0  0
 15 17  1  0  0  0
 13 14  2  0  0  0
 14  1  1  0  0  0
  1  2  2  0  0  0
  2  3  1  0  0  0
  3  4  1  0  0  0
  4 19  1  0  0  0
 19 20  1  0  0  0
 20 21  2  0  0  0
 21 22  1  0  0  0
 22 23  1  0  0  0
 22 24  2  0  0  0
 24 25  1  0  0  0
  4  5  2  0  0  0
  5  6  1  0  0  0
  6  7  1  0  0  0
 14  9  1  0  0  0
  6  2  1  0  0  0
 25 19  2  0  0  0
 17 18  1  0  0  0
M  END
> <minimizedAffinity>
-7.63739

$$$$



 25 27  0  0  0  0  0  0  0  0999 V2000
   -0.6957   63.0807   83.1295 N   0  0  0  0  0  0  0  0  0  0  0  0
   -0.0668   64.2163   83.1549 C   0  0  0  0  0  0  0  0  0  0  0  0
    0.3521   65.2043   81.7557 S   0  0  0  0  0  0  0  0  0  0  0  0
    1.1942   66.2984   82.8455 C   0  0  0  0  0  0  0  0  0  0  0  0
    1.1366   66.0116   84.1142 N   0  0  0  0  0  0  0  0  0  0  0  0
    0.3854   64.8725   84.2804 N   0  0  0  0  0  0  0  0  0  0  0  0
    0.4499   64.2198   85.5713 C   0  0  0  0  0  0  0  0  0  0  0  0
   -3.2767   63.7679   82.0979 C   0  0  0  0  0  0  0  0  0  0  0  0
   -2.3606   62.8119   81.3818 C   0  0  0  0  0  0  0  0  0  0  0  0
   -2.7816   62.2332   80.1740 C   0  0  0  0  0  0  0  0  0  0  0  0
   -1.9644   61.3327   79.4968 C   0  0  0  0  0  0  0  0  0  0  0  0
   -0.7185   60.9977   80.0215 C   0  0  0  0  0  0  0  0  0  0  0  0
   -0.2727   61.5713   81.2250 C   0  0  0  0  0  0  0  0  0  0  0  0
   -1.0824   62.5058   81.9043 C   0  0  0  0  0  0  0  0  0  0  0  0
    1.0629   61.1872   81.7554 C   0  0  0  0  0  0  0  0  0  0  0  0
    1.4051   61.0446   82.9134 O   0  0  0  0  0  0  0  0  0  0  0  0
    1.9541   60.9910   80.7605 O   0  0  0  0  0  0  0  0  0  0  0  0
    2.7663   60.7217   81.2385 H   0  0  0  0  0  0  0  0  0  0  0  0
    1.9271   67.4803   82.3213 C   0  0  0  0  0  0  0  0  0  0  0  0
    2.7727   68.2699   83.1150 C   0  0  0  0  0  0  0  0  0  0  0  0
    3.4372   69.3721   82.5638 C   0  0  0  0  0  0  0  0  0  0  0  0
    3.2609   69.6915   81.2195 C   0  0  0  0  0  0  0  0  0  0  0  0
    4.0795   71.0460   80.5471 Cl  0  0  0  0  0  0  0  0  0  0  0  0
    2.4246   68.9189   80.4185 C   0  0  0  0  0  0  0  0  0  0  0  0
    1.7602   67.8177   80.9678 C   0  0  0  0  0  0  0  0  0  0  0  0
  8  9  1  0  0  0
  9 10  2  0  0  0
 10 11  1  0  0  0
 11 12  2  0  0  0
 12 13  1  0  0  0
 13 15  1  0  0  0
 15 16  2  0  0  0
 15 17  1  0  0  0
 13 14  2  0  0  0
 14  1  1  0  0  0
  1  2  2  0  0  0
  2  3  1  0  0  0
  3  4  1  0  0  0
  4 19  1  0  0  0
 19 20  1  0  0  0
 20 21  2  0  0  0
 21 22  1  0  0  0
 22 23  1  0  0  0
 22 24  2  0  0  0
 24 25  1  0  0  0
  4  5  2  0  0  0
  5  6  1  0  0  0
  6  7  1  0  0  0
 14  9  1  0  0  0
  6  2  1  0  0  0
 25 19  2  0  0  0
 17 18  1  0  0  0
M  END
> <minimizedAffinity>
-7.61718

$$$$



 25 27  0  0  0  0  0  0  0  0999 V2000
    1.9902   69.9045   80.7012 N   0  0  0  0  0  0  0  0  0  0  0  0
    2.3624   69.0517   81.6067 C   0  0  0  0  0  0  0  0  0  0  0  0
    3.1931   69.4326   83.1147 S   0  0  0  0  0  0  0  0  0  0  0  0
    3.2958   67.7059   83.4339 C   0  0  0  0  0  0  0  0  0  0  0  0
    2.7346   66.9202   82.5604 N   0  0  0  0  0  0  0  0  0  0  0  0
    2.1710   67.6865   81.5682 N   0  0  0  0  0  0  0  0  0  0  0  0
    1.7646   67.0058   80.3566 C   0  0  0  0  0  0  0  0  0  0  0  0
    4.6304   70.7984   80.0468 C   0  0  0  0  0  0  0  0  0  0  0  0
    3.5730   71.7409   80.5567 C   0  0  0  0  0  0  0  0  0  0  0  0
    3.8873   73.0989   80.7229 C   0  0  0  0  0  0  0  0  0  0  0  0
    2.9366   73.9921   81.2084 C   0  0  0  0  0  0  0  0  0  0  0  0
    1.6620   73.5368   81.5367 C   0  0  0  0  0  0  0  0  0  0  0  0
    1.3224   72.1828   81.3704 C   0  0  0  0  0  0  0  0  0  0  0  0
    2.2707   71.2754   80.8531 C   0  0  0  0  0  0  0  0  0  0  0  0
   -0.0481   71.7334   81.7342 C   0  0  0  0  0  0  0  0  0  0  0  0
   -0.4972   70.6034   81.7418 O   0  0  0  0  0  0  0  0  0  0  0  0
   -0.8335   72.7727   82.0881 O   0  0  0  0  0  0  0  0  0  0  0  0
   -1.6811   72.3413   82.3251 H   0  0  0  0  0  0  0  0  0  0  0  0
    3.9930   67.1953   84.6429 C   0  0  0  0  0  0  0  0  0  0  0  0
    4.7417   68.0174   85.4987 C   0  0  0  0  0  0  0  0  0  0  0  0
    5.3763   67.4780   86.6241 C   0  0  0  0  0  0  0  0  0  0  0  0
    5.2674   66.1170   86.9003 C   0  0  0  0  0  0  0  0  0  0  0  0
    6.0484   65.4594   88.2839 Cl  0  0  0  0  0  0  0  0  0  0  0  0
    4.5292   65.2874   86.0609 C   0  0  0  0  0  0  0  0  0  0  0  0
    3.8948   65.8249   84.9364 C   0  0  0  0  0  0  0  0  0  0  0  0
  8  9  1  0  0  0
  9 10  2  0  0  0
 10 11  1  0  0  0
 11 12  2  0  0  0
 12 13  1  0  0  0
 13 15  1  0  0  0
 15 16  2  0  0  0
 15 17  1  0  0  0
 13 14  2  0  0  0
 14  1  1  0  0  0
  1  2  2  0  0  0
  2  3  1  0  0  0
  3  4  1  0  0  0
  4 19  1  0  0  0
 19 20  1  0  0  0
 20 21  2  0  0  0
 21 22  1  0  0  0
 22 23  1  0  0  0
 22 24  2  0  0  0
 24 25  1  0  0  0
  4  5  2  0  0  0
  5  6  1  0  0  0
  6  7  1  0  0  0
 14  9  1  0  0  0
  6  2  1  0  0  0
 25 19  2  0  0  0
 17 18  1  0  0  0
M  END
> <minimizedAffinity>
-7.46506

$$$$



 25 27  0  0  0  0  0  0  0  0999 V2000
   -1.0108   61.9492   82.2443 N   0  0  0  0  0  0  0  0  0  0  0  0
   -0.5230   63.0634   82.6988 C   0  0  0  0  0  0  0  0  0  0  0  0
    0.0531   64.4184   81.7287 S   0  0  0  0  0  0  0  0  0  0  0  0
    0.5458   65.2096   83.2205 C   0  0  0  0  0  0  0  0  0  0  0  0
    0.2728   64.5815   84.3278 N   0  0  0  0  0  0  0  0  0  0  0  0
   -0.3711   63.4051   84.0263 N   0  0  0  0  0  0  0  0  0  0  0  0
   -0.4904   62.4256   85.0859 C   0  0  0  0  0  0  0  0  0  0  0  0
    1.4093   61.2599   80.8784 C   0  0  0  0  0  0  0  0  0  0  0  0
    0.0960   61.3943   80.1549 C   0  0  0  0  0  0  0  0  0  0  0  0
    0.0521   61.1812   78.7681 C   0  0  0  0  0  0  0  0  0  0  0  0
   -1.1435   61.3145   78.0681 C   0  0  0  0  0  0  0  0  0  0  0  0
   -2.3081   61.6660   78.7463 C   0  0  0  0  0  0  0  0  0  0  0  0
   -2.2895   61.8759   80.1363 C   0  0  0  0  0  0  0  0  0  0  0  0
   -1.0880   61.7163   80.8583 C   0  0  0  0  0  0  0  0  0  0  0  0
   -3.5527   62.2525   80.8255 C   0  0  0  0  0  0  0  0  0  0  0  0
   -4.6399   61.7117   80.7620 O   0  0  0  0  0  0  0  0  0  0  0  0
   -3.3882   63.3455   81.6006 O   0  0  0  0  0  0  0  0  0  0  0  0
   -4.2713   63.4643   82.0090 H   0  0  0  0  0  0  0  0  0  0  0  0
    1.2370   66.5250   83.1922 C   0  0  0  0  0  0  0  0  0  0  0  0
    2.0099   67.0061   84.2598 C   0  0  0  0  0  0  0  0  0  0  0  0
    2.6380   68.2544   84.1742 C   0  0  0  0  0  0  0  0  0  0  0  0
    2.4977   69.0279   83.0242 C   0  0  0  0  0  0  0  0  0  0  0  0
    3.2715   70.5603   82.9239 Cl  0  0  0  0  0  0  0  0  0  0  0  0
    1.7336   68.5656   81.9564 C   0  0  0  0  0  0  0  0  0  0  0  0
    1.1056   67.3189   82.0406 C   0  0  0  0  0  0  0  0  0  0  0  0
  8  9  1  0  0  0
  9 10  2  0  0  0
 10 11  1  0  0  0
 11 12  2  0  0  0
 12 13  1  0  0  0
 13 15  1  0  0  0
 15 16  2  0  0  0
 15 17  1  0  0  0
 13 14  2  0  0  0
 14  1  1  0  0  0
  1  2  2  0  0  0
  2  3  1  0  0  0
  3  4  1  0  0  0
  4 19  1  0  0  0
 19 20  1  0  0  0
 20 21  2  0  0  0
 21 22  1  0  0  0
 22 23  1  0  0  0
 22 24  2  0  0  0
 24 25  1  0  0  0
  4  5  2  0  0  0
  5  6  1  0  0  0
  6  7  1  0  0  0
 14  9  1  0  0  0
  6  2  1  0  0  0
 25 19  2  0  0  0
 17 18  1  0  0  0
M  END
> <minimizedAffinity>
-7.36227

$$$$
