


 31 34  0  0  0  0  0  0  0  0999 V2000
    1.0774   67.5159   82.0254 C   0  0  0  0  0  0  0  0  0  0  0  0
    6.0251   67.8740   85.4858 C   0  0  0  0  0  0  0  0  0  0  0  0
    4.8253   67.1560   85.1002 N   0  0  0  0  0  0  0  0  0  0  0  0
    4.4994   65.9453   85.7001 C   0  0  0  0  0  0  0  0  0  0  0  0
    5.1710   65.4066   86.5794 O   0  0  0  0  0  0  0  0  0  0  0  0
    3.3437   65.3207   85.2682 N   0  0  0  0  0  0  0  0  0  0  0  0
    2.4615   65.7654   84.3105 C   0  0  0  0  0  0  0  0  0  0  0  0
    1.4492   65.1416   84.0132 O   0  0  0  0  0  0  0  0  0  0  0  0
    2.8532   67.0075   83.7376 C   0  0  0  0  0  0  0  0  0  0  0  0
    3.9911   67.6587   84.1240 C   0  0  0  0  0  0  0  0  0  0  0  0
    4.1796   68.8101   83.4312 N   0  0  0  0  0  0  0  0  0  0  0  0
    3.1563   68.8656   82.6049 C   0  0  0  0  0  0  0  0  0  0  0  0
    2.9622   70.1137   81.4274 S   0  0  0  0  0  0  0  0  0  0  0  0
    2.2907   67.8067   82.7693 N   0  0  0  0  0  0  0  0  0  0  0  0
    3.1249   64.4460   85.7189 H   0  0  0  0  0  0  0  0  0  0  0  0
    4.0422   70.8241   81.7808 H   0  0  0  0  0  0  0  0  0  0  0  0
    1.2421   66.5752   80.8225 C   0  0  0  0  0  0  0  0  0  0  0  0
    1.6583   67.3220   79.6716 O   0  0  0  0  0  0  0  0  0  0  0  0
    1.6662   66.6938   78.9229 H   0  0  0  0  0  0  0  0  0  0  0  0
   -0.0059   65.7575   80.4646 C   0  0  0  0  0  0  0  0  0  0  0  0
    0.1547   64.4063   80.9198 O   0  0  0  0  0  0  0  0  0  0  0  0
   -0.5058   63.4052   80.2632 C   0  0  0  0  0  0  0  0  0  0  0  0
   -1.1495   62.4968   81.1040 C   0  0  0  0  0  0  0  0  0  0  0  0
   -1.8728   61.4250   80.5773 C   0  0  0  0  0  0  0  0  0  0  0  0
   -1.9649   61.2414   79.1914 C   0  0  0  0  0  0  0  0  0  0  0  0
   -2.6874   60.1702   78.6415 C   0  0  0  0  0  0  0  0  0  0  0  0
   -2.7682   60.0004   77.2587 C   0  0  0  0  0  0  0  0  0  0  0  0
   -2.1277   60.8979   76.4099 C   0  0  0  0  0  0  0  0  0  0  0  0
   -1.4057   61.9677   76.9419 C   0  0  0  0  0  0  0  0  0  0  0  0
   -1.3145   62.1549   78.3314 C   0  0  0  0  0  0  0  0  0  0  0  0
   -0.5902   63.2307   78.8807 C   0  0  0  0  0  0  0  0  0  0  0  0
  2  3  1  0  0  0
  3  4  1  0  0  0
  4  5  2  0  0  0
  4  6  1  0  0  0
  6  7  1  0  0  0
  7  8  2  0  0  0
  7  9  1  0  0  0
  9 10  2  0  0  0
 10 11  1  0  0  0
 11 12  2  0  0  0
 12 13  1  0  0  0
 12 14  1  0  0  0
 14  1  1  0  0  0
  1 17  1  0  0  0
 17 18  1  0  0  0
 17 20  1  0  0  0
 20 21  1  0  0  0
 21 22  1  0  0  0
 22 23  1  0  0  0
 23 24  2  0  0  0
 24 25  1  0  0  0
 25 26  2  0  0  0
 26 27  1  0  0  0
 27 28  2  0  0  0
 28 29  1  0  0  0
 29 30  2  0  0  0
 30 31  1  0  0  0
 10  3  1  0  0  0
 31 22  2  0  0  0
 14  9  1  0  0  0
 30 25  1  0  0  0
  6 15  1  0  0  0
 13 16  1  0  0  0
 18 19  1  0  0  0
M  END
> <minimizedAffinity>
-1.85335

$$$$



 31 34  0  0  0  0  0  0  0  0999 V2000
    1.7973   66.2979   81.8512 C   0  0  0  0  0  0  0  0  0  0  0  0
    2.2728   72.2629   82.7320 C   0  0  0  0  0  0  0  0  0  0  0  0
    1.6533   71.1535   82.0326 N   0  0  0  0  0  0  0  0  0  0  0  0
    0.6677   71.3779   81.0784 C   0  0  0  0  0  0  0  0  0  0  0  0
    0.2602   72.4931   80.7547 O   0  0  0  0  0  0  0  0  0  0  0  0
    0.1217   70.2654   80.4649 N   0  0  0  0  0  0  0  0  0  0  0  0
    0.4489   68.9467   80.6819 C   0  0  0  0  0  0  0  0  0  0  0  0
   -0.0847   68.0304   80.0670 O   0  0  0  0  0  0  0  0  0  0  0  0
    1.4620   68.7874   81.6681 C   0  0  0  0  0  0  0  0  0  0  0  0
    2.0256   69.8550   82.3091 C   0  0  0  0  0  0  0  0  0  0  0  0
    2.9511   69.4697   83.2236 N   0  0  0  0  0  0  0  0  0  0  0  0
    2.9523   68.1551   83.1536 C   0  0  0  0  0  0  0  0  0  0  0  0
    3.9110   67.1570   84.1863 S   0  0  0  0  0  0  0  0  0  0  0  0
    2.0856   67.6796   82.1943 N   0  0  0  0  0  0  0  0  0  0  0  0
   -0.5886   70.4514   79.7743 H   0  0  0  0  0  0  0  0  0  0  0  0
    4.5319   68.1563   84.8282 H   0  0  0  0  0  0  0  0  0  0  0  0
    0.6486   65.6426   82.6321 C   0  0  0  0  0  0  0  0  0  0  0  0
    1.1773   64.7497   83.6215 O   0  0  0  0  0  0  0  0  0  0  0  0
    0.4094   64.3020   84.0278 H   0  0  0  0  0  0  0  0  0  0  0  0
   -0.3721   64.8878   81.7704 C   0  0  0  0  0  0  0  0  0  0  0  0
    0.0094   63.5085   81.6662 O   0  0  0  0  0  0  0  0  0  0  0  0
   -0.6573   62.7036   80.7845 C   0  0  0  0  0  0  0  0  0  0  0  0
   -1.5884   61.8515   81.3792 C   0  0  0  0  0  0  0  0  0  0  0  0
   -2.3527   60.9767   80.6045 C   0  0  0  0  0  0  0  0  0  0  0  0
   -2.1974   60.9381   79.2126 C   0  0  0  0  0  0  0  0  0  0  0  0
   -2.9561   60.0659   78.4155 C   0  0  0  0  0  0  0  0  0  0  0  0
   -2.7885   60.0385   77.0304 C   0  0  0  0  0  0  0  0  0  0  0  0
   -1.8607   60.8813   76.4261 C   0  0  0  0  0  0  0  0  0  0  0  0
   -1.0991   61.7539   77.2055 C   0  0  0  0  0  0  0  0  0  0  0  0
   -1.2553   61.7958   78.6011 C   0  0  0  0  0  0  0  0  0  0  0  0
   -0.4940   62.6724   79.3985 C   0  0  0  0  0  0  0  0  0  0  0  0
  2  3  1  0  0  0
  3  4  1  0  0  0
  4  5  2  0  0  0
  4  6  1  0  0  0
  6  7  1  0  0  0
  7  8  2  0  0  0
  7  9  1  0  0  0
  9 10  2  0  0  0
 10 11  1  0  0  0
 11 12  2  0  0  0
 12 13  1  0  0  0
 12 14  1  0  0  0
 14  1  1  0  0  0
  1 17  1  0  0  0
 17 18  1  0  0  0
 17 20  1  0  0  0
 20 21  1  0  0  0
 21 22  1  0  0  0
 22 23  1  0  0  0
 23 24  2  0  0  0
 24 25  1  0  0  0
 25 26  2  0  0  0
 26 27  1  0  0  0
 27 28  2  0  0  0
 28 29  1  0  0  0
 29 30  2  0  0  0
 30 31  1  0  0  0
 10  3  1  0  0  0
 31 22  2  0  0  0
 14  9  1  0  0  0
 30 25  1  0  0  0
  6 15  1  0  0  0
 13 16  1  0  0  0
 18 19  1  0  0  0
M  END
> <minimizedAffinity>
-1.81642

$$$$



 31 34  0  0  0  0  0  0  0  0999 V2000
    0.9158   64.3649   82.4962 C   0  0  0  0  0  0  0  0  0  0  0  0
    1.6663   70.0495   80.5713 C   0  0  0  0  0  0  0  0  0  0  0  0
    1.8843   69.0420   81.5916 N   0  0  0  0  0  0  0  0  0  0  0  0
    2.5949   69.3447   82.7472 C   0  0  0  0  0  0  0  0  0  0  0  0
    3.0728   70.4514   82.9949 O   0  0  0  0  0  0  0  0  0  0  0  0
    2.7661   68.3248   83.6652 N   0  0  0  0  0  0  0  0  0  0  0  0
    2.3025   67.0326   83.5746 C   0  0  0  0  0  0  0  0  0  0  0  0
    2.4932   66.2054   84.4588 O   0  0  0  0  0  0  0  0  0  0  0  0
    1.5850   66.7898   82.3701 C   0  0  0  0  0  0  0  0  0  0  0  0
    1.3974   67.7623   81.4282 C   0  0  0  0  0  0  0  0  0  0  0  0
    0.7070   67.3043   80.3535 N   0  0  0  0  0  0  0  0  0  0  0  0
    0.4750   66.0382   80.6293 C   0  0  0  0  0  0  0  0  0  0  0  0
   -0.3134   64.9634   79.5315 S   0  0  0  0  0  0  0  0  0  0  0  0
    0.9586   65.6732   81.8664 N   0  0  0  0  0  0  0  0  0  0  0  0
    3.2813   68.5672   84.4970 H   0  0  0  0  0  0  0  0  0  0  0  0
   -0.5661   65.8754   78.5826 H   0  0  0  0  0  0  0  0  0  0  0  0
   -0.3415   64.0651   83.3258 C   0  0  0  0  0  0  0  0  0  0  0  0
   -0.0868   64.3287   84.7118 O   0  0  0  0  0  0  0  0  0  0  0  0
   -0.8853   64.0440   85.1982 H   0  0  0  0  0  0  0  0  0  0  0  0
   -0.8888   62.6392   83.1793 C   0  0  0  0  0  0  0  0  0  0  0  0
   -0.1970   61.9625   82.1199 O   0  0  0  0  0  0  0  0  0  0  0  0
   -0.9112   61.5222   81.0402 C   0  0  0  0  0  0  0  0  0  0  0  0
   -2.2728   61.3460   81.2882 C   0  0  0  0  0  0  0  0  0  0  0  0
   -3.1319   60.9087   80.2780 C   0  0  0  0  0  0  0  0  0  0  0  0
   -2.6407   60.6376   78.9943 C   0  0  0  0  0  0  0  0  0  0  0  0
   -3.4877   60.1972   77.9645 C   0  0  0  0  0  0  0  0  0  0  0  0
   -2.9826   59.9301   76.6914 C   0  0  0  0  0  0  0  0  0  0  0  0
   -1.6258   60.0990   76.4328 C   0  0  0  0  0  0  0  0  0  0  0  0
   -0.7714   60.5362   77.4465 C   0  0  0  0  0  0  0  0  0  0  0  0
   -1.2626   60.8111   78.7338 C   0  0  0  0  0  0  0  0  0  0  0  0
   -0.4113   61.2538   79.7648 C   0  0  0  0  0  0  0  0  0  0  0  0
  2  3  1  0  0  0
  3  4  1  0  0  0
  4  5  2  0  0  0
  4  6  1  0  0  0
  6  7  1  0  0  0
  7  8  2  0  0  0
  7  9  1  0  0  0
  9 10  2  0  0  0
 10 11  1  0  0  0
 11 12  2  0  0  0
 12 13  1  0  0  0
 12 14  1  0  0  0
 14  1  1  0  0  0
  1 17  1  0  0  0
 17 18  1  0  0  0
 17 20  1  0  0  0
 20 21  1  0  0  0
 21 22  1  0  0  0
 22 23  1  0  0  0
 23 24  2  0  0  0
 24 25  1  0  0  0
 25 26  2  0  0  0
 26 27  1  0  0  0
 27 28  2  0  0  0
 28 29  1  0  0  0
 29 30  2  0  0  0
 30 31  1  0  0  0
 10  3  1  0  0  0
 31 22  2  0  0  0
 14  9  1  0  0  0
 30 25  1  0  0  0
  6 15  1  0  0  0
 13 16  1  0  0  0
 18 19  1  0  0  0
M  END
> <minimizedAffinity>
-1.78572

$$$$



 31 34  0  0  0  0  0  0  0  0999 V2000
    0.4879   64.3834   81.1232 C   0  0  0  0  0  0  0  0  0  0  0  0
   -3.4195   60.0214   79.6106 C   0  0  0  0  0  0  0  0  0  0  0  0
   -2.4189   60.9908   79.2071 N   0  0  0  0  0  0  0  0  0  0  0  0
   -2.0428   61.1092   77.8743 C   0  0  0  0  0  0  0  0  0  0  0  0
   -2.5145   60.4335   76.9602 O   0  0  0  0  0  0  0  0  0  0  0  0
   -1.0754   62.0511   77.5754 N   0  0  0  0  0  0  0  0  0  0  0  0
   -0.4400   62.9026   78.4497 C   0  0  0  0  0  0  0  0  0  0  0  0
    0.3944   63.7196   78.0773 O   0  0  0  0  0  0  0  0  0  0  0  0
   -0.8704   62.7299   79.7948 C   0  0  0  0  0  0  0  0  0  0  0  0
   -1.8163   61.8063   80.1416 C   0  0  0  0  0  0  0  0  0  0  0  0
   -2.0555   61.7987   81.4773 N   0  0  0  0  0  0  0  0  0  0  0  0
   -1.2452   62.7172   81.9597 C   0  0  0  0  0  0  0  0  0  0  0  0
   -1.0968   63.0509   83.6474 S   0  0  0  0  0  0  0  0  0  0  0  0
   -0.5183   63.3465   80.9732 N   0  0  0  0  0  0  0  0  0  0  0  0
   -0.8202   62.1223   76.6028 H   0  0  0  0  0  0  0  0  0  0  0  0
   -2.0422   62.1927   84.0547 H   0  0  0  0  0  0  0  0  0  0  0  0
   -0.0457   65.8192   81.2344 C   0  0  0  0  0  0  0  0  0  0  0  0
   -0.5035   66.2710   79.9531 O   0  0  0  0  0  0  0  0  0  0  0  0
   -0.7520   67.2097   80.0640 H   0  0  0  0  0  0  0  0  0  0  0  0
    0.9528   66.8390   81.7978 C   0  0  0  0  0  0  0  0  0  0  0  0
    1.3796   67.7253   80.7531 O   0  0  0  0  0  0  0  0  0  0  0  0
    1.6071   69.0396   81.0539 C   0  0  0  0  0  0  0  0  0  0  0  0
    2.8373   69.2818   81.6658 C   0  0  0  0  0  0  0  0  0  0  0  0
    3.2139   70.5779   82.0238 C   0  0  0  0  0  0  0  0  0  0  0  0
    2.3607   71.6609   81.7752 C   0  0  0  0  0  0  0  0  0  0  0  0
    2.7205   72.9719   82.1272 C   0  0  0  0  0  0  0  0  0  0  0  0
    1.8587   74.0398   81.8740 C   0  0  0  0  0  0  0  0  0  0  0  0
    0.6277   73.8103   81.2671 C   0  0  0  0  0  0  0  0  0  0  0  0
    0.2562   72.5125   80.9114 C   0  0  0  0  0  0  0  0  0  0  0  0
    1.1115   71.4255   81.1577 C   0  0  0  0  0  0  0  0  0  0  0  0
    0.7490   70.1116   80.8026 C   0  0  0  0  0  0  0  0  0  0  0  0
  2  3  1  0  0  0
  3  4  1  0  0  0
  4  5  2  0  0  0
  4  6  1  0  0  0
  6  7  1  0  0  0
  7  8  2  0  0  0
  7  9  1  0  0  0
  9 10  2  0  0  0
 10 11  1  0  0  0
 11 12  2  0  0  0
 12 13  1  0  0  0
 12 14  1  0  0  0
 14  1  1  0  0  0
  1 17  1  0  0  0
 17 18  1  0  0  0
 17 20  1  0  0  0
 20 21  1  0  0  0
 21 22  1  0  0  0
 22 23  1  0  0  0
 23 24  2  0  0  0
 24 25  1  0  0  0
 25 26  2  0  0  0
 26 27  1  0  0  0
 27 28  2  0  0  0
 28 29  1  0  0  0
 29 30  2  0  0  0
 30 31  1  0  0  0
 10  3  1  0  0  0
 31 22  2  0  0  0
 14  9  1  0  0  0
 30 25  1  0  0  0
  6 15  1  0  0  0
 13 16  1  0  0  0
 18 19  1  0  0  0
M  END
> <minimizedAffinity>
-1.75959

$$$$



 31 34  0  0  0  0  0  0  0  0999 V2000
    0.5786   65.2661   80.3294 C   0  0  0  0  0  0  0  0  0  0  0  0
   -2.7516   60.2214   80.5411 C   0  0  0  0  0  0  0  0  0  0  0  0
   -2.1197   61.2635   79.7547 N   0  0  0  0  0  0  0  0  0  0  0  0
   -2.2074   61.2574   78.3675 C   0  0  0  0  0  0  0  0  0  0  0  0
   -2.8114   60.4051   77.7169 O   0  0  0  0  0  0  0  0  0  0  0  0
   -1.5688   62.2816   77.6927 N   0  0  0  0  0  0  0  0  0  0  0  0
   -0.8563   63.3247   78.2380 C   0  0  0  0  0  0  0  0  0  0  0  0
   -0.3422   64.1974   77.5478 O   0  0  0  0  0  0  0  0  0  0  0  0
   -0.8056   63.2715   79.6589 C   0  0  0  0  0  0  0  0  0  0  0  0
   -1.4124   62.2746   80.3703 C   0  0  0  0  0  0  0  0  0  0  0  0
   -1.2161   62.4097   81.7062 N   0  0  0  0  0  0  0  0  0  0  0  0
   -0.4751   63.4919   81.8198 C   0  0  0  0  0  0  0  0  0  0  0  0
    0.1312   64.0646   83.3319 S   0  0  0  0  0  0  0  0  0  0  0  0
   -0.2196   64.0835   80.6024 N   0  0  0  0  0  0  0  0  0  0  0  0
   -1.6481   62.2593   76.6880 H   0  0  0  0  0  0  0  0  0  0  0  0
   -0.4681   63.1400   84.0948 H   0  0  0  0  0  0  0  0  0  0  0  0
   -0.1181   66.6123   80.5765 C   0  0  0  0  0  0  0  0  0  0  0  0
   -0.8763   66.9898   79.4197 O   0  0  0  0  0  0  0  0  0  0  0  0
   -1.2268   67.8843   79.5992 H   0  0  0  0  0  0  0  0  0  0  0  0
    0.8190   67.7654   80.9595 C   0  0  0  0  0  0  0  0  0  0  0  0
    0.1291   69.0157   80.8192 O   0  0  0  0  0  0  0  0  0  0  0  0
    0.8027   70.1752   81.0862 C   0  0  0  0  0  0  0  0  0  0  0  0
    2.1565   69.9975   81.3728 C   0  0  0  0  0  0  0  0  0  0  0  0
    2.9760   71.0918   81.6569 C   0  0  0  0  0  0  0  0  0  0  0  0
    2.4521   72.3911   81.6602 C   0  0  0  0  0  0  0  0  0  0  0  0
    3.2591   73.5049   81.9432 C   0  0  0  0  0  0  0  0  0  0  0  0
    2.7215   74.7927   81.9439 C   0  0  0  0  0  0  0  0  0  0  0  0
    1.3720   74.9824   81.6627 C   0  0  0  0  0  0  0  0  0  0  0  0
    0.5572   73.8848   81.3795 C   0  0  0  0  0  0  0  0  0  0  0  0
    1.0814   72.5813   81.3732 C   0  0  0  0  0  0  0  0  0  0  0  0
    0.2703   71.4657   81.0879 C   0  0  0  0  0  0  0  0  0  0  0  0
  2  3  1  0  0  0
  3  4  1  0  0  0
  4  5  2  0  0  0
  4  6  1  0  0  0
  6  7  1  0  0  0
  7  8  2  0  0  0
  7  9  1  0  0  0
  9 10  2  0  0  0
 10 11  1  0  0  0
 11 12  2  0  0  0
 12 13  1  0  0  0
 12 14  1  0  0  0
 14  1  1  0  0  0
  1 17  1  0  0  0
 17 18  1  0  0  0
 17 20  1  0  0  0
 20 21  1  0  0  0
 21 22  1  0  0  0
 22 23  1  0  0  0
 23 24  2  0  0  0
 24 25  1  0  0  0
 25 26  2  0  0  0
 26 27  1  0  0  0
 27 28  2  0  0  0
 28 29  1  0  0  0
 29 30  2  0  0  0
 30 31  1  0  0  0
 10  3  1  0  0  0
 31 22  2  0  0  0
 14  9  1  0  0  0
 30 25  1  0  0  0
  6 15  1  0  0  0
 13 16  1  0  0  0
 18 19  1  0  0  0
M  END
> <minimizedAffinity>
-1.72565

$$$$



 31 34  0  0  0  0  0  0  0  0999 V2000
    1.0729   64.2286   83.0364 C   0  0  0  0  0  0  0  0  0  0  0  0
    1.9525   70.0873   81.8176 C   0  0  0  0  0  0  0  0  0  0  0  0
    1.2507   68.8494   81.5371 N   0  0  0  0  0  0  0  0  0  0  0  0
    0.2672   68.7980   80.5561 C   0  0  0  0  0  0  0  0  0  0  0  0
   -0.0712   69.7588   79.8657 O   0  0  0  0  0  0  0  0  0  0  0  0
   -0.3601   67.5817   80.3580 N   0  0  0  0  0  0  0  0  0  0  0  0
   -0.1168   66.3989   81.0175 C   0  0  0  0  0  0  0  0  0  0  0  0
   -0.7190   65.3651   80.7507 O   0  0  0  0  0  0  0  0  0  0  0  0
    0.8989   66.5204   82.0063 C   0  0  0  0  0  0  0  0  0  0  0  0
    1.5413   67.7029   82.2459 C   0  0  0  0  0  0  0  0  0  0  0  0
    2.4536   67.5939   83.2445 N   0  0  0  0  0  0  0  0  0  0  0  0
    2.3674   66.3383   83.6305 C   0  0  0  0  0  0  0  0  0  0  0  0
    3.2745   65.6937   84.9509 S   0  0  0  0  0  0  0  0  0  0  0  0
    1.4565   65.6216   82.8861 N   0  0  0  0  0  0  0  0  0  0  0  0
   -1.0674   67.5664   79.6399 H   0  0  0  0  0  0  0  0  0  0  0  0
    3.9696   66.8086   85.2152 H   0  0  0  0  0  0  0  0  0  0  0  0
   -0.1573   63.9672   83.9180 C   0  0  0  0  0  0  0  0  0  0  0  0
    0.2572   63.5095   85.2120 O   0  0  0  0  0  0  0  0  0  0  0  0
   -0.5591   63.2810   85.6985 H   0  0  0  0  0  0  0  0  0  0  0  0
   -1.1712   62.9734   83.3362 C   0  0  0  0  0  0  0  0  0  0  0  0
   -0.4948   62.0328   82.4896 O   0  0  0  0  0  0  0  0  0  0  0  0
   -1.0909   61.6489   81.3205 C   0  0  0  0  0  0  0  0  0  0  0  0
   -2.2403   60.8767   81.4909 C   0  0  0  0  0  0  0  0  0  0  0  0
   -2.9626   60.4180   80.3874 C   0  0  0  0  0  0  0  0  0  0  0  0
   -2.5446   60.7251   79.0860 C   0  0  0  0  0  0  0  0  0  0  0  0
   -3.2567   60.2739   77.9630 C   0  0  0  0  0  0  0  0  0  0  0  0
   -2.8264   60.5872   76.6730 C   0  0  0  0  0  0  0  0  0  0  0  0
   -1.6797   61.3540   76.4902 C   0  0  0  0  0  0  0  0  0  0  0  0
   -0.9613   61.8098   77.5970 C   0  0  0  0  0  0  0  0  0  0  0  0
   -1.3803   61.5050   78.9029 C   0  0  0  0  0  0  0  0  0  0  0  0
   -0.6651   61.9597   80.0278 C   0  0  0  0  0  0  0  0  0  0  0  0
  2  3  1  0  0  0
  3  4  1  0  0  0
  4  5  2  0  0  0
  4  6  1  0  0  0
  6  7  1  0  0  0
  7  8  2  0  0  0
  7  9  1  0  0  0
  9 10  2  0  0  0
 10 11  1  0  0  0
 11 12  2  0  0  0
 12 13  1  0  0  0
 12 14  1  0  0  0
 14  1  1  0  0  0
  1 17  1  0  0  0
 17 18  1  0  0  0
 17 20  1  0  0  0
 20 21  1  0  0  0
 21 22  1  0  0  0
 22 23  1  0  0  0
 23 24  2  0  0  0
 24 25  1  0  0  0
 25 26  2  0  0  0
 26 27  1  0  0  0
 27 28  2  0  0  0
 28 29  1  0  0  0
 29 30  2  0  0  0
 30 31  1  0  0  0
 10  3  1  0  0  0
 31 22  2  0  0  0
 14  9  1  0  0  0
 30 25  1  0  0  0
  6 15  1  0  0  0
 13 16  1  0  0  0
 18 19  1  0  0  0
M  END
> <minimizedAffinity>
-1.72531

$$$$



 31 34  0  0  0  0  0  0  0  0999 V2000
    0.3575   64.2371   80.5797 C   0  0  0  0  0  0  0  0  0  0  0  0
   -3.4932   59.7084   79.4637 C   0  0  0  0  0  0  0  0  0  0  0  0
   -2.5861   60.7229   78.9621 N   0  0  0  0  0  0  0  0  0  0  0  0
   -2.3620   60.8621   77.5974 C   0  0  0  0  0  0  0  0  0  0  0  0
   -2.8993   60.1686   76.7344 O   0  0  0  0  0  0  0  0  0  0  0  0
   -1.4753   61.8474   77.2032 N   0  0  0  0  0  0  0  0  0  0  0  0
   -0.7876   62.7240   78.0104 C   0  0  0  0  0  0  0  0  0  0  0  0
   -0.0354   63.5788   77.5566 O   0  0  0  0  0  0  0  0  0  0  0  0
   -1.0618   62.5282   79.3927 C   0  0  0  0  0  0  0  0  0  0  0  0
   -1.9228   61.5620   79.8324 C   0  0  0  0  0  0  0  0  0  0  0  0
   -2.0155   61.5397   81.1860 N   0  0  0  0  0  0  0  0  0  0  0  0
   -1.1993   62.4922   81.5853 C   0  0  0  0  0  0  0  0  0  0  0  0
   -0.8841   62.8273   83.2497 S   0  0  0  0  0  0  0  0  0  0  0  0
   -0.6120   63.1565   80.5311 N   0  0  0  0  0  0  0  0  0  0  0  0
   -1.3303   61.9329   76.2093 H   0  0  0  0  0  0  0  0  0  0  0  0
   -1.7410   61.9263   83.7499 H   0  0  0  0  0  0  0  0  0  0  0  0
   -0.2242   65.6473   80.7580 C   0  0  0  0  0  0  0  0  0  0  0  0
   -0.5001   66.2278   79.4764 O   0  0  0  0  0  0  0  0  0  0  0  0
   -0.7867   67.1467   79.6455 H   0  0  0  0  0  0  0  0  0  0  0  0
    0.6533   66.6120   81.5664 C   0  0  0  0  0  0  0  0  0  0  0  0
    1.4256   67.4270   80.6729 O   0  0  0  0  0  0  0  0  0  0  0  0
    1.4568   68.7793   80.8726 C   0  0  0  0  0  0  0  0  0  0  0  0
    0.1989   69.3818   80.9067 C   0  0  0  0  0  0  0  0  0  0  0  0
    0.0711   70.7570   81.1119 C   0  0  0  0  0  0  0  0  0  0  0  0
    1.2065   71.5588   81.2869 C   0  0  0  0  0  0  0  0  0  0  0  0
    1.0998   72.9434   81.4946 C   0  0  0  0  0  0  0  0  0  0  0  0
    2.2408   73.7285   81.6657 C   0  0  0  0  0  0  0  0  0  0  0  0
    3.5010   73.1395   81.6305 C   0  0  0  0  0  0  0  0  0  0  0  0
    3.6230   71.7642   81.4249 C   0  0  0  0  0  0  0  0  0  0  0  0
    2.4853   70.9581   81.2518 C   0  0  0  0  0  0  0  0  0  0  0  0
    2.5948   69.5693   81.0448 C   0  0  0  0  0  0  0  0  0  0  0  0
  2  3  1  0  0  0
  3  4  1  0  0  0
  4  5  2  0  0  0
  4  6  1  0  0  0
  6  7  1  0  0  0
  7  8  2  0  0  0
  7  9  1  0  0  0
  9 10  2  0  0  0
 10 11  1  0  0  0
 11 12  2  0  0  0
 12 13  1  0  0  0
 12 14  1  0  0  0
 14  1  1  0  0  0
  1 17  1  0  0  0
 17 18  1  0  0  0
 17 20  1  0  0  0
 20 21  1  0  0  0
 21 22  1  0  0  0
 22 23  1  0  0  0
 23 24  2  0  0  0
 24 25  1  0  0  0
 25 26  2  0  0  0
 26 27  1  0  0  0
 27 28  2  0  0  0
 28 29  1  0  0  0
 29 30  2  0  0  0
 30 31  1  0  0  0
 10  3  1  0  0  0
 31 22  2  0  0  0
 14  9  1  0  0  0
 30 25  1  0  0  0
  6 15  1  0  0  0
 13 16  1  0  0  0
 18 19  1  0  0  0
M  END
> <minimizedAffinity>
-1.70229

$$$$



 31 34  0  0  0  0  0  0  0  0999 V2000
    0.9020   67.6944   81.6908 C   0  0  0  0  0  0  0  0  0  0  0  0
    3.3432   73.1297   82.7309 C   0  0  0  0  0  0  0  0  0  0  0  0
    2.3175   72.3276   82.0919 N   0  0  0  0  0  0  0  0  0  0  0  0
    1.3324   72.9244   81.3137 C   0  0  0  0  0  0  0  0  0  0  0  0
    1.2561   74.1346   81.1038 O   0  0  0  0  0  0  0  0  0  0  0  0
    0.3864   72.0894   80.7479 N   0  0  0  0  0  0  0  0  0  0  0  0
    0.3088   70.7200   80.8567 C   0  0  0  0  0  0  0  0  0  0  0  0
   -0.5640   70.0675   80.2957 O   0  0  0  0  0  0  0  0  0  0  0  0
    1.3446   70.1738   81.6649 C   0  0  0  0  0  0  0  0  0  0  0  0
    2.2967   70.9583   82.2532 C   0  0  0  0  0  0  0  0  0  0  0  0
    3.1693   70.2307   82.9951 N   0  0  0  0  0  0  0  0  0  0  0  0
    2.7478   68.9898   82.8718 C   0  0  0  0  0  0  0  0  0  0  0  0
    3.4750   67.6605   83.7000 S   0  0  0  0  0  0  0  0  0  0  0  0
    1.6537   68.8870   82.0411 N   0  0  0  0  0  0  0  0  0  0  0  0
   -0.3163   72.5428   80.1851 H   0  0  0  0  0  0  0  0  0  0  0  0
    4.4597   68.3628   84.2774 H   0  0  0  0  0  0  0  0  0  0  0  0
    1.4163   66.9165   80.4705 C   0  0  0  0  0  0  0  0  0  0  0  0
    1.9449   67.8274   79.4976 O   0  0  0  0  0  0  0  0  0  0  0  0
    2.1786   67.2905   78.7151 H   0  0  0  0  0  0  0  0  0  0  0  0
    0.3780   66.0102   79.7960 C   0  0  0  0  0  0  0  0  0  0  0  0
    0.0613   64.9106   80.6618 O   0  0  0  0  0  0  0  0  0  0  0  0
   -0.4725   63.7749   80.1187 C   0  0  0  0  0  0  0  0  0  0  0  0
   -0.8937   62.8343   81.0591 C   0  0  0  0  0  0  0  0  0  0  0  0
   -1.4680   61.6277   80.6545 C   0  0  0  0  0  0  0  0  0  0  0  0
   -1.6313   61.3386   79.2934 C   0  0  0  0  0  0  0  0  0  0  0  0
   -2.2066   60.1312   78.8655 C   0  0  0  0  0  0  0  0  0  0  0  0
   -2.3609   59.8577   77.5059 C   0  0  0  0  0  0  0  0  0  0  0  0
   -1.9417   60.7866   76.5584 C   0  0  0  0  0  0  0  0  0  0  0  0
   -1.3680   61.9913   76.9685 C   0  0  0  0  0  0  0  0  0  0  0  0
   -1.2058   62.2841   78.3331 C   0  0  0  0  0  0  0  0  0  0  0  0
   -0.6296   63.4963   78.7599 C   0  0  0  0  0  0  0  0  0  0  0  0
  2  3  1  0  0  0
  3  4  1  0  0  0
  4  5  2  0  0  0
  4  6  1  0  0  0
  6  7  1  0  0  0
  7  8  2  0  0  0
  7  9  1  0  0  0
  9 10  2  0  0  0
 10 11  1  0  0  0
 11 12  2  0  0  0
 12 13  1  0  0  0
 12 14  1  0  0  0
 14  1  1  0  0  0
  1 17  1  0  0  0
 17 18  1  0  0  0
 17 20  1  0  0  0
 20 21  1  0  0  0
 21 22  1  0  0  0
 22 23  1  0  0  0
 23 24  2  0  0  0
 24 25  1  0  0  0
 25 26  2  0  0  0
 26 27  1  0  0  0
 27 28  2  0  0  0
 28 29  1  0  0  0
 29 30  2  0  0  0
 30 31  1  0  0  0
 10  3  1  0  0  0
 31 22  2  0  0  0
 14  9  1  0  0  0
 30 25  1  0  0  0
  6 15  1  0  0  0
 13 16  1  0  0  0
 18 19  1  0  0  0
M  END
> <minimizedAffinity>
-1.66475

$$$$



 31 34  0  0  0  0  0  0  0  0999 V2000
    1.4850   66.6871   80.8544 C   0  0  0  0  0  0  0  0  0  0  0  0
   -1.2789   61.5621   82.4909 C   0  0  0  0  0  0  0  0  0  0  0  0
   -0.9079   62.4973   81.4462 N   0  0  0  0  0  0  0  0  0  0  0  0
   -1.2645   62.2615   80.1235 C   0  0  0  0  0  0  0  0  0  0  0  0
   -1.9061   61.2821   79.7447 O   0  0  0  0  0  0  0  0  0  0  0  0
   -0.8636   63.1975   79.1879 N   0  0  0  0  0  0  0  0  0  0  0  0
   -0.1535   64.3540   79.4143 C   0  0  0  0  0  0  0  0  0  0  0  0
    0.1363   65.1312   78.5119 O   0  0  0  0  0  0  0  0  0  0  0  0
    0.1788   64.5347   80.7859 C   0  0  0  0  0  0  0  0  0  0  0  0
   -0.1864   63.6334   81.7464 C   0  0  0  0  0  0  0  0  0  0  0  0
    0.2547   63.9942   82.9778 N   0  0  0  0  0  0  0  0  0  0  0  0
    0.9047   65.1208   82.7752 C   0  0  0  0  0  0  0  0  0  0  0  0
    1.7419   65.9646   84.0278 S   0  0  0  0  0  0  0  0  0  0  0  0
    0.8637   65.5209   81.4577 N   0  0  0  0  0  0  0  0  0  0  0  0
   -1.1356   63.0082   78.2359 H   0  0  0  0  0  0  0  0  0  0  0  0
    1.3878   65.1433   85.0258 H   0  0  0  0  0  0  0  0  0  0  0  0
    0.7038   68.0028   80.9876 C   0  0  0  0  0  0  0  0  0  0  0  0
   -0.3575   68.0407   80.0244 O   0  0  0  0  0  0  0  0  0  0  0  0
   -0.7648   68.9261   80.0971 H   0  0  0  0  0  0  0  0  0  0  0  0
    1.5505   69.2750   80.8504 C   0  0  0  0  0  0  0  0  0  0  0  0
    0.9537   70.3368   81.6089 O   0  0  0  0  0  0  0  0  0  0  0  0
    1.5214   71.5799   81.5648 C   0  0  0  0  0  0  0  0  0  0  0  0
    2.9162   71.5712   81.5357 C   0  0  0  0  0  0  0  0  0  0  0  0
    3.6369   72.7659   81.4808 C   0  0  0  0  0  0  0  0  0  0  0  0
    2.9706   73.9981   81.4547 C   0  0  0  0  0  0  0  0  0  0  0  0
    3.6764   75.2108   81.3994 C   0  0  0  0  0  0  0  0  0  0  0  0
    2.9979   76.4299   81.3755 C   0  0  0  0  0  0  0  0  0  0  0  0
    1.6069   76.4515   81.4074 C   0  0  0  0  0  0  0  0  0  0  0  0
    0.8915   75.2541   81.4624 C   0  0  0  0  0  0  0  0  0  0  0  0
    1.5578   74.0174   81.4860 C   0  0  0  0  0  0  0  0  0  0  0  0
    0.8477   72.8023   81.5404 C   0  0  0  0  0  0  0  0  0  0  0  0
  2  3  1  0  0  0
  3  4  1  0  0  0
  4  5  2  0  0  0
  4  6  1  0  0  0
  6  7  1  0  0  0
  7  8  2  0  0  0
  7  9  1  0  0  0
  9 10  2  0  0  0
 10 11  1  0  0  0
 11 12  2  0  0  0
 12 13  1  0  0  0
 12 14  1  0  0  0
 14  1  1  0  0  0
  1 17  1  0  0  0
 17 18  1  0  0  0
 17 20  1  0  0  0
 20 21  1  0  0  0
 21 22  1  0  0  0
 22 23  1  0  0  0
 23 24  2  0  0  0
 24 25  1  0  0  0
 25 26  2  0  0  0
 26 27  1  0  0  0
 27 28  2  0  0  0
 28 29  1  0  0  0
 29 30  2  0  0  0
 30 31  1  0  0  0
 10  3  1  0  0  0
 31 22  2  0  0  0
 14  9  1  0  0  0
 30 25  1  0  0  0
  6 15  1  0  0  0
 13 16  1  0  0  0
 18 19  1  0  0  0
M  END
> <minimizedAffinity>
-1.61189

$$$$
