


 30 33  0  0  0  0  0  0  0  0999 V2000
   -0.4772   63.3797   81.1497 C   0  0  0  0  0  0  0  0  0  0  0  0
   -0.9408   62.9813   79.8812 C   0  0  0  0  0  0  0  0  0  0  0  0
   -0.6572   63.8072   78.7989 C   0  0  0  0  0  0  0  0  0  0  0  0
    0.0601   64.9504   78.9028 N   0  0  0  0  0  0  0  0  0  0  0  0
    0.5109   65.3249   80.1066 C   0  0  0  0  0  0  0  0  0  0  0  0
    1.2433   66.5023   80.1860 C   0  0  0  0  0  0  0  0  0  0  0  0
    1.7597   66.9729   81.3948 C   0  0  0  0  0  0  0  0  0  0  0  0
    1.5368   66.2464   82.5535 C   0  0  0  0  0  0  0  0  0  0  0  0
    2.2282   66.8611   84.2005 Br  0  0  0  0  0  0  0  0  0  0  0  0
    0.8048   65.0619   82.5059 C   0  0  0  0  0  0  0  0  0  0  0  0
    0.2783   64.5779   81.2813 C   0  0  0  0  0  0  0  0  0  0  0  0
   -1.1113   63.4362   77.4155 C   0  0  0  0  0  0  0  0  0  0  0  0
   -2.3738   62.5892   77.4631 C   0  0  0  0  0  0  0  0  0  0  0  0
   -2.1903   61.4393   78.3447 N   0  0  0  0  0  0  0  0  0  0  0  0
   -2.7489   60.1868   78.1238 C   0  0  0  0  0  0  0  0  0  0  0  0
   -3.3055   59.9083   76.7512 C   0  0  0  0  0  0  0  0  0  0  0  0
   -2.7871   59.3170   78.9953 O   0  0  0  0  0  0  0  0  0  0  0  0
   -1.7727   61.7336   79.7154 C   0  0  0  0  0  0  0  0  0  0  0  0
   -0.7203   62.5201   82.2557 N   0  0  0  0  0  0  0  0  0  0  0  0
   -0.7384   61.5470   81.9570 H   0  0  0  0  0  0  0  0  0  0  0  0
   -1.9724   62.8448   82.9491 C   0  0  0  0  0  0  0  0  0  0  0  0
   -1.2223   63.0319   87.2182 C   0  0  0  0  0  0  0  0  0  0  0  0
   -2.4175   62.5003   86.7252 C   0  0  0  0  0  0  0  0  0  0  0  0
   -2.6532   62.4386   85.3469 C   0  0  0  0  0  0  0  0  0  0  0  0
   -1.6983   62.9020   84.4319 C   0  0  0  0  0  0  0  0  0  0  0  0
   -0.5036   63.4417   84.9228 C   0  0  0  0  0  0  0  0  0  0  0  0
   -0.2689   63.5033   86.3013 C   0  0  0  0  0  0  0  0  0  0  0  0
    1.2331   64.1816   86.8303 Cl  0  0  0  0  0  0  0  0  0  0  0  0
   -0.0182   62.1637   89.0889 C   0  0  0  0  0  0  0  0  0  0  0  0
   -0.9060   63.1328   88.5479 O   0  0  0  0  0  0  0  0  0  0  0  0
 29 30  1  0  0  0
 30 22  1  0  0  0
 22 23  1  0  0  0
 23 24  2  0  0  0
 24 25  1  0  0  0
 25 21  1  0  0  0
 21 19  1  0  0  0
 19  1  1  0  0  0
  1  2  2  0  0  0
  2  3  1  0  0  0
  3  4  2  0  0  0
  4  5  1  0  0  0
  5  6  2  0  0  0
  6  7  1  0  0  0
  7  8  2  0  0  0
  8  9  1  0  0  0
  8 10  1  0  0  0
 10 11  2  0  0  0
  3 12  1  0  0  0
 12 13  1  0  0  0
 13 14  1  0  0  0
 14 15  1  0  0  0
 15 16  1  0  0  0
 15 17  2  0  0  0
 14 18  1  0  0  0
 25 26  2  0  0  0
 26 27  1  0  0  0
 27 28  1  0  0  0
 27 22  2  0  0  0
 11  1  1  0  0  0
 18  2  1  0  0  0
 11  5  1  0  0  0
 19 20  1  0  0  0
M  END
> <minimizedAffinity>
-10.77743

$$$$



 30 33  0  0  0  0  0  0  0  0999 V2000
   -0.6389   64.0528   80.6130 C   0  0  0  0  0  0  0  0  0  0  0  0
   -0.9200   63.4063   79.3941 C   0  0  0  0  0  0  0  0  0  0  0  0
   -0.2860   63.8773   78.2495 C   0  0  0  0  0  0  0  0  0  0  0  0
    0.6005   64.9001   78.2571 N   0  0  0  0  0  0  0  0  0  0  0  0
    0.8772   65.5087   79.4172 C   0  0  0  0  0  0  0  0  0  0  0  0
    1.7895   66.5558   79.3975 C   0  0  0  0  0  0  0  0  0  0  0  0
    2.1465   67.2487   80.5558 C   0  0  0  0  0  0  0  0  0  0  0  0
    1.5752   66.8842   81.7645 C   0  0  0  0  0  0  0  0  0  0  0  0
    2.0448   67.8045   83.3459 Br  0  0  0  0  0  0  0  0  0  0  0  0
    0.6559   65.8385   81.8161 C   0  0  0  0  0  0  0  0  0  0  0  0
    0.2897   65.1300   80.6434 C   0  0  0  0  0  0  0  0  0  0  0  0
   -0.5311   63.2261   76.9178 C   0  0  0  0  0  0  0  0  0  0  0  0
   -1.9162   62.5998   76.8620 C   0  0  0  0  0  0  0  0  0  0  0  0
   -2.1229   61.7035   77.9964 N   0  0  0  0  0  0  0  0  0  0  0  0
   -2.8550   60.5244   77.9389 C   0  0  0  0  0  0  0  0  0  0  0  0
   -3.1835   59.9783   76.5732 C   0  0  0  0  0  0  0  0  0  0  0  0
   -3.2208   59.9235   78.9501 O   0  0  0  0  0  0  0  0  0  0  0  0
   -1.9251   62.2831   79.3249 C   0  0  0  0  0  0  0  0  0  0  0  0
   -1.2447   63.5501   81.7970 N   0  0  0  0  0  0  0  0  0  0  0  0
   -1.5227   64.3137   82.4101 H   0  0  0  0  0  0  0  0  0  0  0  0
   -0.3639   62.6299   82.5260 C   0  0  0  0  0  0  0  0  0  0  0  0
   -0.5839   63.5222   86.7660 C   0  0  0  0  0  0  0  0  0  0  0  0
    0.4159   64.0858   85.9680 C   0  0  0  0  0  0  0  0  0  0  0  0
    0.4804   63.7979   84.5997 C   0  0  0  0  0  0  0  0  0  0  0  0
   -0.4551   62.9450   83.9988 C   0  0  0  0  0  0  0  0  0  0  0  0
   -1.4530   62.3731   84.7968 C   0  0  0  0  0  0  0  0  0  0  0  0
   -1.5165   62.6614   86.1651 C   0  0  0  0  0  0  0  0  0  0  0  0
   -2.7809   61.9181   87.0841 Cl  0  0  0  0  0  0  0  0  0  0  0  0
    0.1764   63.0811   88.9865 C   0  0  0  0  0  0  0  0  0  0  0  0
   -0.7241   63.7461   88.1108 O   0  0  0  0  0  0  0  0  0  0  0  0
 29 30  1  0  0  0
 30 22  1  0  0  0
 22 23  1  0  0  0
 23 24  2  0  0  0
 24 25  1  0  0  0
 25 21  1  0  0  0
 21 19  1  0  0  0
 19  1  1  0  0  0
  1  2  2  0  0  0
  2  3  1  0  0  0
  3  4  2  0  0  0
  4  5  1  0  0  0
  5  6  2  0  0  0
  6  7  1  0  0  0
  7  8  2  0  0  0
  8  9  1  0  0  0
  8 10  1  0  0  0
 10 11  2  0  0  0
  3 12  1  0  0  0
 12 13  1  0  0  0
 13 14  1  0  0  0
 14 15  1  0  0  0
 15 16  1  0  0  0
 15 17  2  0  0  0
 14 18  1  0  0  0
 25 26  2  0  0  0
 26 27  1  0  0  0
 27 28  1  0  0  0
 27 22  2  0  0  0
 11  1  1  0  0  0
 18  2  1  0  0  0
 11  5  1  0  0  0
 19 20  1  0  0  0
M  END
> <minimizedAffinity>
-10.62535

$$$$



 30 33  0  0  0  0  0  0  0  0999 V2000
   -0.0563   63.6563   83.4270 C   0  0  0  0  0  0  0  0  0  0  0  0
   -0.7055   63.4356   82.1971 C   0  0  0  0  0  0  0  0  0  0  0  0
   -1.9441   62.8039   82.2223 C   0  0  0  0  0  0  0  0  0  0  0  0
   -2.5608   62.4200   83.3644 N   0  0  0  0  0  0  0  0  0  0  0  0
   -1.9496   62.6390   84.5355 C   0  0  0  0  0  0  0  0  0  0  0  0
   -2.6033   62.2348   85.6924 C   0  0  0  0  0  0  0  0  0  0  0  0
   -2.0499   62.4242   86.9601 C   0  0  0  0  0  0  0  0  0  0  0  0
   -0.8104   63.0335   87.0723 C   0  0  0  0  0  0  0  0  0  0  0  0
   -0.0425   63.3038   88.7769 Br  0  0  0  0  0  0  0  0  0  0  0  0
   -0.1297   63.4490   85.9298 C   0  0  0  0  0  0  0  0  0  0  0  0
   -0.6867   63.2604   84.6393 C   0  0  0  0  0  0  0  0  0  0  0  0
   -2.6972   62.5483   80.9475 C   0  0  0  0  0  0  0  0  0  0  0  0
   -1.7448   62.3897   79.7721 C   0  0  0  0  0  0  0  0  0  0  0  0
   -0.8312   63.5263   79.6919 N   0  0  0  0  0  0  0  0  0  0  0  0
   -0.3639   64.0725   78.5032 C   0  0  0  0  0  0  0  0  0  0  0  0
   -1.0780   63.6841   77.2341 C   0  0  0  0  0  0  0  0  0  0  0  0
    0.5859   64.8559   78.4640 O   0  0  0  0  0  0  0  0  0  0  0  0
   -0.0475   63.8141   80.8931 C   0  0  0  0  0  0  0  0  0  0  0  0
    1.1883   64.3434   83.4174 N   0  0  0  0  0  0  0  0  0  0  0  0
    1.8224   63.9474   84.1085 H   0  0  0  0  0  0  0  0  0  0  0  0
    1.0323   65.7822   83.6606 C   0  0  0  0  0  0  0  0  0  0  0  0
    4.7026   67.2957   85.4102 C   0  0  0  0  0  0  0  0  0  0  0  0
    3.8734   68.1305   84.6552 C   0  0  0  0  0  0  0  0  0  0  0  0
    2.6883   67.6385   84.0960 C   0  0  0  0  0  0  0  0  0  0  0  0
    2.3040   66.3038   84.2831 C   0  0  0  0  0  0  0  0  0  0  0  0
    3.1360   65.4636   85.0323 C   0  0  0  0  0  0  0  0  0  0  0  0
    4.3211   65.9565   85.5909 C   0  0  0  0  0  0  0  0  0  0  0  0
    5.2949   64.8569   86.5065 Cl  0  0  0  0  0  0  0  0  0  0  0  0
    7.0838   67.4288   85.2869 C   0  0  0  0  0  0  0  0  0  0  0  0
    5.8785   67.6892   85.9937 O   0  0  0  0  0  0  0  0  0  0  0  0
 29 30  1  0  0  0
 30 22  1  0  0  0
 22 23  1  0  0  0
 23 24  2  0  0  0
 24 25  1  0  0  0
 25 21  1  0  0  0
 21 19  1  0  0  0
 19  1  1  0  0  0
  1  2  2  0  0  0
  2  3  1  0  0  0
  3  4  2  0  0  0
  4  5  1  0  0  0
  5  6  2  0  0  0
  6  7  1  0  0  0
  7  8  2  0  0  0
  8  9  1  0  0  0
  8 10  1  0  0  0
 10 11  2  0  0  0
  3 12  1  0  0  0
 12 13  1  0  0  0
 13 14  1  0  0  0
 14 15  1  0  0  0
 15 16  1  0  0  0
 15 17  2  0  0  0
 14 18  1  0  0  0
 25 26  2  0  0  0
 26 27  1  0  0  0
 27 28  1  0  0  0
 27 22  2  0  0  0
 11  1  1  0  0  0
 18  2  1  0  0  0
 11  5  1  0  0  0
 19 20  1  0  0  0
M  END
> <minimizedAffinity>
-10.62249

$$$$



 30 33  0  0  0  0  0  0  0  0999 V2000
   -0.7483   63.6724   82.8435 C   0  0  0  0  0  0  0  0  0  0  0  0
   -0.3795   63.9318   84.1775 C   0  0  0  0  0  0  0  0  0  0  0  0
    0.5832   64.9091   84.4054 C   0  0  0  0  0  0  0  0  0  0  0  0
    1.1562   65.6343   83.4165 N   0  0  0  0  0  0  0  0  0  0  0  0
    0.7986   65.3964   82.1483 C   0  0  0  0  0  0  0  0  0  0  0  0
    1.4021   66.1535   81.1526 C   0  0  0  0  0  0  0  0  0  0  0  0
    1.0918   65.9830   79.8021 C   0  0  0  0  0  0  0  0  0  0  0  0
    0.1536   65.0299   79.4393 C   0  0  0  0  0  0  0  0  0  0  0  0
   -0.2854   64.7829   77.6187 Br  0  0  0  0  0  0  0  0  0  0  0  0
   -0.4682   64.2541   80.4155 C   0  0  0  0  0  0  0  0  0  0  0  0
   -0.1581   64.4230   81.7890 C   0  0  0  0  0  0  0  0  0  0  0  0
    1.0143   65.2449   85.8050 C   0  0  0  0  0  0  0  0  0  0  0  0
    0.8628   64.0443   86.7267 C   0  0  0  0  0  0  0  0  0  0  0  0
   -0.4907   63.5014   86.6478 N   0  0  0  0  0  0  0  0  0  0  0  0
   -1.1771   62.9509   87.7228 C   0  0  0  0  0  0  0  0  0  0  0  0
   -0.6300   63.2137   89.1023 C   0  0  0  0  0  0  0  0  0  0  0  0
   -2.2019   62.2825   87.5804 O   0  0  0  0  0  0  0  0  0  0  0  0
   -0.9632   63.1295   85.3143 C   0  0  0  0  0  0  0  0  0  0  0  0
   -1.7654   62.7089   82.6015 N   0  0  0  0  0  0  0  0  0  0  0  0
   -2.4355   62.6940   83.3678 H   0  0  0  0  0  0  0  0  0  0  0  0
   -1.2197   61.3616   82.3993 C   0  0  0  0  0  0  0  0  0  0  0  0
   -2.4698   59.9009   78.5101 C   0  0  0  0  0  0  0  0  0  0  0  0
   -3.2731   59.7083   79.6378 C   0  0  0  0  0  0  0  0  0  0  0  0
   -2.8672   60.1848   80.8898 C   0  0  0  0  0  0  0  0  0  0  0  0
   -1.6529   60.8679   81.0408 C   0  0  0  0  0  0  0  0  0  0  0  0
   -0.8429   61.0557   79.9147 C   0  0  0  0  0  0  0  0  0  0  0  0
   -1.2495   60.5785   78.6632 C   0  0  0  0  0  0  0  0  0  0  0  0
   -0.1948   60.8523   77.3184 Cl  0  0  0  0  0  0  0  0  0  0  0  0
   -3.5353   60.3486   76.4202 C   0  0  0  0  0  0  0  0  0  0  0  0
   -2.7851   59.4698   77.2479 O   0  0  0  0  0  0  0  0  0  0  0  0
 29 30  1  0  0  0
 30 22  1  0  0  0
 22 23  1  0  0  0
 23 24  2  0  0  0
 24 25  1  0  0  0
 25 21  1  0  0  0
 21 19  1  0  0  0
 19  1  1  0  0  0
  1  2  2  0  0  0
  2  3  1  0  0  0
  3  4  2  0  0  0
  4  5  1  0  0  0
  5  6  2  0  0  0
  6  7  1  0  0  0
  7  8  2  0  0  0
  8  9  1  0  0  0
  8 10  1  0  0  0
 10 11  2  0  0  0
  3 12  1  0  0  0
 12 13  1  0  0  0
 13 14  1  0  0  0
 14 15  1  0  0  0
 15 16  1  0  0  0
 15 17  2  0  0  0
 14 18  1  0  0  0
 25 26  2  0  0  0
 26 27  1  0  0  0
 27 28  1  0  0  0
 27 22  2  0  0  0
 11  1  1  0  0  0
 18  2  1  0  0  0
 11  5  1  0  0  0
 19 20  1  0  0  0
M  END
> <minimizedAffinity>
-10.55576

$$$$



 30 33  0  0  0  0  0  0  0  0999 V2000
   -0.4761   63.3568   82.8660 C   0  0  0  0  0  0  0  0  0  0  0  0
   -0.9362   63.0667   84.1648 C   0  0  0  0  0  0  0  0  0  0  0  0
   -2.1159   62.3406   84.2872 C   0  0  0  0  0  0  0  0  0  0  0  0
   -2.8203   61.8808   83.2269 N   0  0  0  0  0  0  0  0  0  0  0  0
   -2.3782   62.1464   81.9913 C   0  0  0  0  0  0  0  0  0  0  0  0
   -3.1199   61.6640   80.9207 C   0  0  0  0  0  0  0  0  0  0  0  0
   -2.7377   61.8845   79.5961 C   0  0  0  0  0  0  0  0  0  0  0  0
   -1.5839   62.6066   79.3368 C   0  0  0  0  0  0  0  0  0  0  0  0
   -1.0444   62.9152   77.5529 Br  0  0  0  0  0  0  0  0  0  0  0  0
   -0.8193   63.1044   80.3899 C   0  0  0  0  0  0  0  0  0  0  0  0
   -1.2014   62.8832   81.7376 C   0  0  0  0  0  0  0  0  0  0  0  0
   -2.6571   61.9859   85.6433 C   0  0  0  0  0  0  0  0  0  0  0  0
   -2.2422   63.0148   86.6839 C   0  0  0  0  0  0  0  0  0  0  0  0
   -0.7950   63.2109   86.6666 N   0  0  0  0  0  0  0  0  0  0  0  0
   -0.0262   63.4657   87.7952 C   0  0  0  0  0  0  0  0  0  0  0  0
   -0.6613   63.2121   89.1383 C   0  0  0  0  0  0  0  0  0  0  0  0
    1.1352   63.8704   87.7263 O   0  0  0  0  0  0  0  0  0  0  0  0
   -0.2068   63.5837   85.3802 C   0  0  0  0  0  0  0  0  0  0  0  0
    0.7533   64.0576   82.7282 N   0  0  0  0  0  0  0  0  0  0  0  0
    1.3758   63.8468   83.5058 H   0  0  0  0  0  0  0  0  0  0  0  0
    0.5595   65.5092   82.6330 C   0  0  0  0  0  0  0  0  0  0  0  0
    3.9939   67.4733   84.4133 C   0  0  0  0  0  0  0  0  0  0  0  0
    3.5922   66.2058   84.8450 C   0  0  0  0  0  0  0  0  0  0  0  0
    2.4858   65.5746   84.2648 C   0  0  0  0  0  0  0  0  0  0  0  0
    1.7603   66.1938   83.2381 C   0  0  0  0  0  0  0  0  0  0  0  0
    2.1557   67.4662   82.8089 C   0  0  0  0  0  0  0  0  0  0  0  0
    3.2621   68.0968   83.3899 C   0  0  0  0  0  0  0  0  0  0  0  0
    3.6904   69.6678   82.8031 Cl  0  0  0  0  0  0  0  0  0  0  0  0
    5.5123   67.8175   86.2242 C   0  0  0  0  0  0  0  0  0  0  0  0
    5.0615   68.1659   84.9220 O   0  0  0  0  0  0  0  0  0  0  0  0
 29 30  1  0  0  0
 30 22  1  0  0  0
 22 23  1  0  0  0
 23 24  2  0  0  0
 24 25  1  0  0  0
 25 21  1  0  0  0
 21 19  1  0  0  0
 19  1  1  0  0  0
  1  2  2  0  0  0
  2  3  1  0  0  0
  3  4  2  0  0  0
  4  5  1  0  0  0
  5  6  2  0  0  0
  6  7  1  0  0  0
  7  8  2  0  0  0
  8  9  1  0  0  0
  8 10  1  0  0  0
 10 11  2  0  0  0
  3 12  1  0  0  0
 12 13  1  0  0  0
 13 14  1  0  0  0
 14 15  1  0  0  0
 15 16  1  0  0  0
 15 17  2  0  0  0
 14 18  1  0  0  0
 25 26  2  0  0  0
 26 27  1  0  0  0
 27 28  1  0  0  0
 27 22  2  0  0  0
 11  1  1  0  0  0
 18  2  1  0  0  0
 11  5  1  0  0  0
 19 20  1  0  0  0
M  END
> <minimizedAffinity>
-10.43827

$$$$



 30 33  0  0  0  0  0  0  0  0999 V2000
    0.0003   63.6952   82.9528 C   0  0  0  0  0  0  0  0  0  0  0  0
   -0.5915   63.3209   84.1746 C   0  0  0  0  0  0  0  0  0  0  0  0
   -1.7917   62.6201   84.1254 C   0  0  0  0  0  0  0  0  0  0  0  0
   -2.3970   62.2609   82.9693 N   0  0  0  0  0  0  0  0  0  0  0  0
   -1.8298   62.6065   81.8067 C   0  0  0  0  0  0  0  0  0  0  0  0
   -2.4717   62.2266   80.6351 C   0  0  0  0  0  0  0  0  0  0  0  0
   -1.9563   62.5356   79.3748 C   0  0  0  0  0  0  0  0  0  0  0  0
   -0.7684   63.2434   79.2854 C   0  0  0  0  0  0  0  0  0  0  0  0
   -0.0495   63.6706   77.5916 Br  0  0  0  0  0  0  0  0  0  0  0  0
   -0.1018   63.6394   80.4431 C   0  0  0  0  0  0  0  0  0  0  0  0
   -0.6194   63.3279   81.7262 C   0  0  0  0  0  0  0  0  0  0  0  0
   -2.4711   62.1793   85.3909 C   0  0  0  0  0  0  0  0  0  0  0  0
   -2.1406   63.1152   86.5436 C   0  0  0  0  0  0  0  0  0  0  0  0
   -0.6951   63.2724   86.6819 N   0  0  0  0  0  0  0  0  0  0  0  0
   -0.0366   63.4205   87.8960 C   0  0  0  0  0  0  0  0  0  0  0  0
   -0.8060   63.0839   89.1475 C   0  0  0  0  0  0  0  0  0  0  0  0
    1.1338   63.7972   87.9716 O   0  0  0  0  0  0  0  0  0  0  0  0
    0.0245   63.7247   85.4914 C   0  0  0  0  0  0  0  0  0  0  0  0
    1.2509   64.3705   82.9897 N   0  0  0  0  0  0  0  0  0  0  0  0
    1.8418   63.9918   83.7272 H   0  0  0  0  0  0  0  0  0  0  0  0
    1.0972   65.8179   83.1772 C   0  0  0  0  0  0  0  0  0  0  0  0
    4.6536   67.3406   85.1408 C   0  0  0  0  0  0  0  0  0  0  0  0
    3.9458   68.1311   84.2308 C   0  0  0  0  0  0  0  0  0  0  0  0
    2.7967   67.6368   83.6027 C   0  0  0  0  0  0  0  0  0  0  0  0
    2.3278   66.3443   83.8740 C   0  0  0  0  0  0  0  0  0  0  0  0
    3.0387   65.5476   84.7791 C   0  0  0  0  0  0  0  0  0  0  0  0
    4.1879   66.0428   85.4065 C   0  0  0  0  0  0  0  0  0  0  0  0
    5.0103   64.9986   86.5152 Cl  0  0  0  0  0  0  0  0  0  0  0  0
    7.0396   67.3838   85.2335 C   0  0  0  0  0  0  0  0  0  0  0  0
    5.7862   67.7398   85.8012 O   0  0  0  0  0  0  0  0  0  0  0  0
 29 30  1  0  0  0
 30 22  1  0  0  0
 22 23  1  0  0  0
 23 24  2  0  0  0
 24 25  1  0  0  0
 25 21  1  0  0  0
 21 19  1  0  0  0
 19  1  1  0  0  0
  1  2  2  0  0  0
  2  3  1  0  0  0
  3  4  2  0  0  0
  4  5  1  0  0  0
  5  6  2  0  0  0
  6  7  1  0  0  0
  7  8  2  0  0  0
  8  9  1  0  0  0
  8 10  1  0  0  0
 10 11  2  0  0  0
  3 12  1  0  0  0
 12 13  1  0  0  0
 13 14  1  0  0  0
 14 15  1  0  0  0
 15 16  1  0  0  0
 15 17  2  0  0  0
 14 18  1  0  0  0
 25 26  2  0  0  0
 26 27  1  0  0  0
 27 28  1  0  0  0
 27 22  2  0  0  0
 11  1  1  0  0  0
 18  2  1  0  0  0
 11  5  1  0  0  0
 19 20  1  0  0  0
M  END
> <minimizedAffinity>
-10.41896

$$$$



 30 33  0  0  0  0  0  0  0  0999 V2000
    0.0481   63.9072   83.4710 C   0  0  0  0  0  0  0  0  0  0  0  0
   -0.4775   63.7252   82.1774 C   0  0  0  0  0  0  0  0  0  0  0  0
   -1.6740   63.0268   82.0565 C   0  0  0  0  0  0  0  0  0  0  0  0
   -2.3637   62.5428   83.1158 N   0  0  0  0  0  0  0  0  0  0  0  0
   -1.8707   62.7246   84.3473 C   0  0  0  0  0  0  0  0  0  0  0  0
   -2.5972   62.2174   85.4169 C   0  0  0  0  0  0  0  0  0  0  0  0
   -2.1682   62.3608   86.7377 C   0  0  0  0  0  0  0  0  0  0  0  0
   -0.9815   63.0287   86.9942 C   0  0  0  0  0  0  0  0  0  0  0  0
   -0.3820   63.2384   88.7733 Br  0  0  0  0  0  0  0  0  0  0  0  0
   -0.2300   63.5477   85.9420 C   0  0  0  0  0  0  0  0  0  0  0  0
   -0.6606   63.4063   84.5982 C   0  0  0  0  0  0  0  0  0  0  0  0
   -2.2970   62.8070   80.7070 C   0  0  0  0  0  0  0  0  0  0  0  0
   -1.2384   62.7706   79.6154 C   0  0  0  0  0  0  0  0  0  0  0  0
   -0.3903   63.9579   79.6798 N   0  0  0  0  0  0  0  0  0  0  0  0
    0.1453   64.5983   78.5695 C   0  0  0  0  0  0  0  0  0  0  0  0
   -0.4315   64.2480   77.2220 C   0  0  0  0  0  0  0  0  0  0  0  0
    1.0468   65.4330   78.6588 O   0  0  0  0  0  0  0  0  0  0  0  0
    0.2676   64.2157   80.9606 C   0  0  0  0  0  0  0  0  0  0  0  0
    1.2459   64.6602   83.6110 N   0  0  0  0  0  0  0  0  0  0  0  0
    1.9603   64.1132   84.0874 H   0  0  0  0  0  0  0  0  0  0  0  0
    1.0305   65.9209   84.3308 C   0  0  0  0  0  0  0  0  0  0  0  0
    3.1377   69.1080   82.2755 C   0  0  0  0  0  0  0  0  0  0  0  0
    3.3698   68.8557   83.6307 C   0  0  0  0  0  0  0  0  0  0  0  0
    2.6903   67.8238   84.2885 C   0  0  0  0  0  0  0  0  0  0  0  0
    1.7684   67.0191   83.6054 C   0  0  0  0  0  0  0  0  0  0  0  0
    1.5284   67.2742   82.2501 C   0  0  0  0  0  0  0  0  0  0  0  0
    2.2082   68.3066   81.5932 C   0  0  0  0  0  0  0  0  0  0  0  0
    1.8593   68.5579   79.9167 Cl  0  0  0  0  0  0  0  0  0  0  0  0
    3.2826   71.4250   81.7151 C   0  0  0  0  0  0  0  0  0  0  0  0
    3.7548   70.0944   81.5513 O   0  0  0  0  0  0  0  0  0  0  0  0
 29 30  1  0  0  0
 30 22  1  0  0  0
 22 23  1  0  0  0
 23 24  2  0  0  0
 24 25  1  0  0  0
 25 21  1  0  0  0
 21 19  1  0  0  0
 19  1  1  0  0  0
  1  2  2  0  0  0
  2  3  1  0  0  0
  3  4  2  0  0  0
  4  5  1  0  0  0
  5  6  2  0  0  0
  6  7  1  0  0  0
  7  8  2  0  0  0
  8  9  1  0  0  0
  8 10  1  0  0  0
 10 11  2  0  0  0
  3 12  1  0  0  0
 12 13  1  0  0  0
 13 14  1  0  0  0
 14 15  1  0  0  0
 15 16  1  0  0  0
 15 17  2  0  0  0
 14 18  1  0  0  0
 25 26  2  0  0  0
 26 27  1  0  0  0
 27 28  1  0  0  0
 27 22  2  0  0  0
 11  1  1  0  0  0
 18  2  1  0  0  0
 11  5  1  0  0  0
 19 20  1  0  0  0
M  END
> <minimizedAffinity>
-10.37253

$$$$



 30 33  0  0  0  0  0  0  0  0999 V2000
   -0.3797   63.3874   83.2626 C   0  0  0  0  0  0  0  0  0  0  0  0
   -1.0309   63.0760   82.0535 C   0  0  0  0  0  0  0  0  0  0  0  0
   -2.2438   62.3995   82.1263 C   0  0  0  0  0  0  0  0  0  0  0  0
   -2.8347   62.0546   83.2942 N   0  0  0  0  0  0  0  0  0  0  0  0
   -2.2220   62.3598   84.4449 C   0  0  0  0  0  0  0  0  0  0  0  0
   -2.8490   61.9938   85.6290 C   0  0  0  0  0  0  0  0  0  0  0  0
   -2.2920   62.2725   86.8785 C   0  0  0  0  0  0  0  0  0  0  0  0
   -1.0762   62.9340   86.9442 C   0  0  0  0  0  0  0  0  0  0  0  0
   -0.3040   63.3252   88.6232 Br  0  0  0  0  0  0  0  0  0  0  0  0
   -0.4225   63.3130   85.7735 C   0  0  0  0  0  0  0  0  0  0  0  0
   -0.9833   63.0338   84.5012 C   0  0  0  0  0  0  0  0  0  0  0  0
   -2.9978   62.0468   80.8755 C   0  0  0  0  0  0  0  0  0  0  0  0
   -2.0506   61.8616   79.6998 C   0  0  0  0  0  0  0  0  0  0  0  0
   -1.1825   63.0264   79.5487 N   0  0  0  0  0  0  0  0  0  0  0  0
   -0.7476   63.5250   78.3272 C   0  0  0  0  0  0  0  0  0  0  0  0
   -1.4574   63.0416   77.0888 C   0  0  0  0  0  0  0  0  0  0  0  0
    0.1707   64.3410   78.2356 O   0  0  0  0  0  0  0  0  0  0  0  0
   -0.3999   63.4084   80.7239 C   0  0  0  0  0  0  0  0  0  0  0  0
    0.8371   64.1202   83.2023 N   0  0  0  0  0  0  0  0  0  0  0  0
    1.4739   63.8199   83.9377 H   0  0  0  0  0  0  0  0  0  0  0  0
    0.6208   65.5685   83.3004 C   0  0  0  0  0  0  0  0  0  0  0  0
    4.3739   67.4551   84.3854 C   0  0  0  0  0  0  0  0  0  0  0  0
    4.0051   66.2262   84.9404 C   0  0  0  0  0  0  0  0  0  0  0  0
    2.7949   65.6196   84.5842 C   0  0  0  0  0  0  0  0  0  0  0  0
    1.9301   66.2253   83.6627 C   0  0  0  0  0  0  0  0  0  0  0  0
    2.2933   67.4594   83.1110 C   0  0  0  0  0  0  0  0  0  0  0  0
    3.5035   68.0654   83.4680 C   0  0  0  0  0  0  0  0  0  0  0  0
    3.8834   69.5894   82.7409 Cl  0  0  0  0  0  0  0  0  0  0  0  0
    6.2230   67.7608   85.8655 C   0  0  0  0  0  0  0  0  0  0  0  0
    5.5360   68.1215   84.6747 O   0  0  0  0  0  0  0  0  0  0  0  0
 29 30  1  0  0  0
 30 22  1  0  0  0
 22 23  1  0  0  0
 23 24  2  0  0  0
 24 25  1  0  0  0
 25 21  1  0  0  0
 21 19  1  0  0  0
 19  1  1  0  0  0
  1  2  2  0  0  0
  2  3  1  0  0  0
  3  4  2  0  0  0
  4  5  1  0  0  0
  5  6  2  0  0  0
  6  7  1  0  0  0
  7  8  2  0  0  0
  8  9  1  0  0  0
  8 10  1  0  0  0
 10 11  2  0  0  0
  3 12  1  0  0  0
 12 13  1  0  0  0
 13 14  1  0  0  0
 14 15  1  0  0  0
 15 16  1  0  0  0
 15 17  2  0  0  0
 14 18  1  0  0  0
 25 26  2  0  0  0
 26 27  1  0  0  0
 27 28  1  0  0  0
 27 22  2  0  0  0
 11  1  1  0  0  0
 18  2  1  0  0  0
 11  5  1  0  0  0
 19 20  1  0  0  0
M  END
> <minimizedAffinity>
-10.36483

$$$$



 30 33  0  0  0  0  0  0  0  0999 V2000
    0.8390   66.4425   81.8031 C   0  0  0  0  0  0  0  0  0  0  0  0
    1.7137   67.5227   82.0285 C   0  0  0  0  0  0  0  0  0  0  0  0
    2.2283   67.6833   83.3104 C   0  0  0  0  0  0  0  0  0  0  0  0
    1.9520   66.8420   84.3341 N   0  0  0  0  0  0  0  0  0  0  0  0
    1.1290   65.8080   84.1186 C   0  0  0  0  0  0  0  0  0  0  0  0
    0.8612   64.9605   85.1858 C   0  0  0  0  0  0  0  0  0  0  0  0
    0.0204   63.8531   85.0588 C   0  0  0  0  0  0  0  0  0  0  0  0
   -0.5674   63.5878   83.8324 C   0  0  0  0  0  0  0  0  0  0  0  0
   -1.7061   62.0935   83.6349 Br  0  0  0  0  0  0  0  0  0  0  0  0
   -0.3186   64.4205   82.7433 C   0  0  0  0  0  0  0  0  0  0  0  0
    0.5351   65.5464   82.8653 C   0  0  0  0  0  0  0  0  0  0  0  0
    3.1767   68.8074   83.6175 C   0  0  0  0  0  0  0  0  0  0  0  0
    2.9288   69.9972   82.7027 C   0  0  0  0  0  0  0  0  0  0  0  0
    2.9485   69.5837   81.3021 N   0  0  0  0  0  0  0  0  0  0  0  0
    3.4410   70.3628   80.2628 C   0  0  0  0  0  0  0  0  0  0  0  0
    4.2856   71.5556   80.6308 C   0  0  0  0  0  0  0  0  0  0  0  0
    3.2210   70.1017   79.0793 O   0  0  0  0  0  0  0  0  0  0  0  0
    2.0285   68.5088   80.9307 C   0  0  0  0  0  0  0  0  0  0  0  0
    0.3441   66.2407   80.4856 N   0  0  0  0  0  0  0  0  0  0  0  0
   -0.5682   65.7894   80.5100 H   0  0  0  0  0  0  0  0  0  0  0  0
    1.2630   65.4478   79.6606 C   0  0  0  0  0  0  0  0  0  0  0  0
   -1.1001   62.6715   77.3090 C   0  0  0  0  0  0  0  0  0  0  0  0
   -0.8400   63.9629   76.8413 C   0  0  0  0  0  0  0  0  0  0  0  0
   -0.0738   64.8538   77.6020 C   0  0  0  0  0  0  0  0  0  0  0  0
    0.4528   64.4719   78.8433 C   0  0  0  0  0  0  0  0  0  0  0  0
    0.1877   63.1818   79.3176 C   0  0  0  0  0  0  0  0  0  0  0  0
   -0.5789   62.2918   78.5564 C   0  0  0  0  0  0  0  0  0  0  0  0
   -0.8605   60.7137   79.2091 Cl  0  0  0  0  0  0  0  0  0  0  0  0
   -3.2529   61.8736   76.6515 C   0  0  0  0  0  0  0  0  0  0  0  0
   -1.8385   61.7343   76.6347 O   0  0  0  0  0  0  0  0  0  0  0  0
 29 30  1  0  0  0
 30 22  1  0  0  0
 22 23  1  0  0  0
 23 24  2  0  0  0
 24 25  1  0  0  0
 25 21  1  0  0  0
 21 19  1  0  0  0
 19  1  1  0  0  0
  1  2  2  0  0  0
  2  3  1  0  0  0
  3  4  2  0  0  0
  4  5  1  0  0  0
  5  6  2  0  0  0
  6  7  1  0  0  0
  7  8  2  0  0  0
  8  9  1  0  0  0
  8 10  1  0  0  0
 10 11  2  0  0  0
  3 12  1  0  0  0
 12 13  1  0  0  0
 13 14  1  0  0  0
 14 15  1  0  0  0
 15 16  1  0  0  0
 15 17  2  0  0  0
 14 18  1  0  0  0
 25 26  2  0  0  0
 26 27  1  0  0  0
 27 28  1  0  0  0
 27 22  2  0  0  0
 11  1  1  0  0  0
 18  2  1  0  0  0
 11  5  1  0  0  0
 19 20  1  0  0  0
M  END
> <minimizedAffinity>
-10.26547

$$$$
