


 34 37  0  0  0  0  0  0  0  0999 V2000
    1.1216   66.5669   82.2477 C   0  0  0  0  0  0  0  0  0  0  0  0
    0.8686   65.9957   83.4711 N   0  0  0  0  0  0  0  0  0  0  0  0
    0.4274   64.7187   83.5143 C   0  0  0  0  0  0  0  0  0  0  0  0
    0.1714   64.1505   84.7357 O   0  0  0  0  0  0  0  0  0  0  0  0
    0.2771   64.0422   82.2969 C   0  0  0  0  0  0  0  0  0  0  0  0
   -0.1012   62.7801   82.0228 N   0  0  0  0  0  0  0  0  0  0  0  0
   -0.1003   62.7143   80.6592 N   0  0  0  0  0  0  0  0  0  0  0  0
    0.3673   63.8627   80.0488 C   0  0  0  0  0  0  0  0  0  0  0  0
    0.5857   64.7281   81.0881 C   0  0  0  0  0  0  0  0  0  0  0  0
    1.0309   65.9986   81.0036 N   0  0  0  0  0  0  0  0  0  0  0  0
   -0.1542   63.2585   84.5121 H   0  0  0  0  0  0  0  0  0  0  0  0
    2.8581   68.2851   82.8475 C   0  0  0  0  0  0  0  0  0  0  0  0
    3.3515   69.5515   82.8745 N   0  0  0  0  0  0  0  0  0  0  0  0
    2.6075   70.5222   82.2959 C   0  0  0  0  0  0  0  0  0  0  0  0
    1.3784   70.2987   81.6982 C   0  0  0  0  0  0  0  0  0  0  0  0
    0.8932   68.9884   81.6920 C   0  0  0  0  0  0  0  0  0  0  0  0
    1.6348   67.9397   82.2682 C   0  0  0  0  0  0  0  0  0  0  0  0
    0.5783   71.3852   81.0755 C   0  0  0  0  0  0  0  0  0  0  0  0
    1.1681   72.7684   80.9837 C   0  0  0  0  0  0  0  0  0  0  0  0
   -0.5467   71.1423   80.6450 O   0  0  0  0  0  0  0  0  0  0  0  0
    3.5600   67.3000   83.5113 O   0  0  0  0  0  0  0  0  0  0  0  0
    4.0998   67.6774   84.7795 C   0  0  0  0  0  0  0  0  0  0  0  0
    4.7682   66.4765   85.4482 C   0  0  0  0  0  0  0  0  0  0  0  0
    7.2437   66.9030   85.0102 C   0  0  0  0  0  0  0  0  0  0  0  0
    6.1370   66.7958   86.0476 C   0  0  0  0  0  0  0  0  0  0  0  0
    0.5526   64.0533   78.5837 C   0  0  0  0  0  0  0  0  0  0  0  0
   -0.5520   64.9038   77.9752 C   0  0  0  0  0  0  0  0  0  0  0  0
   -0.4109   61.4300   80.0285 C   0  0  0  0  0  0  0  0  0  0  0  0
   -1.8279   61.3508   79.5640 C   0  0  0  0  0  0  0  0  0  0  0  0
   -2.9023   61.6497   80.2719 N   0  0  0  0  0  0  0  0  0  0  0  0
   -3.9771   61.4208   79.4572 C   0  0  0  0  0  0  0  0  0  0  0  0
   -3.5629   60.9625   78.2318 C   0  0  0  0  0  0  0  0  0  0  0  0
   -2.1994   60.9094   78.3119 N   0  0  0  0  0  0  0  0  0  0  0  0
   -1.3246   60.4547   77.2579 C   0  0  0  0  0  0  0  0  0  0  0  0
 24 25  1  0  0  0
 25 23  1  0  0  0
 23 22  1  0  0  0
 22 21  1  0  0  0
 21 12  1  0  0  0
 12 13  1  0  0  0
 13 14  2  0  0  0
 14 15  1  0  0  0
 15 18  1  0  0  0
 18 19  1  0  0  0
 18 20  2  0  0  0
 15 16  2  0  0  0
 16 17  1  0  0  0
 17  1  1  0  0  0
  1  2  1  0  0  0
  2  3  2  0  0  0
  3  4  1  0  0  0
  3  5  1  0  0  0
  5  6  2  0  0  0
  6  7  1  0  0  0
  7 28  1  0  0  0
 28 29  1  0  0  0
 29 30  2  0  0  0
 30 31  1  0  0  0
 31 32  2  0  0  0
 32 33  1  0  0  0
 33 34  1  0  0  0
  7  8  1  0  0  0
  8 26  1  0  0  0
 26 27  1  0  0  0
  8  9  2  0  0  0
  9 10  1  0  0  0
 17 12  2  0  0  0
 10  1  2  0  0  0
  9  5  1  0  0  0
 33 29  1  0  0  0
  4 11  1  0  0  0
M  END
> <minimizedAffinity>
-1.75928

$$$$



 34 37  0  0  0  0  0  0  0  0999 V2000
    0.9573   66.6765   81.1436 C   0  0  0  0  0  0  0  0  0  0  0  0
    1.1052   66.4811   79.7919 N   0  0  0  0  0  0  0  0  0  0  0  0
    0.6935   65.3109   79.2547 C   0  0  0  0  0  0  0  0  0  0  0  0
    0.8450   65.1151   77.9061 O   0  0  0  0  0  0  0  0  0  0  0  0
    0.1134   64.3699   80.1152 C   0  0  0  0  0  0  0  0  0  0  0  0
   -0.4138   63.1548   79.8772 N   0  0  0  0  0  0  0  0  0  0  0  0
   -0.7813   62.6971   81.1097 N   0  0  0  0  0  0  0  0  0  0  0  0
   -0.6028   63.6223   82.1208 C   0  0  0  0  0  0  0  0  0  0  0  0
   -0.0052   64.6863   81.4982 C   0  0  0  0  0  0  0  0  0  0  0  0
    0.3895   65.8419   82.0710 N   0  0  0  0  0  0  0  0  0  0  0  0
    0.5099   64.2098   77.7648 H   0  0  0  0  0  0  0  0  0  0  0  0
    2.4176   68.1266   82.5900 C   0  0  0  0  0  0  0  0  0  0  0  0
    2.8305   69.3261   83.0784 N   0  0  0  0  0  0  0  0  0  0  0  0
    2.2020   70.4339   82.6222 C   0  0  0  0  0  0  0  0  0  0  0  0
    1.1634   70.4094   81.7066 C   0  0  0  0  0  0  0  0  0  0  0  0
    0.7555   69.1617   81.2275 C   0  0  0  0  0  0  0  0  0  0  0  0
    1.3860   67.9796   81.6597 C   0  0  0  0  0  0  0  0  0  0  0  0
    0.4855   71.6419   81.2271 C   0  0  0  0  0  0  0  0  0  0  0  0
    1.2216   72.9547   81.2916 C   0  0  0  0  0  0  0  0  0  0  0  0
   -0.6593   71.5743   80.7857 O   0  0  0  0  0  0  0  0  0  0  0  0
    2.9857   66.9824   83.1114 O   0  0  0  0  0  0  0  0  0  0  0  0
    3.8472   67.1799   84.2343 C   0  0  0  0  0  0  0  0  0  0  0  0
    4.0319   65.8678   84.9962 C   0  0  0  0  0  0  0  0  0  0  0  0
    6.3629   66.6816   85.6337 C   0  0  0  0  0  0  0  0  0  0  0  0
    5.1132   65.9353   86.0738 C   0  0  0  0  0  0  0  0  0  0  0  0
   -0.9835   63.4330   83.5478 C   0  0  0  0  0  0  0  0  0  0  0  0
   -0.0022   62.5347   84.2854 C   0  0  0  0  0  0  0  0  0  0  0  0
   -1.4593   61.4021   81.1927 C   0  0  0  0  0  0  0  0  0  0  0  0
   -1.9407   60.9242   79.8625 C   0  0  0  0  0  0  0  0  0  0  0  0
   -1.2114   60.3387   78.9296 N   0  0  0  0  0  0  0  0  0  0  0  0
   -2.0552   60.0847   77.8831 C   0  0  0  0  0  0  0  0  0  0  0  0
   -3.3218   60.5299   78.1675 C   0  0  0  0  0  0  0  0  0  0  0  0
   -3.2379   61.0717   79.4195 N   0  0  0  0  0  0  0  0  0  0  0  0
   -4.3302   61.6949   80.1276 C   0  0  0  0  0  0  0  0  0  0  0  0
 24 25  1  0  0  0
 25 23  1  0  0  0
 23 22  1  0  0  0
 22 21  1  0  0  0
 21 12  1  0  0  0
 12 13  1  0  0  0
 13 14  2  0  0  0
 14 15  1  0  0  0
 15 18  1  0  0  0
 18 19  1  0  0  0
 18 20  2  0  0  0
 15 16  2  0  0  0
 16 17  1  0  0  0
 17  1  1  0  0  0
  1  2  1  0  0  0
  2  3  2  0  0  0
  3  4  1  0  0  0
  3  5  1  0  0  0
  5  6  2  0  0  0
  6  7  1  0  0  0
  7 28  1  0  0  0
 28 29  1  0  0  0
 29 30  2  0  0  0
 30 31  1  0  0  0
 31 32  2  0  0  0
 32 33  1  0  0  0
 33 34  1  0  0  0
  7  8  1  0  0  0
  8 26  1  0  0  0
 26 27  1  0  0  0
  8  9  2  0  0  0
  9 10  1  0  0  0
 17 12  2  0  0  0
 10  1  2  0  0  0
  9  5  1  0  0  0
 33 29  1  0  0  0
  4 11  1  0  0  0
M  END
> <minimizedAffinity>
-1.71074

$$$$



 34 37  0  0  0  0  0  0  0  0999 V2000
    1.4583   66.0727   81.7968 C   0  0  0  0  0  0  0  0  0  0  0  0
    1.7200   66.2607   80.4615 N   0  0  0  0  0  0  0  0  0  0  0  0
    1.0530   65.5109   79.5558 C   0  0  0  0  0  0  0  0  0  0  0  0
    1.3175   65.6964   78.2232 O   0  0  0  0  0  0  0  0  0  0  0  0
    0.1088   64.5960   80.0396 C   0  0  0  0  0  0  0  0  0  0  0  0
   -0.7207   63.7527   79.3979 N   0  0  0  0  0  0  0  0  0  0  0  0
   -1.3691   63.0879   80.3986 N   0  0  0  0  0  0  0  0  0  0  0  0
   -1.0588   63.5503   81.6635 C   0  0  0  0  0  0  0  0  0  0  0  0
   -0.0932   64.4972   81.4453 C   0  0  0  0  0  0  0  0  0  0  0  0
    0.5487   65.2287   82.3793 N   0  0  0  0  0  0  0  0  0  0  0  0
    0.7492   65.0384   77.7809 H   0  0  0  0  0  0  0  0  0  0  0  0
    2.0108   68.3280   82.7642 C   0  0  0  0  0  0  0  0  0  0  0  0
    2.6727   69.1504   83.6206 N   0  0  0  0  0  0  0  0  0  0  0  0
    3.5407   68.5790   84.4869 C   0  0  0  0  0  0  0  0  0  0  0  0
    3.7981   67.2192   84.5365 C   0  0  0  0  0  0  0  0  0  0  0  0
    3.1084   66.3994   83.6393 C   0  0  0  0  0  0  0  0  0  0  0  0
    2.1840   66.9424   82.7271 C   0  0  0  0  0  0  0  0  0  0  0  0
    4.7623   66.6182   85.4944 C   0  0  0  0  0  0  0  0  0  0  0  0
    6.0667   67.3236   85.7599 C   0  0  0  0  0  0  0  0  0  0  0  0
    4.4841   65.5606   86.0550 O   0  0  0  0  0  0  0  0  0  0  0  0
    1.1909   68.9026   81.8148 O   0  0  0  0  0  0  0  0  0  0  0  0
    0.8420   70.2686   82.0486 C   0  0  0  0  0  0  0  0  0  0  0  0
    1.4186   71.1576   80.9471 C   0  0  0  0  0  0  0  0  0  0  0  0
    3.2456   72.9349   81.0181 C   0  0  0  0  0  0  0  0  0  0  0  0
    1.8377   72.5426   81.4379 C   0  0  0  0  0  0  0  0  0  0  0  0
   -1.6654   63.0709   82.9361 C   0  0  0  0  0  0  0  0  0  0  0  0
   -0.8606   61.9418   83.5615 C   0  0  0  0  0  0  0  0  0  0  0  0
   -2.4078   62.1245   80.0291 C   0  0  0  0  0  0  0  0  0  0  0  0
   -1.9680   61.2008   78.9413 C   0  0  0  0  0  0  0  0  0  0  0  0
   -1.0181   60.2868   79.0262 N   0  0  0  0  0  0  0  0  0  0  0  0
   -0.9479   59.6883   77.7980 C   0  0  0  0  0  0  0  0  0  0  0  0
   -1.8588   60.2477   76.9375 C   0  0  0  0  0  0  0  0  0  0  0  0
   -2.4932   61.2142   77.6667 N   0  0  0  0  0  0  0  0  0  0  0  0
   -3.5225   62.0911   77.1623 C   0  0  0  0  0  0  0  0  0  0  0  0
 24 25  1  0  0  0
 25 23  1  0  0  0
 23 22  1  0  0  0
 22 21  1  0  0  0
 21 12  1  0  0  0
 12 13  1  0  0  0
 13 14  2  0  0  0
 14 15  1  0  0  0
 15 18  1  0  0  0
 18 19  1  0  0  0
 18 20  2  0  0  0
 15 16  2  0  0  0
 16 17  1  0  0  0
 17  1  1  0  0  0
  1  2  1  0  0  0
  2  3  2  0  0  0
  3  4  1  0  0  0
  3  5  1  0  0  0
  5  6  2  0  0  0
  6  7  1  0  0  0
  7 28  1  0  0  0
 28 29  1  0  0  0
 29 30  2  0  0  0
 30 31  1  0  0  0
 31 32  2  0  0  0
 32 33  1  0  0  0
 33 34  1  0  0  0
  7  8  1  0  0  0
  8 26  1  0  0  0
 26 27  1  0  0  0
  8  9  2  0  0  0
  9 10  1  0  0  0
 17 12  2  0  0  0
 10  1  2  0  0  0
  9  5  1  0  0  0
 33 29  1  0  0  0
  4 11  1  0  0  0
M  END
> <minimizedAffinity>
-1.59746

$$$$



 34 37  0  0  0  0  0  0  0  0999 V2000
    0.9324   64.7637   83.4835 C   0  0  0  0  0  0  0  0  0  0  0  0
    0.1835   64.4086   84.5789 N   0  0  0  0  0  0  0  0  0  0  0  0
   -0.7243   63.4149   84.4522 C   0  0  0  0  0  0  0  0  0  0  0  0
   -1.4741   63.0635   85.5450 O   0  0  0  0  0  0  0  0  0  0  0  0
   -0.8288   62.7863   83.2046 C   0  0  0  0  0  0  0  0  0  0  0  0
   -1.5975   61.7637   82.7868 N   0  0  0  0  0  0  0  0  0  0  0  0
   -1.2903   61.6270   81.4637 N   0  0  0  0  0  0  0  0  0  0  0  0
   -0.2719   62.4606   81.0418 C   0  0  0  0  0  0  0  0  0  0  0  0
    0.0113   63.2255   82.1425 C   0  0  0  0  0  0  0  0  0  0  0  0
    0.9301   64.2092   82.2299 N   0  0  0  0  0  0  0  0  0  0  0  0
   -2.0617   62.3623   85.2064 H   0  0  0  0  0  0  0  0  0  0  0  0
    1.8870   67.0452   83.0241 C   0  0  0  0  0  0  0  0  0  0  0  0
    2.7980   68.0374   83.2076 N   0  0  0  0  0  0  0  0  0  0  0  0
    3.7903   67.8144   84.0999 C   0  0  0  0  0  0  0  0  0  0  0  0
    3.9335   66.6379   84.8161 C   0  0  0  0  0  0  0  0  0  0  0  0
    2.9864   65.6331   84.6013 C   0  0  0  0  0  0  0  0  0  0  0  0
    1.9264   65.8202   83.6942 C   0  0  0  0  0  0  0  0  0  0  0  0
    5.0377   66.4166   85.7857 C   0  0  0  0  0  0  0  0  0  0  0  0
    6.3250   67.1806   85.6163 C   0  0  0  0  0  0  0  0  0  0  0  0
    4.8866   65.6191   86.7084 O   0  0  0  0  0  0  0  0  0  0  0  0
    0.9224   67.2203   82.0533 O   0  0  0  0  0  0  0  0  0  0  0  0
    1.3771   67.8092   80.8332 C   0  0  0  0  0  0  0  0  0  0  0  0
    0.5064   69.0117   80.4699 C   0  0  0  0  0  0  0  0  0  0  0  0
    2.2311   70.8814   80.6481 C   0  0  0  0  0  0  0  0  0  0  0  0
    0.9259   70.3027   81.1715 C   0  0  0  0  0  0  0  0  0  0  0  0
    0.3251   62.4802   79.6778 C   0  0  0  0  0  0  0  0  0  0  0  0
   -0.0143   63.7578   78.9252 C   0  0  0  0  0  0  0  0  0  0  0  0
   -1.9210   60.5375   80.7162 C   0  0  0  0  0  0  0  0  0  0  0  0
   -2.5708   61.0107   79.4579 C   0  0  0  0  0  0  0  0  0  0  0  0
   -3.4398   61.9996   79.3489 N   0  0  0  0  0  0  0  0  0  0  0  0
   -3.7757   62.0738   78.0248 C   0  0  0  0  0  0  0  0  0  0  0  0
   -3.1146   61.1098   77.3060 C   0  0  0  0  0  0  0  0  0  0  0  0
   -2.3619   60.4322   78.2240 N   0  0  0  0  0  0  0  0  0  0  0  0
   -1.5134   59.3028   77.9285 C   0  0  0  0  0  0  0  0  0  0  0  0
 24 25  1  0  0  0
 25 23  1  0  0  0
 23 22  1  0  0  0
 22 21  1  0  0  0
 21 12  1  0  0  0
 12 13  1  0  0  0
 13 14  2  0  0  0
 14 15  1  0  0  0
 15 18  1  0  0  0
 18 19  1  0  0  0
 18 20  2  0  0  0
 15 16  2  0  0  0
 16 17  1  0  0  0
 17  1  1  0  0  0
  1  2  1  0  0  0
  2  3  2  0  0  0
  3  4  1  0  0  0
  3  5  1  0  0  0
  5  6  2  0  0  0
  6  7  1  0  0  0
  7 28  1  0  0  0
 28 29  1  0  0  0
 29 30  2  0  0  0
 30 31  1  0  0  0
 31 32  2  0  0  0
 32 33  1  0  0  0
 33 34  1  0  0  0
  7  8  1  0  0  0
  8 26  1  0  0  0
 26 27  1  0  0  0
  8  9  2  0  0  0
  9 10  1  0  0  0
 17 12  2  0  0  0
 10  1  2  0  0  0
  9  5  1  0  0  0
 33 29  1  0  0  0
  4 11  1  0  0  0
M  END
> <minimizedAffinity>
-1.57934

$$$$



 34 37  0  0  0  0  0  0  0  0999 V2000
    1.2700   65.3592   83.7769 C   0  0  0  0  0  0  0  0  0  0  0  0
    2.3605   65.7815   84.4976 N   0  0  0  0  0  0  0  0  0  0  0  0
    3.0370   66.8728   84.0748 C   0  0  0  0  0  0  0  0  0  0  0  0
    4.1278   67.2914   84.7925 O   0  0  0  0  0  0  0  0  0  0  0  0
    2.5643   67.5263   82.9294 C   0  0  0  0  0  0  0  0  0  0  0  0
    2.9935   68.6347   82.2983 N   0  0  0  0  0  0  0  0  0  0  0  0
    2.1639   68.7541   81.2206 N   0  0  0  0  0  0  0  0  0  0  0  0
    1.1485   67.8168   81.1958 C   0  0  0  0  0  0  0  0  0  0  0  0
    1.4126   67.0098   82.2709 C   0  0  0  0  0  0  0  0  0  0  0  0
    0.7092   65.9277   82.6628 N   0  0  0  0  0  0  0  0  0  0  0  0
    4.4559   68.0591   84.2878 H   0  0  0  0  0  0  0  0  0  0  0  0
    0.1444   63.1259   83.5072 C   0  0  0  0  0  0  0  0  0  0  0  0
   -0.5172   62.0369   83.9810 N   0  0  0  0  0  0  0  0  0  0  0  0
   -0.7790   61.9958   85.3077 C   0  0  0  0  0  0  0  0  0  0  0  0
   -0.4261   62.9988   86.1949 C   0  0  0  0  0  0  0  0  0  0  0  0
    0.2465   64.1094   85.6781 C   0  0  0  0  0  0  0  0  0  0  0  0
    0.5554   64.1946   84.3074 C   0  0  0  0  0  0  0  0  0  0  0  0
   -0.7322   62.9312   87.6475 C   0  0  0  0  0  0  0  0  0  0  0  0
    0.4008   62.9944   88.6383 C   0  0  0  0  0  0  0  0  0  0  0  0
   -1.8988   62.8266   88.0193 O   0  0  0  0  0  0  0  0  0  0  0  0
    0.3392   63.2259   82.1450 O   0  0  0  0  0  0  0  0  0  0  0  0
    0.0799   62.0360   81.3973 C   0  0  0  0  0  0  0  0  0  0  0  0
   -1.0830   62.2614   80.4313 C   0  0  0  0  0  0  0  0  0  0  0  0
   -1.5243   61.5490   78.0231 C   0  0  0  0  0  0  0  0  0  0  0  0
   -1.3022   61.1027   79.4597 C   0  0  0  0  0  0  0  0  0  0  0  0
    0.0543   67.7488   80.1882 C   0  0  0  0  0  0  0  0  0  0  0  0
    0.0802   66.4447   79.4056 C   0  0  0  0  0  0  0  0  0  0  0  0
    2.3273   69.9180   80.3476 C   0  0  0  0  0  0  0  0  0  0  0  0
    1.8181   71.1752   80.9720 C   0  0  0  0  0  0  0  0  0  0  0  0
    0.5872   71.3957   81.3977 N   0  0  0  0  0  0  0  0  0  0  0  0
    0.5697   72.6751   81.8817 C   0  0  0  0  0  0  0  0  0  0  0  0
    1.8038   73.2588   81.7429 C   0  0  0  0  0  0  0  0  0  0  0  0
    2.5865   72.3052   81.1542 N   0  0  0  0  0  0  0  0  0  0  0  0
    3.9710   72.4808   80.7864 C   0  0  0  0  0  0  0  0  0  0  0  0
 24 25  1  0  0  0
 25 23  1  0  0  0
 23 22  1  0  0  0
 22 21  1  0  0  0
 21 12  1  0  0  0
 12 13  1  0  0  0
 13 14  2  0  0  0
 14 15  1  0  0  0
 15 18  1  0  0  0
 18 19  1  0  0  0
 18 20  2  0  0  0
 15 16  2  0  0  0
 16 17  1  0  0  0
 17  1  1  0  0  0
  1  2  1  0  0  0
  2  3  2  0  0  0
  3  4  1  0  0  0
  3  5  1  0  0  0
  5  6  2  0  0  0
  6  7  1  0  0  0
  7 28  1  0  0  0
 28 29  1  0  0  0
 29 30  2  0  0  0
 30 31  1  0  0  0
 31 32  2  0  0  0
 32 33  1  0  0  0
 33 34  1  0  0  0
  7  8  1  0  0  0
  8 26  1  0  0  0
 26 27  1  0  0  0
  8  9  2  0  0  0
  9 10  1  0  0  0
 17 12  2  0  0  0
 10  1  2  0  0  0
  9  5  1  0  0  0
 33 29  1  0  0  0
  4 11  1  0  0  0
M  END
> <minimizedAffinity>
-1.55608

$$$$



 34 37  0  0  0  0  0  0  0  0999 V2000
   -0.0391   65.3471   80.8966 C   0  0  0  0  0  0  0  0  0  0  0  0
   -0.6842   66.2724   80.1125 N   0  0  0  0  0  0  0  0  0  0  0  0
   -0.3079   67.5683   80.1922 C   0  0  0  0  0  0  0  0  0  0  0  0
   -0.9549   68.4919   79.4121 O   0  0  0  0  0  0  0  0  0  0  0  0
    0.7441   67.8867   81.0608 C   0  0  0  0  0  0  0  0  0  0  0  0
    1.3542   69.0566   81.3256 N   0  0  0  0  0  0  0  0  0  0  0  0
    2.2740   68.7495   82.2866 N   0  0  0  0  0  0  0  0  0  0  0  0
    2.3467   67.3995   82.5735 C   0  0  0  0  0  0  0  0  0  0  0  0
    1.3522   66.8425   81.8136 C   0  0  0  0  0  0  0  0  0  0  0  0
    1.0084   65.5393   81.7596 N   0  0  0  0  0  0  0  0  0  0  0  0
   -0.5370   69.3377   79.6606 H   0  0  0  0  0  0  0  0  0  0  0  0
   -0.7979   63.1321   81.8160 C   0  0  0  0  0  0  0  0  0  0  0  0
   -1.1970   61.8390   81.6874 N   0  0  0  0  0  0  0  0  0  0  0  0
   -1.2796   61.3343   80.4348 C   0  0  0  0  0  0  0  0  0  0  0  0
   -0.9686   62.0522   79.2922 C   0  0  0  0  0  0  0  0  0  0  0  0
   -0.5543   63.3767   79.4556 C   0  0  0  0  0  0  0  0  0  0  0  0
   -0.4651   63.9538   80.7365 C   0  0  0  0  0  0  0  0  0  0  0  0
   -1.0617   61.4708   77.9277 C   0  0  0  0  0  0  0  0  0  0  0  0
   -2.1779   60.5082   77.6165 C   0  0  0  0  0  0  0  0  0  0  0  0
   -0.2326   61.7821   77.0758 O   0  0  0  0  0  0  0  0  0  0  0  0
   -0.6216   63.6341   83.0890 O   0  0  0  0  0  0  0  0  0  0  0  0
   -1.2583   62.8971   84.1347 C   0  0  0  0  0  0  0  0  0  0  0  0
   -0.3498   62.8284   85.3620 C   0  0  0  0  0  0  0  0  0  0  0  0
   -0.3404   62.7968   87.9116 C   0  0  0  0  0  0  0  0  0  0  0  0
   -1.0800   62.4150   86.6390 C   0  0  0  0  0  0  0  0  0  0  0  0
    3.3052   66.7633   83.5189 C   0  0  0  0  0  0  0  0  0  0  0  0
    2.5940   66.0648   84.6679 C   0  0  0  0  0  0  0  0  0  0  0  0
    3.1652   69.8122   82.7558 C   0  0  0  0  0  0  0  0  0  0  0  0
    2.8021   71.1487   82.1976 C   0  0  0  0  0  0  0  0  0  0  0  0
    1.8755   71.9668   82.6636 N   0  0  0  0  0  0  0  0  0  0  0  0
    1.8788   73.0611   81.8425 C   0  0  0  0  0  0  0  0  0  0  0  0
    2.8122   72.9131   80.8475 C   0  0  0  0  0  0  0  0  0  0  0  0
    3.3848   71.6926   81.0728 N   0  0  0  0  0  0  0  0  0  0  0  0
    4.4111   71.0948   80.2528 C   0  0  0  0  0  0  0  0  0  0  0  0
 24 25  1  0  0  0
 25 23  1  0  0  0
 23 22  1  0  0  0
 22 21  1  0  0  0
 21 12  1  0  0  0
 12 13  1  0  0  0
 13 14  2  0  0  0
 14 15  1  0  0  0
 15 18  1  0  0  0
 18 19  1  0  0  0
 18 20  2  0  0  0
 15 16  2  0  0  0
 16 17  1  0  0  0
 17  1  1  0  0  0
  1  2  1  0  0  0
  2  3  2  0  0  0
  3  4  1  0  0  0
  3  5  1  0  0  0
  5  6  2  0  0  0
  6  7  1  0  0  0
  7 28  1  0  0  0
 28 29  1  0  0  0
 29 30  2  0  0  0
 30 31  1  0  0  0
 31 32  2  0  0  0
 32 33  1  0  0  0
 33 34  1  0  0  0
  7  8  1  0  0  0
  8 26  1  0  0  0
 26 27  1  0  0  0
  8  9  2  0  0  0
  9 10  1  0  0  0
 17 12  2  0  0  0
 10  1  2  0  0  0
  9  5  1  0  0  0
 33 29  1  0  0  0
  4 11  1  0  0  0
M  END
> <minimizedAffinity>
-1.53928

$$$$



 34 37  0  0  0  0  0  0  0  0999 V2000
    0.5718   65.4287   82.5879 C   0  0  0  0  0  0  0  0  0  0  0  0
    0.0441   65.6451   81.3383 N   0  0  0  0  0  0  0  0  0  0  0  0
    0.4196   66.7499   80.6557 C   0  0  0  0  0  0  0  0  0  0  0  0
   -0.1106   66.9672   79.4100 O   0  0  0  0  0  0  0  0  0  0  0  0
    1.3519   67.6019   81.2618 C   0  0  0  0  0  0  0  0  0  0  0  0
    1.9338   68.7349   80.8271 N   0  0  0  0  0  0  0  0  0  0  0  0
    2.7168   69.1360   81.8710 N   0  0  0  0  0  0  0  0  0  0  0  0
    2.7379   68.2415   82.9243 C   0  0  0  0  0  0  0  0  0  0  0  0
    1.8460   67.2695   82.5549 C   0  0  0  0  0  0  0  0  0  0  0  0
    1.4993   66.1768   83.2657 N   0  0  0  0  0  0  0  0  0  0  0  0
    0.2796   67.8190   79.1380 H   0  0  0  0  0  0  0  0  0  0  0  0
   -0.0882   63.0015   82.5769 C   0  0  0  0  0  0  0  0  0  0  0  0
   -0.4718   61.8469   83.1834 N   0  0  0  0  0  0  0  0  0  0  0  0
   -0.6131   61.8674   84.5288 C   0  0  0  0  0  0  0  0  0  0  0  0
   -0.4044   62.9922   85.3091 C   0  0  0  0  0  0  0  0  0  0  0  0
   -0.0180   64.1664   84.6574 C   0  0  0  0  0  0  0  0  0  0  0  0
    0.1566   64.1946   83.2608 C   0  0  0  0  0  0  0  0  0  0  0  0
   -0.5734   62.9886   86.7855 C   0  0  0  0  0  0  0  0  0  0  0  0
   -1.7654   62.2888   87.3845 C   0  0  0  0  0  0  0  0  0  0  0  0
    0.2573   63.5522   87.4944 O   0  0  0  0  0  0  0  0  0  0  0  0
   -0.0273   63.0223   81.1987 O   0  0  0  0  0  0  0  0  0  0  0  0
   -0.2196   61.7609   80.5552 C   0  0  0  0  0  0  0  0  0  0  0  0
   -0.7621   61.9659   79.1410 C   0  0  0  0  0  0  0  0  0  0  0  0
   -2.0280   60.7289   77.3055 C   0  0  0  0  0  0  0  0  0  0  0  0
   -1.9215   61.0341   78.7914 C   0  0  0  0  0  0  0  0  0  0  0  0
    3.5581   68.3745   84.1599 C   0  0  0  0  0  0  0  0  0  0  0  0
    4.6130   67.2836   84.2643 C   0  0  0  0  0  0  0  0  0  0  0  0
    3.5494   70.3271   81.6932 C   0  0  0  0  0  0  0  0  0  0  0  0
    2.7448   71.5843   81.6509 C   0  0  0  0  0  0  0  0  0  0  0  0
    1.5087   71.7384   82.0906 N   0  0  0  0  0  0  0  0  0  0  0  0
    1.1699   73.0400   81.8407 C   0  0  0  0  0  0  0  0  0  0  0  0
    2.2062   73.6976   81.2269 C   0  0  0  0  0  0  0  0  0  0  0  0
    3.1966   72.7642   81.0993 N   0  0  0  0  0  0  0  0  0  0  0  0
    4.4791   72.9964   80.4795 C   0  0  0  0  0  0  0  0  0  0  0  0
 24 25  1  0  0  0
 25 23  1  0  0  0
 23 22  1  0  0  0
 22 21  1  0  0  0
 21 12  1  0  0  0
 12 13  1  0  0  0
 13 14  2  0  0  0
 14 15  1  0  0  0
 15 18  1  0  0  0
 18 19  1  0  0  0
 18 20  2  0  0  0
 15 16  2  0  0  0
 16 17  1  0  0  0
 17  1  1  0  0  0
  1  2  1  0  0  0
  2  3  2  0  0  0
  3  4  1  0  0  0
  3  5  1  0  0  0
  5  6  2  0  0  0
  6  7  1  0  0  0
  7 28  1  0  0  0
 28 29  1  0  0  0
 29 30  2  0  0  0
 30 31  1  0  0  0
 31 32  2  0  0  0
 32 33  1  0  0  0
 33 34  1  0  0  0
  7  8  1  0  0  0
  8 26  1  0  0  0
 26 27  1  0  0  0
  8  9  2  0  0  0
  9 10  1  0  0  0
 17 12  2  0  0  0
 10  1  2  0  0  0
  9  5  1  0  0  0
 33 29  1  0  0  0
  4 11  1  0  0  0
M  END
> <minimizedAffinity>
-1.53463

$$$$



 34 37  0  0  0  0  0  0  0  0999 V2000
    2.3538   72.6746   81.7893 C   0  0  0  0  0  0  0  0  0  0  0  0
    1.1304   72.7200   81.1663 N   0  0  0  0  0  0  0  0  0  0  0  0
    0.4467   71.5672   80.9899 C   0  0  0  0  0  0  0  0  0  0  0  0
   -0.7727   71.6128   80.3646 O   0  0  0  0  0  0  0  0  0  0  0  0
    1.0238   70.3886   81.4804 C   0  0  0  0  0  0  0  0  0  0  0  0
    0.5796   69.1183   81.4878 N   0  0  0  0  0  0  0  0  0  0  0  0
    1.5946   68.4074   82.0605 N   0  0  0  0  0  0  0  0  0  0  0  0
    2.6345   69.1949   82.5171 C   0  0  0  0  0  0  0  0  0  0  0  0
    2.2906   70.4619   82.1258 C   0  0  0  0  0  0  0  0  0  0  0  0
    3.0014   71.5911   82.3239 N   0  0  0  0  0  0  0  0  0  0  0  0
   -1.0499   70.6781   80.3300 H   0  0  0  0  0  0  0  0  0  0  0  0
    4.1250   74.3689   81.2237 C   0  0  0  0  0  0  0  0  0  0  0  0
    4.7616   75.5584   81.3900 N   0  0  0  0  0  0  0  0  0  0  0  0
    4.2893   76.3889   82.3479 C   0  0  0  0  0  0  0  0  0  0  0  0
    3.2143   76.0884   83.1676 C   0  0  0  0  0  0  0  0  0  0  0  0
    2.5842   74.8556   82.9786 C   0  0  0  0  0  0  0  0  0  0  0  0
    3.0278   73.9612   81.9861 C   0  0  0  0  0  0  0  0  0  0  0  0
    2.7200   77.0169   84.2173 C   0  0  0  0  0  0  0  0  0  0  0  0
    1.3468   77.6197   84.0742 C   0  0  0  0  0  0  0  0  0  0  0  0
    3.4331   77.2782   85.1834 O   0  0  0  0  0  0  0  0  0  0  0  0
    4.6487   73.4732   80.3142 O   0  0  0  0  0  0  0  0  0  0  0  0
    5.9332   73.8116   79.7872 C   0  0  0  0  0  0  0  0  0  0  0  0
    6.2387   72.9631   78.5532 C   0  0  0  0  0  0  0  0  0  0  0  0
    7.4344   74.8484   77.3211 C   0  0  0  0  0  0  0  0  0  0  0  0
    6.3553   73.7783   77.2660 C   0  0  0  0  0  0  0  0  0  0  0  0
    3.8361   68.7074   83.2490 C   0  0  0  0  0  0  0  0  0  0  0  0
    3.5217   68.3661   84.6976 C   0  0  0  0  0  0  0  0  0  0  0  0
    1.3970   66.9732   82.2789 C   0  0  0  0  0  0  0  0  0  0  0  0
    1.1553   66.2306   81.0061 C   0  0  0  0  0  0  0  0  0  0  0  0
    1.6599   66.5227   79.8208 N   0  0  0  0  0  0  0  0  0  0  0  0
    1.1650   65.5904   78.9505 C   0  0  0  0  0  0  0  0  0  0  0  0
    0.3330   64.7162   79.6038 C   0  0  0  0  0  0  0  0  0  0  0  0
    0.3227   65.1365   80.9045 N   0  0  0  0  0  0  0  0  0  0  0  0
   -0.4448   64.5295   81.9653 C   0  0  0  0  0  0  0  0  0  0  0  0
 24 25  1  0  0  0
 25 23  1  0  0  0
 23 22  1  0  0  0
 22 21  1  0  0  0
 21 12  1  0  0  0
 12 13  1  0  0  0
 13 14  2  0  0  0
 14 15  1  0  0  0
 15 18  1  0  0  0
 18 19  1  0  0  0
 18 20  2  0  0  0
 15 16  2  0  0  0
 16 17  1  0  0  0
 17  1  1  0  0  0
  1  2  1  0  0  0
  2  3  2  0  0  0
  3  4  1  0  0  0
  3  5  1  0  0  0
  5  6  2  0  0  0
  6  7  1  0  0  0
  7 28  1  0  0  0
 28 29  1  0  0  0
 29 30  2  0  0  0
 30 31  1  0  0  0
 31 32  2  0  0  0
 32 33  1  0  0  0
 33 34  1  0  0  0
  7  8  1  0  0  0
  8 26  1  0  0  0
 26 27  1  0  0  0
  8  9  2  0  0  0
  9 10  1  0  0  0
 17 12  2  0  0  0
 10  1  2  0  0  0
  9  5  1  0  0  0
 33 29  1  0  0  0
  4 11  1  0  0  0
M  END
> <minimizedAffinity>
-1.48524

$$$$



 34 37  0  0  0  0  0  0  0  0999 V2000
    2.8255   70.4973   81.1026 C   0  0  0  0  0  0  0  0  0  0  0  0
    4.0461   70.4924   80.4724 N   0  0  0  0  0  0  0  0  0  0  0  0
    4.6523   71.6738   80.2188 C   0  0  0  0  0  0  0  0  0  0  0  0
    5.8688   71.6683   79.5863 O   0  0  0  0  0  0  0  0  0  0  0  0
    4.0023   72.8408   80.6408 C   0  0  0  0  0  0  0  0  0  0  0  0
    4.3629   74.1352   80.5656 N   0  0  0  0  0  0  0  0  0  0  0  0
    3.3068   74.8133   81.1027 N   0  0  0  0  0  0  0  0  0  0  0  0
    2.3227   73.9901   81.6165 C   0  0  0  0  0  0  0  0  0  0  0  0
    2.7463   72.7261   81.3011 C   0  0  0  0  0  0  0  0  0  0  0  0
    2.1116   71.5678   81.5752 N   0  0  0  0  0  0  0  0  0  0  0  0
    6.0844   72.6150   79.4915 H   0  0  0  0  0  0  0  0  0  0  0  0
    2.5610   68.4350   82.5184 C   0  0  0  0  0  0  0  0  0  0  0  0
    2.0251   67.2174   82.7981 N   0  0  0  0  0  0  0  0  0  0  0  0
    1.1219   66.7186   81.9230 C   0  0  0  0  0  0  0  0  0  0  0  0
    0.7305   67.3683   80.7644 C   0  0  0  0  0  0  0  0  0  0  0  0
    1.3035   68.6149   80.4992 C   0  0  0  0  0  0  0  0  0  0  0  0
    2.2378   69.1846   81.3848 C   0  0  0  0  0  0  0  0  0  0  0  0
   -0.2594   66.7941   79.8163 C   0  0  0  0  0  0  0  0  0  0  0  0
   -0.0885   65.3712   79.3519 C   0  0  0  0  0  0  0  0  0  0  0  0
   -1.1996   67.4829   79.4270 O   0  0  0  0  0  0  0  0  0  0  0  0
    3.5492   68.9171   83.3519 O   0  0  0  0  0  0  0  0  0  0  0  0
    3.7684   68.1636   84.5462 C   0  0  0  0  0  0  0  0  0  0  0  0
    5.1758   67.5674   84.5444 C   0  0  0  0  0  0  0  0  0  0  0  0
    6.6796   66.0116   85.8934 C   0  0  0  0  0  0  0  0  0  0  0  0
    5.6577   67.1372   85.9292 C   0  0  0  0  0  0  0  0  0  0  0  0
    1.0957   74.4436   82.3280 C   0  0  0  0  0  0  0  0  0  0  0  0
   -0.1039   74.5310   81.3968 C   0  0  0  0  0  0  0  0  0  0  0  0
    3.4116   76.2680   81.2301 C   0  0  0  0  0  0  0  0  0  0  0  0
    4.3075   76.6791   82.3518 C   0  0  0  0  0  0  0  0  0  0  0  0
    3.9814   76.7473   83.6301 N   0  0  0  0  0  0  0  0  0  0  0  0
    5.0994   77.1770   84.2910 C   0  0  0  0  0  0  0  0  0  0  0  0
    6.1284   77.3892   83.4082 C   0  0  0  0  0  0  0  0  0  0  0  0
    5.6143   77.0828   82.1793 N   0  0  0  0  0  0  0  0  0  0  0  0
    6.3328   77.1845   80.9317 C   0  0  0  0  0  0  0  0  0  0  0  0
 24 25  1  0  0  0
 25 23  1  0  0  0
 23 22  1  0  0  0
 22 21  1  0  0  0
 21 12  1  0  0  0
 12 13  1  0  0  0
 13 14  2  0  0  0
 14 15  1  0  0  0
 15 18  1  0  0  0
 18 19  1  0  0  0
 18 20  2  0  0  0
 15 16  2  0  0  0
 16 17  1  0  0  0
 17  1  1  0  0  0
  1  2  1  0  0  0
  2  3  2  0  0  0
  3  4  1  0  0  0
  3  5  1  0  0  0
  5  6  2  0  0  0
  6  7  1  0  0  0
  7 28  1  0  0  0
 28 29  1  0  0  0
 29 30  2  0  0  0
 30 31  1  0  0  0
 31 32  2  0  0  0
 32 33  1  0  0  0
 33 34  1  0  0  0
  7  8  1  0  0  0
  8 26  1  0  0  0
 26 27  1  0  0  0
  8  9  2  0  0  0
  9 10  1  0  0  0
 17 12  2  0  0  0
 10  1  2  0  0  0
  9  5  1  0  0  0
 33 29  1  0  0  0
  4 11  1  0  0  0
M  END
> <minimizedAffinity>
-1.41294

$$$$
