


 26 29  0  0  0  0  0  0  0  0999 V2000
    0.0116   63.2164   81.5829 C   0  0  0  0  0  0  0  0  0  0  0  0
   -0.5691   62.3413   80.7454 N   0  0  0  0  0  0  0  0  0  0  0  0
   -0.8604   62.7553   79.5036 C   0  0  0  0  0  0  0  0  0  0  0  0
   -0.6011   63.9879   79.0364 N   0  0  0  0  0  0  0  0  0  0  0  0
   -0.0349   64.8593   79.8738 C   0  0  0  0  0  0  0  0  0  0  0  0
    0.2305   66.1435   79.4134 C   0  0  0  0  0  0  0  0  0  0  0  0
    0.8118   67.1179   80.2292 C   0  0  0  0  0  0  0  0  0  0  0  0
    1.1353   66.8111   81.5430 C   0  0  0  0  0  0  0  0  0  0  0  0
    0.8811   65.5298   82.0269 C   0  0  0  0  0  0  0  0  0  0  0  0
    0.3011   64.5370   81.1938 C   0  0  0  0  0  0  0  0  0  0  0  0
   -1.5042   61.7880   78.5903 C   0  0  0  0  0  0  0  0  0  0  0  0
   -1.0418   61.5967   77.2734 C   0  0  0  0  0  0  0  0  0  0  0  0
   -1.6516   60.6820   76.4081 C   0  0  0  0  0  0  0  0  0  0  0  0
   -2.7427   59.9347   76.8405 C   0  0  0  0  0  0  0  0  0  0  0  0
   -3.2235   60.1010   78.1355 C   0  0  0  0  0  0  0  0  0  0  0  0
   -2.6107   61.0161   78.9978 C   0  0  0  0  0  0  0  0  0  0  0  0
    0.3637   62.7935   82.8949 N   0  0  0  0  0  0  0  0  0  0  0  0
    0.9162   61.9459   82.8222 H   0  0  0  0  0  0  0  0  0  0  0  0
   -0.7738   63.0709   86.4611 C   0  0  0  0  0  0  0  0  0  0  0  0
   -2.0786   62.5961   86.3457 C   0  0  0  0  0  0  0  0  0  0  0  0
   -2.5631   62.1909   85.1017 C   0  0  0  0  0  0  0  0  0  0  0  0
   -1.7491   62.2727   83.9697 C   0  0  0  0  0  0  0  0  0  0  0  0
   -0.4466   62.7838   84.0539 C   0  0  0  0  0  0  0  0  0  0  0  0
    0.0333   63.1473   85.3189 C   0  0  0  0  0  0  0  0  0  0  0  0
   -0.2176   62.5879   88.7229 C   0  0  0  0  0  0  0  0  0  0  0  0
   -0.1682   63.4808   87.6182 O   0  0  0  0  0  0  0  0  0  0  0  0
 25 26  1  0  0  0
 26 19  1  0  0  0
 19 20  1  0  0  0
 20 21  2  0  0  0
 21 22  1  0  0  0
 22 23  2  0  0  0
 23 17  1  0  0  0
 17  1  1  0  0  0
  1  2  1  0  0  0
  2  3  2  0  0  0
  3 11  1  0  0  0
 11 12  2  0  0  0
 12 13  1  0  0  0
 13 14  2  0  0  0
 14 15  1  0  0  0
 15 16  2  0  0  0
  3  4  1  0  0  0
  4  5  2  0  0  0
  5  6  1  0  0  0
  6  7  2  0  0  0
  7  8  1  0  0  0
  8  9  2  0  0  0
  9 10  1  0  0  0
 23 24  1  0  0  0
 24 19  2  0  0  0
 10  1  2  0  0  0
 16 11  1  0  0  0
 10  5  1  0  0  0
 17 18  1  0  0  0
M  END
> <minimizedAffinity>
-1.32873

$$$$



 26 29  0  0  0  0  0  0  0  0999 V2000
   -0.3660   63.5634   80.5123 C   0  0  0  0  0  0  0  0  0  0  0  0
   -0.4450   63.5893   81.8531 N   0  0  0  0  0  0  0  0  0  0  0  0
   -1.1177   62.6033   82.4642 C   0  0  0  0  0  0  0  0  0  0  0  0
   -1.7122   61.5827   81.8240 N   0  0  0  0  0  0  0  0  0  0  0  0
   -1.6425   61.5653   80.4913 C   0  0  0  0  0  0  0  0  0  0  0  0
   -2.2615   60.5243   79.8094 C   0  0  0  0  0  0  0  0  0  0  0  0
   -2.2441   60.4380   78.4148 C   0  0  0  0  0  0  0  0  0  0  0  0
   -1.5974   61.4163   77.6733 C   0  0  0  0  0  0  0  0  0  0  0  0
   -0.9676   62.4685   78.3342 C   0  0  0  0  0  0  0  0  0  0  0  0
   -0.9759   62.5491   79.7518 C   0  0  0  0  0  0  0  0  0  0  0  0
   -1.2044   62.6423   83.9391 C   0  0  0  0  0  0  0  0  0  0  0  0
   -2.3799   62.2674   84.6190 C   0  0  0  0  0  0  0  0  0  0  0  0
   -2.4629   62.3053   86.0150 C   0  0  0  0  0  0  0  0  0  0  0  0
   -1.3686   62.7213   86.7670 C   0  0  0  0  0  0  0  0  0  0  0  0
   -0.1933   63.0985   86.1250 C   0  0  0  0  0  0  0  0  0  0  0  0
   -0.1141   63.0586   84.7290 C   0  0  0  0  0  0  0  0  0  0  0  0
    0.3713   64.5776   79.8400 N   0  0  0  0  0  0  0  0  0  0  0  0
    1.2391   64.1746   79.5032 H   0  0  0  0  0  0  0  0  0  0  0  0
    1.6297   67.6743   81.5474 C   0  0  0  0  0  0  0  0  0  0  0  0
    0.7304   68.6165   81.0524 C   0  0  0  0  0  0  0  0  0  0  0  0
   -0.2745   68.2208   80.1693 C   0  0  0  0  0  0  0  0  0  0  0  0
   -0.3735   66.8863   79.7691 C   0  0  0  0  0  0  0  0  0  0  0  0
    0.5435   65.9281   80.2226 C   0  0  0  0  0  0  0  0  0  0  0  0
    1.5198   66.3388   81.1396 C   0  0  0  0  0  0  0  0  0  0  0  0
    3.0420   69.2763   82.5950 C   0  0  0  0  0  0  0  0  0  0  0  0
    2.6459   67.9212   82.4304 O   0  0  0  0  0  0  0  0  0  0  0  0
 25 26  1  0  0  0
 26 19  1  0  0  0
 19 20  1  0  0  0
 20 21  2  0  0  0
 21 22  1  0  0  0
 22 23  2  0  0  0
 23 17  1  0  0  0
 17  1  1  0  0  0
  1  2  1  0  0  0
  2  3  2  0  0  0
  3 11  1  0  0  0
 11 12  2  0  0  0
 12 13  1  0  0  0
 13 14  2  0  0  0
 14 15  1  0  0  0
 15 16  2  0  0  0
  3  4  1  0  0  0
  4  5  2  0  0  0
  5  6  1  0  0  0
  6  7  2  0  0  0
  7  8  1  0  0  0
  8  9  2  0  0  0
  9 10  1  0  0  0
 23 24  1  0  0  0
 24 19  2  0  0  0
 10  1  2  0  0  0
 16 11  1  0  0  0
 10  5  1  0  0  0
 17 18  1  0  0  0
M  END
> <minimizedAffinity>
-1.25847

$$$$



 26 29  0  0  0  0  0  0  0  0999 V2000
   -0.4228   62.8317   81.0768 C   0  0  0  0  0  0  0  0  0  0  0  0
   -0.0456   64.1139   81.2119 N   0  0  0  0  0  0  0  0  0  0  0  0
   -0.0577   64.8930   80.1205 C   0  0  0  0  0  0  0  0  0  0  0  0
   -0.4319   64.4783   78.8986 N   0  0  0  0  0  0  0  0  0  0  0  0
   -0.7951   63.2010   78.7644 C   0  0  0  0  0  0  0  0  0  0  0  0
   -1.1742   62.7493   77.5058 C   0  0  0  0  0  0  0  0  0  0  0  0
   -1.5580   61.4249   77.2785 C   0  0  0  0  0  0  0  0  0  0  0  0
   -1.5614   60.5198   78.3300 C   0  0  0  0  0  0  0  0  0  0  0  0
   -1.1877   60.9494   79.6013 C   0  0  0  0  0  0  0  0  0  0  0  0
   -0.8090   62.2980   79.8337 C   0  0  0  0  0  0  0  0  0  0  0  0
    0.3641   66.3008   80.2767 C   0  0  0  0  0  0  0  0  0  0  0  0
   -0.5196   67.3680   80.0223 C   0  0  0  0  0  0  0  0  0  0  0  0
   -0.1205   68.7009   80.1690 C   0  0  0  0  0  0  0  0  0  0  0  0
    1.1767   68.9992   80.5743 C   0  0  0  0  0  0  0  0  0  0  0  0
    2.0734   67.9674   80.8329 C   0  0  0  0  0  0  0  0  0  0  0  0
    1.6704   66.6360   80.6857 C   0  0  0  0  0  0  0  0  0  0  0  0
   -0.4532   61.9918   82.2247 N   0  0  0  0  0  0  0  0  0  0  0  0
   -0.7702   61.0709   81.9412 H   0  0  0  0  0  0  0  0  0  0  0  0
   -0.5107   63.1120   85.8067 C   0  0  0  0  0  0  0  0  0  0  0  0
   -1.8217   62.7880   86.1496 C   0  0  0  0  0  0  0  0  0  0  0  0
   -2.6641   62.2059   85.2021 C   0  0  0  0  0  0  0  0  0  0  0  0
   -2.2019   61.9597   83.9073 C   0  0  0  0  0  0  0  0  0  0  0  0
   -0.8997   62.3130   83.5276 C   0  0  0  0  0  0  0  0  0  0  0  0
   -0.0583   62.8594   84.5054 C   0  0  0  0  0  0  0  0  0  0  0  0
    0.3372   63.3316   88.0183 C   0  0  0  0  0  0  0  0  0  0  0  0
    0.4232   63.6665   86.6396 O   0  0  0  0  0  0  0  0  0  0  0  0
 25 26  1  0  0  0
 26 19  1  0  0  0
 19 20  1  0  0  0
 20 21  2  0  0  0
 21 22  1  0  0  0
 22 23  2  0  0  0
 23 17  1  0  0  0
 17  1  1  0  0  0
  1  2  1  0  0  0
  2  3  2  0  0  0
  3 11  1  0  0  0
 11 12  2  0  0  0
 12 13  1  0  0  0
 13 14  2  0  0  0
 14 15  1  0  0  0
 15 16  2  0  0  0
  3  4  1  0  0  0
  4  5  2  0  0  0
  5  6  1  0  0  0
  6  7  2  0  0  0
  7  8  1  0  0  0
  8  9  2  0  0  0
  9 10  1  0  0  0
 23 24  1  0  0  0
 24 19  2  0  0  0
 10  1  2  0  0  0
 16 11  1  0  0  0
 10  5  1  0  0  0
 17 18  1  0  0  0
M  END
> <minimizedAffinity>
-1.21501

$$$$



 26 29  0  0  0  0  0  0  0  0999 V2000
   -0.0919   63.7077   81.4494 C   0  0  0  0  0  0  0  0  0  0  0  0
   -0.4498   63.1985   80.2589 N   0  0  0  0  0  0  0  0  0  0  0  0
   -1.3860   62.2385   80.2396 C   0  0  0  0  0  0  0  0  0  0  0  0
   -1.9989   61.7568   81.3338 N   0  0  0  0  0  0  0  0  0  0  0  0
   -1.6333   62.2559   82.5164 C   0  0  0  0  0  0  0  0  0  0  0  0
   -2.2468   61.7622   83.6616 C   0  0  0  0  0  0  0  0  0  0  0  0
   -1.9141   62.2235   84.9381 C   0  0  0  0  0  0  0  0  0  0  0  0
   -0.9400   63.2007   85.0839 C   0  0  0  0  0  0  0  0  0  0  0  0
   -0.3124   63.7129   83.9506 C   0  0  0  0  0  0  0  0  0  0  0  0
   -0.6593   63.2518   82.6532 C   0  0  0  0  0  0  0  0  0  0  0  0
   -1.7700   61.6799   78.9263 C   0  0  0  0  0  0  0  0  0  0  0  0
   -1.1226   62.0747   77.7391 C   0  0  0  0  0  0  0  0  0  0  0  0
   -1.4865   61.5470   76.4955 C   0  0  0  0  0  0  0  0  0  0  0  0
   -2.5106   60.6091   76.4093 C   0  0  0  0  0  0  0  0  0  0  0  0
   -3.1699   60.1990   77.5639 C   0  0  0  0  0  0  0  0  0  0  0  0
   -2.8027   60.7286   78.8054 C   0  0  0  0  0  0  0  0  0  0  0  0
    0.8735   64.7518   81.4965 N   0  0  0  0  0  0  0  0  0  0  0  0
    1.3770   64.6848   82.3745 H   0  0  0  0  0  0  0  0  0  0  0  0
    1.3647   68.4570   81.1525 C   0  0  0  0  0  0  0  0  0  0  0  0
    0.2678   68.7826   80.3574 C   0  0  0  0  0  0  0  0  0  0  0  0
   -0.6156   67.7829   79.9491 C   0  0  0  0  0  0  0  0  0  0  0  0
   -0.3963   66.4552   80.3233 C   0  0  0  0  0  0  0  0  0  0  0  0
    0.7216   66.0977   81.0897 C   0  0  0  0  0  0  0  0  0  0  0  0
    1.5735   67.1223   81.5223 C   0  0  0  0  0  0  0  0  0  0  0  0
    2.1294   70.7053   81.2889 C   0  0  0  0  0  0  0  0  0  0  0  0
    2.2941   69.3372   81.6372 O   0  0  0  0  0  0  0  0  0  0  0  0
 25 26  1  0  0  0
 26 19  1  0  0  0
 19 20  1  0  0  0
 20 21  2  0  0  0
 21 22  1  0  0  0
 22 23  2  0  0  0
 23 17  1  0  0  0
 17  1  1  0  0  0
  1  2  1  0  0  0
  2  3  2  0  0  0
  3 11  1  0  0  0
 11 12  2  0  0  0
 12 13  1  0  0  0
 13 14  2  0  0  0
 14 15  1  0  0  0
 15 16  2  0  0  0
  3  4  1  0  0  0
  4  5  2  0  0  0
  5  6  1  0  0  0
  6  7  2  0  0  0
  7  8  1  0  0  0
  8  9  2  0  0  0
  9 10  1  0  0  0
 23 24  1  0  0  0
 24 19  2  0  0  0
 10  1  2  0  0  0
 16 11  1  0  0  0
 10  5  1  0  0  0
 17 18  1  0  0  0
M  END
> <minimizedAffinity>
-1.20365

$$$$



 26 29  0  0  0  0  0  0  0  0999 V2000
   -0.0745   64.2302   80.8241 C   0  0  0  0  0  0  0  0  0  0  0  0
   -0.0868   64.1784   82.1664 N   0  0  0  0  0  0  0  0  0  0  0  0
   -0.6584   63.1156   82.7511 C   0  0  0  0  0  0  0  0  0  0  0  0
   -1.2131   62.0910   82.0823 N   0  0  0  0  0  0  0  0  0  0  0  0
   -1.2101   62.1501   80.7490 C   0  0  0  0  0  0  0  0  0  0  0  0
   -1.7900   61.1056   80.0386 C   0  0  0  0  0  0  0  0  0  0  0  0
   -1.8375   61.0957   78.6420 C   0  0  0  0  0  0  0  0  0  0  0  0
   -1.2980   62.1560   77.9281 C   0  0  0  0  0  0  0  0  0  0  0  0
   -0.7092   63.2135   78.6177 C   0  0  0  0  0  0  0  0  0  0  0  0
   -0.6511   63.2172   80.0364 C   0  0  0  0  0  0  0  0  0  0  0  0
   -0.6726   63.0692   84.2283 C   0  0  0  0  0  0  0  0  0  0  0  0
    0.2756   63.7720   84.9974 C   0  0  0  0  0  0  0  0  0  0  0  0
    0.2633   63.7275   86.3957 C   0  0  0  0  0  0  0  0  0  0  0  0
   -0.7006   62.9758   87.0604 C   0  0  0  0  0  0  0  0  0  0  0  0
   -1.6507   62.2699   86.3291 C   0  0  0  0  0  0  0  0  0  0  0  0
   -1.6354   62.3175   84.9312 C   0  0  0  0  0  0  0  0  0  0  0  0
    0.5564   65.3290   80.1770 N   0  0  0  0  0  0  0  0  0  0  0  0
    1.3107   64.9726   79.6000 H   0  0  0  0  0  0  0  0  0  0  0  0
    0.5759   69.0168   80.8755 C   0  0  0  0  0  0  0  0  0  0  0  0
    1.6686   69.1033   81.7357 C   0  0  0  0  0  0  0  0  0  0  0  0
    2.3819   67.9521   82.0706 C   0  0  0  0  0  0  0  0  0  0  0  0
    1.9960   66.7117   81.5575 C   0  0  0  0  0  0  0  0  0  0  0  0
    0.8767   66.5940   80.7220 C   0  0  0  0  0  0  0  0  0  0  0  0
    0.1991   67.7676   80.3665 C   0  0  0  0  0  0  0  0  0  0  0  0
    0.0382   71.3266   81.0607 C   0  0  0  0  0  0  0  0  0  0  0  0
   -0.1963   70.0642   80.4510 O   0  0  0  0  0  0  0  0  0  0  0  0
 25 26  1  0  0  0
 26 19  1  0  0  0
 19 20  1  0  0  0
 20 21  2  0  0  0
 21 22  1  0  0  0
 22 23  2  0  0  0
 23 17  1  0  0  0
 17  1  1  0  0  0
  1  2  1  0  0  0
  2  3  2  0  0  0
  3 11  1  0  0  0
 11 12  2  0  0  0
 12 13  1  0  0  0
 13 14  2  0  0  0
 14 15  1  0  0  0
 15 16  2  0  0  0
  3  4  1  0  0  0
  4  5  2  0  0  0
  5  6  1  0  0  0
  6  7  2  0  0  0
  7  8  1  0  0  0
  8  9  2  0  0  0
  9 10  1  0  0  0
 23 24  1  0  0  0
 24 19  2  0  0  0
 10  1  2  0  0  0
 16 11  1  0  0  0
 10  5  1  0  0  0
 17 18  1  0  0  0
M  END
> <minimizedAffinity>
-1.16080

$$$$



 26 29  0  0  0  0  0  0  0  0999 V2000
    0.6491   64.1532   83.6503 C   0  0  0  0  0  0  0  0  0  0  0  0
    0.2610   63.7379   82.4331 N   0  0  0  0  0  0  0  0  0  0  0  0
   -0.7689   62.8824   82.3576 C   0  0  0  0  0  0  0  0  0  0  0  0
   -1.4470   62.4184   83.4205 N   0  0  0  0  0  0  0  0  0  0  0  0
   -1.0523   62.8231   84.6295 C   0  0  0  0  0  0  0  0  0  0  0  0
   -1.7332   62.3450   85.7428 C   0  0  0  0  0  0  0  0  0  0  0  0
   -1.3766   62.7115   87.0433 C   0  0  0  0  0  0  0  0  0  0  0  0
   -0.3094   63.5744   87.2465 C   0  0  0  0  0  0  0  0  0  0  0  0
    0.3872   64.0690   86.1461 C   0  0  0  0  0  0  0  0  0  0  0  0
    0.0169   63.7051   84.8245 C   0  0  0  0  0  0  0  0  0  0  0  0
   -1.1859   62.4263   81.0151 C   0  0  0  0  0  0  0  0  0  0  0  0
   -2.0440   61.3220   80.8448 C   0  0  0  0  0  0  0  0  0  0  0  0
   -2.4381   60.8891   79.5742 C   0  0  0  0  0  0  0  0  0  0  0  0
   -1.9812   61.5521   78.4394 C   0  0  0  0  0  0  0  0  0  0  0  0
   -1.1321   62.6460   78.5742 C   0  0  0  0  0  0  0  0  0  0  0  0
   -0.7408   63.0762   79.8465 C   0  0  0  0  0  0  0  0  0  0  0  0
    1.7162   65.0880   83.7579 N   0  0  0  0  0  0  0  0  0  0  0  0
    2.0262   65.1124   84.7234 H   0  0  0  0  0  0  0  0  0  0  0  0
    1.4516   67.8980   81.2836 C   0  0  0  0  0  0  0  0  0  0  0  0
    2.2119   68.8717   81.9279 C   0  0  0  0  0  0  0  0  0  0  0  0
    2.8003   68.5905   83.1612 C   0  0  0  0  0  0  0  0  0  0  0  0
    2.6183   67.3411   83.7584 C   0  0  0  0  0  0  0  0  0  0  0  0
    1.8254   66.3593   83.1482 C   0  0  0  0  0  0  0  0  0  0  0  0
    1.2771   66.6484   81.8918 C   0  0  0  0  0  0  0  0  0  0  0  0
   -0.2223   68.9763   79.9823 C   0  0  0  0  0  0  0  0  0  0  0  0
    0.8377   68.0333   80.0678 O   0  0  0  0  0  0  0  0  0  0  0  0
 25 26  1  0  0  0
 26 19  1  0  0  0
 19 20  1  0  0  0
 20 21  2  0  0  0
 21 22  1  0  0  0
 22 23  2  0  0  0
 23 17  1  0  0  0
 17  1  1  0  0  0
  1  2  1  0  0  0
  2  3  2  0  0  0
  3 11  1  0  0  0
 11 12  2  0  0  0
 12 13  1  0  0  0
 13 14  2  0  0  0
 14 15  1  0  0  0
 15 16  2  0  0  0
  3  4  1  0  0  0
  4  5  2  0  0  0
  5  6  1  0  0  0
  6  7  2  0  0  0
  7  8  1  0  0  0
  8  9  2  0  0  0
  9 10  1  0  0  0
 23 24  1  0  0  0
 24 19  2  0  0  0
 10  1  2  0  0  0
 16 11  1  0  0  0
 10  5  1  0  0  0
 17 18  1  0  0  0
M  END
> <minimizedAffinity>
-1.07200

$$$$



 26 29  0  0  0  0  0  0  0  0999 V2000
    4.3131   75.3387   81.7282 C   0  0  0  0  0  0  0  0  0  0  0  0
    3.4949   75.8964   82.6361 N   0  0  0  0  0  0  0  0  0  0  0  0
    3.9879   76.8702   83.4150 C   0  0  0  0  0  0  0  0  0  0  0  0
    5.2468   77.3337   83.3419 N   0  0  0  0  0  0  0  0  0  0  0  0
    6.0613   76.7701   82.4473 C   0  0  0  0  0  0  0  0  0  0  0  0
    7.3712   77.2272   82.3643 C   0  0  0  0  0  0  0  0  0  0  0  0
    8.2898   76.6838   81.4623 C   0  0  0  0  0  0  0  0  0  0  0  0
    7.8992   75.6526   80.6203 C   0  0  0  0  0  0  0  0  0  0  0  0
    6.5906   75.1790   80.6831 C   0  0  0  0  0  0  0  0  0  0  0  0
    5.6547   75.7395   81.5920 C   0  0  0  0  0  0  0  0  0  0  0  0
    3.0827   77.4745   84.4149 C   0  0  0  0  0  0  0  0  0  0  0  0
    3.4684   77.6288   85.7610 C   0  0  0  0  0  0  0  0  0  0  0  0
    2.6115   78.1997   86.7081 C   0  0  0  0  0  0  0  0  0  0  0  0
    1.3436   78.6308   86.3304 C   0  0  0  0  0  0  0  0  0  0  0  0
    0.9329   78.4918   85.0084 C   0  0  0  0  0  0  0  0  0  0  0  0
    1.7928   77.9210   84.0643 C   0  0  0  0  0  0  0  0  0  0  0  0
    3.8066   74.3278   80.8647 N   0  0  0  0  0  0  0  0  0  0  0  0
    3.6443   74.7371   79.9509 H   0  0  0  0  0  0  0  0  0  0  0  0
    2.2364   71.0309   81.7328 C   0  0  0  0  0  0  0  0  0  0  0  0
    0.8877   71.3500   81.5888 C   0  0  0  0  0  0  0  0  0  0  0  0
    0.5156   72.6394   81.2076 C   0  0  0  0  0  0  0  0  0  0  0  0
    1.4898   73.6148   80.9833 C   0  0  0  0  0  0  0  0  0  0  0  0
    2.8505   73.3285   81.1600 C   0  0  0  0  0  0  0  0  0  0  0  0
    3.2041   72.0173   81.5041 C   0  0  0  0  0  0  0  0  0  0  0  0
    2.0413   68.6638   81.6024 C   0  0  0  0  0  0  0  0  0  0  0  0
    2.7388   69.8062   82.0808 O   0  0  0  0  0  0  0  0  0  0  0  0
 25 26  1  0  0  0
 26 19  1  0  0  0
 19 20  1  0  0  0
 20 21  2  0  0  0
 21 22  1  0  0  0
 22 23  2  0  0  0
 23 17  1  0  0  0
 17  1  1  0  0  0
  1  2  1  0  0  0
  2  3  2  0  0  0
  3 11  1  0  0  0
 11 12  2  0  0  0
 12 13  1  0  0  0
 13 14  2  0  0  0
 14 15  1  0  0  0
 15 16  2  0  0  0
  3  4  1  0  0  0
  4  5  2  0  0  0
  5  6  1  0  0  0
  6  7  2  0  0  0
  7  8  1  0  0  0
  8  9  2  0  0  0
  9 10  1  0  0  0
 23 24  1  0  0  0
 24 19  2  0  0  0
 10  1  2  0  0  0
 16 11  1  0  0  0
 10  5  1  0  0  0
 17 18  1  0  0  0
M  END
> <minimizedAffinity>
-1.05123

$$$$



 26 29  0  0  0  0  0  0  0  0999 V2000
    0.2361   63.7480   80.4957 C   0  0  0  0  0  0  0  0  0  0  0  0
    0.6412   65.0222   80.3660 N   0  0  0  0  0  0  0  0  0  0  0  0
    0.6543   65.7943   81.4623 C   0  0  0  0  0  0  0  0  0  0  0  0
    0.2972   65.3751   82.6876 N   0  0  0  0  0  0  0  0  0  0  0  0
   -0.1162   64.1122   82.8121 C   0  0  0  0  0  0  0  0  0  0  0  0
   -0.5016   63.6625   84.0694 C   0  0  0  0  0  0  0  0  0  0  0  0
   -0.9561   62.3584   84.2829 C   0  0  0  0  0  0  0  0  0  0  0  0
   -1.0355   61.4746   83.2163 C   0  0  0  0  0  0  0  0  0  0  0  0
   -0.6525   61.9013   81.9467 C   0  0  0  0  0  0  0  0  0  0  0  0
   -0.1799   63.2231   81.7329 C   0  0  0  0  0  0  0  0  0  0  0  0
    1.0961   67.1964   81.3097 C   0  0  0  0  0  0  0  0  0  0  0  0
    0.5704   68.0299   80.3029 C   0  0  0  0  0  0  0  0  0  0  0  0
    0.9891   69.3569   80.1573 C   0  0  0  0  0  0  0  0  0  0  0  0
    1.9474   69.8835   81.0177 C   0  0  0  0  0  0  0  0  0  0  0  0
    2.4862   69.0855   82.0221 C   0  0  0  0  0  0  0  0  0  0  0  0
    2.0645   67.7595   82.1648 C   0  0  0  0  0  0  0  0  0  0  0  0
    0.2457   62.8964   79.3560 N   0  0  0  0  0  0  0  0  0  0  0  0
    1.1226   63.0281   78.8635 H   0  0  0  0  0  0  0  0  0  0  0  0
   -2.6289   61.2175   77.6222 C   0  0  0  0  0  0  0  0  0  0  0  0
   -2.8142   62.0844   76.5472 C   0  0  0  0  0  0  0  0  0  0  0  0
   -1.9928   63.2033   76.4074 C   0  0  0  0  0  0  0  0  0  0  0  0
   -0.9946   63.4646   77.3488 C   0  0  0  0  0  0  0  0  0  0  0  0
   -0.8149   62.6288   78.4596 C   0  0  0  0  0  0  0  0  0  0  0  0
   -1.6239   61.4894   78.5591 C   0  0  0  0  0  0  0  0  0  0  0  0
   -3.4773   59.6787   79.2255 C   0  0  0  0  0  0  0  0  0  0  0  0
   -3.3472   60.0785   77.8678 O   0  0  0  0  0  0  0  0  0  0  0  0
 25 26  1  0  0  0
 26 19  1  0  0  0
 19 20  1  0  0  0
 20 21  2  0  0  0
 21 22  1  0  0  0
 22 23  2  0  0  0
 23 17  1  0  0  0
 17  1  1  0  0  0
  1  2  1  0  0  0
  2  3  2  0  0  0
  3 11  1  0  0  0
 11 12  2  0  0  0
 12 13  1  0  0  0
 13 14  2  0  0  0
 14 15  1  0  0  0
 15 16  2  0  0  0
  3  4  1  0  0  0
  4  5  2  0  0  0
  5  6  1  0  0  0
  6  7  2  0  0  0
  7  8  1  0  0  0
  8  9  2  0  0  0
  9 10  1  0  0  0
 23 24  1  0  0  0
 24 19  2  0  0  0
 10  1  2  0  0  0
 16 11  1  0  0  0
 10  5  1  0  0  0
 17 18  1  0  0  0
M  END
> <minimizedAffinity>
-1.05026

$$$$



 26 29  0  0  0  0  0  0  0  0999 V2000
    4.7389   75.3870   82.0942 C   0  0  0  0  0  0  0  0  0  0  0  0
    5.0307   74.8644   80.8915 N   0  0  0  0  0  0  0  0  0  0  0  0
    6.1453   75.2842   80.2752 C   0  0  0  0  0  0  0  0  0  0  0  0
    6.9975   76.1886   80.7857 N   0  0  0  0  0  0  0  0  0  0  0  0
    6.6995   76.7152   81.9754 C   0  0  0  0  0  0  0  0  0  0  0  0
    7.5623   77.6616   82.5153 C   0  0  0  0  0  0  0  0  0  0  0  0
    7.3176   78.2683   83.7502 C   0  0  0  0  0  0  0  0  0  0  0  0
    6.1804   77.9299   84.4694 C   0  0  0  0  0  0  0  0  0  0  0  0
    5.3016   76.9820   83.9500 C   0  0  0  0  0  0  0  0  0  0  0  0
    5.5570   76.3576   82.7005 C   0  0  0  0  0  0  0  0  0  0  0  0
    6.4559   74.7083   78.9501 C   0  0  0  0  0  0  0  0  0  0  0  0
    6.3437   73.3261   78.7019 C   0  0  0  0  0  0  0  0  0  0  0  0
    6.6388   72.7803   77.4479 C   0  0  0  0  0  0  0  0  0  0  0  0
    7.0553   73.6067   76.4089 C   0  0  0  0  0  0  0  0  0  0  0  0
    7.1766   74.9761   76.6225 C   0  0  0  0  0  0  0  0  0  0  0  0
    6.8801   75.5181   77.8775 C   0  0  0  0  0  0  0  0  0  0  0  0
    3.5814   74.9339   82.7862 N   0  0  0  0  0  0  0  0  0  0  0  0
    3.8687   74.5650   83.6864 H   0  0  0  0  0  0  0  0  0  0  0  0
    1.3532   72.1391   81.6405 C   0  0  0  0  0  0  0  0  0  0  0  0
    0.3103   72.8671   81.0716 C   0  0  0  0  0  0  0  0  0  0  0  0
    0.3557   74.2615   81.0710 C   0  0  0  0  0  0  0  0  0  0  0  0
    1.4363   74.9299   81.6509 C   0  0  0  0  0  0  0  0  0  0  0  0
    2.4779   74.2200   82.2641 C   0  0  0  0  0  0  0  0  0  0  0  0
    2.4320   72.8205   82.2181 C   0  0  0  0  0  0  0  0  0  0  0  0
    2.6913   70.1978   81.3257 C   0  0  0  0  0  0  0  0  0  0  0  0
    1.4448   70.7744   81.6918 O   0  0  0  0  0  0  0  0  0  0  0  0
 25 26  1  0  0  0
 26 19  1  0  0  0
 19 20  1  0  0  0
 20 21  2  0  0  0
 21 22  1  0  0  0
 22 23  2  0  0  0
 23 17  1  0  0  0
 17  1  1  0  0  0
  1  2  1  0  0  0
  2  3  2  0  0  0
  3 11  1  0  0  0
 11 12  2  0  0  0
 12 13  1  0  0  0
 13 14  2  0  0  0
 14 15  1  0  0  0
 15 16  2  0  0  0
  3  4  1  0  0  0
  4  5  2  0  0  0
  5  6  1  0  0  0
  6  7  2  0  0  0
  7  8  1  0  0  0
  8  9  2  0  0  0
  9 10  1  0  0  0
 23 24  1  0  0  0
 24 19  2  0  0  0
 10  1  2  0  0  0
 16 11  1  0  0  0
 10  5  1  0  0  0
 17 18  1  0  0  0
M  END
> <minimizedAffinity>
-1.04804

$$$$
