


 35 38  0  0  0  0  0  0  0  0999 V2000
   -0.4928   61.6617   82.2777 N   0  0  0  0  0  0  0  0  0  0  0  0
    0.4217   61.3943   81.9443 H   0  0  0  0  0  0  0  0  0  0  0  0
    0.3437   64.2238   84.5800 C   0  0  0  0  0  0  0  0  0  0  0  0
    0.1681   63.5419   83.4349 N   0  0  0  0  0  0  0  0  0  0  0  0
   -0.3593   62.3134   83.5016 C   0  0  0  0  0  0  0  0  0  0  0  0
   -0.7003   61.7173   84.6480 N   0  0  0  0  0  0  0  0  0  0  0  0
   -0.5462   62.3962   85.7853 C   0  0  0  0  0  0  0  0  0  0  0  0
   -0.9209   61.7885   86.9780 C   0  0  0  0  0  0  0  0  0  0  0  0
   -0.8015   62.4396   88.2087 C   0  0  0  0  0  0  0  0  0  0  0  0
   -0.3002   63.7329   88.2565 C   0  0  0  0  0  0  0  0  0  0  0  0
    0.0850   64.3595   87.0732 C   0  0  0  0  0  0  0  0  0  0  0  0
   -0.0260   63.6914   85.8260 C   0  0  0  0  0  0  0  0  0  0  0  0
    0.9027   65.5236   84.5241 N   0  0  0  0  0  0  0  0  0  0  0  0
    1.7519   65.5235   85.0833 H   0  0  0  0  0  0  0  0  0  0  0  0
    1.1511   66.0301   83.1679 C   0  0  0  0  0  0  0  0  0  0  0  0
    2.5718   66.6352   83.0912 C   0  0  0  0  0  0  0  0  0  0  0  0
    3.3013   68.4850   84.5030 C   0  0  0  0  0  0  0  0  0  0  0  0
    3.1417   67.0339   84.3941 N   0  0  0  0  0  0  0  0  0  0  0  0
    4.4360   66.3767   84.5954 C   0  0  0  0  0  0  0  0  0  0  0  0
   -1.5747   61.4530   81.4162 C   0  0  0  0  0  0  0  0  0  0  0  0
   -2.8316   61.9690   81.7783 C   0  0  0  0  0  0  0  0  0  0  0  0
   -3.9421   61.8587   80.9335 C   0  0  0  0  0  0  0  0  0  0  0  0
   -3.8141   61.2357   79.6968 C   0  0  0  0  0  0  0  0  0  0  0  0
   -2.5728   60.7206   79.3254 C   0  0  0  0  0  0  0  0  0  0  0  0
   -1.4625   60.8285   80.1718 C   0  0  0  0  0  0  0  0  0  0  0  0
   -2.3786   59.9539   77.7388 S   0  0  0  0  0  0  0  0  0  0  0  0
   -1.3875   58.9102   77.8854 O   0  0  0  0  0  0  0  0  0  0  0  0
   -3.6965   59.6704   77.2065 O   0  0  0  0  0  0  0  0  0  0  0  0
   -1.7148   61.1890   76.7726 N   0  0  0  0  0  0  0  0  0  0  0  0
   -0.2183   61.2749   76.7516 C   0  0  0  0  0  0  0  0  0  0  0  0
    0.2891   62.4866   77.5529 C   0  0  0  0  0  0  0  0  0  0  0  0
   -0.1739   63.7794   77.0028 N   0  0  0  0  0  0  0  0  0  0  0  0
   -0.1195   64.8179   78.0291 C   0  0  0  0  0  0  0  0  0  0  0  0
   -1.5219   63.6622   76.4085 C   0  0  0  0  0  0  0  0  0  0  0  0
   -2.3770   62.5155   76.9772 C   0  0  0  0  0  0  0  0  0  0  0  0
 17 18  1  0  0  0
 18 19  1  0  0  0
 18 16  1  0  0  0
 16 15  1  0  0  0
 15 13  1  0  0  0
 13  3  1  0  0  0
  3  4  1  0  0  0
  4  5  2  0  0  0
  5  1  1  0  0  0
  1 20  1  0  0  0
 20 21  1  0  0  0
 21 22  2  0  0  0
 22 23  1  0  0  0
 23 24  2  0  0  0
 24 26  1  0  0  0
 26 27  2  0  0  0
 26 28  2  0  0  0
 26 29  1  0  0  0
 29 30  1  0  0  0
 30 31  1  0  0  0
 31 32  1  0  0  0
 32 33  1  0  0  0
 32 34  1  0  0  0
 34 35  1  0  0  0
 24 25  1  0  0  0
  5  6  1  0  0  0
  6  7  2  0  0  0
  7  8  1  0  0  0
  8  9  2  0  0  0
  9 10  1  0  0  0
 10 11  2  0  0  0
 11 12  1  0  0  0
 12  3  2  0  0  0
 25 20  2  0  0  0
 12  7  1  0  0  0
 35 29  1  0  0  0
 13 14  1  0  0  0
  1  2  1  0  0  0
M  END
> <minimizedAffinity>
-9.99184

$$$$



 35 38  0  0  0  0  0  0  0  0999 V2000
   -0.6078   61.4987   82.2573 N   0  0  0  0  0  0  0  0  0  0  0  0
    0.2875   61.1325   81.9688 H   0  0  0  0  0  0  0  0  0  0  0  0
    0.2719   64.1641   84.4222 C   0  0  0  0  0  0  0  0  0  0  0  0
    0.0731   63.4306   83.3133 N   0  0  0  0  0  0  0  0  0  0  0  0
   -0.4492   62.2054   83.4473 C   0  0  0  0  0  0  0  0  0  0  0  0
   -0.7632   61.6613   84.6267 N   0  0  0  0  0  0  0  0  0  0  0  0
   -0.5860   62.3913   85.7284 C   0  0  0  0  0  0  0  0  0  0  0  0
   -0.9326   61.8376   86.9555 C   0  0  0  0  0  0  0  0  0  0  0  0
   -0.7880   62.5440   88.1524 C   0  0  0  0  0  0  0  0  0  0  0  0
   -0.2895   63.8391   88.1305 C   0  0  0  0  0  0  0  0  0  0  0  0
    0.0678   64.4122   86.9119 C   0  0  0  0  0  0  0  0  0  0  0  0
   -0.0687   63.6880   85.6989 C   0  0  0  0  0  0  0  0  0  0  0  0
    0.8259   65.4610   84.2952 N   0  0  0  0  0  0  0  0  0  0  0  0
    1.7186   65.4692   84.7819 H   0  0  0  0  0  0  0  0  0  0  0  0
    0.9614   65.9410   82.9135 C   0  0  0  0  0  0  0  0  0  0  0  0
    2.0250   67.0616   82.8548 C   0  0  0  0  0  0  0  0  0  0  0  0
    0.9343   68.7492   81.4731 C   0  0  0  0  0  0  0  0  0  0  0  0
    2.0555   67.8147   81.5847 N   0  0  0  0  0  0  0  0  0  0  0  0
    2.0401   66.8849   80.4520 C   0  0  0  0  0  0  0  0  0  0  0  0
   -1.6803   61.3374   81.3743 C   0  0  0  0  0  0  0  0  0  0  0  0
   -2.9231   61.8993   81.7163 C   0  0  0  0  0  0  0  0  0  0  0  0
   -4.0208   61.8373   80.8502 C   0  0  0  0  0  0  0  0  0  0  0  0
   -3.8934   61.2178   79.6117 C   0  0  0  0  0  0  0  0  0  0  0  0
   -2.6660   60.6574   79.2600 C   0  0  0  0  0  0  0  0  0  0  0  0
   -1.5686   60.7170   80.1278 C   0  0  0  0  0  0  0  0  0  0  0  0
   -2.4713   59.8939   77.6719 S   0  0  0  0  0  0  0  0  0  0  0  0
   -1.5358   58.8022   77.8328 O   0  0  0  0  0  0  0  0  0  0  0  0
   -3.7883   59.6789   77.1064 O   0  0  0  0  0  0  0  0  0  0  0  0
   -1.7255   61.1024   76.7322 N   0  0  0  0  0  0  0  0  0  0  0  0
   -0.2264   61.1024   76.7302 C   0  0  0  0  0  0  0  0  0  0  0  0
    0.3394   62.2714   77.5555 C   0  0  0  0  0  0  0  0  0  0  0  0
   -0.0417   63.5963   77.0191 N   0  0  0  0  0  0  0  0  0  0  0  0
    0.0591   64.6154   78.0613 C   0  0  0  0  0  0  0  0  0  0  0  0
   -1.3866   63.5653   76.4072 C   0  0  0  0  0  0  0  0  0  0  0  0
   -2.3131   62.4617   76.9486 C   0  0  0  0  0  0  0  0  0  0  0  0
 17 18  1  0  0  0
 18 19  1  0  0  0
 18 16  1  0  0  0
 16 15  1  0  0  0
 15 13  1  0  0  0
 13  3  1  0  0  0
  3  4  1  0  0  0
  4  5  2  0  0  0
  5  1  1  0  0  0
  1 20  1  0  0  0
 20 21  1  0  0  0
 21 22  2  0  0  0
 22 23  1  0  0  0
 23 24  2  0  0  0
 24 26  1  0  0  0
 26 27  2  0  0  0
 26 28  2  0  0  0
 26 29  1  0  0  0
 29 30  1  0  0  0
 30 31  1  0  0  0
 31 32  1  0  0  0
 32 33  1  0  0  0
 32 34  1  0  0  0
 34 35  1  0  0  0
 24 25  1  0  0  0
  5  6  1  0  0  0
  6  7  2  0  0  0
  7  8  1  0  0  0
  8  9  2  0  0  0
  9 10  1  0  0  0
 10 11  2  0  0  0
 11 12  1  0  0  0
 12  3  2  0  0  0
 25 20  2  0  0  0
 12  7  1  0  0  0
 35 29  1  0  0  0
 13 14  1  0  0  0
  1  2  1  0  0  0
M  END
> <minimizedAffinity>
-9.92045

$$$$



 35 38  0  0  0  0  0  0  0  0999 V2000
    1.1368   65.5748   85.2812 N   0  0  0  0  0  0  0  0  0  0  0  0
    0.7487   66.1130   86.0420 H   0  0  0  0  0  0  0  0  0  0  0  0
    3.6768   67.6780   83.9811 C   0  0  0  0  0  0  0  0  0  0  0  0
    2.4704   67.1795   84.3026 N   0  0  0  0  0  0  0  0  0  0  0  0
    2.4201   66.0395   85.0024 C   0  0  0  0  0  0  0  0  0  0  0  0
    3.5048   65.3563   85.3802 N   0  0  0  0  0  0  0  0  0  0  0  0
    4.7042   65.8559   85.0807 C   0  0  0  0  0  0  0  0  0  0  0  0
    5.8354   65.1601   85.4915 C   0  0  0  0  0  0  0  0  0  0  0  0
    7.1261   65.6254   85.2266 C   0  0  0  0  0  0  0  0  0  0  0  0
    7.2993   66.8181   84.5382 C   0  0  0  0  0  0  0  0  0  0  0  0
    6.1792   67.5297   84.1138 C   0  0  0  0  0  0  0  0  0  0  0  0
    4.8694   67.0486   84.3736 C   0  0  0  0  0  0  0  0  0  0  0  0
    3.7445   68.8820   83.2390 N   0  0  0  0  0  0  0  0  0  0  0  0
    4.1163   68.6620   82.3186 H   0  0  0  0  0  0  0  0  0  0  0  0
    2.4784   69.6209   83.1458 C   0  0  0  0  0  0  0  0  0  0  0  0
    2.7612   71.0889   82.7517 C   0  0  0  0  0  0  0  0  0  0  0  0
    0.5841   71.8032   81.9170 C   0  0  0  0  0  0  0  0  0  0  0  0
    1.6179   72.0059   82.9334 N   0  0  0  0  0  0  0  0  0  0  0  0
    2.0816   73.3957   82.8981 C   0  0  0  0  0  0  0  0  0  0  0  0
    0.3946   64.4796   84.8277 C   0  0  0  0  0  0  0  0  0  0  0  0
    0.1709   63.4076   85.7096 C   0  0  0  0  0  0  0  0  0  0  0  0
   -0.6203   62.3113   85.3477 C   0  0  0  0  0  0  0  0  0  0  0  0
   -1.2166   62.2702   84.0920 C   0  0  0  0  0  0  0  0  0  0  0  0
   -1.0034   63.3275   83.2083 C   0  0  0  0  0  0  0  0  0  0  0  0
   -0.2095   64.4231   83.5695 C   0  0  0  0  0  0  0  0  0  0  0  0
   -1.7824   63.3127   81.6159 S   0  0  0  0  0  0  0  0  0  0  0  0
   -3.1507   63.7433   81.8039 O   0  0  0  0  0  0  0  0  0  0  0  0
   -0.9060   63.9810   80.6748 O   0  0  0  0  0  0  0  0  0  0  0  0
   -1.7952   61.6644   81.1886 N   0  0  0  0  0  0  0  0  0  0  0  0
   -0.6624   61.2007   80.3230 C   0  0  0  0  0  0  0  0  0  0  0  0
   -1.1263   60.9358   78.8799 C   0  0  0  0  0  0  0  0  0  0  0  0
   -2.1409   59.8633   78.7857 N   0  0  0  0  0  0  0  0  0  0  0  0
   -2.9038   59.9919   77.5463 C   0  0  0  0  0  0  0  0  0  0  0  0
   -3.0194   59.8444   79.9740 C   0  0  0  0  0  0  0  0  0  0  0  0
   -3.1322   61.1912   80.7107 C   0  0  0  0  0  0  0  0  0  0  0  0
 17 18  1  0  0  0
 18 19  1  0  0  0
 18 16  1  0  0  0
 16 15  1  0  0  0
 15 13  1  0  0  0
 13  3  1  0  0  0
  3  4  1  0  0  0
  4  5  2  0  0  0
  5  1  1  0  0  0
  1 20  1  0  0  0
 20 21  1  0  0  0
 21 22  2  0  0  0
 22 23  1  0  0  0
 23 24  2  0  0  0
 24 26  1  0  0  0
 26 27  2  0  0  0
 26 28  2  0  0  0
 26 29  1  0  0  0
 29 30  1  0  0  0
 30 31  1  0  0  0
 31 32  1  0  0  0
 32 33  1  0  0  0
 32 34  1  0  0  0
 34 35  1  0  0  0
 24 25  1  0  0  0
  5  6  1  0  0  0
  6  7  2  0  0  0
  7  8  1  0  0  0
  8  9  2  0  0  0
  9 10  1  0  0  0
 10 11  2  0  0  0
 11 12  1  0  0  0
 12  3  2  0  0  0
 25 20  2  0  0  0
 12  7  1  0  0  0
 35 29  1  0  0  0
 13 14  1  0  0  0
  1  2  1  0  0  0
M  END
> <minimizedAffinity>
-9.65401

$$$$



 35 38  0  0  0  0  0  0  0  0999 V2000
    0.9403   65.6989   84.6576 N   0  0  0  0  0  0  0  0  0  0  0  0
    0.3223   66.4532   84.9186 H   0  0  0  0  0  0  0  0  0  0  0  0
    3.6105   67.9093   83.9168 C   0  0  0  0  0  0  0  0  0  0  0  0
    2.3765   67.3885   84.0299 N   0  0  0  0  0  0  0  0  0  0  0  0
    2.2457   66.1810   84.5927 C   0  0  0  0  0  0  0  0  0  0  0  0
    3.2784   65.4535   85.0286 N   0  0  0  0  0  0  0  0  0  0  0  0
    4.5030   65.9731   84.9365 C   0  0  0  0  0  0  0  0  0  0  0  0
    5.5779   65.2293   85.4094 C   0  0  0  0  0  0  0  0  0  0  0  0
    6.8888   65.7105   85.3592 C   0  0  0  0  0  0  0  0  0  0  0  0
    7.1398   66.9682   84.8286 C   0  0  0  0  0  0  0  0  0  0  0  0
    6.0774   67.7292   84.3454 C   0  0  0  0  0  0  0  0  0  0  0  0
    4.7484   67.2330   84.3865 C   0  0  0  0  0  0  0  0  0  0  0  0
    3.7636   69.1848   83.3213 N   0  0  0  0  0  0  0  0  0  0  0  0
    4.6309   69.1806   82.7907 H   0  0  0  0  0  0  0  0  0  0  0  0
    2.6293   69.6198   82.4955 C   0  0  0  0  0  0  0  0  0  0  0  0
    2.9222   69.3150   81.0083 C   0  0  0  0  0  0  0  0  0  0  0  0
    0.5059   69.0592   80.8014 C   0  0  0  0  0  0  0  0  0  0  0  0
    1.8153   68.6563   80.2857 N   0  0  0  0  0  0  0  0  0  0  0  0
    1.9566   67.2004   80.3755 C   0  0  0  0  0  0  0  0  0  0  0  0
    0.3869   64.4171   84.5745 C   0  0  0  0  0  0  0  0  0  0  0  0
   -0.2372   63.8792   85.7140 C   0  0  0  0  0  0  0  0  0  0  0  0
   -0.8726   62.6326   85.6840 C   0  0  0  0  0  0  0  0  0  0  0  0
   -0.9064   61.8991   84.5030 C   0  0  0  0  0  0  0  0  0  0  0  0
   -0.2921   62.4217   83.3656 C   0  0  0  0  0  0  0  0  0  0  0  0
    0.3461   63.6678   83.3964 C   0  0  0  0  0  0  0  0  0  0  0  0
   -0.3537   61.5200   81.8405 S   0  0  0  0  0  0  0  0  0  0  0  0
    1.0060   61.1639   81.4977 O   0  0  0  0  0  0  0  0  0  0  0  0
   -1.3904   60.5130   81.9494 O   0  0  0  0  0  0  0  0  0  0  0  0
   -0.9048   62.6712   80.7133 N   0  0  0  0  0  0  0  0  0  0  0  0
   -2.2396   62.3942   80.0896 C   0  0  0  0  0  0  0  0  0  0  0  0
   -2.0964   61.9478   78.6241 C   0  0  0  0  0  0  0  0  0  0  0  0
   -1.4806   62.9802   77.7620 N   0  0  0  0  0  0  0  0  0  0  0  0
   -0.9064   62.3682   76.5659 C   0  0  0  0  0  0  0  0  0  0  0  0
   -0.4838   63.7799   78.5043 C   0  0  0  0  0  0  0  0  0  0  0  0
    0.1397   63.0645   79.7163 C   0  0  0  0  0  0  0  0  0  0  0  0
 17 18  1  0  0  0
 18 19  1  0  0  0
 18 16  1  0  0  0
 16 15  1  0  0  0
 15 13  1  0  0  0
 13  3  1  0  0  0
  3  4  1  0  0  0
  4  5  2  0  0  0
  5  1  1  0  0  0
  1 20  1  0  0  0
 20 21  1  0  0  0
 21 22  2  0  0  0
 22 23  1  0  0  0
 23 24  2  0  0  0
 24 26  1  0  0  0
 26 27  2  0  0  0
 26 28  2  0  0  0
 26 29  1  0  0  0
 29 30  1  0  0  0
 30 31  1  0  0  0
 31 32  1  0  0  0
 32 33  1  0  0  0
 32 34  1  0  0  0
 34 35  1  0  0  0
 24 25  1  0  0  0
  5  6  1  0  0  0
  6  7  2  0  0  0
  7  8  1  0  0  0
  8  9  2  0  0  0
  9 10  1  0  0  0
 10 11  2  0  0  0
 11 12  1  0  0  0
 12  3  2  0  0  0
 25 20  2  0  0  0
 12  7  1  0  0  0
 35 29  1  0  0  0
 13 14  1  0  0  0
  1  2  1  0  0  0
M  END
> <minimizedAffinity>
-9.62416

$$$$



 35 38  0  0  0  0  0  0  0  0999 V2000
    0.6437   65.4752   84.5692 N   0  0  0  0  0  0  0  0  0  0  0  0
    0.0148   66.0188   85.1419 H   0  0  0  0  0  0  0  0  0  0  0  0
    3.1634   67.9503   84.2700 C   0  0  0  0  0  0  0  0  0  0  0  0
    1.9672   67.3372   84.2650 N   0  0  0  0  0  0  0  0  0  0  0  0
    1.9131   66.0469   84.6171 C   0  0  0  0  0  0  0  0  0  0  0  0
    2.9881   65.3271   84.9521 N   0  0  0  0  0  0  0  0  0  0  0  0
    4.1747   65.9348   84.9774 C   0  0  0  0  0  0  0  0  0  0  0  0
    5.2923   65.1956   85.3472 C   0  0  0  0  0  0  0  0  0  0  0  0
    6.5672   65.7643   85.4095 C   0  0  0  0  0  0  0  0  0  0  0  0
    6.7371   67.1067   85.1004 C   0  0  0  0  0  0  0  0  0  0  0  0
    5.6310   67.8653   84.7235 C   0  0  0  0  0  0  0  0  0  0  0  0
    4.3392   67.2821   84.6493 C   0  0  0  0  0  0  0  0  0  0  0  0
    3.2353   69.3144   83.8973 N   0  0  0  0  0  0  0  0  0  0  0  0
    4.1601   69.6580   84.1437 H   0  0  0  0  0  0  0  0  0  0  0  0
    2.9173   69.5866   82.4893 C   0  0  0  0  0  0  0  0  0  0  0  0
    1.7348   70.5792   82.4062 C   0  0  0  0  0  0  0  0  0  0  0  0
    0.7095   68.7927   81.1008 C   0  0  0  0  0  0  0  0  0  0  0  0
    0.4754   69.9949   81.9024 N   0  0  0  0  0  0  0  0  0  0  0  0
   -0.2524   70.9872   81.1065 C   0  0  0  0  0  0  0  0  0  0  0  0
    0.1485   64.2851   84.0265 C   0  0  0  0  0  0  0  0  0  0  0  0
   -0.5619   63.4082   84.8653 C   0  0  0  0  0  0  0  0  0  0  0  0
   -1.1451   62.2340   84.3753 C   0  0  0  0  0  0  0  0  0  0  0  0
   -1.0382   61.9169   83.0255 C   0  0  0  0  0  0  0  0  0  0  0  0
   -0.3371   62.7786   82.1829 C   0  0  0  0  0  0  0  0  0  0  0  0
    0.2488   63.9520   82.6737 C   0  0  0  0  0  0  0  0  0  0  0  0
   -0.2185   62.4121   80.4525 S   0  0  0  0  0  0  0  0  0  0  0  0
    0.0842   63.6519   79.7712 O   0  0  0  0  0  0  0  0  0  0  0  0
    0.6209   61.2414   80.2923 O   0  0  0  0  0  0  0  0  0  0  0  0
   -1.8000   61.9429   80.0303 N   0  0  0  0  0  0  0  0  0  0  0  0
   -2.0911   60.4740   80.1006 C   0  0  0  0  0  0  0  0  0  0  0  0
   -2.2019   59.8526   78.6972 C   0  0  0  0  0  0  0  0  0  0  0  0
   -3.3088   60.4220   77.8978 N   0  0  0  0  0  0  0  0  0  0  0  0
   -3.0710   60.2052   76.4726 C   0  0  0  0  0  0  0  0  0  0  0  0
   -3.5216   61.8508   78.2098 C   0  0  0  0  0  0  0  0  0  0  0  0
   -2.2836   62.5782   78.7644 C   0  0  0  0  0  0  0  0  0  0  0  0
 17 18  1  0  0  0
 18 19  1  0  0  0
 18 16  1  0  0  0
 16 15  1  0  0  0
 15 13  1  0  0  0
 13  3  1  0  0  0
  3  4  1  0  0  0
  4  5  2  0  0  0
  5  1  1  0  0  0
  1 20  1  0  0  0
 20 21  1  0  0  0
 21 22  2  0  0  0
 22 23  1  0  0  0
 23 24  2  0  0  0
 24 26  1  0  0  0
 26 27  2  0  0  0
 26 28  2  0  0  0
 26 29  1  0  0  0
 29 30  1  0  0  0
 30 31  1  0  0  0
 31 32  1  0  0  0
 32 33  1  0  0  0
 32 34  1  0  0  0
 34 35  1  0  0  0
 24 25  1  0  0  0
  5  6  1  0  0  0
  6  7  2  0  0  0
  7  8  1  0  0  0
  8  9  2  0  0  0
  9 10  1  0  0  0
 10 11  2  0  0  0
 11 12  1  0  0  0
 12  3  2  0  0  0
 25 20  2  0  0  0
 12  7  1  0  0  0
 35 29  1  0  0  0
 13 14  1  0  0  0
  1  2  1  0  0  0
M  END
> <minimizedAffinity>
-9.54966

$$$$



 35 38  0  0  0  0  0  0  0  0999 V2000
    0.9052   64.4334   84.8713 N   0  0  0  0  0  0  0  0  0  0  0  0
    1.5280   64.2091   85.6334 H   0  0  0  0  0  0  0  0  0  0  0  0
    2.7358   67.4252   84.3584 C   0  0  0  0  0  0  0  0  0  0  0  0
    2.2551   66.3007   84.9165 N   0  0  0  0  0  0  0  0  0  0  0  0
    1.3727   65.5732   84.2210 C   0  0  0  0  0  0  0  0  0  0  0  0
    0.9250   65.9157   83.0093 N   0  0  0  0  0  0  0  0  0  0  0  0
    1.4126   67.0199   82.4427 C   0  0  0  0  0  0  0  0  0  0  0  0
    0.9666   67.3678   81.1728 C   0  0  0  0  0  0  0  0  0  0  0  0
    1.4394   68.5026   80.5086 C   0  0  0  0  0  0  0  0  0  0  0  0
    2.3857   69.3130   81.1202 C   0  0  0  0  0  0  0  0  0  0  0  0
    2.8437   68.9850   82.3945 C   0  0  0  0  0  0  0  0  0  0  0  0
    2.3527   67.8385   83.0719 C   0  0  0  0  0  0  0  0  0  0  0  0
    3.6682   68.2055   85.0841 N   0  0  0  0  0  0  0  0  0  0  0  0
    3.3070   68.3286   86.0266 H   0  0  0  0  0  0  0  0  0  0  0  0
    5.0380   67.6752   85.0973 C   0  0  0  0  0  0  0  0  0  0  0  0
    5.4771   67.4065   86.5552 C   0  0  0  0  0  0  0  0  0  0  0  0
    5.6163   65.1052   85.7608 C   0  0  0  0  0  0  0  0  0  0  0  0
    6.0299   66.0577   86.7925 N   0  0  0  0  0  0  0  0  0  0  0  0
    5.6132   65.5719   88.1110 C   0  0  0  0  0  0  0  0  0  0  0  0
   -0.1183   63.5222   84.5914 C   0  0  0  0  0  0  0  0  0  0  0  0
   -1.1935   63.4215   85.4919 C   0  0  0  0  0  0  0  0  0  0  0  0
   -2.2855   62.5826   85.2413 C   0  0  0  0  0  0  0  0  0  0  0  0
   -2.3294   61.8312   84.0719 C   0  0  0  0  0  0  0  0  0  0  0  0
   -1.2699   61.9228   83.1701 C   0  0  0  0  0  0  0  0  0  0  0  0
   -0.1760   62.7600   83.4223 C   0  0  0  0  0  0  0  0  0  0  0  0
   -1.3216   61.0009   81.6568 S   0  0  0  0  0  0  0  0  0  0  0  0
    0.0469   60.7646   81.2517 O   0  0  0  0  0  0  0  0  0  0  0  0
   -2.2566   59.9060   81.8233 O   0  0  0  0  0  0  0  0  0  0  0  0
   -2.0274   62.0841   80.5486 N   0  0  0  0  0  0  0  0  0  0  0  0
   -3.5170   61.9989   80.4035 C   0  0  0  0  0  0  0  0  0  0  0  0
   -3.9180   61.3489   79.0677 C   0  0  0  0  0  0  0  0  0  0  0  0
   -3.4644   62.1201   77.8895 N   0  0  0  0  0  0  0  0  0  0  0  0
   -3.4004   61.2585   76.7112 C   0  0  0  0  0  0  0  0  0  0  0  0
   -2.1757   62.7953   78.1490 C   0  0  0  0  0  0  0  0  0  0  0  0
   -1.3106   62.1322   79.2357 C   0  0  0  0  0  0  0  0  0  0  0  0
 17 18  1  0  0  0
 18 19  1  0  0  0
 18 16  1  0  0  0
 16 15  1  0  0  0
 15 13  1  0  0  0
 13  3  1  0  0  0
  3  4  1  0  0  0
  4  5  2  0  0  0
  5  1  1  0  0  0
  1 20  1  0  0  0
 20 21  1  0  0  0
 21 22  2  0  0  0
 22 23  1  0  0  0
 23 24  2  0  0  0
 24 26  1  0  0  0
 26 27  2  0  0  0
 26 28  2  0  0  0
 26 29  1  0  0  0
 29 30  1  0  0  0
 30 31  1  0  0  0
 31 32  1  0  0  0
 32 33  1  0  0  0
 32 34  1  0  0  0
 34 35  1  0  0  0
 24 25  1  0  0  0
  5  6  1  0  0  0
  6  7  2  0  0  0
  7  8  1  0  0  0
  8  9  2  0  0  0
  9 10  1  0  0  0
 10 11  2  0  0  0
 11 12  1  0  0  0
 12  3  2  0  0  0
 25 20  2  0  0  0
 12  7  1  0  0  0
 35 29  1  0  0  0
 13 14  1  0  0  0
  1  2  1  0  0  0
M  END
> <minimizedAffinity>
-9.47895

$$$$



 35 38  0  0  0  0  0  0  0  0999 V2000
   -1.2618   62.2516   82.8108 N   0  0  0  0  0  0  0  0  0  0  0  0
   -2.0541   61.6364   82.9245 H   0  0  0  0  0  0  0  0  0  0  0  0
    0.3712   64.2342   85.2537 C   0  0  0  0  0  0  0  0  0  0  0  0
   -0.1083   63.7926   84.0780 N   0  0  0  0  0  0  0  0  0  0  0  0
   -0.8148   62.6557   84.0668 C   0  0  0  0  0  0  0  0  0  0  0  0
   -1.0508   61.9220   85.1585 N   0  0  0  0  0  0  0  0  0  0  0  0
   -0.5939   62.3649   86.3303 C   0  0  0  0  0  0  0  0  0  0  0  0
   -0.8566   61.6164   87.4719 C   0  0  0  0  0  0  0  0  0  0  0  0
   -0.4223   62.0207   88.7370 C   0  0  0  0  0  0  0  0  0  0  0  0
    0.2892   63.2046   88.8738 C   0  0  0  0  0  0  0  0  0  0  0  0
    0.5669   63.9684   87.7422 C   0  0  0  0  0  0  0  0  0  0  0  0
    0.1350   63.5491   86.4568 C   0  0  0  0  0  0  0  0  0  0  0  0
    1.1221   65.4343   85.2796 N   0  0  0  0  0  0  0  0  0  0  0  0
    1.5236   65.5325   86.2086 H   0  0  0  0  0  0  0  0  0  0  0  0
    2.1494   65.5416   84.2351 C   0  0  0  0  0  0  0  0  0  0  0  0
    3.2271   66.5617   84.6690 C   0  0  0  0  0  0  0  0  0  0  0  0
    4.7781   65.3615   86.1185 C   0  0  0  0  0  0  0  0  0  0  0  0
    4.5845   65.9980   84.8146 N   0  0  0  0  0  0  0  0  0  0  0  0
    5.5858   67.0510   84.6237 C   0  0  0  0  0  0  0  0  0  0  0  0
   -0.7587   62.4154   81.5162 C   0  0  0  0  0  0  0  0  0  0  0  0
   -0.6548   61.2843   80.6873 C   0  0  0  0  0  0  0  0  0  0  0  0
   -0.2261   61.3840   79.3587 C   0  0  0  0  0  0  0  0  0  0  0  0
    0.0988   62.6267   78.8257 C   0  0  0  0  0  0  0  0  0  0  0  0
   -0.0010   63.7564   79.6369 C   0  0  0  0  0  0  0  0  0  0  0  0
   -0.4272   63.6562   80.9671 C   0  0  0  0  0  0  0  0  0  0  0  0
    0.3742   65.3546   78.9678 S   0  0  0  0  0  0  0  0  0  0  0  0
    1.7498   65.3204   78.5213 O   0  0  0  0  0  0  0  0  0  0  0  0
   -0.6987   65.7351   78.0708 O   0  0  0  0  0  0  0  0  0  0  0  0
    0.2759   66.3896   80.3165 N   0  0  0  0  0  0  0  0  0  0  0  0
   -0.7659   67.4652   80.2456 C   0  0  0  0  0  0  0  0  0  0  0  0
   -0.1340   68.8491   80.0150 C   0  0  0  0  0  0  0  0  0  0  0  0
    0.7672   69.2640   81.1123 N   0  0  0  0  0  0  0  0  0  0  0  0
    1.7057   70.2808   80.6431 C   0  0  0  0  0  0  0  0  0  0  0  0
    1.4634   68.1044   81.7078 C   0  0  0  0  0  0  0  0  0  0  0  0
    1.6105   66.8928   80.7698 C   0  0  0  0  0  0  0  0  0  0  0  0
 17 18  1  0  0  0
 18 19  1  0  0  0
 18 16  1  0  0  0
 16 15  1  0  0  0
 15 13  1  0  0  0
 13  3  1  0  0  0
  3  4  1  0  0  0
  4  5  2  0  0  0
  5  1  1  0  0  0
  1 20  1  0  0  0
 20 21  1  0  0  0
 21 22  2  0  0  0
 22 23  1  0  0  0
 23 24  2  0  0  0
 24 26  1  0  0  0
 26 27  2  0  0  0
 26 28  2  0  0  0
 26 29  1  0  0  0
 29 30  1  0  0  0
 30 31  1  0  0  0
 31 32  1  0  0  0
 32 33  1  0  0  0
 32 34  1  0  0  0
 34 35  1  0  0  0
 24 25  1  0  0  0
  5  6  1  0  0  0
  6  7  2  0  0  0
  7  8  1  0  0  0
  8  9  2  0  0  0
  9 10  1  0  0  0
 10 11  2  0  0  0
 11 12  1  0  0  0
 12  3  2  0  0  0
 25 20  2  0  0  0
 12  7  1  0  0  0
 35 29  1  0  0  0
 13 14  1  0  0  0
  1  2  1  0  0  0
M  END
> <minimizedAffinity>
-9.30869

$$$$



 35 38  0  0  0  0  0  0  0  0999 V2000
    1.3164   65.0900   83.2671 N   0  0  0  0  0  0  0  0  0  0  0  0
    1.8475   64.4340   82.7134 H   0  0  0  0  0  0  0  0  0  0  0  0
   -1.4967   63.0550   83.9809 C   0  0  0  0  0  0  0  0  0  0  0  0
   -0.5477   63.7358   83.3155 N   0  0  0  0  0  0  0  0  0  0  0  0
    0.3783   64.3925   84.0247 C   0  0  0  0  0  0  0  0  0  0  0  0
    0.3980   64.4275   85.3605 N   0  0  0  0  0  0  0  0  0  0  0  0
   -0.5296   63.7384   86.0260 C   0  0  0  0  0  0  0  0  0  0  0  0
   -0.4992   63.7536   87.4157 C   0  0  0  0  0  0  0  0  0  0  0  0
   -1.4290   63.0470   88.1830 C   0  0  0  0  0  0  0  0  0  0  0  0
   -2.4145   62.2998   87.5530 C   0  0  0  0  0  0  0  0  0  0  0  0
   -2.4657   62.2737   86.1609 C   0  0  0  0  0  0  0  0  0  0  0  0
   -1.5275   63.0022   85.3841 C   0  0  0  0  0  0  0  0  0  0  0  0
   -2.4838   62.3577   83.2430 N   0  0  0  0  0  0  0  0  0  0  0  0
   -2.8837   63.0034   82.5669 H   0  0  0  0  0  0  0  0  0  0  0  0
   -2.0146   61.1244   82.5975 C   0  0  0  0  0  0  0  0  0  0  0  0
   -3.2078   60.3990   81.9338 C   0  0  0  0  0  0  0  0  0  0  0  0
   -1.9013   60.7392   79.9029 C   0  0  0  0  0  0  0  0  0  0  0  0
   -3.2289   60.4723   80.4588 N   0  0  0  0  0  0  0  0  0  0  0  0
   -4.1663   61.5114   80.0237 C   0  0  0  0  0  0  0  0  0  0  0  0
    1.7262   66.4271   83.2435 C   0  0  0  0  0  0  0  0  0  0  0  0
    2.6320   66.8699   84.2235 C   0  0  0  0  0  0  0  0  0  0  0  0
    3.1385   68.1747   84.2198 C   0  0  0  0  0  0  0  0  0  0  0  0
    2.7551   69.0651   83.2228 C   0  0  0  0  0  0  0  0  0  0  0  0
    1.8581   68.6381   82.2444 C   0  0  0  0  0  0  0  0  0  0  0  0
    1.3492   67.3335   82.2498 C   0  0  0  0  0  0  0  0  0  0  0  0
    1.3831   69.7454   80.9441 S   0  0  0  0  0  0  0  0  0  0  0  0
    2.5939   70.1563   80.2671 O   0  0  0  0  0  0  0  0  0  0  0  0
    0.2810   69.1472   80.2174 O   0  0  0  0  0  0  0  0  0  0  0  0
    0.7508   71.0923   81.7722 N   0  0  0  0  0  0  0  0  0  0  0  0
   -0.7192   71.3352   81.6070 C   0  0  0  0  0  0  0  0  0  0  0  0
   -0.9928   72.5494   80.7022 C   0  0  0  0  0  0  0  0  0  0  0  0
   -0.4578   73.8139   81.2531 N   0  0  0  0  0  0  0  0  0  0  0  0
   -0.2770   74.7970   80.1874 C   0  0  0  0  0  0  0  0  0  0  0  0
    0.7902   73.5878   82.0116 C   0  0  0  0  0  0  0  0  0  0  0  0
    1.5744   72.3296   81.5975 C   0  0  0  0  0  0  0  0  0  0  0  0
 17 18  1  0  0  0
 18 19  1  0  0  0
 18 16  1  0  0  0
 16 15  1  0  0  0
 15 13  1  0  0  0
 13  3  1  0  0  0
  3  4  1  0  0  0
  4  5  2  0  0  0
  5  1  1  0  0  0
  1 20  1  0  0  0
 20 21  1  0  0  0
 21 22  2  0  0  0
 22 23  1  0  0  0
 23 24  2  0  0  0
 24 26  1  0  0  0
 26 27  2  0  0  0
 26 28  2  0  0  0
 26 29  1  0  0  0
 29 30  1  0  0  0
 30 31  1  0  0  0
 31 32  1  0  0  0
 32 33  1  0  0  0
 32 34  1  0  0  0
 34 35  1  0  0  0
 24 25  1  0  0  0
  5  6  1  0  0  0
  6  7  2  0  0  0
  7  8  1  0  0  0
  8  9  2  0  0  0
  9 10  1  0  0  0
 10 11  2  0  0  0
 11 12  1  0  0  0
 12  3  2  0  0  0
 25 20  2  0  0  0
 12  7  1  0  0  0
 35 29  1  0  0  0
 13 14  1  0  0  0
  1  2  1  0  0  0
M  END
> <minimizedAffinity>
-9.18202

$$$$



 35 38  0  0  0  0  0  0  0  0999 V2000
    1.4009   66.5687   82.6827 N   0  0  0  0  0  0  0  0  0  0  0  0
    0.8781   67.3916   82.9445 H   0  0  0  0  0  0  0  0  0  0  0  0
    2.4518   65.1183   85.7416 C   0  0  0  0  0  0  0  0  0  0  0  0
    1.6932   65.4782   84.6918 N   0  0  0  0  0  0  0  0  0  0  0  0
    2.2532   66.2187   83.7276 C   0  0  0  0  0  0  0  0  0  0  0  0
    3.5210   66.6401   83.7621 N   0  0  0  0  0  0  0  0  0  0  0  0
    4.2836   66.2702   84.7915 C   0  0  0  0  0  0  0  0  0  0  0  0
    5.6093   66.6873   84.8201 C   0  0  0  0  0  0  0  0  0  0  0  0
    6.4741   66.3307   85.8582 C   0  0  0  0  0  0  0  0  0  0  0  0
    6.0111   65.5331   86.8955 C   0  0  0  0  0  0  0  0  0  0  0  0
    4.6847   65.1069   86.8886 C   0  0  0  0  0  0  0  0  0  0  0  0
    3.8052   65.4807   85.8393 C   0  0  0  0  0  0  0  0  0  0  0  0
    1.8714   64.3368   86.7699 N   0  0  0  0  0  0  0  0  0  0  0  0
    2.3336   64.5758   87.6435 H   0  0  0  0  0  0  0  0  0  0  0  0
    0.4115   64.4534   86.8836 C   0  0  0  0  0  0  0  0  0  0  0  0
   -0.2610   63.2343   86.2115 C   0  0  0  0  0  0  0  0  0  0  0  0
   -2.5631   62.4542   86.4084 C   0  0  0  0  0  0  0  0  0  0  0  0
   -1.2523   62.5361   87.0548 N   0  0  0  0  0  0  0  0  0  0  0  0
   -1.3783   63.2178   88.3460 C   0  0  0  0  0  0  0  0  0  0  0  0
    1.0559   65.9471   81.4783 C   0  0  0  0  0  0  0  0  0  0  0  0
    1.5492   66.4873   80.2775 C   0  0  0  0  0  0  0  0  0  0  0  0
    1.3024   65.8783   79.0418 C   0  0  0  0  0  0  0  0  0  0  0  0
    0.5617   64.7027   78.9831 C   0  0  0  0  0  0  0  0  0  0  0  0
    0.0676   64.1561   80.1669 C   0  0  0  0  0  0  0  0  0  0  0  0
    0.3122   64.7671   81.4029 C   0  0  0  0  0  0  0  0  0  0  0  0
   -0.8489   62.6393   80.1191 S   0  0  0  0  0  0  0  0  0  0  0  0
    0.0510   61.5816   80.5244 O   0  0  0  0  0  0  0  0  0  0  0  0
   -2.1137   62.8510   80.7945 O   0  0  0  0  0  0  0  0  0  0  0  0
   -1.2039   62.4346   78.4663 N   0  0  0  0  0  0  0  0  0  0  0  0
   -2.6327   62.1253   78.1339 C   0  0  0  0  0  0  0  0  0  0  0  0
   -2.8092   60.6558   77.7130 C   0  0  0  0  0  0  0  0  0  0  0  0
   -2.0506   60.3086   76.4914 N   0  0  0  0  0  0  0  0  0  0  0  0
   -1.8271   58.8662   76.4240 C   0  0  0  0  0  0  0  0  0  0  0  0
   -0.7849   61.0668   76.4072 C   0  0  0  0  0  0  0  0  0  0  0  0
   -0.2301   61.5427   77.7619 C   0  0  0  0  0  0  0  0  0  0  0  0
 17 18  1  0  0  0
 18 19  1  0  0  0
 18 16  1  0  0  0
 16 15  1  0  0  0
 15 13  1  0  0  0
 13  3  1  0  0  0
  3  4  1  0  0  0
  4  5  2  0  0  0
  5  1  1  0  0  0
  1 20  1  0  0  0
 20 21  1  0  0  0
 21 22  2  0  0  0
 22 23  1  0  0  0
 23 24  2  0  0  0
 24 26  1  0  0  0
 26 27  2  0  0  0
 26 28  2  0  0  0
 26 29  1  0  0  0
 29 30  1  0  0  0
 30 31  1  0  0  0
 31 32  1  0  0  0
 32 33  1  0  0  0
 32 34  1  0  0  0
 34 35  1  0  0  0
 24 25  1  0  0  0
  5  6  1  0  0  0
  6  7  2  0  0  0
  7  8  1  0  0  0
  8  9  2  0  0  0
  9 10  1  0  0  0
 10 11  2  0  0  0
 11 12  1  0  0  0
 12  3  2  0  0  0
 25 20  2  0  0  0
 12  7  1  0  0  0
 35 29  1  0  0  0
 13 14  1  0  0  0
  1  2  1  0  0  0
M  END
> <minimizedAffinity>
-9.08094

$$$$
