


 34 37  0  0  0  0  0  0  0  0999 V2000
    2.3701   68.3455   80.5955 N   0  0  0  0  0  0  0  0  0  0  0  0
    3.3402   68.1732   80.3761 H   0  0  0  0  0  0  0  0  0  0  0  0
    3.2512   71.7609   80.9153 C   0  0  0  0  0  0  0  0  0  0  0  0
    3.3299   70.4295   80.7475 N   0  0  0  0  0  0  0  0  0  0  0  0
    2.1978   69.7146   80.7870 C   0  0  0  0  0  0  0  0  0  0  0  0
    0.9899   70.2544   80.9743 N   0  0  0  0  0  0  0  0  0  0  0  0
    0.9089   71.5733   81.1631 C   0  0  0  0  0  0  0  0  0  0  0  0
   -0.3418   72.1406   81.3802 C   0  0  0  0  0  0  0  0  0  0  0  0
   -0.5059   73.5115   81.5978 C   0  0  0  0  0  0  0  0  0  0  0  0
    0.6040   74.3444   81.6048 C   0  0  0  0  0  0  0  0  0  0  0  0
    1.8667   73.7986   81.3863 C   0  0  0  0  0  0  0  0  0  0  0  0
    2.0287   72.4077   81.1543 C   0  0  0  0  0  0  0  0  0  0  0  0
    4.4393   72.5293   80.8687 N   0  0  0  0  0  0  0  0  0  0  0  0
    4.1747   73.5105   80.8909 H   0  0  0  0  0  0  0  0  0  0  0  0
    5.3278   72.2300   79.7468 C   0  0  0  0  0  0  0  0  0  0  0  0
    7.0726   73.2006   78.1670 C   0  0  0  0  0  0  0  0  0  0  0  0
    5.9728   73.5108   79.1839 C   0  0  0  0  0  0  0  0  0  0  0  0
    6.5016   74.4312   80.2853 C   0  0  0  0  0  0  0  0  0  0  0  0
    1.5501   67.2265   80.7728 C   0  0  0  0  0  0  0  0  0  0  0  0
    0.5812   66.8144   79.8492 C   0  0  0  0  0  0  0  0  0  0  0  0
   -0.1921   65.6677   80.0661 C   0  0  0  0  0  0  0  0  0  0  0  0
    0.0136   64.9085   81.2161 C   0  0  0  0  0  0  0  0  0  0  0  0
    0.9716   65.2910   82.1538 C   0  0  0  0  0  0  0  0  0  0  0  0
    1.7344   66.4398   81.9246 C   0  0  0  0  0  0  0  0  0  0  0  0
   -0.9446   63.4441   81.5099 S   0  0  0  0  0  0  0  0  0  0  0  0
   -2.2077   63.8272   82.1052 O   0  0  0  0  0  0  0  0  0  0  0  0
   -0.0706   62.4822   82.1469 O   0  0  0  0  0  0  0  0  0  0  0  0
   -1.2729   62.8977   79.9286 N   0  0  0  0  0  0  0  0  0  0  0  0
   -2.5823   62.1902   79.7412 C   0  0  0  0  0  0  0  0  0  0  0  0
   -2.3985   60.6762   79.5295 C   0  0  0  0  0  0  0  0  0  0  0  0
   -1.5464   60.3141   78.3785 N   0  0  0  0  0  0  0  0  0  0  0  0
   -2.3337   59.9775   77.1958 C   0  0  0  0  0  0  0  0  0  0  0  0
   -0.5691   61.3790   78.0698 C   0  0  0  0  0  0  0  0  0  0  0  0
   -0.1191   62.1604   79.3165 C   0  0  0  0  0  0  0  0  0  0  0  0
 16 17  1  0  0  0
 17 18  1  0  0  0
 17 15  1  0  0  0
 15 13  1  0  0  0
 13  3  1  0  0  0
  3  4  1  0  0  0
  4  5  2  0  0  0
  5  1  1  0  0  0
  1 19  1  0  0  0
 19 20  1  0  0  0
 20 21  2  0  0  0
 21 22  1  0  0  0
 22 25  1  0  0  0
 25 26  2  0  0  0
 25 27  2  0  0  0
 25 28  1  0  0  0
 28 29  1  0  0  0
 29 30  1  0  0  0
 30 31  1  0  0  0
 31 32  1  0  0  0
 31 33  1  0  0  0
 33 34  1  0  0  0
 22 23  2  0  0  0
 23 24  1  0  0  0
  5  6  1  0  0  0
  6  7  2  0  0  0
  7  8  1  0  0  0
  8  9  2  0  0  0
  9 10  1  0  0  0
 10 11  2  0  0  0
 11 12  1  0  0  0
 12  3  2  0  0  0
 24 19  2  0  0  0
 12  7  1  0  0  0
 34 28  1  0  0  0
 13 14  1  0  0  0
  1  2  1  0  0  0
M  END
> <minimizedAffinity>
-1.56426

$$$$



 34 37  0  0  0  0  0  0  0  0999 V2000
    1.1689   66.3802   79.8916 N   0  0  0  0  0  0  0  0  0  0  0  0
    1.7784   66.1721   79.1143 H   0  0  0  0  0  0  0  0  0  0  0  0
   -0.8129   63.4851   79.4076 C   0  0  0  0  0  0  0  0  0  0  0  0
   -0.1178   64.6127   79.1791 N   0  0  0  0  0  0  0  0  0  0  0  0
    0.4626   65.2250   80.2195 C   0  0  0  0  0  0  0  0  0  0  0  0
    0.3971   64.7703   81.4742 N   0  0  0  0  0  0  0  0  0  0  0  0
   -0.3101   63.6629   81.7096 C   0  0  0  0  0  0  0  0  0  0  0  0
   -0.4015   63.1946   83.0155 C   0  0  0  0  0  0  0  0  0  0  0  0
   -1.1333   62.0496   83.3425 C   0  0  0  0  0  0  0  0  0  0  0  0
   -1.7984   61.3504   82.3453 C   0  0  0  0  0  0  0  0  0  0  0  0
   -1.7184   61.7993   81.0292 C   0  0  0  0  0  0  0  0  0  0  0  0
   -0.9649   62.9560   80.6988 C   0  0  0  0  0  0  0  0  0  0  0  0
   -1.4254   62.8238   78.3160 N   0  0  0  0  0  0  0  0  0  0  0  0
   -2.2620   62.3624   78.6630 H   0  0  0  0  0  0  0  0  0  0  0  0
   -0.5584   61.9015   77.5842 C   0  0  0  0  0  0  0  0  0  0  0  0
   -2.8023   61.5806   76.4248 C   0  0  0  0  0  0  0  0  0  0  0  0
   -1.3407   61.1357   76.5002 C   0  0  0  0  0  0  0  0  0  0  0  0
   -1.2476   59.6189   76.6744 C   0  0  0  0  0  0  0  0  0  0  0  0
    1.1020   67.7138   80.3074 C   0  0  0  0  0  0  0  0  0  0  0  0
   -0.0160   68.5358   80.1168 C   0  0  0  0  0  0  0  0  0  0  0  0
   -0.0376   69.8565   80.5805 C   0  0  0  0  0  0  0  0  0  0  0  0
    1.0680   70.3637   81.2600 C   0  0  0  0  0  0  0  0  0  0  0  0
    2.1953   69.5704   81.4674 C   0  0  0  0  0  0  0  0  0  0  0  0
    2.2031   68.2542   80.9965 C   0  0  0  0  0  0  0  0  0  0  0  0
    1.0623   72.0306   81.8686 S   0  0  0  0  0  0  0  0  0  0  0  0
    1.8765   72.0913   83.0644 O   0  0  0  0  0  0  0  0  0  0  0  0
   -0.3132   72.4810   81.8679 O   0  0  0  0  0  0  0  0  0  0  0  0
    1.8970   72.8711   80.6422 N   0  0  0  0  0  0  0  0  0  0  0  0
    3.3922   72.8861   80.7627 C   0  0  0  0  0  0  0  0  0  0  0  0
    3.9270   74.2694   81.1765 C   0  0  0  0  0  0  0  0  0  0  0  0
    3.5589   75.3705   80.2632 N   0  0  0  0  0  0  0  0  0  0  0  0
    4.6287   75.6837   79.3203 C   0  0  0  0  0  0  0  0  0  0  0  0
    2.2984   75.0838   79.5468 C   0  0  0  0  0  0  0  0  0  0  0  0
    1.3204   74.2290   80.3715 C   0  0  0  0  0  0  0  0  0  0  0  0
 16 17  1  0  0  0
 17 18  1  0  0  0
 17 15  1  0  0  0
 15 13  1  0  0  0
 13  3  1  0  0  0
  3  4  1  0  0  0
  4  5  2  0  0  0
  5  1  1  0  0  0
  1 19  1  0  0  0
 19 20  1  0  0  0
 20 21  2  0  0  0
 21 22  1  0  0  0
 22 25  1  0  0  0
 25 26  2  0  0  0
 25 27  2  0  0  0
 25 28  1  0  0  0
 28 29  1  0  0  0
 29 30  1  0  0  0
 30 31  1  0  0  0
 31 32  1  0  0  0
 31 33  1  0  0  0
 33 34  1  0  0  0
 22 23  2  0  0  0
 23 24  1  0  0  0
  5  6  1  0  0  0
  6  7  2  0  0  0
  7  8  1  0  0  0
  8  9  2  0  0  0
  9 10  1  0  0  0
 10 11  2  0  0  0
 11 12  1  0  0  0
 12  3  2  0  0  0
 24 19  2  0  0  0
 12  7  1  0  0  0
 34 28  1  0  0  0
 13 14  1  0  0  0
  1  2  1  0  0  0
M  END
> <minimizedAffinity>
-1.52228

$$$$



 34 37  0  0  0  0  0  0  0  0999 V2000
   -0.1553   65.2989   78.7039 N   0  0  0  0  0  0  0  0  0  0  0  0
   -0.2421   65.4248   77.7062 H   0  0  0  0  0  0  0  0  0  0  0  0
   -1.3216   62.6763   80.7789 C   0  0  0  0  0  0  0  0  0  0  0  0
   -0.7693   63.8288   80.3619 N   0  0  0  0  0  0  0  0  0  0  0  0
   -0.7365   64.0801   79.0467 C   0  0  0  0  0  0  0  0  0  0  0  0
   -1.2328   63.2508   78.1240 N   0  0  0  0  0  0  0  0  0  0  0  0
   -1.7626   62.0953   78.5314 C   0  0  0  0  0  0  0  0  0  0  0  0
   -2.2620   61.2168   77.5764 C   0  0  0  0  0  0  0  0  0  0  0  0
   -2.8204   59.9836   77.9242 C   0  0  0  0  0  0  0  0  0  0  0  0
   -2.8814   59.6082   79.2587 C   0  0  0  0  0  0  0  0  0  0  0  0
   -2.3901   60.4737   80.2330 C   0  0  0  0  0  0  0  0  0  0  0  0
   -1.8340   61.7303   79.8774 C   0  0  0  0  0  0  0  0  0  0  0  0
   -1.3693   62.4014   82.1668 N   0  0  0  0  0  0  0  0  0  0  0  0
   -2.3406   62.4591   82.4608 H   0  0  0  0  0  0  0  0  0  0  0  0
   -0.4991   63.2354   82.9944 C   0  0  0  0  0  0  0  0  0  0  0  0
   -1.9304   62.5392   84.9815 C   0  0  0  0  0  0  0  0  0  0  0  0
   -0.5102   62.7734   84.4640 C   0  0  0  0  0  0  0  0  0  0  0  0
    0.2469   63.7329   85.3837 C   0  0  0  0  0  0  0  0  0  0  0  0
    0.3633   66.3710   79.4371 C   0  0  0  0  0  0  0  0  0  0  0  0
   -0.4160   67.4157   79.9499 C   0  0  0  0  0  0  0  0  0  0  0  0
    0.1541   68.4494   80.7025 C   0  0  0  0  0  0  0  0  0  0  0  0
    1.5229   68.4348   80.9626 C   0  0  0  0  0  0  0  0  0  0  0  0
    2.3255   67.4080   80.4679 C   0  0  0  0  0  0  0  0  0  0  0  0
    1.7423   66.3840   79.7159 C   0  0  0  0  0  0  0  0  0  0  0  0
    2.2692   69.7263   81.9238 S   0  0  0  0  0  0  0  0  0  0  0  0
    3.7035   69.6795   81.7305 O   0  0  0  0  0  0  0  0  0  0  0  0
    1.6832   69.6682   83.2458 O   0  0  0  0  0  0  0  0  0  0  0  0
    1.6979   71.1347   81.1511 N   0  0  0  0  0  0  0  0  0  0  0  0
    2.7480   72.1202   80.7307 C   0  0  0  0  0  0  0  0  0  0  0  0
    2.7435   73.3835   81.6110 C   0  0  0  0  0  0  0  0  0  0  0  0
    1.4582   74.1110   81.6378 N   0  0  0  0  0  0  0  0  0  0  0  0
    1.4470   75.2416   80.7141 C   0  0  0  0  0  0  0  0  0  0  0  0
    0.3177   73.2089   81.3734 C   0  0  0  0  0  0  0  0  0  0  0  0
    0.5555   71.7762   81.8810 C   0  0  0  0  0  0  0  0  0  0  0  0
 16 17  1  0  0  0
 17 18  1  0  0  0
 17 15  1  0  0  0
 15 13  1  0  0  0
 13  3  1  0  0  0
  3  4  1  0  0  0
  4  5  2  0  0  0
  5  1  1  0  0  0
  1 19  1  0  0  0
 19 20  1  0  0  0
 20 21  2  0  0  0
 21 22  1  0  0  0
 22 25  1  0  0  0
 25 26  2  0  0  0
 25 27  2  0  0  0
 25 28  1  0  0  0
 28 29  1  0  0  0
 29 30  1  0  0  0
 30 31  1  0  0  0
 31 32  1  0  0  0
 31 33  1  0  0  0
 33 34  1  0  0  0
 22 23  2  0  0  0
 23 24  1  0  0  0
  5  6  1  0  0  0
  6  7  2  0  0  0
  7  8  1  0  0  0
  8  9  2  0  0  0
  9 10  1  0  0  0
 10 11  2  0  0  0
 11 12  1  0  0  0
 12  3  2  0  0  0
 24 19  2  0  0  0
 12  7  1  0  0  0
 34 28  1  0  0  0
 13 14  1  0  0  0
  1  2  1  0  0  0
M  END
> <minimizedAffinity>
-1.47289

$$$$



 34 37  0  0  0  0  0  0  0  0999 V2000
    1.2310   65.7655   80.3330 N   0  0  0  0  0  0  0  0  0  0  0  0
    1.6625   65.4528   79.4757 H   0  0  0  0  0  0  0  0  0  0  0  0
   -1.1265   63.1263   80.1898 C   0  0  0  0  0  0  0  0  0  0  0  0
   -0.2927   64.1180   79.8316 N   0  0  0  0  0  0  0  0  0  0  0  0
    0.3844   64.7593   80.7931 C   0  0  0  0  0  0  0  0  0  0  0  0
    0.2843   64.4602   82.0915 N   0  0  0  0  0  0  0  0  0  0  0  0
   -0.5586   63.4908   82.4543 C   0  0  0  0  0  0  0  0  0  0  0  0
   -0.6850   63.1876   83.8052 C   0  0  0  0  0  0  0  0  0  0  0  0
   -1.5555   62.1947   84.2634 C   0  0  0  0  0  0  0  0  0  0  0  0
   -2.3272   61.4841   83.3551 C   0  0  0  0  0  0  0  0  0  0  0  0
   -2.2148   61.7686   81.9963 C   0  0  0  0  0  0  0  0  0  0  0  0
   -1.3214   62.7697   81.5333 C   0  0  0  0  0  0  0  0  0  0  0  0
   -1.8430   62.4355   79.1830 N   0  0  0  0  0  0  0  0  0  0  0  0
   -2.7080   62.0967   79.5955 H   0  0  0  0  0  0  0  0  0  0  0  0
   -1.1013   61.3656   78.5174 C   0  0  0  0  0  0  0  0  0  0  0  0
   -1.1631   59.6148   76.6700 C   0  0  0  0  0  0  0  0  0  0  0  0
   -1.9396   60.7096   77.4038 C   0  0  0  0  0  0  0  0  0  0  0  0
   -2.4958   61.7326   76.4119 C   0  0  0  0  0  0  0  0  0  0  0  0
    1.4765   67.0859   80.7232 C   0  0  0  0  0  0  0  0  0  0  0  0
    1.6165   67.4929   82.0561 C   0  0  0  0  0  0  0  0  0  0  0  0
    1.8907   68.8253   82.3868 C   0  0  0  0  0  0  0  0  0  0  0  0
    2.0437   69.7671   81.3714 C   0  0  0  0  0  0  0  0  0  0  0  0
    1.9121   69.3933   80.0349 C   0  0  0  0  0  0  0  0  0  0  0  0
    1.6358   68.0596   79.7203 C   0  0  0  0  0  0  0  0  0  0  0  0
    2.4032   71.4603   81.7624 S   0  0  0  0  0  0  0  0  0  0  0  0
    3.7603   71.7537   81.3516 O   0  0  0  0  0  0  0  0  0  0  0  0
    1.9594   71.6886   83.1209 O   0  0  0  0  0  0  0  0  0  0  0  0
    1.3600   72.3079   80.7134 N   0  0  0  0  0  0  0  0  0  0  0  0
    1.7690   73.7123   80.3806 C   0  0  0  0  0  0  0  0  0  0  0  0
    0.8703   74.7566   81.0679 C   0  0  0  0  0  0  0  0  0  0  0  0
   -0.5666   74.6402   80.7458 N   0  0  0  0  0  0  0  0  0  0  0  0
   -0.9720   75.5711   79.6965 C   0  0  0  0  0  0  0  0  0  0  0  0
   -0.9319   73.2544   80.3844 C   0  0  0  0  0  0  0  0  0  0  0  0
   -0.0813   72.2000   81.1138 C   0  0  0  0  0  0  0  0  0  0  0  0
 16 17  1  0  0  0
 17 18  1  0  0  0
 17 15  1  0  0  0
 15 13  1  0  0  0
 13  3  1  0  0  0
  3  4  1  0  0  0
  4  5  2  0  0  0
  5  1  1  0  0  0
  1 19  1  0  0  0
 19 20  1  0  0  0
 20 21  2  0  0  0
 21 22  1  0  0  0
 22 25  1  0  0  0
 25 26  2  0  0  0
 25 27  2  0  0  0
 25 28  1  0  0  0
 28 29  1  0  0  0
 29 30  1  0  0  0
 30 31  1  0  0  0
 31 32  1  0  0  0
 31 33  1  0  0  0
 33 34  1  0  0  0
 22 23  2  0  0  0
 23 24  1  0  0  0
  5  6  1  0  0  0
  6  7  2  0  0  0
  7  8  1  0  0  0
  8  9  2  0  0  0
  9 10  1  0  0  0
 10 11  2  0  0  0
 11 12  1  0  0  0
 12  3  2  0  0  0
 24 19  2  0  0  0
 12  7  1  0  0  0
 34 28  1  0  0  0
 13 14  1  0  0  0
  1  2  1  0  0  0
M  END
> <minimizedAffinity>
-1.47026

$$$$



 34 37  0  0  0  0  0  0  0  0999 V2000
    1.0531   65.9124   79.6698 N   0  0  0  0  0  0  0  0  0  0  0  0
    1.7310   65.7113   78.9494 H   0  0  0  0  0  0  0  0  0  0  0  0
   -0.9127   63.5290   81.4014 C   0  0  0  0  0  0  0  0  0  0  0  0
   -0.1432   64.5966   81.1274 N   0  0  0  0  0  0  0  0  0  0  0  0
    0.2683   64.7782   79.8658 C   0  0  0  0  0  0  0  0  0  0  0  0
   -0.0528   63.9599   78.8594 N   0  0  0  0  0  0  0  0  0  0  0  0
   -0.7986   62.8865   79.1304 C   0  0  0  0  0  0  0  0  0  0  0  0
   -1.1196   62.0180   78.0931 C   0  0  0  0  0  0  0  0  0  0  0  0
   -1.8855   60.8674   78.3004 C   0  0  0  0  0  0  0  0  0  0  0  0
   -2.3432   60.5664   79.5754 C   0  0  0  0  0  0  0  0  0  0  0  0
   -2.0365   61.4237   80.6293 C   0  0  0  0  0  0  0  0  0  0  0  0
   -1.2681   62.5975   80.4134 C   0  0  0  0  0  0  0  0  0  0  0  0
   -1.3606   63.3290   82.7294 N   0  0  0  0  0  0  0  0  0  0  0  0
   -1.8026   64.1900   83.0402 H   0  0  0  0  0  0  0  0  0  0  0  0
   -0.3358   62.8734   83.6674 C   0  0  0  0  0  0  0  0  0  0  0  0
    0.5470   64.1023   85.7149 C   0  0  0  0  0  0  0  0  0  0  0  0
   -0.6352   63.3499   85.1015 C   0  0  0  0  0  0  0  0  0  0  0  0
   -1.0795   62.2071   86.0160 C   0  0  0  0  0  0  0  0  0  0  0  0
    0.9994   67.2275   80.1427 C   0  0  0  0  0  0  0  0  0  0  0  0
   -0.0700   68.0999   79.9039 C   0  0  0  0  0  0  0  0  0  0  0  0
   -0.0828   69.3983   80.4274 C   0  0  0  0  0  0  0  0  0  0  0  0
    0.9813   69.8310   81.2160 C   0  0  0  0  0  0  0  0  0  0  0  0
    2.0597   68.9861   81.4735 C   0  0  0  0  0  0  0  0  0  0  0  0
    2.0595   67.6931   80.9420 C   0  0  0  0  0  0  0  0  0  0  0  0
    0.9848   71.4677   81.9016 S   0  0  0  0  0  0  0  0  0  0  0  0
    1.7734   71.4609   83.1160 O   0  0  0  0  0  0  0  0  0  0  0  0
   -0.3841   71.9375   81.8929 O   0  0  0  0  0  0  0  0  0  0  0  0
    1.8573   72.3522   80.7339 N   0  0  0  0  0  0  0  0  0  0  0  0
    3.3517   72.2719   80.8367 C   0  0  0  0  0  0  0  0  0  0  0  0
    3.9694   73.5856   81.3499 C   0  0  0  0  0  0  0  0  0  0  0  0
    3.6588   74.7740   80.5294 N   0  0  0  0  0  0  0  0  0  0  0  0
    4.7376   75.0981   79.6004 C   0  0  0  0  0  0  0  0  0  0  0  0
    2.3781   74.6170   79.8085 C   0  0  0  0  0  0  0  0  0  0  0  0
    1.3586   73.7579   80.5765 C   0  0  0  0  0  0  0  0  0  0  0  0
 16 17  1  0  0  0
 17 18  1  0  0  0
 17 15  1  0  0  0
 15 13  1  0  0  0
 13  3  1  0  0  0
  3  4  1  0  0  0
  4  5  2  0  0  0
  5  1  1  0  0  0
  1 19  1  0  0  0
 19 20  1  0  0  0
 20 21  2  0  0  0
 21 22  1  0  0  0
 22 25  1  0  0  0
 25 26  2  0  0  0
 25 27  2  0  0  0
 25 28  1  0  0  0
 28 29  1  0  0  0
 29 30  1  0  0  0
 30 31  1  0  0  0
 31 32  1  0  0  0
 31 33  1  0  0  0
 33 34  1  0  0  0
 22 23  2  0  0  0
 23 24  1  0  0  0
  5  6  1  0  0  0
  6  7  2  0  0  0
  7  8  1  0  0  0
  8  9  2  0  0  0
  9 10  1  0  0  0
 10 11  2  0  0  0
 11 12  1  0  0  0
 12  3  2  0  0  0
 24 19  2  0  0  0
 12  7  1  0  0  0
 34 28  1  0  0  0
 13 14  1  0  0  0
  1  2  1  0  0  0
M  END
> <minimizedAffinity>
-1.43666

$$$$



 34 37  0  0  0  0  0  0  0  0999 V2000
   -0.5239   65.5275   78.5357 N   0  0  0  0  0  0  0  0  0  0  0  0
   -0.9784   65.9289   77.7287 H   0  0  0  0  0  0  0  0  0  0  0  0
   -1.1582   62.3295   79.9192 C   0  0  0  0  0  0  0  0  0  0  0  0
   -0.8807   63.6393   79.7984 N   0  0  0  0  0  0  0  0  0  0  0  0
   -0.8067   64.1638   78.5681 C   0  0  0  0  0  0  0  0  0  0  0  0
   -1.0041   63.4573   77.4512 N   0  0  0  0  0  0  0  0  0  0  0  0
   -1.2584   62.1519   77.5651 C   0  0  0  0  0  0  0  0  0  0  0  0
   -1.4438   61.4049   76.4072 C   0  0  0  0  0  0  0  0  0  0  0  0
   -1.7015   60.0316   76.4448 C   0  0  0  0  0  0  0  0  0  0  0  0
   -1.7730   59.3786   77.6672 C   0  0  0  0  0  0  0  0  0  0  0  0
   -1.5937   60.1074   78.8404 C   0  0  0  0  0  0  0  0  0  0  0  0
   -1.3435   61.5040   78.7992 C   0  0  0  0  0  0  0  0  0  0  0  0
   -1.2463   61.7637   81.2139 N   0  0  0  0  0  0  0  0  0  0  0  0
   -2.1382   62.0427   81.6138 H   0  0  0  0  0  0  0  0  0  0  0  0
   -0.1290   62.0751   82.1040 C   0  0  0  0  0  0  0  0  0  0  0  0
   -2.0766   61.8458   83.7277 C   0  0  0  0  0  0  0  0  0  0  0  0
   -0.5771   62.1084   83.5776 C   0  0  0  0  0  0  0  0  0  0  0  0
   -0.1855   63.4107   84.2778 C   0  0  0  0  0  0  0  0  0  0  0  0
    0.1057   66.4128   79.4165 C   0  0  0  0  0  0  0  0  0  0  0  0
   -0.5808   67.3031   80.2519 C   0  0  0  0  0  0  0  0  0  0  0  0
    0.1017   68.1473   81.1358 C   0  0  0  0  0  0  0  0  0  0  0  0
    1.4925   68.0935   81.2006 C   0  0  0  0  0  0  0  0  0  0  0  0
    2.2048   67.2169   80.3835 C   0  0  0  0  0  0  0  0  0  0  0  0
    1.5095   66.3817   79.5041 C   0  0  0  0  0  0  0  0  0  0  0  0
    2.3817   69.1441   82.3205 S   0  0  0  0  0  0  0  0  0  0  0  0
    1.5296   70.2546   82.6912 O   0  0  0  0  0  0  0  0  0  0  0  0
    3.6962   69.3574   81.7537 O   0  0  0  0  0  0  0  0  0  0  0  0
    2.5514   68.1521   83.6968 N   0  0  0  0  0  0  0  0  0  0  0  0
    3.7419   68.4371   84.5640 C   0  0  0  0  0  0  0  0  0  0  0  0
    4.8211   67.3454   84.4446 C   0  0  0  0  0  0  0  0  0  0  0  0
    4.3598   65.9835   84.7827 N   0  0  0  0  0  0  0  0  0  0  0  0
    4.7041   65.6105   86.1518 C   0  0  0  0  0  0  0  0  0  0  0  0
    2.9090   65.8273   84.5479 C   0  0  0  0  0  0  0  0  0  0  0  0
    2.3925   66.6935   83.3859 C   0  0  0  0  0  0  0  0  0  0  0  0
 16 17  1  0  0  0
 17 18  1  0  0  0
 17 15  1  0  0  0
 15 13  1  0  0  0
 13  3  1  0  0  0
  3  4  1  0  0  0
  4  5  2  0  0  0
  5  1  1  0  0  0
  1 19  1  0  0  0
 19 20  1  0  0  0
 20 21  2  0  0  0
 21 22  1  0  0  0
 22 25  1  0  0  0
 25 26  2  0  0  0
 25 27  2  0  0  0
 25 28  1  0  0  0
 28 29  1  0  0  0
 29 30  1  0  0  0
 30 31  1  0  0  0
 31 32  1  0  0  0
 31 33  1  0  0  0
 33 34  1  0  0  0
 22 23  2  0  0  0
 23 24  1  0  0  0
  5  6  1  0  0  0
  6  7  2  0  0  0
  7  8  1  0  0  0
  8  9  2  0  0  0
  9 10  1  0  0  0
 10 11  2  0  0  0
 11 12  1  0  0  0
 12  3  2  0  0  0
 24 19  2  0  0  0
 12  7  1  0  0  0
 34 28  1  0  0  0
 13 14  1  0  0  0
  1  2  1  0  0  0
M  END
> <minimizedAffinity>
-1.41436

$$$$



 34 37  0  0  0  0  0  0  0  0999 V2000
    2.0232   67.0724   82.1382 N   0  0  0  0  0  0  0  0  0  0  0  0
    2.8017   66.6894   82.6542 H   0  0  0  0  0  0  0  0  0  0  0  0
    0.0142   64.1575   82.2411 C   0  0  0  0  0  0  0  0  0  0  0  0
    0.7796   65.1978   82.6139 N   0  0  0  0  0  0  0  0  0  0  0  0
    1.2472   66.0174   81.6633 C   0  0  0  0  0  0  0  0  0  0  0  0
    0.9860   65.8636   80.3619 N   0  0  0  0  0  0  0  0  0  0  0  0
    0.2445   64.8197   79.9846 C   0  0  0  0  0  0  0  0  0  0  0  0
   -0.0143   64.6399   78.6305 C   0  0  0  0  0  0  0  0  0  0  0  0
   -0.7717   63.5647   78.1573 C   0  0  0  0  0  0  0  0  0  0  0  0
   -1.2842   62.6374   79.0534 C   0  0  0  0  0  0  0  0  0  0  0  0
   -1.0403   62.7992   80.4152 C   0  0  0  0  0  0  0  0  0  0  0  0
   -0.2804   63.8985   80.8934 C   0  0  0  0  0  0  0  0  0  0  0  0
   -0.4926   63.2875   83.2363 N   0  0  0  0  0  0  0  0  0  0  0  0
   -1.5054   63.2756   83.1509 H   0  0  0  0  0  0  0  0  0  0  0  0
   -0.0646   63.5904   84.6012 C   0  0  0  0  0  0  0  0  0  0  0  0
   -2.1669   62.4117   85.4214 C   0  0  0  0  0  0  0  0  0  0  0  0
   -0.6597   62.5911   85.6113 C   0  0  0  0  0  0  0  0  0  0  0  0
   -0.3399   62.9644   87.0598 C   0  0  0  0  0  0  0  0  0  0  0  0
    2.0139   68.4563   81.9362 C   0  0  0  0  0  0  0  0  0  0  0  0
    1.0623   69.1249   81.1558 C   0  0  0  0  0  0  0  0  0  0  0  0
    1.0850   70.5173   81.0122 C   0  0  0  0  0  0  0  0  0  0  0  0
    2.0637   71.2594   81.6701 C   0  0  0  0  0  0  0  0  0  0  0  0
    3.0239   70.6237   82.4558 C   0  0  0  0  0  0  0  0  0  0  0  0
    2.9899   69.2325   82.5877 C   0  0  0  0  0  0  0  0  0  0  0  0
    2.1082   73.0265   81.5147 S   0  0  0  0  0  0  0  0  0  0  0  0
    1.4637   73.6109   82.6721 O   0  0  0  0  0  0  0  0  0  0  0  0
    1.6810   73.3481   80.1698 O   0  0  0  0  0  0  0  0  0  0  0  0
    3.7752   73.3631   81.6372 N   0  0  0  0  0  0  0  0  0  0  0  0
    4.1516   74.4580   82.5911 C   0  0  0  0  0  0  0  0  0  0  0  0
    4.6087   75.7333   81.8594 C   0  0  0  0  0  0  0  0  0  0  0  0
    5.7566   75.5433   80.9493 N   0  0  0  0  0  0  0  0  0  0  0  0
    7.0204   75.9292   81.5705 C   0  0  0  0  0  0  0  0  0  0  0  0
    5.8252   74.1563   80.4434 C   0  0  0  0  0  0  0  0  0  0  0  0
    4.4407   73.5006   80.3002 C   0  0  0  0  0  0  0  0  0  0  0  0
 16 17  1  0  0  0
 17 18  1  0  0  0
 17 15  1  0  0  0
 15 13  1  0  0  0
 13  3  1  0  0  0
  3  4  1  0  0  0
  4  5  2  0  0  0
  5  1  1  0  0  0
  1 19  1  0  0  0
 19 20  1  0  0  0
 20 21  2  0  0  0
 21 22  1  0  0  0
 22 25  1  0  0  0
 25 26  2  0  0  0
 25 27  2  0  0  0
 25 28  1  0  0  0
 28 29  1  0  0  0
 29 30  1  0  0  0
 30 31  1  0  0  0
 31 32  1  0  0  0
 31 33  1  0  0  0
 33 34  1  0  0  0
 22 23  2  0  0  0
 23 24  1  0  0  0
  5  6  1  0  0  0
  6  7  2  0  0  0
  7  8  1  0  0  0
  8  9  2  0  0  0
  9 10  1  0  0  0
 10 11  2  0  0  0
 11 12  1  0  0  0
 12  3  2  0  0  0
 24 19  2  0  0  0
 12  7  1  0  0  0
 34 28  1  0  0  0
 13 14  1  0  0  0
  1  2  1  0  0  0
M  END
> <minimizedAffinity>
-1.37963

$$$$



 34 37  0  0  0  0  0  0  0  0999 V2000
    2.0624   69.4920   81.5093 N   0  0  0  0  0  0  0  0  0  0  0  0
    1.5304   69.0316   80.7854 H   0  0  0  0  0  0  0  0  0  0  0  0
    2.0785   66.4513   83.3253 C   0  0  0  0  0  0  0  0  0  0  0  0
    1.7263   67.4340   82.4784 N   0  0  0  0  0  0  0  0  0  0  0  0
    2.4953   68.5291   82.4182 C   0  0  0  0  0  0  0  0  0  0  0  0
    3.6021   68.6950   83.1483 N   0  0  0  0  0  0  0  0  0  0  0  0
    3.9441   67.7315   84.0066 C   0  0  0  0  0  0  0  0  0  0  0  0
    5.0823   67.9054   84.7858 C   0  0  0  0  0  0  0  0  0  0  0  0
    5.4975   66.9474   85.7150 C   0  0  0  0  0  0  0  0  0  0  0  0
    4.7593   65.7840   85.8798 C   0  0  0  0  0  0  0  0  0  0  0  0
    3.6170   65.5869   85.1077 C   0  0  0  0  0  0  0  0  0  0  0  0
    3.2044   66.5566   84.1568 C   0  0  0  0  0  0  0  0  0  0  0  0
    1.2785   65.2854   83.3936 N   0  0  0  0  0  0  0  0  0  0  0  0
    1.8931   64.4988   83.5859 H   0  0  0  0  0  0  0  0  0  0  0  0
    0.4337   65.0436   82.2250 C   0  0  0  0  0  0  0  0  0  0  0  0
   -0.6742   63.2611   80.7837 C   0  0  0  0  0  0  0  0  0  0  0  0
    0.1123   63.5455   82.0645 C   0  0  0  0  0  0  0  0  0  0  0  0
   -0.6140   62.9703   83.2817 C   0  0  0  0  0  0  0  0  0  0  0  0
    2.0986   70.8898   81.4801 C   0  0  0  0  0  0  0  0  0  0  0  0
    3.2604   71.6359   81.2450 C   0  0  0  0  0  0  0  0  0  0  0  0
    3.2317   73.0348   81.1982 C   0  0  0  0  0  0  0  0  0  0  0  0
    2.0216   73.7028   81.3733 C   0  0  0  0  0  0  0  0  0  0  0  0
    0.8474   72.9889   81.6072 C   0  0  0  0  0  0  0  0  0  0  0  0
    0.8921   71.5924   81.6536 C   0  0  0  0  0  0  0  0  0  0  0  0
    1.9552   75.4749   81.3071 S   0  0  0  0  0  0  0  0  0  0  0  0
    0.6133   75.8759   80.9394 O   0  0  0  0  0  0  0  0  0  0  0  0
    3.1088   75.9178   80.5536 O   0  0  0  0  0  0  0  0  0  0  0  0
    2.1870   75.9114   82.9388 N   0  0  0  0  0  0  0  0  0  0  0  0
    1.2832   76.9888   83.4610 C   0  0  0  0  0  0  0  0  0  0  0  0
    2.0291   78.3188   83.6743 C   0  0  0  0  0  0  0  0  0  0  0  0
    3.1794   78.2387   84.5975 N   0  0  0  0  0  0  0  0  0  0  0  0
    2.8338   78.6788   85.9461 C   0  0  0  0  0  0  0  0  0  0  0  0
    3.7610   76.8802   84.6243 C   0  0  0  0  0  0  0  0  0  0  0  0
    3.6289   76.1443   83.2796 C   0  0  0  0  0  0  0  0  0  0  0  0
 16 17  1  0  0  0
 17 18  1  0  0  0
 17 15  1  0  0  0
 15 13  1  0  0  0
 13  3  1  0  0  0
  3  4  1  0  0  0
  4  5  2  0  0  0
  5  1  1  0  0  0
  1 19  1  0  0  0
 19 20  1  0  0  0
 20 21  2  0  0  0
 21 22  1  0  0  0
 22 25  1  0  0  0
 25 26  2  0  0  0
 25 27  2  0  0  0
 25 28  1  0  0  0
 28 29  1  0  0  0
 29 30  1  0  0  0
 30 31  1  0  0  0
 31 32  1  0  0  0
 31 33  1  0  0  0
 33 34  1  0  0  0
 22 23  2  0  0  0
 23 24  1  0  0  0
  5  6  1  0  0  0
  6  7  2  0  0  0
  7  8  1  0  0  0
  8  9  2  0  0  0
  9 10  1  0  0  0
 10 11  2  0  0  0
 11 12  1  0  0  0
 12  3  2  0  0  0
 24 19  2  0  0  0
 12  7  1  0  0  0
 34 28  1  0  0  0
 13 14  1  0  0  0
  1  2  1  0  0  0
M  END
> <minimizedAffinity>
-1.36155

$$$$



 34 37  0  0  0  0  0  0  0  0999 V2000
    1.6429   70.3080   82.3369 N   0  0  0  0  0  0  0  0  0  0  0  0
    1.6121   70.2604   83.3447 H   0  0  0  0  0  0  0  0  0  0  0  0
    3.2251   73.3437   81.4288 C   0  0  0  0  0  0  0  0  0  0  0  0
    3.0220   72.0673   81.7985 N   0  0  0  0  0  0  0  0  0  0  0  0
    1.7616   71.6444   81.9621 C   0  0  0  0  0  0  0  0  0  0  0  0
    0.6914   72.4205   81.7677 N   0  0  0  0  0  0  0  0  0  0  0  0
    0.8884   73.6946   81.4216 C   0  0  0  0  0  0  0  0  0  0  0  0
   -0.2191   74.5150   81.2382 C   0  0  0  0  0  0  0  0  0  0  0  0
   -0.0932   75.8621   80.8876 C   0  0  0  0  0  0  0  0  0  0  0  0
    1.1688   76.4136   80.7182 C   0  0  0  0  0  0  0  0  0  0  0  0
    2.2927   75.6098   80.8936 C   0  0  0  0  0  0  0  0  0  0  0  0
    2.1612   74.2392   81.2385 C   0  0  0  0  0  0  0  0  0  0  0  0
    4.5520   73.8018   81.2454 N   0  0  0  0  0  0  0  0  0  0  0  0
    4.5278   74.8176   81.2167 H   0  0  0  0  0  0  0  0  0  0  0  0
    5.2474   73.2405   80.0882 C   0  0  0  0  0  0  0  0  0  0  0  0
    6.8871   73.7362   78.2046 C   0  0  0  0  0  0  0  0  0  0  0  0
    6.2801   74.2316   79.5184 C   0  0  0  0  0  0  0  0  0  0  0  0
    7.3800   74.5723   80.5254 C   0  0  0  0  0  0  0  0  0  0  0  0
    1.4317   69.1154   81.6376 C   0  0  0  0  0  0  0  0  0  0  0  0
    2.2276   67.9723   81.7852 C   0  0  0  0  0  0  0  0  0  0  0  0
    1.9514   66.7952   81.0796 C   0  0  0  0  0  0  0  0  0  0  0  0
    0.8535   66.7500   80.2228 C   0  0  0  0  0  0  0  0  0  0  0  0
    0.0409   67.8702   80.0555 C   0  0  0  0  0  0  0  0  0  0  0  0
    0.3307   69.0393   80.7650 C   0  0  0  0  0  0  0  0  0  0  0  0
    0.4739   65.2670   79.3254 S   0  0  0  0  0  0  0  0  0  0  0  0
    1.6637   64.8307   78.6248 O   0  0  0  0  0  0  0  0  0  0  0  0
   -0.7721   65.4977   78.6262 O   0  0  0  0  0  0  0  0  0  0  0  0
    0.1812   64.1464   80.5766 N   0  0  0  0  0  0  0  0  0  0  0  0
    0.1593   62.7031   80.1683 C   0  0  0  0  0  0  0  0  0  0  0  0
   -1.2638   62.1157   80.1897 C   0  0  0  0  0  0  0  0  0  0  0  0
   -1.9463   62.2024   81.4969 N   0  0  0  0  0  0  0  0  0  0  0  0
   -1.8525   60.9550   82.2500 C   0  0  0  0  0  0  0  0  0  0  0  0
   -1.4415   63.3363   82.2992 C   0  0  0  0  0  0  0  0  0  0  0  0
   -0.9872   64.5266   81.4367 C   0  0  0  0  0  0  0  0  0  0  0  0
 16 17  1  0  0  0
 17 18  1  0  0  0
 17 15  1  0  0  0
 15 13  1  0  0  0
 13  3  1  0  0  0
  3  4  1  0  0  0
  4  5  2  0  0  0
  5  1  1  0  0  0
  1 19  1  0  0  0
 19 20  1  0  0  0
 20 21  2  0  0  0
 21 22  1  0  0  0
 22 25  1  0  0  0
 25 26  2  0  0  0
 25 27  2  0  0  0
 25 28  1  0  0  0
 28 29  1  0  0  0
 29 30  1  0  0  0
 30 31  1  0  0  0
 31 32  1  0  0  0
 31 33  1  0  0  0
 33 34  1  0  0  0
 22 23  2  0  0  0
 23 24  1  0  0  0
  5  6  1  0  0  0
  6  7  2  0  0  0
  7  8  1  0  0  0
  8  9  2  0  0  0
  9 10  1  0  0  0
 10 11  2  0  0  0
 11 12  1  0  0  0
 12  3  2  0  0  0
 24 19  2  0  0  0
 12  7  1  0  0  0
 34 28  1  0  0  0
 13 14  1  0  0  0
  1  2  1  0  0  0
M  END
> <minimizedAffinity>
-1.36082

$$$$
