


 31 33  0  0  0  0  0  0  0  0999 V2000
    0.3391   64.2690   85.7943 C   0  0  0  0  0  0  0  0  0  0  0  0
   -0.7890   63.4441   85.6576 C   0  0  0  0  0  0  0  0  0  0  0  0
   -1.2983   63.1329   84.3953 C   0  0  0  0  0  0  0  0  0  0  0  0
   -0.6794   63.6515   83.2610 C   0  0  0  0  0  0  0  0  0  0  0  0
    0.4345   64.4858   83.3751 C   0  0  0  0  0  0  0  0  0  0  0  0
    0.9486   64.8148   84.6416 C   0  0  0  0  0  0  0  0  0  0  0  0
    2.1327   65.7384   84.6694 C   0  0  0  0  0  0  0  0  0  0  0  0
    3.3094   65.2920   84.9858 N   0  0  0  0  0  0  0  0  0  0  0  0
    4.3734   66.1685   84.9950 C   0  0  0  0  0  0  0  0  0  0  0  0
    4.2478   67.4708   84.6964 C   0  0  0  0  0  0  0  0  0  0  0  0
    2.9218   67.9798   84.3278 C   0  0  0  0  0  0  0  0  0  0  0  0
    2.7469   69.1545   84.0269 O   0  0  0  0  0  0  0  0  0  0  0  0
    1.9261   67.0541   84.3439 N   0  0  0  0  0  0  0  0  0  0  0  0
    1.0021   67.3781   84.0920 H   0  0  0  0  0  0  0  0  0  0  0  0
    5.6999   65.5251   85.3912 C   0  0  0  0  0  0  0  0  0  0  0  0
    6.0235   65.5608   86.8893 C   0  0  0  0  0  0  0  0  0  0  0  0
    6.8471   66.1537   84.5948 C   0  0  0  0  0  0  0  0  0  0  0  0
   -1.3169   63.2755   81.6460 S   0  0  0  0  0  0  0  0  0  0  0  0
   -2.7566   63.2223   81.7720 O   0  0  0  0  0  0  0  0  0  0  0  0
   -0.6808   64.1663   80.6990 O   0  0  0  0  0  0  0  0  0  0  0  0
   -0.7333   61.7047   81.3672 N   0  0  0  0  0  0  0  0  0  0  0  0
    0.1967   61.5126   80.2118 C   0  0  0  0  0  0  0  0  0  0  0  0
   -0.5500   61.3277   78.8734 C   0  0  0  0  0  0  0  0  0  0  0  0
   -1.5696   60.2603   78.9283 N   0  0  0  0  0  0  0  0  0  0  0  0
   -2.2929   60.1758   77.6601 C   0  0  0  0  0  0  0  0  0  0  0  0
   -2.5063   60.5181   80.0417 C   0  0  0  0  0  0  0  0  0  0  0  0
   -1.7705   60.6287   81.3889 C   0  0  0  0  0  0  0  0  0  0  0  0
    0.8600   64.6034   87.0197 O   0  0  0  0  0  0  0  0  0  0  0  0
    1.3769   63.5367   87.8238 C   0  0  0  0  0  0  0  0  0  0  0  0
    0.1995   61.8537   89.2896 C   0  0  0  0  0  0  0  0  0  0  0  0
    0.4088   63.3262   88.9840 C   0  0  0  0  0  0  0  0  0  0  0  0
 30 31  1  0  0  0
 31 29  1  0  0  0
 29 28  1  0  0  0
 28  1  1  0  0  0
  1  2  1  0  0  0
  2  3  2  0  0  0
  3  4  1  0  0  0
  4 18  1  0  0  0
 18 19  2  0  0  0
 18 20  2  0  0  0
 18 21  1  0  0  0
 21 22  1  0  0  0
 22 23  1  0  0  0
 23 24  1  0  0  0
 24 25  1  0  0  0
 24 26  1  0  0  0
 26 27  1  0  0  0
  4  5  2  0  0  0
  5  6  1  0  0  0
  6  7  1  0  0  0
  7  8  2  0  0  0
  8  9  1  0  0  0
  9 15  1  0  0  0
 15 16  1  0  0  0
 15 17  1  0  0  0
  9 10  2  0  0  0
 10 11  1  0  0  0
 11 12  2  0  0  0
 11 13  1  0  0  0
  6  1  2  0  0  0
 13  7  1  0  0  0
 27 21  1  0  0  0
 13 14  1  0  0  0
M  END
> <minimizedAffinity>
-9.80775

$$$$



 31 33  0  0  0  0  0  0  0  0999 V2000
    0.3385   64.3081   85.6368 C   0  0  0  0  0  0  0  0  0  0  0  0
   -0.7034   63.3709   85.5484 C   0  0  0  0  0  0  0  0  0  0  0  0
   -1.2527   63.0273   84.3115 C   0  0  0  0  0  0  0  0  0  0  0  0
   -0.7610   63.6259   83.1546 C   0  0  0  0  0  0  0  0  0  0  0  0
    0.2645   64.5713   83.2215 C   0  0  0  0  0  0  0  0  0  0  0  0
    0.8170   64.9330   84.4627 C   0  0  0  0  0  0  0  0  0  0  0  0
    1.8976   65.9759   84.4414 C   0  0  0  0  0  0  0  0  0  0  0  0
    1.7210   67.0950   83.8088 N   0  0  0  0  0  0  0  0  0  0  0  0
    2.7334   68.0306   83.8160 C   0  0  0  0  0  0  0  0  0  0  0  0
    3.9025   67.8349   84.4451 C   0  0  0  0  0  0  0  0  0  0  0  0
    4.1047   66.5757   85.1710 C   0  0  0  0  0  0  0  0  0  0  0  0
    5.1427   66.3463   85.7800 O   0  0  0  0  0  0  0  0  0  0  0  0
    3.0611   65.7061   85.1146 N   0  0  0  0  0  0  0  0  0  0  0  0
    3.1735   64.8309   85.6081 H   0  0  0  0  0  0  0  0  0  0  0  0
    2.4080   69.2986   83.0307 C   0  0  0  0  0  0  0  0  0  0  0  0
    1.2032   69.1942   82.0882 C   0  0  0  0  0  0  0  0  0  0  0  0
    3.6410   69.7647   82.2510 C   0  0  0  0  0  0  0  0  0  0  0  0
   -1.4521   63.2099   81.5718 S   0  0  0  0  0  0  0  0  0  0  0  0
   -2.8876   63.1755   81.7436 O   0  0  0  0  0  0  0  0  0  0  0  0
   -0.8372   64.0660   80.5798 O   0  0  0  0  0  0  0  0  0  0  0  0
   -0.8926   61.6255   81.3214 N   0  0  0  0  0  0  0  0  0  0  0  0
    0.0793   61.4087   80.2054 C   0  0  0  0  0  0  0  0  0  0  0  0
   -0.6161   61.2355   78.8381 C   0  0  0  0  0  0  0  0  0  0  0  0
   -1.6606   60.1910   78.8543 N   0  0  0  0  0  0  0  0  0  0  0  0
   -2.3332   60.1179   77.5579 C   0  0  0  0  0  0  0  0  0  0  0  0
   -2.6359   60.4735   79.9278 C   0  0  0  0  0  0  0  0  0  0  0  0
   -1.9535   60.5728   81.3036 C   0  0  0  0  0  0  0  0  0  0  0  0
    0.8947   64.6766   86.8368 O   0  0  0  0  0  0  0  0  0  0  0  0
    1.3947   63.6284   87.6751 C   0  0  0  0  0  0  0  0  0  0  0  0
    0.1766   62.0219   89.1927 C   0  0  0  0  0  0  0  0  0  0  0  0
    0.4297   63.4787   88.8472 C   0  0  0  0  0  0  0  0  0  0  0  0
 30 31  1  0  0  0
 31 29  1  0  0  0
 29 28  1  0  0  0
 28  1  1  0  0  0
  1  2  1  0  0  0
  2  3  2  0  0  0
  3  4  1  0  0  0
  4 18  1  0  0  0
 18 19  2  0  0  0
 18 20  2  0  0  0
 18 21  1  0  0  0
 21 22  1  0  0  0
 22 23  1  0  0  0
 23 24  1  0  0  0
 24 25  1  0  0  0
 24 26  1  0  0  0
 26 27  1  0  0  0
  4  5  2  0  0  0
  5  6  1  0  0  0
  6  7  1  0  0  0
  7  8  2  0  0  0
  8  9  1  0  0  0
  9 15  1  0  0  0
 15 16  1  0  0  0
 15 17  1  0  0  0
  9 10  2  0  0  0
 10 11  1  0  0  0
 11 12  2  0  0  0
 11 13  1  0  0  0
  6  1  2  0  0  0
 13  7  1  0  0  0
 27 21  1  0  0  0
 13 14  1  0  0  0
M  END
> <minimizedAffinity>
-9.75294

$$$$



 31 33  0  0  0  0  0  0  0  0999 V2000
    0.0558   63.8733   85.3492 C   0  0  0  0  0  0  0  0  0  0  0  0
   -0.8089   62.7676   85.3084 C   0  0  0  0  0  0  0  0  0  0  0  0
   -1.0165   62.0661   84.1190 C   0  0  0  0  0  0  0  0  0  0  0  0
   -0.3591   62.4730   82.9611 C   0  0  0  0  0  0  0  0  0  0  0  0
    0.4936   63.5788   82.9764 C   0  0  0  0  0  0  0  0  0  0  0  0
    0.7009   64.2991   84.1658 C   0  0  0  0  0  0  0  0  0  0  0  0
    1.6139   65.4888   84.0829 C   0  0  0  0  0  0  0  0  0  0  0  0
    2.7708   65.4739   84.6706 N   0  0  0  0  0  0  0  0  0  0  0  0
    3.5840   66.5823   84.5677 C   0  0  0  0  0  0  0  0  0  0  0  0
    3.2308   67.6852   83.8895 C   0  0  0  0  0  0  0  0  0  0  0  0
    1.9283   67.7046   83.2141 C   0  0  0  0  0  0  0  0  0  0  0  0
    1.5574   68.6747   82.5642 O   0  0  0  0  0  0  0  0  0  0  0  0
    1.1861   66.5754   83.3645 N   0  0  0  0  0  0  0  0  0  0  0  0
    0.2844   66.5615   82.9075 H   0  0  0  0  0  0  0  0  0  0  0  0
    4.9118   66.4449   85.3083 C   0  0  0  0  0  0  0  0  0  0  0  0
    5.0224   65.2278   86.2340 C   0  0  0  0  0  0  0  0  0  0  0  0
    5.2106   67.7257   86.0929 C   0  0  0  0  0  0  0  0  0  0  0  0
   -0.6163   61.6001   81.4354 S   0  0  0  0  0  0  0  0  0  0  0  0
    0.6688   61.5336   80.7755 O   0  0  0  0  0  0  0  0  0  0  0  0
   -1.3685   60.3995   81.7319 O   0  0  0  0  0  0  0  0  0  0  0  0
   -1.6251   62.6535   80.5645 N   0  0  0  0  0  0  0  0  0  0  0  0
   -3.0837   62.3260   80.5183 C   0  0  0  0  0  0  0  0  0  0  0  0
   -3.4273   61.3016   79.4158 C   0  0  0  0  0  0  0  0  0  0  0  0
   -2.9214   61.6990   78.0860 N   0  0  0  0  0  0  0  0  0  0  0  0
   -3.2120   60.6628   77.0958 C   0  0  0  0  0  0  0  0  0  0  0  0
   -1.4675   61.9526   78.1577 C   0  0  0  0  0  0  0  0  0  0  0  0
   -1.1295   63.0284   79.2051 C   0  0  0  0  0  0  0  0  0  0  0  0
    0.2751   64.5917   86.4984 O   0  0  0  0  0  0  0  0  0  0  0  0
   -0.3000   64.0830   87.7075 C   0  0  0  0  0  0  0  0  0  0  0  0
    0.2672   62.1438   89.2194 C   0  0  0  0  0  0  0  0  0  0  0  0
    0.8016   63.3492   88.4662 C   0  0  0  0  0  0  0  0  0  0  0  0
 30 31  1  0  0  0
 31 29  1  0  0  0
 29 28  1  0  0  0
 28  1  1  0  0  0
  1  2  1  0  0  0
  2  3  2  0  0  0
  3  4  1  0  0  0
  4 18  1  0  0  0
 18 19  2  0  0  0
 18 20  2  0  0  0
 18 21  1  0  0  0
 21 22  1  0  0  0
 22 23  1  0  0  0
 23 24  1  0  0  0
 24 25  1  0  0  0
 24 26  1  0  0  0
 26 27  1  0  0  0
  4  5  2  0  0  0
  5  6  1  0  0  0
  6  7  1  0  0  0
  7  8  2  0  0  0
  8  9  1  0  0  0
  9 15  1  0  0  0
 15 16  1  0  0  0
 15 17  1  0  0  0
  9 10  2  0  0  0
 10 11  1  0  0  0
 11 12  2  0  0  0
 11 13  1  0  0  0
  6  1  2  0  0  0
 13  7  1  0  0  0
 27 21  1  0  0  0
 13 14  1  0  0  0
M  END
> <minimizedAffinity>
-9.68785

$$$$



 31 33  0  0  0  0  0  0  0  0999 V2000
    0.1185   63.8328   85.2631 C   0  0  0  0  0  0  0  0  0  0  0  0
   -0.6650   62.6708   85.3504 C   0  0  0  0  0  0  0  0  0  0  0  0
   -0.9750   61.9302   84.2080 C   0  0  0  0  0  0  0  0  0  0  0  0
   -0.5025   62.3540   82.9688 C   0  0  0  0  0  0  0  0  0  0  0  0
    0.2659   63.5148   82.8577 C   0  0  0  0  0  0  0  0  0  0  0  0
    0.5743   64.2742   84.0000 C   0  0  0  0  0  0  0  0  0  0  0  0
    1.3838   65.5205   83.7825 C   0  0  0  0  0  0  0  0  0  0  0  0
    1.0580   66.3639   82.8517 N   0  0  0  0  0  0  0  0  0  0  0  0
    1.8218   67.4995   82.6855 C   0  0  0  0  0  0  0  0  0  0  0  0
    2.8964   67.7725   83.4416 C   0  0  0  0  0  0  0  0  0  0  0  0
    3.2640   66.8280   84.5026 C   0  0  0  0  0  0  0  0  0  0  0  0
    4.2230   67.0309   85.2377 O   0  0  0  0  0  0  0  0  0  0  0  0
    2.4630   65.7338   84.6009 N   0  0  0  0  0  0  0  0  0  0  0  0
    2.6931   65.0673   85.3255 H   0  0  0  0  0  0  0  0  0  0  0  0
    1.3423   68.4059   81.5546 C   0  0  0  0  0  0  0  0  0  0  0  0
    0.9468   69.8258   81.9763 C   0  0  0  0  0  0  0  0  0  0  0  0
    0.1831   67.7425   80.8053 C   0  0  0  0  0  0  0  0  0  0  0  0
   -0.8930   61.4315   81.5017 S   0  0  0  0  0  0  0  0  0  0  0  0
    0.3534   61.2287   80.7970 O   0  0  0  0  0  0  0  0  0  0  0  0
   -1.7246   60.3119   81.8892 O   0  0  0  0  0  0  0  0  0  0  0  0
   -1.8515   62.5196   80.6168 N   0  0  0  0  0  0  0  0  0  0  0  0
   -3.3079   62.2045   80.4885 C   0  0  0  0  0  0  0  0  0  0  0  0
   -3.6027   61.2184   79.3379 C   0  0  0  0  0  0  0  0  0  0  0  0
   -3.0295   61.6544   78.0481 N   0  0  0  0  0  0  0  0  0  0  0  0
   -3.2769   60.6526   77.0119 C   0  0  0  0  0  0  0  0  0  0  0  0
   -1.5794   61.8949   78.1993 C   0  0  0  0  0  0  0  0  0  0  0  0
   -1.2873   62.9341   79.2962 C   0  0  0  0  0  0  0  0  0  0  0  0
    0.4337   64.5902   86.3639 O   0  0  0  0  0  0  0  0  0  0  0  0
   -0.1547   64.2064   87.6121 C   0  0  0  0  0  0  0  0  0  0  0  0
    0.2624   62.2358   89.1321 C   0  0  0  0  0  0  0  0  0  0  0  0
    0.8864   63.3986   88.3809 C   0  0  0  0  0  0  0  0  0  0  0  0
 30 31  1  0  0  0
 31 29  1  0  0  0
 29 28  1  0  0  0
 28  1  1  0  0  0
  1  2  1  0  0  0
  2  3  2  0  0  0
  3  4  1  0  0  0
  4 18  1  0  0  0
 18 19  2  0  0  0
 18 20  2  0  0  0
 18 21  1  0  0  0
 21 22  1  0  0  0
 22 23  1  0  0  0
 23 24  1  0  0  0
 24 25  1  0  0  0
 24 26  1  0  0  0
 26 27  1  0  0  0
  4  5  2  0  0  0
  5  6  1  0  0  0
  6  7  1  0  0  0
  7  8  2  0  0  0
  8  9  1  0  0  0
  9 15  1  0  0  0
 15 16  1  0  0  0
 15 17  1  0  0  0
  9 10  2  0  0  0
 10 11  1  0  0  0
 11 12  2  0  0  0
 11 13  1  0  0  0
  6  1  2  0  0  0
 13  7  1  0  0  0
 27 21  1  0  0  0
 13 14  1  0  0  0
M  END
> <minimizedAffinity>
-9.63013

$$$$



 31 33  0  0  0  0  0  0  0  0999 V2000
    3.5351   66.4639   84.7050 C   0  0  0  0  0  0  0  0  0  0  0  0
    4.3117   67.4649   84.0996 C   0  0  0  0  0  0  0  0  0  0  0  0
    3.7687   68.2941   83.1160 C   0  0  0  0  0  0  0  0  0  0  0  0
    2.4419   68.1209   82.7314 C   0  0  0  0  0  0  0  0  0  0  0  0
    1.6563   67.1219   83.3101 C   0  0  0  0  0  0  0  0  0  0  0  0
    2.1964   66.2741   84.2930 C   0  0  0  0  0  0  0  0  0  0  0  0
    1.2865   65.2123   84.8412 C   0  0  0  0  0  0  0  0  0  0  0  0
    0.5287   64.5197   84.0475 N   0  0  0  0  0  0  0  0  0  0  0  0
   -0.2893   63.5498   84.5867 C   0  0  0  0  0  0  0  0  0  0  0  0
   -0.3436   63.2907   85.9023 C   0  0  0  0  0  0  0  0  0  0  0  0
    0.5183   64.0632   86.8041 C   0  0  0  0  0  0  0  0  0  0  0  0
    0.5274   63.8604   88.0124 O   0  0  0  0  0  0  0  0  0  0  0  0
    1.2931   65.0004   86.1958 N   0  0  0  0  0  0  0  0  0  0  0  0
    1.8983   65.5459   86.7943 H   0  0  0  0  0  0  0  0  0  0  0  0
   -1.1364   62.8120   83.5529 C   0  0  0  0  0  0  0  0  0  0  0  0
   -1.5747   63.6505   82.3466 C   0  0  0  0  0  0  0  0  0  0  0  0
   -2.3616   62.1876   84.2269 C   0  0  0  0  0  0  0  0  0  0  0  0
    1.7342   69.1590   81.4754 S   0  0  0  0  0  0  0  0  0  0  0  0
    2.8326   69.6301   80.6612 O   0  0  0  0  0  0  0  0  0  0  0  0
    0.6184   68.4481   80.8882 O   0  0  0  0  0  0  0  0  0  0  0  0
    1.1164   70.4644   82.3699 N   0  0  0  0  0  0  0  0  0  0  0  0
   -0.1560   71.0858   81.8885 C   0  0  0  0  0  0  0  0  0  0  0  0
    0.0776   72.1320   80.7777 C   0  0  0  0  0  0  0  0  0  0  0  0
    1.0697   73.1588   81.1565 N   0  0  0  0  0  0  0  0  0  0  0  0
    1.3043   74.0802   80.0454 C   0  0  0  0  0  0  0  0  0  0  0  0
    2.3325   72.5095   81.5653 C   0  0  0  0  0  0  0  0  0  0  0  0
    2.1135   71.5202   82.7237 C   0  0  0  0  0  0  0  0  0  0  0  0
    4.0395   65.6247   85.6675 O   0  0  0  0  0  0  0  0  0  0  0  0
    5.4011   65.2053   85.5210 C   0  0  0  0  0  0  0  0  0  0  0  0
    5.4335   65.4892   88.0283 C   0  0  0  0  0  0  0  0  0  0  0  0
    6.1753   65.7315   86.7257 C   0  0  0  0  0  0  0  0  0  0  0  0
 30 31  1  0  0  0
 31 29  1  0  0  0
 29 28  1  0  0  0
 28  1  1  0  0  0
  1  2  1  0  0  0
  2  3  2  0  0  0
  3  4  1  0  0  0
  4 18  1  0  0  0
 18 19  2  0  0  0
 18 20  2  0  0  0
 18 21  1  0  0  0
 21 22  1  0  0  0
 22 23  1  0  0  0
 23 24  1  0  0  0
 24 25  1  0  0  0
 24 26  1  0  0  0
 26 27  1  0  0  0
  4  5  2  0  0  0
  5  6  1  0  0  0
  6  7  1  0  0  0
  7  8  2  0  0  0
  8  9  1  0  0  0
  9 15  1  0  0  0
 15 16  1  0  0  0
 15 17  1  0  0  0
  9 10  2  0  0  0
 10 11  1  0  0  0
 11 12  2  0  0  0
 11 13  1  0  0  0
  6  1  2  0  0  0
 13  7  1  0  0  0
 27 21  1  0  0  0
 13 14  1  0  0  0
M  END
> <minimizedAffinity>
-9.49267

$$$$



 31 33  0  0  0  0  0  0  0  0999 V2000
    1.7508   66.7709   83.4756 C   0  0  0  0  0  0  0  0  0  0  0  0
    2.0387   67.4344   82.2721 C   0  0  0  0  0  0  0  0  0  0  0  0
    1.6261   66.9051   81.0476 C   0  0  0  0  0  0  0  0  0  0  0  0
    0.9239   65.7031   81.0237 C   0  0  0  0  0  0  0  0  0  0  0  0
    0.6399   65.0195   82.2078 C   0  0  0  0  0  0  0  0  0  0  0  0
    1.0606   65.5377   83.4452 C   0  0  0  0  0  0  0  0  0  0  0  0
    0.7334   64.7226   84.6636 C   0  0  0  0  0  0  0  0  0  0  0  0
   -0.3215   63.9674   84.6874 N   0  0  0  0  0  0  0  0  0  0  0  0
   -0.5862   63.2295   85.8214 C   0  0  0  0  0  0  0  0  0  0  0  0
    0.1970   63.2602   86.9107 C   0  0  0  0  0  0  0  0  0  0  0  0
    1.3970   64.1044   86.8863 C   0  0  0  0  0  0  0  0  0  0  0  0
    2.1611   64.1602   87.8425 O   0  0  0  0  0  0  0  0  0  0  0  0
    1.5866   64.8006   85.7340 N   0  0  0  0  0  0  0  0  0  0  0  0
    2.4075   65.3891   85.6900 H   0  0  0  0  0  0  0  0  0  0  0  0
   -1.8578   62.3898   85.7287 C   0  0  0  0  0  0  0  0  0  0  0  0
   -2.5032   62.3299   84.3393 C   0  0  0  0  0  0  0  0  0  0  0  0
   -2.8825   62.8727   86.7593 C   0  0  0  0  0  0  0  0  0  0  0  0
    0.3978   65.0077   79.4759 S   0  0  0  0  0  0  0  0  0  0  0  0
   -0.8389   65.6699   79.1244 O   0  0  0  0  0  0  0  0  0  0  0  0
    1.5324   65.0148   78.5772 O   0  0  0  0  0  0  0  0  0  0  0  0
    0.0579   63.3941   79.8843 N   0  0  0  0  0  0  0  0  0  0  0  0
    0.8200   62.3281   79.1634 C   0  0  0  0  0  0  0  0  0  0  0  0
    0.1953   61.9728   77.7972 C   0  0  0  0  0  0  0  0  0  0  0  0
   -1.2404   61.6385   77.8928 N   0  0  0  0  0  0  0  0  0  0  0  0
   -1.7965   61.3798   76.5653 C   0  0  0  0  0  0  0  0  0  0  0  0
   -1.9694   62.7412   78.5531 C   0  0  0  0  0  0  0  0  0  0  0  0
   -1.3946   63.0475   79.9475 C   0  0  0  0  0  0  0  0  0  0  0  0
    2.1499   67.2573   84.6959 O   0  0  0  0  0  0  0  0  0  0  0  0
    3.2930   68.1200   84.7139 C   0  0  0  0  0  0  0  0  0  0  0  0
    5.2313   67.8234   86.3023 C   0  0  0  0  0  0  0  0  0  0  0  0
    4.5031   67.2704   85.0901 C   0  0  0  0  0  0  0  0  0  0  0  0
 30 31  1  0  0  0
 31 29  1  0  0  0
 29 28  1  0  0  0
 28  1  1  0  0  0
  1  2  1  0  0  0
  2  3  2  0  0  0
  3  4  1  0  0  0
  4 18  1  0  0  0
 18 19  2  0  0  0
 18 20  2  0  0  0
 18 21  1  0  0  0
 21 22  1  0  0  0
 22 23  1  0  0  0
 23 24  1  0  0  0
 24 25  1  0  0  0
 24 26  1  0  0  0
 26 27  1  0  0  0
  4  5  2  0  0  0
  5  6  1  0  0  0
  6  7  1  0  0  0
  7  8  2  0  0  0
  8  9  1  0  0  0
  9 15  1  0  0  0
 15 16  1  0  0  0
 15 17  1  0  0  0
  9 10  2  0  0  0
 10 11  1  0  0  0
 11 12  2  0  0  0
 11 13  1  0  0  0
  6  1  2  0  0  0
 13  7  1  0  0  0
 27 21  1  0  0  0
 13 14  1  0  0  0
M  END
> <minimizedAffinity>
-9.40014

$$$$



 31 33  0  0  0  0  0  0  0  0999 V2000
    0.4810   65.0075   82.1280 C   0  0  0  0  0  0  0  0  0  0  0  0
    1.1435   65.9985   81.3858 C   0  0  0  0  0  0  0  0  0  0  0  0
    1.9600   66.9387   82.0176 C   0  0  0  0  0  0  0  0  0  0  0  0
    2.1139   66.8917   83.4006 C   0  0  0  0  0  0  0  0  0  0  0  0
    1.4524   65.9236   84.1591 C   0  0  0  0  0  0  0  0  0  0  0  0
    0.6189   64.9793   83.5344 C   0  0  0  0  0  0  0  0  0  0  0  0
   -0.0718   63.9921   84.4312 C   0  0  0  0  0  0  0  0  0  0  0  0
    0.2846   63.8680   85.6727 N   0  0  0  0  0  0  0  0  0  0  0  0
   -0.3763   62.9552   86.4668 C   0  0  0  0  0  0  0  0  0  0  0  0
   -1.3728   62.1799   86.0120 C   0  0  0  0  0  0  0  0  0  0  0  0
   -1.7875   62.3227   84.6117 C   0  0  0  0  0  0  0  0  0  0  0  0
   -2.7029   61.6567   84.1430 O   0  0  0  0  0  0  0  0  0  0  0  0
   -1.0865   63.2416   83.8956 N   0  0  0  0  0  0  0  0  0  0  0  0
   -1.3533   63.3613   82.9278 H   0  0  0  0  0  0  0  0  0  0  0  0
    0.1404   62.8973   87.9021 C   0  0  0  0  0  0  0  0  0  0  0  0
   -0.8518   63.3619   88.9746 C   0  0  0  0  0  0  0  0  0  0  0  0
    1.4465   63.6879   88.0226 C   0  0  0  0  0  0  0  0  0  0  0  0
    3.1407   68.0840   84.2252 S   0  0  0  0  0  0  0  0  0  0  0  0
    3.2117   69.2387   83.3575 O   0  0  0  0  0  0  0  0  0  0  0  0
    2.6760   68.2014   85.5910 O   0  0  0  0  0  0  0  0  0  0  0  0
    4.6588   67.3219   84.2478 N   0  0  0  0  0  0  0  0  0  0  0  0
    4.6805   65.8402   84.4497 C   0  0  0  0  0  0  0  0  0  0  0  0
    4.6090   65.4431   85.9397 C   0  0  0  0  0  0  0  0  0  0  0  0
    5.6362   66.1146   86.7620 N   0  0  0  0  0  0  0  0  0  0  0  0
    5.4786   65.7583   88.1715 C   0  0  0  0  0  0  0  0  0  0  0  0
    5.5424   67.5785   86.5849 C   0  0  0  0  0  0  0  0  0  0  0  0
    5.6882   67.9824   85.1070 C   0  0  0  0  0  0  0  0  0  0  0  0
   -0.3370   64.0742   81.5407 O   0  0  0  0  0  0  0  0  0  0  0  0
    0.2187   63.2964   80.4741 C   0  0  0  0  0  0  0  0  0  0  0  0
    1.0622   61.3248   81.8042 C   0  0  0  0  0  0  0  0  0  0  0  0
    0.0154   61.8256   80.8248 C   0  0  0  0  0  0  0  0  0  0  0  0
 30 31  1  0  0  0
 31 29  1  0  0  0
 29 28  1  0  0  0
 28  1  1  0  0  0
  1  2  1  0  0  0
  2  3  2  0  0  0
  3  4  1  0  0  0
  4 18  1  0  0  0
 18 19  2  0  0  0
 18 20  2  0  0  0
 18 21  1  0  0  0
 21 22  1  0  0  0
 22 23  1  0  0  0
 23 24  1  0  0  0
 24 25  1  0  0  0
 24 26  1  0  0  0
 26 27  1  0  0  0
  4  5  2  0  0  0
  5  6  1  0  0  0
  6  7  1  0  0  0
  7  8  2  0  0  0
  8  9  1  0  0  0
  9 15  1  0  0  0
 15 16  1  0  0  0
 15 17  1  0  0  0
  9 10  2  0  0  0
 10 11  1  0  0  0
 11 12  2  0  0  0
 11 13  1  0  0  0
  6  1  2  0  0  0
 13  7  1  0  0  0
 27 21  1  0  0  0
 13 14  1  0  0  0
M  END
> <minimizedAffinity>
-9.33846

$$$$



 31 33  0  0  0  0  0  0  0  0999 V2000
    0.3700   64.1723   84.4539 C   0  0  0  0  0  0  0  0  0  0  0  0
    1.0535   65.3162   84.8966 C   0  0  0  0  0  0  0  0  0  0  0  0
    1.3315   66.3668   84.0199 C   0  0  0  0  0  0  0  0  0  0  0  0
    0.9276   66.2737   82.6907 C   0  0  0  0  0  0  0  0  0  0  0  0
    0.2599   65.1386   82.2262 C   0  0  0  0  0  0  0  0  0  0  0  0
   -0.0151   64.0702   83.0977 C   0  0  0  0  0  0  0  0  0  0  0  0
   -0.7142   62.8801   82.5056 C   0  0  0  0  0  0  0  0  0  0  0  0
   -0.4328   62.4814   81.3032 N   0  0  0  0  0  0  0  0  0  0  0  0
   -1.0911   61.3817   80.7954 C   0  0  0  0  0  0  0  0  0  0  0  0
   -2.0193   60.7037   81.4879 C   0  0  0  0  0  0  0  0  0  0  0  0
   -2.3348   61.1431   82.8520 C   0  0  0  0  0  0  0  0  0  0  0  0
   -3.1591   60.5541   83.5408 O   0  0  0  0  0  0  0  0  0  0  0  0
   -1.6446   62.2342   83.2782 N   0  0  0  0  0  0  0  0  0  0  0  0
   -1.8416   62.5572   84.2158 H   0  0  0  0  0  0  0  0  0  0  0  0
   -0.6789   61.0186   79.3711 C   0  0  0  0  0  0  0  0  0  0  0  0
    0.1695   62.0702   78.6466 C   0  0  0  0  0  0  0  0  0  0  0  0
   -1.9174   60.6820   78.5355 C   0  0  0  0  0  0  0  0  0  0  0  0
    1.2796   67.5950   81.5565 S   0  0  0  0  0  0  0  0  0  0  0  0
    2.4510   67.1962   80.8081 O   0  0  0  0  0  0  0  0  0  0  0  0
    0.0458   67.9447   80.8853 O   0  0  0  0  0  0  0  0  0  0  0  0
    1.6999   68.8762   82.5897 N   0  0  0  0  0  0  0  0  0  0  0  0
    1.0976   70.2149   82.3039 C   0  0  0  0  0  0  0  0  0  0  0  0
    1.8807   71.0012   81.2308 C   0  0  0  0  0  0  0  0  0  0  0  0
    3.3211   71.1125   81.5388 N   0  0  0  0  0  0  0  0  0  0  0  0
    4.0249   71.8028   80.4586 C   0  0  0  0  0  0  0  0  0  0  0  0
    3.8939   69.7673   81.7524 C   0  0  0  0  0  0  0  0  0  0  0  0
    3.1613   69.0095   82.8739 C   0  0  0  0  0  0  0  0  0  0  0  0
    0.0892   63.1169   85.2859 O   0  0  0  0  0  0  0  0  0  0  0  0
   -0.3072   63.4285   86.6265 C   0  0  0  0  0  0  0  0  0  0  0  0
   -2.7558   62.8218   86.6897 C   0  0  0  0  0  0  0  0  0  0  0  0
   -1.3445   62.3932   87.0506 C   0  0  0  0  0  0  0  0  0  0  0  0
 30 31  1  0  0  0
 31 29  1  0  0  0
 29 28  1  0  0  0
 28  1  1  0  0  0
  1  2  1  0  0  0
  2  3  2  0  0  0
  3  4  1  0  0  0
  4 18  1  0  0  0
 18 19  2  0  0  0
 18 20  2  0  0  0
 18 21  1  0  0  0
 21 22  1  0  0  0
 22 23  1  0  0  0
 23 24  1  0  0  0
 24 25  1  0  0  0
 24 26  1  0  0  0
 26 27  1  0  0  0
  4  5  2  0  0  0
  5  6  1  0  0  0
  6  7  1  0  0  0
  7  8  2  0  0  0
  8  9  1  0  0  0
  9 15  1  0  0  0
 15 16  1  0  0  0
 15 17  1  0  0  0
  9 10  2  0  0  0
 10 11  1  0  0  0
 11 12  2  0  0  0
 11 13  1  0  0  0
  6  1  2  0  0  0
 13  7  1  0  0  0
 27 21  1  0  0  0
 13 14  1  0  0  0
M  END
> <minimizedAffinity>
-9.01089

$$$$



 31 33  0  0  0  0  0  0  0  0999 V2000
   -0.0604   63.9093   84.5693 C   0  0  0  0  0  0  0  0  0  0  0  0
    0.4889   64.3941   85.7672 C   0  0  0  0  0  0  0  0  0  0  0  0
    1.5353   65.3185   85.7512 C   0  0  0  0  0  0  0  0  0  0  0  0
    2.0396   65.7598   84.5308 C   0  0  0  0  0  0  0  0  0  0  0  0
    1.5178   65.2793   83.3280 C   0  0  0  0  0  0  0  0  0  0  0  0
    0.4719   64.3398   83.3327 C   0  0  0  0  0  0  0  0  0  0  0  0
   -0.0091   63.8598   81.9932 C   0  0  0  0  0  0  0  0  0  0  0  0
    0.1366   64.5994   80.9370 N   0  0  0  0  0  0  0  0  0  0  0  0
   -0.3124   64.1229   79.7238 C   0  0  0  0  0  0  0  0  0  0  0  0
   -0.9021   62.9256   79.5838 C   0  0  0  0  0  0  0  0  0  0  0  0
   -1.0605   62.0800   80.7725 C   0  0  0  0  0  0  0  0  0  0  0  0
   -1.5739   60.9696   80.7057 O   0  0  0  0  0  0  0  0  0  0  0  0
   -0.5941   62.6215   81.9292 N   0  0  0  0  0  0  0  0  0  0  0  0
   -0.6892   62.0587   82.7636 H   0  0  0  0  0  0  0  0  0  0  0  0
   -0.0917   65.0878   78.5615 C   0  0  0  0  0  0  0  0  0  0  0  0
   -0.3406   64.5013   77.1671 C   0  0  0  0  0  0  0  0  0  0  0  0
    1.3177   65.6826   78.6331 C   0  0  0  0  0  0  0  0  0  0  0  0
    3.3769   66.9286   84.4880 S   0  0  0  0  0  0  0  0  0  0  0  0
    4.0870   66.6990   83.2493 O   0  0  0  0  0  0  0  0  0  0  0  0
    2.8378   68.2324   84.8112 O   0  0  0  0  0  0  0  0  0  0  0  0
    4.3567   66.4270   85.7819 N   0  0  0  0  0  0  0  0  0  0  0  0
    5.1705   67.4743   86.4733 C   0  0  0  0  0  0  0  0  0  0  0  0
    6.5040   67.7624   85.7511 C   0  0  0  0  0  0  0  0  0  0  0  0
    7.2965   66.5410   85.5016 N   0  0  0  0  0  0  0  0  0  0  0  0
    8.5123   66.8618   84.7548 C   0  0  0  0  0  0  0  0  0  0  0  0
    6.4804   65.5557   84.7624 C   0  0  0  0  0  0  0  0  0  0  0  0
    5.1844   65.2108   85.5175 C   0  0  0  0  0  0  0  0  0  0  0  0
   -1.0824   62.9928   84.5482 O   0  0  0  0  0  0  0  0  0  0  0  0
   -1.1684   62.0836   85.6516 C   0  0  0  0  0  0  0  0  0  0  0  0
   -2.5920   63.1197   87.4593 C   0  0  0  0  0  0  0  0  0  0  0  0
   -2.5690   62.2110   86.2430 C   0  0  0  0  0  0  0  0  0  0  0  0
 30 31  1  0  0  0
 31 29  1  0  0  0
 29 28  1  0  0  0
 28  1  1  0  0  0
  1  2  1  0  0  0
  2  3  2  0  0  0
  3  4  1  0  0  0
  4 18  1  0  0  0
 18 19  2  0  0  0
 18 20  2  0  0  0
 18 21  1  0  0  0
 21 22  1  0  0  0
 22 23  1  0  0  0
 23 24  1  0  0  0
 24 25  1  0  0  0
 24 26  1  0  0  0
 26 27  1  0  0  0
  4  5  2  0  0  0
  5  6  1  0  0  0
  6  7  1  0  0  0
  7  8  2  0  0  0
  8  9  1  0  0  0
  9 15  1  0  0  0
 15 16  1  0  0  0
 15 17  1  0  0  0
  9 10  2  0  0  0
 10 11  1  0  0  0
 11 12  2  0  0  0
 11 13  1  0  0  0
  6  1  2  0  0  0
 13  7  1  0  0  0
 27 21  1  0  0  0
 13 14  1  0  0  0
M  END
> <minimizedAffinity>
-8.91179

$$$$
