


 36 41  0  0  0  0  0  0  0  0999 V2000
   -0.6463   63.8820   83.0363 N   0  0  0  0  0  0  0  0  0  0  0  0
    0.0859   64.3747   84.1402 C   0  0  0  0  0  0  0  0  0  0  0  0
   -0.0350   63.9292   85.2805 O   0  0  0  0  0  0  0  0  0  0  0  0
    1.0176   65.4594   83.8134 C   0  0  0  0  0  0  0  0  0  0  0  0
    1.8565   66.1390   84.6561 N   0  0  0  0  0  0  0  0  0  0  0  0
    2.5050   67.0063   83.8960 C   0  0  0  0  0  0  0  0  0  0  0  0
    2.0827   66.9229   82.5714 N   0  0  0  0  0  0  0  0  0  0  0  0
    1.1545   65.9156   82.5213 C   0  0  0  0  0  0  0  0  0  0  0  0
    0.4597   65.3642   81.5065 N   0  0  0  0  0  0  0  0  0  0  0  0
    0.4151   65.7231   80.1159 C   0  0  0  0  0  0  0  0  0  0  0  0
   -0.5017   64.6168   79.5357 C   0  0  0  0  0  0  0  0  0  0  0  0
   -1.0706   63.8679   80.7089 N   0  0  0  0  0  0  0  0  0  0  0  0
   -0.4400   64.3505   81.7439 C   0  0  0  0  0  0  0  0  0  0  0  0
   -0.9144   61.4328   83.0991 C   0  0  0  0  0  0  0  0  0  0  0  0
   -1.5817   62.7900   83.2701 C   0  0  0  0  0  0  0  0  0  0  0  0
    3.5738   67.9341   84.4024 C   0  0  0  0  0  0  0  0  0  0  0  0
    4.8138   67.2381   84.9200 C   0  0  0  0  0  0  0  0  0  0  0  0
    6.0488   67.4308   84.2821 C   0  0  0  0  0  0  0  0  0  0  0  0
    7.1954   66.7842   84.7462 C   0  0  0  0  0  0  0  0  0  0  0  0
    7.1187   65.9289   85.8436 C   0  0  0  0  0  0  0  0  0  0  0  0
    5.8946   65.7127   86.4731 C   0  0  0  0  0  0  0  0  0  0  0  0
    4.7468   66.3578   86.0105 C   0  0  0  0  0  0  0  0  0  0  0  0
    2.5264   67.7948   81.4952 C   0  0  0  0  0  0  0  0  0  0  0  0
    1.8660   69.1533   81.4984 C   0  0  0  0  0  0  0  0  0  0  0  0
    0.5788   69.2851   80.9516 C   0  0  0  0  0  0  0  0  0  0  0  0
   -0.0548   70.5281   80.9069 C   0  0  0  0  0  0  0  0  0  0  0  0
    0.5935   71.6588   81.3963 C   0  0  0  0  0  0  0  0  0  0  0  0
    1.8768   71.5484   81.9255 C   0  0  0  0  0  0  0  0  0  0  0  0
    2.5129   70.3061   81.9706 C   0  0  0  0  0  0  0  0  0  0  0  0
    0.2829   63.6486   78.6342 C   0  0  0  0  0  0  0  0  0  0  0  0
   -0.5822   62.5665   78.0293 C   0  0  0  0  0  0  0  0  0  0  0  0
   -0.5435   61.2600   78.5338 C   0  0  0  0  0  0  0  0  0  0  0  0
   -1.3452   60.2610   77.9796 C   0  0  0  0  0  0  0  0  0  0  0  0
   -2.1943   60.5580   76.9157 C   0  0  0  0  0  0  0  0  0  0  0  0
   -2.2441   61.8544   76.4072 C   0  0  0  0  0  0  0  0  0  0  0  0
   -1.4435   62.8551   76.9615 C   0  0  0  0  0  0  0  0  0  0  0  0
 14 15  1  0  0  0
 15  1  1  0  0  0
  1  2  1  0  0  0
  2  3  2  0  0  0
  2  4  1  0  0  0
  4  5  1  0  0  0
  5  6  2  0  0  0
  6 16  1  0  0  0
 16 17  1  0  0  0
 17 18  2  0  0  0
 18 19  1  0  0  0
 19 20  2  0  0  0
 20 21  1  0  0  0
 21 22  2  0  0  0
  6  7  1  0  0  0
  7 23  1  0  0  0
 23 24  1  0  0  0
 24 25  2  0  0  0
 25 26  1  0  0  0
 26 27  2  0  0  0
 27 28  1  0  0  0
 28 29  2  0  0  0
  7  8  1  0  0  0
  8  9  1  0  0  0
  9 10  1  0  0  0
 10 11  1  0  0  0
 11 30  1  0  0  0
 30 31  1  0  0  0
 31 32  2  0  0  0
 32 33  1  0  0  0
 33 34  2  0  0  0
 34 35  1  0  0  0
 35 36  2  0  0  0
 11 12  1  0  0  0
 12 13  2  0  0  0
 13  1  1  0  0  0
  8  4  2  0  0  0
 13  9  1  0  0  0
 22 17  1  0  0  0
 29 24  1  0  0  0
 36 31  1  0  0  0
M  END
> <minimizedAffinity>
-1.51734

$$$$



 36 41  0  0  0  0  0  0  0  0999 V2000
   -0.6479   63.1202   84.1306 N   0  0  0  0  0  0  0  0  0  0  0  0
    0.1677   63.8274   85.0428 C   0  0  0  0  0  0  0  0  0  0  0  0
    0.1807   63.5978   86.2513 O   0  0  0  0  0  0  0  0  0  0  0  0
    1.0130   64.8564   84.4278 C   0  0  0  0  0  0  0  0  0  0  0  0
    1.9002   65.7014   85.0395 N   0  0  0  0  0  0  0  0  0  0  0  0
    2.4306   66.4293   84.0702 C   0  0  0  0  0  0  0  0  0  0  0  0
    1.8829   66.0914   82.8351 N   0  0  0  0  0  0  0  0  0  0  0  0
    1.0002   65.0688   83.0672 C   0  0  0  0  0  0  0  0  0  0  0  0
    0.2333   64.3214   82.2488 N   0  0  0  0  0  0  0  0  0  0  0  0
    0.0347   64.4153   80.8289 C   0  0  0  0  0  0  0  0  0  0  0  0
   -0.8848   63.1975   80.5595 C   0  0  0  0  0  0  0  0  0  0  0  0
   -1.3003   62.6645   81.9026 N   0  0  0  0  0  0  0  0  0  0  0  0
   -0.5921   63.3464   82.7602 C   0  0  0  0  0  0  0  0  0  0  0  0
   -2.7468   62.6364   85.3284 C   0  0  0  0  0  0  0  0  0  0  0  0
   -1.5057   62.0668   84.6564 C   0  0  0  0  0  0  0  0  0  0  0  0
    3.5019   67.4620   84.2838 C   0  0  0  0  0  0  0  0  0  0  0  0
    4.8051   66.9109   84.8205 C   0  0  0  0  0  0  0  0  0  0  0  0
    4.8110   66.1123   85.9744 C   0  0  0  0  0  0  0  0  0  0  0  0
    6.0097   65.6089   86.4825 C   0  0  0  0  0  0  0  0  0  0  0  0
    7.2155   65.9080   85.8516 C   0  0  0  0  0  0  0  0  0  0  0  0
    7.2255   66.7171   84.7173 C   0  0  0  0  0  0  0  0  0  0  0  0
    6.0284   67.2218   84.2077 C   0  0  0  0  0  0  0  0  0  0  0  0
    2.1780   66.7599   81.5777 C   0  0  0  0  0  0  0  0  0  0  0  0
    1.4163   68.0490   81.3780 C   0  0  0  0  0  0  0  0  0  0  0  0
    0.3493   68.0739   80.4647 C   0  0  0  0  0  0  0  0  0  0  0  0
   -0.3612   69.2518   80.2276 C   0  0  0  0  0  0  0  0  0  0  0  0
   -0.0077   70.4242   80.8902 C   0  0  0  0  0  0  0  0  0  0  0  0
    1.0588   70.4207   81.7856 C   0  0  0  0  0  0  0  0  0  0  0  0
    1.7714   69.2436   82.0238 C   0  0  0  0  0  0  0  0  0  0  0  0
   -0.1512   62.0996   79.7707 C   0  0  0  0  0  0  0  0  0  0  0  0
   -1.0229   61.4303   78.7326 C   0  0  0  0  0  0  0  0  0  0  0  0
   -2.0251   60.5305   79.1187 C   0  0  0  0  0  0  0  0  0  0  0  0
   -2.8338   59.9155   78.1619 C   0  0  0  0  0  0  0  0  0  0  0  0
   -2.6494   60.1942   76.8093 C   0  0  0  0  0  0  0  0  0  0  0  0
   -1.6581   61.0897   76.4131 C   0  0  0  0  0  0  0  0  0  0  0  0
   -0.8491   61.7067   77.3693 C   0  0  0  0  0  0  0  0  0  0  0  0
 14 15  1  0  0  0
 15  1  1  0  0  0
  1  2  1  0  0  0
  2  3  2  0  0  0
  2  4  1  0  0  0
  4  5  1  0  0  0
  5  6  2  0  0  0
  6 16  1  0  0  0
 16 17  1  0  0  0
 17 18  2  0  0  0
 18 19  1  0  0  0
 19 20  2  0  0  0
 20 21  1  0  0  0
 21 22  2  0  0  0
  6  7  1  0  0  0
  7 23  1  0  0  0
 23 24  1  0  0  0
 24 25  2  0  0  0
 25 26  1  0  0  0
 26 27  2  0  0  0
 27 28  1  0  0  0
 28 29  2  0  0  0
  7  8  1  0  0  0
  8  9  1  0  0  0
  9 10  1  0  0  0
 10 11  1  0  0  0
 11 30  1  0  0  0
 30 31  1  0  0  0
 31 32  2  0  0  0
 32 33  1  0  0  0
 33 34  2  0  0  0
 34 35  1  0  0  0
 35 36  2  0  0  0
 11 12  1  0  0  0
 12 13  2  0  0  0
 13  1  1  0  0  0
  8  4  2  0  0  0
 13  9  1  0  0  0
 22 17  1  0  0  0
 29 24  1  0  0  0
 36 31  1  0  0  0
M  END
> <minimizedAffinity>
-1.45868

$$$$



 36 41  0  0  0  0  0  0  0  0999 V2000
    1.0382   71.6500   81.5809 N   0  0  0  0  0  0  0  0  0  0  0  0
    2.3570   71.8928   82.0270 C   0  0  0  0  0  0  0  0  0  0  0  0
    3.1185   70.9988   82.3935 O   0  0  0  0  0  0  0  0  0  0  0  0
    2.7530   73.3050   82.0065 C   0  0  0  0  0  0  0  0  0  0  0  0
    3.9516   73.8547   82.3765 N   0  0  0  0  0  0  0  0  0  0  0  0
    3.8322   75.1550   82.1631 C   0  0  0  0  0  0  0  0  0  0  0  0
    2.5624   75.4679   81.6841 N   0  0  0  0  0  0  0  0  0  0  0  0
    1.8893   74.2804   81.5605 C   0  0  0  0  0  0  0  0  0  0  0  0
    0.6607   73.9711   81.1005 N   0  0  0  0  0  0  0  0  0  0  0  0
   -0.3990   74.8296   80.6485 C   0  0  0  0  0  0  0  0  0  0  0  0
   -1.4610   73.8004   80.1863 C   0  0  0  0  0  0  0  0  0  0  0  0
   -0.9790   72.4497   80.6381 N   0  0  0  0  0  0  0  0  0  0  0  0
    0.2207   72.6673   81.1020 C   0  0  0  0  0  0  0  0  0  0  0  0
    1.0518   69.5408   80.3061 C   0  0  0  0  0  0  0  0  0  0  0  0
    0.5703   70.2708   81.5518 C   0  0  0  0  0  0  0  0  0  0  0  0
    4.9378   76.1489   82.3860 C   0  0  0  0  0  0  0  0  0  0  0  0
    6.1329   75.9714   81.4748 C   0  0  0  0  0  0  0  0  0  0  0  0
    7.4325   75.9943   82.0038 C   0  0  0  0  0  0  0  0  0  0  0  0
    8.5408   75.8423   81.1691 C   0  0  0  0  0  0  0  0  0  0  0  0
    8.3639   75.6787   79.7966 C   0  0  0  0  0  0  0  0  0  0  0  0
    7.0796   75.6751   79.2561 C   0  0  0  0  0  0  0  0  0  0  0  0
    5.9701   75.8273   80.0887 C   0  0  0  0  0  0  0  0  0  0  0  0
    2.0711   76.8135   81.4326 C   0  0  0  0  0  0  0  0  0  0  0  0
    1.2914   77.4040   82.5838 C   0  0  0  0  0  0  0  0  0  0  0  0
    0.0966   78.0917   82.3141 C   0  0  0  0  0  0  0  0  0  0  0  0
   -0.6384   78.6788   83.3454 C   0  0  0  0  0  0  0  0  0  0  0  0
   -0.1837   78.5977   84.6589 C   0  0  0  0  0  0  0  0  0  0  0  0
    1.0078   77.9347   84.9410 C   0  0  0  0  0  0  0  0  0  0  0  0
    1.7452   77.3473   83.9109 C   0  0  0  0  0  0  0  0  0  0  0  0
   -1.6256   73.8069   78.6570 C   0  0  0  0  0  0  0  0  0  0  0  0
   -2.7015   74.7553   78.1791 C   0  0  0  0  0  0  0  0  0  0  0  0
   -2.3624   76.0111   77.6585 C   0  0  0  0  0  0  0  0  0  0  0  0
   -3.3541   76.8859   77.2124 C   0  0  0  0  0  0  0  0  0  0  0  0
   -4.6950   76.5140   77.2815 C   0  0  0  0  0  0  0  0  0  0  0  0
   -5.0447   75.2664   77.7943 C   0  0  0  0  0  0  0  0  0  0  0  0
   -4.0535   74.3897   78.2399 C   0  0  0  0  0  0  0  0  0  0  0  0
 14 15  1  0  0  0
 15  1  1  0  0  0
  1  2  1  0  0  0
  2  3  2  0  0  0
  2  4  1  0  0  0
  4  5  1  0  0  0
  5  6  2  0  0  0
  6 16  1  0  0  0
 16 17  1  0  0  0
 17 18  2  0  0  0
 18 19  1  0  0  0
 19 20  2  0  0  0
 20 21  1  0  0  0
 21 22  2  0  0  0
  6  7  1  0  0  0
  7 23  1  0  0  0
 23 24  1  0  0  0
 24 25  2  0  0  0
 25 26  1  0  0  0
 26 27  2  0  0  0
 27 28  1  0  0  0
 28 29  2  0  0  0
  7  8  1  0  0  0
  8  9  1  0  0  0
  9 10  1  0  0  0
 10 11  1  0  0  0
 11 30  1  0  0  0
 30 31  1  0  0  0
 31 32  2  0  0  0
 32 33  1  0  0  0
 33 34  2  0  0  0
 34 35  1  0  0  0
 35 36  2  0  0  0
 11 12  1  0  0  0
 12 13  2  0  0  0
 13  1  1  0  0  0
  8  4  2  0  0  0
 13  9  1  0  0  0
 22 17  1  0  0  0
 29 24  1  0  0  0
 36 31  1  0  0  0
M  END
> <minimizedAffinity>
-1.32228

$$$$



 36 41  0  0  0  0  0  0  0  0999 V2000
    1.5809   72.7779   81.2820 N   0  0  0  0  0  0  0  0  0  0  0  0
    2.8701   72.9109   81.8456 C   0  0  0  0  0  0  0  0  0  0  0  0
    3.6398   71.9630   81.9954 O   0  0  0  0  0  0  0  0  0  0  0  0
    3.2250   74.2814   82.2293 C   0  0  0  0  0  0  0  0  0  0  0  0
    4.3886   74.7285   82.7966 N   0  0  0  0  0  0  0  0  0  0  0  0
    4.2410   76.0358   82.9376 C   0  0  0  0  0  0  0  0  0  0  0  0
    2.9860   76.4472   82.4955 N   0  0  0  0  0  0  0  0  0  0  0  0
    2.3544   75.3276   82.0197 C   0  0  0  0  0  0  0  0  0  0  0  0
    1.1580   75.1359   81.4294 N   0  0  0  0  0  0  0  0  0  0  0  0
    0.0955   76.0682   81.1721 C   0  0  0  0  0  0  0  0  0  0  0  0
   -0.9134   75.1869   80.3934 C   0  0  0  0  0  0  0  0  0  0  0  0
   -0.4132   73.7721   80.4868 N   0  0  0  0  0  0  0  0  0  0  0  0
    0.7569   73.8741   81.0545 C   0  0  0  0  0  0  0  0  0  0  0  0
    0.6207   70.6318   82.0213 C   0  0  0  0  0  0  0  0  0  0  0  0
    1.1557   71.4515   80.8558 C   0  0  0  0  0  0  0  0  0  0  0  0
    5.3054   76.9488   83.4790 C   0  0  0  0  0  0  0  0  0  0  0  0
    6.5260   77.0818   82.5944 C   0  0  0  0  0  0  0  0  0  0  0  0
    7.6585   76.2878   82.8315 C   0  0  0  0  0  0  0  0  0  0  0  0
    8.7926   76.4118   82.0273 C   0  0  0  0  0  0  0  0  0  0  0  0
    8.8126   77.3381   80.9866 C   0  0  0  0  0  0  0  0  0  0  0  0
    7.7023   78.1472   80.7538 C   0  0  0  0  0  0  0  0  0  0  0  0
    6.5675   78.0253   81.5568 C   0  0  0  0  0  0  0  0  0  0  0  0
    2.4674   77.8025   82.5927 C   0  0  0  0  0  0  0  0  0  0  0  0
    1.7156   78.0783   83.8735 C   0  0  0  0  0  0  0  0  0  0  0  0
    0.3469   78.3871   83.8056 C   0  0  0  0  0  0  0  0  0  0  0  0
   -0.3781   78.6786   84.9623 C   0  0  0  0  0  0  0  0  0  0  0  0
    0.2567   78.6778   86.2014 C   0  0  0  0  0  0  0  0  0  0  0  0
    1.6168   78.3910   86.2841 C   0  0  0  0  0  0  0  0  0  0  0  0
    2.3443   78.0999   85.1283 C   0  0  0  0  0  0  0  0  0  0  0  0
   -1.0075   75.6067   78.9166 C   0  0  0  0  0  0  0  0  0  0  0  0
   -2.4273   75.6460   78.3991 C   0  0  0  0  0  0  0  0  0  0  0  0
   -3.1812   74.4692   78.3008 C   0  0  0  0  0  0  0  0  0  0  0  0
   -4.4937   74.5044   77.8278 C   0  0  0  0  0  0  0  0  0  0  0  0
   -5.0664   75.7167   77.4488 C   0  0  0  0  0  0  0  0  0  0  0  0
   -4.3279   76.8944   77.5451 C   0  0  0  0  0  0  0  0  0  0  0  0
   -3.0150   76.8608   78.0193 C   0  0  0  0  0  0  0  0  0  0  0  0
 14 15  1  0  0  0
 15  1  1  0  0  0
  1  2  1  0  0  0
  2  3  2  0  0  0
  2  4  1  0  0  0
  4  5  1  0  0  0
  5  6  2  0  0  0
  6 16  1  0  0  0
 16 17  1  0  0  0
 17 18  2  0  0  0
 18 19  1  0  0  0
 19 20  2  0  0  0
 20 21  1  0  0  0
 21 22  2  0  0  0
  6  7  1  0  0  0
  7 23  1  0  0  0
 23 24  1  0  0  0
 24 25  2  0  0  0
 25 26  1  0  0  0
 26 27  2  0  0  0
 27 28  1  0  0  0
 28 29  2  0  0  0
  7  8  1  0  0  0
  8  9  1  0  0  0
  9 10  1  0  0  0
 10 11  1  0  0  0
 11 30  1  0  0  0
 30 31  1  0  0  0
 31 32  2  0  0  0
 32 33  1  0  0  0
 33 34  2  0  0  0
 34 35  1  0  0  0
 35 36  2  0  0  0
 11 12  1  0  0  0
 12 13  2  0  0  0
 13  1  1  0  0  0
  8  4  2  0  0  0
 13  9  1  0  0  0
 22 17  1  0  0  0
 29 24  1  0  0  0
 36 31  1  0  0  0
M  END
> <minimizedAffinity>
-1.27066

$$$$



 36 41  0  0  0  0  0  0  0  0999 V2000
    0.3585   67.3640   80.8435 N   0  0  0  0  0  0  0  0  0  0  0  0
   -0.3210   66.4380   80.0202 C   0  0  0  0  0  0  0  0  0  0  0  0
   -0.8641   66.7510   78.9617 O   0  0  0  0  0  0  0  0  0  0  0  0
   -0.3168   65.0610   80.5258 C   0  0  0  0  0  0  0  0  0  0  0  0
   -0.8857   63.9496   79.9629 N   0  0  0  0  0  0  0  0  0  0  0  0
   -0.5984   62.9469   80.7770 C   0  0  0  0  0  0  0  0  0  0  0  0
    0.1276   63.3911   81.8795 N   0  0  0  0  0  0  0  0  0  0  0  0
    0.3273   64.7350   81.6985 C   0  0  0  0  0  0  0  0  0  0  0  0
    1.0004   65.6617   82.4090 N   0  0  0  0  0  0  0  0  0  0  0  0
    1.6828   65.5435   83.6679 C   0  0  0  0  0  0  0  0  0  0  0  0
    2.2957   66.9578   83.8264 C   0  0  0  0  0  0  0  0  0  0  0  0
    1.7031   67.8098   82.7385 N   0  0  0  0  0  0  0  0  0  0  0  0
    1.0278   66.9746   81.9981 C   0  0  0  0  0  0  0  0  0  0  0  0
    1.7325   69.0632   79.7036 C   0  0  0  0  0  0  0  0  0  0  0  0
    0.4182   68.7519   80.4052 C   0  0  0  0  0  0  0  0  0  0  0  0
   -0.9864   61.5175   80.5204 C   0  0  0  0  0  0  0  0  0  0  0  0
   -1.4736   61.2435   79.1141 C   0  0  0  0  0  0  0  0  0  0  0  0
   -2.8255   60.9474   78.8813 C   0  0  0  0  0  0  0  0  0  0  0  0
   -3.2812   60.6826   77.5888 C   0  0  0  0  0  0  0  0  0  0  0  0
   -2.3902   60.6980   76.5176 C   0  0  0  0  0  0  0  0  0  0  0  0
   -1.0416   60.9699   76.7381 C   0  0  0  0  0  0  0  0  0  0  0  0
   -0.5836   61.2346   78.0295 C   0  0  0  0  0  0  0  0  0  0  0  0
    0.5253   62.5642   83.0078 C   0  0  0  0  0  0  0  0  0  0  0  0
   -0.4479   62.5978   84.1626 C   0  0  0  0  0  0  0  0  0  0  0  0
    0.0097   63.0078   85.4258 C   0  0  0  0  0  0  0  0  0  0  0  0
   -0.8490   63.0241   86.5262 C   0  0  0  0  0  0  0  0  0  0  0  0
   -2.1734   62.6192   86.3828 C   0  0  0  0  0  0  0  0  0  0  0  0
   -2.6382   62.1931   85.1412 C   0  0  0  0  0  0  0  0  0  0  0  0
   -1.7808   62.1753   84.0392 C   0  0  0  0  0  0  0  0  0  0  0  0
    3.8271   66.9286   83.6855 C   0  0  0  0  0  0  0  0  0  0  0  0
    4.5368   66.6004   84.9793 C   0  0  0  0  0  0  0  0  0  0  0  0
    4.7953   65.2690   85.3307 C   0  0  0  0  0  0  0  0  0  0  0  0
    5.4547   64.9645   86.5224 C   0  0  0  0  0  0  0  0  0  0  0  0
    5.8630   65.9880   87.3750 C   0  0  0  0  0  0  0  0  0  0  0  0
    5.6145   67.3163   87.0350 C   0  0  0  0  0  0  0  0  0  0  0  0
    4.9560   67.6225   85.8424 C   0  0  0  0  0  0  0  0  0  0  0  0
 14 15  1  0  0  0
 15  1  1  0  0  0
  1  2  1  0  0  0
  2  3  2  0  0  0
  2  4  1  0  0  0
  4  5  1  0  0  0
  5  6  2  0  0  0
  6 16  1  0  0  0
 16 17  1  0  0  0
 17 18  2  0  0  0
 18 19  1  0  0  0
 19 20  2  0  0  0
 20 21  1  0  0  0
 21 22  2  0  0  0
  6  7  1  0  0  0
  7 23  1  0  0  0
 23 24  1  0  0  0
 24 25  2  0  0  0
 25 26  1  0  0  0
 26 27  2  0  0  0
 27 28  1  0  0  0
 28 29  2  0  0  0
  7  8  1  0  0  0
  8  9  1  0  0  0
  9 10  1  0  0  0
 10 11  1  0  0  0
 11 30  1  0  0  0
 30 31  1  0  0  0
 31 32  2  0  0  0
 32 33  1  0  0  0
 33 34  2  0  0  0
 34 35  1  0  0  0
 35 36  2  0  0  0
 11 12  1  0  0  0
 12 13  2  0  0  0
 13  1  1  0  0  0
  8  4  2  0  0  0
 13  9  1  0  0  0
 22 17  1  0  0  0
 29 24  1  0  0  0
 36 31  1  0  0  0
M  END
> <minimizedAffinity>
-1.26086

$$$$



 36 41  0  0  0  0  0  0  0  0999 V2000
    1.1568   77.8201   84.5045 N   0  0  0  0  0  0  0  0  0  0  0  0
   -0.0416   77.6929   83.7663 C   0  0  0  0  0  0  0  0  0  0  0  0
   -1.0856   78.2659   84.0745 O   0  0  0  0  0  0  0  0  0  0  0  0
    0.0624   76.8264   82.5873 C   0  0  0  0  0  0  0  0  0  0  0  0
   -0.9142   76.5056   81.6823 N   0  0  0  0  0  0  0  0  0  0  0  0
   -0.3359   75.7131   80.7946 C   0  0  0  0  0  0  0  0  0  0  0  0
    0.9994   75.4884   81.1208 N   0  0  0  0  0  0  0  0  0  0  0  0
    1.2536   76.2236   82.2494 C   0  0  0  0  0  0  0  0  0  0  0  0
    2.3726   76.4298   82.9717 N   0  0  0  0  0  0  0  0  0  0  0  0
    3.6841   75.8616   82.8246 C   0  0  0  0  0  0  0  0  0  0  0  0
    4.4766   76.6132   83.9237 C   0  0  0  0  0  0  0  0  0  0  0  0
    3.4685   77.3746   84.7390 N   0  0  0  0  0  0  0  0  0  0  0  0
    2.3435   77.2222   84.0963 C   0  0  0  0  0  0  0  0  0  0  0  0
    0.7921   77.9000   86.9407 C   0  0  0  0  0  0  0  0  0  0  0  0
    1.1458   78.6783   85.6815 C   0  0  0  0  0  0  0  0  0  0  0  0
   -1.0317   75.1578   79.5834 C   0  0  0  0  0  0  0  0  0  0  0  0
   -1.3368   76.1818   78.5117 C   0  0  0  0  0  0  0  0  0  0  0  0
   -0.3558   77.1053   78.1192 C   0  0  0  0  0  0  0  0  0  0  0  0
   -0.6322   78.0601   77.1393 C   0  0  0  0  0  0  0  0  0  0  0  0
   -1.8941   78.1111   76.5506 C   0  0  0  0  0  0  0  0  0  0  0  0
   -2.8834   77.2134   76.9464 C   0  0  0  0  0  0  0  0  0  0  0  0
   -2.6095   76.2581   77.9261 C   0  0  0  0  0  0  0  0  0  0  0  0
    1.8962   74.5939   80.4063 C   0  0  0  0  0  0  0  0  0  0  0  0
    1.9727   73.2058   80.9970 C   0  0  0  0  0  0  0  0  0  0  0  0
    3.2122   72.5453   81.0237 C   0  0  0  0  0  0  0  0  0  0  0  0
    3.3211   71.2501   81.5326 C   0  0  0  0  0  0  0  0  0  0  0  0
    2.1911   70.5919   82.0106 C   0  0  0  0  0  0  0  0  0  0  0  0
    0.9518   71.2259   81.9751 C   0  0  0  0  0  0  0  0  0  0  0  0
    0.8404   72.5213   81.4657 C   0  0  0  0  0  0  0  0  0  0  0  0
    5.4964   77.5911   83.3158 C   0  0  0  0  0  0  0  0  0  0  0  0
    6.4194   76.9392   82.3116 C   0  0  0  0  0  0  0  0  0  0  0  0
    7.3467   75.9721   82.7211 C   0  0  0  0  0  0  0  0  0  0  0  0
    8.1961   75.3658   81.7946 C   0  0  0  0  0  0  0  0  0  0  0  0
    8.1269   75.7198   80.4488 C   0  0  0  0  0  0  0  0  0  0  0  0
    7.2067   76.6780   80.0286 C   0  0  0  0  0  0  0  0  0  0  0  0
    6.3553   77.2845   80.9544 C   0  0  0  0  0  0  0  0  0  0  0  0
 14 15  1  0  0  0
 15  1  1  0  0  0
  1  2  1  0  0  0
  2  3  2  0  0  0
  2  4  1  0  0  0
  4  5  1  0  0  0
  5  6  2  0  0  0
  6 16  1  0  0  0
 16 17  1  0  0  0
 17 18  2  0  0  0
 18 19  1  0  0  0
 19 20  2  0  0  0
 20 21  1  0  0  0
 21 22  2  0  0  0
  6  7  1  0  0  0
  7 23  1  0  0  0
 23 24  1  0  0  0
 24 25  2  0  0  0
 25 26  1  0  0  0
 26 27  2  0  0  0
 27 28  1  0  0  0
 28 29  2  0  0  0
  7  8  1  0  0  0
  8  9  1  0  0  0
  9 10  1  0  0  0
 10 11  1  0  0  0
 11 30  1  0  0  0
 30 31  1  0  0  0
 31 32  2  0  0  0
 32 33  1  0  0  0
 33 34  2  0  0  0
 34 35  1  0  0  0
 35 36  2  0  0  0
 11 12  1  0  0  0
 12 13  2  0  0  0
 13  1  1  0  0  0
  8  4  2  0  0  0
 13  9  1  0  0  0
 22 17  1  0  0  0
 29 24  1  0  0  0
 36 31  1  0  0  0
M  END
> <minimizedAffinity>
-1.23186

$$$$



 36 41  0  0  0  0  0  0  0  0999 V2000
    1.4191   71.4433   81.2486 N   0  0  0  0  0  0  0  0  0  0  0  0
    2.8290   71.3463   81.2569 C   0  0  0  0  0  0  0  0  0  0  0  0
    3.4294   70.2879   81.4379 O   0  0  0  0  0  0  0  0  0  0  0  0
    3.5249   72.6153   81.0185 C   0  0  0  0  0  0  0  0  0  0  0  0
    4.8740   72.8460   80.9692 N   0  0  0  0  0  0  0  0  0  0  0  0
    5.0091   74.1367   80.7112 C   0  0  0  0  0  0  0  0  0  0  0  0
    3.7671   74.7599   80.6177 N   0  0  0  0  0  0  0  0  0  0  0  0
    2.8252   73.7786   80.7871 C   0  0  0  0  0  0  0  0  0  0  0  0
    1.4782   73.7889   80.7429 N   0  0  0  0  0  0  0  0  0  0  0  0
    0.5684   74.8879   80.5734 C   0  0  0  0  0  0  0  0  0  0  0  0
   -0.7984   74.1595   80.5273 C   0  0  0  0  0  0  0  0  0  0  0  0
   -0.5379   72.7279   80.9059 N   0  0  0  0  0  0  0  0  0  0  0  0
    0.7619   72.6359   80.9690 C   0  0  0  0  0  0  0  0  0  0  0  0
    0.5574   69.3921   80.1884 C   0  0  0  0  0  0  0  0  0  0  0  0
    0.6496   70.2245   81.4592 C   0  0  0  0  0  0  0  0  0  0  0  0
    6.3332   74.8219   80.5190 C   0  0  0  0  0  0  0  0  0  0  0  0
    6.8113   74.8697   79.0840 C   0  0  0  0  0  0  0  0  0  0  0  0
    7.4729   76.0083   78.5988 C   0  0  0  0  0  0  0  0  0  0  0  0
    7.9076   76.0652   77.2736 C   0  0  0  0  0  0  0  0  0  0  0  0
    7.6751   74.9919   76.4160 C   0  0  0  0  0  0  0  0  0  0  0  0
    7.0009   73.8641   76.8796 C   0  0  0  0  0  0  0  0  0  0  0  0
    6.5651   73.8051   78.2040 C   0  0  0  0  0  0  0  0  0  0  0  0
    3.5590   76.1873   80.4326 C   0  0  0  0  0  0  0  0  0  0  0  0
    3.2849   76.9359   81.7157 C   0  0  0  0  0  0  0  0  0  0  0  0
    2.3045   77.9419   81.7200 C   0  0  0  0  0  0  0  0  0  0  0  0
    2.0414   78.6785   82.8762 C   0  0  0  0  0  0  0  0  0  0  0  0
    2.7626   78.4289   84.0406 C   0  0  0  0  0  0  0  0  0  0  0  0
    3.7501   77.4471   84.0483 C   0  0  0  0  0  0  0  0  0  0  0  0
    4.0155   76.7095   82.8927 C   0  0  0  0  0  0  0  0  0  0  0  0
   -1.4228   74.2186   79.1229 C   0  0  0  0  0  0  0  0  0  0  0  0
   -1.8324   75.6148   78.7128 C   0  0  0  0  0  0  0  0  0  0  0  0
   -2.6286   76.3993   79.5576 C   0  0  0  0  0  0  0  0  0  0  0  0
   -3.0035   77.6903   79.1827 C   0  0  0  0  0  0  0  0  0  0  0  0
   -2.5859   78.2105   77.9595 C   0  0  0  0  0  0  0  0  0  0  0  0
   -1.7912   77.4412   77.1120 C   0  0  0  0  0  0  0  0  0  0  0  0
   -1.4142   76.1499   77.4864 C   0  0  0  0  0  0  0  0  0  0  0  0
 14 15  1  0  0  0
 15  1  1  0  0  0
  1  2  1  0  0  0
  2  3  2  0  0  0
  2  4  1  0  0  0
  4  5  1  0  0  0
  5  6  2  0  0  0
  6 16  1  0  0  0
 16 17  1  0  0  0
 17 18  2  0  0  0
 18 19  1  0  0  0
 19 20  2  0  0  0
 20 21  1  0  0  0
 21 22  2  0  0  0
  6  7  1  0  0  0
  7 23  1  0  0  0
 23 24  1  0  0  0
 24 25  2  0  0  0
 25 26  1  0  0  0
 26 27  2  0  0  0
 27 28  1  0  0  0
 28 29  2  0  0  0
  7  8  1  0  0  0
  8  9  1  0  0  0
  9 10  1  0  0  0
 10 11  1  0  0  0
 11 30  1  0  0  0
 30 31  1  0  0  0
 31 32  2  0  0  0
 32 33  1  0  0  0
 33 34  2  0  0  0
 34 35  1  0  0  0
 35 36  2  0  0  0
 11 12  1  0  0  0
 12 13  2  0  0  0
 13  1  1  0  0  0
  8  4  2  0  0  0
 13  9  1  0  0  0
 22 17  1  0  0  0
 29 24  1  0  0  0
 36 31  1  0  0  0
M  END
> <minimizedAffinity>
-1.19119

$$$$



 36 41  0  0  0  0  0  0  0  0999 V2000
    0.7634   68.3737   80.5659 N   0  0  0  0  0  0  0  0  0  0  0  0
   -0.1215   69.3920   80.1447 C   0  0  0  0  0  0  0  0  0  0  0  0
   -1.0567   69.1928   79.3706 O   0  0  0  0  0  0  0  0  0  0  0  0
    0.1583   70.7129   80.7179 C   0  0  0  0  0  0  0  0  0  0  0  0
   -0.5112   71.8885   80.5047 N   0  0  0  0  0  0  0  0  0  0  0  0
    0.1016   72.7921   81.2522 C   0  0  0  0  0  0  0  0  0  0  0  0
    1.1802   72.2303   81.9310 N   0  0  0  0  0  0  0  0  0  0  0  0
    1.1932   70.8985   81.6072 C   0  0  0  0  0  0  0  0  0  0  0  0
    1.9680   69.8699   82.0049 N   0  0  0  0  0  0  0  0  0  0  0  0
    3.1163   69.8592   82.8685 C   0  0  0  0  0  0  0  0  0  0  0  0
    3.4318   68.3444   82.9521 C   0  0  0  0  0  0  0  0  0  0  0  0
    2.5575   67.6643   81.9353 N   0  0  0  0  0  0  0  0  0  0  0  0
    1.7679   68.6063   81.4982 C   0  0  0  0  0  0  0  0  0  0  0  0
   -0.4791   66.2705   80.8928 C   0  0  0  0  0  0  0  0  0  0  0  0
    0.5448   67.0261   80.0579 C   0  0  0  0  0  0  0  0  0  0  0  0
   -0.3356   74.2258   81.3662 C   0  0  0  0  0  0  0  0  0  0  0  0
   -0.5504   74.9226   80.0401 C   0  0  0  0  0  0  0  0  0  0  0  0
    0.4730   75.7020   79.4792 C   0  0  0  0  0  0  0  0  0  0  0  0
    0.2795   76.3570   78.2618 C   0  0  0  0  0  0  0  0  0  0  0  0
   -0.9413   76.2511   77.5985 C   0  0  0  0  0  0  0  0  0  0  0  0
   -1.9726   75.4973   78.1550 C   0  0  0  0  0  0  0  0  0  0  0  0
   -1.7816   74.8419   79.3722 C   0  0  0  0  0  0  0  0  0  0  0  0
    2.1179   72.9647   82.7655 C   0  0  0  0  0  0  0  0  0  0  0  0
    3.2655   73.5793   81.9993 C   0  0  0  0  0  0  0  0  0  0  0  0
    3.7213   74.8565   82.3657 C   0  0  0  0  0  0  0  0  0  0  0  0
    4.7587   75.4735   81.6645 C   0  0  0  0  0  0  0  0  0  0  0  0
    5.3469   74.8284   80.5799 C   0  0  0  0  0  0  0  0  0  0  0  0
    4.8949   73.5695   80.1927 C   0  0  0  0  0  0  0  0  0  0  0  0
    3.8568   72.9507   80.8922 C   0  0  0  0  0  0  0  0  0  0  0  0
    3.1325   67.7817   84.3519 C   0  0  0  0  0  0  0  0  0  0  0  0
    4.3252   67.1047   84.9879 C   0  0  0  0  0  0  0  0  0  0  0  0
    5.5465   67.7807   85.1076 C   0  0  0  0  0  0  0  0  0  0  0  0
    6.6471   67.1589   85.6988 C   0  0  0  0  0  0  0  0  0  0  0  0
    6.5380   65.8548   86.1769 C   0  0  0  0  0  0  0  0  0  0  0  0
    5.3278   65.1730   86.0665 C   0  0  0  0  0  0  0  0  0  0  0  0
    4.2254   65.7945   85.4764 C   0  0  0  0  0  0  0  0  0  0  0  0
 14 15  1  0  0  0
 15  1  1  0  0  0
  1  2  1  0  0  0
  2  3  2  0  0  0
  2  4  1  0  0  0
  4  5  1  0  0  0
  5  6  2  0  0  0
  6 16  1  0  0  0
 16 17  1  0  0  0
 17 18  2  0  0  0
 18 19  1  0  0  0
 19 20  2  0  0  0
 20 21  1  0  0  0
 21 22  2  0  0  0
  6  7  1  0  0  0
  7 23  1  0  0  0
 23 24  1  0  0  0
 24 25  2  0  0  0
 25 26  1  0  0  0
 26 27  2  0  0  0
 27 28  1  0  0  0
 28 29  2  0  0  0
  7  8  1  0  0  0
  8  9  1  0  0  0
  9 10  1  0  0  0
 10 11  1  0  0  0
 11 30  1  0  0  0
 30 31  1  0  0  0
 31 32  2  0  0  0
 32 33  1  0  0  0
 33 34  2  0  0  0
 34 35  1  0  0  0
 35 36  2  0  0  0
 11 12  1  0  0  0
 12 13  2  0  0  0
 13  1  1  0  0  0
  8  4  2  0  0  0
 13  9  1  0  0  0
 22 17  1  0  0  0
 29 24  1  0  0  0
 36 31  1  0  0  0
M  END
> <minimizedAffinity>
-1.16867

$$$$



 36 41  0  0  0  0  0  0  0  0999 V2000
   -0.2761   74.8868   80.6438 N   0  0  0  0  0  0  0  0  0  0  0  0
   -0.2510   76.2298   81.0830 C   0  0  0  0  0  0  0  0  0  0  0  0
   -1.1353   77.0419   80.8146 O   0  0  0  0  0  0  0  0  0  0  0  0
    0.9158   76.5780   81.9007 C   0  0  0  0  0  0  0  0  0  0  0  0
    1.2243   77.7865   82.4664 N   0  0  0  0  0  0  0  0  0  0  0  0
    2.3598   77.5989   83.1192 C   0  0  0  0  0  0  0  0  0  0  0  0
    2.8135   76.2910   82.9663 N   0  0  0  0  0  0  0  0  0  0  0  0
    1.8737   75.6386   82.2113 C   0  0  0  0  0  0  0  0  0  0  0  0
    1.7601   74.3600   81.8002 N   0  0  0  0  0  0  0  0  0  0  0  0
    2.6615   73.2535   81.9659 C   0  0  0  0  0  0  0  0  0  0  0  0
    1.8525   72.0926   81.3345 C   0  0  0  0  0  0  0  0  0  0  0  0
    0.6570   72.7128   80.6660 N   0  0  0  0  0  0  0  0  0  0  0  0
    0.6964   73.9676   81.0204 C   0  0  0  0  0  0  0  0  0  0  0  0
   -1.2056   74.7608   78.3647 C   0  0  0  0  0  0  0  0  0  0  0  0
   -1.4111   74.4521   79.8408 C   0  0  0  0  0  0  0  0  0  0  0  0
    3.0448   78.6580   83.9369 C   0  0  0  0  0  0  0  0  0  0  0  0
    2.6768   78.6518   85.4048 C   0  0  0  0  0  0  0  0  0  0  0  0
    1.3286   78.6701   85.7939 C   0  0  0  0  0  0  0  0  0  0  0  0
    0.9805   78.6755   87.1456 C   0  0  0  0  0  0  0  0  0  0  0  0
    1.9742   78.6758   88.1223 C   0  0  0  0  0  0  0  0  0  0  0  0
    3.3167   78.6788   87.7493 C   0  0  0  0  0  0  0  0  0  0  0  0
    3.6671   78.6738   86.3985 C   0  0  0  0  0  0  0  0  0  0  0  0
    4.0742   75.7774   83.4779 C   0  0  0  0  0  0  0  0  0  0  0  0
    5.2320   75.9368   82.5209 C   0  0  0  0  0  0  0  0  0  0  0  0
    4.9682   76.0339   81.1446 C   0  0  0  0  0  0  0  0  0  0  0  0
    6.0106   76.1513   80.2237 C   0  0  0  0  0  0  0  0  0  0  0  0
    7.3314   76.1608   80.6637 C   0  0  0  0  0  0  0  0  0  0  0  0
    7.6108   76.0478   82.0232 C   0  0  0  0  0  0  0  0  0  0  0  0
    6.5696   75.9295   82.9462 C   0  0  0  0  0  0  0  0  0  0  0  0
    1.3861   71.0849   82.3989 C   0  0  0  0  0  0  0  0  0  0  0  0
    1.5104   69.6466   81.9505 C   0  0  0  0  0  0  0  0  0  0  0  0
    0.8814   69.2106   80.7769 C   0  0  0  0  0  0  0  0  0  0  0  0
    0.9991   67.8843   80.3590 C   0  0  0  0  0  0  0  0  0  0  0  0
    1.7474   66.9801   81.1098 C   0  0  0  0  0  0  0  0  0  0  0  0
    2.3804   67.4024   82.2772 C   0  0  0  0  0  0  0  0  0  0  0  0
    2.2645   68.7294   82.6958 C   0  0  0  0  0  0  0  0  0  0  0  0
 14 15  1  0  0  0
 15  1  1  0  0  0
  1  2  1  0  0  0
  2  3  2  0  0  0
  2  4  1  0  0  0
  4  5  1  0  0  0
  5  6  2  0  0  0
  6 16  1  0  0  0
 16 17  1  0  0  0
 17 18  2  0  0  0
 18 19  1  0  0  0
 19 20  2  0  0  0
 20 21  1  0  0  0
 21 22  2  0  0  0
  6  7  1  0  0  0
  7 23  1  0  0  0
 23 24  1  0  0  0
 24 25  2  0  0  0
 25 26  1  0  0  0
 26 27  2  0  0  0
 27 28  1  0  0  0
 28 29  2  0  0  0
  7  8  1  0  0  0
  8  9  1  0  0  0
  9 10  1  0  0  0
 10 11  1  0  0  0
 11 30  1  0  0  0
 30 31  1  0  0  0
 31 32  2  0  0  0
 32 33  1  0  0  0
 33 34  2  0  0  0
 34 35  1  0  0  0
 35 36  2  0  0  0
 11 12  1  0  0  0
 12 13  2  0  0  0
 13  1  1  0  0  0
  8  4  2  0  0  0
 13  9  1  0  0  0
 22 17  1  0  0  0
 29 24  1  0  0  0
 36 31  1  0  0  0
M  END
> <minimizedAffinity>
-1.16089

$$$$
