


 30 32  0  0  0  0  0  0  0  0999 V2000
   -1.3723   62.8578   82.3563 C   0  0  0  0  0  0  0  0  0  0  0  0
   -2.0511   61.7822   81.7668 C   0  0  0  0  0  0  0  0  0  0  0  0
   -1.7365   61.3545   80.4738 C   0  0  0  0  0  0  0  0  0  0  0  0
   -0.7383   61.9938   79.7370 C   0  0  0  0  0  0  0  0  0  0  0  0
   -0.0608   63.0728   80.3181 C   0  0  0  0  0  0  0  0  0  0  0  0
   -0.3629   63.5173   81.6220 C   0  0  0  0  0  0  0  0  0  0  0  0
    0.4427   64.6826   82.1400 C   0  0  0  0  0  0  0  0  0  0  0  0
    0.4708   65.7990   81.4606 N   0  0  0  0  0  0  0  0  0  0  0  0
    1.2459   66.8026   82.0439 C   0  0  0  0  0  0  0  0  0  0  0  0
    1.4992   68.1133   81.6078 C   0  0  0  0  0  0  0  0  0  0  0  0
    2.3049   68.7542   82.4761 N   0  0  0  0  0  0  0  0  0  0  0  0
    2.5451   67.8340   83.4433 N   0  0  0  0  0  0  0  0  0  0  0  0
    3.3888   68.1708   84.5645 C   0  0  0  0  0  0  0  0  0  0  0  0
    1.9218   66.6477   83.2161 C   0  0  0  0  0  0  0  0  0  0  0  0
    1.9012   65.4418   83.9573 C   0  0  0  0  0  0  0  0  0  0  0  0
    2.4928   65.2353   85.0101 O   0  0  0  0  0  0  0  0  0  0  0  0
    1.1175   64.4936   83.3419 N   0  0  0  0  0  0  0  0  0  0  0  0
    1.0651   63.5966   83.8073 H   0  0  0  0  0  0  0  0  0  0  0  0
    0.9996   68.7952   80.3835 C   0  0  0  0  0  0  0  0  0  0  0  0
    0.7123   70.2700   80.6197 C   0  0  0  0  0  0  0  0  0  0  0  0
   -1.6425   63.3132   83.6224 O   0  0  0  0  0  0  0  0  0  0  0  0
   -0.9602   62.4753   85.7440 C   0  0  0  0  0  0  0  0  0  0  0  0
   -1.9827   62.3561   84.6281 C   0  0  0  0  0  0  0  0  0  0  0  0
   -0.3901   61.5220   78.3472 C   0  0  0  0  0  0  0  0  0  0  0  0
   -1.6167   61.3177   77.4836 C   0  0  0  0  0  0  0  0  0  0  0  0
   -2.3680   62.2326   77.1477 O   0  0  0  0  0  0  0  0  0  0  0  0
   -1.8344   60.0115   77.1010 N   0  0  0  0  0  0  0  0  0  0  0  0
   -3.0559   59.7972   76.4136 O   0  0  0  0  0  0  0  0  0  0  0  0
   -1.5274   59.2440   77.6918 H   0  0  0  0  0  0  0  0  0  0  0  0
   -3.4240   60.7057   76.3425 H   0  0  0  0  0  0  0  0  0  0  0  0
 22 23  1  0  0  0
 23 21  1  0  0  0
 21  1  1  0  0  0
  1  2  1  0  0  0
  2  3  2  0  0  0
  3  4  1  0  0  0
  4 24  1  0  0  0
 24 25  1  0  0  0
 25 26  2  0  0  0
 25 27  1  0  0  0
 27 28  1  0  0  0
  4  5  2  0  0  0
  5  6  1  0  0  0
  6  7  1  0  0  0
  7  8  2  0  0  0
  8  9  1  0  0  0
  9 10  1  0  0  0
 10 19  1  0  0  0
 19 20  1  0  0  0
 10 11  2  0  0  0
 11 12  1  0  0  0
 12 13  1  0  0  0
 12 14  1  0  0  0
 14 15  1  0  0  0
 15 16  2  0  0  0
 15 17  1  0  0  0
  6  1  2  0  0  0
 17  7  1  0  0  0
 14  9  2  0  0  0
 27 29  1  0  0  0
 28 30  1  0  0  0
 17 18  1  0  0  0
M  END
> <minimizedAffinity>
-1.56618

$$$$



 30 32  0  0  0  0  0  0  0  0999 V2000
   -0.3109   64.6901   79.5950 C   0  0  0  0  0  0  0  0  0  0  0  0
   -0.3855   64.5394   78.2034 C   0  0  0  0  0  0  0  0  0  0  0  0
   -0.5440   63.2775   77.6237 C   0  0  0  0  0  0  0  0  0  0  0  0
   -0.6282   62.1348   78.4208 C   0  0  0  0  0  0  0  0  0  0  0  0
   -0.5482   62.2783   79.8115 C   0  0  0  0  0  0  0  0  0  0  0  0
   -0.3902   63.5433   80.4146 C   0  0  0  0  0  0  0  0  0  0  0  0
   -0.3267   63.5681   81.9213 C   0  0  0  0  0  0  0  0  0  0  0  0
    0.6137   64.2549   82.5153 N   0  0  0  0  0  0  0  0  0  0  0  0
    0.5643   64.2033   83.9092 C   0  0  0  0  0  0  0  0  0  0  0  0
    1.3956   64.8125   84.8632 C   0  0  0  0  0  0  0  0  0  0  0  0
    0.9923   64.5022   86.1102 N   0  0  0  0  0  0  0  0  0  0  0  0
   -0.0858   63.7017   85.9181 N   0  0  0  0  0  0  0  0  0  0  0  0
   -0.7952   63.1639   87.0538 C   0  0  0  0  0  0  0  0  0  0  0  0
   -0.3731   63.5017   84.6048 C   0  0  0  0  0  0  0  0  0  0  0  0
   -1.3930   62.7516   83.9714 C   0  0  0  0  0  0  0  0  0  0  0  0
   -2.2577   62.0933   84.5372 O   0  0  0  0  0  0  0  0  0  0  0  0
   -1.3011   62.8452   82.6021 N   0  0  0  0  0  0  0  0  0  0  0  0
   -1.9907   62.3218   82.0782 H   0  0  0  0  0  0  0  0  0  0  0  0
    2.5741   65.6923   84.6383 C   0  0  0  0  0  0  0  0  0  0  0  0
    2.1736   67.1014   84.2289 C   0  0  0  0  0  0  0  0  0  0  0  0
   -0.1582   65.9067   80.2116 O   0  0  0  0  0  0  0  0  0  0  0  0
    0.6452   68.1479   80.2205 C   0  0  0  0  0  0  0  0  0  0  0  0
    0.9683   66.7105   79.8538 C   0  0  0  0  0  0  0  0  0  0  0  0
   -0.8135   60.7751   77.7946 C   0  0  0  0  0  0  0  0  0  0  0  0
   -2.2633   60.3388   77.7826 C   0  0  0  0  0  0  0  0  0  0  0  0
   -3.0024   60.4728   76.8078 O   0  0  0  0  0  0  0  0  0  0  0  0
   -2.7002   59.7773   78.9632 N   0  0  0  0  0  0  0  0  0  0  0  0
   -4.0901   59.4992   79.0016 O   0  0  0  0  0  0  0  0  0  0  0  0
   -2.2876   60.0552   79.8491 H   0  0  0  0  0  0  0  0  0  0  0  0
   -4.3838   59.7499   78.0978 H   0  0  0  0  0  0  0  0  0  0  0  0
 22 23  1  0  0  0
 23 21  1  0  0  0
 21  1  1  0  0  0
  1  2  1  0  0  0
  2  3  2  0  0  0
  3  4  1  0  0  0
  4 24  1  0  0  0
 24 25  1  0  0  0
 25 26  2  0  0  0
 25 27  1  0  0  0
 27 28  1  0  0  0
  4  5  2  0  0  0
  5  6  1  0  0  0
  6  7  1  0  0  0
  7  8  2  0  0  0
  8  9  1  0  0  0
  9 10  1  0  0  0
 10 19  1  0  0  0
 19 20  1  0  0  0
 10 11  2  0  0  0
 11 12  1  0  0  0
 12 13  1  0  0  0
 12 14  1  0  0  0
 14 15  1  0  0  0
 15 16  2  0  0  0
 15 17  1  0  0  0
  6  1  2  0  0  0
 17  7  1  0  0  0
 14  9  2  0  0  0
 27 29  1  0  0  0
 28 30  1  0  0  0
 17 18  1  0  0  0
M  END
> <minimizedAffinity>
-1.50639

$$$$



 30 32  0  0  0  0  0  0  0  0999 V2000
   -0.2441   63.1818   80.3314 C   0  0  0  0  0  0  0  0  0  0  0  0
   -0.8606   61.9233   80.3664 C   0  0  0  0  0  0  0  0  0  0  0  0
   -1.5354   61.4842   81.5090 C   0  0  0  0  0  0  0  0  0  0  0  0
   -1.6073   62.2907   82.6458 C   0  0  0  0  0  0  0  0  0  0  0  0
   -0.9883   63.5465   82.6191 C   0  0  0  0  0  0  0  0  0  0  0  0
   -0.3046   64.0074   81.4749 C   0  0  0  0  0  0  0  0  0  0  0  0
    0.3124   65.3807   81.5666 C   0  0  0  0  0  0  0  0  0  0  0  0
    1.3023   65.5883   82.3948 N   0  0  0  0  0  0  0  0  0  0  0  0
    1.7898   66.8962   82.3851 C   0  0  0  0  0  0  0  0  0  0  0  0
    2.8333   67.4741   83.1263 C   0  0  0  0  0  0  0  0  0  0  0  0
    2.9779   68.7744   82.8066 N   0  0  0  0  0  0  0  0  0  0  0  0
    2.0211   68.9916   81.8699 N   0  0  0  0  0  0  0  0  0  0  0  0
    1.8718   70.3015   81.2831 C   0  0  0  0  0  0  0  0  0  0  0  0
    1.2879   67.8818   81.5905 C   0  0  0  0  0  0  0  0  0  0  0  0
    0.2138   67.6686   80.6933 C   0  0  0  0  0  0  0  0  0  0  0  0
   -0.2887   68.5121   79.9605 O   0  0  0  0  0  0  0  0  0  0  0  0
   -0.2199   66.3640   80.7386 N   0  0  0  0  0  0  0  0  0  0  0  0
   -0.9980   66.1378   80.1325 H   0  0  0  0  0  0  0  0  0  0  0  0
    3.7146   66.8342   84.1399 C   0  0  0  0  0  0  0  0  0  0  0  0
    4.6126   67.8406   84.8428 C   0  0  0  0  0  0  0  0  0  0  0  0
    0.4276   63.6588   79.2337 O   0  0  0  0  0  0  0  0  0  0  0  0
   -0.9659   64.0575   77.3448 C   0  0  0  0  0  0  0  0  0  0  0  0
    0.0807   63.1381   77.9485 C   0  0  0  0  0  0  0  0  0  0  0  0
   -2.3481   61.8213   83.8731 C   0  0  0  0  0  0  0  0  0  0  0  0
   -1.6244   62.1772   85.1545 C   0  0  0  0  0  0  0  0  0  0  0  0
   -0.4555   61.8658   85.3805 O   0  0  0  0  0  0  0  0  0  0  0  0
   -2.3851   62.8813   86.0631 N   0  0  0  0  0  0  0  0  0  0  0  0
   -1.7567   63.0912   87.3167 O   0  0  0  0  0  0  0  0  0  0  0  0
   -3.3928   62.7563   86.0972 H   0  0  0  0  0  0  0  0  0  0  0  0
   -0.8668   62.6974   87.1789 H   0  0  0  0  0  0  0  0  0  0  0  0
 22 23  1  0  0  0
 23 21  1  0  0  0
 21  1  1  0  0  0
  1  2  1  0  0  0
  2  3  2  0  0  0
  3  4  1  0  0  0
  4 24  1  0  0  0
 24 25  1  0  0  0
 25 26  2  0  0  0
 25 27  1  0  0  0
 27 28  1  0  0  0
  4  5  2  0  0  0
  5  6  1  0  0  0
  6  7  1  0  0  0
  7  8  2  0  0  0
  8  9  1  0  0  0
  9 10  1  0  0  0
 10 19  1  0  0  0
 19 20  1  0  0  0
 10 11  2  0  0  0
 11 12  1  0  0  0
 12 13  1  0  0  0
 12 14  1  0  0  0
 14 15  1  0  0  0
 15 16  2  0  0  0
 15 17  1  0  0  0
  6  1  2  0  0  0
 17  7  1  0  0  0
 14  9  2  0  0  0
 27 29  1  0  0  0
 28 30  1  0  0  0
 17 18  1  0  0  0
M  END
> <minimizedAffinity>
-1.44659

$$$$



 30 32  0  0  0  0  0  0  0  0999 V2000
    1.9682   67.6473   82.4197 C   0  0  0  0  0  0  0  0  0  0  0  0
    2.8797   68.6628   82.7405 C   0  0  0  0  0  0  0  0  0  0  0  0
    3.7844   68.5109   83.7951 C   0  0  0  0  0  0  0  0  0  0  0  0
    3.7977   67.3416   84.5571 C   0  0  0  0  0  0  0  0  0  0  0  0
    2.8854   66.3259   84.2453 C   0  0  0  0  0  0  0  0  0  0  0  0
    1.9665   66.4603   83.1839 C   0  0  0  0  0  0  0  0  0  0  0  0
    1.0420   65.2935   82.9415 C   0  0  0  0  0  0  0  0  0  0  0  0
    0.7816   64.9218   81.7156 N   0  0  0  0  0  0  0  0  0  0  0  0
   -0.0822   63.8294   81.6217 C   0  0  0  0  0  0  0  0  0  0  0  0
   -0.5719   63.1631   80.4866 C   0  0  0  0  0  0  0  0  0  0  0  0
   -1.3844   62.1506   80.8452 N   0  0  0  0  0  0  0  0  0  0  0  0
   -1.3921   62.1988   82.2008 N   0  0  0  0  0  0  0  0  0  0  0  0
   -2.1724   61.2446   82.9511 C   0  0  0  0  0  0  0  0  0  0  0  0
   -0.6174   63.1966   82.7024 C   0  0  0  0  0  0  0  0  0  0  0  0
   -0.3450   63.5936   84.0337 C   0  0  0  0  0  0  0  0  0  0  0  0
   -0.8003   63.0744   85.0458 O   0  0  0  0  0  0  0  0  0  0  0  0
    0.5158   64.6660   84.0662 N   0  0  0  0  0  0  0  0  0  0  0  0
    0.7470   65.0168   84.9867 H   0  0  0  0  0  0  0  0  0  0  0  0
   -0.2957   63.4497   79.0530 C   0  0  0  0  0  0  0  0  0  0  0  0
   -0.9233   62.4197   78.1264 C   0  0  0  0  0  0  0  0  0  0  0  0
    1.0627   67.7476   81.3932 O   0  0  0  0  0  0  0  0  0  0  0  0
    0.0846   69.7438   80.5404 C   0  0  0  0  0  0  0  0  0  0  0  0
    1.2514   68.7796   80.4223 C   0  0  0  0  0  0  0  0  0  0  0  0
    4.7841   67.1732   85.6857 C   0  0  0  0  0  0  0  0  0  0  0  0
    5.9764   66.3289   85.2881 C   0  0  0  0  0  0  0  0  0  0  0  0
    5.9863   65.0999   85.3504 O   0  0  0  0  0  0  0  0  0  0  0  0
    7.0661   67.0503   84.8501 N   0  0  0  0  0  0  0  0  0  0  0  0
    8.2279   66.2726   84.6131 O   0  0  0  0  0  0  0  0  0  0  0  0
    7.2352   67.9898   85.1980 H   0  0  0  0  0  0  0  0  0  0  0  0
    7.9126   65.3581   84.7865 H   0  0  0  0  0  0  0  0  0  0  0  0
 22 23  1  0  0  0
 23 21  1  0  0  0
 21  1  1  0  0  0
  1  2  1  0  0  0
  2  3  2  0  0  0
  3  4  1  0  0  0
  4 24  1  0  0  0
 24 25  1  0  0  0
 25 26  2  0  0  0
 25 27  1  0  0  0
 27 28  1  0  0  0
  4  5  2  0  0  0
  5  6  1  0  0  0
  6  7  1  0  0  0
  7  8  2  0  0  0
  8  9  1  0  0  0
  9 10  1  0  0  0
 10 19  1  0  0  0
 19 20  1  0  0  0
 10 11  2  0  0  0
 11 12  1  0  0  0
 12 13  1  0  0  0
 12 14  1  0  0  0
 14 15  1  0  0  0
 15 16  2  0  0  0
 15 17  1  0  0  0
  6  1  2  0  0  0
 17  7  1  0  0  0
 14  9  2  0  0  0
 27 29  1  0  0  0
 28 30  1  0  0  0
 17 18  1  0  0  0
M  END
> <minimizedAffinity>
-1.41564

$$$$



 30 32  0  0  0  0  0  0  0  0999 V2000
   -1.1060   62.7121   83.8094 C   0  0  0  0  0  0  0  0  0  0  0  0
   -1.9709   61.6334   83.5781 C   0  0  0  0  0  0  0  0  0  0  0  0
   -2.3719   61.2978   82.2818 C   0  0  0  0  0  0  0  0  0  0  0  0
   -1.9212   62.0345   81.1853 C   0  0  0  0  0  0  0  0  0  0  0  0
   -1.0619   63.1169   81.4105 C   0  0  0  0  0  0  0  0  0  0  0  0
   -0.6449   63.4695   82.7108 C   0  0  0  0  0  0  0  0  0  0  0  0
    0.2887   64.6489   82.8223 C   0  0  0  0  0  0  0  0  0  0  0  0
    0.1632   65.6506   81.9918 N   0  0  0  0  0  0  0  0  0  0  0  0
    1.0810   66.6817   82.1985 C   0  0  0  0  0  0  0  0  0  0  0  0
    1.2392   67.8976   81.5138 C   0  0  0  0  0  0  0  0  0  0  0  0
    2.2526   68.6104   82.0418 N   0  0  0  0  0  0  0  0  0  0  0  0
    2.7148   67.8289   83.0497 N   0  0  0  0  0  0  0  0  0  0  0  0
    3.8238   68.2762   83.8573 C   0  0  0  0  0  0  0  0  0  0  0  0
    2.0314   66.6606   83.1737 C   0  0  0  0  0  0  0  0  0  0  0  0
    2.1783   65.5793   84.0755 C   0  0  0  0  0  0  0  0  0  0  0  0
    3.0158   65.4946   84.9657 O   0  0  0  0  0  0  0  0  0  0  0  0
    1.2451   64.5986   83.8315 N   0  0  0  0  0  0  0  0  0  0  0  0
    1.2965   63.7838   84.4294 H   0  0  0  0  0  0  0  0  0  0  0  0
    0.4558   68.4212   80.3624 C   0  0  0  0  0  0  0  0  0  0  0  0
    0.2610   69.9280   80.4334 C   0  0  0  0  0  0  0  0  0  0  0  0
   -0.6819   63.0795   85.0618 O   0  0  0  0  0  0  0  0  0  0  0  0
   -0.4280   62.8563   87.4186 C   0  0  0  0  0  0  0  0  0  0  0  0
   -0.9835   62.2151   86.1595 C   0  0  0  0  0  0  0  0  0  0  0  0
   -2.3434   61.6623   79.7859 C   0  0  0  0  0  0  0  0  0  0  0  0
   -1.2577   61.9312   78.7655 C   0  0  0  0  0  0  0  0  0  0  0  0
   -0.1573   61.3807   78.7871 O   0  0  0  0  0  0  0  0  0  0  0  0
   -1.5972   62.8552   77.8006 N   0  0  0  0  0  0  0  0  0  0  0  0
   -0.5358   63.2126   76.9311 O   0  0  0  0  0  0  0  0  0  0  0  0
   -2.2574   63.5987   78.0095 H   0  0  0  0  0  0  0  0  0  0  0  0
    0.1953   62.6302   77.2348 H   0  0  0  0  0  0  0  0  0  0  0  0
 22 23  1  0  0  0
 23 21  1  0  0  0
 21  1  1  0  0  0
  1  2  1  0  0  0
  2  3  2  0  0  0
  3  4  1  0  0  0
  4 24  1  0  0  0
 24 25  1  0  0  0
 25 26  2  0  0  0
 25 27  1  0  0  0
 27 28  1  0  0  0
  4  5  2  0  0  0
  5  6  1  0  0  0
  6  7  1  0  0  0
  7  8  2  0  0  0
  8  9  1  0  0  0
  9 10  1  0  0  0
 10 19  1  0  0  0
 19 20  1  0  0  0
 10 11  2  0  0  0
 11 12  1  0  0  0
 12 13  1  0  0  0
 12 14  1  0  0  0
 14 15  1  0  0  0
 15 16  2  0  0  0
 15 17  1  0  0  0
  6  1  2  0  0  0
 17  7  1  0  0  0
 14  9  2  0  0  0
 27 29  1  0  0  0
 28 30  1  0  0  0
 17 18  1  0  0  0
M  END
> <minimizedAffinity>
-1.34394

$$$$



 30 32  0  0  0  0  0  0  0  0999 V2000
    0.6502   64.7639   82.1023 C   0  0  0  0  0  0  0  0  0  0  0  0
    1.3147   65.8221   82.7375 C   0  0  0  0  0  0  0  0  0  0  0  0
    1.5420   67.0310   82.0737 C   0  0  0  0  0  0  0  0  0  0  0  0
    1.1138   67.2104   80.7574 C   0  0  0  0  0  0  0  0  0  0  0  0
    0.4547   66.1547   80.1154 C   0  0  0  0  0  0  0  0  0  0  0  0
    0.2147   64.9285   80.7695 C   0  0  0  0  0  0  0  0  0  0  0  0
   -0.5126   63.8725   79.9753 C   0  0  0  0  0  0  0  0  0  0  0  0
   -1.3762   63.0959   80.5753 N   0  0  0  0  0  0  0  0  0  0  0  0
   -1.9857   62.1634   79.7344 C   0  0  0  0  0  0  0  0  0  0  0  0
   -2.9521   61.1862   80.0233 C   0  0  0  0  0  0  0  0  0  0  0  0
   -3.2725   60.4939   78.9134 N   0  0  0  0  0  0  0  0  0  0  0  0
   -2.5003   61.0478   77.9454 N   0  0  0  0  0  0  0  0  0  0  0  0
   -2.5746   60.5512   76.5926 C   0  0  0  0  0  0  0  0  0  0  0  0
   -1.7141   62.0572   78.4041 C   0  0  0  0  0  0  0  0  0  0  0  0
   -0.7781   62.8904   77.7456 C   0  0  0  0  0  0  0  0  0  0  0  0
   -0.4821   62.8400   76.5577 O   0  0  0  0  0  0  0  0  0  0  0  0
   -0.2161   63.7930   78.6183 N   0  0  0  0  0  0  0  0  0  0  0  0
    0.4760   64.4158   78.2219 H   0  0  0  0  0  0  0  0  0  0  0  0
   -3.5964   60.8778   81.3284 C   0  0  0  0  0  0  0  0  0  0  0  0
   -2.7262   59.9928   82.2077 C   0  0  0  0  0  0  0  0  0  0  0  0
    0.4011   63.5597   82.7116 O   0  0  0  0  0  0  0  0  0  0  0  0
   -0.6855   62.3167   84.4272 C   0  0  0  0  0  0  0  0  0  0  0  0
    0.1390   63.5532   84.1168 C   0  0  0  0  0  0  0  0  0  0  0  0
    1.3471   68.5205   80.0471 C   0  0  0  0  0  0  0  0  0  0  0  0
    1.0033   69.7144   80.9122 C   0  0  0  0  0  0  0  0  0  0  0  0
   -0.1455   69.9952   81.2526 O   0  0  0  0  0  0  0  0  0  0  0  0
    2.0878   70.4764   81.2908 N   0  0  0  0  0  0  0  0  0  0  0  0
    1.7545   71.6700   81.9797 O   0  0  0  0  0  0  0  0  0  0  0  0
    2.9102   70.5322   80.6968 H   0  0  0  0  0  0  0  0  0  0  0  0
    0.7765   71.6083   82.0545 H   0  0  0  0  0  0  0  0  0  0  0  0
 22 23  1  0  0  0
 23 21  1  0  0  0
 21  1  1  0  0  0
  1  2  1  0  0  0
  2  3  2  0  0  0
  3  4  1  0  0  0
  4 24  1  0  0  0
 24 25  1  0  0  0
 25 26  2  0  0  0
 25 27  1  0  0  0
 27 28  1  0  0  0
  4  5  2  0  0  0
  5  6  1  0  0  0
  6  7  1  0  0  0
  7  8  2  0  0  0
  8  9  1  0  0  0
  9 10  1  0  0  0
 10 19  1  0  0  0
 19 20  1  0  0  0
 10 11  2  0  0  0
 11 12  1  0  0  0
 12 13  1  0  0  0
 12 14  1  0  0  0
 14 15  1  0  0  0
 15 16  2  0  0  0
 15 17  1  0  0  0
  6  1  2  0  0  0
 17  7  1  0  0  0
 14  9  2  0  0  0
 27 29  1  0  0  0
 28 30  1  0  0  0
 17 18  1  0  0  0
M  END
> <minimizedAffinity>
-1.34340

$$$$



 30 32  0  0  0  0  0  0  0  0999 V2000
    3.0116   67.6722   83.3312 C   0  0  0  0  0  0  0  0  0  0  0  0
    3.6458   68.9221   83.3131 C   0  0  0  0  0  0  0  0  0  0  0  0
    3.2266   69.9291   82.4389 C   0  0  0  0  0  0  0  0  0  0  0  0
    2.1656   69.7099   81.5590 C   0  0  0  0  0  0  0  0  0  0  0  0
    1.5319   68.4612   81.5682 C   0  0  0  0  0  0  0  0  0  0  0  0
    1.9395   67.4338   82.4441 C   0  0  0  0  0  0  0  0  0  0  0  0
    1.1723   66.1376   82.3654 C   0  0  0  0  0  0  0  0  0  0  0  0
    0.8997   65.6203   81.1962 N   0  0  0  0  0  0  0  0  0  0  0  0
    0.1903   64.4197   81.2546 C   0  0  0  0  0  0  0  0  0  0  0  0
   -0.2638   63.5902   80.2163 C   0  0  0  0  0  0  0  0  0  0  0  0
   -0.9090   62.5180   80.7143 N   0  0  0  0  0  0  0  0  0  0  0  0
   -0.8501   62.6929   82.0581 N   0  0  0  0  0  0  0  0  0  0  0  0
   -1.4504   61.7195   82.9382 C   0  0  0  0  0  0  0  0  0  0  0  0
   -0.1938   63.8271   82.4191 C   0  0  0  0  0  0  0  0  0  0  0  0
    0.0928   64.3808   83.6901 C   0  0  0  0  0  0  0  0  0  0  0  0
   -0.2315   63.9043   84.7712 O   0  0  0  0  0  0  0  0  0  0  0  0
    0.7987   65.5555   83.5725 N   0  0  0  0  0  0  0  0  0  0  0  0
    1.0289   66.0193   84.4419 H   0  0  0  0  0  0  0  0  0  0  0  0
   -0.1073   63.7737   78.7482 C   0  0  0  0  0  0  0  0  0  0  0  0
   -0.9107   62.7583   77.9500 C   0  0  0  0  0  0  0  0  0  0  0  0
    3.3841   66.6531   84.1716 O   0  0  0  0  0  0  0  0  0  0  0  0
    4.7514   65.5718   85.7934 C   0  0  0  0  0  0  0  0  0  0  0  0
    4.4939   66.8683   85.0464 C   0  0  0  0  0  0  0  0  0  0  0  0
    1.7050   70.8023   80.6263 C   0  0  0  0  0  0  0  0  0  0  0  0
    0.8630   71.8448   81.3307 C   0  0  0  0  0  0  0  0  0  0  0  0
   -0.3020   71.6524   81.6775 O   0  0  0  0  0  0  0  0  0  0  0  0
    1.5063   73.0434   81.5528 N   0  0  0  0  0  0  0  0  0  0  0  0
    0.6776   74.0649   82.0825 O   0  0  0  0  0  0  0  0  0  0  0  0
    2.2374   73.3599   80.9222 H   0  0  0  0  0  0  0  0  0  0  0  0
   -0.1803   73.6018   82.2070 H   0  0  0  0  0  0  0  0  0  0  0  0
 22 23  1  0  0  0
 23 21  1  0  0  0
 21  1  1  0  0  0
  1  2  1  0  0  0
  2  3  2  0  0  0
  3  4  1  0  0  0
  4 24  1  0  0  0
 24 25  1  0  0  0
 25 26  2  0  0  0
 25 27  1  0  0  0
 27 28  1  0  0  0
  4  5  2  0  0  0
  5  6  1  0  0  0
  6  7  1  0  0  0
  7  8  2  0  0  0
  8  9  1  0  0  0
  9 10  1  0  0  0
 10 19  1  0  0  0
 19 20  1  0  0  0
 10 11  2  0  0  0
 11 12  1  0  0  0
 12 13  1  0  0  0
 12 14  1  0  0  0
 14 15  1  0  0  0
 15 16  2  0  0  0
 15 17  1  0  0  0
  6  1  2  0  0  0
 17  7  1  0  0  0
 14  9  2  0  0  0
 27 29  1  0  0  0
 28 30  1  0  0  0
 17 18  1  0  0  0
M  END
> <minimizedAffinity>
-1.33895

$$$$



 30 32  0  0  0  0  0  0  0  0999 V2000
    2.3425   73.2229   81.4675 C   0  0  0  0  0  0  0  0  0  0  0  0
    2.7931   74.5062   81.1284 C   0  0  0  0  0  0  0  0  0  0  0  0
    4.0192   74.6912   80.4831 C   0  0  0  0  0  0  0  0  0  0  0  0
    4.8265   73.5981   80.1644 C   0  0  0  0  0  0  0  0  0  0  0  0
    4.3845   72.3140   80.5060 C   0  0  0  0  0  0  0  0  0  0  0  0
    3.1497   72.1076   81.1555 C   0  0  0  0  0  0  0  0  0  0  0  0
    2.7807   70.6776   81.4621 C   0  0  0  0  0  0  0  0  0  0  0  0
    3.3322   70.0746   82.4825 N   0  0  0  0  0  0  0  0  0  0  0  0
    2.9072   68.7577   82.6651 C   0  0  0  0  0  0  0  0  0  0  0  0
    3.2739   67.8203   83.6445 C   0  0  0  0  0  0  0  0  0  0  0  0
    2.6200   66.6581   83.4563 N   0  0  0  0  0  0  0  0  0  0  0  0
    1.8537   66.8850   82.3603 N   0  0  0  0  0  0  0  0  0  0  0  0
    0.9982   65.8405   81.8508 C   0  0  0  0  0  0  0  0  0  0  0  0
    2.0004   68.1396   81.8586 C   0  0  0  0  0  0  0  0  0  0  0  0
    1.4004   68.7822   80.7490 C   0  0  0  0  0  0  0  0  0  0  0  0
    0.5877   68.2809   79.9813 O   0  0  0  0  0  0  0  0  0  0  0  0
    1.8484   70.0765   80.6224 N   0  0  0  0  0  0  0  0  0  0  0  0
    1.4734   70.5974   79.8401 H   0  0  0  0  0  0  0  0  0  0  0  0
    4.2324   67.9839   84.7706 C   0  0  0  0  0  0  0  0  0  0  0  0
    4.7268   66.6493   85.3071 C   0  0  0  0  0  0  0  0  0  0  0  0
    1.1464   72.9893   82.0986 O   0  0  0  0  0  0  0  0  0  0  0  0
   -0.8753   72.7589   80.8624 C   0  0  0  0  0  0  0  0  0  0  0  0
   -0.0044   73.7141   81.6586 C   0  0  0  0  0  0  0  0  0  0  0  0
    6.1427   73.7981   79.4553 C   0  0  0  0  0  0  0  0  0  0  0  0
    6.9223   74.9727   80.0073 C   0  0  0  0  0  0  0  0  0  0  0  0
    7.0253   76.0510   79.4234 O   0  0  0  0  0  0  0  0  0  0  0  0
    7.5201   74.7385   81.2270 N   0  0  0  0  0  0  0  0  0  0  0  0
    8.3649   75.7847   81.6769 O   0  0  0  0  0  0  0  0  0  0  0  0
    7.8144   73.8007   81.4845 H   0  0  0  0  0  0  0  0  0  0  0  0
    8.2527   76.4663   80.9778 H   0  0  0  0  0  0  0  0  0  0  0  0
 22 23  1  0  0  0
 23 21  1  0  0  0
 21  1  1  0  0  0
  1  2  1  0  0  0
  2  3  2  0  0  0
  3  4  1  0  0  0
  4 24  1  0  0  0
 24 25  1  0  0  0
 25 26  2  0  0  0
 25 27  1  0  0  0
 27 28  1  0  0  0
  4  5  2  0  0  0
  5  6  1  0  0  0
  6  7  1  0  0  0
  7  8  2  0  0  0
  8  9  1  0  0  0
  9 10  1  0  0  0
 10 19  1  0  0  0
 19 20  1  0  0  0
 10 11  2  0  0  0
 11 12  1  0  0  0
 12 13  1  0  0  0
 12 14  1  0  0  0
 14 15  1  0  0  0
 15 16  2  0  0  0
 15 17  1  0  0  0
  6  1  2  0  0  0
 17  7  1  0  0  0
 14  9  2  0  0  0
 27 29  1  0  0  0
 28 30  1  0  0  0
 17 18  1  0  0  0
M  END
> <minimizedAffinity>
-1.30412

$$$$



 30 32  0  0  0  0  0  0  0  0999 V2000
    2.1285   67.7072   82.5107 C   0  0  0  0  0  0  0  0  0  0  0  0
    3.0551   68.7034   82.8481 C   0  0  0  0  0  0  0  0  0  0  0  0
    3.9619   68.5179   83.8954 C   0  0  0  0  0  0  0  0  0  0  0  0
    3.9622   67.3333   84.6337 C   0  0  0  0  0  0  0  0  0  0  0  0
    3.0349   66.3367   84.3054 C   0  0  0  0  0  0  0  0  0  0  0  0
    2.1136   66.5051   83.2509 C   0  0  0  0  0  0  0  0  0  0  0  0
    1.1723   65.3561   82.9890 C   0  0  0  0  0  0  0  0  0  0  0  0
    0.7014   64.6668   83.9950 N   0  0  0  0  0  0  0  0  0  0  0  0
   -0.1613   63.6338   83.6250 C   0  0  0  0  0  0  0  0  0  0  0  0
   -0.8493   62.7053   84.4231 C   0  0  0  0  0  0  0  0  0  0  0  0
   -1.5829   61.8745   83.6579 N   0  0  0  0  0  0  0  0  0  0  0  0
   -1.3423   62.2951   82.3910 N   0  0  0  0  0  0  0  0  0  0  0  0
   -1.9717   61.6259   81.2781 C   0  0  0  0  0  0  0  0  0  0  0  0
   -0.4919   63.3538   82.3339 C   0  0  0  0  0  0  0  0  0  0  0  0
    0.0155   64.0913   81.2372 C   0  0  0  0  0  0  0  0  0  0  0  0
   -0.2342   63.8852   80.0555 O   0  0  0  0  0  0  0  0  0  0  0  0
    0.8510   65.0989   81.6599 N   0  0  0  0  0  0  0  0  0  0  0  0
    1.2652   65.6627   80.9289 H   0  0  0  0  0  0  0  0  0  0  0  0
   -0.8415   62.5720   85.9049 C   0  0  0  0  0  0  0  0  0  0  0  0
   -2.2375   62.3708   86.4744 C   0  0  0  0  0  0  0  0  0  0  0  0
    1.2204   67.8405   81.4904 O   0  0  0  0  0  0  0  0  0  0  0  0
    0.3023   69.8389   80.5782 C   0  0  0  0  0  0  0  0  0  0  0  0
    1.4520   68.8500   80.5054 C   0  0  0  0  0  0  0  0  0  0  0  0
    4.9509   67.1287   85.7544 C   0  0  0  0  0  0  0  0  0  0  0  0
    6.1609   66.3307   85.3171 C   0  0  0  0  0  0  0  0  0  0  0  0
    6.1762   65.1015   85.2592 O   0  0  0  0  0  0  0  0  0  0  0  0
    7.2605   67.0945   84.9893 N   0  0  0  0  0  0  0  0  0  0  0  0
    8.4343   66.3470   84.7173 O   0  0  0  0  0  0  0  0  0  0  0  0
    7.4120   67.9959   85.4331 H   0  0  0  0  0  0  0  0  0  0  0  0
    8.1188   65.4189   84.7894 H   0  0  0  0  0  0  0  0  0  0  0  0
 22 23  1  0  0  0
 23 21  1  0  0  0
 21  1  1  0  0  0
  1  2  1  0  0  0
  2  3  2  0  0  0
  3  4  1  0  0  0
  4 24  1  0  0  0
 24 25  1  0  0  0
 25 26  2  0  0  0
 25 27  1  0  0  0
 27 28  1  0  0  0
  4  5  2  0  0  0
  5  6  1  0  0  0
  6  7  1  0  0  0
  7  8  2  0  0  0
  8  9  1  0  0  0
  9 10  1  0  0  0
 10 19  1  0  0  0
 19 20  1  0  0  0
 10 11  2  0  0  0
 11 12  1  0  0  0
 12 13  1  0  0  0
 12 14  1  0  0  0
 14 15  1  0  0  0
 15 16  2  0  0  0
 15 17  1  0  0  0
  6  1  2  0  0  0
 17  7  1  0  0  0
 14  9  2  0  0  0
 27 29  1  0  0  0
 28 30  1  0  0  0
 17 18  1  0  0  0
M  END
> <minimizedAffinity>
-1.30365

$$$$
