


 44 47  0  0  0  0  0  0  0  0999 V2000
    2.6556   66.3826   83.7511 C   0  0  0  0  0  0  0  0  0  0  0  0
    3.0125   67.2326   82.6926 C   0  0  0  0  0  0  0  0  0  0  0  0
    2.1522   67.4285   81.6079 C   0  0  0  0  0  0  0  0  0  0  0  0
    0.9275   66.7656   81.5709 C   0  0  0  0  0  0  0  0  0  0  0  0
    0.5741   65.8846   82.5921 C   0  0  0  0  0  0  0  0  0  0  0  0
    1.4189   65.7016   83.7011 C   0  0  0  0  0  0  0  0  0  0  0  0
    0.9020   64.8016   84.7895 C   0  0  0  0  0  0  0  0  0  0  0  0
   -0.1996   64.1319   84.5882 N   0  0  0  0  0  0  0  0  0  0  0  0
   -0.5968   63.3363   85.6628 C   0  0  0  0  0  0  0  0  0  0  0  0
   -1.7364   62.5095   85.7276 C   0  0  0  0  0  0  0  0  0  0  0  0
   -1.6995   61.9357   86.9913 C   0  0  0  0  0  0  0  0  0  0  0  0
   -0.5874   62.4020   87.6559 N   0  0  0  0  0  0  0  0  0  0  0  0
   -0.2022   62.0348   88.9996 C   0  0  0  0  0  0  0  0  0  0  0  0
    0.0941   63.2633   86.8406 C   0  0  0  0  0  0  0  0  0  0  0  0
    1.2936   63.9995   87.0628 C   0  0  0  0  0  0  0  0  0  0  0  0
    1.9541   64.0055   88.0960 O   0  0  0  0  0  0  0  0  0  0  0  0
    1.6435   64.7418   85.9602 N   0  0  0  0  0  0  0  0  0  0  0  0
    2.4708   65.3143   86.0607 H   0  0  0  0  0  0  0  0  0  0  0  0
   -2.7578   62.2844   84.6623 C   0  0  0  0  0  0  0  0  0  0  0  0
   -2.2266   61.5254   83.4437 C   0  0  0  0  0  0  0  0  0  0  0  0
   -3.1784   60.4443   82.9508 C   0  0  0  0  0  0  0  0  0  0  0  0
   -0.1772   66.9966   80.1948 S   0  0  0  0  0  0  0  0  0  0  0  0
   -1.5212   67.0798   80.7265 O   0  0  0  0  0  0  0  0  0  0  0  0
    0.3711   68.0512   79.3713 O   0  0  0  0  0  0  0  0  0  0  0  0
   -0.0604   65.5292   79.3402 N   0  0  0  0  0  0  0  0  0  0  0  0
    1.2317   64.8094   79.4326 C   0  0  0  0  0  0  0  0  0  0  0  0
    1.2475   63.6036   78.4893 C   0  0  0  0  0  0  0  0  0  0  0  0
   -0.1438   62.9522   78.3390 C   0  0  0  0  0  0  0  0  0  0  0  0
   -1.1380   63.9946   77.7771 C   0  0  0  0  0  0  0  0  0  0  0  0
   -0.7061   65.4449   78.0165 C   0  0  0  0  0  0  0  0  0  0  0  0
   -0.6343   62.3013   79.6726 C   0  0  0  0  0  0  0  0  0  0  0  0
   -2.0217   61.6296   79.5480 C   0  0  0  0  0  0  0  0  0  0  0  0
   -1.9027   60.2418   79.8636 O   0  0  0  0  0  0  0  0  0  0  0  0
   -2.8047   59.4339   79.1311 N   0  0  0  0  0  0  0  0  0  0  0  0
   -2.8062   59.5593   77.9065 O   0  0  0  0  0  0  0  0  0  0  0  0
   -3.4711   58.6951   79.8522 O   0  0  0  0  0  0  0  0  0  0  0  0
    0.3360   61.2947   80.0114 O   0  0  0  0  0  0  0  0  0  0  0  0
    0.9726   61.4955   81.2607 N   0  0  0  0  0  0  0  0  0  0  0  0
    1.8552   60.7003   81.5789 O   0  0  0  0  0  0  0  0  0  0  0  0
    0.5447   62.4821   81.8548 O   0  0  0  0  0  0  0  0  0  0  0  0
    3.4525   66.1670   84.8462 O   0  0  0  0  0  0  0  0  0  0  0  0
    4.7922   66.6652   84.8219 C   0  0  0  0  0  0  0  0  0  0  0  0
    7.1289   65.6926   84.6931 C   0  0  0  0  0  0  0  0  0  0  0  0
    5.7333   65.5551   85.2858 C   0  0  0  0  0  0  0  0  0  0  0  0
 43 44  1  0  0  0
 44 42  1  0  0  0
 42 41  1  0  0  0
 41  1  1  0  0  0
  1  2  1  0  0  0
  2  3  2  0  0  0
  3  4  1  0  0  0
  4 22  1  0  0  0
 22 23  2  0  0  0
 22 24  2  0  0  0
 22 25  1  0  0  0
 25 26  1  0  0  0
 26 27  1  0  0  0
 27 28  1  0  0  0
 28 31  1  0  0  0
 31 32  1  0  0  0
 32 33  1  0  0  0
 33 34  1  0  0  0
 34 35  2  0  0  0
 34 36  1  0  0  0
 31 37  1  0  0  0
 37 38  1  0  0  0
 38 39  2  0  0  0
 38 40  1  0  0  0
 28 29  1  0  0  0
 29 30  1  0  0  0
  4  5  2  0  0  0
  5  6  1  0  0  0
  6  7  1  0  0  0
  7  8  2  0  0  0
  8  9  1  0  0  0
  9 10  1  0  0  0
 10 19  1  0  0  0
 19 20  1  0  0  0
 20 21  1  0  0  0
 10 11  2  0  0  0
 11 12  1  0  0  0
 12 13  1  0  0  0
 12 14  1  0  0  0
 14 15  1  0  0  0
 15 16  2  0  0  0
 15 17  1  0  0  0
  6  1  2  0  0  0
 17  7  1  0  0  0
 30 25  1  0  0  0
 14  9  2  0  0  0
 17 18  1  0  0  0
M  CHG 1  34   1
M  CHG 1  36  -1
M  CHG 1  38   1
M  CHG 1  40  -1
M  END
> <minimizedAffinity>
-9.42778

$$$$



 44 47  0  0  0  0  0  0  0  0999 V2000
    3.3780   66.7513   84.4295 C   0  0  0  0  0  0  0  0  0  0  0  0
    4.1004   67.8061   83.8500 C   0  0  0  0  0  0  0  0  0  0  0  0
    3.5456   68.5777   82.8244 C   0  0  0  0  0  0  0  0  0  0  0  0
    2.2621   68.2923   82.3641 C   0  0  0  0  0  0  0  0  0  0  0  0
    1.5458   67.2218   82.8980 C   0  0  0  0  0  0  0  0  0  0  0  0
    2.0827   66.4571   83.9486 C   0  0  0  0  0  0  0  0  0  0  0  0
    1.1915   65.3856   84.5140 C   0  0  0  0  0  0  0  0  0  0  0  0
    0.5327   64.6122   83.6954 N   0  0  0  0  0  0  0  0  0  0  0  0
   -0.2718   63.6600   84.3213 C   0  0  0  0  0  0  0  0  0  0  0  0
   -1.0879   62.6974   83.6937 C   0  0  0  0  0  0  0  0  0  0  0  0
   -1.6887   61.9964   84.7305 C   0  0  0  0  0  0  0  0  0  0  0  0
   -1.2537   62.5194   85.9277 N   0  0  0  0  0  0  0  0  0  0  0  0
   -1.6546   62.0560   87.2366 C   0  0  0  0  0  0  0  0  0  0  0  0
   -0.3806   63.5426   85.6794 C   0  0  0  0  0  0  0  0  0  0  0  0
    0.3339   64.3915   86.5734 C   0  0  0  0  0  0  0  0  0  0  0  0
    0.2707   64.3642   87.7977 O   0  0  0  0  0  0  0  0  0  0  0  0
    1.1251   65.2884   85.8961 N   0  0  0  0  0  0  0  0  0  0  0  0
    1.6376   65.9435   86.4710 H   0  0  0  0  0  0  0  0  0  0  0  0
   -1.2600   62.4678   82.2286 C   0  0  0  0  0  0  0  0  0  0  0  0
   -0.5333   61.2262   81.7055 C   0  0  0  0  0  0  0  0  0  0  0  0
    0.9786   61.3067   81.8643 C   0  0  0  0  0  0  0  0  0  0  0  0
    1.5425   69.2588   81.0543 S   0  0  0  0  0  0  0  0  0  0  0  0
    2.1759   68.8530   79.8173 O   0  0  0  0  0  0  0  0  0  0  0  0
    0.1065   69.2056   81.2152 O   0  0  0  0  0  0  0  0  0  0  0  0
    2.0651   70.8424   81.3952 N   0  0  0  0  0  0  0  0  0  0  0  0
    3.2516   71.3239   80.6491 C   0  0  0  0  0  0  0  0  0  0  0  0
    3.7028   72.6894   81.1740 C   0  0  0  0  0  0  0  0  0  0  0  0
    2.5208   73.5582   81.6545 C   0  0  0  0  0  0  0  0  0  0  0  0
    1.7760   72.8231   82.7927 C   0  0  0  0  0  0  0  0  0  0  0  0
    2.0006   71.3075   82.7936 C   0  0  0  0  0  0  0  0  0  0  0  0
    1.5784   73.9698   80.4776 C   0  0  0  0  0  0  0  0  0  0  0  0
    0.0955   74.0915   80.8990 C   0  0  0  0  0  0  0  0  0  0  0  0
   -0.7373   73.6779   79.8150 O   0  0  0  0  0  0  0  0  0  0  0  0
   -1.5753   72.5885   80.1524 N   0  0  0  0  0  0  0  0  0  0  0  0
   -2.3989   72.2297   79.3108 O   0  0  0  0  0  0  0  0  0  0  0  0
   -1.3425   72.1417   81.2732 O   0  0  0  0  0  0  0  0  0  0  0  0
    2.0358   75.2565   80.0251 O   0  0  0  0  0  0  0  0  0  0  0  0
    2.5283   75.2664   78.6971 N   0  0  0  0  0  0  0  0  0  0  0  0
    3.7475   75.2057   78.5467 O   0  0  0  0  0  0  0  0  0  0  0  0
    1.6295   75.3176   77.8611 O   0  0  0  0  0  0  0  0  0  0  0  0
    3.8662   65.9736   85.4482 O   0  0  0  0  0  0  0  0  0  0  0  0
    5.2485   65.6098   85.4245 C   0  0  0  0  0  0  0  0  0  0  0  0
    5.4940   65.4862   87.9438 C   0  0  0  0  0  0  0  0  0  0  0  0
    5.9262   66.1895   86.6646 C   0  0  0  0  0  0  0  0  0  0  0  0
 43 44  1  0  0  0
 44 42  1  0  0  0
 42 41  1  0  0  0
 41  1  1  0  0  0
  1  2  1  0  0  0
  2  3  2  0  0  0
  3  4  1  0  0  0
  4 22  1  0  0  0
 22 23  2  0  0  0
 22 24  2  0  0  0
 22 25  1  0  0  0
 25 26  1  0  0  0
 26 27  1  0  0  0
 27 28  1  0  0  0
 28 31  1  0  0  0
 31 32  1  0  0  0
 32 33  1  0  0  0
 33 34  1  0  0  0
 34 35  2  0  0  0
 34 36  1  0  0  0
 31 37  1  0  0  0
 37 38  1  0  0  0
 38 39  2  0  0  0
 38 40  1  0  0  0
 28 29  1  0  0  0
 29 30  1  0  0  0
  4  5  2  0  0  0
  5  6  1  0  0  0
  6  7  1  0  0  0
  7  8  2  0  0  0
  8  9  1  0  0  0
  9 10  1  0  0  0
 10 19  1  0  0  0
 19 20  1  0  0  0
 20 21  1  0  0  0
 10 11  2  0  0  0
 11 12  1  0  0  0
 12 13  1  0  0  0
 12 14  1  0  0  0
 14 15  1  0  0  0
 15 16  2  0  0  0
 15 17  1  0  0  0
  6  1  2  0  0  0
 17  7  1  0  0  0
 30 25  1  0  0  0
 14  9  2  0  0  0
 17 18  1  0  0  0
M  CHG 1  34   1
M  CHG 1  36  -1
M  CHG 1  38   1
M  CHG 1  40  -1
M  END
> <minimizedAffinity>
-8.87869

$$$$



 44 47  0  0  0  0  0  0  0  0999 V2000
    0.3062   63.7983   85.8014 C   0  0  0  0  0  0  0  0  0  0  0  0
   -0.6151   62.7589   86.0042 C   0  0  0  0  0  0  0  0  0  0  0  0
   -1.4528   62.3303   84.9700 C   0  0  0  0  0  0  0  0  0  0  0  0
   -1.3799   62.9473   83.7232 C   0  0  0  0  0  0  0  0  0  0  0  0
   -0.5011   64.0096   83.5150 C   0  0  0  0  0  0  0  0  0  0  0  0
    0.3655   64.4302   84.5392 C   0  0  0  0  0  0  0  0  0  0  0  0
    1.3368   65.5214   84.1822 C   0  0  0  0  0  0  0  0  0  0  0  0
    2.5638   65.4457   84.6197 N   0  0  0  0  0  0  0  0  0  0  0  0
    3.3792   66.5121   84.2411 C   0  0  0  0  0  0  0  0  0  0  0  0
    4.7389   66.6940   84.5646 C   0  0  0  0  0  0  0  0  0  0  0  0
    5.0980   67.8957   83.9692 C   0  0  0  0  0  0  0  0  0  0  0  0
    3.9993   68.4129   83.3203 N   0  0  0  0  0  0  0  0  0  0  0  0
    3.9738   69.6543   82.5806 C   0  0  0  0  0  0  0  0  0  0  0  0
    2.9401   67.5632   83.4846 C   0  0  0  0  0  0  0  0  0  0  0  0
    1.5985   67.6492   83.0123 C   0  0  0  0  0  0  0  0  0  0  0  0
    1.1248   68.5676   82.3520 O   0  0  0  0  0  0  0  0  0  0  0  0
    0.8556   66.5588   83.3972 N   0  0  0  0  0  0  0  0  0  0  0  0
   -0.1170   66.5703   83.1210 H   0  0  0  0  0  0  0  0  0  0  0  0
    5.6128   65.7841   85.3629 C   0  0  0  0  0  0  0  0  0  0  0  0
    6.9714   66.3892   85.7257 C   0  0  0  0  0  0  0  0  0  0  0  0
    8.1017   65.9018   84.8298 C   0  0  0  0  0  0  0  0  0  0  0  0
   -2.4435   62.4204   82.3971 S   0  0  0  0  0  0  0  0  0  0  0  0
   -3.1272   61.2231   82.8389 O   0  0  0  0  0  0  0  0  0  0  0  0
   -3.1781   63.5804   81.9437 O   0  0  0  0  0  0  0  0  0  0  0  0
   -1.3545   61.9593   81.1729 N   0  0  0  0  0  0  0  0  0  0  0  0
   -1.9327   61.2629   79.9994 C   0  0  0  0  0  0  0  0  0  0  0  0
   -0.8255   60.7653   79.0664 C   0  0  0  0  0  0  0  0  0  0  0  0
    0.4001   61.7038   79.0500 C   0  0  0  0  0  0  0  0  0  0  0  0
    0.9812   61.8103   80.4788 C   0  0  0  0  0  0  0  0  0  0  0  0
   -0.0268   61.4604   81.5783 C   0  0  0  0  0  0  0  0  0  0  0  0
    0.0646   63.0963   78.4246 C   0  0  0  0  0  0  0  0  0  0  0  0
    1.2850   64.0438   78.3582 C   0  0  0  0  0  0  0  0  0  0  0  0
    0.8343   65.3972   78.4282 O   0  0  0  0  0  0  0  0  0  0  0  0
    1.2005   66.0349   79.6374 N   0  0  0  0  0  0  0  0  0  0  0  0
    0.9215   65.4550   80.6868 O   0  0  0  0  0  0  0  0  0  0  0  0
    1.7698   67.1082   79.4530 O   0  0  0  0  0  0  0  0  0  0  0  0
   -0.3915   62.8381   77.0850 O   0  0  0  0  0  0  0  0  0  0  0  0
   -1.6318   63.4425   76.7646 N   0  0  0  0  0  0  0  0  0  0  0  0
   -2.6445   62.7569   76.8957 O   0  0  0  0  0  0  0  0  0  0  0  0
   -1.5085   64.6114   76.4072 O   0  0  0  0  0  0  0  0  0  0  0  0
    1.1624   64.2472   86.7742 O   0  0  0  0  0  0  0  0  0  0  0  0
    1.4801   63.3713   87.8584 C   0  0  0  0  0  0  0  0  0  0  0  0
    0.1842   62.0642   89.6005 C   0  0  0  0  0  0  0  0  0  0  0  0
    0.3181   63.3819   88.8498 C   0  0  0  0  0  0  0  0  0  0  0  0
 43 44  1  0  0  0
 44 42  1  0  0  0
 42 41  1  0  0  0
 41  1  1  0  0  0
  1  2  1  0  0  0
  2  3  2  0  0  0
  3  4  1  0  0  0
  4 22  1  0  0  0
 22 23  2  0  0  0
 22 24  2  0  0  0
 22 25  1  0  0  0
 25 26  1  0  0  0
 26 27  1  0  0  0
 27 28  1  0  0  0
 28 31  1  0  0  0
 31 32  1  0  0  0
 32 33  1  0  0  0
 33 34  1  0  0  0
 34 35  2  0  0  0
 34 36  1  0  0  0
 31 37  1  0  0  0
 37 38  1  0  0  0
 38 39  2  0  0  0
 38 40  1  0  0  0
 28 29  1  0  0  0
 29 30  1  0  0  0
  4  5  2  0  0  0
  5  6  1  0  0  0
  6  7  1  0  0  0
  7  8  2  0  0  0
  8  9  1  0  0  0
  9 10  1  0  0  0
 10 19  1  0  0  0
 19 20  1  0  0  0
 20 21  1  0  0  0
 10 11  2  0  0  0
 11 12  1  0  0  0
 12 13  1  0  0  0
 12 14  1  0  0  0
 14 15  1  0  0  0
 15 16  2  0  0  0
 15 17  1  0  0  0
  6  1  2  0  0  0
 17  7  1  0  0  0
 30 25  1  0  0  0
 14  9  2  0  0  0
 17 18  1  0  0  0
M  CHG 1  34   1
M  CHG 1  36  -1
M  CHG 1  38   1
M  CHG 1  40  -1
M  END
> <minimizedAffinity>
-8.81230

$$$$



 44 47  0  0  0  0  0  0  0  0999 V2000
   -1.8020   62.7079   83.9572 C   0  0  0  0  0  0  0  0  0  0  0  0
   -2.5845   61.5515   84.1012 C   0  0  0  0  0  0  0  0  0  0  0  0
   -3.1478   60.9226   82.9866 C   0  0  0  0  0  0  0  0  0  0  0  0
   -2.9381   61.4538   81.7160 C   0  0  0  0  0  0  0  0  0  0  0  0
   -2.1992   62.6256   81.5573 C   0  0  0  0  0  0  0  0  0  0  0  0
   -1.6049   63.2505   82.6678 C   0  0  0  0  0  0  0  0  0  0  0  0
   -0.7529   64.4550   82.3760 C   0  0  0  0  0  0  0  0  0  0  0  0
    0.2771   64.7022   83.1379 N   0  0  0  0  0  0  0  0  0  0  0  0
    0.9930   65.8471   82.7883 C   0  0  0  0  0  0  0  0  0  0  0  0
    2.1425   66.3541   83.4270 C   0  0  0  0  0  0  0  0  0  0  0  0
    2.4754   67.5026   82.7215 C   0  0  0  0  0  0  0  0  0  0  0  0
    1.5620   67.6776   81.7062 N   0  0  0  0  0  0  0  0  0  0  0  0
    1.5716   68.7629   80.7518 C   0  0  0  0  0  0  0  0  0  0  0  0
    0.6490   66.6597   81.7437 C   0  0  0  0  0  0  0  0  0  0  0  0
   -0.4796   66.3934   80.9157 C   0  0  0  0  0  0  0  0  0  0  0  0
   -0.8650   67.0848   79.9791 O   0  0  0  0  0  0  0  0  0  0  0  0
   -1.1257   65.2413   81.2959 N   0  0  0  0  0  0  0  0  0  0  0  0
   -1.9562   65.0089   80.7682 H   0  0  0  0  0  0  0  0  0  0  0  0
    2.8602   65.7748   84.6010 C   0  0  0  0  0  0  0  0  0  0  0  0
    4.3438   66.1462   84.6664 C   0  0  0  0  0  0  0  0  0  0  0  0
    5.0776   65.4772   85.8204 C   0  0  0  0  0  0  0  0  0  0  0  0
   -3.6534   60.6714   80.2865 S   0  0  0  0  0  0  0  0  0  0  0  0
   -3.6658   59.2449   80.5333 O   0  0  0  0  0  0  0  0  0  0  0  0
   -4.8668   61.3878   79.9621 O   0  0  0  0  0  0  0  0  0  0  0  0
   -2.5104   60.9633   79.0595 N   0  0  0  0  0  0  0  0  0  0  0  0
   -2.7564   62.1383   78.1904 C   0  0  0  0  0  0  0  0  0  0  0  0
   -1.7480   62.1798   77.0392 C   0  0  0  0  0  0  0  0  0  0  0  0
   -0.3652   61.6260   77.4442 C   0  0  0  0  0  0  0  0  0  0  0  0
   -0.5173   60.1574   77.9029 C   0  0  0  0  0  0  0  0  0  0  0  0
   -1.9367   59.8005   78.3560 C   0  0  0  0  0  0  0  0  0  0  0  0
    0.3382   62.5264   78.5106 C   0  0  0  0  0  0  0  0  0  0  0  0
    1.2333   61.7279   79.4867 C   0  0  0  0  0  0  0  0  0  0  0  0
    0.6275   61.7184   80.7801 O   0  0  0  0  0  0  0  0  0  0  0  0
    1.4478   61.1187   81.7651 N   0  0  0  0  0  0  0  0  0  0  0  0
    2.4900   60.5869   81.3826 O   0  0  0  0  0  0  0  0  0  0  0  0
    0.9845   61.2288   82.8979 O   0  0  0  0  0  0  0  0  0  0  0  0
    1.1640   63.4493   77.7786 O   0  0  0  0  0  0  0  0  0  0  0  0
    0.8124   64.8104   77.9520 N   0  0  0  0  0  0  0  0  0  0  0  0
   -0.2864   65.1677   77.5303 O   0  0  0  0  0  0  0  0  0  0  0  0
    1.6825   65.4516   78.5360 O   0  0  0  0  0  0  0  0  0  0  0  0
   -1.2124   63.3553   85.0127 O   0  0  0  0  0  0  0  0  0  0  0  0
   -0.5719   62.5701   86.0210 C   0  0  0  0  0  0  0  0  0  0  0  0
   -2.5525   62.9986   87.5430 C   0  0  0  0  0  0  0  0  0  0  0  0
   -1.0390   63.0604   87.3902 C   0  0  0  0  0  0  0  0  0  0  0  0
 43 44  1  0  0  0
 44 42  1  0  0  0
 42 41  1  0  0  0
 41  1  1  0  0  0
  1  2  1  0  0  0
  2  3  2  0  0  0
  3  4  1  0  0  0
  4 22  1  0  0  0
 22 23  2  0  0  0
 22 24  2  0  0  0
 22 25  1  0  0  0
 25 26  1  0  0  0
 26 27  1  0  0  0
 27 28  1  0  0  0
 28 31  1  0  0  0
 31 32  1  0  0  0
 32 33  1  0  0  0
 33 34  1  0  0  0
 34 35  2  0  0  0
 34 36  1  0  0  0
 31 37  1  0  0  0
 37 38  1  0  0  0
 38 39  2  0  0  0
 38 40  1  0  0  0
 28 29  1  0  0  0
 29 30  1  0  0  0
  4  5  2  0  0  0
  5  6  1  0  0  0
  6  7  1  0  0  0
  7  8  2  0  0  0
  8  9  1  0  0  0
  9 10  1  0  0  0
 10 19  1  0  0  0
 19 20  1  0  0  0
 20 21  1  0  0  0
 10 11  2  0  0  0
 11 12  1  0  0  0
 12 13  1  0  0  0
 12 14  1  0  0  0
 14 15  1  0  0  0
 15 16  2  0  0  0
 15 17  1  0  0  0
  6  1  2  0  0  0
 17  7  1  0  0  0
 30 25  1  0  0  0
 14  9  2  0  0  0
 17 18  1  0  0  0
M  CHG 1  34   1
M  CHG 1  36  -1
M  CHG 1  38   1
M  CHG 1  40  -1
M  END
> <minimizedAffinity>
-8.76458

$$$$



 44 47  0  0  0  0  0  0  0  0999 V2000
    3.5003   67.4303   84.1380 C   0  0  0  0  0  0  0  0  0  0  0  0
    4.1595   68.5529   83.6130 C   0  0  0  0  0  0  0  0  0  0  0  0
    3.6604   69.2179   82.4889 C   0  0  0  0  0  0  0  0  0  0  0  0
    2.4981   68.7568   81.8747 C   0  0  0  0  0  0  0  0  0  0  0  0
    1.8531   67.6183   82.3560 C   0  0  0  0  0  0  0  0  0  0  0  0
    2.3302   66.9584   83.5022 C   0  0  0  0  0  0  0  0  0  0  0  0
    1.5091   65.7973   83.9914 C   0  0  0  0  0  0  0  0  0  0  0  0
    1.0106   64.9625   83.1212 N   0  0  0  0  0  0  0  0  0  0  0  0
    0.2575   63.9288   83.6777 C   0  0  0  0  0  0  0  0  0  0  0  0
   -0.3941   62.8887   82.9847 C   0  0  0  0  0  0  0  0  0  0  0  0
   -1.0084   62.1243   83.9675 C   0  0  0  0  0  0  0  0  0  0  0  0
   -0.7393   62.6849   85.1959 N   0  0  0  0  0  0  0  0  0  0  0  0
   -1.2048   62.1766   86.4662 C   0  0  0  0  0  0  0  0  0  0  0  0
    0.0407   63.7949   85.0212 C   0  0  0  0  0  0  0  0  0  0  0  0
    0.5797   64.7101   85.9710 C   0  0  0  0  0  0  0  0  0  0  0  0
    0.4107   64.6713   87.1850 O   0  0  0  0  0  0  0  0  0  0  0  0
    1.3301   65.6878   85.3625 N   0  0  0  0  0  0  0  0  0  0  0  0
    1.7178   66.3905   85.9774 H   0  0  0  0  0  0  0  0  0  0  0  0
   -0.4096   62.6485   81.5114 C   0  0  0  0  0  0  0  0  0  0  0  0
    0.2599   61.3382   81.0892 C   0  0  0  0  0  0  0  0  0  0  0  0
    1.5531   61.0576   81.8418 C   0  0  0  0  0  0  0  0  0  0  0  0
    1.8522   69.5858   80.4384 S   0  0  0  0  0  0  0  0  0  0  0  0
    2.9812   70.0720   79.6737 O   0  0  0  0  0  0  0  0  0  0  0  0
    0.8619   68.7155   79.8445 O   0  0  0  0  0  0  0  0  0  0  0  0
    1.0570   70.9439   81.0869 N   0  0  0  0  0  0  0  0  0  0  0  0
    1.9148   71.9784   81.7117 C   0  0  0  0  0  0  0  0  0  0  0  0
    1.0599   73.0504   82.3928 C   0  0  0  0  0  0  0  0  0  0  0  0
   -0.2715   73.3028   81.6534 C   0  0  0  0  0  0  0  0  0  0  0  0
   -1.0867   71.9899   81.6063 C   0  0  0  0  0  0  0  0  0  0  0  0
   -0.2307   70.7304   81.7741 C   0  0  0  0  0  0  0  0  0  0  0  0
   -0.0478   73.9308   80.2398 C   0  0  0  0  0  0  0  0  0  0  0  0
   -1.3285   74.5599   79.6434 C   0  0  0  0  0  0  0  0  0  0  0  0
   -1.7292   73.8119   78.4946 O   0  0  0  0  0  0  0  0  0  0  0  0
   -3.0214   73.2506   78.6295 N   0  0  0  0  0  0  0  0  0  0  0  0
   -3.0979   72.0241   78.7017 O   0  0  0  0  0  0  0  0  0  0  0  0
   -3.9063   74.1024   78.6633 O   0  0  0  0  0  0  0  0  0  0  0  0
    0.9378   74.9650   80.4086 O   0  0  0  0  0  0  0  0  0  0  0  0
    1.8411   75.0921   79.3250 N   0  0  0  0  0  0  0  0  0  0  0  0
    1.6238   75.9882   78.5111 O   0  0  0  0  0  0  0  0  0  0  0  0
    2.7518   74.2688   79.3711 O   0  0  0  0  0  0  0  0  0  0  0  0
    3.9356   66.7506   85.2467 O   0  0  0  0  0  0  0  0  0  0  0  0
    5.2695   66.2366   85.2497 C   0  0  0  0  0  0  0  0  0  0  0  0
    5.7272   65.5165   87.6361 C   0  0  0  0  0  0  0  0  0  0  0  0
    5.3398   65.0699   86.2331 C   0  0  0  0  0  0  0  0  0  0  0  0
 43 44  1  0  0  0
 44 42  1  0  0  0
 42 41  1  0  0  0
 41  1  1  0  0  0
  1  2  1  0  0  0
  2  3  2  0  0  0
  3  4  1  0  0  0
  4 22  1  0  0  0
 22 23  2  0  0  0
 22 24  2  0  0  0
 22 25  1  0  0  0
 25 26  1  0  0  0
 26 27  1  0  0  0
 27 28  1  0  0  0
 28 31  1  0  0  0
 31 32  1  0  0  0
 32 33  1  0  0  0
 33 34  1  0  0  0
 34 35  2  0  0  0
 34 36  1  0  0  0
 31 37  1  0  0  0
 37 38  1  0  0  0
 38 39  2  0  0  0
 38 40  1  0  0  0
 28 29  1  0  0  0
 29 30  1  0  0  0
  4  5  2  0  0  0
  5  6  1  0  0  0
  6  7  1  0  0  0
  7  8  2  0  0  0
  8  9  1  0  0  0
  9 10  1  0  0  0
 10 19  1  0  0  0
 19 20  1  0  0  0
 20 21  1  0  0  0
 10 11  2  0  0  0
 11 12  1  0  0  0
 12 13  1  0  0  0
 12 14  1  0  0  0
 14 15  1  0  0  0
 15 16  2  0  0  0
 15 17  1  0  0  0
  6  1  2  0  0  0
 17  7  1  0  0  0
 30 25  1  0  0  0
 14  9  2  0  0  0
 17 18  1  0  0  0
M  CHG 1  34   1
M  CHG 1  36  -1
M  CHG 1  38   1
M  CHG 1  40  -1
M  END
> <minimizedAffinity>
-8.74884

$$$$



 44 47  0  0  0  0  0  0  0  0999 V2000
    3.3144   66.9403   84.2996 C   0  0  0  0  0  0  0  0  0  0  0  0
    3.9912   68.0168   83.7053 C   0  0  0  0  0  0  0  0  0  0  0  0
    3.4182   68.7287   82.6470 C   0  0  0  0  0  0  0  0  0  0  0  0
    2.1625   68.3611   82.1688 C   0  0  0  0  0  0  0  0  0  0  0  0
    1.4936   67.2680   82.7181 C   0  0  0  0  0  0  0  0  0  0  0  0
    2.0478   66.5627   83.8008 C   0  0  0  0  0  0  0  0  0  0  0  0
    1.2036   65.4600   84.3781 C   0  0  0  0  0  0  0  0  0  0  0  0
    0.5595   64.6650   83.5684 N   0  0  0  0  0  0  0  0  0  0  0  0
   -0.2012   63.6844   84.2050 C   0  0  0  0  0  0  0  0  0  0  0  0
   -0.9928   62.6946   83.5884 C   0  0  0  0  0  0  0  0  0  0  0  0
   -1.5524   61.9716   84.6332 C   0  0  0  0  0  0  0  0  0  0  0  0
   -1.1173   62.5080   85.8244 N   0  0  0  0  0  0  0  0  0  0  0  0
   -1.4811   62.0290   87.1385 C   0  0  0  0  0  0  0  0  0  0  0  0
   -0.2845   63.5614   85.5644 C   0  0  0  0  0  0  0  0  0  0  0  0
    0.4138   64.4336   86.4487 C   0  0  0  0  0  0  0  0  0  0  0  0
    0.3708   64.4025   87.6738 O   0  0  0  0  0  0  0  0  0  0  0  0
    1.1624   65.3586   85.7608 N   0  0  0  0  0  0  0  0  0  0  0  0
    1.6606   66.0305   86.3289 H   0  0  0  0  0  0  0  0  0  0  0  0
   -1.1798   62.4611   82.1258 C   0  0  0  0  0  0  0  0  0  0  0  0
   -0.4227   61.2431   81.5901 C   0  0  0  0  0  0  0  0  0  0  0  0
    1.0568   61.2533   81.9486 C   0  0  0  0  0  0  0  0  0  0  0  0
    1.4207   69.2507   80.8176 S   0  0  0  0  0  0  0  0  0  0  0  0
    2.4027   69.3258   79.7564 O   0  0  0  0  0  0  0  0  0  0  0  0
    0.1115   68.6804   80.5901 O   0  0  0  0  0  0  0  0  0  0  0  0
    1.2234   70.8236   81.4374 N   0  0  0  0  0  0  0  0  0  0  0  0
    2.2969   71.3245   82.3280 C   0  0  0  0  0  0  0  0  0  0  0  0
    1.9082   72.6743   82.9370 C   0  0  0  0  0  0  0  0  0  0  0  0
    1.0524   73.5306   81.9792 C   0  0  0  0  0  0  0  0  0  0  0  0
   -0.2445   72.7647   81.6298 C   0  0  0  0  0  0  0  0  0  0  0  0
   -0.1339   71.2495   81.8279 C   0  0  0  0  0  0  0  0  0  0  0  0
    1.8551   73.9760   80.7143 C   0  0  0  0  0  0  0  0  0  0  0  0
    1.1115   75.0303   79.8615 C   0  0  0  0  0  0  0  0  0  0  0  0
    1.5073   74.8950   78.4959 O   0  0  0  0  0  0  0  0  0  0  0  0
    2.4677   75.8585   78.1056 N   0  0  0  0  0  0  0  0  0  0  0  0
    3.4750   75.4481   77.5292 O   0  0  0  0  0  0  0  0  0  0  0  0
    2.1376   77.0038   78.4044 O   0  0  0  0  0  0  0  0  0  0  0  0
    3.0805   74.5549   81.1967 O   0  0  0  0  0  0  0  0  0  0  0  0
    4.2502   74.0281   80.5963 N   0  0  0  0  0  0  0  0  0  0  0  0
    4.1161   73.0527   79.8591 O   0  0  0  0  0  0  0  0  0  0  0  0
    5.2603   74.6588   80.8982 O   0  0  0  0  0  0  0  0  0  0  0  0
    3.8214   66.2185   85.3498 O   0  0  0  0  0  0  0  0  0  0  0  0
    5.1467   66.5101   85.7993 C   0  0  0  0  0  0  0  0  0  0  0  0
    7.2989   65.7645   84.6881 C   0  0  0  0  0  0  0  0  0  0  0  0
    6.0515   65.3313   85.4457 C   0  0  0  0  0  0  0  0  0  0  0  0
 43 44  1  0  0  0
 44 42  1  0  0  0
 42 41  1  0  0  0
 41  1  1  0  0  0
  1  2  1  0  0  0
  2  3  2  0  0  0
  3  4  1  0  0  0
  4 22  1  0  0  0
 22 23  2  0  0  0
 22 24  2  0  0  0
 22 25  1  0  0  0
 25 26  1  0  0  0
 26 27  1  0  0  0
 27 28  1  0  0  0
 28 31  1  0  0  0
 31 32  1  0  0  0
 32 33  1  0  0  0
 33 34  1  0  0  0
 34 35  2  0  0  0
 34 36  1  0  0  0
 31 37  1  0  0  0
 37 38  1  0  0  0
 38 39  2  0  0  0
 38 40  1  0  0  0
 28 29  1  0  0  0
 29 30  1  0  0  0
  4  5  2  0  0  0
  5  6  1  0  0  0
  6  7  1  0  0  0
  7  8  2  0  0  0
  8  9  1  0  0  0
  9 10  1  0  0  0
 10 19  1  0  0  0
 19 20  1  0  0  0
 20 21  1  0  0  0
 10 11  2  0  0  0
 11 12  1  0  0  0
 12 13  1  0  0  0
 12 14  1  0  0  0
 14 15  1  0  0  0
 15 16  2  0  0  0
 15 17  1  0  0  0
  6  1  2  0  0  0
 17  7  1  0  0  0
 30 25  1  0  0  0
 14  9  2  0  0  0
 17 18  1  0  0  0
M  CHG 1  34   1
M  CHG 1  36  -1
M  CHG 1  38   1
M  CHG 1  40  -1
M  END
> <minimizedAffinity>
-8.73982

$$$$



 44 47  0  0  0  0  0  0  0  0999 V2000
    3.3619   67.3107   83.9435 C   0  0  0  0  0  0  0  0  0  0  0  0
    4.0973   68.4661   83.6361 C   0  0  0  0  0  0  0  0  0  0  0  0
    3.7470   69.2716   82.5482 C   0  0  0  0  0  0  0  0  0  0  0  0
    2.6591   68.9202   81.7522 C   0  0  0  0  0  0  0  0  0  0  0  0
    1.9427   67.7536   82.0165 C   0  0  0  0  0  0  0  0  0  0  0  0
    2.2686   66.9513   83.1241 C   0  0  0  0  0  0  0  0  0  0  0  0
    1.3761   65.7667   83.3728 C   0  0  0  0  0  0  0  0  0  0  0  0
    1.1093   65.4214   84.6025 N   0  0  0  0  0  0  0  0  0  0  0  0
    0.2822   64.3048   84.7227 C   0  0  0  0  0  0  0  0  0  0  0  0
   -0.1699   63.7115   85.9187 C   0  0  0  0  0  0  0  0  0  0  0  0
   -0.9516   62.6357   85.5196 C   0  0  0  0  0  0  0  0  0  0  0  0
   -0.9639   62.5850   84.1437 N   0  0  0  0  0  0  0  0  0  0  0  0
   -1.6692   61.6043   83.3502 C   0  0  0  0  0  0  0  0  0  0  0  0
   -0.2065   63.6116   83.6501 C   0  0  0  0  0  0  0  0  0  0  0  0
    0.0901   63.9847   82.3073 C   0  0  0  0  0  0  0  0  0  0  0  0
   -0.2891   63.4017   81.2973 O   0  0  0  0  0  0  0  0  0  0  0  0
    0.8863   65.1039   82.2572 N   0  0  0  0  0  0  0  0  0  0  0  0
    1.1613   65.4062   81.3323 H   0  0  0  0  0  0  0  0  0  0  0  0
    0.1158   64.1518   87.3163 C   0  0  0  0  0  0  0  0  0  0  0  0
   -0.6749   63.3878   88.3814 C   0  0  0  0  0  0  0  0  0  0  0  0
    0.1725   62.3829   89.1494 C   0  0  0  0  0  0  0  0  0  0  0  0
    2.2030   69.9292   80.3589 S   0  0  0  0  0  0  0  0  0  0  0  0
    3.4245   70.4491   79.7813 O   0  0  0  0  0  0  0  0  0  0  0  0
    1.2603   69.1721   79.5657 O   0  0  0  0  0  0  0  0  0  0  0  0
    1.3806   71.2395   81.0688 N   0  0  0  0  0  0  0  0  0  0  0  0
    2.2207   72.3010   81.6719 C   0  0  0  0  0  0  0  0  0  0  0  0
    1.3527   73.3223   82.4118 C   0  0  0  0  0  0  0  0  0  0  0  0
   -0.0220   73.5269   81.7402 C   0  0  0  0  0  0  0  0  0  0  0  0
   -0.7800   72.1797   81.7070 C   0  0  0  0  0  0  0  0  0  0  0  0
    0.1376   70.9573   81.8114 C   0  0  0  0  0  0  0  0  0  0  0  0
    0.1065   74.1873   80.3295 C   0  0  0  0  0  0  0  0  0  0  0  0
   -1.2450   74.6818   79.7634 C   0  0  0  0  0  0  0  0  0  0  0  0
   -1.5589   73.9431   78.5820 O   0  0  0  0  0  0  0  0  0  0  0  0
   -2.8770   73.4277   78.5920 N   0  0  0  0  0  0  0  0  0  0  0  0
   -3.7877   74.2048   78.3056 O   0  0  0  0  0  0  0  0  0  0  0  0
   -2.9169   72.2359   78.8885 O   0  0  0  0  0  0  0  0  0  0  0  0
    0.9798   75.3190   80.4914 O   0  0  0  0  0  0  0  0  0  0  0  0
    2.1242   75.2964   79.6571 N   0  0  0  0  0  0  0  0  0  0  0  0
    3.2106   75.5337   80.1825 O   0  0  0  0  0  0  0  0  0  0  0  0
    1.8532   75.0146   78.4924 O   0  0  0  0  0  0  0  0  0  0  0  0
    3.6505   66.4943   85.0070 O   0  0  0  0  0  0  0  0  0  0  0  0
    4.9072   66.6568   85.6686 C   0  0  0  0  0  0  0  0  0  0  0  0
    7.0686   65.9109   84.5755 C   0  0  0  0  0  0  0  0  0  0  0  0
    5.8054   65.4759   85.3054 C   0  0  0  0  0  0  0  0  0  0  0  0
 43 44  1  0  0  0
 44 42  1  0  0  0
 42 41  1  0  0  0
 41  1  1  0  0  0
  1  2  1  0  0  0
  2  3  2  0  0  0
  3  4  1  0  0  0
  4 22  1  0  0  0
 22 23  2  0  0  0
 22 24  2  0  0  0
 22 25  1  0  0  0
 25 26  1  0  0  0
 26 27  1  0  0  0
 27 28  1  0  0  0
 28 31  1  0  0  0
 31 32  1  0  0  0
 32 33  1  0  0  0
 33 34  1  0  0  0
 34 35  2  0  0  0
 34 36  1  0  0  0
 31 37  1  0  0  0
 37 38  1  0  0  0
 38 39  2  0  0  0
 38 40  1  0  0  0
 28 29  1  0  0  0
 29 30  1  0  0  0
  4  5  2  0  0  0
  5  6  1  0  0  0
  6  7  1  0  0  0
  7  8  2  0  0  0
  8  9  1  0  0  0
  9 10  1  0  0  0
 10 19  1  0  0  0
 19 20  1  0  0  0
 20 21  1  0  0  0
 10 11  2  0  0  0
 11 12  1  0  0  0
 12 13  1  0  0  0
 12 14  1  0  0  0
 14 15  1  0  0  0
 15 16  2  0  0  0
 15 17  1  0  0  0
  6  1  2  0  0  0
 17  7  1  0  0  0
 30 25  1  0  0  0
 14  9  2  0  0  0
 17 18  1  0  0  0
M  CHG 1  34   1
M  CHG 1  36  -1
M  CHG 1  38   1
M  CHG 1  40  -1
M  END
> <minimizedAffinity>
-8.63969

$$$$



 44 47  0  0  0  0  0  0  0  0999 V2000
    0.2534   63.7340   85.5628 C   0  0  0  0  0  0  0  0  0  0  0  0
   -0.9066   62.9861   85.3071 C   0  0  0  0  0  0  0  0  0  0  0  0
   -1.5650   63.0806   84.0772 C   0  0  0  0  0  0  0  0  0  0  0  0
   -1.0699   63.9341   83.0939 C   0  0  0  0  0  0  0  0  0  0  0  0
    0.0565   64.7167   83.3447 C   0  0  0  0  0  0  0  0  0  0  0  0
    0.7425   64.6090   84.5673 C   0  0  0  0  0  0  0  0  0  0  0  0
    1.9969   65.4280   84.7004 C   0  0  0  0  0  0  0  0  0  0  0  0
    2.0929   66.5512   84.0434 N   0  0  0  0  0  0  0  0  0  0  0  0
    3.2990   67.2272   84.2276 C   0  0  0  0  0  0  0  0  0  0  0  0
    3.6774   68.4555   83.6493 C   0  0  0  0  0  0  0  0  0  0  0  0
    4.9567   68.7053   84.1275 C   0  0  0  0  0  0  0  0  0  0  0  0
    5.3295   67.6689   84.9539 N   0  0  0  0  0  0  0  0  0  0  0  0
    6.5947   67.5651   85.6446 C   0  0  0  0  0  0  0  0  0  0  0  0
    4.3111   66.7582   85.0186 C   0  0  0  0  0  0  0  0  0  0  0  0
    4.2087   65.5284   85.7310 C   0  0  0  0  0  0  0  0  0  0  0  0
    5.0784   65.0312   86.4383 O   0  0  0  0  0  0  0  0  0  0  0  0
    2.9904   64.9256   85.5277 N   0  0  0  0  0  0  0  0  0  0  0  0
    2.8620   64.0308   85.9808 H   0  0  0  0  0  0  0  0  0  0  0  0
    2.8721   69.3143   82.7312 C   0  0  0  0  0  0  0  0  0  0  0  0
    2.4786   68.6248   81.4223 C   0  0  0  0  0  0  0  0  0  0  0  0
    0.9970   68.7573   81.0984 C   0  0  0  0  0  0  0  0  0  0  0  0
   -1.8989   64.0731   81.5252 S   0  0  0  0  0  0  0  0  0  0  0  0
   -3.3220   63.9885   81.7775 O   0  0  0  0  0  0  0  0  0  0  0  0
   -1.3254   65.2043   80.8307 O   0  0  0  0  0  0  0  0  0  0  0  0
   -1.4441   62.6512   80.7075 N   0  0  0  0  0  0  0  0  0  0  0  0
   -2.4518   61.5659   80.6545 C   0  0  0  0  0  0  0  0  0  0  0  0
   -1.8507   60.2995   80.0391 C   0  0  0  0  0  0  0  0  0  0  0  0
   -0.7974   60.6116   78.9547 C   0  0  0  0  0  0  0  0  0  0  0  0
    0.3497   61.4388   79.5795 C   0  0  0  0  0  0  0  0  0  0  0  0
   -0.0547   62.1792   80.8585 C   0  0  0  0  0  0  0  0  0  0  0  0
   -1.4307   61.2994   77.7022 C   0  0  0  0  0  0  0  0  0  0  0  0
   -0.6868   62.5852   77.2723 C   0  0  0  0  0  0  0  0  0  0  0  0
   -1.6401   63.6185   77.0204 O   0  0  0  0  0  0  0  0  0  0  0  0
   -1.0609   64.9098   77.0186 N   0  0  0  0  0  0  0  0  0  0  0  0
    0.0151   65.0453   77.6009 O   0  0  0  0  0  0  0  0  0  0  0  0
   -1.7394   65.7319   76.4073 O   0  0  0  0  0  0  0  0  0  0  0  0
   -1.3510   60.3415   76.6319 O   0  0  0  0  0  0  0  0  0  0  0  0
   -2.3167   59.3077   76.7015 N   0  0  0  0  0  0  0  0  0  0  0  0
   -3.4948   59.6423   76.8144 O   0  0  0  0  0  0  0  0  0  0  0  0
   -1.8166   58.1887   76.6172 O   0  0  0  0  0  0  0  0  0  0  0  0
    0.9479   63.6680   86.7435 O   0  0  0  0  0  0  0  0  0  0  0  0
    0.2901   64.0797   87.9441 C   0  0  0  0  0  0  0  0  0  0  0  0
   -0.2615   61.7517   88.7799 C   0  0  0  0  0  0  0  0  0  0  0  0
    0.5371   63.0252   89.0212 C   0  0  0  0  0  0  0  0  0  0  0  0
 43 44  1  0  0  0
 44 42  1  0  0  0
 42 41  1  0  0  0
 41  1  1  0  0  0
  1  2  1  0  0  0
  2  3  2  0  0  0
  3  4  1  0  0  0
  4 22  1  0  0  0
 22 23  2  0  0  0
 22 24  2  0  0  0
 22 25  1  0  0  0
 25 26  1  0  0  0
 26 27  1  0  0  0
 27 28  1  0  0  0
 28 31  1  0  0  0
 31 32  1  0  0  0
 32 33  1  0  0  0
 33 34  1  0  0  0
 34 35  2  0  0  0
 34 36  1  0  0  0
 31 37  1  0  0  0
 37 38  1  0  0  0
 38 39  2  0  0  0
 38 40  1  0  0  0
 28 29  1  0  0  0
 29 30  1  0  0  0
  4  5  2  0  0  0
  5  6  1  0  0  0
  6  7  1  0  0  0
  7  8  2  0  0  0
  8  9  1  0  0  0
  9 10  1  0  0  0
 10 19  1  0  0  0
 19 20  1  0  0  0
 20 21  1  0  0  0
 10 11  2  0  0  0
 11 12  1  0  0  0
 12 13  1  0  0  0
 12 14  1  0  0  0
 14 15  1  0  0  0
 15 16  2  0  0  0
 15 17  1  0  0  0
  6  1  2  0  0  0
 17  7  1  0  0  0
 30 25  1  0  0  0
 14  9  2  0  0  0
 17 18  1  0  0  0
M  CHG 1  34   1
M  CHG 1  36  -1
M  CHG 1  38   1
M  CHG 1  40  -1
M  END
> <minimizedAffinity>
-8.62159

$$$$



 44 47  0  0  0  0  0  0  0  0999 V2000
   -0.1014   63.8668   84.1918 C   0  0  0  0  0  0  0  0  0  0  0  0
   -1.0673   63.7220   83.1836 C   0  0  0  0  0  0  0  0  0  0  0  0
   -0.9490   64.4100   81.9721 C   0  0  0  0  0  0  0  0  0  0  0  0
    0.1366   65.2578   81.7639 C   0  0  0  0  0  0  0  0  0  0  0  0
    1.0834   65.4473   82.7697 C   0  0  0  0  0  0  0  0  0  0  0  0
    0.9895   64.7393   83.9808 C   0  0  0  0  0  0  0  0  0  0  0  0
    2.1112   64.9464   84.9609 C   0  0  0  0  0  0  0  0  0  0  0  0
    3.1858   65.5753   84.5705 N   0  0  0  0  0  0  0  0  0  0  0  0
    4.1684   65.7046   85.5520 C   0  0  0  0  0  0  0  0  0  0  0  0
    5.4223   66.3338   85.4162 C   0  0  0  0  0  0  0  0  0  0  0  0
    6.0354   66.1966   86.6542 C   0  0  0  0  0  0  0  0  0  0  0  0
    5.1864   65.5113   87.4941 N   0  0  0  0  0  0  0  0  0  0  0  0
    5.4675   65.1716   88.8704 C   0  0  0  0  0  0  0  0  0  0  0  0
    4.0360   65.2081   86.8192 C   0  0  0  0  0  0  0  0  0  0  0  0
    2.8652   64.5157   87.2436 C   0  0  0  0  0  0  0  0  0  0  0  0
    2.6819   64.0223   88.3512 O   0  0  0  0  0  0  0  0  0  0  0  0
    1.9279   64.4443   86.2408 N   0  0  0  0  0  0  0  0  0  0  0  0
    1.0823   63.9374   86.4653 H   0  0  0  0  0  0  0  0  0  0  0  0
    5.9706   67.0161   84.2068 C   0  0  0  0  0  0  0  0  0  0  0  0
    7.4974   66.9689   84.1063 C   0  0  0  0  0  0  0  0  0  0  0  0
    8.0615   65.5601   84.2276 C   0  0  0  0  0  0  0  0  0  0  0  0
    0.2997   66.1477   80.2313 S   0  0  0  0  0  0  0  0  0  0  0  0
   -0.8140   67.0686   80.1435 O   0  0  0  0  0  0  0  0  0  0  0  0
    1.6664   66.6116   80.1429 O   0  0  0  0  0  0  0  0  0  0  0  0
    0.0598   64.9484   79.0475 N   0  0  0  0  0  0  0  0  0  0  0  0
    1.0843   63.8805   78.9687 C   0  0  0  0  0  0  0  0  0  0  0  0
    0.8287   62.9740   77.7617 C   0  0  0  0  0  0  0  0  0  0  0  0
   -0.6748   62.8117   77.4520 C   0  0  0  0  0  0  0  0  0  0  0  0
   -1.2879   64.1996   77.1547 C   0  0  0  0  0  0  0  0  0  0  0  0
   -0.4821   65.3639   77.7399 C   0  0  0  0  0  0  0  0  0  0  0  0
   -1.4282   62.0445   78.5862 C   0  0  0  0  0  0  0  0  0  0  0  0
   -2.7149   61.3414   78.0948 C   0  0  0  0  0  0  0  0  0  0  0  0
   -2.6726   59.9647   78.4727 O   0  0  0  0  0  0  0  0  0  0  0  0
   -3.6057   59.6461   79.4879 N   0  0  0  0  0  0  0  0  0  0  0  0
   -4.3041   60.5635   79.9190 O   0  0  0  0  0  0  0  0  0  0  0  0
   -3.5844   58.4562   79.7939 O   0  0  0  0  0  0  0  0  0  0  0  0
   -0.5149   61.0456   79.0736 O   0  0  0  0  0  0  0  0  0  0  0  0
   -0.2878   61.0952   80.4708 N   0  0  0  0  0  0  0  0  0  0  0  0
   -1.2642   60.9609   81.2066 O   0  0  0  0  0  0  0  0  0  0  0  0
    0.8980   61.2529   80.7506 O   0  0  0  0  0  0  0  0  0  0  0  0
   -0.1586   63.2043   85.3912 O   0  0  0  0  0  0  0  0  0  0  0  0
   -1.2513   62.3126   85.6249 C   0  0  0  0  0  0  0  0  0  0  0  0
   -1.6503   63.1232   87.9926 C   0  0  0  0  0  0  0  0  0  0  0  0
   -2.2275   62.9809   86.5911 C   0  0  0  0  0  0  0  0  0  0  0  0
 43 44  1  0  0  0
 44 42  1  0  0  0
 42 41  1  0  0  0
 41  1  1  0  0  0
  1  2  1  0  0  0
  2  3  2  0  0  0
  3  4  1  0  0  0
  4 22  1  0  0  0
 22 23  2  0  0  0
 22 24  2  0  0  0
 22 25  1  0  0  0
 25 26  1  0  0  0
 26 27  1  0  0  0
 27 28  1  0  0  0
 28 31  1  0  0  0
 31 32  1  0  0  0
 32 33  1  0  0  0
 33 34  1  0  0  0
 34 35  2  0  0  0
 34 36  1  0  0  0
 31 37  1  0  0  0
 37 38  1  0  0  0
 38 39  2  0  0  0
 38 40  1  0  0  0
 28 29  1  0  0  0
 29 30  1  0  0  0
  4  5  2  0  0  0
  5  6  1  0  0  0
  6  7  1  0  0  0
  7  8  2  0  0  0
  8  9  1  0  0  0
  9 10  1  0  0  0
 10 19  1  0  0  0
 19 20  1  0  0  0
 20 21  1  0  0  0
 10 11  2  0  0  0
 11 12  1  0  0  0
 12 13  1  0  0  0
 12 14  1  0  0  0
 14 15  1  0  0  0
 15 16  2  0  0  0
 15 17  1  0  0  0
  6  1  2  0  0  0
 17  7  1  0  0  0
 30 25  1  0  0  0
 14  9  2  0  0  0
 17 18  1  0  0  0
M  CHG 1  34   1
M  CHG 1  36  -1
M  CHG 1  38   1
M  CHG 1  40  -1
M  END
> <minimizedAffinity>
-8.55036

$$$$
