


 36 38  0  0  0  0  0  0  0  0999 V2000
    2.1739   66.9461   83.1628 C   0  0  0  0  0  0  0  0  0  0  0  0
    1.7821   67.9281   82.2408 C   0  0  0  0  0  0  0  0  0  0  0  0
    2.5237   69.1058   82.1207 C   0  0  0  0  0  0  0  0  0  0  0  0
    3.6766   69.3070   82.8822 C   0  0  0  0  0  0  0  0  0  0  0  0
    4.0649   68.3399   83.8083 C   0  0  0  0  0  0  0  0  0  0  0  0
    3.3038   67.1754   83.9684 C   0  0  0  0  0  0  0  0  0  0  0  0
    0.1356   63.9793   82.3510 C   0  0  0  0  0  0  0  0  0  0  0  0
    0.9585   65.0791   82.2129 N   0  0  0  0  0  0  0  0  0  0  0  0
    1.3243   65.7239   83.2736 C   0  0  0  0  0  0  0  0  0  0  0  0
    0.9572   65.3184   84.5267 N   0  0  0  0  0  0  0  0  0  0  0  0
    0.1874   64.2169   84.7585 C   0  0  0  0  0  0  0  0  0  0  0  0
   -0.1171   63.8897   85.9016 O   0  0  0  0  0  0  0  0  0  0  0  0
   -0.2550   63.4785   83.5425 C   0  0  0  0  0  0  0  0  0  0  0  0
   -1.3228   61.9682   83.7983 Br  0  0  0  0  0  0  0  0  0  0  0  0
    1.2500   65.8428   85.3427 H   0  0  0  0  0  0  0  0  0  0  0  0
   -0.2594   63.3616   81.0209 C   0  0  0  0  0  0  0  0  0  0  0  0
   -0.3030   64.3285   79.8263 C   0  0  0  0  0  0  0  0  0  0  0  0
   -0.5045   63.6927   78.4437 C   0  0  0  0  0  0  0  0  0  0  0  0
   -0.9189   62.2207   78.3802 C   0  0  0  0  0  0  0  0  0  0  0  0
   -1.4016   61.7578   77.0041 C   0  0  0  0  0  0  0  0  0  0  0  0
   -2.3092   60.5239   77.0641 C   0  0  0  0  0  0  0  0  0  0  0  0
   -3.6750   59.9231   79.1335 C   0  0  0  0  0  0  0  0  0  0  0  0
   -2.3466   59.7883   78.4060 C   0  0  0  0  0  0  0  0  0  0  0  0
    2.0334   70.3551   80.9554 S   0  0  0  0  0  0  0  0  0  0  0  0
    0.6447   70.1467   80.6070 O   0  0  0  0  0  0  0  0  0  0  0  0
    3.0656   70.4154   79.9424 O   0  0  0  0  0  0  0  0  0  0  0  0
    2.1266   71.7727   81.8950 N   0  0  0  0  0  0  0  0  0  0  0  0
    0.8353   72.5005   82.1209 C   0  0  0  0  0  0  0  0  0  0  0  0
    0.7775   73.8406   81.3657 C   0  0  0  0  0  0  0  0  0  0  0  0
    1.8763   74.7768   81.6761 N   0  0  0  0  0  0  0  0  0  0  0  0
    1.4818   75.7938   82.6461 C   0  0  0  0  0  0  0  0  0  0  0  0
    3.0899   74.0656   82.1236 C   0  0  0  0  0  0  0  0  0  0  0  0
    3.2415   72.6817   81.4710 C   0  0  0  0  0  0  0  0  0  0  0  0
    3.6892   66.2347   84.8916 O   0  0  0  0  0  0  0  0  0  0  0  0
    5.0969   65.9633   84.8262 C   0  0  0  0  0  0  0  0  0  0  0  0
    5.6708   66.1412   86.2193 C   0  0  0  0  0  0  0  0  0  0  0  0
 22 23  1  0  0  0
 23 21  1  0  0  0
 21 20  1  0  0  0
 20 19  1  0  0  0
 19 18  1  0  0  0
 18 17  1  0  0  0
 17 16  1  0  0  0
 16  7  1  0  0  0
  7  8  1  0  0  0
  8  9  2  0  0  0
  9  1  1  0  0  0
  1  2  1  0  0  0
  2  3  2  0  0  0
  3 24  1  0  0  0
 24 25  2  0  0  0
 24 26  2  0  0  0
 24 27  1  0  0  0
 27 28  1  0  0  0
 28 29  1  0  0  0
 29 30  1  0  0  0
 30 31  1  0  0  0
 30 32  1  0  0  0
 32 33  1  0  0  0
  3  4  1  0  0  0
  4  5  2  0  0  0
  5  6  1  0  0  0
  6 34  1  0  0  0
 34 35  1  0  0  0
 35 36  1  0  0  0
  9 10  1  0  0  0
 10 11  1  0  0  0
 11 12  2  0  0  0
 11 13  1  0  0  0
 13 14  1  0  0  0
 13  7  2  0  0  0
  6  1  2  0  0  0
 33 27  1  0  0  0
 10 15  1  0  0  0
M  END
> <minimizedAffinity>
-1.78097

$$$$



 36 38  0  0  0  0  0  0  0  0999 V2000
    0.9750   66.1146   81.7507 C   0  0  0  0  0  0  0  0  0  0  0  0
    1.5242   67.3164   82.2219 C   0  0  0  0  0  0  0  0  0  0  0  0
    2.0174   68.2588   81.3162 C   0  0  0  0  0  0  0  0  0  0  0  0
    1.9391   68.0385   79.9397 C   0  0  0  0  0  0  0  0  0  0  0  0
    1.4047   66.8414   79.4654 C   0  0  0  0  0  0  0  0  0  0  0  0
    0.9480   65.8709   80.3658 C   0  0  0  0  0  0  0  0  0  0  0  0
   -0.7732   63.3144   83.3996 C   0  0  0  0  0  0  0  0  0  0  0  0
   -0.3157   64.1799   82.4261 N   0  0  0  0  0  0  0  0  0  0  0  0
    0.4958   65.1295   82.7644 C   0  0  0  0  0  0  0  0  0  0  0  0
    0.9476   65.2692   84.0473 N   0  0  0  0  0  0  0  0  0  0  0  0
    0.5862   64.4314   85.0608 C   0  0  0  0  0  0  0  0  0  0  0  0
    1.0179   64.5947   86.1981 O   0  0  0  0  0  0  0  0  0  0  0  0
   -0.3630   63.3462   84.6856 C   0  0  0  0  0  0  0  0  0  0  0  0
   -0.9033   62.1755   86.0362 Br  0  0  0  0  0  0  0  0  0  0  0  0
    1.5776   66.0245   84.2907 H   0  0  0  0  0  0  0  0  0  0  0  0
   -1.7627   62.2919   82.8686 C   0  0  0  0  0  0  0  0  0  0  0  0
   -1.2178   61.3350   81.7957 C   0  0  0  0  0  0  0  0  0  0  0  0
   -2.2581   60.6825   80.8746 C   0  0  0  0  0  0  0  0  0  0  0  0
   -2.2078   61.0135   79.3812 C   0  0  0  0  0  0  0  0  0  0  0  0
   -3.2623   60.2943   78.5375 C   0  0  0  0  0  0  0  0  0  0  0  0
   -3.1302   60.5734   77.0360 C   0  0  0  0  0  0  0  0  0  0  0  0
   -1.3405   58.8524   76.4495 C   0  0  0  0  0  0  0  0  0  0  0  0
   -1.7483   60.3171   76.4293 C   0  0  0  0  0  0  0  0  0  0  0  0
    2.7155   69.7835   81.9054 S   0  0  0  0  0  0  0  0  0  0  0  0
    4.0620   69.9077   81.3913 O   0  0  0  0  0  0  0  0  0  0  0  0
    2.4391   69.8533   83.3245 O   0  0  0  0  0  0  0  0  0  0  0  0
    1.7490   70.9438   81.1175 N   0  0  0  0  0  0  0  0  0  0  0  0
    2.3529   72.3070   80.9581 C   0  0  0  0  0  0  0  0  0  0  0  0
    1.6666   73.3599   81.8469 C   0  0  0  0  0  0  0  0  0  0  0  0
    0.2102   73.4916   81.6427 N   0  0  0  0  0  0  0  0  0  0  0  0
   -0.1297   74.6189   80.7797 C   0  0  0  0  0  0  0  0  0  0  0  0
   -0.3853   72.2407   81.1333 C   0  0  0  0  0  0  0  0  0  0  0  0
    0.3443   70.9862   81.6410 C   0  0  0  0  0  0  0  0  0  0  0  0
    0.4340   64.6906   79.8879 O   0  0  0  0  0  0  0  0  0  0  0  0
   -0.3812   64.8920   78.7240 C   0  0  0  0  0  0  0  0  0  0  0  0
    0.0130   63.8508   77.6933 C   0  0  0  0  0  0  0  0  0  0  0  0
 22 23  1  0  0  0
 23 21  1  0  0  0
 21 20  1  0  0  0
 20 19  1  0  0  0
 19 18  1  0  0  0
 18 17  1  0  0  0
 17 16  1  0  0  0
 16  7  1  0  0  0
  7  8  1  0  0  0
  8  9  2  0  0  0
  9  1  1  0  0  0
  1  2  1  0  0  0
  2  3  2  0  0  0
  3 24  1  0  0  0
 24 25  2  0  0  0
 24 26  2  0  0  0
 24 27  1  0  0  0
 27 28  1  0  0  0
 28 29  1  0  0  0
 29 30  1  0  0  0
 30 31  1  0  0  0
 30 32  1  0  0  0
 32 33  1  0  0  0
  3  4  1  0  0  0
  4  5  2  0  0  0
  5  6  1  0  0  0
  6 34  1  0  0  0
 34 35  1  0  0  0
 35 36  1  0  0  0
  9 10  1  0  0  0
 10 11  1  0  0  0
 11 12  2  0  0  0
 11 13  1  0  0  0
 13 14  1  0  0  0
 13  7  2  0  0  0
  6  1  2  0  0  0
 33 27  1  0  0  0
 10 15  1  0  0  0
M  END
> <minimizedAffinity>
-1.60627

$$$$



 36 38  0  0  0  0  0  0  0  0999 V2000
    2.4717   68.7368   81.9362 C   0  0  0  0  0  0  0  0  0  0  0  0
    1.7072   68.0590   80.9748 C   0  0  0  0  0  0  0  0  0  0  0  0
    1.3391   66.7287   81.1896 C   0  0  0  0  0  0  0  0  0  0  0  0
    1.6909   66.0697   82.3691 C   0  0  0  0  0  0  0  0  0  0  0  0
    2.4601   66.7340   83.3234 C   0  0  0  0  0  0  0  0  0  0  0  0
    2.8722   68.0534   83.0985 C   0  0  0  0  0  0  0  0  0  0  0  0
    2.5608   72.4231   81.7986 C   0  0  0  0  0  0  0  0  0  0  0  0
    2.1943   71.1346   82.1324 N   0  0  0  0  0  0  0  0  0  0  0  0
    2.8661   70.1451   81.6382 C   0  0  0  0  0  0  0  0  0  0  0  0
    3.9546   70.3422   80.8347 N   0  0  0  0  0  0  0  0  0  0  0  0
    4.4156   71.5795   80.4936 C   0  0  0  0  0  0  0  0  0  0  0  0
    5.3982   71.7087   79.7695 O   0  0  0  0  0  0  0  0  0  0  0  0
    3.6375   72.7254   81.0420 C   0  0  0  0  0  0  0  0  0  0  0  0
    4.2151   74.4445   80.5974 Br  0  0  0  0  0  0  0  0  0  0  0  0
    4.4616   69.5521   80.4535 H   0  0  0  0  0  0  0  0  0  0  0  0
    1.6478   73.4762   82.4022 C   0  0  0  0  0  0  0  0  0  0  0  0
    0.5160   73.9760   81.4895 C   0  0  0  0  0  0  0  0  0  0  0  0
    0.5084   75.4787   81.1762 C   0  0  0  0  0  0  0  0  0  0  0  0
   -0.0911   76.4291   82.2155 C   0  0  0  0  0  0  0  0  0  0  0  0
    0.9406   77.1301   83.1018 C   0  0  0  0  0  0  0  0  0  0  0  0
    0.3874   78.3730   83.8082 C   0  0  0  0  0  0  0  0  0  0  0  0
    2.1483   78.0648   85.6283 C   0  0  0  0  0  0  0  0  0  0  0  0
    0.7315   78.5041   85.2940 C   0  0  0  0  0  0  0  0  0  0  0  0
    0.3712   65.8629   79.9760 S   0  0  0  0  0  0  0  0  0  0  0  0
    1.2097   65.5724   78.8334 O   0  0  0  0  0  0  0  0  0  0  0  0
   -0.8740   66.5872   79.8347 O   0  0  0  0  0  0  0  0  0  0  0  0
    0.0434   64.3910   80.7680 N   0  0  0  0  0  0  0  0  0  0  0  0
    0.2155   63.1478   79.9475 C   0  0  0  0  0  0  0  0  0  0  0  0
   -1.1272   62.4680   79.6244 C   0  0  0  0  0  0  0  0  0  0  0  0
   -1.9442   62.1144   80.8025 N   0  0  0  0  0  0  0  0  0  0  0  0
   -1.8075   60.7085   81.1710 C   0  0  0  0  0  0  0  0  0  0  0  0
   -1.6512   62.9909   81.9534 C   0  0  0  0  0  0  0  0  0  0  0  0
   -1.2484   64.4128   81.5293 C   0  0  0  0  0  0  0  0  0  0  0  0
    3.6392   68.6943   84.0400 O   0  0  0  0  0  0  0  0  0  0  0  0
    4.1414   67.7868   85.0319 C   0  0  0  0  0  0  0  0  0  0  0  0
    5.6564   67.8009   84.9518 C   0  0  0  0  0  0  0  0  0  0  0  0
 22 23  1  0  0  0
 23 21  1  0  0  0
 21 20  1  0  0  0
 20 19  1  0  0  0
 19 18  1  0  0  0
 18 17  1  0  0  0
 17 16  1  0  0  0
 16  7  1  0  0  0
  7  8  1  0  0  0
  8  9  2  0  0  0
  9  1  1  0  0  0
  1  2  1  0  0  0
  2  3  2  0  0  0
  3 24  1  0  0  0
 24 25  2  0  0  0
 24 26  2  0  0  0
 24 27  1  0  0  0
 27 28  1  0  0  0
 28 29  1  0  0  0
 29 30  1  0  0  0
 30 31  1  0  0  0
 30 32  1  0  0  0
 32 33  1  0  0  0
  3  4  1  0  0  0
  4  5  2  0  0  0
  5  6  1  0  0  0
  6 34  1  0  0  0
 34 35  1  0  0  0
 35 36  1  0  0  0
  9 10  1  0  0  0
 10 11  1  0  0  0
 11 12  2  0  0  0
 11 13  1  0  0  0
 13 14  1  0  0  0
 13  7  2  0  0  0
  6  1  2  0  0  0
 33 27  1  0  0  0
 10 15  1  0  0  0
M  END
> <minimizedAffinity>
-1.60276

$$$$



 36 38  0  0  0  0  0  0  0  0999 V2000
    2.4507   68.7115   81.9745 C   0  0  0  0  0  0  0  0  0  0  0  0
    1.6878   68.0206   81.0213 C   0  0  0  0  0  0  0  0  0  0  0  0
    1.3332   66.6883   81.2460 C   0  0  0  0  0  0  0  0  0  0  0  0
    1.6973   66.0399   82.4278 C   0  0  0  0  0  0  0  0  0  0  0  0
    2.4651   66.7173   83.3739 C   0  0  0  0  0  0  0  0  0  0  0  0
    2.8636   68.0391   83.1388 C   0  0  0  0  0  0  0  0  0  0  0  0
    2.4997   72.3973   81.8069 C   0  0  0  0  0  0  0  0  0  0  0  0
    2.1465   71.1076   82.1504 N   0  0  0  0  0  0  0  0  0  0  0  0
    2.8303   70.1216   81.6658 C   0  0  0  0  0  0  0  0  0  0  0  0
    3.9184   70.3241   80.8631 N   0  0  0  0  0  0  0  0  0  0  0  0
    4.3667   71.5635   80.5129 C   0  0  0  0  0  0  0  0  0  0  0  0
    5.3494   71.6976   79.7900 O   0  0  0  0  0  0  0  0  0  0  0  0
    3.5747   72.7053   81.0502 C   0  0  0  0  0  0  0  0  0  0  0  0
    4.1345   74.4269   80.5928 Br  0  0  0  0  0  0  0  0  0  0  0  0
    4.4350   69.5365   80.4896 H   0  0  0  0  0  0  0  0  0  0  0  0
    1.5738   73.4452   82.3997 C   0  0  0  0  0  0  0  0  0  0  0  0
    0.4093   73.8886   81.4990 C   0  0  0  0  0  0  0  0  0  0  0  0
    0.4210   75.3548   81.0448 C   0  0  0  0  0  0  0  0  0  0  0  0
   -0.8955   75.9727   80.5679 C   0  0  0  0  0  0  0  0  0  0  0  0
   -1.1014   75.9323   79.0522 C   0  0  0  0  0  0  0  0  0  0  0  0
   -2.5322   76.2799   78.6259 C   0  0  0  0  0  0  0  0  0  0  0  0
   -4.4141   75.5311   77.0746 C   0  0  0  0  0  0  0  0  0  0  0  0
   -2.9323   75.8424   77.2146 C   0  0  0  0  0  0  0  0  0  0  0  0
    0.3674   65.8060   80.0428 S   0  0  0  0  0  0  0  0  0  0  0  0
    1.2111   65.4886   78.9113 O   0  0  0  0  0  0  0  0  0  0  0  0
   -0.8722   66.5355   79.8799 O   0  0  0  0  0  0  0  0  0  0  0  0
    0.0251   64.3514   80.8603 N   0  0  0  0  0  0  0  0  0  0  0  0
    0.2066   63.0911   80.0684 C   0  0  0  0  0  0  0  0  0  0  0  0
   -1.1327   62.4071   79.7398 C   0  0  0  0  0  0  0  0  0  0  0  0
   -1.9675   62.0794   80.9128 N   0  0  0  0  0  0  0  0  0  0  0  0
   -1.8391   60.6813   81.3123 C   0  0  0  0  0  0  0  0  0  0  0  0
   -1.6896   62.9791   82.0495 C   0  0  0  0  0  0  0  0  0  0  0  0
   -1.2778   64.3913   81.6019 C   0  0  0  0  0  0  0  0  0  0  0  0
    3.6293   68.6930   84.0724 O   0  0  0  0  0  0  0  0  0  0  0  0
    4.2170   67.7853   85.0161 C   0  0  0  0  0  0  0  0  0  0  0  0
    5.7109   67.7439   84.7544 C   0  0  0  0  0  0  0  0  0  0  0  0
 22 23  1  0  0  0
 23 21  1  0  0  0
 21 20  1  0  0  0
 20 19  1  0  0  0
 19 18  1  0  0  0
 18 17  1  0  0  0
 17 16  1  0  0  0
 16  7  1  0  0  0
  7  8  1  0  0  0
  8  9  2  0  0  0
  9  1  1  0  0  0
  1  2  1  0  0  0
  2  3  2  0  0  0
  3 24  1  0  0  0
 24 25  2  0  0  0
 24 26  2  0  0  0
 24 27  1  0  0  0
 27 28  1  0  0  0
 28 29  1  0  0  0
 29 30  1  0  0  0
 30 31  1  0  0  0
 30 32  1  0  0  0
 32 33  1  0  0  0
  3  4  1  0  0  0
  4  5  2  0  0  0
  5  6  1  0  0  0
  6 34  1  0  0  0
 34 35  1  0  0  0
 35 36  1  0  0  0
  9 10  1  0  0  0
 10 11  1  0  0  0
 11 12  2  0  0  0
 11 13  1  0  0  0
 13 14  1  0  0  0
 13  7  2  0  0  0
  6  1  2  0  0  0
 33 27  1  0  0  0
 10 15  1  0  0  0
M  END
> <minimizedAffinity>
-1.57177

$$$$



 36 38  0  0  0  0  0  0  0  0999 V2000
    2.2778   73.9149   82.0037 C   0  0  0  0  0  0  0  0  0  0  0  0
    2.8841   72.6500   81.9783 C   0  0  0  0  0  0  0  0  0  0  0  0
    2.1306   71.5233   81.6405 C   0  0  0  0  0  0  0  0  0  0  0  0
    0.7841   71.6410   81.2903 C   0  0  0  0  0  0  0  0  0  0  0  0
    0.1728   72.8935   81.3245 C   0  0  0  0  0  0  0  0  0  0  0  0
    0.9077   74.0233   81.7046 C   0  0  0  0  0  0  0  0  0  0  0  0
    4.8315   76.5782   82.0370 C   0  0  0  0  0  0  0  0  0  0  0  0
    4.0398   75.5296   81.6129 N   0  0  0  0  0  0  0  0  0  0  0  0
    3.1221   75.0781   82.4058 C   0  0  0  0  0  0  0  0  0  0  0  0
    2.8853   75.6406   83.6292 N   0  0  0  0  0  0  0  0  0  0  0  0
    3.5858   76.7085   84.1074 C   0  0  0  0  0  0  0  0  0  0  0  0
    3.3377   77.1816   85.2124 O   0  0  0  0  0  0  0  0  0  0  0  0
    4.6576   77.2238   83.2100 C   0  0  0  0  0  0  0  0  0  0  0  0
    5.6588   78.6778   83.8182 Br  0  0  0  0  0  0  0  0  0  0  0  0
    2.1656   75.2661   84.2363 H   0  0  0  0  0  0  0  0  0  0  0  0
    5.9016   76.9605   81.0294 C   0  0  0  0  0  0  0  0  0  0  0  0
    7.2051   76.1487   81.1044 C   0  0  0  0  0  0  0  0  0  0  0  0
    8.0135   76.0384   79.8041 C   0  0  0  0  0  0  0  0  0  0  0  0
    7.3133   76.3849   78.4880 C   0  0  0  0  0  0  0  0  0  0  0  0
    8.1842   76.2091   77.2423 C   0  0  0  0  0  0  0  0  0  0  0  0
    8.1426   74.7878   76.6699 C   0  0  0  0  0  0  0  0  0  0  0  0
    6.6224   72.9009   77.4682 C   0  0  0  0  0  0  0  0  0  0  0  0
    6.7581   74.1389   76.5959 C   0  0  0  0  0  0  0  0  0  0  0  0
    2.8913   69.9174   81.6069 S   0  0  0  0  0  0  0  0  0  0  0  0
    3.5217   69.6745   82.8862 O   0  0  0  0  0  0  0  0  0  0  0  0
    3.6361   69.8294   80.3688 O   0  0  0  0  0  0  0  0  0  0  0  0
    1.5400   68.8872   81.4891 N   0  0  0  0  0  0  0  0  0  0  0  0
    1.4124   67.8419   82.5566 C   0  0  0  0  0  0  0  0  0  0  0  0
    1.6652   66.4216   82.0198 C   0  0  0  0  0  0  0  0  0  0  0  0
    0.7968   66.0183   80.8957 N   0  0  0  0  0  0  0  0  0  0  0  0
   -0.3269   65.1941   81.3303 C   0  0  0  0  0  0  0  0  0  0  0  0
    0.3260   67.1848   80.1233 C   0  0  0  0  0  0  0  0  0  0  0  0
    1.3443   68.3367   80.1080 C   0  0  0  0  0  0  0  0  0  0  0  0
    0.2927   75.2503   81.7458 O   0  0  0  0  0  0  0  0  0  0  0  0
    0.0140   75.7558   80.4318 C   0  0  0  0  0  0  0  0  0  0  0  0
    0.6460   77.1304   80.3178 C   0  0  0  0  0  0  0  0  0  0  0  0
 22 23  1  0  0  0
 23 21  1  0  0  0
 21 20  1  0  0  0
 20 19  1  0  0  0
 19 18  1  0  0  0
 18 17  1  0  0  0
 17 16  1  0  0  0
 16  7  1  0  0  0
  7  8  1  0  0  0
  8  9  2  0  0  0
  9  1  1  0  0  0
  1  2  1  0  0  0
  2  3  2  0  0  0
  3 24  1  0  0  0
 24 25  2  0  0  0
 24 26  2  0  0  0
 24 27  1  0  0  0
 27 28  1  0  0  0
 28 29  1  0  0  0
 29 30  1  0  0  0
 30 31  1  0  0  0
 30 32  1  0  0  0
 32 33  1  0  0  0
  3  4  1  0  0  0
  4  5  2  0  0  0
  5  6  1  0  0  0
  6 34  1  0  0  0
 34 35  1  0  0  0
 35 36  1  0  0  0
  9 10  1  0  0  0
 10 11  1  0  0  0
 11 12  2  0  0  0
 11 13  1  0  0  0
 13 14  1  0  0  0
 13  7  2  0  0  0
  6  1  2  0  0  0
 33 27  1  0  0  0
 10 15  1  0  0  0
M  END
> <minimizedAffinity>
-1.48347

$$$$



 36 38  0  0  0  0  0  0  0  0999 V2000
    3.0112   73.6279   81.6085 C   0  0  0  0  0  0  0  0  0  0  0  0
    2.2210   72.4708   81.6756 C   0  0  0  0  0  0  0  0  0  0  0  0
    2.6479   71.2987   81.0468 C   0  0  0  0  0  0  0  0  0  0  0  0
    3.8732   71.2497   80.3792 C   0  0  0  0  0  0  0  0  0  0  0  0
    4.6578   72.3993   80.2992 C   0  0  0  0  0  0  0  0  0  0  0  0
    4.2186   73.5915   80.8880 C   0  0  0  0  0  0  0  0  0  0  0  0
    1.0156   76.6260   82.4115 C   0  0  0  0  0  0  0  0  0  0  0  0
    1.4431   75.4634   81.8020 N   0  0  0  0  0  0  0  0  0  0  0  0
    2.4890   74.8606   82.2684 C   0  0  0  0  0  0  0  0  0  0  0  0
    3.1518   75.3173   83.3737 N   0  0  0  0  0  0  0  0  0  0  0  0
    2.7704   76.4287   84.0659 C   0  0  0  0  0  0  0  0  0  0  0  0
    3.3956   76.8014   85.0541 O   0  0  0  0  0  0  0  0  0  0  0  0
    1.5785   77.1408   83.5255 C   0  0  0  0  0  0  0  0  0  0  0  0
    1.0177   78.6777   84.4255 Br  0  0  0  0  0  0  0  0  0  0  0  0
    3.9726   74.8328   83.7173 H   0  0  0  0  0  0  0  0  0  0  0  0
   -0.1830   77.2531   81.7209 C   0  0  0  0  0  0  0  0  0  0  0  0
   -0.0405   77.4648   80.2048 C   0  0  0  0  0  0  0  0  0  0  0  0
   -1.1317   78.3077   79.5302 C   0  0  0  0  0  0  0  0  0  0  0  0
   -1.4395   78.0419   78.0547 C   0  0  0  0  0  0  0  0  0  0  0  0
   -1.6004   76.5627   77.6981 C   0  0  0  0  0  0  0  0  0  0  0  0
   -2.8439   76.2762   76.8489 C   0  0  0  0  0  0  0  0  0  0  0  0
   -5.1145   75.1366   76.6150 C   0  0  0  0  0  0  0  0  0  0  0  0
   -3.9369   75.4453   77.5260 C   0  0  0  0  0  0  0  0  0  0  0  0
    1.6521   69.8287   81.1268 S   0  0  0  0  0  0  0  0  0  0  0  0
    1.4542   69.3274   79.7841 O   0  0  0  0  0  0  0  0  0  0  0  0
    0.5327   70.1243   81.9955 O   0  0  0  0  0  0  0  0  0  0  0  0
    2.6844   68.7447   81.9396 N   0  0  0  0  0  0  0  0  0  0  0  0
    2.2083   67.3260   82.0347 C   0  0  0  0  0  0  0  0  0  0  0  0
    1.8146   66.9346   83.4704 C   0  0  0  0  0  0  0  0  0  0  0  0
    2.8788   67.1156   84.4779 N   0  0  0  0  0  0  0  0  0  0  0  0
    3.5724   65.8679   84.7829 C   0  0  0  0  0  0  0  0  0  0  0  0
    3.8361   68.1658   84.0786 C   0  0  0  0  0  0  0  0  0  0  0  0
    3.1809   69.2820   83.2487 C   0  0  0  0  0  0  0  0  0  0  0  0
    4.9941   74.7207   80.7933 O   0  0  0  0  0  0  0  0  0  0  0  0
    6.1910   74.4883   80.0362 C   0  0  0  0  0  0  0  0  0  0  0  0
    7.2554   75.4435   80.5428 C   0  0  0  0  0  0  0  0  0  0  0  0
 22 23  1  0  0  0
 23 21  1  0  0  0
 21 20  1  0  0  0
 20 19  1  0  0  0
 19 18  1  0  0  0
 18 17  1  0  0  0
 17 16  1  0  0  0
 16  7  1  0  0  0
  7  8  1  0  0  0
  8  9  2  0  0  0
  9  1  1  0  0  0
  1  2  1  0  0  0
  2  3  2  0  0  0
  3 24  1  0  0  0
 24 25  2  0  0  0
 24 26  2  0  0  0
 24 27  1  0  0  0
 27 28  1  0  0  0
 28 29  1  0  0  0
 29 30  1  0  0  0
 30 31  1  0  0  0
 30 32  1  0  0  0
 32 33  1  0  0  0
  3  4  1  0  0  0
  4  5  2  0  0  0
  5  6  1  0  0  0
  6 34  1  0  0  0
 34 35  1  0  0  0
 35 36  1  0  0  0
  9 10  1  0  0  0
 10 11  1  0  0  0
 11 12  2  0  0  0
 11 13  1  0  0  0
 13 14  1  0  0  0
 13  7  2  0  0  0
  6  1  2  0  0  0
 33 27  1  0  0  0
 10 15  1  0  0  0
M  END
> <minimizedAffinity>
-1.47576

$$$$



 36 38  0  0  0  0  0  0  0  0999 V2000
    2.7628   71.9351   81.3195 C   0  0  0  0  0  0  0  0  0  0  0  0
    4.0375   72.2639   80.8346 C   0  0  0  0  0  0  0  0  0  0  0  0
    4.2993   73.5616   80.3888 C   0  0  0  0  0  0  0  0  0  0  0  0
    3.3176   74.5524   80.4521 C   0  0  0  0  0  0  0  0  0  0  0  0
    2.0456   74.2292   80.9224 C   0  0  0  0  0  0  0  0  0  0  0  0
    1.7593   72.9205   81.3304 C   0  0  0  0  0  0  0  0  0  0  0  0
    1.4562   68.4937   81.5756 C   0  0  0  0  0  0  0  0  0  0  0  0
    1.6789   69.7785   81.1219 N   0  0  0  0  0  0  0  0  0  0  0  0
    2.5295   70.5249   81.7494 C   0  0  0  0  0  0  0  0  0  0  0  0
    3.2459   70.0610   82.8176 N   0  0  0  0  0  0  0  0  0  0  0  0
    3.1253   68.7919   83.3020 C   0  0  0  0  0  0  0  0  0  0  0  0
    3.7901   68.4183   84.2636 O   0  0  0  0  0  0  0  0  0  0  0  0
    2.1343   67.9304   82.5983 C   0  0  0  0  0  0  0  0  0  0  0  0
    1.9170   66.1855   83.2264 Br  0  0  0  0  0  0  0  0  0  0  0  0
    3.9019   70.6656   83.2979 H   0  0  0  0  0  0  0  0  0  0  0  0
    0.3911   67.7587   80.7806 C   0  0  0  0  0  0  0  0  0  0  0  0
    0.9116   66.7118   79.7821 C   0  0  0  0  0  0  0  0  0  0  0  0
   -0.1263   65.7265   79.2268 C   0  0  0  0  0  0  0  0  0  0  0  0
    0.2958   64.2684   79.0315 C   0  0  0  0  0  0  0  0  0  0  0  0
   -0.8129   63.3532   78.5078 C   0  0  0  0  0  0  0  0  0  0  0  0
   -1.2634   62.3022   79.5286 C   0  0  0  0  0  0  0  0  0  0  0  0
   -2.4014   60.5185   78.1031 C   0  0  0  0  0  0  0  0  0  0  0  0
   -1.2519   60.8511   79.0411 C   0  0  0  0  0  0  0  0  0  0  0  0
    5.9115   73.9859   79.7723 S   0  0  0  0  0  0  0  0  0  0  0  0
    5.7591   74.9049   78.6654 O   0  0  0  0  0  0  0  0  0  0  0  0
    6.6480   72.7479   79.6306 O   0  0  0  0  0  0  0  0  0  0  0  0
    6.5745   74.8526   81.0802 N   0  0  0  0  0  0  0  0  0  0  0  0
    6.2686   76.3199   81.1221 C   0  0  0  0  0  0  0  0  0  0  0  0
    7.5066   77.1856   80.8266 C   0  0  0  0  0  0  0  0  0  0  0  0
    8.6597   76.9457   81.7172 N   0  0  0  0  0  0  0  0  0  0  0  0
    8.7506   77.9352   82.7865 C   0  0  0  0  0  0  0  0  0  0  0  0
    8.6494   75.5759   82.2672 C   0  0  0  0  0  0  0  0  0  0  0  0
    8.0271   74.5534   81.3022 C   0  0  0  0  0  0  0  0  0  0  0  0
    0.4998   72.6107   81.7811 O   0  0  0  0  0  0  0  0  0  0  0  0
   -0.5122   73.3868   81.1230 C   0  0  0  0  0  0  0  0  0  0  0  0
   -1.3856   72.4347   80.3275 C   0  0  0  0  0  0  0  0  0  0  0  0
 22 23  1  0  0  0
 23 21  1  0  0  0
 21 20  1  0  0  0
 20 19  1  0  0  0
 19 18  1  0  0  0
 18 17  1  0  0  0
 17 16  1  0  0  0
 16  7  1  0  0  0
  7  8  1  0  0  0
  8  9  2  0  0  0
  9  1  1  0  0  0
  1  2  1  0  0  0
  2  3  2  0  0  0
  3 24  1  0  0  0
 24 25  2  0  0  0
 24 26  2  0  0  0
 24 27  1  0  0  0
 27 28  1  0  0  0
 28 29  1  0  0  0
 29 30  1  0  0  0
 30 31  1  0  0  0
 30 32  1  0  0  0
 32 33  1  0  0  0
  3  4  1  0  0  0
  4  5  2  0  0  0
  5  6  1  0  0  0
  6 34  1  0  0  0
 34 35  1  0  0  0
 35 36  1  0  0  0
  9 10  1  0  0  0
 10 11  1  0  0  0
 11 12  2  0  0  0
 11 13  1  0  0  0
 13 14  1  0  0  0
 13  7  2  0  0  0
  6  1  2  0  0  0
 33 27  1  0  0  0
 10 15  1  0  0  0
M  END
> <minimizedAffinity>
-1.46713

$$$$



 36 38  0  0  0  0  0  0  0  0999 V2000
    1.6980   68.8498   81.8089 C   0  0  0  0  0  0  0  0  0  0  0  0
    1.0964   68.0674   80.8118 C   0  0  0  0  0  0  0  0  0  0  0  0
    1.1396   66.6739   80.8996 C   0  0  0  0  0  0  0  0  0  0  0  0
    1.7440   66.0433   81.9889 C   0  0  0  0  0  0  0  0  0  0  0  0
    2.3535   66.8149   82.9772 C   0  0  0  0  0  0  0  0  0  0  0  0
    2.3547   68.2117   82.8764 C   0  0  0  0  0  0  0  0  0  0  0  0
    2.6623   72.3981   81.5004 C   0  0  0  0  0  0  0  0  0  0  0  0
    2.7451   71.0242   81.6072 N   0  0  0  0  0  0  0  0  0  0  0  0
    1.6519   70.3326   81.6454 C   0  0  0  0  0  0  0  0  0  0  0  0
    0.4224   70.9205   81.5358 N   0  0  0  0  0  0  0  0  0  0  0  0
    0.2493   72.2640   81.3787 C   0  0  0  0  0  0  0  0  0  0  0  0
   -0.8744   72.7481   81.2835 O   0  0  0  0  0  0  0  0  0  0  0  0
    1.5013   73.0713   81.3527 C   0  0  0  0  0  0  0  0  0  0  0  0
    1.3252   74.9194   81.1526 Br  0  0  0  0  0  0  0  0  0  0  0  0
   -0.4206   70.3597   81.5751 H   0  0  0  0  0  0  0  0  0  0  0  0
    4.0195   73.0794   81.5283 C   0  0  0  0  0  0  0  0  0  0  0  0
    4.6651   73.3303   80.1557 C   0  0  0  0  0  0  0  0  0  0  0  0
    6.1247   73.8054   80.1673 C   0  0  0  0  0  0  0  0  0  0  0  0
    6.3966   75.3041   80.0175 C   0  0  0  0  0  0  0  0  0  0  0  0
    7.3300   75.8875   81.0803 C   0  0  0  0  0  0  0  0  0  0  0  0
    7.4126   77.4176   81.0400 C   0  0  0  0  0  0  0  0  0  0  0  0
    7.8758   77.1402   83.5334 C   0  0  0  0  0  0  0  0  0  0  0  0
    7.6284   78.1095   82.3882 C   0  0  0  0  0  0  0  0  0  0  0  0
    0.3803   65.6758   79.6401 S   0  0  0  0  0  0  0  0  0  0  0  0
    1.3761   65.3484   78.6430 O   0  0  0  0  0  0  0  0  0  0  0  0
   -0.8635   66.3235   79.2815 O   0  0  0  0  0  0  0  0  0  0  0  0
    0.0102   64.2489   80.4935 N   0  0  0  0  0  0  0  0  0  0  0  0
    0.0882   62.9727   79.7101 C   0  0  0  0  0  0  0  0  0  0  0  0
   -1.2983   62.3525   79.4602 C   0  0  0  0  0  0  0  0  0  0  0  0
   -2.0859   62.0793   80.6790 N   0  0  0  0  0  0  0  0  0  0  0  0
   -2.0055   60.6809   81.0900 C   0  0  0  0  0  0  0  0  0  0  0  0
   -1.7052   62.9763   81.7878 C   0  0  0  0  0  0  0  0  0  0  0  0
   -1.2486   64.3614   81.3008 C   0  0  0  0  0  0  0  0  0  0  0  0
    2.9680   68.9614   83.8498 O   0  0  0  0  0  0  0  0  0  0  0  0
    3.6357   68.1405   84.8192 C   0  0  0  0  0  0  0  0  0  0  0  0
    5.1218   68.1764   84.5156 C   0  0  0  0  0  0  0  0  0  0  0  0
 22 23  1  0  0  0
 23 21  1  0  0  0
 21 20  1  0  0  0
 20 19  1  0  0  0
 19 18  1  0  0  0
 18 17  1  0  0  0
 17 16  1  0  0  0
 16  7  1  0  0  0
  7  8  1  0  0  0
  8  9  2  0  0  0
  9  1  1  0  0  0
  1  2  1  0  0  0
  2  3  2  0  0  0
  3 24  1  0  0  0
 24 25  2  0  0  0
 24 26  2  0  0  0
 24 27  1  0  0  0
 27 28  1  0  0  0
 28 29  1  0  0  0
 29 30  1  0  0  0
 30 31  1  0  0  0
 30 32  1  0  0  0
 32 33  1  0  0  0
  3  4  1  0  0  0
  4  5  2  0  0  0
  5  6  1  0  0  0
  6 34  1  0  0  0
 34 35  1  0  0  0
 35 36  1  0  0  0
  9 10  1  0  0  0
 10 11  1  0  0  0
 11 12  2  0  0  0
 11 13  1  0  0  0
 13 14  1  0  0  0
 13  7  2  0  0  0
  6  1  2  0  0  0
 33 27  1  0  0  0
 10 15  1  0  0  0
M  END
> <minimizedAffinity>
-1.45675

$$$$



 36 38  0  0  0  0  0  0  0  0999 V2000
    2.6602   73.6083   81.4945 C   0  0  0  0  0  0  0  0  0  0  0  0
    1.9635   72.3943   81.5896 C   0  0  0  0  0  0  0  0  0  0  0  0
    2.5403   71.2204   81.0988 C   0  0  0  0  0  0  0  0  0  0  0  0
    3.8217   71.2294   80.5446 C   0  0  0  0  0  0  0  0  0  0  0  0
    4.5146   72.4344   80.4369 C   0  0  0  0  0  0  0  0  0  0  0  0
    3.9277   73.6242   80.8853 C   0  0  0  0  0  0  0  0  0  0  0  0
    1.8000   76.6046   83.4688 C   0  0  0  0  0  0  0  0  0  0  0  0
    2.4793   75.4994   82.9964 N   0  0  0  0  0  0  0  0  0  0  0  0
    1.9811   74.8363   82.0031 C   0  0  0  0  0  0  0  0  0  0  0  0
    0.8282   75.2271   81.3807 N   0  0  0  0  0  0  0  0  0  0  0  0
    0.1191   76.3321   81.7496 C   0  0  0  0  0  0  0  0  0  0  0  0
   -0.9112   76.6456   81.1609 O   0  0  0  0  0  0  0  0  0  0  0  0
    0.6741   77.0917   82.9048 C   0  0  0  0  0  0  0  0  0  0  0  0
   -0.2623   78.6077   83.4628 Br  0  0  0  0  0  0  0  0  0  0  0  0
    0.4530   74.6886   80.6089 H   0  0  0  0  0  0  0  0  0  0  0  0
    2.4700   77.2447   84.6722 C   0  0  0  0  0  0  0  0  0  0  0  0
    3.4495   78.3872   84.3574 C   0  0  0  0  0  0  0  0  0  0  0  0
    4.8983   78.1890   84.8243 C   0  0  0  0  0  0  0  0  0  0  0  0
    6.0204   78.4070   83.8064 C   0  0  0  0  0  0  0  0  0  0  0  0
    7.4100   77.9972   84.2986 C   0  0  0  0  0  0  0  0  0  0  0  0
    8.5204   78.2776   83.2798 C   0  0  0  0  0  0  0  0  0  0  0  0
    8.8731   77.2927   80.9529 C   0  0  0  0  0  0  0  0  0  0  0  0
    8.9864   77.0761   82.4537 C   0  0  0  0  0  0  0  0  0  0  0  0
    1.6638   69.6785   81.2149 S   0  0  0  0  0  0  0  0  0  0  0  0
    1.5569   69.1036   79.8916 O   0  0  0  0  0  0  0  0  0  0  0  0
    0.4927   69.9195   82.0309 O   0  0  0  0  0  0  0  0  0  0  0  0
    2.7492   68.7202   82.1120 N   0  0  0  0  0  0  0  0  0  0  0  0
    2.4527   67.2510   82.1539 C   0  0  0  0  0  0  0  0  0  0  0  0
    1.9846   66.7867   83.5449 C   0  0  0  0  0  0  0  0  0  0  0  0
    2.9215   67.0833   84.6470 N   0  0  0  0  0  0  0  0  0  0  0  0
    3.7392   65.9287   85.0063 C   0  0  0  0  0  0  0  0  0  0  0  0
    3.7681   68.2539   84.3440 C   0  0  0  0  0  0  0  0  0  0  0  0
    3.0524   69.2924   83.4646 C   0  0  0  0  0  0  0  0  0  0  0  0
    4.6146   74.8071   80.7639 O   0  0  0  0  0  0  0  0  0  0  0  0
    4.6967   75.2429   79.3990 C   0  0  0  0  0  0  0  0  0  0  0  0
    6.1633   75.4252   79.0557 C   0  0  0  0  0  0  0  0  0  0  0  0
 22 23  1  0  0  0
 23 21  1  0  0  0
 21 20  1  0  0  0
 20 19  1  0  0  0
 19 18  1  0  0  0
 18 17  1  0  0  0
 17 16  1  0  0  0
 16  7  1  0  0  0
  7  8  1  0  0  0
  8  9  2  0  0  0
  9  1  1  0  0  0
  1  2  1  0  0  0
  2  3  2  0  0  0
  3 24  1  0  0  0
 24 25  2  0  0  0
 24 26  2  0  0  0
 24 27  1  0  0  0
 27 28  1  0  0  0
 28 29  1  0  0  0
 29 30  1  0  0  0
 30 31  1  0  0  0
 30 32  1  0  0  0
 32 33  1  0  0  0
  3  4  1  0  0  0
  4  5  2  0  0  0
  5  6  1  0  0  0
  6 34  1  0  0  0
 34 35  1  0  0  0
 35 36  1  0  0  0
  9 10  1  0  0  0
 10 11  1  0  0  0
 11 12  2  0  0  0
 11 13  1  0  0  0
 13 14  1  0  0  0
 13  7  2  0  0  0
  6  1  2  0  0  0
 33 27  1  0  0  0
 10 15  1  0  0  0
M  END
> <minimizedAffinity>
-1.44290

$$$$
