


 26 28  0  0  0  0  0  0  0  0999 V2000
    3.5886   66.5051   84.6738 C   0  0  0  0  0  0  0  0  0  0  0  0
    4.3525   67.5586   84.1706 C   0  0  0  0  0  0  0  0  0  0  0  0
    3.8020   68.4839   83.2712 C   0  0  0  0  0  0  0  0  0  0  0  0
    2.4763   68.4029   82.8249 C   0  0  0  0  0  0  0  0  0  0  0  0
    1.7209   67.3451   83.3592 C   0  0  0  0  0  0  0  0  0  0  0  0
    2.2470   66.3956   84.2665 C   0  0  0  0  0  0  0  0  0  0  0  0
    1.3068   65.3151   84.7358 C   0  0  0  0  0  0  0  0  0  0  0  0
    0.7330   64.5135   83.8748 N   0  0  0  0  0  0  0  0  0  0  0  0
   -0.0874   63.5919   84.4379 C   0  0  0  0  0  0  0  0  0  0  0  0
   -0.3657   63.4186   85.7705 C   0  0  0  0  0  0  0  0  0  0  0  0
   -1.2645   62.3397   85.8438 C   0  0  0  0  0  0  0  0  0  0  0  0
   -1.8777   61.7452   87.0548 C   0  0  0  0  0  0  0  0  0  0  0  0
   -1.5419   61.8550   84.6214 N   0  0  0  0  0  0  0  0  0  0  0  0
   -0.8132   62.6362   83.7858 N   0  0  0  0  0  0  0  0  0  0  0  0
   -0.8701   62.3967   82.3663 C   0  0  0  0  0  0  0  0  0  0  0  0
    0.2599   64.2902   86.7182 C   0  0  0  0  0  0  0  0  0  0  0  0
    0.0975   64.2331   87.9316 O   0  0  0  0  0  0  0  0  0  0  0  0
    1.0825   65.2179   86.1092 N   0  0  0  0  0  0  0  0  0  0  0  0
    1.5568   65.8566   86.7336 H   0  0  0  0  0  0  0  0  0  0  0  0
    1.9334   69.3420   81.9417 N   0  0  0  0  0  0  0  0  0  0  0  0
    1.6345   70.6866   82.4340 C   0  0  0  0  0  0  0  0  0  0  0  0
    2.2424   69.2482   80.5149 C   0  0  0  0  0  0  0  0  0  0  0  0
    4.0757   65.5719   85.5523 O   0  0  0  0  0  0  0  0  0  0  0  0
    5.4540   65.2022   85.4554 C   0  0  0  0  0  0  0  0  0  0  0  0
    5.3643   65.4054   87.9673 C   0  0  0  0  0  0  0  0  0  0  0  0
    6.1567   65.7133   86.7097 C   0  0  0  0  0  0  0  0  0  0  0  0
 25 26  1  0  0  0
 26 24  1  0  0  0
 24 23  1  0  0  0
 23  1  1  0  0  0
  1  2  1  0  0  0
  2  3  2  0  0  0
  3  4  1  0  0  0
  4 20  1  0  0  0
 20 21  1  0  0  0
 20 22  1  0  0  0
  4  5  2  0  0  0
  5  6  1  0  0  0
  6  7  1  0  0  0
  7  8  2  0  0  0
  8  9  1  0  0  0
  9 10  2  0  0  0
 10 11  1  0  0  0
 11 12  1  0  0  0
 11 13  2  0  0  0
 13 14  1  0  0  0
 14 15  1  0  0  0
 10 16  1  0  0  0
 16 17  2  0  0  0
 16 18  1  0  0  0
  6  1  2  0  0  0
 18  7  1  0  0  0
 14  9  1  0  0  0
 18 19  1  0  0  0
M  END
> <minimizedAffinity>
-9.18380

$$$$



 26 28  0  0  0  0  0  0  0  0999 V2000
    1.7323   66.7501   83.4473 C   0  0  0  0  0  0  0  0  0  0  0  0
    1.9627   67.3910   82.2296 C   0  0  0  0  0  0  0  0  0  0  0  0
    1.5174   66.8300   81.0233 C   0  0  0  0  0  0  0  0  0  0  0  0
    0.8329   65.6088   80.9683 C   0  0  0  0  0  0  0  0  0  0  0  0
    0.5959   64.9908   82.2081 C   0  0  0  0  0  0  0  0  0  0  0  0
    1.0328   65.5300   83.4409 C   0  0  0  0  0  0  0  0  0  0  0  0
    0.7079   64.7356   84.6799 C   0  0  0  0  0  0  0  0  0  0  0  0
   -0.4024   64.0468   84.7554 N   0  0  0  0  0  0  0  0  0  0  0  0
   -0.5636   63.3831   85.9273 C   0  0  0  0  0  0  0  0  0  0  0  0
    0.2890   63.3589   87.0023 C   0  0  0  0  0  0  0  0  0  0  0  0
   -0.3199   62.5334   87.9641 C   0  0  0  0  0  0  0  0  0  0  0  0
    0.1874   62.1744   89.3094 C   0  0  0  0  0  0  0  0  0  0  0  0
   -1.4973   62.0597   87.5218 N   0  0  0  0  0  0  0  0  0  0  0  0
   -1.6202   62.5934   86.2811 N   0  0  0  0  0  0  0  0  0  0  0  0
   -2.7904   62.2930   85.4961 C   0  0  0  0  0  0  0  0  0  0  0  0
    1.5064   64.1083   86.9261 C   0  0  0  0  0  0  0  0  0  0  0  0
    2.3492   64.1620   87.8142 O   0  0  0  0  0  0  0  0  0  0  0  0
    1.6336   64.7746   85.7227 N   0  0  0  0  0  0  0  0  0  0  0  0
    2.4807   65.3159   85.6114 H   0  0  0  0  0  0  0  0  0  0  0  0
    0.3780   65.0683   79.7609 N   0  0  0  0  0  0  0  0  0  0  0  0
    1.1476   65.3129   78.5413 C   0  0  0  0  0  0  0  0  0  0  0  0
   -0.3997   63.8294   79.7767 C   0  0  0  0  0  0  0  0  0  0  0  0
    2.1469   67.2513   84.6544 O   0  0  0  0  0  0  0  0  0  0  0  0
    3.2659   68.1419   84.6718 C   0  0  0  0  0  0  0  0  0  0  0  0
    5.1962   67.8652   86.2705 C   0  0  0  0  0  0  0  0  0  0  0  0
    4.5005   67.3224   85.0354 C   0  0  0  0  0  0  0  0  0  0  0  0
 25 26  1  0  0  0
 26 24  1  0  0  0
 24 23  1  0  0  0
 23  1  1  0  0  0
  1  2  1  0  0  0
  2  3  2  0  0  0
  3  4  1  0  0  0
  4 20  1  0  0  0
 20 21  1  0  0  0
 20 22  1  0  0  0
  4  5  2  0  0  0
  5  6  1  0  0  0
  6  7  1  0  0  0
  7  8  2  0  0  0
  8  9  1  0  0  0
  9 10  2  0  0  0
 10 11  1  0  0  0
 11 12  1  0  0  0
 11 13  2  0  0  0
 13 14  1  0  0  0
 14 15  1  0  0  0
 10 16  1  0  0  0
 16 17  2  0  0  0
 16 18  1  0  0  0
  6  1  2  0  0  0
 18  7  1  0  0  0
 14  9  1  0  0  0
 18 19  1  0  0  0
M  END
> <minimizedAffinity>
-8.80134

$$$$



 26 28  0  0  0  0  0  0  0  0999 V2000
    0.0087   63.2277   85.1171 C   0  0  0  0  0  0  0  0  0  0  0  0
    0.6185   64.1883   85.9247 C   0  0  0  0  0  0  0  0  0  0  0  0
    1.1053   65.3857   85.3795 C   0  0  0  0  0  0  0  0  0  0  0  0
    1.0174   65.6813   84.0127 C   0  0  0  0  0  0  0  0  0  0  0  0
    0.3830   64.7079   83.2221 C   0  0  0  0  0  0  0  0  0  0  0  0
   -0.1171   63.4905   83.7413 C   0  0  0  0  0  0  0  0  0  0  0  0
   -0.7595   62.5480   82.7562 C   0  0  0  0  0  0  0  0  0  0  0  0
   -0.3804   62.5363   81.5035 N   0  0  0  0  0  0  0  0  0  0  0  0
   -1.0450   61.6401   80.7322 C   0  0  0  0  0  0  0  0  0  0  0  0
   -2.0371   60.7739   81.1176 C   0  0  0  0  0  0  0  0  0  0  0  0
   -2.3993   60.0576   79.9630 C   0  0  0  0  0  0  0  0  0  0  0  0
   -3.4261   58.9970   79.8333 C   0  0  0  0  0  0  0  0  0  0  0  0
   -1.6750   60.4500   78.9012 N   0  0  0  0  0  0  0  0  0  0  0  0
   -0.8604   61.4138   79.3981 N   0  0  0  0  0  0  0  0  0  0  0  0
    0.0723   62.0720   78.5192 C   0  0  0  0  0  0  0  0  0  0  0  0
   -2.4556   60.7796   82.4866 C   0  0  0  0  0  0  0  0  0  0  0  0
   -3.3244   60.0522   82.9535 O   0  0  0  0  0  0  0  0  0  0  0  0
   -1.7620   61.7071   83.2397 N   0  0  0  0  0  0  0  0  0  0  0  0
   -2.0129   61.7494   84.2185 H   0  0  0  0  0  0  0  0  0  0  0  0
    1.4904   66.8867   83.4836 N   0  0  0  0  0  0  0  0  0  0  0  0
    2.4592   67.6662   84.2540 C   0  0  0  0  0  0  0  0  0  0  0  0
    1.5575   67.0564   82.0322 C   0  0  0  0  0  0  0  0  0  0  0  0
   -0.4821   62.0404   85.5961 O   0  0  0  0  0  0  0  0  0  0  0  0
   -0.9145   61.9842   86.9582 C   0  0  0  0  0  0  0  0  0  0  0  0
   -2.9917   63.3924   87.2052 C   0  0  0  0  0  0  0  0  0  0  0  0
   -2.4402   62.0000   86.9577 C   0  0  0  0  0  0  0  0  0  0  0  0
 25 26  1  0  0  0
 26 24  1  0  0  0
 24 23  1  0  0  0
 23  1  1  0  0  0
  1  2  1  0  0  0
  2  3  2  0  0  0
  3  4  1  0  0  0
  4 20  1  0  0  0
 20 21  1  0  0  0
 20 22  1  0  0  0
  4  5  2  0  0  0
  5  6  1  0  0  0
  6  7  1  0  0  0
  7  8  2  0  0  0
  8  9  1  0  0  0
  9 10  2  0  0  0
 10 11  1  0  0  0
 11 12  1  0  0  0
 11 13  2  0  0  0
 13 14  1  0  0  0
 14 15  1  0  0  0
 10 16  1  0  0  0
 16 17  2  0  0  0
 16 18  1  0  0  0
  6  1  2  0  0  0
 18  7  1  0  0  0
 14  9  1  0  0  0
 18 19  1  0  0  0
M  END
> <minimizedAffinity>
-8.71285

$$$$



 26 28  0  0  0  0  0  0  0  0999 V2000
    2.7450   67.5386   83.6929 C   0  0  0  0  0  0  0  0  0  0  0  0
    3.8820   68.3468   83.7186 C   0  0  0  0  0  0  0  0  0  0  0  0
    5.0482   67.9310   84.3783 C   0  0  0  0  0  0  0  0  0  0  0  0
    5.1378   66.7030   85.0470 C   0  0  0  0  0  0  0  0  0  0  0  0
    3.9872   65.8979   84.9919 C   0  0  0  0  0  0  0  0  0  0  0  0
    2.7961   66.2891   84.3363 C   0  0  0  0  0  0  0  0  0  0  0  0
    1.6479   65.3138   84.3806 C   0  0  0  0  0  0  0  0  0  0  0  0
    1.1622   64.9108   85.5272 N   0  0  0  0  0  0  0  0  0  0  0  0
    0.1336   64.0338   85.4153 C   0  0  0  0  0  0  0  0  0  0  0  0
   -0.4314   63.5452   84.2640 C   0  0  0  0  0  0  0  0  0  0  0  0
   -1.4581   62.6755   84.6724 C   0  0  0  0  0  0  0  0  0  0  0  0
   -2.3784   61.8879   83.8188 C   0  0  0  0  0  0  0  0  0  0  0  0
   -1.5392   62.6157   86.0125 N   0  0  0  0  0  0  0  0  0  0  0  0
   -0.5589   63.4507   86.4380 N   0  0  0  0  0  0  0  0  0  0  0  0
   -0.3519   63.6341   87.8519 C   0  0  0  0  0  0  0  0  0  0  0  0
    0.0933   63.9831   83.0061 C   0  0  0  0  0  0  0  0  0  0  0  0
   -0.3276   63.6252   81.9122 O   0  0  0  0  0  0  0  0  0  0  0  0
    1.1416   64.8696   83.1589 N   0  0  0  0  0  0  0  0  0  0  0  0
    1.5470   65.2177   82.3003 H   0  0  0  0  0  0  0  0  0  0  0  0
    6.3122   66.2915   85.6860 N   0  0  0  0  0  0  0  0  0  0  0  0
    6.2130   65.5847   86.9628 C   0  0  0  0  0  0  0  0  0  0  0  0
    7.4943   65.9783   84.8833 C   0  0  0  0  0  0  0  0  0  0  0  0
    1.5791   67.8958   83.0660 O   0  0  0  0  0  0  0  0  0  0  0  0
    1.6623   68.5269   81.7853 C   0  0  0  0  0  0  0  0  0  0  0  0
    1.8982   66.6554   80.1119 C   0  0  0  0  0  0  0  0  0  0  0  0
    0.9452   67.6283   80.7821 C   0  0  0  0  0  0  0  0  0  0  0  0
 25 26  1  0  0  0
 26 24  1  0  0  0
 24 23  1  0  0  0
 23  1  1  0  0  0
  1  2  1  0  0  0
  2  3  2  0  0  0
  3  4  1  0  0  0
  4 20  1  0  0  0
 20 21  1  0  0  0
 20 22  1  0  0  0
  4  5  2  0  0  0
  5  6  1  0  0  0
  6  7  1  0  0  0
  7  8  2  0  0  0
  8  9  1  0  0  0
  9 10  2  0  0  0
 10 11  1  0  0  0
 11 12  1  0  0  0
 11 13  2  0  0  0
 13 14  1  0  0  0
 14 15  1  0  0  0
 10 16  1  0  0  0
 16 17  2  0  0  0
 16 18  1  0  0  0
  6  1  2  0  0  0
 18  7  1  0  0  0
 14  9  1  0  0  0
 18 19  1  0  0  0
M  END
> <minimizedAffinity>
-8.64878

$$$$



 26 28  0  0  0  0  0  0  0  0999 V2000
    2.7079   67.3099   83.7228 C   0  0  0  0  0  0  0  0  0  0  0  0
    3.8615   68.0767   83.5558 C   0  0  0  0  0  0  0  0  0  0  0  0
    5.0619   67.7217   84.1891 C   0  0  0  0  0  0  0  0  0  0  0  0
    5.1713   66.5990   85.0203 C   0  0  0  0  0  0  0  0  0  0  0  0
    4.0021   65.8317   85.1588 C   0  0  0  0  0  0  0  0  0  0  0  0
    2.7766   66.1636   84.5346 C   0  0  0  0  0  0  0  0  0  0  0  0
    1.6130   65.2419   84.7956 C   0  0  0  0  0  0  0  0  0  0  0  0
    1.0427   64.5962   83.8103 N   0  0  0  0  0  0  0  0  0  0  0  0
    0.0089   63.8053   84.1915 C   0  0  0  0  0  0  0  0  0  0  0  0
   -0.4812   63.6176   85.4595 C   0  0  0  0  0  0  0  0  0  0  0  0
   -1.5478   62.7099   85.3347 C   0  0  0  0  0  0  0  0  0  0  0  0
   -2.4173   62.1725   86.4076 C   0  0  0  0  0  0  0  0  0  0  0  0
   -1.7248   62.3419   84.0543 N   0  0  0  0  0  0  0  0  0  0  0  0
   -0.7650   63.0242   83.3814 N   0  0  0  0  0  0  0  0  0  0  0  0
   -0.6582   62.8686   81.9531 C   0  0  0  0  0  0  0  0  0  0  0  0
    0.1389   64.3190   86.5426 C   0  0  0  0  0  0  0  0  0  0  0  0
   -0.2019   64.2312   87.7165 O   0  0  0  0  0  0  0  0  0  0  0  0
    1.1824   65.1177   86.1167 N   0  0  0  0  0  0  0  0  0  0  0  0
    1.6623   65.6323   86.8432 H   0  0  0  0  0  0  0  0  0  0  0  0
    6.3785   66.2450   85.6320 N   0  0  0  0  0  0  0  0  0  0  0  0
    6.3428   65.5361   86.9110 C   0  0  0  0  0  0  0  0  0  0  0  0
    7.5554   65.9876   84.8023 C   0  0  0  0  0  0  0  0  0  0  0  0
    1.5088   67.6116   83.1303 O   0  0  0  0  0  0  0  0  0  0  0  0
    1.5083   67.9854   81.7498 C   0  0  0  0  0  0  0  0  0  0  0  0
    0.4558   66.0604   80.5067 C   0  0  0  0  0  0  0  0  0  0  0  0
    1.7546   66.7217   80.9309 C   0  0  0  0  0  0  0  0  0  0  0  0
 25 26  1  0  0  0
 26 24  1  0  0  0
 24 23  1  0  0  0
 23  1  1  0  0  0
  1  2  1  0  0  0
  2  3  2  0  0  0
  3  4  1  0  0  0
  4 20  1  0  0  0
 20 21  1  0  0  0
 20 22  1  0  0  0
  4  5  2  0  0  0
  5  6  1  0  0  0
  6  7  1  0  0  0
  7  8  2  0  0  0
  8  9  1  0  0  0
  9 10  2  0  0  0
 10 11  1  0  0  0
 11 12  1  0  0  0
 11 13  2  0  0  0
 13 14  1  0  0  0
 14 15  1  0  0  0
 10 16  1  0  0  0
 16 17  2  0  0  0
 16 18  1  0  0  0
  6  1  2  0  0  0
 18  7  1  0  0  0
 14  9  1  0  0  0
 18 19  1  0  0  0
M  END
> <minimizedAffinity>
-8.52973

$$$$



 26 28  0  0  0  0  0  0  0  0999 V2000
    0.1341   63.6621   84.2565 C   0  0  0  0  0  0  0  0  0  0  0  0
    0.7424   64.5073   85.1850 C   0  0  0  0  0  0  0  0  0  0  0  0
    1.2321   65.7654   84.8033 C   0  0  0  0  0  0  0  0  0  0  0  0
    1.1487   66.2381   83.4870 C   0  0  0  0  0  0  0  0  0  0  0  0
    0.5156   65.3779   82.5735 C   0  0  0  0  0  0  0  0  0  0  0  0
    0.0127   64.1036   82.9268 C   0  0  0  0  0  0  0  0  0  0  0  0
   -0.6277   63.2997   81.8245 C   0  0  0  0  0  0  0  0  0  0  0  0
   -0.1288   63.3154   80.6145 N   0  0  0  0  0  0  0  0  0  0  0  0
   -0.8075   62.5478   79.7258 C   0  0  0  0  0  0  0  0  0  0  0  0
   -1.9223   61.7819   79.9577 C   0  0  0  0  0  0  0  0  0  0  0  0
   -2.2438   61.1794   78.7284 C   0  0  0  0  0  0  0  0  0  0  0  0
   -3.3627   60.2542   78.4322 C   0  0  0  0  0  0  0  0  0  0  0  0
   -1.3782   61.5451   77.7676 N   0  0  0  0  0  0  0  0  0  0  0  0
   -0.5164   62.3781   78.4023 N   0  0  0  0  0  0  0  0  0  0  0  0
    0.5661   62.9727   77.6605 C   0  0  0  0  0  0  0  0  0  0  0  0
   -2.4723   61.7580   81.2791 C   0  0  0  0  0  0  0  0  0  0  0  0
   -3.4581   61.1109   81.6128 O   0  0  0  0  0  0  0  0  0  0  0  0
   -1.7598   62.5544   82.1546 N   0  0  0  0  0  0  0  0  0  0  0  0
   -2.1010   62.5697   83.1065 H   0  0  0  0  0  0  0  0  0  0  0  0
    1.6245   67.5019   83.1222 N   0  0  0  0  0  0  0  0  0  0  0  0
    2.8686   67.9890   83.7178 C   0  0  0  0  0  0  0  0  0  0  0  0
    1.3131   68.0304   81.7942 C   0  0  0  0  0  0  0  0  0  0  0  0
   -0.3594   62.4228   84.5738 O   0  0  0  0  0  0  0  0  0  0  0  0
   -0.8553   62.2079   85.8980 C   0  0  0  0  0  0  0  0  0  0  0  0
   -2.7809   63.0755   87.2757 C   0  0  0  0  0  0  0  0  0  0  0  0
   -2.3298   62.6002   85.9065 C   0  0  0  0  0  0  0  0  0  0  0  0
 25 26  1  0  0  0
 26 24  1  0  0  0
 24 23  1  0  0  0
 23  1  1  0  0  0
  1  2  1  0  0  0
  2  3  2  0  0  0
  3  4  1  0  0  0
  4 20  1  0  0  0
 20 21  1  0  0  0
 20 22  1  0  0  0
  4  5  2  0  0  0
  5  6  1  0  0  0
  6  7  1  0  0  0
  7  8  2  0  0  0
  8  9  1  0  0  0
  9 10  2  0  0  0
 10 11  1  0  0  0
 11 12  1  0  0  0
 11 13  2  0  0  0
 13 14  1  0  0  0
 14 15  1  0  0  0
 10 16  1  0  0  0
 16 17  2  0  0  0
 16 18  1  0  0  0
  6  1  2  0  0  0
 18  7  1  0  0  0
 14  9  1  0  0  0
 18 19  1  0  0  0
M  END
> <minimizedAffinity>
-8.45773

$$$$



 26 28  0  0  0  0  0  0  0  0999 V2000
    3.4659   66.6412   84.3373 C   0  0  0  0  0  0  0  0  0  0  0  0
    4.2453   67.7939   84.2350 C   0  0  0  0  0  0  0  0  0  0  0  0
    3.7673   68.9313   83.5672 C   0  0  0  0  0  0  0  0  0  0  0  0
    2.5027   68.9752   82.9655 C   0  0  0  0  0  0  0  0  0  0  0  0
    1.7284   67.8098   83.0973 C   0  0  0  0  0  0  0  0  0  0  0  0
    2.1822   66.6469   83.7632 C   0  0  0  0  0  0  0  0  0  0  0  0
    1.2324   65.4773   83.8052 C   0  0  0  0  0  0  0  0  0  0  0  0
    0.8604   64.9641   84.9503 N   0  0  0  0  0  0  0  0  0  0  0  0
    0.0060   63.9170   84.8363 C   0  0  0  0  0  0  0  0  0  0  0  0
   -0.4924   63.3619   83.6845 C   0  0  0  0  0  0  0  0  0  0  0  0
   -1.3319   62.3094   84.0905 C   0  0  0  0  0  0  0  0  0  0  0  0
   -2.1167   61.3881   83.2355 C   0  0  0  0  0  0  0  0  0  0  0  0
   -1.3633   62.2027   85.4299 N   0  0  0  0  0  0  0  0  0  0  0  0
   -0.5399   63.1921   85.8570 N   0  0  0  0  0  0  0  0  0  0  0  0
   -0.3304   63.3752   87.2706 C   0  0  0  0  0  0  0  0  0  0  0  0
   -0.0916   63.9193   82.4282 C   0  0  0  0  0  0  0  0  0  0  0  0
   -0.4706   63.5176   81.3342 O   0  0  0  0  0  0  0  0  0  0  0  0
    0.7816   64.9784   82.5829 N   0  0  0  0  0  0  0  0  0  0  0  0
    1.0927   65.4159   81.7258 H   0  0  0  0  0  0  0  0  0  0  0  0
    2.0299   70.1214   82.3178 N   0  0  0  0  0  0  0  0  0  0  0  0
    0.6583   70.1324   81.8096 C   0  0  0  0  0  0  0  0  0  0  0  0
    2.5772   71.4285   82.6810 C   0  0  0  0  0  0  0  0  0  0  0  0
    3.8837   65.5019   84.9757 O   0  0  0  0  0  0  0  0  0  0  0  0
    5.0991   65.5516   85.7280 C   0  0  0  0  0  0  0  0  0  0  0  0
    5.6190   65.5349   88.1953 C   0  0  0  0  0  0  0  0  0  0  0  0
    4.8359   64.8794   87.0722 C   0  0  0  0  0  0  0  0  0  0  0  0
 25 26  1  0  0  0
 26 24  1  0  0  0
 24 23  1  0  0  0
 23  1  1  0  0  0
  1  2  1  0  0  0
  2  3  2  0  0  0
  3  4  1  0  0  0
  4 20  1  0  0  0
 20 21  1  0  0  0
 20 22  1  0  0  0
  4  5  2  0  0  0
  5  6  1  0  0  0
  6  7  1  0  0  0
  7  8  2  0  0  0
  8  9  1  0  0  0
  9 10  2  0  0  0
 10 11  1  0  0  0
 11 12  1  0  0  0
 11 13  2  0  0  0
 13 14  1  0  0  0
 14 15  1  0  0  0
 10 16  1  0  0  0
 16 17  2  0  0  0
 16 18  1  0  0  0
  6  1  2  0  0  0
 18  7  1  0  0  0
 14  9  1  0  0  0
 18 19  1  0  0  0
M  END
> <minimizedAffinity>
-8.36731

$$$$



 26 28  0  0  0  0  0  0  0  0999 V2000
    0.1885   63.1266   83.2773 C   0  0  0  0  0  0  0  0  0  0  0  0
   -0.3304   62.0533   84.0022 C   0  0  0  0  0  0  0  0  0  0  0  0
   -0.5607   62.1586   85.3821 C   0  0  0  0  0  0  0  0  0  0  0  0
   -0.2807   63.3255   86.1053 C   0  0  0  0  0  0  0  0  0  0  0  0
    0.2235   64.3990   85.3514 C   0  0  0  0  0  0  0  0  0  0  0  0
    0.4677   64.3241   83.9599 C   0  0  0  0  0  0  0  0  0  0  0  0
    1.0219   65.5620   83.3026 C   0  0  0  0  0  0  0  0  0  0  0  0
    1.9629   66.2597   83.8864 N   0  0  0  0  0  0  0  0  0  0  0  0
    2.3638   67.3471   83.1818 C   0  0  0  0  0  0  0  0  0  0  0  0
    1.9020   67.7740   81.9621 C   0  0  0  0  0  0  0  0  0  0  0  0
    2.6284   68.9385   81.6561 C   0  0  0  0  0  0  0  0  0  0  0  0
    2.5161   69.7919   80.4499 C   0  0  0  0  0  0  0  0  0  0  0  0
    3.5044   69.2345   82.6314 N   0  0  0  0  0  0  0  0  0  0  0  0
    3.3209   68.2506   83.5466 N   0  0  0  0  0  0  0  0  0  0  0  0
    4.1103   68.2513   84.7518 C   0  0  0  0  0  0  0  0  0  0  0  0
    0.8743   67.0147   81.3165 C   0  0  0  0  0  0  0  0  0  0  0  0
    0.3848   67.2885   80.2269 O   0  0  0  0  0  0  0  0  0  0  0  0
    0.4877   65.9196   82.0646 N   0  0  0  0  0  0  0  0  0  0  0  0
   -0.2328   65.3420   81.6520 H   0  0  0  0  0  0  0  0  0  0  0  0
   -0.5315   63.4244   87.4779 N   0  0  0  0  0  0  0  0  0  0  0  0
   -1.8520   63.0516   87.9850 C   0  0  0  0  0  0  0  0  0  0  0  0
    0.5737   63.2651   88.4229 C   0  0  0  0  0  0  0  0  0  0  0  0
    0.4352   63.0780   81.9294 O   0  0  0  0  0  0  0  0  0  0  0  0
    0.6103   61.7976   81.3166 C   0  0  0  0  0  0  0  0  0  0  0  0
    0.2375   63.4359   79.4363 C   0  0  0  0  0  0  0  0  0  0  0  0
    0.4179   61.9768   79.8136 C   0  0  0  0  0  0  0  0  0  0  0  0
 25 26  1  0  0  0
 26 24  1  0  0  0
 24 23  1  0  0  0
 23  1  1  0  0  0
  1  2  1  0  0  0
  2  3  2  0  0  0
  3  4  1  0  0  0
  4 20  1  0  0  0
 20 21  1  0  0  0
 20 22  1  0  0  0
  4  5  2  0  0  0
  5  6  1  0  0  0
  6  7  1  0  0  0
  7  8  2  0  0  0
  8  9  1  0  0  0
  9 10  2  0  0  0
 10 11  1  0  0  0
 11 12  1  0  0  0
 11 13  2  0  0  0
 13 14  1  0  0  0
 14 15  1  0  0  0
 10 16  1  0  0  0
 16 17  2  0  0  0
 16 18  1  0  0  0
  6  1  2  0  0  0
 18  7  1  0  0  0
 14  9  1  0  0  0
 18 19  1  0  0  0
M  END
> <minimizedAffinity>
-8.32812

$$$$



 26 28  0  0  0  0  0  0  0  0999 V2000
    0.6917   65.1300   82.2087 C   0  0  0  0  0  0  0  0  0  0  0  0
    0.9604   65.8079   83.3982 C   0  0  0  0  0  0  0  0  0  0  0  0
    0.7226   65.2045   84.6422 C   0  0  0  0  0  0  0  0  0  0  0  0
    0.2022   63.9093   84.7636 C   0  0  0  0  0  0  0  0  0  0  0  0
   -0.0430   63.2391   83.5529 C   0  0  0  0  0  0  0  0  0  0  0  0
    0.1850   63.8203   82.2833 C   0  0  0  0  0  0  0  0  0  0  0  0
   -0.1418   62.9708   81.0819 C   0  0  0  0  0  0  0  0  0  0  0  0
   -1.0829   62.0634   81.1457 N   0  0  0  0  0  0  0  0  0  0  0  0
   -1.2669   61.3745   79.9920 C   0  0  0  0  0  0  0  0  0  0  0  0
   -0.5931   61.5276   78.8063 C   0  0  0  0  0  0  0  0  0  0  0  0
   -1.1475   60.5884   77.9188 C   0  0  0  0  0  0  0  0  0  0  0  0
   -0.7771   60.3410   76.5055 C   0  0  0  0  0  0  0  0  0  0  0  0
   -2.1214   59.8767   78.5114 N   0  0  0  0  0  0  0  0  0  0  0  0
   -2.1716   60.3754   79.7716 N   0  0  0  0  0  0  0  0  0  0  0  0
   -3.1231   59.8336   80.7079 C   0  0  0  0  0  0  0  0  0  0  0  0
    0.4362   62.5196   78.7284 C   0  0  0  0  0  0  0  0  0  0  0  0
    1.1032   62.7556   77.7277 O   0  0  0  0  0  0  0  0  0  0  0  0
    0.5991   63.1964   79.9216 N   0  0  0  0  0  0  0  0  0  0  0  0
    1.3103   63.9154   79.9215 H   0  0  0  0  0  0  0  0  0  0  0  0
   -0.0137   63.3115   86.0097 N   0  0  0  0  0  0  0  0  0  0  0  0
    0.2132   64.0988   87.2214 C   0  0  0  0  0  0  0  0  0  0  0  0
   -1.0035   62.2411   86.1306 C   0  0  0  0  0  0  0  0  0  0  0  0
    0.9025   65.6719   80.9670 O   0  0  0  0  0  0  0  0  0  0  0  0
    1.8583   66.7284   80.8403 C   0  0  0  0  0  0  0  0  0  0  0  0
    0.6656   68.9134   81.2426 C   0  0  0  0  0  0  0  0  0  0  0  0
    1.1471   67.9182   80.2025 C   0  0  0  0  0  0  0  0  0  0  0  0
 25 26  1  0  0  0
 26 24  1  0  0  0
 24 23  1  0  0  0
 23  1  1  0  0  0
  1  2  1  0  0  0
  2  3  2  0  0  0
  3  4  1  0  0  0
  4 20  1  0  0  0
 20 21  1  0  0  0
 20 22  1  0  0  0
  4  5  2  0  0  0
  5  6  1  0  0  0
  6  7  1  0  0  0
  7  8  2  0  0  0
  8  9  1  0  0  0
  9 10  2  0  0  0
 10 11  1  0  0  0
 11 12  1  0  0  0
 11 13  2  0  0  0
 13 14  1  0  0  0
 14 15  1  0  0  0
 10 16  1  0  0  0
 16 17  2  0  0  0
 16 18  1  0  0  0
  6  1  2  0  0  0
 18  7  1  0  0  0
 14  9  1  0  0  0
 18 19  1  0  0  0
M  END
> <minimizedAffinity>
-8.31183

$$$$
