


 34 38  0  0  0  0  0  0  0  0999 V2000
   -0.2887   63.6487   83.0852 C   0  0  0  0  0  0  0  0  0  0  0  0
    0.3522   64.6730   83.5632 N   0  0  0  0  0  0  0  0  0  0  0  0
    0.9130   65.5667   82.6476 C   0  0  0  0  0  0  0  0  0  0  0  0
    1.6676   66.7350   83.2362 C   0  0  0  0  0  0  0  0  0  0  0  0
    1.7609   66.8656   84.4579 O   0  0  0  0  0  0  0  0  0  0  0  0
    2.2229   67.6289   82.3344 N   0  0  0  0  0  0  0  0  0  0  0  0
    2.1301   67.5083   80.9741 N   0  0  0  0  0  0  0  0  0  0  0  0
    1.4849   66.4969   80.4884 C   0  0  0  0  0  0  0  0  0  0  0  0
    1.4349   66.4268   78.9795 C   0  0  0  0  0  0  0  0  0  0  0  0
    0.8183   65.4435   81.3040 C   0  0  0  0  0  0  0  0  0  0  0  0
    0.0928   64.3326   80.7763 C   0  0  0  0  0  0  0  0  0  0  0  0
   -0.2789   63.8072   79.5576 C   0  0  0  0  0  0  0  0  0  0  0  0
   -1.0378   62.6336   79.8399 C   0  0  0  0  0  0  0  0  0  0  0  0
   -1.1244   62.4473   81.1659 N   0  0  0  0  0  0  0  0  0  0  0  0
   -0.4346   63.4670   81.7078 N   0  0  0  0  0  0  0  0  0  0  0  0
   -1.6696   61.7061   78.8924 C   0  0  0  0  0  0  0  0  0  0  0  0
   -1.2155   61.6287   77.5657 C   0  0  0  0  0  0  0  0  0  0  0  0
   -1.8090   60.7526   76.6530 C   0  0  0  0  0  0  0  0  0  0  0  0
   -2.8651   59.9393   77.0542 C   0  0  0  0  0  0  0  0  0  0  0  0
   -3.3270   60.0007   78.3667 C   0  0  0  0  0  0  0  0  0  0  0  0
   -2.7336   60.8778   79.2807 C   0  0  0  0  0  0  0  0  0  0  0  0
   -0.9378   62.6228   83.9711 C   0  0  0  0  0  0  0  0  0  0  0  0
   -0.3388   62.6762   85.3714 C   0  0  0  0  0  0  0  0  0  0  0  0
   -1.4137   62.6795   86.4282 C   0  0  0  0  0  0  0  0  0  0  0  0
   -2.4940   62.1137   86.3424 O   0  0  0  0  0  0  0  0  0  0  0  0
   -0.1342   62.7157   88.3882 C   0  0  0  0  0  0  0  0  0  0  0  0
   -0.9982   63.4197   87.4950 O   0  0  0  0  0  0  0  0  0  0  0  0
    3.0262   68.7423   82.8320 C   0  0  0  0  0  0  0  0  0  0  0  0
    2.6623   70.0488   82.1643 C   0  0  0  0  0  0  0  0  0  0  0  0
    3.6017   70.7334   81.3797 C   0  0  0  0  0  0  0  0  0  0  0  0
    3.2702   71.9475   80.7761 C   0  0  0  0  0  0  0  0  0  0  0  0
    2.0004   72.4929   80.9571 C   0  0  0  0  0  0  0  0  0  0  0  0
    1.0629   71.8282   81.7456 C   0  0  0  0  0  0  0  0  0  0  0  0
    1.3923   70.6137   82.3494 C   0  0  0  0  0  0  0  0  0  0  0  0
 26 27  1  0  0  0
 27 24  1  0  0  0
 24 25  2  0  0  0
 24 23  1  0  0  0
 23 22  1  0  0  0
 22  1  1  0  0  0
  1  2  2  0  0  0
  2  3  1  0  0  0
  3  4  1  0  0  0
  4  5  2  0  0  0
  4  6  1  0  0  0
  6 28  1  0  0  0
 28 29  1  0  0  0
 29 30  2  0  0  0
 30 31  1  0  0  0
 31 32  2  0  0  0
 32 33  1  0  0  0
 33 34  2  0  0  0
  6  7  1  0  0  0
  7  8  2  0  0  0
  8  9  1  0  0  0
  8 10  1  0  0  0
 10 11  1  0  0  0
 11 12  2  0  0  0
 12 13  1  0  0  0
 13 16  1  0  0  0
 16 17  2  0  0  0
 17 18  1  0  0  0
 18 19  2  0  0  0
 19 20  1  0  0  0
 20 21  2  0  0  0
 13 14  2  0  0  0
 14 15  1  0  0  0
 15  1  1  0  0  0
 10  3  2  0  0  0
 15 11  1  0  0  0
 34 29  1  0  0  0
 21 16  1  0  0  0
M  END
> <minimizedAffinity>
-1.79733

$$$$



 34 38  0  0  0  0  0  0  0  0999 V2000
   -0.3055   63.6960   83.0265 C   0  0  0  0  0  0  0  0  0  0  0  0
    0.3261   64.7205   83.5164 N   0  0  0  0  0  0  0  0  0  0  0  0
    0.9103   65.6101   82.6115 C   0  0  0  0  0  0  0  0  0  0  0  0
    1.6532   66.7788   83.2142 C   0  0  0  0  0  0  0  0  0  0  0  0
    1.7179   66.9131   84.4373 O   0  0  0  0  0  0  0  0  0  0  0  0
    2.2316   67.6687   82.3230 N   0  0  0  0  0  0  0  0  0  0  0  0
    2.1708   67.5439   80.9613 N   0  0  0  0  0  0  0  0  0  0  0  0
    1.5352   66.5323   80.4635 C   0  0  0  0  0  0  0  0  0  0  0  0
    1.5207   66.4575   78.9541 C   0  0  0  0  0  0  0  0  0  0  0  0
    0.8472   65.4829   81.2664 C   0  0  0  0  0  0  0  0  0  0  0  0
    0.1320   64.3718   80.7252 C   0  0  0  0  0  0  0  0  0  0  0  0
   -0.2118   63.8433   79.4997 C   0  0  0  0  0  0  0  0  0  0  0  0
   -0.9796   62.6721   79.7676 C   0  0  0  0  0  0  0  0  0  0  0  0
   -1.0980   62.4903   81.0917 N   0  0  0  0  0  0  0  0  0  0  0  0
   -0.4192   63.5102   81.6467 N   0  0  0  0  0  0  0  0  0  0  0  0
   -1.5908   61.7429   78.8083 C   0  0  0  0  0  0  0  0  0  0  0  0
   -2.6644   60.9256   79.1978 C   0  0  0  0  0  0  0  0  0  0  0  0
   -3.2537   60.0352   78.2962 C   0  0  0  0  0  0  0  0  0  0  0  0
   -2.7788   59.9502   76.9904 C   0  0  0  0  0  0  0  0  0  0  0  0
   -1.7167   60.7550   76.5857 C   0  0  0  0  0  0  0  0  0  0  0  0
   -1.1260   61.6462   77.4879 C   0  0  0  0  0  0  0  0  0  0  0  0
   -0.9776   62.6743   83.9000 C   0  0  0  0  0  0  0  0  0  0  0  0
   -0.3188   62.6354   85.2736 C   0  0  0  0  0  0  0  0  0  0  0  0
   -1.3449   62.6962   86.3762 C   0  0  0  0  0  0  0  0  0  0  0  0
   -2.4177   62.1100   86.3794 O   0  0  0  0  0  0  0  0  0  0  0  0
   -0.0273   62.8710   88.3032 C   0  0  0  0  0  0  0  0  0  0  0  0
   -0.8952   63.5148   87.3693 O   0  0  0  0  0  0  0  0  0  0  0  0
    3.0253   68.7819   82.8360 C   0  0  0  0  0  0  0  0  0  0  0  0
    2.6604   70.0919   82.1756 C   0  0  0  0  0  0  0  0  0  0  0  0
    1.3742   70.6305   82.3244 C   0  0  0  0  0  0  0  0  0  0  0  0
    1.0330   71.8321   81.7017 C   0  0  0  0  0  0  0  0  0  0  0  0
    1.9705   72.5027   80.9182 C   0  0  0  0  0  0  0  0  0  0  0  0
    3.2478   71.9703   80.7520 C   0  0  0  0  0  0  0  0  0  0  0  0
    3.5910   70.7691   81.3745 C   0  0  0  0  0  0  0  0  0  0  0  0
 26 27  1  0  0  0
 27 24  1  0  0  0
 24 25  2  0  0  0
 24 23  1  0  0  0
 23 22  1  0  0  0
 22  1  1  0  0  0
  1  2  2  0  0  0
  2  3  1  0  0  0
  3  4  1  0  0  0
  4  5  2  0  0  0
  4  6  1  0  0  0
  6 28  1  0  0  0
 28 29  1  0  0  0
 29 30  2  0  0  0
 30 31  1  0  0  0
 31 32  2  0  0  0
 32 33  1  0  0  0
 33 34  2  0  0  0
  6  7  1  0  0  0
  7  8  2  0  0  0
  8  9  1  0  0  0
  8 10  1  0  0  0
 10 11  1  0  0  0
 11 12  2  0  0  0
 12 13  1  0  0  0
 13 16  1  0  0  0
 16 17  2  0  0  0
 17 18  1  0  0  0
 18 19  2  0  0  0
 19 20  1  0  0  0
 20 21  2  0  0  0
 13 14  2  0  0  0
 14 15  1  0  0  0
 15  1  1  0  0  0
 10  3  2  0  0  0
 15 11  1  0  0  0
 34 29  1  0  0  0
 21 16  1  0  0  0
M  END
> <minimizedAffinity>
-1.78705

$$$$



 34 38  0  0  0  0  0  0  0  0999 V2000
    2.7678   67.1053   83.6560 C   0  0  0  0  0  0  0  0  0  0  0  0
    2.1859   65.9450   83.5972 N   0  0  0  0  0  0  0  0  0  0  0  0
    1.1887   65.7725   82.6341 C   0  0  0  0  0  0  0  0  0  0  0  0
    0.5193   64.4190   82.6057 C   0  0  0  0  0  0  0  0  0  0  0  0
    0.8594   63.5381   83.3973 O   0  0  0  0  0  0  0  0  0  0  0  0
   -0.4678   64.2383   81.6499 N   0  0  0  0  0  0  0  0  0  0  0  0
   -0.8609   65.1989   80.7575 N   0  0  0  0  0  0  0  0  0  0  0  0
   -0.2801   66.3546   80.8014 C   0  0  0  0  0  0  0  0  0  0  0  0
   -0.7750   67.3653   79.7926 C   0  0  0  0  0  0  0  0  0  0  0  0
    0.8039   66.7248   81.7539 C   0  0  0  0  0  0  0  0  0  0  0  0
    1.4595   67.9925   81.7998 C   0  0  0  0  0  0  0  0  0  0  0  0
    1.4409   69.2060   81.1470 C   0  0  0  0  0  0  0  0  0  0  0  0
    2.4340   70.0151   81.7732 C   0  0  0  0  0  0  0  0  0  0  0  0
    3.0298   69.3321   82.7627 N   0  0  0  0  0  0  0  0  0  0  0  0
    2.4273   68.1296   82.7692 N   0  0  0  0  0  0  0  0  0  0  0  0
    2.8197   71.3960   81.4543 C   0  0  0  0  0  0  0  0  0  0  0  0
    3.9898   71.6546   80.7221 C   0  0  0  0  0  0  0  0  0  0  0  0
    4.3700   72.9636   80.4138 C   0  0  0  0  0  0  0  0  0  0  0  0
    3.5844   74.0338   80.8322 C   0  0  0  0  0  0  0  0  0  0  0  0
    2.4191   73.7961   81.5571 C   0  0  0  0  0  0  0  0  0  0  0  0
    2.0382   72.4861   81.8664 C   0  0  0  0  0  0  0  0  0  0  0  0
    3.8569   67.4080   84.6464 C   0  0  0  0  0  0  0  0  0  0  0  0
    4.4745   66.1157   85.1669 C   0  0  0  0  0  0  0  0  0  0  0  0
    5.6909   66.3910   86.0135 C   0  0  0  0  0  0  0  0  0  0  0  0
    5.8456   66.0299   87.1711 O   0  0  0  0  0  0  0  0  0  0  0  0
    7.7671   66.3855   84.9319 C   0  0  0  0  0  0  0  0  0  0  0  0
    6.5922   67.1144   85.2903 O   0  0  0  0  0  0  0  0  0  0  0  0
   -1.2061   62.9789   81.6120 C   0  0  0  0  0  0  0  0  0  0  0  0
   -1.2714   62.4001   80.2170 C   0  0  0  0  0  0  0  0  0  0  0  0
   -2.4937   61.9691   79.6814 C   0  0  0  0  0  0  0  0  0  0  0  0
   -2.5510   61.4204   78.3993 C   0  0  0  0  0  0  0  0  0  0  0  0
   -1.3872   61.2896   77.6436 C   0  0  0  0  0  0  0  0  0  0  0  0
   -0.1646   61.7021   78.1707 C   0  0  0  0  0  0  0  0  0  0  0  0
   -0.1054   62.2516   79.4523 C   0  0  0  0  0  0  0  0  0  0  0  0
 26 27  1  0  0  0
 27 24  1  0  0  0
 24 25  2  0  0  0
 24 23  1  0  0  0
 23 22  1  0  0  0
 22  1  1  0  0  0
  1  2  2  0  0  0
  2  3  1  0  0  0
  3  4  1  0  0  0
  4  5  2  0  0  0
  4  6  1  0  0  0
  6 28  1  0  0  0
 28 29  1  0  0  0
 29 30  2  0  0  0
 30 31  1  0  0  0
 31 32  2  0  0  0
 32 33  1  0  0  0
 33 34  2  0  0  0
  6  7  1  0  0  0
  7  8  2  0  0  0
  8  9  1  0  0  0
  8 10  1  0  0  0
 10 11  1  0  0  0
 11 12  2  0  0  0
 12 13  1  0  0  0
 13 16  1  0  0  0
 16 17  2  0  0  0
 17 18  1  0  0  0
 18 19  2  0  0  0
 19 20  1  0  0  0
 20 21  2  0  0  0
 13 14  2  0  0  0
 14 15  1  0  0  0
 15  1  1  0  0  0
 10  3  2  0  0  0
 15 11  1  0  0  0
 34 29  1  0  0  0
 21 16  1  0  0  0
M  END
> <minimizedAffinity>
-1.76108

$$$$



 34 38  0  0  0  0  0  0  0  0999 V2000
    1.9028   66.0613   83.6207 C   0  0  0  0  0  0  0  0  0  0  0  0
    1.4165   64.8677   83.4552 N   0  0  0  0  0  0  0  0  0  0  0  0
    0.7251   64.6126   82.2684 C   0  0  0  0  0  0  0  0  0  0  0  0
    0.1560   63.2219   82.1167 C   0  0  0  0  0  0  0  0  0  0  0  0
    0.3139   62.3829   83.0051 O   0  0  0  0  0  0  0  0  0  0  0  0
   -0.5272   62.9593   80.9398 N   0  0  0  0  0  0  0  0  0  0  0  0
   -0.7129   63.8722   79.9369 N   0  0  0  0  0  0  0  0  0  0  0  0
   -0.2233   65.0607   80.0880 C   0  0  0  0  0  0  0  0  0  0  0  0
   -0.4781   66.0146   78.9437 C   0  0  0  0  0  0  0  0  0  0  0  0
    0.5446   65.5179   81.2798 C   0  0  0  0  0  0  0  0  0  0  0  0
    1.0999   66.8226   81.4481 C   0  0  0  0  0  0  0  0  0  0  0  0
    1.1974   68.0160   80.7658 C   0  0  0  0  0  0  0  0  0  0  0  0
    1.9440   68.8976   81.6016 C   0  0  0  0  0  0  0  0  0  0  0  0
    2.2846   68.2761   82.7409 N   0  0  0  0  0  0  0  0  0  0  0  0
    1.7630   67.0409   82.6347 N   0  0  0  0  0  0  0  0  0  0  0  0
    2.3321   70.2901   81.3420 C   0  0  0  0  0  0  0  0  0  0  0  0
    3.6083   70.5886   80.8374 C   0  0  0  0  0  0  0  0  0  0  0  0
    3.9918   71.9091   80.5883 C   0  0  0  0  0  0  0  0  0  0  0  0
    3.1036   72.9512   80.8388 C   0  0  0  0  0  0  0  0  0  0  0  0
    1.8328   72.6739   81.3367 C   0  0  0  0  0  0  0  0  0  0  0  0
    1.4485   71.3523   81.5868 C   0  0  0  0  0  0  0  0  0  0  0  0
    2.6687   66.4524   84.8531 C   0  0  0  0  0  0  0  0  0  0  0  0
    4.0488   65.8059   84.8471 C   0  0  0  0  0  0  0  0  0  0  0  0
    5.0756   66.6986   85.4961 C   0  0  0  0  0  0  0  0  0  0  0  0
    4.9282   67.8871   85.7414 O   0  0  0  0  0  0  0  0  0  0  0  0
    7.3682   66.4543   85.0903 C   0  0  0  0  0  0  0  0  0  0  0  0
    6.2012   65.9765   85.7611 O   0  0  0  0  0  0  0  0  0  0  0  0
   -1.1646   61.6583   80.7568 C   0  0  0  0  0  0  0  0  0  0  0  0
   -1.5465   61.4103   79.3152 C   0  0  0  0  0  0  0  0  0  0  0  0
   -2.8904   61.4538   78.9170 C   0  0  0  0  0  0  0  0  0  0  0  0
   -3.2440   61.2095   77.5891 C   0  0  0  0  0  0  0  0  0  0  0  0
   -2.2596   60.9114   76.6485 C   0  0  0  0  0  0  0  0  0  0  0  0
   -0.9219   60.8520   77.0354 C   0  0  0  0  0  0  0  0  0  0  0  0
   -0.5664   61.0968   78.3626 C   0  0  0  0  0  0  0  0  0  0  0  0
 26 27  1  0  0  0
 27 24  1  0  0  0
 24 25  2  0  0  0
 24 23  1  0  0  0
 23 22  1  0  0  0
 22  1  1  0  0  0
  1  2  2  0  0  0
  2  3  1  0  0  0
  3  4  1  0  0  0
  4  5  2  0  0  0
  4  6  1  0  0  0
  6 28  1  0  0  0
 28 29  1  0  0  0
 29 30  2  0  0  0
 30 31  1  0  0  0
 31 32  2  0  0  0
 32 33  1  0  0  0
 33 34  2  0  0  0
  6  7  1  0  0  0
  7  8  2  0  0  0
  8  9  1  0  0  0
  8 10  1  0  0  0
 10 11  1  0  0  0
 11 12  2  0  0  0
 12 13  1  0  0  0
 13 16  1  0  0  0
 16 17  2  0  0  0
 17 18  1  0  0  0
 18 19  2  0  0  0
 19 20  1  0  0  0
 20 21  2  0  0  0
 13 14  2  0  0  0
 14 15  1  0  0  0
 15  1  1  0  0  0
 10  3  2  0  0  0
 15 11  1  0  0  0
 34 29  1  0  0  0
 21 16  1  0  0  0
M  END
> <minimizedAffinity>
-1.70241

$$$$



 34 38  0  0  0  0  0  0  0  0999 V2000
    2.7185   66.6872   83.6300 C   0  0  0  0  0  0  0  0  0  0  0  0
    3.0907   67.8980   83.3403 N   0  0  0  0  0  0  0  0  0  0  0  0
    2.4102   68.5522   82.3104 C   0  0  0  0  0  0  0  0  0  0  0  0
    2.8806   69.9502   81.9862 C   0  0  0  0  0  0  0  0  0  0  0  0
    3.8108   70.4571   82.6155 O   0  0  0  0  0  0  0  0  0  0  0  0
    2.2074   70.6078   80.9688 N   0  0  0  0  0  0  0  0  0  0  0  0
    1.1695   70.0685   80.2578 N   0  0  0  0  0  0  0  0  0  0  0  0
    0.7848   68.8668   80.5458 C   0  0  0  0  0  0  0  0  0  0  0  0
   -0.3585   68.3370   79.7114 C   0  0  0  0  0  0  0  0  0  0  0  0
    1.3846   68.0152   81.6108 C   0  0  0  0  0  0  0  0  0  0  0  0
    0.9571   66.6942   81.9443 C   0  0  0  0  0  0  0  0  0  0  0  0
    0.0072   65.7722   81.5610 C   0  0  0  0  0  0  0  0  0  0  0  0
    0.1937   64.6316   82.3960 C   0  0  0  0  0  0  0  0  0  0  0  0
    1.2094   64.8430   83.2469 N   0  0  0  0  0  0  0  0  0  0  0  0
    1.6587   66.0767   82.9550 N   0  0  0  0  0  0  0  0  0  0  0  0
   -0.5607   63.3713   82.4005 C   0  0  0  0  0  0  0  0  0  0  0  0
   -0.6980   62.6225   81.2203 C   0  0  0  0  0  0  0  0  0  0  0  0
   -1.4150   61.4231   81.2096 C   0  0  0  0  0  0  0  0  0  0  0  0
   -2.0045   60.9537   82.3801 C   0  0  0  0  0  0  0  0  0  0  0  0
   -1.8765   61.6817   83.5605 C   0  0  0  0  0  0  0  0  0  0  0  0
   -1.1593   62.8827   83.5718 C   0  0  0  0  0  0  0  0  0  0  0  0
    3.3719   65.8856   84.7203 C   0  0  0  0  0  0  0  0  0  0  0  0
    4.5793   66.6314   85.2759 C   0  0  0  0  0  0  0  0  0  0  0  0
    5.4686   65.7155   86.0777 C   0  0  0  0  0  0  0  0  0  0  0  0
    5.1684   65.1845   87.1371 O   0  0  0  0  0  0  0  0  0  0  0  0
    7.2365   66.8098   85.0021 C   0  0  0  0  0  0  0  0  0  0  0  0
    6.6666   65.5764   85.4421 O   0  0  0  0  0  0  0  0  0  0  0  0
    2.6551   71.9346   80.5545 C   0  0  0  0  0  0  0  0  0  0  0  0
    1.8287   73.0346   81.1809 C   0  0  0  0  0  0  0  0  0  0  0  0
    0.4955   73.2323   80.7935 C   0  0  0  0  0  0  0  0  0  0  0  0
   -0.2624   74.2579   81.3608 C   0  0  0  0  0  0  0  0  0  0  0  0
    0.3065   75.1004   82.3141 C   0  0  0  0  0  0  0  0  0  0  0  0
    1.6347   74.9221   82.6973 C   0  0  0  0  0  0  0  0  0  0  0  0
    2.3939   73.8966   82.1316 C   0  0  0  0  0  0  0  0  0  0  0  0
 26 27  1  0  0  0
 27 24  1  0  0  0
 24 25  2  0  0  0
 24 23  1  0  0  0
 23 22  1  0  0  0
 22  1  1  0  0  0
  1  2  2  0  0  0
  2  3  1  0  0  0
  3  4  1  0  0  0
  4  5  2  0  0  0
  4  6  1  0  0  0
  6 28  1  0  0  0
 28 29  1  0  0  0
 29 30  2  0  0  0
 30 31  1  0  0  0
 31 32  2  0  0  0
 32 33  1  0  0  0
 33 34  2  0  0  0
  6  7  1  0  0  0
  7  8  2  0  0  0
  8  9  1  0  0  0
  8 10  1  0  0  0
 10 11  1  0  0  0
 11 12  2  0  0  0
 12 13  1  0  0  0
 13 16  1  0  0  0
 16 17  2  0  0  0
 17 18  1  0  0  0
 18 19  2  0  0  0
 19 20  1  0  0  0
 20 21  2  0  0  0
 13 14  2  0  0  0
 14 15  1  0  0  0
 15  1  1  0  0  0
 10  3  2  0  0  0
 15 11  1  0  0  0
 34 29  1  0  0  0
 21 16  1  0  0  0
M  END
> <minimizedAffinity>
-1.34397

$$$$



 34 38  0  0  0  0  0  0  0  0999 V2000
   -0.3346   63.1508   83.2262 C   0  0  0  0  0  0  0  0  0  0  0  0
    0.2905   64.1004   83.8555 N   0  0  0  0  0  0  0  0  0  0  0  0
    0.8790   65.1056   83.0842 C   0  0  0  0  0  0  0  0  0  0  0  0
    1.6142   66.1829   83.8456 C   0  0  0  0  0  0  0  0  0  0  0  0
    1.6693   66.1501   85.0761 O   0  0  0  0  0  0  0  0  0  0  0  0
    2.1968   67.1865   83.0879 N   0  0  0  0  0  0  0  0  0  0  0  0
    2.1466   67.2475   81.7214 N   0  0  0  0  0  0  0  0  0  0  0  0
    1.5174   66.3117   81.0861 C   0  0  0  0  0  0  0  0  0  0  0  0
    1.5144   66.4424   79.5804 C   0  0  0  0  0  0  0  0  0  0  0  0
    0.8263   65.1619   81.7338 C   0  0  0  0  0  0  0  0  0  0  0  0
    0.1183   64.1333   81.0413 C   0  0  0  0  0  0  0  0  0  0  0  0
   -0.2149   63.7754   79.7529 C   0  0  0  0  0  0  0  0  0  0  0  0
   -0.9815   62.5774   79.8534 C   0  0  0  0  0  0  0  0  0  0  0  0
   -1.1093   62.2173   81.1397 N   0  0  0  0  0  0  0  0  0  0  0  0
   -0.4374   63.1537   81.8331 N   0  0  0  0  0  0  0  0  0  0  0  0
   -1.5829   61.7859   78.7722 C   0  0  0  0  0  0  0  0  0  0  0  0
   -2.6818   60.9506   79.0312 C   0  0  0  0  0  0  0  0  0  0  0  0
   -3.2623   60.1902   78.0125 C   0  0  0  0  0  0  0  0  0  0  0  0
   -2.7530   60.2550   76.7186 C   0  0  0  0  0  0  0  0  0  0  0  0
   -1.6653   61.0799   76.4427 C   0  0  0  0  0  0  0  0  0  0  0  0
   -1.0835   61.8410   77.4620 C   0  0  0  0  0  0  0  0  0  0  0  0
   -1.0104   62.0189   83.9478 C   0  0  0  0  0  0  0  0  0  0  0  0
   -2.1425   62.5471   84.8205 C   0  0  0  0  0  0  0  0  0  0  0  0
   -1.9264   62.1971   86.2707 C   0  0  0  0  0  0  0  0  0  0  0  0
   -2.7848   61.7811   87.0353 O   0  0  0  0  0  0  0  0  0  0  0  0
   -0.4417   62.9269   87.9271 C   0  0  0  0  0  0  0  0  0  0  0  0
   -0.6237   62.4245   86.6026 O   0  0  0  0  0  0  0  0  0  0  0  0
    2.9836   68.2212   83.7534 C   0  0  0  0  0  0  0  0  0  0  0  0
    4.1532   67.6429   84.5168 C   0  0  0  0  0  0  0  0  0  0  0  0
    4.4513   68.0930   85.8111 C   0  0  0  0  0  0  0  0  0  0  0  0
    5.5406   67.5700   86.5096 C   0  0  0  0  0  0  0  0  0  0  0  0
    6.3470   66.5987   85.9188 C   0  0  0  0  0  0  0  0  0  0  0  0
    6.0686   66.1534   84.6278 C   0  0  0  0  0  0  0  0  0  0  0  0
    4.9793   66.6748   83.9281 C   0  0  0  0  0  0  0  0  0  0  0  0
 26 27  1  0  0  0
 27 24  1  0  0  0
 24 25  2  0  0  0
 24 23  1  0  0  0
 23 22  1  0  0  0
 22  1  1  0  0  0
  1  2  2  0  0  0
  2  3  1  0  0  0
  3  4  1  0  0  0
  4  5  2  0  0  0
  4  6  1  0  0  0
  6 28  1  0  0  0
 28 29  1  0  0  0
 29 30  2  0  0  0
 30 31  1  0  0  0
 31 32  2  0  0  0
 32 33  1  0  0  0
 33 34  2  0  0  0
  6  7  1  0  0  0
  7  8  2  0  0  0
  8  9  1  0  0  0
  8 10  1  0  0  0
 10 11  1  0  0  0
 11 12  2  0  0  0
 12 13  1  0  0  0
 13 16  1  0  0  0
 16 17  2  0  0  0
 17 18  1  0  0  0
 18 19  2  0  0  0
 19 20  1  0  0  0
 20 21  2  0  0  0
 13 14  2  0  0  0
 14 15  1  0  0  0
 15  1  1  0  0  0
 10  3  2  0  0  0
 15 11  1  0  0  0
 34 29  1  0  0  0
 21 16  1  0  0  0
M  END
> <minimizedAffinity>
-1.32334

$$$$



 34 38  0  0  0  0  0  0  0  0999 V2000
    2.9842   69.5764   82.5619 C   0  0  0  0  0  0  0  0  0  0  0  0
    3.0251   70.8621   82.7456 N   0  0  0  0  0  0  0  0  0  0  0  0
    2.0043   71.6271   82.1760 C   0  0  0  0  0  0  0  0  0  0  0  0
    2.0927   73.1192   82.3917 C   0  0  0  0  0  0  0  0  0  0  0  0
    3.0220   73.6017   83.0411 O   0  0  0  0  0  0  0  0  0  0  0  0
    1.0811   73.8848   81.8338 N   0  0  0  0  0  0  0  0  0  0  0  0
    0.0368   73.3730   81.1119 N   0  0  0  0  0  0  0  0  0  0  0  0
   -0.0184   72.0925   80.9322 C   0  0  0  0  0  0  0  0  0  0  0  0
   -1.1938   71.6045   80.1171 C   0  0  0  0  0  0  0  0  0  0  0  0
    0.9739   71.1167   81.4637 C   0  0  0  0  0  0  0  0  0  0  0  0
    0.9128   69.7017   81.2820 C   0  0  0  0  0  0  0  0  0  0  0  0
    0.1065   68.7554   80.6874 C   0  0  0  0  0  0  0  0  0  0  0  0
    0.7103   67.4905   80.9490 C   0  0  0  0  0  0  0  0  0  0  0  0
    1.8327   67.6538   81.6659 N   0  0  0  0  0  0  0  0  0  0  0  0
    1.9418   68.9821   81.8465 N   0  0  0  0  0  0  0  0  0  0  0  0
    0.2491   66.1575   80.5394 C   0  0  0  0  0  0  0  0  0  0  0  0
    0.2129   65.8059   79.1803 C   0  0  0  0  0  0  0  0  0  0  0  0
   -0.2260   64.5421   78.7763 C   0  0  0  0  0  0  0  0  0  0  0  0
   -0.6340   63.6101   79.7264 C   0  0  0  0  0  0  0  0  0  0  0  0
   -0.6023   63.9403   81.0791 C   0  0  0  0  0  0  0  0  0  0  0  0
   -0.1635   65.2054   81.4840 C   0  0  0  0  0  0  0  0  0  0  0  0
    4.0232   68.6508   83.1295 C   0  0  0  0  0  0  0  0  0  0  0  0
    3.6312   68.2118   84.5352 C   0  0  0  0  0  0  0  0  0  0  0  0
    4.4361   67.0180   84.9817 C   0  0  0  0  0  0  0  0  0  0  0  0
    3.9760   65.9291   85.2932 O   0  0  0  0  0  0  0  0  0  0  0  0
    6.5627   66.4775   85.7975 C   0  0  0  0  0  0  0  0  0  0  0  0
    5.7602   67.3425   84.9927 O   0  0  0  0  0  0  0  0  0  0  0  0
    1.1412   75.3398   81.9422 C   0  0  0  0  0  0  0  0  0  0  0  0
    1.6777   75.9819   80.6832 C   0  0  0  0  0  0  0  0  0  0  0  0
    0.8015   76.5099   79.7240 C   0  0  0  0  0  0  0  0  0  0  0  0
    1.2968   77.0886   78.5545 C   0  0  0  0  0  0  0  0  0  0  0  0
    2.6712   77.1381   78.3284 C   0  0  0  0  0  0  0  0  0  0  0  0
    3.5512   76.6045   79.2683 C   0  0  0  0  0  0  0  0  0  0  0  0
    3.0578   76.0260   80.4387 C   0  0  0  0  0  0  0  0  0  0  0  0
 26 27  1  0  0  0
 27 24  1  0  0  0
 24 25  2  0  0  0
 24 23  1  0  0  0
 23 22  1  0  0  0
 22  1  1  0  0  0
  1  2  2  0  0  0
  2  3  1  0  0  0
  3  4  1  0  0  0
  4  5  2  0  0  0
  4  6  1  0  0  0
  6 28  1  0  0  0
 28 29  1  0  0  0
 29 30  2  0  0  0
 30 31  1  0  0  0
 31 32  2  0  0  0
 32 33  1  0  0  0
 33 34  2  0  0  0
  6  7  1  0  0  0
  7  8  2  0  0  0
  8  9  1  0  0  0
  8 10  1  0  0  0
 10 11  1  0  0  0
 11 12  2  0  0  0
 12 13  1  0  0  0
 13 16  1  0  0  0
 16 17  2  0  0  0
 17 18  1  0  0  0
 18 19  2  0  0  0
 19 20  1  0  0  0
 20 21  2  0  0  0
 13 14  2  0  0  0
 14 15  1  0  0  0
 15  1  1  0  0  0
 10  3  2  0  0  0
 15 11  1  0  0  0
 34 29  1  0  0  0
 21 16  1  0  0  0
M  END
> <minimizedAffinity>
-1.22962

$$$$



 34 38  0  0  0  0  0  0  0  0999 V2000
    1.1729   73.0780   81.4803 C   0  0  0  0  0  0  0  0  0  0  0  0
    0.0799   72.9681   80.7864 N   0  0  0  0  0  0  0  0  0  0  0  0
   -0.3606   74.0992   80.0948 C   0  0  0  0  0  0  0  0  0  0  0  0
   -1.6442   73.9431   79.3145 C   0  0  0  0  0  0  0  0  0  0  0  0
   -2.2417   72.8655   79.3057 O   0  0  0  0  0  0  0  0  0  0  0  0
   -2.0854   75.0593   78.6217 N   0  0  0  0  0  0  0  0  0  0  0  0
   -1.4384   76.2655   78.6125 N   0  0  0  0  0  0  0  0  0  0  0  0
   -0.3433   76.3819   79.2924 C   0  0  0  0  0  0  0  0  0  0  0  0
    0.3069   77.7453   79.2417 C   0  0  0  0  0  0  0  0  0  0  0  0
    0.2825   75.2892   80.0884 C   0  0  0  0  0  0  0  0  0  0  0  0
    1.4974   75.4051   80.8296 C   0  0  0  0  0  0  0  0  0  0  0  0
    2.4706   76.3407   81.1068 C   0  0  0  0  0  0  0  0  0  0  0  0
    3.4234   75.6935   81.9471 C   0  0  0  0  0  0  0  0  0  0  0  0
    3.0511   74.4248   82.1759 N   0  0  0  0  0  0  0  0  0  0  0  0
    1.8934   74.2745   81.5079 N   0  0  0  0  0  0  0  0  0  0  0  0
    4.6558   76.2468   82.5236 C   0  0  0  0  0  0  0  0  0  0  0  0
    5.8742   75.5626   82.3832 C   0  0  0  0  0  0  0  0  0  0  0  0
    7.0538   76.0762   82.9287 C   0  0  0  0  0  0  0  0  0  0  0  0
    7.0327   77.2831   83.6219 C   0  0  0  0  0  0  0  0  0  0  0  0
    5.8340   77.9768   83.7689 C   0  0  0  0  0  0  0  0  0  0  0  0
    4.6527   77.4630   83.2234 C   0  0  0  0  0  0  0  0  0  0  0  0
    1.7469   71.9296   82.2615 C   0  0  0  0  0  0  0  0  0  0  0  0
    2.4217   70.9354   81.3241 C   0  0  0  0  0  0  0  0  0  0  0  0
    2.1912   69.5148   81.7728 C   0  0  0  0  0  0  0  0  0  0  0  0
    1.3436   68.7577   81.3223 O   0  0  0  0  0  0  0  0  0  0  0  0
    2.8884   67.8999   83.3174 C   0  0  0  0  0  0  0  0  0  0  0  0
    3.0706   69.2053   82.7675 O   0  0  0  0  0  0  0  0  0  0  0  0
   -3.3559   75.0010   77.9042 C   0  0  0  0  0  0  0  0  0  0  0  0
   -4.2061   76.2260   78.1533 C   0  0  0  0  0  0  0  0  0  0  0  0
   -4.3708   77.1942   77.1523 C   0  0  0  0  0  0  0  0  0  0  0  0
   -5.1431   78.3326   77.3881 C   0  0  0  0  0  0  0  0  0  0  0  0
   -5.7513   78.5184   78.6283 C   0  0  0  0  0  0  0  0  0  0  0  0
   -5.5838   77.5696   79.6353 C   0  0  0  0  0  0  0  0  0  0  0  0
   -4.8124   76.4302   79.4011 C   0  0  0  0  0  0  0  0  0  0  0  0
 26 27  1  0  0  0
 27 24  1  0  0  0
 24 25  2  0  0  0
 24 23  1  0  0  0
 23 22  1  0  0  0
 22  1  1  0  0  0
  1  2  2  0  0  0
  2  3  1  0  0  0
  3  4  1  0  0  0
  4  5  2  0  0  0
  4  6  1  0  0  0
  6 28  1  0  0  0
 28 29  1  0  0  0
 29 30  2  0  0  0
 30 31  1  0  0  0
 31 32  2  0  0  0
 32 33  1  0  0  0
 33 34  2  0  0  0
  6  7  1  0  0  0
  7  8  2  0  0  0
  8  9  1  0  0  0
  8 10  1  0  0  0
 10 11  1  0  0  0
 11 12  2  0  0  0
 12 13  1  0  0  0
 13 16  1  0  0  0
 16 17  2  0  0  0
 17 18  1  0  0  0
 18 19  2  0  0  0
 19 20  1  0  0  0
 20 21  2  0  0  0
 13 14  2  0  0  0
 14 15  1  0  0  0
 15  1  1  0  0  0
 10  3  2  0  0  0
 15 11  1  0  0  0
 34 29  1  0  0  0
 21 16  1  0  0  0
M  END
> <minimizedAffinity>
-1.21556

$$$$



 34 38  0  0  0  0  0  0  0  0999 V2000
    0.1224   65.2995   81.5886 C   0  0  0  0  0  0  0  0  0  0  0  0
    0.6390   66.2249   80.8368 N   0  0  0  0  0  0  0  0  0  0  0  0
    1.4842   67.1542   81.4481 C   0  0  0  0  0  0  0  0  0  0  0  0
    2.0518   68.2277   80.5501 C   0  0  0  0  0  0  0  0  0  0  0  0
    1.7693   68.2516   79.3510 O   0  0  0  0  0  0  0  0  0  0  0  0
    2.8952   69.1506   81.1480 N   0  0  0  0  0  0  0  0  0  0  0  0
    3.2274   69.1434   82.4759 N   0  0  0  0  0  0  0  0  0  0  0  0
    2.7260   68.2194   83.2308 C   0  0  0  0  0  0  0  0  0  0  0  0
    3.1305   68.2836   84.6856 C   0  0  0  0  0  0  0  0  0  0  0  0
    1.8100   67.1427   82.7608 C   0  0  0  0  0  0  0  0  0  0  0  0
    1.2637   66.1117   83.5840 C   0  0  0  0  0  0  0  0  0  0  0  0
    1.3035   65.6851   84.8939 C   0  0  0  0  0  0  0  0  0  0  0  0
    0.4747   64.5271   84.9653 C   0  0  0  0  0  0  0  0  0  0  0  0
   -0.0493   64.2590   83.7595 N   0  0  0  0  0  0  0  0  0  0  0  0
    0.4259   65.2222   82.9499 N   0  0  0  0  0  0  0  0  0  0  0  0
    0.1788   63.6879   86.1339 C   0  0  0  0  0  0  0  0  0  0  0  0
    0.8715   63.8816   87.3400 C   0  0  0  0  0  0  0  0  0  0  0  0
    0.6019   63.0888   88.4588 C   0  0  0  0  0  0  0  0  0  0  0  0
   -0.3661   62.0910   88.3883 C   0  0  0  0  0  0  0  0  0  0  0  0
   -1.0650   61.8864   87.2011 C   0  0  0  0  0  0  0  0  0  0  0  0
   -0.7953   62.6793   86.0807 C   0  0  0  0  0  0  0  0  0  0  0  0
   -0.7969   64.2428   81.0438 C   0  0  0  0  0  0  0  0  0  0  0  0
   -0.0063   63.2114   80.2476 C   0  0  0  0  0  0  0  0  0  0  0  0
   -0.8594   62.0201   79.8936 C   0  0  0  0  0  0  0  0  0  0  0  0
   -1.1276   61.0923   80.6432 O   0  0  0  0  0  0  0  0  0  0  0  0
   -1.9009   60.9518   78.0897 C   0  0  0  0  0  0  0  0  0  0  0  0
   -1.2806   62.1320   78.6019 O   0  0  0  0  0  0  0  0  0  0  0  0
    3.4232   70.2573   80.3550 C   0  0  0  0  0  0  0  0  0  0  0  0
    2.9442   71.5988   80.8614 C   0  0  0  0  0  0  0  0  0  0  0  0
    1.5745   71.8488   81.0294 C   0  0  0  0  0  0  0  0  0  0  0  0
    1.1318   73.0926   81.4822 C   0  0  0  0  0  0  0  0  0  0  0  0
    2.0522   74.1006   81.7637 C   0  0  0  0  0  0  0  0  0  0  0  0
    3.4152   73.8682   81.5877 C   0  0  0  0  0  0  0  0  0  0  0  0
    3.8598   72.6248   81.1357 C   0  0  0  0  0  0  0  0  0  0  0  0
 26 27  1  0  0  0
 27 24  1  0  0  0
 24 25  2  0  0  0
 24 23  1  0  0  0
 23 22  1  0  0  0
 22  1  1  0  0  0
  1  2  2  0  0  0
  2  3  1  0  0  0
  3  4  1  0  0  0
  4  5  2  0  0  0
  4  6  1  0  0  0
  6 28  1  0  0  0
 28 29  1  0  0  0
 29 30  2  0  0  0
 30 31  1  0  0  0
 31 32  2  0  0  0
 32 33  1  0  0  0
 33 34  2  0  0  0
  6  7  1  0  0  0
  7  8  2  0  0  0
  8  9  1  0  0  0
  8 10  1  0  0  0
 10 11  1  0  0  0
 11 12  2  0  0  0
 12 13  1  0  0  0
 13 16  1  0  0  0
 16 17  2  0  0  0
 17 18  1  0  0  0
 18 19  2  0  0  0
 19 20  1  0  0  0
 20 21  2  0  0  0
 13 14  2  0  0  0
 14 15  1  0  0  0
 15  1  1  0  0  0
 10  3  2  0  0  0
 15 11  1  0  0  0
 34 29  1  0  0  0
 21 16  1  0  0  0
M  END
> <minimizedAffinity>
-1.20941

$$$$
