


 31 33  0  0  0  0  0  0  0  0999 V2000
   -0.7177   64.0810   80.7813 N   0  0  0  0  0  0  0  0  0  0  0  0
    0.2884   64.4004   81.6757 C   0  0  0  0  0  0  0  0  0  0  0  0
    0.7966   63.6726   82.5191 O   0  0  0  0  0  0  0  0  0  0  0  0
   -0.9682   64.8630   80.1824 H   0  0  0  0  0  0  0  0  0  0  0  0
   -0.6157   62.7585   78.2161 C   0  0  0  0  0  0  0  0  0  0  0  0
   -1.4213   62.2177   79.3734 C   0  0  0  0  0  0  0  0  0  0  0  0
   -1.4262   62.8699   80.6315 C   0  0  0  0  0  0  0  0  0  0  0  0
   -2.1488   62.3097   81.6938 C   0  0  0  0  0  0  0  0  0  0  0  0
   -2.8924   61.1414   81.5279 C   0  0  0  0  0  0  0  0  0  0  0  0
   -2.9335   60.5181   80.2884 C   0  0  0  0  0  0  0  0  0  0  0  0
   -2.2072   61.0513   79.2140 C   0  0  0  0  0  0  0  0  0  0  0  0
   -2.3301   60.3663   77.9007 C   0  0  0  0  0  0  0  0  0  0  0  0
   -3.0882   60.7684   77.0240 O   0  0  0  0  0  0  0  0  0  0  0  0
   -1.5094   59.2736   77.7258 N   0  0  0  0  0  0  0  0  0  0  0  0
   -1.4776   58.7550   76.4089 O   0  0  0  0  0  0  0  0  0  0  0  0
   -0.6762   59.1293   78.2867 H   0  0  0  0  0  0  0  0  0  0  0  0
   -2.1481   59.3095   75.9511 H   0  0  0  0  0  0  0  0  0  0  0  0
    0.7616   65.8181   81.5217 C   0  0  0  0  0  0  0  0  0  0  0  0
    0.2337   66.6271   80.5259 C   0  0  0  0  0  0  0  0  0  0  0  0
    0.7018   67.9318   80.4300 C   0  0  0  0  0  0  0  0  0  0  0  0
    1.6711   68.3783   81.3254 C   0  0  0  0  0  0  0  0  0  0  0  0
    2.1508   67.5067   82.3037 C   0  0  0  0  0  0  0  0  0  0  0  0
    1.7143   66.2251   82.4127 N   0  0  0  0  0  0  0  0  0  0  0  0
    3.2134   67.9660   83.2803 C   0  0  0  0  0  0  0  0  0  0  0  0
    3.1796   67.2468   84.5160 O   0  0  0  0  0  0  0  0  0  0  0  0
    4.3528   66.7452   85.0083 C   0  0  0  0  0  0  0  0  0  0  0  0
    5.4936   67.4522   84.6169 C   0  0  0  0  0  0  0  0  0  0  0  0
    6.7608   67.0572   85.0488 C   0  0  0  0  0  0  0  0  0  0  0  0
    6.8950   65.9502   85.8822 C   0  0  0  0  0  0  0  0  0  0  0  0
    5.7625   65.2436   86.2823 C   0  0  0  0  0  0  0  0  0  0  0  0
    4.4931   65.6397   85.8480 C   0  0  0  0  0  0  0  0  0  0  0  0
  5  6  1  0  0  0
  6  7  1  0  0  0
  7  1  1  0  0  0
  1  2  1  0  0  0
  2  3  2  0  0  0
  2 18  1  0  0  0
 18 19  1  0  0  0
 19 20  2  0  0  0
 20 21  1  0  0  0
 21 22  2  0  0  0
 22 24  1  0  0  0
 24 25  1  0  0  0
 25 26  1  0  0  0
 26 27  2  0  0  0
 27 28  1  0  0  0
 28 29  2  0  0  0
 29 30  1  0  0  0
 30 31  2  0  0  0
 22 23  1  0  0  0
  7  8  2  0  0  0
  8  9  1  0  0  0
  9 10  2  0  0  0
 10 11  1  0  0  0
 11 12  1  0  0  0
 12 13  2  0  0  0
 12 14  1  0  0  0
 14 15  1  0  0  0
 11  6  2  0  0  0
 23 18  2  0  0  0
 31 26  1  0  0  0
  1  4  1  0  0  0
 14 16  1  0  0  0
 15 17  1  0  0  0
M  END
> <minimizedAffinity>
-1.64865

$$$$



 31 33  0  0  0  0  0  0  0  0999 V2000
    0.1752   64.0370   82.0602 N   0  0  0  0  0  0  0  0  0  0  0  0
    0.5726   64.3760   83.3414 C   0  0  0  0  0  0  0  0  0  0  0  0
    0.3139   63.7879   84.3837 O   0  0  0  0  0  0  0  0  0  0  0  0
    0.5197   64.6891   81.3610 H   0  0  0  0  0  0  0  0  0  0  0  0
    0.2570   63.3005   79.2692 C   0  0  0  0  0  0  0  0  0  0  0  0
   -0.6443   62.6066   80.2627 C   0  0  0  0  0  0  0  0  0  0  0  0
   -0.6392   62.9667   81.6332 C   0  0  0  0  0  0  0  0  0  0  0  0
   -1.4559   62.2662   82.5315 C   0  0  0  0  0  0  0  0  0  0  0  0
   -2.3005   61.2446   82.0974 C   0  0  0  0  0  0  0  0  0  0  0  0
   -2.3494   60.9133   80.7505 C   0  0  0  0  0  0  0  0  0  0  0  0
   -1.5311   61.5897   79.8345 C   0  0  0  0  0  0  0  0  0  0  0  0
   -1.6641   61.2229   78.4004 C   0  0  0  0  0  0  0  0  0  0  0  0
   -0.9654   60.3586   77.8809 O   0  0  0  0  0  0  0  0  0  0  0  0
   -2.6478   61.8945   77.7081 N   0  0  0  0  0  0  0  0  0  0  0  0
   -2.9095   61.3974   76.4087 O   0  0  0  0  0  0  0  0  0  0  0  0
   -3.4209   62.3539   78.1784 H   0  0  0  0  0  0  0  0  0  0  0  0
   -2.2254   60.6979   76.3123 H   0  0  0  0  0  0  0  0  0  0  0  0
    1.4235   65.6140   83.3674 C   0  0  0  0  0  0  0  0  0  0  0  0
    2.4054   65.7674   84.3355 C   0  0  0  0  0  0  0  0  0  0  0  0
    3.1681   66.9285   84.3117 C   0  0  0  0  0  0  0  0  0  0  0  0
    2.9258   67.8861   83.3294 C   0  0  0  0  0  0  0  0  0  0  0  0
    1.9232   67.6586   82.3860 C   0  0  0  0  0  0  0  0  0  0  0  0
    1.1597   66.5352   82.3932 N   0  0  0  0  0  0  0  0  0  0  0  0
    1.6334   68.6908   81.3162 C   0  0  0  0  0  0  0  0  0  0  0  0
    2.6344   69.7095   81.2422 O   0  0  0  0  0  0  0  0  0  0  0  0
    2.2392   71.0161   81.3246 C   0  0  0  0  0  0  0  0  0  0  0  0
    3.2662   71.9126   81.6347 C   0  0  0  0  0  0  0  0  0  0  0  0
    3.0100   73.2802   81.7458 C   0  0  0  0  0  0  0  0  0  0  0  0
    1.7201   73.7623   81.5420 C   0  0  0  0  0  0  0  0  0  0  0  0
    0.6918   72.8764   81.2261 C   0  0  0  0  0  0  0  0  0  0  0  0
    0.9494   71.5060   81.1161 C   0  0  0  0  0  0  0  0  0  0  0  0
  5  6  1  0  0  0
  6  7  1  0  0  0
  7  1  1  0  0  0
  1  2  1  0  0  0
  2  3  2  0  0  0
  2 18  1  0  0  0
 18 19  1  0  0  0
 19 20  2  0  0  0
 20 21  1  0  0  0
 21 22  2  0  0  0
 22 24  1  0  0  0
 24 25  1  0  0  0
 25 26  1  0  0  0
 26 27  2  0  0  0
 27 28  1  0  0  0
 28 29  2  0  0  0
 29 30  1  0  0  0
 30 31  2  0  0  0
 22 23  1  0  0  0
  7  8  2  0  0  0
  8  9  1  0  0  0
  9 10  2  0  0  0
 10 11  1  0  0  0
 11 12  1  0  0  0
 12 13  2  0  0  0
 12 14  1  0  0  0
 14 15  1  0  0  0
 11  6  2  0  0  0
 23 18  2  0  0  0
 31 26  1  0  0  0
  1  4  1  0  0  0
 14 16  1  0  0  0
 15 17  1  0  0  0
M  END
> <minimizedAffinity>
-1.52281

$$$$



 31 33  0  0  0  0  0  0  0  0999 V2000
    0.2280   64.6207   81.5453 N   0  0  0  0  0  0  0  0  0  0  0  0
   -0.0064   65.9537   81.2580 C   0  0  0  0  0  0  0  0  0  0  0  0
   -0.9581   66.4312   80.6535 O   0  0  0  0  0  0  0  0  0  0  0  0
    1.0934   64.4801   82.0591 H   0  0  0  0  0  0  0  0  0  0  0  0
    0.2989   63.7271   78.8002 C   0  0  0  0  0  0  0  0  0  0  0  0
   -0.5462   63.0466   79.8507 C   0  0  0  0  0  0  0  0  0  0  0  0
   -0.5357   63.4862   81.1978 C   0  0  0  0  0  0  0  0  0  0  0  0
   -1.2977   62.7979   82.1519 C   0  0  0  0  0  0  0  0  0  0  0  0
   -2.0942   61.7098   81.7952 C   0  0  0  0  0  0  0  0  0  0  0  0
   -2.1495   61.2980   80.4709 C   0  0  0  0  0  0  0  0  0  0  0  0
   -1.3849   61.9614   79.5005 C   0  0  0  0  0  0  0  0  0  0  0  0
   -1.5239   61.5047   78.0930 C   0  0  0  0  0  0  0  0  0  0  0  0
   -2.1512   62.1481   77.2577 O   0  0  0  0  0  0  0  0  0  0  0  0
   -0.8711   60.3310   77.7861 N   0  0  0  0  0  0  0  0  0  0  0  0
   -0.8318   60.0122   76.4074 O   0  0  0  0  0  0  0  0  0  0  0  0
   -0.1091   59.9733   78.3527 H   0  0  0  0  0  0  0  0  0  0  0  0
   -1.3771   60.7288   76.0128 H   0  0  0  0  0  0  0  0  0  0  0  0
    1.0729   66.8521   81.7923 C   0  0  0  0  0  0  0  0  0  0  0  0
    1.8858   66.4260   82.8327 C   0  0  0  0  0  0  0  0  0  0  0  0
    2.8723   67.2933   83.2858 C   0  0  0  0  0  0  0  0  0  0  0  0
    3.0111   68.5438   82.6878 C   0  0  0  0  0  0  0  0  0  0  0  0
    2.1581   68.8998   81.6425 C   0  0  0  0  0  0  0  0  0  0  0  0
    1.1819   68.0724   81.1871 N   0  0  0  0  0  0  0  0  0  0  0  0
    2.2822   70.2586   80.9852 C   0  0  0  0  0  0  0  0  0  0  0  0
    1.5919   71.2864   81.7010 O   0  0  0  0  0  0  0  0  0  0  0  0
    2.0227   72.5769   81.5618 C   0  0  0  0  0  0  0  0  0  0  0  0
    1.0282   73.5418   81.7471 C   0  0  0  0  0  0  0  0  0  0  0  0
    1.3248   74.9016   81.6408 C   0  0  0  0  0  0  0  0  0  0  0  0
    2.6249   75.3067   81.3516 C   0  0  0  0  0  0  0  0  0  0  0  0
    3.6237   74.3516   81.1717 C   0  0  0  0  0  0  0  0  0  0  0  0
    3.3250   72.9892   81.2774 C   0  0  0  0  0  0  0  0  0  0  0  0
  5  6  1  0  0  0
  6  7  1  0  0  0
  7  1  1  0  0  0
  1  2  1  0  0  0
  2  3  2  0  0  0
  2 18  1  0  0  0
 18 19  1  0  0  0
 19 20  2  0  0  0
 20 21  1  0  0  0
 21 22  2  0  0  0
 22 24  1  0  0  0
 24 25  1  0  0  0
 25 26  1  0  0  0
 26 27  2  0  0  0
 27 28  1  0  0  0
 28 29  2  0  0  0
 29 30  1  0  0  0
 30 31  2  0  0  0
 22 23  1  0  0  0
  7  8  2  0  0  0
  8  9  1  0  0  0
  9 10  2  0  0  0
 10 11  1  0  0  0
 11 12  1  0  0  0
 12 13  2  0  0  0
 12 14  1  0  0  0
 14 15  1  0  0  0
 11  6  2  0  0  0
 23 18  2  0  0  0
 31 26  1  0  0  0
  1  4  1  0  0  0
 14 16  1  0  0  0
 15 17  1  0  0  0
M  END
> <minimizedAffinity>
-1.49194

$$$$



 31 33  0  0  0  0  0  0  0  0999 V2000
    1.1647   65.4325   82.8712 N   0  0  0  0  0  0  0  0  0  0  0  0
    0.5128   64.5999   83.7634 C   0  0  0  0  0  0  0  0  0  0  0  0
    0.4716   64.6981   84.9832 O   0  0  0  0  0  0  0  0  0  0  0  0
    1.0489   65.1354   81.9063 H   0  0  0  0  0  0  0  0  0  0  0  0
    0.7205   67.7930   81.2680 C   0  0  0  0  0  0  0  0  0  0  0  0
    1.7866   67.7294   82.3358 C   0  0  0  0  0  0  0  0  0  0  0  0
    1.9601   66.5689   83.1304 C   0  0  0  0  0  0  0  0  0  0  0  0
    2.9293   66.5672   84.1429 C   0  0  0  0  0  0  0  0  0  0  0  0
    3.7511   67.6728   84.3611 C   0  0  0  0  0  0  0  0  0  0  0  0
    3.6230   68.7986   83.5595 C   0  0  0  0  0  0  0  0  0  0  0  0
    2.6508   68.8299   82.5494 C   0  0  0  0  0  0  0  0  0  0  0  0
    2.5951   70.0439   81.6937 C   0  0  0  0  0  0  0  0  0  0  0  0
    3.1278   70.0881   80.5894 O   0  0  0  0  0  0  0  0  0  0  0  0
    1.8756   71.0985   82.2114 N   0  0  0  0  0  0  0  0  0  0  0  0
    1.6506   72.1674   81.3109 O   0  0  0  0  0  0  0  0  0  0  0  0
    1.1829   70.9721   82.9421 H   0  0  0  0  0  0  0  0  0  0  0  0
    2.1608   71.8835   80.5198 H   0  0  0  0  0  0  0  0  0  0  0  0
   -0.2107   63.4778   83.0741 C   0  0  0  0  0  0  0  0  0  0  0  0
   -1.2779   62.8471   83.6971 C   0  0  0  0  0  0  0  0  0  0  0  0
   -1.9160   61.8190   83.0141 C   0  0  0  0  0  0  0  0  0  0  0  0
   -1.4700   61.4618   81.7437 C   0  0  0  0  0  0  0  0  0  0  0  0
   -0.3924   62.1461   81.1803 C   0  0  0  0  0  0  0  0  0  0  0  0
    0.2521   63.1492   81.8311 N   0  0  0  0  0  0  0  0  0  0  0  0
    0.1178   61.7672   79.8055 C   0  0  0  0  0  0  0  0  0  0  0  0
   -0.6493   62.3503   78.7487 O   0  0  0  0  0  0  0  0  0  0  0  0
   -1.4019   61.5247   77.9601 C   0  0  0  0  0  0  0  0  0  0  0  0
   -0.8765   60.2389   77.8016 C   0  0  0  0  0  0  0  0  0  0  0  0
   -1.5414   59.2868   77.0272 C   0  0  0  0  0  0  0  0  0  0  0  0
   -2.7439   59.6151   76.4072 C   0  0  0  0  0  0  0  0  0  0  0  0
   -3.2780   60.8925   76.5652 C   0  0  0  0  0  0  0  0  0  0  0  0
   -2.6102   61.8461   77.3406 C   0  0  0  0  0  0  0  0  0  0  0  0
  5  6  1  0  0  0
  6  7  1  0  0  0
  7  1  1  0  0  0
  1  2  1  0  0  0
  2  3  2  0  0  0
  2 18  1  0  0  0
 18 19  1  0  0  0
 19 20  2  0  0  0
 20 21  1  0  0  0
 21 22  2  0  0  0
 22 24  1  0  0  0
 24 25  1  0  0  0
 25 26  1  0  0  0
 26 27  2  0  0  0
 27 28  1  0  0  0
 28 29  2  0  0  0
 29 30  1  0  0  0
 30 31  2  0  0  0
 22 23  1  0  0  0
  7  8  2  0  0  0
  8  9  1  0  0  0
  9 10  2  0  0  0
 10 11  1  0  0  0
 11 12  1  0  0  0
 12 13  2  0  0  0
 12 14  1  0  0  0
 14 15  1  0  0  0
 11  6  2  0  0  0
 23 18  2  0  0  0
 31 26  1  0  0  0
  1  4  1  0  0  0
 14 16  1  0  0  0
 15 17  1  0  0  0
M  END
> <minimizedAffinity>
-1.47766

$$$$



 31 33  0  0  0  0  0  0  0  0999 V2000
    0.6688   66.2207   80.3935 N   0  0  0  0  0  0  0  0  0  0  0  0
    0.1496   67.4980   80.2790 C   0  0  0  0  0  0  0  0  0  0  0  0
   -0.9011   67.8322   79.7466 O   0  0  0  0  0  0  0  0  0  0  0  0
    1.5613   66.2058   80.8793 H   0  0  0  0  0  0  0  0  0  0  0  0
   -0.3575   64.3271   82.3171 C   0  0  0  0  0  0  0  0  0  0  0  0
   -0.3289   64.0392   80.8348 C   0  0  0  0  0  0  0  0  0  0  0  0
    0.1497   65.0008   79.9104 C   0  0  0  0  0  0  0  0  0  0  0  0
    0.1153   64.7130   78.5390 C   0  0  0  0  0  0  0  0  0  0  0  0
   -0.3480   63.4847   78.0678 C   0  0  0  0  0  0  0  0  0  0  0  0
   -0.7761   62.5166   78.9655 C   0  0  0  0  0  0  0  0  0  0  0  0
   -0.7650   62.7862   80.3416 C   0  0  0  0  0  0  0  0  0  0  0  0
   -1.1896   61.6927   81.2544 C   0  0  0  0  0  0  0  0  0  0  0  0
   -0.3812   60.9517   81.8043 O   0  0  0  0  0  0  0  0  0  0  0  0
   -2.5474   61.5941   81.4658 N   0  0  0  0  0  0  0  0  0  0  0  0
   -2.9287   60.6941   82.4898 O   0  0  0  0  0  0  0  0  0  0  0  0
   -3.1786   62.3687   81.2893 H   0  0  0  0  0  0  0  0  0  0  0  0
   -2.0668   60.3001   82.7517 H   0  0  0  0  0  0  0  0  0  0  0  0
    1.0332   68.5335   80.9153 C   0  0  0  0  0  0  0  0  0  0  0  0
    1.1884   69.7789   80.3240 C   0  0  0  0  0  0  0  0  0  0  0  0
    2.0123   70.7020   80.9561 C   0  0  0  0  0  0  0  0  0  0  0  0
    2.6452   70.3517   82.1465 C   0  0  0  0  0  0  0  0  0  0  0  0
    2.4365   69.0805   82.6829 C   0  0  0  0  0  0  0  0  0  0  0  0
    1.6419   68.1586   82.0799 N   0  0  0  0  0  0  0  0  0  0  0  0
    3.1235   68.6728   83.9696 C   0  0  0  0  0  0  0  0  0  0  0  0
    3.2428   67.2546   84.1098 O   0  0  0  0  0  0  0  0  0  0  0  0
    4.3298   66.7563   84.7734 C   0  0  0  0  0  0  0  0  0  0  0  0
    5.4978   67.5084   84.6170 C   0  0  0  0  0  0  0  0  0  0  0  0
    6.6844   67.1218   85.2422 C   0  0  0  0  0  0  0  0  0  0  0  0
    6.7091   65.9777   86.0349 C   0  0  0  0  0  0  0  0  0  0  0  0
    5.5477   65.2258   86.2014 C   0  0  0  0  0  0  0  0  0  0  0  0
    4.3594   65.6135   85.5735 C   0  0  0  0  0  0  0  0  0  0  0  0
  5  6  1  0  0  0
  6  7  1  0  0  0
  7  1  1  0  0  0
  1  2  1  0  0  0
  2  3  2  0  0  0
  2 18  1  0  0  0
 18 19  1  0  0  0
 19 20  2  0  0  0
 20 21  1  0  0  0
 21 22  2  0  0  0
 22 24  1  0  0  0
 24 25  1  0  0  0
 25 26  1  0  0  0
 26 27  2  0  0  0
 27 28  1  0  0  0
 28 29  2  0  0  0
 29 30  1  0  0  0
 30 31  2  0  0  0
 22 23  1  0  0  0
  7  8  2  0  0  0
  8  9  1  0  0  0
  9 10  2  0  0  0
 10 11  1  0  0  0
 11 12  1  0  0  0
 12 13  2  0  0  0
 12 14  1  0  0  0
 14 15  1  0  0  0
 11  6  2  0  0  0
 23 18  2  0  0  0
 31 26  1  0  0  0
  1  4  1  0  0  0
 14 16  1  0  0  0
 15 17  1  0  0  0
M  END
> <minimizedAffinity>
-1.47104

$$$$



 31 33  0  0  0  0  0  0  0  0999 V2000
    0.5372   65.8975   80.4869 N   0  0  0  0  0  0  0  0  0  0  0  0
    0.1121   67.2096   80.3784 C   0  0  0  0  0  0  0  0  0  0  0  0
   -0.8718   67.6290   79.7824 O   0  0  0  0  0  0  0  0  0  0  0  0
    1.3879   65.8085   81.0358 H   0  0  0  0  0  0  0  0  0  0  0  0
   -0.6988   63.9933   82.2718 C   0  0  0  0  0  0  0  0  0  0  0  0
   -0.6045   63.7625   80.7823 C   0  0  0  0  0  0  0  0  0  0  0  0
   -0.0222   64.7298   79.9259 C   0  0  0  0  0  0  0  0  0  0  0  0
    0.0031   64.4984   78.5437 C   0  0  0  0  0  0  0  0  0  0  0  0
   -0.5018   63.3187   77.9972 C   0  0  0  0  0  0  0  0  0  0  0  0
   -1.0326   62.3429   78.8293 C   0  0  0  0  0  0  0  0  0  0  0  0
   -1.0825   62.5573   80.2141 C   0  0  0  0  0  0  0  0  0  0  0  0
   -1.6177   61.4557   81.0562 C   0  0  0  0  0  0  0  0  0  0  0  0
   -0.8829   60.6789   81.6577 O   0  0  0  0  0  0  0  0  0  0  0  0
   -2.9912   61.3915   81.1411 N   0  0  0  0  0  0  0  0  0  0  0  0
   -3.4883   60.4794   82.1028 O   0  0  0  0  0  0  0  0  0  0  0  0
   -3.5828   62.1881   80.9282 H   0  0  0  0  0  0  0  0  0  0  0  0
   -2.6648   60.0546   82.4314 H   0  0  0  0  0  0  0  0  0  0  0  0
    1.0106   68.1643   81.1124 C   0  0  0  0  0  0  0  0  0  0  0  0
    2.0215   67.6832   81.9318 C   0  0  0  0  0  0  0  0  0  0  0  0
    2.8277   68.6084   82.5834 C   0  0  0  0  0  0  0  0  0  0  0  0
    2.5981   69.9693   82.3938 C   0  0  0  0  0  0  0  0  0  0  0  0
    1.5642   70.3768   81.5500 C   0  0  0  0  0  0  0  0  0  0  0  0
    0.7583   69.4917   80.9081 N   0  0  0  0  0  0  0  0  0  0  0  0
    1.2880   71.8508   81.3382 C   0  0  0  0  0  0  0  0  0  0  0  0
    2.3377   72.6884   81.8298 O   0  0  0  0  0  0  0  0  0  0  0  0
    2.1043   74.0322   81.9290 C   0  0  0  0  0  0  0  0  0  0  0  0
    3.1479   74.7593   82.5093 C   0  0  0  0  0  0  0  0  0  0  0  0
    3.0508   76.1425   82.6696 C   0  0  0  0  0  0  0  0  0  0  0  0
    1.9059   76.8107   82.2444 C   0  0  0  0  0  0  0  0  0  0  0  0
    0.8636   76.0945   81.6591 C   0  0  0  0  0  0  0  0  0  0  0  0
    0.9615   74.7082   81.5000 C   0  0  0  0  0  0  0  0  0  0  0  0
  5  6  1  0  0  0
  6  7  1  0  0  0
  7  1  1  0  0  0
  1  2  1  0  0  0
  2  3  2  0  0  0
  2 18  1  0  0  0
 18 19  1  0  0  0
 19 20  2  0  0  0
 20 21  1  0  0  0
 21 22  2  0  0  0
 22 24  1  0  0  0
 24 25  1  0  0  0
 25 26  1  0  0  0
 26 27  2  0  0  0
 27 28  1  0  0  0
 28 29  2  0  0  0
 29 30  1  0  0  0
 30 31  2  0  0  0
 22 23  1  0  0  0
  7  8  2  0  0  0
  8  9  1  0  0  0
  9 10  2  0  0  0
 10 11  1  0  0  0
 11 12  1  0  0  0
 12 13  2  0  0  0
 12 14  1  0  0  0
 14 15  1  0  0  0
 11  6  2  0  0  0
 23 18  2  0  0  0
 31 26  1  0  0  0
  1  4  1  0  0  0
 14 16  1  0  0  0
 15 17  1  0  0  0
M  END
> <minimizedAffinity>
-1.45809

$$$$



 31 33  0  0  0  0  0  0  0  0999 V2000
    0.5720   65.2180   80.6759 N   0  0  0  0  0  0  0  0  0  0  0  0
    0.4328   66.5848   80.5125 C   0  0  0  0  0  0  0  0  0  0  0  0
   -0.3449   67.1731   79.7719 O   0  0  0  0  0  0  0  0  0  0  0  0
    1.2924   64.9786   81.3516 H   0  0  0  0  0  0  0  0  0  0  0  0
   -1.4079   63.7469   82.1775 C   0  0  0  0  0  0  0  0  0  0  0  0
   -1.0610   63.4077   80.7473 C   0  0  0  0  0  0  0  0  0  0  0  0
   -0.1090   64.1682   80.0238 C   0  0  0  0  0  0  0  0  0  0  0  0
    0.1499   63.8504   78.6834 C   0  0  0  0  0  0  0  0  0  0  0  0
   -0.4850   62.7779   78.0574 C   0  0  0  0  0  0  0  0  0  0  0  0
   -1.3849   61.9963   78.7686 C   0  0  0  0  0  0  0  0  0  0  0  0
   -1.6715   62.3031   80.1064 C   0  0  0  0  0  0  0  0  0  0  0  0
   -2.6063   61.4006   80.8282 C   0  0  0  0  0  0  0  0  0  0  0  0
   -3.8243   61.5212   80.7440 O   0  0  0  0  0  0  0  0  0  0  0  0
   -2.0104   60.4017   81.5664 N   0  0  0  0  0  0  0  0  0  0  0  0
   -2.8991   59.4258   82.0780 O   0  0  0  0  0  0  0  0  0  0  0  0
   -1.0585   60.0964   81.3918 H   0  0  0  0  0  0  0  0  0  0  0  0
   -3.7753   59.7811   81.8085 H   0  0  0  0  0  0  0  0  0  0  0  0
    1.3736   67.3640   81.3873 C   0  0  0  0  0  0  0  0  0  0  0  0
    1.9743   66.7585   82.4814 C   0  0  0  0  0  0  0  0  0  0  0  0
    2.8403   67.5220   83.2545 C   0  0  0  0  0  0  0  0  0  0  0  0
    3.0744   68.8511   82.9093 C   0  0  0  0  0  0  0  0  0  0  0  0
    2.4364   69.3890   81.7909 C   0  0  0  0  0  0  0  0  0  0  0  0
    1.5802   68.6652   81.0242 N   0  0  0  0  0  0  0  0  0  0  0  0
    2.6658   70.8350   81.4033 C   0  0  0  0  0  0  0  0  0  0  0  0
    1.5176   71.6581   81.6253 O   0  0  0  0  0  0  0  0  0  0  0  0
    1.6785   73.0160   81.6097 C   0  0  0  0  0  0  0  0  0  0  0  0
    0.5673   73.7249   81.1437 C   0  0  0  0  0  0  0  0  0  0  0  0
    0.5867   75.1191   81.0779 C   0  0  0  0  0  0  0  0  0  0  0  0
    1.7212   75.8162   81.4839 C   0  0  0  0  0  0  0  0  0  0  0  0
    2.8309   75.1178   81.9559 C   0  0  0  0  0  0  0  0  0  0  0  0
    2.8108   73.7206   82.0203 C   0  0  0  0  0  0  0  0  0  0  0  0
  5  6  1  0  0  0
  6  7  1  0  0  0
  7  1  1  0  0  0
  1  2  1  0  0  0
  2  3  2  0  0  0
  2 18  1  0  0  0
 18 19  1  0  0  0
 19 20  2  0  0  0
 20 21  1  0  0  0
 21 22  2  0  0  0
 22 24  1  0  0  0
 24 25  1  0  0  0
 25 26  1  0  0  0
 26 27  2  0  0  0
 27 28  1  0  0  0
 28 29  2  0  0  0
 29 30  1  0  0  0
 30 31  2  0  0  0
 22 23  1  0  0  0
  7  8  2  0  0  0
  8  9  1  0  0  0
  9 10  2  0  0  0
 10 11  1  0  0  0
 11 12  1  0  0  0
 12 13  2  0  0  0
 12 14  1  0  0  0
 14 15  1  0  0  0
 11  6  2  0  0  0
 23 18  2  0  0  0
 31 26  1  0  0  0
  1  4  1  0  0  0
 14 16  1  0  0  0
 15 17  1  0  0  0
M  END
> <minimizedAffinity>
-1.45297

$$$$



 31 33  0  0  0  0  0  0  0  0999 V2000
    0.6077   65.9103   80.4893 N   0  0  0  0  0  0  0  0  0  0  0  0
    0.2068   67.2299   80.3802 C   0  0  0  0  0  0  0  0  0  0  0  0
   -0.7704   67.6669   79.7856 O   0  0  0  0  0  0  0  0  0  0  0  0
    1.4577   65.8062   81.0366 H   0  0  0  0  0  0  0  0  0  0  0  0
   -0.6519   64.0270   82.2798 C   0  0  0  0  0  0  0  0  0  0  0  0
   -0.5689   63.7950   80.7898 C   0  0  0  0  0  0  0  0  0  0  0  0
    0.0256   64.7526   79.9308 C   0  0  0  0  0  0  0  0  0  0  0  0
    0.0402   64.5213   78.5485 C   0  0  0  0  0  0  0  0  0  0  0  0
   -0.4874   63.3505   78.0041 C   0  0  0  0  0  0  0  0  0  0  0  0
   -1.0309   62.3836   78.8386 C   0  0  0  0  0  0  0  0  0  0  0  0
   -1.0702   62.5984   80.2237 C   0  0  0  0  0  0  0  0  0  0  0  0
   -1.6201   61.5058   81.0681 C   0  0  0  0  0  0  0  0  0  0  0  0
   -0.8959   60.7333   81.6877 O   0  0  0  0  0  0  0  0  0  0  0  0
   -2.9949   61.4451   81.1333 N   0  0  0  0  0  0  0  0  0  0  0  0
   -3.5080   60.5431   82.0961 O   0  0  0  0  0  0  0  0  0  0  0  0
   -3.5816   62.2408   80.9042 H   0  0  0  0  0  0  0  0  0  0  0  0
   -2.6903   60.1198   82.4408 H   0  0  0  0  0  0  0  0  0  0  0  0
    1.1243   68.1687   81.1113 C   0  0  0  0  0  0  0  0  0  0  0  0
    2.0208   67.6799   82.0505 C   0  0  0  0  0  0  0  0  0  0  0  0
    2.8506   68.5897   82.6942 C   0  0  0  0  0  0  0  0  0  0  0  0
    2.7570   69.9433   82.3784 C   0  0  0  0  0  0  0  0  0  0  0  0
    1.8331   70.3587   81.4187 C   0  0  0  0  0  0  0  0  0  0  0  0
    1.0063   69.4895   80.7816 N   0  0  0  0  0  0  0  0  0  0  0  0
    1.7048   71.8264   81.0679 C   0  0  0  0  0  0  0  0  0  0  0  0
    2.0964   72.6893   82.1389 O   0  0  0  0  0  0  0  0  0  0  0  0
    2.7271   73.8630   81.8305 C   0  0  0  0  0  0  0  0  0  0  0  0
    3.6114   73.7781   80.7510 C   0  0  0  0  0  0  0  0  0  0  0  0
    4.3213   74.9001   80.3204 C   0  0  0  0  0  0  0  0  0  0  0  0
    4.1469   76.1206   80.9669 C   0  0  0  0  0  0  0  0  0  0  0  0
    3.2625   76.2155   82.0397 C   0  0  0  0  0  0  0  0  0  0  0  0
    2.5524   75.0902   82.4711 C   0  0  0  0  0  0  0  0  0  0  0  0
  5  6  1  0  0  0
  6  7  1  0  0  0
  7  1  1  0  0  0
  1  2  1  0  0  0
  2  3  2  0  0  0
  2 18  1  0  0  0
 18 19  1  0  0  0
 19 20  2  0  0  0
 20 21  1  0  0  0
 21 22  2  0  0  0
 22 24  1  0  0  0
 24 25  1  0  0  0
 25 26  1  0  0  0
 26 27  2  0  0  0
 27 28  1  0  0  0
 28 29  2  0  0  0
 29 30  1  0  0  0
 30 31  2  0  0  0
 22 23  1  0  0  0
  7  8  2  0  0  0
  8  9  1  0  0  0
  9 10  2  0  0  0
 10 11  1  0  0  0
 11 12  1  0  0  0
 12 13  2  0  0  0
 12 14  1  0  0  0
 14 15  1  0  0  0
 11  6  2  0  0  0
 23 18  2  0  0  0
 31 26  1  0  0  0
  1  4  1  0  0  0
 14 16  1  0  0  0
 15 17  1  0  0  0
M  END
> <minimizedAffinity>
-1.41605

$$$$



 31 33  0  0  0  0  0  0  0  0999 V2000
    1.7936   70.2112   81.6844 N   0  0  0  0  0  0  0  0  0  0  0  0
    1.9524   69.2065   80.7464 C   0  0  0  0  0  0  0  0  0  0  0  0
    2.3668   69.3145   79.5993 O   0  0  0  0  0  0  0  0  0  0  0  0
    1.4289   69.8646   82.5674 H   0  0  0  0  0  0  0  0  0  0  0  0
   -0.4808   71.9535   81.3230 C   0  0  0  0  0  0  0  0  0  0  0  0
    0.9383   72.4698   81.3442 C   0  0  0  0  0  0  0  0  0  0  0  0
    2.0333   71.5958   81.5569 C   0  0  0  0  0  0  0  0  0  0  0  0
    3.3312   72.1215   81.6170 C   0  0  0  0  0  0  0  0  0  0  0  0
    3.5703   73.4837   81.4365 C   0  0  0  0  0  0  0  0  0  0  0  0
    2.5113   74.3438   81.1812 C   0  0  0  0  0  0  0  0  0  0  0  0
    1.2021   73.8441   81.1307 C   0  0  0  0  0  0  0  0  0  0  0  0
    0.1167   74.8061   80.8058 C   0  0  0  0  0  0  0  0  0  0  0  0
   -0.4774   75.4365   81.6745 O   0  0  0  0  0  0  0  0  0  0  0  0
   -0.1488   74.9650   79.4633 N   0  0  0  0  0  0  0  0  0  0  0  0
   -1.0306   76.0273   79.1504 O   0  0  0  0  0  0  0  0  0  0  0  0
    0.5237   74.7123   78.7466 H   0  0  0  0  0  0  0  0  0  0  0  0
   -1.2909   76.3506   80.0417 H   0  0  0  0  0  0  0  0  0  0  0  0
    1.5575   67.8586   81.2799 C   0  0  0  0  0  0  0  0  0  0  0  0
    1.8539   67.5109   82.5899 C   0  0  0  0  0  0  0  0  0  0  0  0
    1.4618   66.2545   83.0352 C   0  0  0  0  0  0  0  0  0  0  0  0
    0.7924   65.3982   82.1639 C   0  0  0  0  0  0  0  0  0  0  0  0
    0.5257   65.8207   80.8611 C   0  0  0  0  0  0  0  0  0  0  0  0
    0.9053   67.0409   80.4006 N   0  0  0  0  0  0  0  0  0  0  0  0
   -0.1899   64.9024   79.8923 C   0  0  0  0  0  0  0  0  0  0  0  0
   -0.2774   63.5558   80.3658 O   0  0  0  0  0  0  0  0  0  0  0  0
   -0.9367   62.6377   79.5958 C   0  0  0  0  0  0  0  0  0  0  0  0
   -1.7315   61.7419   80.3171 C   0  0  0  0  0  0  0  0  0  0  0  0
   -2.4669   60.7531   79.6614 C   0  0  0  0  0  0  0  0  0  0  0  0
   -2.4150   60.6566   78.2737 C   0  0  0  0  0  0  0  0  0  0  0  0
   -1.6303   61.5495   77.5465 C   0  0  0  0  0  0  0  0  0  0  0  0
   -0.8929   62.5394   78.2047 C   0  0  0  0  0  0  0  0  0  0  0  0
  5  6  1  0  0  0
  6  7  1  0  0  0
  7  1  1  0  0  0
  1  2  1  0  0  0
  2  3  2  0  0  0
  2 18  1  0  0  0
 18 19  1  0  0  0
 19 20  2  0  0  0
 20 21  1  0  0  0
 21 22  2  0  0  0
 22 24  1  0  0  0
 24 25  1  0  0  0
 25 26  1  0  0  0
 26 27  2  0  0  0
 27 28  1  0  0  0
 28 29  2  0  0  0
 29 30  1  0  0  0
 30 31  2  0  0  0
 22 23  1  0  0  0
  7  8  2  0  0  0
  8  9  1  0  0  0
  9 10  2  0  0  0
 10 11  1  0  0  0
 11 12  1  0  0  0
 12 13  2  0  0  0
 12 14  1  0  0  0
 14 15  1  0  0  0
 11  6  2  0  0  0
 23 18  2  0  0  0
 31 26  1  0  0  0
  1  4  1  0  0  0
 14 16  1  0  0  0
 15 17  1  0  0  0
M  END
> <minimizedAffinity>
-1.40331

$$$$
