


 33 36  0  0  0  0  0  0  0  0999 V2000
   -0.1996   63.1709   83.9576 C   0  0  0  0  0  0  0  0  0  0  0  0
    0.4126   64.3564   83.4955 C   0  0  0  0  0  0  0  0  0  0  0  0
    1.0089   65.2633   84.3831 C   0  0  0  0  0  0  0  0  0  0  0  0
    0.9865   64.9851   85.7558 C   0  0  0  0  0  0  0  0  0  0  0  0
    0.3778   63.8242   86.2329 C   0  0  0  0  0  0  0  0  0  0  0  0
   -0.1944   62.9165   85.3379 C   0  0  0  0  0  0  0  0  0  0  0  0
   -0.8743   61.2584   79.4878 C   0  0  0  0  0  0  0  0  0  0  0  0
   -1.7683   60.3575   79.0452 N   0  0  0  0  0  0  0  0  0  0  0  0
   -2.4622   60.0201   80.1548 N   0  0  0  0  0  0  0  0  0  0  0  0
   -3.5243   59.0464   80.0652 C   0  0  0  0  0  0  0  0  0  0  0  0
   -2.0625   60.6868   81.2736 C   0  0  0  0  0  0  0  0  0  0  0  0
   -2.4615   60.7126   82.5834 C   0  0  0  0  0  0  0  0  0  0  0  0
   -3.4836   59.9627   83.0801 O   0  0  0  0  0  0  0  0  0  0  0  0
   -1.8536   61.5177   83.4560 N   0  0  0  0  0  0  0  0  0  0  0  0
   -0.8126   62.2526   82.9948 C   0  0  0  0  0  0  0  0  0  0  0  0
   -0.3524   62.3088   81.7283 N   0  0  0  0  0  0  0  0  0  0  0  0
   -1.0149   61.4949   80.8775 C   0  0  0  0  0  0  0  0  0  0  0  0
   -3.4515   60.2134   84.0214 H   0  0  0  0  0  0  0  0  0  0  0  0
    0.0898   61.8949   78.5446 C   0  0  0  0  0  0  0  0  0  0  0  0
    0.6618   64.3699   78.6960 C   0  0  0  0  0  0  0  0  0  0  0  0
   -0.2911   63.3211   78.1420 C   0  0  0  0  0  0  0  0  0  0  0  0
    1.6658   66.5304   83.9248 C   0  0  0  0  0  0  0  0  0  0  0  0
    1.3338   66.9907   82.8331 O   0  0  0  0  0  0  0  0  0  0  0  0
    2.7153   67.1702   84.8466 C   0  0  0  0  0  0  0  0  0  0  0  0
    4.1002   66.8333   84.4577 N   0  0  0  0  0  0  0  0  0  0  0  0
    4.5698   65.5521   85.0341 C   0  0  0  0  0  0  0  0  0  0  0  0
    4.9009   65.6200   86.5359 C   0  0  0  0  0  0  0  0  0  0  0  0
    5.8372   66.6647   86.8266 O   0  0  0  0  0  0  0  0  0  0  0  0
    5.3548   67.9292   86.3600 C   0  0  0  0  0  0  0  0  0  0  0  0
    5.0527   67.8925   84.8530 C   0  0  0  0  0  0  0  0  0  0  0  0
   -0.8619   61.8265   85.8362 O   0  0  0  0  0  0  0  0  0  0  0  0
   -1.4916   62.1282   87.0871 C   0  0  0  0  0  0  0  0  0  0  0  0
   -2.8464   62.7418   86.7857 C   0  0  0  0  0  0  0  0  0  0  0  0
 20 21  1  0  0  0
 21 19  1  0  0  0
 19  7  1  0  0  0
  7  8  2  0  0  0
  8  9  1  0  0  0
  9 10  1  0  0  0
  9 11  1  0  0  0
 11 12  2  0  0  0
 12 13  1  0  0  0
 12 14  1  0  0  0
 14 15  2  0  0  0
 15  1  1  0  0  0
  1  2  1  0  0  0
  2  3  2  0  0  0
  3 22  1  0  0  0
 22 23  2  0  0  0
 22 24  1  0  0  0
 24 25  1  0  0  0
 25 26  1  0  0  0
 26 27  1  0  0  0
 27 28  1  0  0  0
 28 29  1  0  0  0
 29 30  1  0  0  0
  3  4  1  0  0  0
  4  5  2  0  0  0
  5  6  1  0  0  0
  6 31  1  0  0  0
 31 32  1  0  0  0
 32 33  1  0  0  0
 15 16  1  0  0  0
 16 17  2  0  0  0
 17  7  1  0  0  0
 17 11  1  0  0  0
  6  1  2  0  0  0
 30 25  1  0  0  0
 13 18  1  0  0  0
M  END
> <minimizedAffinity>
-10.27762

$$$$



 33 36  0  0  0  0  0  0  0  0999 V2000
    0.5035   64.1651   83.8889 C   0  0  0  0  0  0  0  0  0  0  0  0
    0.1701   63.3306   82.7999 C   0  0  0  0  0  0  0  0  0  0  0  0
   -0.6296   62.1918   82.9716 C   0  0  0  0  0  0  0  0  0  0  0  0
   -1.0977   61.8772   84.2538 C   0  0  0  0  0  0  0  0  0  0  0  0
   -0.7709   62.6835   85.3442 C   0  0  0  0  0  0  0  0  0  0  0  0
    0.0087   63.8281   85.1584 C   0  0  0  0  0  0  0  0  0  0  0  0
    4.3331   67.0992   84.7932 C   0  0  0  0  0  0  0  0  0  0  0  0
    4.6505   68.3060   84.2935 N   0  0  0  0  0  0  0  0  0  0  0  0
    3.6700   68.5513   83.3963 N   0  0  0  0  0  0  0  0  0  0  0  0
    3.6847   69.7808   82.6399 C   0  0  0  0  0  0  0  0  0  0  0  0
    2.7338   67.5642   83.3256 C   0  0  0  0  0  0  0  0  0  0  0  0
    1.5774   67.3713   82.6180 C   0  0  0  0  0  0  0  0  0  0  0  0
    1.0790   68.2656   81.7203 O   0  0  0  0  0  0  0  0  0  0  0  0
    0.8547   66.2649   82.7989 N   0  0  0  0  0  0  0  0  0  0  0  0
    1.3439   65.3439   83.6641 C   0  0  0  0  0  0  0  0  0  0  0  0
    2.4593   65.4432   84.4158 N   0  0  0  0  0  0  0  0  0  0  0  0
    3.1438   66.5907   84.2154 C   0  0  0  0  0  0  0  0  0  0  0  0
    0.2921   67.7854   81.4040 H   0  0  0  0  0  0  0  0  0  0  0  0
    5.1811   66.4684   85.8455 C   0  0  0  0  0  0  0  0  0  0  0  0
    7.3343   65.8154   84.6569 C   0  0  0  0  0  0  0  0  0  0  0  0
    6.0593   65.3271   85.3282 C   0  0  0  0  0  0  0  0  0  0  0  0
   -1.0006   61.2855   81.8367 C   0  0  0  0  0  0  0  0  0  0  0  0
   -1.8727   60.4403   82.0340 O   0  0  0  0  0  0  0  0  0  0  0  0
   -0.2639   61.4679   80.5007 C   0  0  0  0  0  0  0  0  0  0  0  0
   -1.0280   62.2808   79.5322 N   0  0  0  0  0  0  0  0  0  0  0  0
   -1.4276   61.5216   78.3246 C   0  0  0  0  0  0  0  0  0  0  0  0
   -0.2754   61.2497   77.3406 C   0  0  0  0  0  0  0  0  0  0  0  0
    0.3977   62.4572   76.9645 O   0  0  0  0  0  0  0  0  0  0  0  0
    0.8756   63.1579   78.1177 C   0  0  0  0  0  0  0  0  0  0  0  0
   -0.2676   63.4714   79.0968 C   0  0  0  0  0  0  0  0  0  0  0  0
    0.3882   64.5564   86.2573 O   0  0  0  0  0  0  0  0  0  0  0  0
   -0.1756   64.0181   87.4592 C   0  0  0  0  0  0  0  0  0  0  0  0
    0.9637   63.4690   88.2978 C   0  0  0  0  0  0  0  0  0  0  0  0
 20 21  1  0  0  0
 21 19  1  0  0  0
 19  7  1  0  0  0
  7  8  2  0  0  0
  8  9  1  0  0  0
  9 10  1  0  0  0
  9 11  1  0  0  0
 11 12  2  0  0  0
 12 13  1  0  0  0
 12 14  1  0  0  0
 14 15  2  0  0  0
 15  1  1  0  0  0
  1  2  1  0  0  0
  2  3  2  0  0  0
  3 22  1  0  0  0
 22 23  2  0  0  0
 22 24  1  0  0  0
 24 25  1  0  0  0
 25 26  1  0  0  0
 26 27  1  0  0  0
 27 28  1  0  0  0
 28 29  1  0  0  0
 29 30  1  0  0  0
  3  4  1  0  0  0
  4  5  2  0  0  0
  5  6  1  0  0  0
  6 31  1  0  0  0
 31 32  1  0  0  0
 32 33  1  0  0  0
 15 16  1  0  0  0
 16 17  2  0  0  0
 17  7  1  0  0  0
 17 11  1  0  0  0
  6  1  2  0  0  0
 30 25  1  0  0  0
 13 18  1  0  0  0
M  END
> <minimizedAffinity>
-9.92376

$$$$



 33 36  0  0  0  0  0  0  0  0999 V2000
   -0.1530   63.1243   83.9437 C   0  0  0  0  0  0  0  0  0  0  0  0
    0.5127   64.2804   83.4812 C   0  0  0  0  0  0  0  0  0  0  0  0
    1.1244   65.1750   84.3708 C   0  0  0  0  0  0  0  0  0  0  0  0
    1.0633   64.9144   85.7457 C   0  0  0  0  0  0  0  0  0  0  0  0
    0.4017   63.7829   86.2230 C   0  0  0  0  0  0  0  0  0  0  0  0
   -0.1858   62.8865   85.3266 C   0  0  0  0  0  0  0  0  0  0  0  0
   -0.8812   61.2558   79.4637 C   0  0  0  0  0  0  0  0  0  0  0  0
   -1.7844   60.3636   79.0217 N   0  0  0  0  0  0  0  0  0  0  0  0
   -2.4693   60.0199   80.1350 N   0  0  0  0  0  0  0  0  0  0  0  0
   -3.5375   59.0528   80.0469 C   0  0  0  0  0  0  0  0  0  0  0  0
   -2.0552   60.6744   81.2558 C   0  0  0  0  0  0  0  0  0  0  0  0
   -2.4414   60.6906   82.5695 C   0  0  0  0  0  0  0  0  0  0  0  0
   -3.4627   59.9417   83.0694 O   0  0  0  0  0  0  0  0  0  0  0  0
   -1.8207   61.4845   83.4434 N   0  0  0  0  0  0  0  0  0  0  0  0
   -0.7803   62.2179   82.9787 C   0  0  0  0  0  0  0  0  0  0  0  0
   -0.3320   62.2831   81.7083 N   0  0  0  0  0  0  0  0  0  0  0  0
   -1.0071   61.4805   80.8567 C   0  0  0  0  0  0  0  0  0  0  0  0
   -3.4202   60.1838   84.0126 H   0  0  0  0  0  0  0  0  0  0  0  0
    0.0772   61.8955   78.5169 C   0  0  0  0  0  0  0  0  0  0  0  0
    0.6706   64.3561   78.7797 C   0  0  0  0  0  0  0  0  0  0  0  0
   -0.2787   63.3406   78.1612 C   0  0  0  0  0  0  0  0  0  0  0  0
    1.8377   66.4110   83.9120 C   0  0  0  0  0  0  0  0  0  0  0  0
    2.8554   66.7481   84.5158 O   0  0  0  0  0  0  0  0  0  0  0  0
    1.2489   67.1799   82.7192 C   0  0  0  0  0  0  0  0  0  0  0  0
    2.2070   68.1341   82.1241 N   0  0  0  0  0  0  0  0  0  0  0  0
    2.0045   69.5261   82.5885 C   0  0  0  0  0  0  0  0  0  0  0  0
    0.7757   70.2227   81.9765 C   0  0  0  0  0  0  0  0  0  0  0  0
    0.7985   70.1783   80.5447 O   0  0  0  0  0  0  0  0  0  0  0  0
    0.8980   68.8295   80.0755 C   0  0  0  0  0  0  0  0  0  0  0  0
    2.1404   68.1273   80.6473 C   0  0  0  0  0  0  0  0  0  0  0  0
   -0.9039   61.8284   85.8231 O   0  0  0  0  0  0  0  0  0  0  0  0
   -1.3200   62.0685   87.1727 C   0  0  0  0  0  0  0  0  0  0  0  0
   -2.7610   62.5426   87.1339 C   0  0  0  0  0  0  0  0  0  0  0  0
 20 21  1  0  0  0
 21 19  1  0  0  0
 19  7  1  0  0  0
  7  8  2  0  0  0
  8  9  1  0  0  0
  9 10  1  0  0  0
  9 11  1  0  0  0
 11 12  2  0  0  0
 12 13  1  0  0  0
 12 14  1  0  0  0
 14 15  2  0  0  0
 15  1  1  0  0  0
  1  2  1  0  0  0
  2  3  2  0  0  0
  3 22  1  0  0  0
 22 23  2  0  0  0
 22 24  1  0  0  0
 24 25  1  0  0  0
 25 26  1  0  0  0
 26 27  1  0  0  0
 27 28  1  0  0  0
 28 29  1  0  0  0
 29 30  1  0  0  0
  3  4  1  0  0  0
  4  5  2  0  0  0
  5  6  1  0  0  0
  6 31  1  0  0  0
 31 32  1  0  0  0
 32 33  1  0  0  0
 15 16  1  0  0  0
 16 17  2  0  0  0
 17  7  1  0  0  0
 17 11  1  0  0  0
  6  1  2  0  0  0
 30 25  1  0  0  0
 13 18  1  0  0  0
M  END
> <minimizedAffinity>
-9.82148

$$$$



 33 36  0  0  0  0  0  0  0  0999 V2000
   -0.0013   64.4925   81.8458 C   0  0  0  0  0  0  0  0  0  0  0  0
   -0.5386   64.0237   83.0646 C   0  0  0  0  0  0  0  0  0  0  0  0
   -0.9388   62.6889   83.2199 C   0  0  0  0  0  0  0  0  0  0  0  0
   -0.8073   61.8097   82.1374 C   0  0  0  0  0  0  0  0  0  0  0  0
   -0.2881   62.2561   80.9220 C   0  0  0  0  0  0  0  0  0  0  0  0
    0.1278   63.5829   80.7847 C   0  0  0  0  0  0  0  0  0  0  0  0
    2.2985   68.5694   83.3226 C   0  0  0  0  0  0  0  0  0  0  0  0
    2.2683   69.8202   82.8312 N   0  0  0  0  0  0  0  0  0  0  0  0
    1.4655   69.7219   81.7485 N   0  0  0  0  0  0  0  0  0  0  0  0
    1.2018   70.8923   80.9455 C   0  0  0  0  0  0  0  0  0  0  0  0
    0.9672   68.4697   81.5491 C   0  0  0  0  0  0  0  0  0  0  0  0
    0.1182   67.8956   80.6408 C   0  0  0  0  0  0  0  0  0  0  0  0
   -0.4698   68.5743   79.6173 O   0  0  0  0  0  0  0  0  0  0  0  0
   -0.1937   66.6022   80.7357 N   0  0  0  0  0  0  0  0  0  0  0  0
    0.4017   65.8959   81.7271 C   0  0  0  0  0  0  0  0  0  0  0  0
    1.2371   66.3672   82.6753 N   0  0  0  0  0  0  0  0  0  0  0  0
    1.5034   67.6859   82.5518 C   0  0  0  0  0  0  0  0  0  0  0  0
   -0.9589   67.8540   79.1795 H   0  0  0  0  0  0  0  0  0  0  0  0
    3.0834   68.2574   84.5518 C   0  0  0  0  0  0  0  0  0  0  0  0
    4.6151   66.2303   84.6948 C   0  0  0  0  0  0  0  0  0  0  0  0
    4.4731   67.6836   84.2673 C   0  0  0  0  0  0  0  0  0  0  0  0
   -1.5134   62.1606   84.4996 C   0  0  0  0  0  0  0  0  0  0  0  0
   -2.6437   61.6755   84.4683 O   0  0  0  0  0  0  0  0  0  0  0  0
   -0.6546   62.2632   85.7696 C   0  0  0  0  0  0  0  0  0  0  0  0
   -0.8517   63.5367   86.4923 N   0  0  0  0  0  0  0  0  0  0  0  0
    0.4070   64.2918   86.6917 C   0  0  0  0  0  0  0  0  0  0  0  0
    1.3306   63.7039   87.7739 C   0  0  0  0  0  0  0  0  0  0  0  0
    0.6486   63.5423   89.0234 O   0  0  0  0  0  0  0  0  0  0  0  0
   -0.5221   62.7333   88.8671 C   0  0  0  0  0  0  0  0  0  0  0  0
   -1.4755   63.3240   87.8155 C   0  0  0  0  0  0  0  0  0  0  0  0
    0.5539   64.0195   79.5560 O   0  0  0  0  0  0  0  0  0  0  0  0
   -0.3604   63.6376   78.5214 C   0  0  0  0  0  0  0  0  0  0  0  0
   -0.4567   64.7920   77.5412 C   0  0  0  0  0  0  0  0  0  0  0  0
 20 21  1  0  0  0
 21 19  1  0  0  0
 19  7  1  0  0  0
  7  8  2  0  0  0
  8  9  1  0  0  0
  9 10  1  0  0  0
  9 11  1  0  0  0
 11 12  2  0  0  0
 12 13  1  0  0  0
 12 14  1  0  0  0
 14 15  2  0  0  0
 15  1  1  0  0  0
  1  2  1  0  0  0
  2  3  2  0  0  0
  3 22  1  0  0  0
 22 23  2  0  0  0
 22 24  1  0  0  0
 24 25  1  0  0  0
 25 26  1  0  0  0
 26 27  1  0  0  0
 27 28  1  0  0  0
 28 29  1  0  0  0
 29 30  1  0  0  0
  3  4  1  0  0  0
  4  5  2  0  0  0
  5  6  1  0  0  0
  6 31  1  0  0  0
 31 32  1  0  0  0
 32 33  1  0  0  0
 15 16  1  0  0  0
 16 17  2  0  0  0
 17  7  1  0  0  0
 17 11  1  0  0  0
  6  1  2  0  0  0
 30 25  1  0  0  0
 13 18  1  0  0  0
M  END
> <minimizedAffinity>
-9.62235

$$$$



 33 36  0  0  0  0  0  0  0  0999 V2000
    0.4449   65.3729   81.7835 C   0  0  0  0  0  0  0  0  0  0  0  0
    1.2310   65.8578   82.8516 C   0  0  0  0  0  0  0  0  0  0  0  0
    2.0270   67.0033   82.7101 C   0  0  0  0  0  0  0  0  0  0  0  0
    2.0440   67.6711   81.4790 C   0  0  0  0  0  0  0  0  0  0  0  0
    1.2822   67.2020   80.4087 C   0  0  0  0  0  0  0  0  0  0  0  0
    0.4757   66.0721   80.5669 C   0  0  0  0  0  0  0  0  0  0  0  0
   -2.2832   62.2573   84.4184 C   0  0  0  0  0  0  0  0  0  0  0  0
   -2.7999   61.0582   84.0991 N   0  0  0  0  0  0  0  0  0  0  0  0
   -2.4398   60.8855   82.8080 N   0  0  0  0  0  0  0  0  0  0  0  0
   -2.8353   59.6853   82.1100 C   0  0  0  0  0  0  0  0  0  0  0  0
   -1.6970   61.9111   82.3055 C   0  0  0  0  0  0  0  0  0  0  0  0
   -1.0935   62.1759   81.1051 C   0  0  0  0  0  0  0  0  0  0  0  0
   -1.1333   61.3361   80.0341 O   0  0  0  0  0  0  0  0  0  0  0  0
   -0.4003   63.3027   80.9348 N   0  0  0  0  0  0  0  0  0  0  0  0
   -0.3702   64.1708   81.9749 C   0  0  0  0  0  0  0  0  0  0  0  0
   -0.9170   63.9994   83.1958 N   0  0  0  0  0  0  0  0  0  0  0  0
   -1.5874   62.8338   83.3272 C   0  0  0  0  0  0  0  0  0  0  0  0
   -0.6402   61.8586   79.3756 H   0  0  0  0  0  0  0  0  0  0  0  0
   -2.4542   62.8144   85.7912 C   0  0  0  0  0  0  0  0  0  0  0  0
   -0.2451   63.6210   86.7631 C   0  0  0  0  0  0  0  0  0  0  0  0
   -1.2851   62.5109   86.7304 C   0  0  0  0  0  0  0  0  0  0  0  0
    2.8730   67.5428   83.8238 C   0  0  0  0  0  0  0  0  0  0  0  0
    2.6081   68.6623   84.2599 O   0  0  0  0  0  0  0  0  0  0  0  0
    4.0200   66.6637   84.3459 C   0  0  0  0  0  0  0  0  0  0  0  0
    5.1733   67.4529   84.8252 N   0  0  0  0  0  0  0  0  0  0  0  0
    6.4742   66.9260   84.3519 C   0  0  0  0  0  0  0  0  0  0  0  0
    6.9302   65.6393   85.0635 C   0  0  0  0  0  0  0  0  0  0  0  0
    6.9505   65.7986   86.4871 O   0  0  0  0  0  0  0  0  0  0  0  0
    5.6709   66.2166   86.9741 C   0  0  0  0  0  0  0  0  0  0  0  0
    5.2140   67.5213   86.3013 C   0  0  0  0  0  0  0  0  0  0  0  0
   -0.1965   65.5804   79.4768 O   0  0  0  0  0  0  0  0  0  0  0  0
    0.7070   65.2316   78.4212 C   0  0  0  0  0  0  0  0  0  0  0  0
   -0.0570   64.3843   77.4207 C   0  0  0  0  0  0  0  0  0  0  0  0
 20 21  1  0  0  0
 21 19  1  0  0  0
 19  7  1  0  0  0
  7  8  2  0  0  0
  8  9  1  0  0  0
  9 10  1  0  0  0
  9 11  1  0  0  0
 11 12  2  0  0  0
 12 13  1  0  0  0
 12 14  1  0  0  0
 14 15  2  0  0  0
 15  1  1  0  0  0
  1  2  1  0  0  0
  2  3  2  0  0  0
  3 22  1  0  0  0
 22 23  2  0  0  0
 22 24  1  0  0  0
 24 25  1  0  0  0
 25 26  1  0  0  0
 26 27  1  0  0  0
 27 28  1  0  0  0
 28 29  1  0  0  0
 29 30  1  0  0  0
  3  4  1  0  0  0
  4  5  2  0  0  0
  5  6  1  0  0  0
  6 31  1  0  0  0
 31 32  1  0  0  0
 32 33  1  0  0  0
 15 16  1  0  0  0
 16 17  2  0  0  0
 17  7  1  0  0  0
 17 11  1  0  0  0
  6  1  2  0  0  0
 30 25  1  0  0  0
 13 18  1  0  0  0
M  END
> <minimizedAffinity>
-9.61296

$$$$



 33 36  0  0  0  0  0  0  0  0999 V2000
    1.1059   65.5927   83.0684 C   0  0  0  0  0  0  0  0  0  0  0  0
    0.8377   65.1588   81.7517 C   0  0  0  0  0  0  0  0  0  0  0  0
    1.1792   65.9436   80.6413 C   0  0  0  0  0  0  0  0  0  0  0  0
    1.7917   67.1859   80.8497 C   0  0  0  0  0  0  0  0  0  0  0  0
    2.0559   67.6368   82.1431 C   0  0  0  0  0  0  0  0  0  0  0  0
    1.7312   66.8372   83.2420 C   0  0  0  0  0  0  0  0  0  0  0  0
   -1.7345   62.3349   85.3945 C   0  0  0  0  0  0  0  0  0  0  0  0
   -1.6950   61.8825   86.6597 N   0  0  0  0  0  0  0  0  0  0  0  0
   -0.6186   62.5038   87.1906 N   0  0  0  0  0  0  0  0  0  0  0  0
   -0.2516   62.2495   88.5635 C   0  0  0  0  0  0  0  0  0  0  0  0
    0.0084   63.3478   86.3242 C   0  0  0  0  0  0  0  0  0  0  0  0
    1.0831   64.1931   86.3983 C   0  0  0  0  0  0  0  0  0  0  0  0
    1.8341   64.3692   87.5204 O   0  0  0  0  0  0  0  0  0  0  0  0
    1.4415   64.9200   85.3390 N   0  0  0  0  0  0  0  0  0  0  0  0
    0.7299   64.7412   84.1997 C   0  0  0  0  0  0  0  0  0  0  0  0
   -0.3473   63.9481   84.0275 N   0  0  0  0  0  0  0  0  0  0  0  0
   -0.6859   63.2512   85.1342 C   0  0  0  0  0  0  0  0  0  0  0  0
    2.5048   64.9959   87.1930 H   0  0  0  0  0  0  0  0  0  0  0  0
   -2.8091   61.8858   84.4629 C   0  0  0  0  0  0  0  0  0  0  0  0
   -3.1686   60.2437   82.5524 C   0  0  0  0  0  0  0  0  0  0  0  0
   -2.2843   61.3364   83.1347 C   0  0  0  0  0  0  0  0  0  0  0  0
    0.9073   65.5121   79.2316 C   0  0  0  0  0  0  0  0  0  0  0  0
    1.7249   65.8205   78.3655 O   0  0  0  0  0  0  0  0  0  0  0  0
   -0.3781   64.7159   78.9588 C   0  0  0  0  0  0  0  0  0  0  0  0
   -0.1342   63.4848   78.1794 N   0  0  0  0  0  0  0  0  0  0  0  0
   -1.3783   62.7541   77.8437 C   0  0  0  0  0  0  0  0  0  0  0  0
   -2.0061   61.9995   79.0295 C   0  0  0  0  0  0  0  0  0  0  0  0
   -1.0671   61.1152   79.6531 O   0  0  0  0  0  0  0  0  0  0  0  0
    0.1044   61.8239   80.0710 C   0  0  0  0  0  0  0  0  0  0  0  0
    0.7674   62.5553   78.8923 C   0  0  0  0  0  0  0  0  0  0  0  0
    1.9214   67.3383   84.5048 O   0  0  0  0  0  0  0  0  0  0  0  0
    3.1031   68.1453   84.5726 C   0  0  0  0  0  0  0  0  0  0  0  0
    4.2654   67.2336   84.9202 C   0  0  0  0  0  0  0  0  0  0  0  0
 20 21  1  0  0  0
 21 19  1  0  0  0
 19  7  1  0  0  0
  7  8  2  0  0  0
  8  9  1  0  0  0
  9 10  1  0  0  0
  9 11  1  0  0  0
 11 12  2  0  0  0
 12 13  1  0  0  0
 12 14  1  0  0  0
 14 15  2  0  0  0
 15  1  1  0  0  0
  1  2  1  0  0  0
  2  3  2  0  0  0
  3 22  1  0  0  0
 22 23  2  0  0  0
 22 24  1  0  0  0
 24 25  1  0  0  0
 25 26  1  0  0  0
 26 27  1  0  0  0
 27 28  1  0  0  0
 28 29  1  0  0  0
 29 30  1  0  0  0
  3  4  1  0  0  0
  4  5  2  0  0  0
  5  6  1  0  0  0
  6 31  1  0  0  0
 31 32  1  0  0  0
 32 33  1  0  0  0
 15 16  1  0  0  0
 16 17  2  0  0  0
 17  7  1  0  0  0
 17 11  1  0  0  0
  6  1  2  0  0  0
 30 25  1  0  0  0
 13 18  1  0  0  0
M  END
> <minimizedAffinity>
-9.56668

$$$$



 33 36  0  0  0  0  0  0  0  0999 V2000
    2.3591   66.0799   84.5975 C   0  0  0  0  0  0  0  0  0  0  0  0
    1.9163   67.1847   83.8378 C   0  0  0  0  0  0  0  0  0  0  0  0
    2.8044   68.1863   83.4209 C   0  0  0  0  0  0  0  0  0  0  0  0
    4.1559   68.0866   83.7753 C   0  0  0  0  0  0  0  0  0  0  0  0
    4.6111   67.0081   84.5339 C   0  0  0  0  0  0  0  0  0  0  0  0
    3.7216   66.0043   84.9257 C   0  0  0  0  0  0  0  0  0  0  0  0
   -0.8771   62.4751   83.8075 C   0  0  0  0  0  0  0  0  0  0  0  0
   -1.6944   61.8286   84.6566 N   0  0  0  0  0  0  0  0  0  0  0  0
   -1.3983   62.3659   85.8608 N   0  0  0  0  0  0  0  0  0  0  0  0
   -2.0883   61.9003   87.0403 C   0  0  0  0  0  0  0  0  0  0  0  0
   -0.4481   63.3407   85.8061 C   0  0  0  0  0  0  0  0  0  0  0  0
    0.1447   64.1713   86.7192 C   0  0  0  0  0  0  0  0  0  0  0  0
   -0.1519   64.1732   88.0481 O   0  0  0  0  0  0  0  0  0  0  0  0
    1.0594   65.0591   86.3265 N   0  0  0  0  0  0  0  0  0  0  0  0
    1.3959   65.0576   85.0138 C   0  0  0  0  0  0  0  0  0  0  0  0
    0.8648   64.2940   84.0371 N   0  0  0  0  0  0  0  0  0  0  0  0
   -0.0733   63.4285   84.4797 C   0  0  0  0  0  0  0  0  0  0  0  0
    0.4716   64.8486   88.3720 H   0  0  0  0  0  0  0  0  0  0  0  0
   -0.9079   62.1712   82.3477 C   0  0  0  0  0  0  0  0  0  0  0  0
    0.6092   61.6164   80.3814 C   0  0  0  0  0  0  0  0  0  0  0  0
    0.3093   61.3857   81.8551 C   0  0  0  0  0  0  0  0  0  0  0  0
    2.3659   69.3716   82.6147 C   0  0  0  0  0  0  0  0  0  0  0  0
    3.1403   70.3228   82.5184 O   0  0  0  0  0  0  0  0  0  0  0  0
    0.9749   69.3235   81.9640 C   0  0  0  0  0  0  0  0  0  0  0  0
    1.0349   69.2493   80.4897 N   0  0  0  0  0  0  0  0  0  0  0  0
   -0.2835   68.9866   79.8675 C   0  0  0  0  0  0  0  0  0  0  0  0
   -0.7758   67.5362   80.0212 C   0  0  0  0  0  0  0  0  0  0  0  0
    0.1919   66.5937   79.5440 O   0  0  0  0  0  0  0  0  0  0  0  0
    1.4492   66.7711   80.2052 C   0  0  0  0  0  0  0  0  0  0  0  0
    1.9760   68.2051   80.0322 C   0  0  0  0  0  0  0  0  0  0  0  0
    4.1749   64.9999   85.7429 O   0  0  0  0  0  0  0  0  0  0  0  0
    5.4988   65.2720   86.2178 C   0  0  0  0  0  0  0  0  0  0  0  0
    5.4317   65.3905   87.7292 C   0  0  0  0  0  0  0  0  0  0  0  0
 20 21  1  0  0  0
 21 19  1  0  0  0
 19  7  1  0  0  0
  7  8  2  0  0  0
  8  9  1  0  0  0
  9 10  1  0  0  0
  9 11  1  0  0  0
 11 12  2  0  0  0
 12 13  1  0  0  0
 12 14  1  0  0  0
 14 15  2  0  0  0
 15  1  1  0  0  0
  1  2  1  0  0  0
  2  3  2  0  0  0
  3 22  1  0  0  0
 22 23  2  0  0  0
 22 24  1  0  0  0
 24 25  1  0  0  0
 25 26  1  0  0  0
 26 27  1  0  0  0
 27 28  1  0  0  0
 28 29  1  0  0  0
 29 30  1  0  0  0
  3  4  1  0  0  0
  4  5  2  0  0  0
  5  6  1  0  0  0
  6 31  1  0  0  0
 31 32  1  0  0  0
 32 33  1  0  0  0
 15 16  1  0  0  0
 16 17  2  0  0  0
 17  7  1  0  0  0
 17 11  1  0  0  0
  6  1  2  0  0  0
 30 25  1  0  0  0
 13 18  1  0  0  0
M  END
> <minimizedAffinity>
-9.45704

$$$$



 33 36  0  0  0  0  0  0  0  0999 V2000
   -0.0907   64.0033   84.6296 C   0  0  0  0  0  0  0  0  0  0  0  0
   -0.6070   63.4071   83.4584 C   0  0  0  0  0  0  0  0  0  0  0  0
   -1.6156   62.4350   83.5185 C   0  0  0  0  0  0  0  0  0  0  0  0
   -2.1112   62.0464   84.7696 C   0  0  0  0  0  0  0  0  0  0  0  0
   -1.6070   62.6163   85.9388 C   0  0  0  0  0  0  0  0  0  0  0  0
   -0.6172   63.5999   85.8665 C   0  0  0  0  0  0  0  0  0  0  0  0
    2.0758   67.9330   82.6407 C   0  0  0  0  0  0  0  0  0  0  0  0
    3.2752   68.4895   82.8824 N   0  0  0  0  0  0  0  0  0  0  0  0
    3.7847   67.7356   83.8817 N   0  0  0  0  0  0  0  0  0  0  0  0
    5.0869   68.0487   84.4206 C   0  0  0  0  0  0  0  0  0  0  0  0
    2.9709   66.7122   84.2643 C   0  0  0  0  0  0  0  0  0  0  0  0
    3.0531   65.6956   85.1781 C   0  0  0  0  0  0  0  0  0  0  0  0
    4.1243   65.4933   85.9938 O   0  0  0  0  0  0  0  0  0  0  0  0
    2.0564   64.8174   85.2987 N   0  0  0  0  0  0  0  0  0  0  0  0
    0.9647   65.0135   84.5203 C   0  0  0  0  0  0  0  0  0  0  0  0
    0.7913   65.9700   83.5854 N   0  0  0  0  0  0  0  0  0  0  0  0
    1.8367   66.8198   83.4836 C   0  0  0  0  0  0  0  0  0  0  0  0
    3.8166   64.7261   86.5101 H   0  0  0  0  0  0  0  0  0  0  0  0
    1.1884   68.4798   81.5739 C   0  0  0  0  0  0  0  0  0  0  0  0
    1.7135   66.7653   79.7682 C   0  0  0  0  0  0  0  0  0  0  0  0
    1.7073   68.2367   80.1551 C   0  0  0  0  0  0  0  0  0  0  0  0
   -2.1841   61.7828   82.2943 C   0  0  0  0  0  0  0  0  0  0  0  0
   -3.0614   60.9337   82.4470 O   0  0  0  0  0  0  0  0  0  0  0  0
   -1.6307   62.2139   80.9273 C   0  0  0  0  0  0  0  0  0  0  0  0
   -0.7196   61.2119   80.3368 N   0  0  0  0  0  0  0  0  0  0  0  0
    0.6249   61.7559   80.0359 C   0  0  0  0  0  0  0  0  0  0  0  0
    0.6719   62.6742   78.8014 C   0  0  0  0  0  0  0  0  0  0  0  0
    0.1278   62.0330   77.6415 O   0  0  0  0  0  0  0  0  0  0  0  0
   -1.2098   61.5844   77.8844 C   0  0  0  0  0  0  0  0  0  0  0  0
   -1.2722   60.6358   79.0927 C   0  0  0  0  0  0  0  0  0  0  0  0
   -0.0769   64.0825   87.0315 O   0  0  0  0  0  0  0  0  0  0  0  0
   -0.6886   63.4802   88.1783 C   0  0  0  0  0  0  0  0  0  0  0  0
    0.4171   62.8959   89.0378 C   0  0  0  0  0  0  0  0  0  0  0  0
 20 21  1  0  0  0
 21 19  1  0  0  0
 19  7  1  0  0  0
  7  8  2  0  0  0
  8  9  1  0  0  0
  9 10  1  0  0  0
  9 11  1  0  0  0
 11 12  2  0  0  0
 12 13  1  0  0  0
 12 14  1  0  0  0
 14 15  2  0  0  0
 15  1  1  0  0  0
  1  2  1  0  0  0
  2  3  2  0  0  0
  3 22  1  0  0  0
 22 23  2  0  0  0
 22 24  1  0  0  0
 24 25  1  0  0  0
 25 26  1  0  0  0
 26 27  1  0  0  0
 27 28  1  0  0  0
 28 29  1  0  0  0
 29 30  1  0  0  0
  3  4  1  0  0  0
  4  5  2  0  0  0
  5  6  1  0  0  0
  6 31  1  0  0  0
 31 32  1  0  0  0
 32 33  1  0  0  0
 15 16  1  0  0  0
 16 17  2  0  0  0
 17  7  1  0  0  0
 17 11  1  0  0  0
  6  1  2  0  0  0
 30 25  1  0  0  0
 13 18  1  0  0  0
M  END
> <minimizedAffinity>
-9.37410

$$$$



 33 36  0  0  0  0  0  0  0  0999 V2000
    2.1298   66.2793   84.2501 C   0  0  0  0  0  0  0  0  0  0  0  0
    1.5900   67.2400   83.3672 C   0  0  0  0  0  0  0  0  0  0  0  0
    2.3745   68.2840   82.8569 C   0  0  0  0  0  0  0  0  0  0  0  0
    3.7184   68.3744   83.2410 C   0  0  0  0  0  0  0  0  0  0  0  0
    4.2677   67.4410   84.1202 C   0  0  0  0  0  0  0  0  0  0  0  0
    3.4828   66.3919   84.6058 C   0  0  0  0  0  0  0  0  0  0  0  0
   -1.0371   62.5572   83.7931 C   0  0  0  0  0  0  0  0  0  0  0  0
   -1.7061   61.8556   84.7242 N   0  0  0  0  0  0  0  0  0  0  0  0
   -1.2720   62.3761   85.8935 N   0  0  0  0  0  0  0  0  0  0  0  0
   -1.7777   61.8527   87.1403 C   0  0  0  0  0  0  0  0  0  0  0  0
   -0.3775   63.3923   85.7412 C   0  0  0  0  0  0  0  0  0  0  0  0
    0.2994   64.2258   86.5912 C   0  0  0  0  0  0  0  0  0  0  0  0
    0.1847   64.1827   87.9472 O   0  0  0  0  0  0  0  0  0  0  0  0
    1.1167   65.1617   86.1062 N   0  0  0  0  0  0  0  0  0  0  0  0
    1.2730   65.2064   84.7609 C   0  0  0  0  0  0  0  0  0  0  0  0
    0.6460   64.4441   83.8417 N   0  0  0  0  0  0  0  0  0  0  0  0
   -0.1887   63.5282   84.3799 C   0  0  0  0  0  0  0  0  0  0  0  0
    0.8188   64.8766   88.2048 H   0  0  0  0  0  0  0  0  0  0  0  0
   -1.2523   62.2876   82.3421 C   0  0  0  0  0  0  0  0  0  0  0  0
    1.0209   61.2675   81.8248 C   0  0  0  0  0  0  0  0  0  0  0  0
   -0.4875   61.0690   81.8209 C   0  0  0  0  0  0  0  0  0  0  0  0
    1.8314   69.3196   81.9190 C   0  0  0  0  0  0  0  0  0  0  0  0
    1.5891   68.9801   80.7615 O   0  0  0  0  0  0  0  0  0  0  0  0
    1.6167   70.7404   82.4632 C   0  0  0  0  0  0  0  0  0  0  0  0
    2.2846   71.7736   81.6451 N   0  0  0  0  0  0  0  0  0  0  0  0
    3.2621   72.5795   82.4126 C   0  0  0  0  0  0  0  0  0  0  0  0
    2.6234   73.6045   83.3671 C   0  0  0  0  0  0  0  0  0  0  0  0
    1.7027   74.4640   82.6844 O   0  0  0  0  0  0  0  0  0  0  0  0
    0.6924   73.7030   82.0140 C   0  0  0  0  0  0  0  0  0  0  0  0
    1.3097   72.6977   81.0280 C   0  0  0  0  0  0  0  0  0  0  0  0
    4.0204   65.5378   85.5350 O   0  0  0  0  0  0  0  0  0  0  0  0
    5.0976   66.1559   86.2493 C   0  0  0  0  0  0  0  0  0  0  0  0
    5.4239   65.2775   87.4429 C   0  0  0  0  0  0  0  0  0  0  0  0
 20 21  1  0  0  0
 21 19  1  0  0  0
 19  7  1  0  0  0
  7  8  2  0  0  0
  8  9  1  0  0  0
  9 10  1  0  0  0
  9 11  1  0  0  0
 11 12  2  0  0  0
 12 13  1  0  0  0
 12 14  1  0  0  0
 14 15  2  0  0  0
 15  1  1  0  0  0
  1  2  1  0  0  0
  2  3  2  0  0  0
  3 22  1  0  0  0
 22 23  2  0  0  0
 22 24  1  0  0  0
 24 25  1  0  0  0
 25 26  1  0  0  0
 26 27  1  0  0  0
 27 28  1  0  0  0
 28 29  1  0  0  0
 29 30  1  0  0  0
  3  4  1  0  0  0
  4  5  2  0  0  0
  5  6  1  0  0  0
  6 31  1  0  0  0
 31 32  1  0  0  0
 32 33  1  0  0  0
 15 16  1  0  0  0
 16 17  2  0  0  0
 17  7  1  0  0  0
 17 11  1  0  0  0
  6  1  2  0  0  0
 30 25  1  0  0  0
 13 18  1  0  0  0
M  END
> <minimizedAffinity>
-9.26997

$$$$
