


 35 37  0  0  0  0  0  0  0  0999 V2000
    1.6522   66.6381   83.3255 C   0  0  0  0  0  0  0  0  0  0  0  0
    1.8558   67.3168   82.1178 C   0  0  0  0  0  0  0  0  0  0  0  0
    1.2482   66.8823   80.9331 C   0  0  0  0  0  0  0  0  0  0  0  0
    0.4264   65.7604   80.9302 C   0  0  0  0  0  0  0  0  0  0  0  0
    0.2169   65.0781   82.1318 C   0  0  0  0  0  0  0  0  0  0  0  0
    0.8190   65.5001   83.3348 C   0  0  0  0  0  0  0  0  0  0  0  0
    0.5154   64.6841   84.5601 C   0  0  0  0  0  0  0  0  0  0  0  0
   -0.5641   63.9705   84.6293 N   0  0  0  0  0  0  0  0  0  0  0  0
   -0.8118   63.2365   85.7701 C   0  0  0  0  0  0  0  0  0  0  0  0
    0.0130   63.2055   86.8378 C   0  0  0  0  0  0  0  0  0  0  0  0
    1.2455   64.0306   86.7513 C   0  0  0  0  0  0  0  0  0  0  0  0
    2.0654   64.0940   87.6618 O   0  0  0  0  0  0  0  0  0  0  0  0
    1.4107   64.7210   85.5922 N   0  0  0  0  0  0  0  0  0  0  0  0
    2.2459   65.2872   85.5203 H   0  0  0  0  0  0  0  0  0  0  0  0
   -2.1133   62.4599   85.6949 C   0  0  0  0  0  0  0  0  0  0  0  0
   -2.4520   62.0565   84.2653 C   0  0  0  0  0  0  0  0  0  0  0  0
   -0.1622   62.4171   88.1081 C   0  0  0  0  0  0  0  0  0  0  0  0
   -0.9093   63.2089   89.1717 C   0  0  0  0  0  0  0  0  0  0  0  0
   -0.2198   65.2656   79.7854 N   0  0  0  0  0  0  0  0  0  0  0  0
    0.3515   64.7095   78.6556 C   0  0  0  0  0  0  0  0  0  0  0  0
    1.5356   64.5101   78.4356 O   0  0  0  0  0  0  0  0  0  0  0  0
   -1.2387   65.2572   79.7831 H   0  0  0  0  0  0  0  0  0  0  0  0
   -0.7383   64.3121   77.6256 C   0  0  0  0  0  0  0  0  0  0  0  0
   -0.9791   65.1225   76.7312 O   0  0  0  0  0  0  0  0  0  0  0  0
   -1.3585   63.0735   77.7356 N   0  0  0  0  0  0  0  0  0  0  0  0
   -2.4582   62.7438   76.8296 C   0  0  0  0  0  0  0  0  0  0  0  0
   -3.4873   61.8280   77.5139 C   0  0  0  0  0  0  0  0  0  0  0  0
   -2.9217   60.5426   77.9740 N   0  0  0  0  0  0  0  0  0  0  0  0
   -3.7036   60.0024   79.0830 C   0  0  0  0  0  0  0  0  0  0  0  0
   -1.4872   60.6408   78.3063 C   0  0  0  0  0  0  0  0  0  0  0  0
   -0.9934   62.0434   78.7130 C   0  0  0  0  0  0  0  0  0  0  0  0
    2.2231   67.0231   84.5118 O   0  0  0  0  0  0  0  0  0  0  0  0
    3.5916   67.4377   84.5050 C   0  0  0  0  0  0  0  0  0  0  0  0
    4.8819   65.8479   85.9766 C   0  0  0  0  0  0  0  0  0  0  0  0
    4.4538   66.1801   84.5588 C   0  0  0  0  0  0  0  0  0  0  0  0
 34 35  1  0  0  0
 35 33  1  0  0  0
 33 32  1  0  0  0
 32  1  1  0  0  0
  1  2  1  0  0  0
  2  3  2  0  0  0
  3  4  1  0  0  0
  4 19  1  0  0  0
 19 20  1  0  0  0
 20 21  2  0  0  0
 20 23  1  0  0  0
 23 24  2  0  0  0
 23 25  1  0  0  0
 25 26  1  0  0  0
 26 27  1  0  0  0
 27 28  1  0  0  0
 28 29  1  0  0  0
 28 30  1  0  0  0
 30 31  1  0  0  0
  4  5  2  0  0  0
  5  6  1  0  0  0
  6  7  1  0  0  0
  7  8  2  0  0  0
  8  9  1  0  0  0
  9 15  1  0  0  0
 15 16  1  0  0  0
  9 10  2  0  0  0
 10 17  1  0  0  0
 17 18  1  0  0  0
 10 11  1  0  0  0
 11 12  2  0  0  0
 11 13  1  0  0  0
  6  1  2  0  0  0
 13  7  1  0  0  0
 31 25  1  0  0  0
 19 22  1  0  0  0
 13 14  1  0  0  0
M  END
> <minimizedAffinity>
-9.95738

$$$$



 35 37  0  0  0  0  0  0  0  0999 V2000
    4.0438   66.4845   84.5339 C   0  0  0  0  0  0  0  0  0  0  0  0
    4.8174   67.6199   84.2635 C   0  0  0  0  0  0  0  0  0  0  0  0
    4.2207   68.8237   83.8681 C   0  0  0  0  0  0  0  0  0  0  0  0
    2.8398   68.9174   83.7333 C   0  0  0  0  0  0  0  0  0  0  0  0
    2.0603   67.7890   84.0026 C   0  0  0  0  0  0  0  0  0  0  0  0
    2.6421   66.5685   84.4023 C   0  0  0  0  0  0  0  0  0  0  0  0
    1.6981   65.4284   84.6639 C   0  0  0  0  0  0  0  0  0  0  0  0
    1.2025   64.7412   83.6834 N   0  0  0  0  0  0  0  0  0  0  0  0
    0.3373   63.7038   83.9604 C   0  0  0  0  0  0  0  0  0  0  0  0
   -0.0308   63.3449   85.2081 C   0  0  0  0  0  0  0  0  0  0  0  0
    0.5385   64.1417   86.3254 C   0  0  0  0  0  0  0  0  0  0  0  0
    0.2691   63.9197   87.5017 O   0  0  0  0  0  0  0  0  0  0  0  0
    1.3819   65.1440   85.9628 N   0  0  0  0  0  0  0  0  0  0  0  0
    1.7764   65.6947   86.7141 H   0  0  0  0  0  0  0  0  0  0  0  0
   -0.1551   63.0024   82.7080 C   0  0  0  0  0  0  0  0  0  0  0  0
    0.7964   61.8984   82.2643 C   0  0  0  0  0  0  0  0  0  0  0  0
   -0.9442   62.2160   85.6048 C   0  0  0  0  0  0  0  0  0  0  0  0
   -2.4081   62.6318   85.5794 C   0  0  0  0  0  0  0  0  0  0  0  0
    2.1682   70.0885   83.3451 N   0  0  0  0  0  0  0  0  0  0  0  0
    2.1570   70.6942   82.1021 C   0  0  0  0  0  0  0  0  0  0  0  0
    2.7081   70.3173   81.0800 O   0  0  0  0  0  0  0  0  0  0  0  0
    1.5665   70.5394   84.0326 H   0  0  0  0  0  0  0  0  0  0  0  0
    1.2945   71.9833   82.1249 C   0  0  0  0  0  0  0  0  0  0  0  0
    0.0979   71.8556   81.8663 O   0  0  0  0  0  0  0  0  0  0  0  0
    1.8892   73.1936   82.4599 N   0  0  0  0  0  0  0  0  0  0  0  0
    1.1004   74.4225   82.3780 C   0  0  0  0  0  0  0  0  0  0  0  0
    1.9804   75.6236   81.9921 C   0  0  0  0  0  0  0  0  0  0  0  0
    3.0733   75.8885   82.9509 N   0  0  0  0  0  0  0  0  0  0  0  0
    4.1788   76.5813   82.2944 C   0  0  0  0  0  0  0  0  0  0  0  0
    3.5231   74.6687   83.6492 C   0  0  0  0  0  0  0  0  0  0  0  0
    3.2803   73.3447   82.8980 C   0  0  0  0  0  0  0  0  0  0  0  0
    4.5792   65.2835   84.9243 O   0  0  0  0  0  0  0  0  0  0  0  0
    5.5757   65.2842   85.9499 C   0  0  0  0  0  0  0  0  0  0  0  0
    5.5766   65.5395   88.4584 C   0  0  0  0  0  0  0  0  0  0  0  0
    4.8880   64.9121   87.2601 C   0  0  0  0  0  0  0  0  0  0  0  0
 34 35  1  0  0  0
 35 33  1  0  0  0
 33 32  1  0  0  0
 32  1  1  0  0  0
  1  2  1  0  0  0
  2  3  2  0  0  0
  3  4  1  0  0  0
  4 19  1  0  0  0
 19 20  1  0  0  0
 20 21  2  0  0  0
 20 23  1  0  0  0
 23 24  2  0  0  0
 23 25  1  0  0  0
 25 26  1  0  0  0
 26 27  1  0  0  0
 27 28  1  0  0  0
 28 29  1  0  0  0
 28 30  1  0  0  0
 30 31  1  0  0  0
  4  5  2  0  0  0
  5  6  1  0  0  0
  6  7  1  0  0  0
  7  8  2  0  0  0
  8  9  1  0  0  0
  9 15  1  0  0  0
 15 16  1  0  0  0
  9 10  2  0  0  0
 10 17  1  0  0  0
 17 18  1  0  0  0
 10 11  1  0  0  0
 11 12  2  0  0  0
 11 13  1  0  0  0
  6  1  2  0  0  0
 13  7  1  0  0  0
 31 25  1  0  0  0
 19 22  1  0  0  0
 13 14  1  0  0  0
M  END
> <minimizedAffinity>
-9.49700

$$$$



 35 37  0  0  0  0  0  0  0  0999 V2000
    4.0188   66.5650   84.4708 C   0  0  0  0  0  0  0  0  0  0  0  0
    4.7808   67.7211   84.2622 C   0  0  0  0  0  0  0  0  0  0  0  0
    4.1791   68.9210   83.8626 C   0  0  0  0  0  0  0  0  0  0  0  0
    2.8048   68.9902   83.6617 C   0  0  0  0  0  0  0  0  0  0  0  0
    2.0368   67.8410   83.8691 C   0  0  0  0  0  0  0  0  0  0  0  0
    2.6238   66.6240   84.2720 C   0  0  0  0  0  0  0  0  0  0  0  0
    1.6921   65.4600   84.4633 C   0  0  0  0  0  0  0  0  0  0  0  0
    1.2077   65.1853   85.6335 N   0  0  0  0  0  0  0  0  0  0  0  0
    0.3580   64.1082   85.7725 C   0  0  0  0  0  0  0  0  0  0  0  0
   -0.0152   63.3086   84.7514 C   0  0  0  0  0  0  0  0  0  0  0  0
    0.5493   63.6282   83.4148 C   0  0  0  0  0  0  0  0  0  0  0  0
    0.2943   62.9673   82.4129 O   0  0  0  0  0  0  0  0  0  0  0  0
    1.3763   64.7058   83.3681 N   0  0  0  0  0  0  0  0  0  0  0  0
    1.7678   64.9342   82.4637 H   0  0  0  0  0  0  0  0  0  0  0  0
   -0.1187   63.9197   87.2007 C   0  0  0  0  0  0  0  0  0  0  0  0
    0.9849   63.3788   88.1010 C   0  0  0  0  0  0  0  0  0  0  0  0
   -0.9534   62.1326   84.8045 C   0  0  0  0  0  0  0  0  0  0  0  0
   -2.4078   62.5571   84.6603 C   0  0  0  0  0  0  0  0  0  0  0  0
    2.1286   70.1557   83.2649 N   0  0  0  0  0  0  0  0  0  0  0  0
    2.2038   70.8154   82.0520 C   0  0  0  0  0  0  0  0  0  0  0  0
    2.8540   70.5016   81.0676 O   0  0  0  0  0  0  0  0  0  0  0  0
    1.4543   70.5566   83.9151 H   0  0  0  0  0  0  0  0  0  0  0  0
    1.2978   72.0746   82.0523 C   0  0  0  0  0  0  0  0  0  0  0  0
    0.1371   71.9238   81.6719 O   0  0  0  0  0  0  0  0  0  0  0  0
    1.8142   73.2836   82.5021 N   0  0  0  0  0  0  0  0  0  0  0  0
    0.9939   74.4904   82.4027 C   0  0  0  0  0  0  0  0  0  0  0  0
    1.8638   75.7362   82.1634 C   0  0  0  0  0  0  0  0  0  0  0  0
    2.8491   75.9847   83.2362 N   0  0  0  0  0  0  0  0  0  0  0  0
    3.9875   76.7439   82.7254 C   0  0  0  0  0  0  0  0  0  0  0  0
    3.2726   74.7449   83.9156 C   0  0  0  0  0  0  0  0  0  0  0  0
    3.1503   73.4545   83.0811 C   0  0  0  0  0  0  0  0  0  0  0  0
    4.5594   65.3668   84.8625 O   0  0  0  0  0  0  0  0  0  0  0  0
    5.5593   65.3734   85.8847 C   0  0  0  0  0  0  0  0  0  0  0  0
    5.4989   65.5518   88.3992 C   0  0  0  0  0  0  0  0  0  0  0  0
    4.9040   64.8841   87.1728 C   0  0  0  0  0  0  0  0  0  0  0  0
 34 35  1  0  0  0
 35 33  1  0  0  0
 33 32  1  0  0  0
 32  1  1  0  0  0
  1  2  1  0  0  0
  2  3  2  0  0  0
  3  4  1  0  0  0
  4 19  1  0  0  0
 19 20  1  0  0  0
 20 21  2  0  0  0
 20 23  1  0  0  0
 23 24  2  0  0  0
 23 25  1  0  0  0
 25 26  1  0  0  0
 26 27  1  0  0  0
 27 28  1  0  0  0
 28 29  1  0  0  0
 28 30  1  0  0  0
 30 31  1  0  0  0
  4  5  2  0  0  0
  5  6  1  0  0  0
  6  7  1  0  0  0
  7  8  2  0  0  0
  8  9  1  0  0  0
  9 15  1  0  0  0
 15 16  1  0  0  0
  9 10  2  0  0  0
 10 17  1  0  0  0
 17 18  1  0  0  0
 10 11  1  0  0  0
 11 12  2  0  0  0
 11 13  1  0  0  0
  6  1  2  0  0  0
 13  7  1  0  0  0
 31 25  1  0  0  0
 19 22  1  0  0  0
 13 14  1  0  0  0
M  END
> <minimizedAffinity>
-9.10432

$$$$



 35 37  0  0  0  0  0  0  0  0999 V2000
    0.2606   63.9994   84.7227 C   0  0  0  0  0  0  0  0  0  0  0  0
    0.9284   65.1005   85.2724 C   0  0  0  0  0  0  0  0  0  0  0  0
    1.3775   66.1515   84.4630 C   0  0  0  0  0  0  0  0  0  0  0  0
    1.1701   66.1233   83.0882 C   0  0  0  0  0  0  0  0  0  0  0  0
    0.5031   65.0284   82.5316 C   0  0  0  0  0  0  0  0  0  0  0  0
    0.0430   63.9611   83.3297 C   0  0  0  0  0  0  0  0  0  0  0  0
   -0.6609   62.8424   82.6140 C   0  0  0  0  0  0  0  0  0  0  0  0
   -0.3422   62.5310   81.3971 N   0  0  0  0  0  0  0  0  0  0  0  0
   -1.0111   61.5008   80.7704 C   0  0  0  0  0  0  0  0  0  0  0  0
   -1.9901   60.7767   81.3520 C   0  0  0  0  0  0  0  0  0  0  0  0
   -2.3521   61.1442   82.7453 C   0  0  0  0  0  0  0  0  0  0  0  0
   -3.2340   60.5680   83.3744 O   0  0  0  0  0  0  0  0  0  0  0  0
   -1.6428   62.1698   83.2860 N   0  0  0  0  0  0  0  0  0  0  0  0
   -1.8796   62.4304   84.2344 H   0  0  0  0  0  0  0  0  0  0  0  0
   -0.5236   61.2635   79.3531 C   0  0  0  0  0  0  0  0  0  0  0  0
    0.4898   62.3145   78.9179 C   0  0  0  0  0  0  0  0  0  0  0  0
   -2.7534   59.6236   80.7570 C   0  0  0  0  0  0  0  0  0  0  0  0
   -3.7506   60.0836   79.7033 C   0  0  0  0  0  0  0  0  0  0  0  0
    1.5871   67.1390   82.2120 N   0  0  0  0  0  0  0  0  0  0  0  0
    0.8428   67.7937   81.2479 C   0  0  0  0  0  0  0  0  0  0  0  0
   -0.3385   67.6403   80.9812 O   0  0  0  0  0  0  0  0  0  0  0  0
    2.5380   67.4908   82.3130 H   0  0  0  0  0  0  0  0  0  0  0  0
    1.7106   68.8365   80.4957 C   0  0  0  0  0  0  0  0  0  0  0  0
    2.2708   68.4552   79.4682 O   0  0  0  0  0  0  0  0  0  0  0  0
    1.7906   70.1345   80.9849 N   0  0  0  0  0  0  0  0  0  0  0  0
    2.6915   71.0868   80.3364 C   0  0  0  0  0  0  0  0  0  0  0  0
    3.2614   72.0928   81.3508 C   0  0  0  0  0  0  0  0  0  0  0  0
    2.2254   72.8936   82.0358 N   0  0  0  0  0  0  0  0  0  0  0  0
    2.7067   73.3575   83.3344 C   0  0  0  0  0  0  0  0  0  0  0  0
    0.9384   72.1800   82.1469 C   0  0  0  0  0  0  0  0  0  0  0  0
    1.0278   70.6411   82.1301 C   0  0  0  0  0  0  0  0  0  0  0  0
   -0.1990   62.9460   85.4715 O   0  0  0  0  0  0  0  0  0  0  0  0
   -0.3277   63.1211   86.8848 C   0  0  0  0  0  0  0  0  0  0  0  0
   -2.8289   62.8552   86.7083 C   0  0  0  0  0  0  0  0  0  0  0  0
   -1.5512   62.3297   87.3371 C   0  0  0  0  0  0  0  0  0  0  0  0
 34 35  1  0  0  0
 35 33  1  0  0  0
 33 32  1  0  0  0
 32  1  1  0  0  0
  1  2  1  0  0  0
  2  3  2  0  0  0
  3  4  1  0  0  0
  4 19  1  0  0  0
 19 20  1  0  0  0
 20 21  2  0  0  0
 20 23  1  0  0  0
 23 24  2  0  0  0
 23 25  1  0  0  0
 25 26  1  0  0  0
 26 27  1  0  0  0
 27 28  1  0  0  0
 28 29  1  0  0  0
 28 30  1  0  0  0
 30 31  1  0  0  0
  4  5  2  0  0  0
  5  6  1  0  0  0
  6  7  1  0  0  0
  7  8  2  0  0  0
  8  9  1  0  0  0
  9 15  1  0  0  0
 15 16  1  0  0  0
  9 10  2  0  0  0
 10 17  1  0  0  0
 17 18  1  0  0  0
 10 11  1  0  0  0
 11 12  2  0  0  0
 11 13  1  0  0  0
  6  1  2  0  0  0
 13  7  1  0  0  0
 31 25  1  0  0  0
 19 22  1  0  0  0
 13 14  1  0  0  0
M  END
> <minimizedAffinity>
-8.97299

$$$$



 35 37  0  0  0  0  0  0  0  0999 V2000
   -0.0486   63.8414   83.9079 C   0  0  0  0  0  0  0  0  0  0  0  0
    0.5982   64.6533   84.8476 C   0  0  0  0  0  0  0  0  0  0  0  0
    1.2560   65.8268   84.4579 C   0  0  0  0  0  0  0  0  0  0  0  0
    1.2824   66.2122   83.1220 C   0  0  0  0  0  0  0  0  0  0  0  0
    0.6380   65.4079   82.1779 C   0  0  0  0  0  0  0  0  0  0  0  0
   -0.0299   64.2235   82.5504 C   0  0  0  0  0  0  0  0  0  0  0  0
   -0.6856   63.4458   81.4437 C   0  0  0  0  0  0  0  0  0  0  0  0
   -0.1036   63.3127   80.2935 N   0  0  0  0  0  0  0  0  0  0  0  0
   -0.7357   62.5948   79.3002 C   0  0  0  0  0  0  0  0  0  0  0  0
   -1.9402   62.0049   79.4496 C   0  0  0  0  0  0  0  0  0  0  0  0
   -2.6020   62.1673   80.7699 C   0  0  0  0  0  0  0  0  0  0  0  0
   -3.7031   61.6883   81.0222 O   0  0  0  0  0  0  0  0  0  0  0  0
   -1.9089   62.8884   81.6903 N   0  0  0  0  0  0  0  0  0  0  0  0
   -2.3485   63.0068   82.5937 H   0  0  0  0  0  0  0  0  0  0  0  0
    0.0728   62.5342   78.0175 C   0  0  0  0  0  0  0  0  0  0  0  0
   -0.1698   63.7523   77.1353 C   0  0  0  0  0  0  0  0  0  0  0  0
   -2.6905   61.1842   78.4350 C   0  0  0  0  0  0  0  0  0  0  0  0
   -3.5266   62.0524   77.5057 C   0  0  0  0  0  0  0  0  0  0  0  0
    1.9172   67.3747   82.6544 N   0  0  0  0  0  0  0  0  0  0  0  0
    2.4778   68.3985   83.3957 C   0  0  0  0  0  0  0  0  0  0  0  0
    2.5594   68.4859   84.6106 O   0  0  0  0  0  0  0  0  0  0  0  0
    2.0377   67.4762   81.6477 H   0  0  0  0  0  0  0  0  0  0  0  0
    3.0574   69.4978   82.4673 C   0  0  0  0  0  0  0  0  0  0  0  0
    4.2658   69.4510   82.2383 O   0  0  0  0  0  0  0  0  0  0  0  0
    2.2022   70.4469   81.9210 N   0  0  0  0  0  0  0  0  0  0  0  0
    2.7639   71.5435   81.1331 C   0  0  0  0  0  0  0  0  0  0  0  0
    1.9270   72.8248   81.2871 C   0  0  0  0  0  0  0  0  0  0  0  0
    0.5232   72.6704   80.8519 N   0  0  0  0  0  0  0  0  0  0  0  0
   -0.3374   73.6325   81.5352 C   0  0  0  0  0  0  0  0  0  0  0  0
    0.0321   71.2869   81.0016 C   0  0  0  0  0  0  0  0  0  0  0  0
    0.7441   70.4411   82.0758 C   0  0  0  0  0  0  0  0  0  0  0  0
   -0.7065   62.6840   84.2381 O   0  0  0  0  0  0  0  0  0  0  0  0
   -0.9392   62.4046   85.6210 C   0  0  0  0  0  0  0  0  0  0  0  0
   -2.6749   63.0519   87.3317 C   0  0  0  0  0  0  0  0  0  0  0  0
   -2.4225   62.6355   85.8940 C   0  0  0  0  0  0  0  0  0  0  0  0
 34 35  1  0  0  0
 35 33  1  0  0  0
 33 32  1  0  0  0
 32  1  1  0  0  0
  1  2  1  0  0  0
  2  3  2  0  0  0
  3  4  1  0  0  0
  4 19  1  0  0  0
 19 20  1  0  0  0
 20 21  2  0  0  0
 20 23  1  0  0  0
 23 24  2  0  0  0
 23 25  1  0  0  0
 25 26  1  0  0  0
 26 27  1  0  0  0
 27 28  1  0  0  0
 28 29  1  0  0  0
 28 30  1  0  0  0
 30 31  1  0  0  0
  4  5  2  0  0  0
  5  6  1  0  0  0
  6  7  1  0  0  0
  7  8  2  0  0  0
  8  9  1  0  0  0
  9 15  1  0  0  0
 15 16  1  0  0  0
  9 10  2  0  0  0
 10 17  1  0  0  0
 17 18  1  0  0  0
 10 11  1  0  0  0
 11 12  2  0  0  0
 11 13  1  0  0  0
  6  1  2  0  0  0
 13  7  1  0  0  0
 31 25  1  0  0  0
 19 22  1  0  0  0
 13 14  1  0  0  0
M  END
> <minimizedAffinity>
-8.91584

$$$$



 35 37  0  0  0  0  0  0  0  0999 V2000
    1.7243   65.6416   84.8229 C   0  0  0  0  0  0  0  0  0  0  0  0
    1.3133   64.5627   85.6152 C   0  0  0  0  0  0  0  0  0  0  0  0
    0.3741   63.6366   85.1444 C   0  0  0  0  0  0  0  0  0  0  0  0
   -0.1748   63.7701   83.8736 C   0  0  0  0  0  0  0  0  0  0  0  0
    0.2311   64.8436   83.0759 C   0  0  0  0  0  0  0  0  0  0  0  0
    1.1757   65.7859   83.5317 C   0  0  0  0  0  0  0  0  0  0  0  0
    1.5314   66.8940   82.5804 C   0  0  0  0  0  0  0  0  0  0  0  0
    1.6723   66.6593   81.3137 N   0  0  0  0  0  0  0  0  0  0  0  0
    2.0018   67.6996   80.4706 C   0  0  0  0  0  0  0  0  0  0  0  0
    2.1854   68.9715   80.8825 C   0  0  0  0  0  0  0  0  0  0  0  0
    2.0268   69.2300   82.3370 C   0  0  0  0  0  0  0  0  0  0  0  0
    2.1806   70.3417   82.8327 O   0  0  0  0  0  0  0  0  0  0  0  0
    1.7010   68.1492   83.0941 N   0  0  0  0  0  0  0  0  0  0  0  0
    1.5903   68.3114   84.0865 H   0  0  0  0  0  0  0  0  0  0  0  0
    2.1317   67.2611   79.0237 C   0  0  0  0  0  0  0  0  0  0  0  0
    1.7311   65.8036   78.8340 C   0  0  0  0  0  0  0  0  0  0  0  0
    2.5193   70.1698   80.0347 C   0  0  0  0  0  0  0  0  0  0  0  0
    4.0101   70.4763   80.0435 C   0  0  0  0  0  0  0  0  0  0  0  0
   -1.1178   62.8821   83.3302 N   0  0  0  0  0  0  0  0  0  0  0  0
   -0.8858   61.6916   82.6662 C   0  0  0  0  0  0  0  0  0  0  0  0
    0.1879   61.1560   82.4415 O   0  0  0  0  0  0  0  0  0  0  0  0
   -2.1043   63.0926   83.4740 H   0  0  0  0  0  0  0  0  0  0  0  0
   -2.2211   61.0403   82.2198 C   0  0  0  0  0  0  0  0  0  0  0  0
   -2.9137   60.5331   83.1017 O   0  0  0  0  0  0  0  0  0  0  0  0
   -2.5847   61.0849   80.8794 N   0  0  0  0  0  0  0  0  0  0  0  0
   -3.7895   60.3795   80.4436 C   0  0  0  0  0  0  0  0  0  0  0  0
   -3.6370   59.8537   79.0062 C   0  0  0  0  0  0  0  0  0  0  0  0
   -3.3889   60.9170   78.0104 N   0  0  0  0  0  0  0  0  0  0  0  0
   -2.6830   60.3817   76.8492 C   0  0  0  0  0  0  0  0  0  0  0  0
   -2.6951   62.0843   78.5883 C   0  0  0  0  0  0  0  0  0  0  0  0
   -1.8387   61.7975   79.8375 C   0  0  0  0  0  0  0  0  0  0  0  0
    2.6405   66.5746   85.2370 O   0  0  0  0  0  0  0  0  0  0  0  0
    4.0309   66.2700   85.1001 C   0  0  0  0  0  0  0  0  0  0  0  0
    5.3350   67.8912   86.5246 C   0  0  0  0  0  0  0  0  0  0  0  0
    4.7969   67.5890   85.1378 C   0  0  0  0  0  0  0  0  0  0  0  0
 34 35  1  0  0  0
 35 33  1  0  0  0
 33 32  1  0  0  0
 32  1  1  0  0  0
  1  2  1  0  0  0
  2  3  2  0  0  0
  3  4  1  0  0  0
  4 19  1  0  0  0
 19 20  1  0  0  0
 20 21  2  0  0  0
 20 23  1  0  0  0
 23 24  2  0  0  0
 23 25  1  0  0  0
 25 26  1  0  0  0
 26 27  1  0  0  0
 27 28  1  0  0  0
 28 29  1  0  0  0
 28 30  1  0  0  0
 30 31  1  0  0  0
  4  5  2  0  0  0
  5  6  1  0  0  0
  6  7  1  0  0  0
  7  8  2  0  0  0
  8  9  1  0  0  0
  9 15  1  0  0  0
 15 16  1  0  0  0
  9 10  2  0  0  0
 10 17  1  0  0  0
 17 18  1  0  0  0
 10 11  1  0  0  0
 11 12  2  0  0  0
 11 13  1  0  0  0
  6  1  2  0  0  0
 13  7  1  0  0  0
 31 25  1  0  0  0
 19 22  1  0  0  0
 13 14  1  0  0  0
M  END
> <minimizedAffinity>
-8.72683

$$$$



 35 37  0  0  0  0  0  0  0  0999 V2000
    1.3400   65.5557   83.1265 C   0  0  0  0  0  0  0  0  0  0  0  0
    0.5034   65.9947   82.0929 C   0  0  0  0  0  0  0  0  0  0  0  0
    0.7037   67.2376   81.4794 C   0  0  0  0  0  0  0  0  0  0  0  0
    1.7424   68.0678   81.8866 C   0  0  0  0  0  0  0  0  0  0  0  0
    2.5828   67.6365   82.9167 C   0  0  0  0  0  0  0  0  0  0  0  0
    2.3978   66.3887   83.5463 C   0  0  0  0  0  0  0  0  0  0  0  0
    3.3679   66.0378   84.6396 C   0  0  0  0  0  0  0  0  0  0  0  0
    4.5996   66.4370   84.5849 N   0  0  0  0  0  0  0  0  0  0  0  0
    5.4625   66.0941   85.6043 C   0  0  0  0  0  0  0  0  0  0  0  0
    5.1028   65.3616   86.6791 C   0  0  0  0  0  0  0  0  0  0  0  0
    3.6901   64.9042   86.7306 C   0  0  0  0  0  0  0  0  0  0  0  0
    3.2479   64.2223   87.6498 O   0  0  0  0  0  0  0  0  0  0  0  0
    2.9095   65.2875   85.6861 N   0  0  0  0  0  0  0  0  0  0  0  0
    1.9453   64.9824   85.7086 H   0  0  0  0  0  0  0  0  0  0  0  0
    6.8643   66.6345   85.3907 C   0  0  0  0  0  0  0  0  0  0  0  0
    7.7255   65.6743   84.5799 C   0  0  0  0  0  0  0  0  0  0  0  0
    5.9655   64.9633   87.8467 C   0  0  0  0  0  0  0  0  0  0  0  0
    5.6559   65.7845   89.0901 C   0  0  0  0  0  0  0  0  0  0  0  0
    2.0092   69.3247   81.3190 N   0  0  0  0  0  0  0  0  0  0  0  0
    2.5997   70.4232   81.9162 C   0  0  0  0  0  0  0  0  0  0  0  0
    3.0351   70.5142   83.0530 O   0  0  0  0  0  0  0  0  0  0  0  0
    1.7972   69.4527   80.3307 H   0  0  0  0  0  0  0  0  0  0  0  0
    2.6834   71.6119   80.9230 C   0  0  0  0  0  0  0  0  0  0  0  0
    3.5125   71.5221   80.0179 O   0  0  0  0  0  0  0  0  0  0  0  0
    1.8169   72.6875   81.0751 N   0  0  0  0  0  0  0  0  0  0  0  0
    1.9674   73.8530   80.2047 C   0  0  0  0  0  0  0  0  0  0  0  0
    1.5697   75.1474   80.9344 C   0  0  0  0  0  0  0  0  0  0  0  0
    0.1696   75.1537   81.4072 N   0  0  0  0  0  0  0  0  0  0  0  0
    0.0141   76.0535   82.5471 C   0  0  0  0  0  0  0  0  0  0  0  0
   -0.3359   73.7986   81.7007 C   0  0  0  0  0  0  0  0  0  0  0  0
    0.7369   72.7531   82.0647 C   0  0  0  0  0  0  0  0  0  0  0  0
    1.1864   64.3482   83.7588 O   0  0  0  0  0  0  0  0  0  0  0  0
   -0.1355   63.9214   84.0983 C   0  0  0  0  0  0  0  0  0  0  0  0
   -0.1763   63.8282   86.6178 C   0  0  0  0  0  0  0  0  0  0  0  0
   -0.0289   63.0323   85.3337 C   0  0  0  0  0  0  0  0  0  0  0  0
 34 35  1  0  0  0
 35 33  1  0  0  0
 33 32  1  0  0  0
 32  1  1  0  0  0
  1  2  1  0  0  0
  2  3  2  0  0  0
  3  4  1  0  0  0
  4 19  1  0  0  0
 19 20  1  0  0  0
 20 21  2  0  0  0
 20 23  1  0  0  0
 23 24  2  0  0  0
 23 25  1  0  0  0
 25 26  1  0  0  0
 26 27  1  0  0  0
 27 28  1  0  0  0
 28 29  1  0  0  0
 28 30  1  0  0  0
 30 31  1  0  0  0
  4  5  2  0  0  0
  5  6  1  0  0  0
  6  7  1  0  0  0
  7  8  2  0  0  0
  8  9  1  0  0  0
  9 15  1  0  0  0
 15 16  1  0  0  0
  9 10  2  0  0  0
 10 17  1  0  0  0
 17 18  1  0  0  0
 10 11  1  0  0  0
 11 12  2  0  0  0
 11 13  1  0  0  0
  6  1  2  0  0  0
 13  7  1  0  0  0
 31 25  1  0  0  0
 19 22  1  0  0  0
 13 14  1  0  0  0
M  END
> <minimizedAffinity>
-8.65550

$$$$



 35 37  0  0  0  0  0  0  0  0999 V2000
    1.6902   68.5430   82.5709 C   0  0  0  0  0  0  0  0  0  0  0  0
    0.8032   68.9403   81.5628 C   0  0  0  0  0  0  0  0  0  0  0  0
    0.1456   67.9956   80.7651 C   0  0  0  0  0  0  0  0  0  0  0  0
    0.3615   66.6353   80.9569 C   0  0  0  0  0  0  0  0  0  0  0  0
    1.2443   66.2303   81.9619 C   0  0  0  0  0  0  0  0  0  0  0  0
    1.9154   67.1659   82.7756 C   0  0  0  0  0  0  0  0  0  0  0  0
    2.8377   66.6061   83.8222 C   0  0  0  0  0  0  0  0  0  0  0  0
    4.1001   66.8987   83.8170 N   0  0  0  0  0  0  0  0  0  0  0  0
    4.9173   66.3647   84.7909 C   0  0  0  0  0  0  0  0  0  0  0  0
    4.4818   65.5467   85.7720 C   0  0  0  0  0  0  0  0  0  0  0  0
    3.0341   65.2128   85.7669 C   0  0  0  0  0  0  0  0  0  0  0  0
    2.5227   64.4703   86.5991 O   0  0  0  0  0  0  0  0  0  0  0  0
    2.3028   65.7825   84.7728 N   0  0  0  0  0  0  0  0  0  0  0  0
    1.3153   65.5630   84.7577 H   0  0  0  0  0  0  0  0  0  0  0  0
    6.3634   66.8005   84.6447 C   0  0  0  0  0  0  0  0  0  0  0  0
    7.2875   65.6200   84.3737 C   0  0  0  0  0  0  0  0  0  0  0  0
    5.2921   64.9407   86.8865 C   0  0  0  0  0  0  0  0  0  0  0  0
    5.5477   65.9345   88.0105 C   0  0  0  0  0  0  0  0  0  0  0  0
   -0.2621   65.6288   80.2011 N   0  0  0  0  0  0  0  0  0  0  0  0
    0.2590   64.9109   79.1403 C   0  0  0  0  0  0  0  0  0  0  0  0
    1.3797   64.9875   78.6624 O   0  0  0  0  0  0  0  0  0  0  0  0
   -1.1973   65.3369   80.4811 H   0  0  0  0  0  0  0  0  0  0  0  0
   -0.7866   63.9070   78.5877 C   0  0  0  0  0  0  0  0  0  0  0  0
   -1.1958   64.1046   77.4439 O   0  0  0  0  0  0  0  0  0  0  0  0
   -1.1829   62.8345   79.3772 N   0  0  0  0  0  0  0  0  0  0  0  0
   -2.2450   61.9505   78.8981 C   0  0  0  0  0  0  0  0  0  0  0  0
   -3.0764   61.3955   80.0671 C   0  0  0  0  0  0  0  0  0  0  0  0
   -2.2836   60.6125   81.0377 N   0  0  0  0  0  0  0  0  0  0  0  0
   -2.9190   60.6256   82.3528 C   0  0  0  0  0  0  0  0  0  0  0  0
   -0.8748   61.0474   81.1011 C   0  0  0  0  0  0  0  0  0  0  0  0
   -0.6108   62.5087   80.6873 C   0  0  0  0  0  0  0  0  0  0  0  0
    2.3580   69.4279   83.3787 O   0  0  0  0  0  0  0  0  0  0  0  0
    3.0200   70.5392   82.7691 C   0  0  0  0  0  0  0  0  0  0  0  0
    4.0006   70.6246   80.4477 C   0  0  0  0  0  0  0  0  0  0  0  0
    4.0769   69.9816   81.8205 C   0  0  0  0  0  0  0  0  0  0  0  0
 34 35  1  0  0  0
 35 33  1  0  0  0
 33 32  1  0  0  0
 32  1  1  0  0  0
  1  2  1  0  0  0
  2  3  2  0  0  0
  3  4  1  0  0  0
  4 19  1  0  0  0
 19 20  1  0  0  0
 20 21  2  0  0  0
 20 23  1  0  0  0
 23 24  2  0  0  0
 23 25  1  0  0  0
 25 26  1  0  0  0
 26 27  1  0  0  0
 27 28  1  0  0  0
 28 29  1  0  0  0
 28 30  1  0  0  0
 30 31  1  0  0  0
  4  5  2  0  0  0
  5  6  1  0  0  0
  6  7  1  0  0  0
  7  8  2  0  0  0
  8  9  1  0  0  0
  9 15  1  0  0  0
 15 16  1  0  0  0
  9 10  2  0  0  0
 10 17  1  0  0  0
 17 18  1  0  0  0
 10 11  1  0  0  0
 11 12  2  0  0  0
 11 13  1  0  0  0
  6  1  2  0  0  0
 13  7  1  0  0  0
 31 25  1  0  0  0
 19 22  1  0  0  0
 13 14  1  0  0  0
M  END
> <minimizedAffinity>
-8.57697

$$$$



 35 37  0  0  0  0  0  0  0  0999 V2000
    1.7313   66.2104   82.9797 C   0  0  0  0  0  0  0  0  0  0  0  0
    0.9302   66.7658   81.9745 C   0  0  0  0  0  0  0  0  0  0  0  0
    1.1708   68.0574   81.4896 C   0  0  0  0  0  0  0  0  0  0  0  0
    2.2151   68.8210   81.9997 C   0  0  0  0  0  0  0  0  0  0  0  0
    3.0203   68.2735   83.0023 C   0  0  0  0  0  0  0  0  0  0  0  0
    2.7945   66.9750   83.5032 C   0  0  0  0  0  0  0  0  0  0  0  0
    3.7293   66.4985   84.5795 C   0  0  0  0  0  0  0  0  0  0  0  0
    4.9638   66.8917   84.6058 N   0  0  0  0  0  0  0  0  0  0  0  0
    5.7939   66.4321   85.6065 C   0  0  0  0  0  0  0  0  0  0  0  0
    5.3983   65.5886   86.5828 C   0  0  0  0  0  0  0  0  0  0  0  0
    3.9827   65.1393   86.5415 C   0  0  0  0  0  0  0  0  0  0  0  0
    3.5097   64.3638   87.3664 O   0  0  0  0  0  0  0  0  0  0  0  0
    3.2360   65.6412   85.5228 N   0  0  0  0  0  0  0  0  0  0  0  0
    2.2702   65.3429   85.4829 H   0  0  0  0  0  0  0  0  0  0  0  0
    7.2039   66.9818   85.4955 C   0  0  0  0  0  0  0  0  0  0  0  0
    8.1476   65.9926   84.8233 C   0  0  0  0  0  0  0  0  0  0  0  0
    6.2233   65.0576   87.7245 C   0  0  0  0  0  0  0  0  0  0  0  0
    5.7687   65.6177   89.0647 C   0  0  0  0  0  0  0  0  0  0  0  0
    2.5212   70.1207   81.5635 N   0  0  0  0  0  0  0  0  0  0  0  0
    2.0125   71.3194   82.0285 C   0  0  0  0  0  0  0  0  0  0  0  0
    1.2125   71.4928   82.9341 O   0  0  0  0  0  0  0  0  0  0  0  0
    3.2426   70.2236   80.8512 H   0  0  0  0  0  0  0  0  0  0  0  0
    2.6173   72.5150   81.2468 C   0  0  0  0  0  0  0  0  0  0  0  0
    2.5417   72.4712   80.0191 O   0  0  0  0  0  0  0  0  0  0  0  0
    3.1766   73.5745   81.9506 N   0  0  0  0  0  0  0  0  0  0  0  0
    3.8402   74.6492   81.2133 C   0  0  0  0  0  0  0  0  0  0  0  0
    5.0081   75.2398   82.0216 C   0  0  0  0  0  0  0  0  0  0  0  0
    4.5985   75.8120   83.3210 N   0  0  0  0  0  0  0  0  0  0  0  0
    5.7139   75.8012   84.2640 C   0  0  0  0  0  0  0  0  0  0  0  0
    3.3993   75.1557   83.8769 C   0  0  0  0  0  0  0  0  0  0  0  0
    3.1583   73.7062   83.4108 C   0  0  0  0  0  0  0  0  0  0  0  0
    1.5377   64.9511   83.4878 O   0  0  0  0  0  0  0  0  0  0  0  0
    0.1986   64.5182   83.7409 C   0  0  0  0  0  0  0  0  0  0  0  0
   -0.5519   62.6545   85.2646 C   0  0  0  0  0  0  0  0  0  0  0  0
    0.1458   63.9996   85.1749 C   0  0  0  0  0  0  0  0  0  0  0  0
 34 35  1  0  0  0
 35 33  1  0  0  0
 33 32  1  0  0  0
 32  1  1  0  0  0
  1  2  1  0  0  0
  2  3  2  0  0  0
  3  4  1  0  0  0
  4 19  1  0  0  0
 19 20  1  0  0  0
 20 21  2  0  0  0
 20 23  1  0  0  0
 23 24  2  0  0  0
 23 25  1  0  0  0
 25 26  1  0  0  0
 26 27  1  0  0  0
 27 28  1  0  0  0
 28 29  1  0  0  0
 28 30  1  0  0  0
 30 31  1  0  0  0
  4  5  2  0  0  0
  5  6  1  0  0  0
  6  7  1  0  0  0
  7  8  2  0  0  0
  8  9  1  0  0  0
  9 15  1  0  0  0
 15 16  1  0  0  0
  9 10  2  0  0  0
 10 17  1  0  0  0
 17 18  1  0  0  0
 10 11  1  0  0  0
 11 12  2  0  0  0
 11 13  1  0  0  0
  6  1  2  0  0  0
 13  7  1  0  0  0
 31 25  1  0  0  0
 19 22  1  0  0  0
 13 14  1  0  0  0
M  END
> <minimizedAffinity>
-8.52729

$$$$
