


 31 34  0  0  0  0  0  0  0  0999 V2000
   -1.5275   63.2881   83.4606 C   0  0  0  0  0  0  0  0  0  0  0  0
   -2.1532   60.2298   78.2800 C   0  0  0  0  0  0  0  0  0  0  0  0
   -2.4207   60.3382   79.7014 N   0  0  0  0  0  0  0  0  0  0  0  0
   -3.1752   59.3724   80.3570 C   0  0  0  0  0  0  0  0  0  0  0  0
   -3.6539   58.3797   79.8093 O   0  0  0  0  0  0  0  0  0  0  0  0
   -3.3919   59.5556   81.7104 N   0  0  0  0  0  0  0  0  0  0  0  0
   -2.9354   60.5878   82.4974 C   0  0  0  0  0  0  0  0  0  0  0  0
   -3.1686   60.6468   83.6993 O   0  0  0  0  0  0  0  0  0  0  0  0
   -2.1714   61.5395   81.7660 C   0  0  0  0  0  0  0  0  0  0  0  0
   -1.9378   61.4075   80.4258 C   0  0  0  0  0  0  0  0  0  0  0  0
   -1.2080   62.4393   79.9318 N   0  0  0  0  0  0  0  0  0  0  0  0
   -0.9976   63.2184   80.9718 C   0  0  0  0  0  0  0  0  0  0  0  0
   -0.1740   64.7323   80.8643 S   0  0  0  0  0  0  0  0  0  0  0  0
   -1.5342   62.7029   82.1311 N   0  0  0  0  0  0  0  0  0  0  0  0
   -3.9386   58.8418   82.1662 H   0  0  0  0  0  0  0  0  0  0  0  0
    0.1246   64.6495   79.5604 H   0  0  0  0  0  0  0  0  0  0  0  0
   -0.3982   62.8192   84.3899 C   0  0  0  0  0  0  0  0  0  0  0  0
   -0.8615   61.7446   85.2182 O   0  0  0  0  0  0  0  0  0  0  0  0
   -0.1358   61.5436   85.8412 H   0  0  0  0  0  0  0  0  0  0  0  0
    0.2040   63.9141   85.2802 C   0  0  0  0  0  0  0  0  0  0  0  0
    0.4285   65.0995   84.5034 O   0  0  0  0  0  0  0  0  0  0  0  0
    1.6702   65.6720   84.5160 C   0  0  0  0  0  0  0  0  0  0  0  0
    1.7349   66.9121   83.8799 C   0  0  0  0  0  0  0  0  0  0  0  0
    2.9357   67.6222   83.8201 C   0  0  0  0  0  0  0  0  0  0  0  0
    4.1003   67.1005   84.3983 C   0  0  0  0  0  0  0  0  0  0  0  0
    5.3177   67.7985   84.3493 C   0  0  0  0  0  0  0  0  0  0  0  0
    6.4693   67.2645   84.9289 C   0  0  0  0  0  0  0  0  0  0  0  0
    6.4180   66.0270   85.5632 C   0  0  0  0  0  0  0  0  0  0  0  0
    5.2149   65.3214   85.6201 C   0  0  0  0  0  0  0  0  0  0  0  0
    4.0454   65.8441   85.0430 C   0  0  0  0  0  0  0  0  0  0  0  0
    2.8251   65.1426   85.0945 C   0  0  0  0  0  0  0  0  0  0  0  0
  2  3  1  0  0  0
  3  4  1  0  0  0
  4  5  2  0  0  0
  4  6  1  0  0  0
  6  7  1  0  0  0
  7  8  2  0  0  0
  7  9  1  0  0  0
  9 10  2  0  0  0
 10 11  1  0  0  0
 11 12  2  0  0  0
 12 13  1  0  0  0
 12 14  1  0  0  0
 14  1  1  0  0  0
  1 17  1  0  0  0
 17 18  1  0  0  0
 17 20  1  0  0  0
 20 21  1  0  0  0
 21 22  1  0  0  0
 22 23  1  0  0  0
 23 24  2  0  0  0
 24 25  1  0  0  0
 25 26  2  0  0  0
 26 27  1  0  0  0
 27 28  2  0  0  0
 28 29  1  0  0  0
 29 30  2  0  0  0
 30 31  1  0  0  0
 10  3  1  0  0  0
 31 22  2  0  0  0
 14  9  1  0  0  0
 30 25  1  0  0  0
  6 15  1  0  0  0
 13 16  1  0  0  0
 18 19  1  0  0  0
M  END
> <minimizedAffinity>
-10.37249

$$$$



 31 34  0  0  0  0  0  0  0  0999 V2000
    0.8407   63.7254   78.7044 C   0  0  0  0  0  0  0  0  0  0  0  0
   -4.2655   60.4889   78.8910 C   0  0  0  0  0  0  0  0  0  0  0  0
   -2.9644   60.7945   79.4544 N   0  0  0  0  0  0  0  0  0  0  0  0
   -2.5085   60.1315   80.5878 C   0  0  0  0  0  0  0  0  0  0  0  0
   -3.1426   59.2587   81.1800 O   0  0  0  0  0  0  0  0  0  0  0  0
   -1.2613   60.4891   81.0663 N   0  0  0  0  0  0  0  0  0  0  0  0
   -0.4028   61.4275   80.5417 C   0  0  0  0  0  0  0  0  0  0  0  0
    0.6962   61.6566   81.0338 O   0  0  0  0  0  0  0  0  0  0  0  0
   -0.9291   62.0676   79.3851 C   0  0  0  0  0  0  0  0  0  0  0  0
   -2.1601   61.7559   78.8795 C   0  0  0  0  0  0  0  0  0  0  0  0
   -2.4677   62.5035   77.7897 N   0  0  0  0  0  0  0  0  0  0  0  0
   -1.4237   63.2887   77.6268 C   0  0  0  0  0  0  0  0  0  0  0  0
   -1.3429   64.5086   76.4072 S   0  0  0  0  0  0  0  0  0  0  0  0
   -0.4336   63.0447   78.5529 N   0  0  0  0  0  0  0  0  0  0  0  0
   -0.9493   59.9935   81.8868 H   0  0  0  0  0  0  0  0  0  0  0  0
   -2.5230   64.2298   75.8364 H   0  0  0  0  0  0  0  0  0  0  0  0
    0.7623   65.2066   79.1027 C   0  0  0  0  0  0  0  0  0  0  0  0
    1.7389   65.9612   78.3730 O   0  0  0  0  0  0  0  0  0  0  0  0
    1.7017   66.8727   78.7235 H   0  0  0  0  0  0  0  0  0  0  0  0
    0.9332   65.4836   80.6021 C   0  0  0  0  0  0  0  0  0  0  0  0
   -0.1810   64.9394   81.3242 O   0  0  0  0  0  0  0  0  0  0  0  0
   -0.0449   64.6950   82.6626 C   0  0  0  0  0  0  0  0  0  0  0  0
    0.8406   65.5541   83.3140 C   0  0  0  0  0  0  0  0  0  0  0  0
    1.0757   65.4321   84.6849 C   0  0  0  0  0  0  0  0  0  0  0  0
    0.4257   64.4416   85.4328 C   0  0  0  0  0  0  0  0  0  0  0  0
    0.6481   64.3021   86.8123 C   0  0  0  0  0  0  0  0  0  0  0  0
   -0.0062   63.3093   87.5428 C   0  0  0  0  0  0  0  0  0  0  0  0
   -0.8891   62.4444   86.9037 C   0  0  0  0  0  0  0  0  0  0  0  0
   -1.1204   62.5708   85.5328 C   0  0  0  0  0  0  0  0  0  0  0  0
   -0.4715   63.5651   84.7816 C   0  0  0  0  0  0  0  0  0  0  0  0
   -0.6970   63.7038   83.3983 C   0  0  0  0  0  0  0  0  0  0  0  0
  2  3  1  0  0  0
  3  4  1  0  0  0
  4  5  2  0  0  0
  4  6  1  0  0  0
  6  7  1  0  0  0
  7  8  2  0  0  0
  7  9  1  0  0  0
  9 10  2  0  0  0
 10 11  1  0  0  0
 11 12  2  0  0  0
 12 13  1  0  0  0
 12 14  1  0  0  0
 14  1  1  0  0  0
  1 17  1  0  0  0
 17 18  1  0  0  0
 17 20  1  0  0  0
 20 21  1  0  0  0
 21 22  1  0  0  0
 22 23  1  0  0  0
 23 24  2  0  0  0
 24 25  1  0  0  0
 25 26  2  0  0  0
 26 27  1  0  0  0
 27 28  2  0  0  0
 28 29  1  0  0  0
 29 30  2  0  0  0
 30 31  1  0  0  0
 10  3  1  0  0  0
 31 22  2  0  0  0
 14  9  1  0  0  0
 30 25  1  0  0  0
  6 15  1  0  0  0
 13 16  1  0  0  0
 18 19  1  0  0  0
M  END
> <minimizedAffinity>
-9.84421

$$$$



 31 34  0  0  0  0  0  0  0  0999 V2000
    0.3558   63.5651   79.7136 C   0  0  0  0  0  0  0  0  0  0  0  0
   -3.8833   60.0088   77.2711 C   0  0  0  0  0  0  0  0  0  0  0  0
   -2.9915   60.3034   78.3763 N   0  0  0  0  0  0  0  0  0  0  0  0
   -2.9710   59.4945   79.5064 C   0  0  0  0  0  0  0  0  0  0  0  0
   -3.6744   58.4956   79.6543 O   0  0  0  0  0  0  0  0  0  0  0  0
   -2.0988   59.8505   80.5187 N   0  0  0  0  0  0  0  0  0  0  0  0
   -1.2307   60.9179   80.5366 C   0  0  0  0  0  0  0  0  0  0  0  0
   -0.4805   61.1354   81.4812 O   0  0  0  0  0  0  0  0  0  0  0  0
   -1.3018   61.7034   79.3524 C   0  0  0  0  0  0  0  0  0  0  0  0
   -2.1541   61.3979   78.3285 C   0  0  0  0  0  0  0  0  0  0  0  0
   -2.0709   62.2929   77.3120 N   0  0  0  0  0  0  0  0  0  0  0  0
   -1.1680   63.1621   77.7148 C   0  0  0  0  0  0  0  0  0  0  0  0
   -0.7436   64.5691   76.8081 S   0  0  0  0  0  0  0  0  0  0  0  0
   -0.6357   62.8353   78.9425 N   0  0  0  0  0  0  0  0  0  0  0  0
   -2.0980   59.2483   81.3271 H   0  0  0  0  0  0  0  0  0  0  0  0
   -1.5271   64.3102   75.7521 H   0  0  0  0  0  0  0  0  0  0  0  0
   -0.1478   64.8351   80.4152 C   0  0  0  0  0  0  0  0  0  0  0  0
    0.9397   65.7483   80.6124 O   0  0  0  0  0  0  0  0  0  0  0  0
    0.5825   66.4949   81.1322 H   0  0  0  0  0  0  0  0  0  0  0  0
   -0.8517   64.5971   81.7577 C   0  0  0  0  0  0  0  0  0  0  0  0
    0.0611   64.8548   82.8343 O   0  0  0  0  0  0  0  0  0  0  0  0
   -0.1179   64.2023   84.0225 C   0  0  0  0  0  0  0  0  0  0  0  0
   -1.0952   63.2072   83.9872 C   0  0  0  0  0  0  0  0  0  0  0  0
   -1.3836   62.4489   85.1236 C   0  0  0  0  0  0  0  0  0  0  0  0
   -0.6958   62.6748   86.3231 C   0  0  0  0  0  0  0  0  0  0  0  0
   -0.9706   61.9233   87.4770 C   0  0  0  0  0  0  0  0  0  0  0  0
   -0.2775   62.1617   88.6645 C   0  0  0  0  0  0  0  0  0  0  0  0
    0.6971   63.1537   88.7130 C   0  0  0  0  0  0  0  0  0  0  0  0
    0.9813   63.9089   87.5739 C   0  0  0  0  0  0  0  0  0  0  0  0
    0.2944   63.6821   86.3695 C   0  0  0  0  0  0  0  0  0  0  0  0
    0.5726   64.4363   85.2130 C   0  0  0  0  0  0  0  0  0  0  0  0
  2  3  1  0  0  0
  3  4  1  0  0  0
  4  5  2  0  0  0
  4  6  1  0  0  0
  6  7  1  0  0  0
  7  8  2  0  0  0
  7  9  1  0  0  0
  9 10  2  0  0  0
 10 11  1  0  0  0
 11 12  2  0  0  0
 12 13  1  0  0  0
 12 14  1  0  0  0
 14  1  1  0  0  0
  1 17  1  0  0  0
 17 18  1  0  0  0
 17 20  1  0  0  0
 20 21  1  0  0  0
 21 22  1  0  0  0
 22 23  1  0  0  0
 23 24  2  0  0  0
 24 25  1  0  0  0
 25 26  2  0  0  0
 26 27  1  0  0  0
 27 28  2  0  0  0
 28 29  1  0  0  0
 29 30  2  0  0  0
 30 31  1  0  0  0
 10  3  1  0  0  0
 31 22  2  0  0  0
 14  9  1  0  0  0
 30 25  1  0  0  0
  6 15  1  0  0  0
 13 16  1  0  0  0
 18 19  1  0  0  0
M  END
> <minimizedAffinity>
-9.78149

$$$$



 31 34  0  0  0  0  0  0  0  0999 V2000
   -1.1354   63.3198   82.5766 C   0  0  0  0  0  0  0  0  0  0  0  0
   -2.6574   59.9233   77.8090 C   0  0  0  0  0  0  0  0  0  0  0  0
   -2.6918   60.1432   79.2422 N   0  0  0  0  0  0  0  0  0  0  0  0
   -3.3565   59.2558   80.0805 C   0  0  0  0  0  0  0  0  0  0  0  0
   -3.9416   58.2450   79.6926 O   0  0  0  0  0  0  0  0  0  0  0  0
   -3.3497   59.5436   81.4330 N   0  0  0  0  0  0  0  0  0  0  0  0
   -2.7473   60.6118   82.0569 C   0  0  0  0  0  0  0  0  0  0  0  0
   -2.7842   60.7655   83.2723 O   0  0  0  0  0  0  0  0  0  0  0  0
   -2.0858   61.4794   81.1436 C   0  0  0  0  0  0  0  0  0  0  0  0
   -2.0724   61.2430   79.7975 C   0  0  0  0  0  0  0  0  0  0  0  0
   -1.4047   62.2087   79.1172 N   0  0  0  0  0  0  0  0  0  0  0  0
   -1.0113   63.0520   80.0483 C   0  0  0  0  0  0  0  0  0  0  0  0
   -0.1770   64.5224   79.6968 S   0  0  0  0  0  0  0  0  0  0  0  0
   -1.3690   62.6414   81.3136 N   0  0  0  0  0  0  0  0  0  0  0  0
   -3.8347   58.8853   82.0225 H   0  0  0  0  0  0  0  0  0  0  0  0
   -0.0925   64.3352   78.3724 H   0  0  0  0  0  0  0  0  0  0  0  0
    0.1379   62.9069   83.3298 C   0  0  0  0  0  0  0  0  0  0  0  0
   -0.1873   61.9629   84.3586 O   0  0  0  0  0  0  0  0  0  0  0  0
    0.6386   61.8001   84.8551 H   0  0  0  0  0  0  0  0  0  0  0  0
    0.9299   64.0672   83.9468 C   0  0  0  0  0  0  0  0  0  0  0  0
    0.3086   65.3138   83.6019 O   0  0  0  0  0  0  0  0  0  0  0  0
    1.1001   66.3686   83.2406 C   0  0  0  0  0  0  0  0  0  0  0  0
    1.9324   66.8345   84.2588 C   0  0  0  0  0  0  0  0  0  0  0  0
    2.8044   67.9020   84.0360 C   0  0  0  0  0  0  0  0  0  0  0  0
    2.8589   68.5266   82.7831 C   0  0  0  0  0  0  0  0  0  0  0  0
    3.7288   69.6014   82.5383 C   0  0  0  0  0  0  0  0  0  0  0  0
    3.7700   70.2138   81.2851 C   0  0  0  0  0  0  0  0  0  0  0  0
    2.9424   69.7601   80.2626 C   0  0  0  0  0  0  0  0  0  0  0  0
    2.0724   68.6925   80.4909 C   0  0  0  0  0  0  0  0  0  0  0  0
    2.0182   68.0633   81.7459 C   0  0  0  0  0  0  0  0  0  0  0  0
    1.1457   66.9846   81.9887 C   0  0  0  0  0  0  0  0  0  0  0  0
  2  3  1  0  0  0
  3  4  1  0  0  0
  4  5  2  0  0  0
  4  6  1  0  0  0
  6  7  1  0  0  0
  7  8  2  0  0  0
  7  9  1  0  0  0
  9 10  2  0  0  0
 10 11  1  0  0  0
 11 12  2  0  0  0
 12 13  1  0  0  0
 12 14  1  0  0  0
 14  1  1  0  0  0
  1 17  1  0  0  0
 17 18  1  0  0  0
 17 20  1  0  0  0
 20 21  1  0  0  0
 21 22  1  0  0  0
 22 23  1  0  0  0
 23 24  2  0  0  0
 24 25  1  0  0  0
 25 26  2  0  0  0
 26 27  1  0  0  0
 27 28  2  0  0  0
 28 29  1  0  0  0
 29 30  2  0  0  0
 30 31  1  0  0  0
 10  3  1  0  0  0
 31 22  2  0  0  0
 14  9  1  0  0  0
 30 25  1  0  0  0
  6 15  1  0  0  0
 13 16  1  0  0  0
 18 19  1  0  0  0
M  END
> <minimizedAffinity>
-9.58374

$$$$



 31 34  0  0  0  0  0  0  0  0999 V2000
   -0.5642   60.9201   78.8933 C   0  0  0  0  0  0  0  0  0  0  0  0
   -2.6705   62.4474   84.3535 C   0  0  0  0  0  0  0  0  0  0  0  0
   -1.5507   62.0708   83.5121 N   0  0  0  0  0  0  0  0  0  0  0  0
   -0.2685   61.9724   84.0397 C   0  0  0  0  0  0  0  0  0  0  0  0
    0.0112   62.1808   85.2198 O   0  0  0  0  0  0  0  0  0  0  0  0
    0.7444   61.6171   83.1679 N   0  0  0  0  0  0  0  0  0  0  0  0
    0.6313   61.3360   81.8258 C   0  0  0  0  0  0  0  0  0  0  0  0
    1.5948   61.0094   81.1422 O   0  0  0  0  0  0  0  0  0  0  0  0
   -0.7045   61.4548   81.3506 C   0  0  0  0  0  0  0  0  0  0  0  0
   -1.7379   61.8123   82.1707 C   0  0  0  0  0  0  0  0  0  0  0  0
   -2.9167   61.8858   81.5026 N   0  0  0  0  0  0  0  0  0  0  0  0
   -2.6076   61.5810   80.2598 C   0  0  0  0  0  0  0  0  0  0  0  0
   -3.7545   61.6093   78.9691 S   0  0  0  0  0  0  0  0  0  0  0  0
   -1.2732   61.2736   80.1109 N   0  0  0  0  0  0  0  0  0  0  0  0
    1.6652   61.5485   83.5723 H   0  0  0  0  0  0  0  0  0  0  0  0
   -4.8199   61.9197   79.7206 H   0  0  0  0  0  0  0  0  0  0  0  0
   -0.3480   62.0640   77.8916 C   0  0  0  0  0  0  0  0  0  0  0  0
    0.0827   61.5346   76.6307 O   0  0  0  0  0  0  0  0  0  0  0  0
    0.2838   62.3039   76.0625 H   0  0  0  0  0  0  0  0  0  0  0  0
    0.6427   63.1439   78.3462 C   0  0  0  0  0  0  0  0  0  0  0  0
   -0.0760   64.2648   78.8810 O   0  0  0  0  0  0  0  0  0  0  0  0
    0.4883   64.9884   79.8946 C   0  0  0  0  0  0  0  0  0  0  0  0
    1.3288   66.0159   79.4651 C   0  0  0  0  0  0  0  0  0  0  0  0
    1.9700   66.8463   80.3864 C   0  0  0  0  0  0  0  0  0  0  0  0
    1.7812   66.6617   81.7623 C   0  0  0  0  0  0  0  0  0  0  0  0
    2.4165   67.4858   82.7052 C   0  0  0  0  0  0  0  0  0  0  0  0
    2.2192   67.2880   84.0724 C   0  0  0  0  0  0  0  0  0  0  0  0
    1.3859   66.2645   84.5132 C   0  0  0  0  0  0  0  0  0  0  0  0
    0.7474   65.4371   83.5877 C   0  0  0  0  0  0  0  0  0  0  0  0
    0.9335   65.6223   82.2074 C   0  0  0  0  0  0  0  0  0  0  0  0
    0.2942   64.7952   81.2635 C   0  0  0  0  0  0  0  0  0  0  0  0
  2  3  1  0  0  0
  3  4  1  0  0  0
  4  5  2  0  0  0
  4  6  1  0  0  0
  6  7  1  0  0  0
  7  8  2  0  0  0
  7  9  1  0  0  0
  9 10  2  0  0  0
 10 11  1  0  0  0
 11 12  2  0  0  0
 12 13  1  0  0  0
 12 14  1  0  0  0
 14  1  1  0  0  0
  1 17  1  0  0  0
 17 18  1  0  0  0
 17 20  1  0  0  0
 20 21  1  0  0  0
 21 22  1  0  0  0
 22 23  1  0  0  0
 23 24  2  0  0  0
 24 25  1  0  0  0
 25 26  2  0  0  0
 26 27  1  0  0  0
 27 28  2  0  0  0
 28 29  1  0  0  0
 29 30  2  0  0  0
 30 31  1  0  0  0
 10  3  1  0  0  0
 31 22  2  0  0  0
 14  9  1  0  0  0
 30 25  1  0  0  0
  6 15  1  0  0  0
 13 16  1  0  0  0
 18 19  1  0  0  0
M  END
> <minimizedAffinity>
-9.57841

$$$$



 31 34  0  0  0  0  0  0  0  0999 V2000
   -1.4594   63.3427   83.2714 C   0  0  0  0  0  0  0  0  0  0  0  0
   -2.2229   60.1018   78.2219 C   0  0  0  0  0  0  0  0  0  0  0  0
   -2.4518   60.2608   79.6453 N   0  0  0  0  0  0  0  0  0  0  0  0
   -3.1874   59.3191   80.3552 C   0  0  0  0  0  0  0  0  0  0  0  0
   -3.6799   58.3076   79.8563 O   0  0  0  0  0  0  0  0  0  0  0  0
   -3.3674   59.5504   81.7066 N   0  0  0  0  0  0  0  0  0  0  0  0
   -2.8906   60.6099   82.4436 C   0  0  0  0  0  0  0  0  0  0  0  0
   -3.0912   60.7117   83.6485 O   0  0  0  0  0  0  0  0  0  0  0  0
   -2.1476   61.5349   81.6583 C   0  0  0  0  0  0  0  0  0  0  0  0
   -1.9503   61.3552   80.3178 C   0  0  0  0  0  0  0  0  0  0  0  0
   -1.2351   62.3687   79.7677 N   0  0  0  0  0  0  0  0  0  0  0  0
   -0.9972   63.1843   80.7732 C   0  0  0  0  0  0  0  0  0  0  0  0
   -0.1780   64.6933   80.5895 S   0  0  0  0  0  0  0  0  0  0  0  0
   -1.5016   62.7105   81.9642 N   0  0  0  0  0  0  0  0  0  0  0  0
   -3.9010   58.8534   82.2022 H   0  0  0  0  0  0  0  0  0  0  0  0
    0.0851   64.5641   79.2818 H   0  0  0  0  0  0  0  0  0  0  0  0
   -0.2037   63.0590   84.1090 C   0  0  0  0  0  0  0  0  0  0  0  0
   -0.3615   61.8263   84.8241 O   0  0  0  0  0  0  0  0  0  0  0  0
    0.4237   61.7384   85.3992 H   0  0  0  0  0  0  0  0  0  0  0  0
    0.1778   64.1672   85.0993 C   0  0  0  0  0  0  0  0  0  0  0  0
    1.5922   64.4016   85.0408 O   0  0  0  0  0  0  0  0  0  0  0  0
    2.0465   65.5632   84.4805 C   0  0  0  0  0  0  0  0  0  0  0  0
    3.3145   65.9504   84.9150 C   0  0  0  0  0  0  0  0  0  0  0  0
    3.9139   67.1118   84.4237 C   0  0  0  0  0  0  0  0  0  0  0  0
    3.2510   67.9118   83.4839 C   0  0  0  0  0  0  0  0  0  0  0  0
    3.8363   69.0834   82.9773 C   0  0  0  0  0  0  0  0  0  0  0  0
    3.1621   69.8702   82.0425 C   0  0  0  0  0  0  0  0  0  0  0  0
    1.8956   69.4961   81.6040 C   0  0  0  0  0  0  0  0  0  0  0  0
    1.3009   68.3340   82.0986 C   0  0  0  0  0  0  0  0  0  0  0  0
    1.9653   67.5291   83.0392 C   0  0  0  0  0  0  0  0  0  0  0  0
    1.3767   66.3538   83.5450 C   0  0  0  0  0  0  0  0  0  0  0  0
  2  3  1  0  0  0
  3  4  1  0  0  0
  4  5  2  0  0  0
  4  6  1  0  0  0
  6  7  1  0  0  0
  7  8  2  0  0  0
  7  9  1  0  0  0
  9 10  2  0  0  0
 10 11  1  0  0  0
 11 12  2  0  0  0
 12 13  1  0  0  0
 12 14  1  0  0  0
 14  1  1  0  0  0
  1 17  1  0  0  0
 17 18  1  0  0  0
 17 20  1  0  0  0
 20 21  1  0  0  0
 21 22  1  0  0  0
 22 23  1  0  0  0
 23 24  2  0  0  0
 24 25  1  0  0  0
 25 26  2  0  0  0
 26 27  1  0  0  0
 27 28  2  0  0  0
 28 29  1  0  0  0
 29 30  2  0  0  0
 30 31  1  0  0  0
 10  3  1  0  0  0
 31 22  2  0  0  0
 14  9  1  0  0  0
 30 25  1  0  0  0
  6 15  1  0  0  0
 13 16  1  0  0  0
 18 19  1  0  0  0
M  END
> <minimizedAffinity>
-9.55064

$$$$



 31 34  0  0  0  0  0  0  0  0999 V2000
    0.5104   69.5707   81.6575 C   0  0  0  0  0  0  0  0  0  0  0  0
    2.9116   74.8853   83.2614 C   0  0  0  0  0  0  0  0  0  0  0  0
    1.7888   74.1365   82.7302 N   0  0  0  0  0  0  0  0  0  0  0  0
    0.6112   74.7822   82.3720 C   0  0  0  0  0  0  0  0  0  0  0  0
    0.4328   75.9963   82.4649 O   0  0  0  0  0  0  0  0  0  0  0  0
   -0.4143   73.9939   81.8829 N   0  0  0  0  0  0  0  0  0  0  0  0
   -0.4042   72.6307   81.6966 C   0  0  0  0  0  0  0  0  0  0  0  0
   -1.3654   72.0263   81.2350 O   0  0  0  0  0  0  0  0  0  0  0  0
    0.8281   72.0330   82.0819 C   0  0  0  0  0  0  0  0  0  0  0  0
    1.8674   72.7681   82.5795 C   0  0  0  0  0  0  0  0  0  0  0  0
    2.9326   71.9916   82.9015 N   0  0  0  0  0  0  0  0  0  0  0  0
    2.5451   70.7678   82.6097 C   0  0  0  0  0  0  0  0  0  0  0  0
    3.5175   69.3735   82.9135 S   0  0  0  0  0  0  0  0  0  0  0  0
    1.2776   70.7327   82.0716 N   0  0  0  0  0  0  0  0  0  0  0  0
   -1.2575   74.4831   81.6264 H   0  0  0  0  0  0  0  0  0  0  0  0
    4.5887   70.0339   83.3743 H   0  0  0  0  0  0  0  0  0  0  0  0
    0.8095   69.0424   80.2468 C   0  0  0  0  0  0  0  0  0  0  0  0
   -0.4081   68.9329   79.4977 O   0  0  0  0  0  0  0  0  0  0  0  0
   -0.1714   68.5172   78.6454 H   0  0  0  0  0  0  0  0  0  0  0  0
    1.5478   67.6981   80.2020 C   0  0  0  0  0  0  0  0  0  0  0  0
    0.5968   66.6270   80.1175 O   0  0  0  0  0  0  0  0  0  0  0  0
    0.3503   65.8733   81.2314 C   0  0  0  0  0  0  0  0  0  0  0  0
   -0.5504   64.8276   81.0269 C   0  0  0  0  0  0  0  0  0  0  0  0
   -0.8936   63.9662   82.0709 C   0  0  0  0  0  0  0  0  0  0  0  0
   -0.3389   64.1373   83.3459 C   0  0  0  0  0  0  0  0  0  0  0  0
   -0.6706   63.2821   84.4092 C   0  0  0  0  0  0  0  0  0  0  0  0
   -0.1104   63.4668   85.6738 C   0  0  0  0  0  0  0  0  0  0  0  0
    0.7867   64.5082   85.8909 C   0  0  0  0  0  0  0  0  0  0  0  0
    1.1261   65.3665   84.8437 C   0  0  0  0  0  0  0  0  0  0  0  0
    0.5728   65.1949   83.5637 C   0  0  0  0  0  0  0  0  0  0  0  0
    0.9080   66.0533   82.4985 C   0  0  0  0  0  0  0  0  0  0  0  0
  2  3  1  0  0  0
  3  4  1  0  0  0
  4  5  2  0  0  0
  4  6  1  0  0  0
  6  7  1  0  0  0
  7  8  2  0  0  0
  7  9  1  0  0  0
  9 10  2  0  0  0
 10 11  1  0  0  0
 11 12  2  0  0  0
 12 13  1  0  0  0
 12 14  1  0  0  0
 14  1  1  0  0  0
  1 17  1  0  0  0
 17 18  1  0  0  0
 17 20  1  0  0  0
 20 21  1  0  0  0
 21 22  1  0  0  0
 22 23  1  0  0  0
 23 24  2  0  0  0
 24 25  1  0  0  0
 25 26  2  0  0  0
 26 27  1  0  0  0
 27 28  2  0  0  0
 28 29  1  0  0  0
 29 30  2  0  0  0
 30 31  1  0  0  0
 10  3  1  0  0  0
 31 22  2  0  0  0
 14  9  1  0  0  0
 30 25  1  0  0  0
  6 15  1  0  0  0
 13 16  1  0  0  0
 18 19  1  0  0  0
M  END
> <minimizedAffinity>
-9.26708

$$$$



 31 34  0  0  0  0  0  0  0  0999 V2000
    0.2621   63.9883   79.8744 C   0  0  0  0  0  0  0  0  0  0  0  0
   -3.2914   59.1028   79.5777 C   0  0  0  0  0  0  0  0  0  0  0  0
   -2.2803   59.9453   78.9681 N   0  0  0  0  0  0  0  0  0  0  0  0
   -1.7483   59.6279   77.7238 C   0  0  0  0  0  0  0  0  0  0  0  0
   -2.0834   58.6484   77.0582 O   0  0  0  0  0  0  0  0  0  0  0  0
   -0.7821   60.4779   77.2178 N   0  0  0  0  0  0  0  0  0  0  0  0
   -0.2855   61.6203   77.8021 C   0  0  0  0  0  0  0  0  0  0  0  0
    0.5618   62.3187   77.2573 O   0  0  0  0  0  0  0  0  0  0  0  0
   -0.8710   61.8872   79.0710 C   0  0  0  0  0  0  0  0  0  0  0  0
   -1.8224   61.0722   79.6176 C   0  0  0  0  0  0  0  0  0  0  0  0
   -2.2223   61.5043   80.8401 N   0  0  0  0  0  0  0  0  0  0  0  0
   -1.5064   62.5881   81.0541 C   0  0  0  0  0  0  0  0  0  0  0  0
   -1.5757   63.4882   82.5261 S   0  0  0  0  0  0  0  0  0  0  0  0
   -0.6849   62.8930   79.9912 N   0  0  0  0  0  0  0  0  0  0  0  0
   -0.4126   60.2306   76.3131 H   0  0  0  0  0  0  0  0  0  0  0  0
   -2.5360   62.7552   83.1063 H   0  0  0  0  0  0  0  0  0  0  0  0
   -0.1915   65.1724   79.0078 C   0  0  0  0  0  0  0  0  0  0  0  0
    0.6559   65.2888   77.8572 O   0  0  0  0  0  0  0  0  0  0  0  0
    0.3768   66.1004   77.3898 H   0  0  0  0  0  0  0  0  0  0  0  0
   -0.2403   66.5238   79.7328 C   0  0  0  0  0  0  0  0  0  0  0  0
   -0.2554   66.3108   81.1517 O   0  0  0  0  0  0  0  0  0  0  0  0
    0.8164   66.7244   81.8931 C   0  0  0  0  0  0  0  0  0  0  0  0
    1.2624   68.0103   81.5863 C   0  0  0  0  0  0  0  0  0  0  0  0
    2.3439   68.5725   82.2673 C   0  0  0  0  0  0  0  0  0  0  0  0
    3.0030   67.8534   83.2730 C   0  0  0  0  0  0  0  0  0  0  0  0
    4.0924   68.4006   83.9699 C   0  0  0  0  0  0  0  0  0  0  0  0
    4.7391   67.6707   84.9680 C   0  0  0  0  0  0  0  0  0  0  0  0
    4.3055   66.3860   85.2808 C   0  0  0  0  0  0  0  0  0  0  0  0
    3.2238   65.8287   84.5966 C   0  0  0  0  0  0  0  0  0  0  0  0
    2.5600   66.5493   83.5896 C   0  0  0  0  0  0  0  0  0  0  0  0
    1.4668   65.9988   82.8928 C   0  0  0  0  0  0  0  0  0  0  0  0
  2  3  1  0  0  0
  3  4  1  0  0  0
  4  5  2  0  0  0
  4  6  1  0  0  0
  6  7  1  0  0  0
  7  8  2  0  0  0
  7  9  1  0  0  0
  9 10  2  0  0  0
 10 11  1  0  0  0
 11 12  2  0  0  0
 12 13  1  0  0  0
 12 14  1  0  0  0
 14  1  1  0  0  0
  1 17  1  0  0  0
 17 18  1  0  0  0
 17 20  1  0  0  0
 20 21  1  0  0  0
 21 22  1  0  0  0
 22 23  1  0  0  0
 23 24  2  0  0  0
 24 25  1  0  0  0
 25 26  2  0  0  0
 26 27  1  0  0  0
 27 28  2  0  0  0
 28 29  1  0  0  0
 29 30  2  0  0  0
 30 31  1  0  0  0
 10  3  1  0  0  0
 31 22  2  0  0  0
 14  9  1  0  0  0
 30 25  1  0  0  0
  6 15  1  0  0  0
 13 16  1  0  0  0
 18 19  1  0  0  0
M  END
> <minimizedAffinity>
-9.22430

$$$$



 31 34  0  0  0  0  0  0  0  0999 V2000
   -1.1897   63.8970   82.1577 C   0  0  0  0  0  0  0  0  0  0  0  0
   -0.6140   61.7049   87.7654 C   0  0  0  0  0  0  0  0  0  0  0  0
   -0.2909   62.7285   86.7899 N   0  0  0  0  0  0  0  0  0  0  0  0
    0.5199   63.8043   87.1325 C   0  0  0  0  0  0  0  0  0  0  0  0
    1.0179   63.9675   88.2460 O   0  0  0  0  0  0  0  0  0  0  0  0
    0.7714   64.7409   86.1467 N   0  0  0  0  0  0  0  0  0  0  0  0
    0.3173   64.7294   84.8479 C   0  0  0  0  0  0  0  0  0  0  0  0
    0.6164   65.6035   84.0424 O   0  0  0  0  0  0  0  0  0  0  0  0
   -0.5051   63.6037   84.5637 C   0  0  0  0  0  0  0  0  0  0  0  0
   -0.7905   62.6564   85.5067 C   0  0  0  0  0  0  0  0  0  0  0  0
   -1.6090   61.6876   85.0243 N   0  0  0  0  0  0  0  0  0  0  0  0
   -1.8383   62.0440   83.7780 C   0  0  0  0  0  0  0  0  0  0  0  0
   -2.9036   61.1779   82.7306 S   0  0  0  0  0  0  0  0  0  0  0  0
   -1.1617   63.1914   83.4271 N   0  0  0  0  0  0  0  0  0  0  0  0
    1.3641   65.5106   86.4159 H   0  0  0  0  0  0  0  0  0  0  0  0
   -3.1960   60.1942   83.5925 H   0  0  0  0  0  0  0  0  0  0  0  0
   -0.5158   63.1775   80.9799 C   0  0  0  0  0  0  0  0  0  0  0  0
    0.7754   62.6961   81.3757 O   0  0  0  0  0  0  0  0  0  0  0  0
    1.1895   62.3243   80.5723 H   0  0  0  0  0  0  0  0  0  0  0  0
   -0.3674   64.0200   79.7061 C   0  0  0  0  0  0  0  0  0  0  0  0
    0.8600   64.7613   79.7572 O   0  0  0  0  0  0  0  0  0  0  0  0
    0.8385   66.0425   80.2344 C   0  0  0  0  0  0  0  0  0  0  0  0
   -0.2864   66.7755   79.8550 C   0  0  0  0  0  0  0  0  0  0  0  0
   -0.4522   68.0971   80.2738 C   0  0  0  0  0  0  0  0  0  0  0  0
    0.5108   68.7128   81.0840 C   0  0  0  0  0  0  0  0  0  0  0  0
    0.3630   70.0407   81.5162 C   0  0  0  0  0  0  0  0  0  0  0  0
    1.3321   70.6400   82.3217 C   0  0  0  0  0  0  0  0  0  0  0  0
    2.4599   69.9202   82.7041 C   0  0  0  0  0  0  0  0  0  0  0  0
    2.6207   68.5992   82.2823 C   0  0  0  0  0  0  0  0  0  0  0  0
    1.6548   67.9793   81.4719 C   0  0  0  0  0  0  0  0  0  0  0  0
    1.8046   66.6469   81.0407 C   0  0  0  0  0  0  0  0  0  0  0  0
  2  3  1  0  0  0
  3  4  1  0  0  0
  4  5  2  0  0  0
  4  6  1  0  0  0
  6  7  1  0  0  0
  7  8  2  0  0  0
  7  9  1  0  0  0
  9 10  2  0  0  0
 10 11  1  0  0  0
 11 12  2  0  0  0
 12 13  1  0  0  0
 12 14  1  0  0  0
 14  1  1  0  0  0
  1 17  1  0  0  0
 17 18  1  0  0  0
 17 20  1  0  0  0
 20 21  1  0  0  0
 21 22  1  0  0  0
 22 23  1  0  0  0
 23 24  2  0  0  0
 24 25  1  0  0  0
 25 26  2  0  0  0
 26 27  1  0  0  0
 27 28  2  0  0  0
 28 29  1  0  0  0
 29 30  2  0  0  0
 30 31  1  0  0  0
 10  3  1  0  0  0
 31 22  2  0  0  0
 14  9  1  0  0  0
 30 25  1  0  0  0
  6 15  1  0  0  0
 13 16  1  0  0  0
 18 19  1  0  0  0
M  END
> <minimizedAffinity>
-9.21882

$$$$
