


 42 46  0  0  0  0  0  0  0  0999 V2000
   -0.1394   63.5564   84.8285 C   0  0  0  0  0  0  0  0  0  0  0  0
    0.5608   64.4780   85.6198 C   0  0  0  0  0  0  0  0  0  0  0  0
    1.3575   65.4672   85.0363 C   0  0  0  0  0  0  0  0  0  0  0  0
    1.4725   65.5591   83.6489 C   0  0  0  0  0  0  0  0  0  0  0  0
    0.7707   64.6438   82.8539 C   0  0  0  0  0  0  0  0  0  0  0  0
   -0.0426   63.6430   83.4226 C   0  0  0  0  0  0  0  0  0  0  0  0
   -0.7564   62.7242   82.4624 C   0  0  0  0  0  0  0  0  0  0  0  0
   -0.6771   62.9430   81.1763 N   0  0  0  0  0  0  0  0  0  0  0  0
   -1.3825   62.0271   80.3952 C   0  0  0  0  0  0  0  0  0  0  0  0
   -1.5202   61.9510   78.9995 C   0  0  0  0  0  0  0  0  0  0  0  0
   -2.2916   60.9016   78.6556 N   0  0  0  0  0  0  0  0  0  0  0  0
   -2.6274   60.3378   79.8431 N   0  0  0  0  0  0  0  0  0  0  0  0
   -3.4575   59.1582   79.8715 C   0  0  0  0  0  0  0  0  0  0  0  0
   -2.0970   60.9894   80.9115 C   0  0  0  0  0  0  0  0  0  0  0  0
   -2.1875   60.7403   82.3017 C   0  0  0  0  0  0  0  0  0  0  0  0
   -2.8028   59.8208   82.8284 O   0  0  0  0  0  0  0  0  0  0  0  0
   -1.4819   61.6763   83.0214 N   0  0  0  0  0  0  0  0  0  0  0  0
   -1.4881   61.5551   84.0256 H   0  0  0  0  0  0  0  0  0  0  0  0
   -0.9395   62.8467   77.9630 C   0  0  0  0  0  0  0  0  0  0  0  0
    0.5796   62.7767   77.9251 C   0  0  0  0  0  0  0  0  0  0  0  0
   -0.9372   62.5718   85.3564 O   0  0  0  0  0  0  0  0  0  0  0  0
   -2.7657   62.9391   86.8369 C   0  0  0  0  0  0  0  0  0  0  0  0
   -1.2775   62.6511   86.7427 C   0  0  0  0  0  0  0  0  0  0  0  0
    2.3244   66.6330   83.0148 C   0  0  0  0  0  0  0  0  0  0  0  0
    1.5789   67.9651   82.8065 C   0  0  0  0  0  0  0  0  0  0  0  0
    0.9340   68.0568   81.4129 C   0  0  0  0  0  0  0  0  0  0  0  0
    0.2694   69.4165   81.1941 C   0  0  0  0  0  0  0  0  0  0  0  0
    1.2518   70.4899   81.4040 N   0  0  0  0  0  0  0  0  0  0  0  0
    1.8593   70.4862   82.7464 C   0  0  0  0  0  0  0  0  0  0  0  0
    2.5476   69.1439   82.9967 C   0  0  0  0  0  0  0  0  0  0  0  0
    0.9062   71.7776   80.9589 C   0  0  0  0  0  0  0  0  0  0  0  0
   -0.4523   72.1028   80.7977 C   0  0  0  0  0  0  0  0  0  0  0  0
   -0.8649   73.3693   80.3649 C   0  0  0  0  0  0  0  0  0  0  0  0
    0.0870   74.3492   80.0749 C   0  0  0  0  0  0  0  0  0  0  0  0
    1.4419   74.0542   80.2524 C   0  0  0  0  0  0  0  0  0  0  0  0
    1.8428   72.7845   80.6886 C   0  0  0  0  0  0  0  0  0  0  0  0
   -0.2874   75.7107   79.6056 C   0  0  0  0  0  0  0  0  0  0  0  0
    0.4966   76.4069   78.9650 O   0  0  0  0  0  0  0  0  0  0  0  0
   -1.5746   76.1292   79.8726 N   0  0  0  0  0  0  0  0  0  0  0  0
   -1.9478   77.3302   79.2178 O   0  0  0  0  0  0  0  0  0  0  0  0
   -2.3264   75.4687   80.0343 H   0  0  0  0  0  0  0  0  0  0  0  0
   -1.1086   77.5978   78.7803 H   0  0  0  0  0  0  0  0  0  0  0  0
 22 23  1  0  0  0
 23 21  1  0  0  0
 21  1  1  0  0  0
  1  2  1  0  0  0
  2  3  2  0  0  0
  3  4  1  0  0  0
  4 24  1  0  0  0
 24 25  1  0  0  0
 25 26  1  0  0  0
 26 27  1  0  0  0
 27 28  1  0  0  0
 28 31  1  0  0  0
 31 32  1  0  0  0
 32 33  2  0  0  0
 33 34  1  0  0  0
 34 37  1  0  0  0
 37 38  2  0  0  0
 37 39  1  0  0  0
 39 40  1  0  0  0
 34 35  2  0  0  0
 35 36  1  0  0  0
 28 29  1  0  0  0
 29 30  1  0  0  0
  4  5  2  0  0  0
  5  6  1  0  0  0
  6  7  1  0  0  0
  7  8  2  0  0  0
  8  9  1  0  0  0
  9 10  1  0  0  0
 10 19  1  0  0  0
 19 20  1  0  0  0
 10 11  2  0  0  0
 11 12  1  0  0  0
 12 13  1  0  0  0
 12 14  1  0  0  0
 14 15  1  0  0  0
 15 16  2  0  0  0
 15 17  1  0  0  0
  6  1  2  0  0  0
 17  7  1  0  0  0
 30 25  1  0  0  0
 14  9  2  0  0  0
 36 31  2  0  0  0
 39 41  1  0  0  0
 40 42  1  0  0  0
 17 18  1  0  0  0
M  END
> <minimizedAffinity>
-10.67841

$$$$



 42 46  0  0  0  0  0  0  0  0999 V2000
    0.7984   71.7563   81.5418 C   0  0  0  0  0  0  0  0  0  0  0  0
   -0.1855   70.7602   81.4671 C   0  0  0  0  0  0  0  0  0  0  0  0
    0.0943   69.5148   80.8974 C   0  0  0  0  0  0  0  0  0  0  0  0
    1.3636   69.2355   80.3899 C   0  0  0  0  0  0  0  0  0  0  0  0
    2.3514   70.2257   80.4670 C   0  0  0  0  0  0  0  0  0  0  0  0
    2.0912   71.4855   81.0431 C   0  0  0  0  0  0  0  0  0  0  0  0
    3.2388   72.4639   81.0779 C   0  0  0  0  0  0  0  0  0  0  0  0
    4.0825   72.5086   80.0806 N   0  0  0  0  0  0  0  0  0  0  0  0
    5.0999   73.4511   80.2333 C   0  0  0  0  0  0  0  0  0  0  0  0
    6.1653   73.7735   79.3768 C   0  0  0  0  0  0  0  0  0  0  0  0
    6.9219   74.7528   79.9089 N   0  0  0  0  0  0  0  0  0  0  0  0
    6.3190   75.0269   81.0929 N   0  0  0  0  0  0  0  0  0  0  0  0
    6.8547   76.0534   81.9536 C   0  0  0  0  0  0  0  0  0  0  0  0
    5.2187   74.2621   81.3205 C   0  0  0  0  0  0  0  0  0  0  0  0
    4.3097   74.2254   82.4047 C   0  0  0  0  0  0  0  0  0  0  0  0
    4.3541   74.9332   83.4039 O   0  0  0  0  0  0  0  0  0  0  0  0
    3.3355   73.2752   82.2045 N   0  0  0  0  0  0  0  0  0  0  0  0
    2.6384   73.1997   82.9336 H   0  0  0  0  0  0  0  0  0  0  0  0
    6.4990   73.1816   78.0530 C   0  0  0  0  0  0  0  0  0  0  0  0
    7.5465   72.0838   78.1592 C   0  0  0  0  0  0  0  0  0  0  0  0
    0.5714   72.9914   82.0964 O   0  0  0  0  0  0  0  0  0  0  0  0
   -0.0531   74.2311   80.1616 C   0  0  0  0  0  0  0  0  0  0  0  0
   -0.4802   73.7919   81.5513 C   0  0  0  0  0  0  0  0  0  0  0  0
    1.6722   67.8874   79.7829 C   0  0  0  0  0  0  0  0  0  0  0  0
    1.6987   66.7418   80.8126 C   0  0  0  0  0  0  0  0  0  0  0  0
    0.3785   65.9525   80.8359 C   0  0  0  0  0  0  0  0  0  0  0  0
    0.3927   64.8733   81.9191 C   0  0  0  0  0  0  0  0  0  0  0  0
    0.6775   65.4838   83.2259 N   0  0  0  0  0  0  0  0  0  0  0  0
    1.9617   66.2044   83.2785 C   0  0  0  0  0  0  0  0  0  0  0  0
    1.9793   67.3040   82.2160 C   0  0  0  0  0  0  0  0  0  0  0  0
    0.4362   64.7033   84.3697 C   0  0  0  0  0  0  0  0  0  0  0  0
    0.9859   65.1059   85.5997 C   0  0  0  0  0  0  0  0  0  0  0  0
    0.7780   64.3780   86.7781 C   0  0  0  0  0  0  0  0  0  0  0  0
    0.0093   63.2125   86.7489 C   0  0  0  0  0  0  0  0  0  0  0  0
   -0.5669   62.8083   85.5411 C   0  0  0  0  0  0  0  0  0  0  0  0
   -0.3543   63.5461   84.3690 C   0  0  0  0  0  0  0  0  0  0  0  0
   -0.2428   62.3927   87.9649 C   0  0  0  0  0  0  0  0  0  0  0  0
   -0.9040   61.3583   87.9158 O   0  0  0  0  0  0  0  0  0  0  0  0
    0.3499   62.8175   89.1360 N   0  0  0  0  0  0  0  0  0  0  0  0
    0.2635   61.8909   90.2058 O   0  0  0  0  0  0  0  0  0  0  0  0
    1.1772   63.4033   89.1319 H   0  0  0  0  0  0  0  0  0  0  0  0
   -0.2971   61.1805   89.8207 H   0  0  0  0  0  0  0  0  0  0  0  0
 22 23  1  0  0  0
 23 21  1  0  0  0
 21  1  1  0  0  0
  1  2  1  0  0  0
  2  3  2  0  0  0
  3  4  1  0  0  0
  4 24  1  0  0  0
 24 25  1  0  0  0
 25 26  1  0  0  0
 26 27  1  0  0  0
 27 28  1  0  0  0
 28 31  1  0  0  0
 31 32  1  0  0  0
 32 33  2  0  0  0
 33 34  1  0  0  0
 34 37  1  0  0  0
 37 38  2  0  0  0
 37 39  1  0  0  0
 39 40  1  0  0  0
 34 35  2  0  0  0
 35 36  1  0  0  0
 28 29  1  0  0  0
 29 30  1  0  0  0
  4  5  2  0  0  0
  5  6  1  0  0  0
  6  7  1  0  0  0
  7  8  2  0  0  0
  8  9  1  0  0  0
  9 10  1  0  0  0
 10 19  1  0  0  0
 19 20  1  0  0  0
 10 11  2  0  0  0
 11 12  1  0  0  0
 12 13  1  0  0  0
 12 14  1  0  0  0
 14 15  1  0  0  0
 15 16  2  0  0  0
 15 17  1  0  0  0
  6  1  2  0  0  0
 17  7  1  0  0  0
 30 25  1  0  0  0
 14  9  2  0  0  0
 36 31  2  0  0  0
 39 41  1  0  0  0
 40 42  1  0  0  0
 17 18  1  0  0  0
M  END
> <minimizedAffinity>
-10.55663

$$$$



 42 46  0  0  0  0  0  0  0  0999 V2000
   -0.0157   63.7108   84.0446 C   0  0  0  0  0  0  0  0  0  0  0  0
    0.6392   64.7729   84.6842 C   0  0  0  0  0  0  0  0  0  0  0  0
    1.2155   65.8107   83.9464 C   0  0  0  0  0  0  0  0  0  0  0  0
    1.1502   65.8121   82.5527 C   0  0  0  0  0  0  0  0  0  0  0  0
    0.4924   64.7559   81.9094 C   0  0  0  0  0  0  0  0  0  0  0  0
   -0.1004   63.7032   82.6353 C   0  0  0  0  0  0  0  0  0  0  0  0
   -0.7892   62.6296   81.8300 C   0  0  0  0  0  0  0  0  0  0  0  0
   -0.4414   62.4291   80.5862 N   0  0  0  0  0  0  0  0  0  0  0  0
   -1.1537   61.4124   79.9493 C   0  0  0  0  0  0  0  0  0  0  0  0
   -1.0509   60.9271   78.6353 C   0  0  0  0  0  0  0  0  0  0  0  0
   -1.9301   59.9277   78.4288 N   0  0  0  0  0  0  0  0  0  0  0  0
   -2.5722   59.8044   79.6175 N   0  0  0  0  0  0  0  0  0  0  0  0
   -3.5991   58.8042   79.7814 C   0  0  0  0  0  0  0  0  0  0  0  0
   -2.1297   60.6823   80.5560 C   0  0  0  0  0  0  0  0  0  0  0  0
   -2.5126   60.8877   81.9030 C   0  0  0  0  0  0  0  0  0  0  0  0
   -3.3727   60.2599   82.5092 O   0  0  0  0  0  0  0  0  0  0  0  0
   -1.7854   61.9044   82.4769 N   0  0  0  0  0  0  0  0  0  0  0  0
   -1.9939   62.1007   83.4471 H   0  0  0  0  0  0  0  0  0  0  0  0
   -0.1373   61.3795   77.5515 C   0  0  0  0  0  0  0  0  0  0  0  0
   -0.5485   62.7256   76.9744 C   0  0  0  0  0  0  0  0  0  0  0  0
   -0.6003   62.6731   84.7271 O   0  0  0  0  0  0  0  0  0  0  0  0
   -2.5855   62.3374   85.9986 C   0  0  0  0  0  0  0  0  0  0  0  0
   -1.1968   62.9522   85.9961 C   0  0  0  0  0  0  0  0  0  0  0  0
    1.7631   66.9372   81.7529 C   0  0  0  0  0  0  0  0  0  0  0  0
    1.4663   68.3341   82.3308 C   0  0  0  0  0  0  0  0  0  0  0  0
    0.6136   69.1875   81.3762 C   0  0  0  0  0  0  0  0  0  0  0  0
    0.3983   70.5968   81.9292 C   0  0  0  0  0  0  0  0  0  0  0  0
    1.6978   71.2287   82.2003 N   0  0  0  0  0  0  0  0  0  0  0  0
    2.5340   70.4826   83.1570 C   0  0  0  0  0  0  0  0  0  0  0  0
    2.7834   69.0689   82.6301 C   0  0  0  0  0  0  0  0  0  0  0  0
    1.7067   72.6161   82.4255 C   0  0  0  0  0  0  0  0  0  0  0  0
    2.8115   73.1956   83.0742 C   0  0  0  0  0  0  0  0  0  0  0  0
    2.8870   74.5719   83.3228 C   0  0  0  0  0  0  0  0  0  0  0  0
    1.8410   75.4082   82.9267 C   0  0  0  0  0  0  0  0  0  0  0  0
    0.7447   74.8557   82.2582 C   0  0  0  0  0  0  0  0  0  0  0  0
    0.6815   73.4776   82.0125 C   0  0  0  0  0  0  0  0  0  0  0  0
    1.8591   76.8766   83.1676 C   0  0  0  0  0  0  0  0  0  0  0  0
    1.5312   77.6745   82.2926 O   0  0  0  0  0  0  0  0  0  0  0  0
    2.2040   77.2952   84.4360 N   0  0  0  0  0  0  0  0  0  0  0  0
    1.9925   78.6768   84.6746 O   0  0  0  0  0  0  0  0  0  0  0  0
    2.0968   76.6916   85.2434 H   0  0  0  0  0  0  0  0  0  0  0  0
    1.7083   78.9993   83.7900 H   0  0  0  0  0  0  0  0  0  0  0  0
 22 23  1  0  0  0
 23 21  1  0  0  0
 21  1  1  0  0  0
  1  2  1  0  0  0
  2  3  2  0  0  0
  3  4  1  0  0  0
  4 24  1  0  0  0
 24 25  1  0  0  0
 25 26  1  0  0  0
 26 27  1  0  0  0
 27 28  1  0  0  0
 28 31  1  0  0  0
 31 32  1  0  0  0
 32 33  2  0  0  0
 33 34  1  0  0  0
 34 37  1  0  0  0
 37 38  2  0  0  0
 37 39  1  0  0  0
 39 40  1  0  0  0
 34 35  2  0  0  0
 35 36  1  0  0  0
 28 29  1  0  0  0
 29 30  1  0  0  0
  4  5  2  0  0  0
  5  6  1  0  0  0
  6  7  1  0  0  0
  7  8  2  0  0  0
  8  9  1  0  0  0
  9 10  1  0  0  0
 10 19  1  0  0  0
 19 20  1  0  0  0
 10 11  2  0  0  0
 11 12  1  0  0  0
 12 13  1  0  0  0
 12 14  1  0  0  0
 14 15  1  0  0  0
 15 16  2  0  0  0
 15 17  1  0  0  0
  6  1  2  0  0  0
 17  7  1  0  0  0
 30 25  1  0  0  0
 14  9  2  0  0  0
 36 31  2  0  0  0
 39 41  1  0  0  0
 40 42  1  0  0  0
 17 18  1  0  0  0
M  END
> <minimizedAffinity>
-10.49231

$$$$



 42 46  0  0  0  0  0  0  0  0999 V2000
    1.2706   72.1281   81.2354 C   0  0  0  0  0  0  0  0  0  0  0  0
    0.2609   71.2114   81.5610 C   0  0  0  0  0  0  0  0  0  0  0  0
    0.5676   69.8816   81.8632 C   0  0  0  0  0  0  0  0  0  0  0  0
    1.8900   69.4371   81.8480 C   0  0  0  0  0  0  0  0  0  0  0  0
    2.9028   70.3506   81.5283 C   0  0  0  0  0  0  0  0  0  0  0  0
    2.6150   71.6969   81.2266 C   0  0  0  0  0  0  0  0  0  0  0  0
    3.7916   72.5858   80.9091 C   0  0  0  0  0  0  0  0  0  0  0  0
    4.7058   72.1755   80.0699 N   0  0  0  0  0  0  0  0  0  0  0  0
    5.7429   73.0856   79.8630 C   0  0  0  0  0  0  0  0  0  0  0  0
    6.8779   72.9866   79.0416 C   0  0  0  0  0  0  0  0  0  0  0  0
    7.6291   74.1009   79.1346 N   0  0  0  0  0  0  0  0  0  0  0  0
    6.9530   74.8801   80.0157 N   0  0  0  0  0  0  0  0  0  0  0  0
    7.4622   76.1849   80.3619 C   0  0  0  0  0  0  0  0  0  0  0  0
    5.8124   74.3003   80.4741 C   0  0  0  0  0  0  0  0  0  0  0  0
    4.8272   74.7570   81.3818 C   0  0  0  0  0  0  0  0  0  0  0  0
    4.8253   75.8399   81.9552 O   0  0  0  0  0  0  0  0  0  0  0  0
    3.8363   73.8186   81.5534 N   0  0  0  0  0  0  0  0  0  0  0  0
    3.0865   74.0804   82.1799 H   0  0  0  0  0  0  0  0  0  0  0  0
    7.2841   71.8607   78.1578 C   0  0  0  0  0  0  0  0  0  0  0  0
    6.3629   71.7082   76.9570 C   0  0  0  0  0  0  0  0  0  0  0  0
    1.0179   73.4439   80.9366 O   0  0  0  0  0  0  0  0  0  0  0  0
    0.4339   75.3489   82.2406 C   0  0  0  0  0  0  0  0  0  0  0  0
   -0.0858   74.0820   81.5837 C   0  0  0  0  0  0  0  0  0  0  0  0
    2.2259   68.0034   82.1839 C   0  0  0  0  0  0  0  0  0  0  0  0
    1.0800   67.0180   81.8849 C   0  0  0  0  0  0  0  0  0  0  0  0
    1.0975   65.8043   82.8300 C   0  0  0  0  0  0  0  0  0  0  0  0
    0.0048   64.7983   82.4665 C   0  0  0  0  0  0  0  0  0  0  0  0
    0.1529   64.3888   81.0622 N   0  0  0  0  0  0  0  0  0  0  0  0
    0.0838   65.5076   80.1059 C   0  0  0  0  0  0  0  0  0  0  0  0
    1.1737   66.5302   80.4297 C   0  0  0  0  0  0  0  0  0  0  0  0
   -0.5669   63.2576   80.6401 C   0  0  0  0  0  0  0  0  0  0  0  0
    0.0241   62.3778   79.7160 C   0  0  0  0  0  0  0  0  0  0  0  0
   -0.6352   61.2293   79.2601 C   0  0  0  0  0  0  0  0  0  0  0  0
   -1.9201   60.9358   79.7219 C   0  0  0  0  0  0  0  0  0  0  0  0
   -2.5157   61.7842   80.6597 C   0  0  0  0  0  0  0  0  0  0  0  0
   -1.8453   62.9291   81.1107 C   0  0  0  0  0  0  0  0  0  0  0  0
   -2.6747   59.7351   79.2711 C   0  0  0  0  0  0  0  0  0  0  0  0
   -2.3520   59.1168   78.2595 O   0  0  0  0  0  0  0  0  0  0  0  0
   -3.7150   59.3158   80.0742 N   0  0  0  0  0  0  0  0  0  0  0  0
   -4.2541   58.0523   79.7226 O   0  0  0  0  0  0  0  0  0  0  0  0
   -3.7527   59.5469   81.0605 H   0  0  0  0  0  0  0  0  0  0  0  0
   -3.7575   57.8358   78.9017 H   0  0  0  0  0  0  0  0  0  0  0  0
 22 23  1  0  0  0
 23 21  1  0  0  0
 21  1  1  0  0  0
  1  2  1  0  0  0
  2  3  2  0  0  0
  3  4  1  0  0  0
  4 24  1  0  0  0
 24 25  1  0  0  0
 25 26  1  0  0  0
 26 27  1  0  0  0
 27 28  1  0  0  0
 28 31  1  0  0  0
 31 32  1  0  0  0
 32 33  2  0  0  0
 33 34  1  0  0  0
 34 37  1  0  0  0
 37 38  2  0  0  0
 37 39  1  0  0  0
 39 40  1  0  0  0
 34 35  2  0  0  0
 35 36  1  0  0  0
 28 29  1  0  0  0
 29 30  1  0  0  0
  4  5  2  0  0  0
  5  6  1  0  0  0
  6  7  1  0  0  0
  7  8  2  0  0  0
  8  9  1  0  0  0
  9 10  1  0  0  0
 10 19  1  0  0  0
 19 20  1  0  0  0
 10 11  2  0  0  0
 11 12  1  0  0  0
 12 13  1  0  0  0
 12 14  1  0  0  0
 14 15  1  0  0  0
 15 16  2  0  0  0
 15 17  1  0  0  0
  6  1  2  0  0  0
 17  7  1  0  0  0
 30 25  1  0  0  0
 14  9  2  0  0  0
 36 31  2  0  0  0
 39 41  1  0  0  0
 40 42  1  0  0  0
 17 18  1  0  0  0
M  END
> <minimizedAffinity>
-10.36563

$$$$



 42 46  0  0  0  0  0  0  0  0999 V2000
    0.8264   72.2740   81.7916 C   0  0  0  0  0  0  0  0  0  0  0  0
   -0.0749   71.2133   81.6234 C   0  0  0  0  0  0  0  0  0  0  0  0
    0.3776   69.8948   81.5209 C   0  0  0  0  0  0  0  0  0  0  0  0
    1.7410   69.6054   81.5851 C   0  0  0  0  0  0  0  0  0  0  0  0
    2.6451   70.6612   81.7584 C   0  0  0  0  0  0  0  0  0  0  0  0
    2.2086   71.9967   81.8699 C   0  0  0  0  0  0  0  0  0  0  0  0
    3.2769   73.0438   82.0648 C   0  0  0  0  0  0  0  0  0  0  0  0
    4.2167   73.1854   81.1677 N   0  0  0  0  0  0  0  0  0  0  0  0
    5.1456   74.1833   81.4642 C   0  0  0  0  0  0  0  0  0  0  0  0
    6.2716   74.6098   80.7410 C   0  0  0  0  0  0  0  0  0  0  0  0
    6.8990   75.6113   81.3875 N   0  0  0  0  0  0  0  0  0  0  0  0
    6.1564   75.7948   82.5080 N   0  0  0  0  0  0  0  0  0  0  0  0
    6.5266   76.8151   83.4586 C   0  0  0  0  0  0  0  0  0  0  0  0
    5.0928   74.9523   82.5866 C   0  0  0  0  0  0  0  0  0  0  0  0
    4.0784   74.8108   83.5633 C   0  0  0  0  0  0  0  0  0  0  0  0
    3.9681   75.4760   84.5864 O   0  0  0  0  0  0  0  0  0  0  0  0
    3.1978   73.8100   83.2240 N   0  0  0  0  0  0  0  0  0  0  0  0
    2.4340   73.6587   83.8697 H   0  0  0  0  0  0  0  0  0  0  0  0
    6.7834   74.0983   79.4409 C   0  0  0  0  0  0  0  0  0  0  0  0
    7.4149   72.7206   79.5710 C   0  0  0  0  0  0  0  0  0  0  0  0
    0.4285   73.5832   81.9018 O   0  0  0  0  0  0  0  0  0  0  0  0
    0.6501   74.5501   79.7371 C   0  0  0  0  0  0  0  0  0  0  0  0
   -0.3271   74.1505   80.8288 C   0  0  0  0  0  0  0  0  0  0  0  0
    2.2327   68.1808   81.4850 C   0  0  0  0  0  0  0  0  0  0  0  0
    1.1221   67.1707   81.1387 C   0  0  0  0  0  0  0  0  0  0  0  0
    0.9059   66.1397   82.2597 C   0  0  0  0  0  0  0  0  0  0  0  0
   -0.1411   65.0975   81.8649 C   0  0  0  0  0  0  0  0  0  0  0  0
    0.2529   64.4487   80.6059 N   0  0  0  0  0  0  0  0  0  0  0  0
    0.4165   65.3849   79.4799 C   0  0  0  0  0  0  0  0  0  0  0  0
    1.4690   66.4365   79.8330 C   0  0  0  0  0  0  0  0  0  0  0  0
   -0.4227   63.2691   80.2483 C   0  0  0  0  0  0  0  0  0  0  0  0
   -1.6758   62.9980   80.8259 C   0  0  0  0  0  0  0  0  0  0  0  0
   -2.4047   61.8451   80.5077 C   0  0  0  0  0  0  0  0  0  0  0  0
   -1.8850   60.9236   79.5961 C   0  0  0  0  0  0  0  0  0  0  0  0
   -0.6522   61.1865   78.9917 C   0  0  0  0  0  0  0  0  0  0  0  0
    0.0668   62.3446   79.3158 C   0  0  0  0  0  0  0  0  0  0  0  0
   -2.6077   59.6778   79.2217 C   0  0  0  0  0  0  0  0  0  0  0  0
   -2.2038   58.9482   78.3193 O   0  0  0  0  0  0  0  0  0  0  0  0
   -3.7171   59.3516   79.9740 N   0  0  0  0  0  0  0  0  0  0  0  0
   -4.2341   58.0553   79.7236 O   0  0  0  0  0  0  0  0  0  0  0  0
   -3.8381   59.6943   80.9203 H   0  0  0  0  0  0  0  0  0  0  0  0
   -3.6702   57.7469   78.9792 H   0  0  0  0  0  0  0  0  0  0  0  0
 22 23  1  0  0  0
 23 21  1  0  0  0
 21  1  1  0  0  0
  1  2  1  0  0  0
  2  3  2  0  0  0
  3  4  1  0  0  0
  4 24  1  0  0  0
 24 25  1  0  0  0
 25 26  1  0  0  0
 26 27  1  0  0  0
 27 28  1  0  0  0
 28 31  1  0  0  0
 31 32  1  0  0  0
 32 33  2  0  0  0
 33 34  1  0  0  0
 34 37  1  0  0  0
 37 38  2  0  0  0
 37 39  1  0  0  0
 39 40  1  0  0  0
 34 35  2  0  0  0
 35 36  1  0  0  0
 28 29  1  0  0  0
 29 30  1  0  0  0
  4  5  2  0  0  0
  5  6  1  0  0  0
  6  7  1  0  0  0
  7  8  2  0  0  0
  8  9  1  0  0  0
  9 10  1  0  0  0
 10 19  1  0  0  0
 19 20  1  0  0  0
 10 11  2  0  0  0
 11 12  1  0  0  0
 12 13  1  0  0  0
 12 14  1  0  0  0
 14 15  1  0  0  0
 15 16  2  0  0  0
 15 17  1  0  0  0
  6  1  2  0  0  0
 17  7  1  0  0  0
 30 25  1  0  0  0
 14  9  2  0  0  0
 36 31  2  0  0  0
 39 41  1  0  0  0
 40 42  1  0  0  0
 17 18  1  0  0  0
M  END
> <minimizedAffinity>
-10.28920

$$$$



 42 46  0  0  0  0  0  0  0  0999 V2000
    3.2948   71.4802   80.7554 C   0  0  0  0  0  0  0  0  0  0  0  0
    3.9902   70.2738   80.9193 C   0  0  0  0  0  0  0  0  0  0  0  0
    3.4585   69.2367   81.6909 C   0  0  0  0  0  0  0  0  0  0  0  0
    2.2194   69.3805   82.3160 C   0  0  0  0  0  0  0  0  0  0  0  0
    1.5184   70.5820   82.1509 C   0  0  0  0  0  0  0  0  0  0  0  0
    2.0344   71.6372   81.3721 C   0  0  0  0  0  0  0  0  0  0  0  0
    1.1812   72.8763   81.2608 C   0  0  0  0  0  0  0  0  0  0  0  0
    0.2520   72.9429   80.3441 N   0  0  0  0  0  0  0  0  0  0  0  0
   -0.4649   74.1399   80.3416 C   0  0  0  0  0  0  0  0  0  0  0  0
   -1.5196   74.5566   79.5129 C   0  0  0  0  0  0  0  0  0  0  0  0
   -1.9307   75.7932   79.8543 N   0  0  0  0  0  0  0  0  0  0  0  0
   -1.1243   76.1327   80.8911 N   0  0  0  0  0  0  0  0  0  0  0  0
   -1.2816   77.4133   81.5368 C   0  0  0  0  0  0  0  0  0  0  0  0
   -0.2300   75.1606   81.2115 C   0  0  0  0  0  0  0  0  0  0  0  0
    0.7707   75.0989   82.2103 C   0  0  0  0  0  0  0  0  0  0  0  0
    1.0246   75.9753   83.0283 O   0  0  0  0  0  0  0  0  0  0  0  0
    1.4492   73.9034   82.1609 N   0  0  0  0  0  0  0  0  0  0  0  0
    2.1733   73.7797   82.8563 H   0  0  0  0  0  0  0  0  0  0  0  0
   -2.1638   73.8171   78.3939 C   0  0  0  0  0  0  0  0  0  0  0  0
   -3.1225   72.7442   78.8874 C   0  0  0  0  0  0  0  0  0  0  0  0
    3.7747   72.5237   80.0036 O   0  0  0  0  0  0  0  0  0  0  0  0
    4.3833   74.8125   80.2513 C   0  0  0  0  0  0  0  0  0  0  0  0
    4.7580   73.3802   80.5897 C   0  0  0  0  0  0  0  0  0  0  0  0
    1.6372   68.2581   83.1421 C   0  0  0  0  0  0  0  0  0  0  0  0
    1.3931   66.9667   82.3383 C   0  0  0  0  0  0  0  0  0  0  0  0
    0.3356   67.1598   81.2379 C   0  0  0  0  0  0  0  0  0  0  0  0
    0.0470   65.8490   80.5052 C   0  0  0  0  0  0  0  0  0  0  0  0
   -0.3633   64.8192   81.4709 N   0  0  0  0  0  0  0  0  0  0  0  0
    0.6401   64.5501   82.5159 C   0  0  0  0  0  0  0  0  0  0  0  0
    0.9447   65.8382   83.2816 C   0  0  0  0  0  0  0  0  0  0  0  0
   -0.9517   63.6504   80.9576 C   0  0  0  0  0  0  0  0  0  0  0  0
   -2.0305   63.0693   81.6473 C   0  0  0  0  0  0  0  0  0  0  0  0
   -2.6663   61.9095   81.1867 C   0  0  0  0  0  0  0  0  0  0  0  0
   -2.2261   61.2950   80.0124 C   0  0  0  0  0  0  0  0  0  0  0  0
   -1.1711   61.8706   79.2983 C   0  0  0  0  0  0  0  0  0  0  0  0
   -0.5444   63.0327   79.7675 C   0  0  0  0  0  0  0  0  0  0  0  0
   -2.8557   60.0585   79.4749 C   0  0  0  0  0  0  0  0  0  0  0  0
   -2.5677   59.6231   78.3626 O   0  0  0  0  0  0  0  0  0  0  0  0
   -3.7319   59.3935   80.3075 N   0  0  0  0  0  0  0  0  0  0  0  0
   -4.1296   58.1157   79.8389 O   0  0  0  0  0  0  0  0  0  0  0  0
   -3.6894   59.4949   81.3152 H   0  0  0  0  0  0  0  0  0  0  0  0
   -3.7038   58.0774   78.9532 H   0  0  0  0  0  0  0  0  0  0  0  0
 22 23  1  0  0  0
 23 21  1  0  0  0
 21  1  1  0  0  0
  1  2  1  0  0  0
  2  3  2  0  0  0
  3  4  1  0  0  0
  4 24  1  0  0  0
 24 25  1  0  0  0
 25 26  1  0  0  0
 26 27  1  0  0  0
 27 28  1  0  0  0
 28 31  1  0  0  0
 31 32  1  0  0  0
 32 33  2  0  0  0
 33 34  1  0  0  0
 34 37  1  0  0  0
 37 38  2  0  0  0
 37 39  1  0  0  0
 39 40  1  0  0  0
 34 35  2  0  0  0
 35 36  1  0  0  0
 28 29  1  0  0  0
 29 30  1  0  0  0
  4  5  2  0  0  0
  5  6  1  0  0  0
  6  7  1  0  0  0
  7  8  2  0  0  0
  8  9  1  0  0  0
  9 10  1  0  0  0
 10 19  1  0  0  0
 19 20  1  0  0  0
 10 11  2  0  0  0
 11 12  1  0  0  0
 12 13  1  0  0  0
 12 14  1  0  0  0
 14 15  1  0  0  0
 15 16  2  0  0  0
 15 17  1  0  0  0
  6  1  2  0  0  0
 17  7  1  0  0  0
 30 25  1  0  0  0
 14  9  2  0  0  0
 36 31  2  0  0  0
 39 41  1  0  0  0
 40 42  1  0  0  0
 17 18  1  0  0  0
M  END
> <minimizedAffinity>
-10.14188

$$$$



 42 46  0  0  0  0  0  0  0  0999 V2000
   -0.9491   61.7569   80.0497 C   0  0  0  0  0  0  0  0  0  0  0  0
   -0.6051   61.9078   78.6989 C   0  0  0  0  0  0  0  0  0  0  0  0
    0.0765   63.0438   78.2533 C   0  0  0  0  0  0  0  0  0  0  0  0
    0.4310   64.0549   79.1470 C   0  0  0  0  0  0  0  0  0  0  0  0
    0.0941   63.9063   80.4985 C   0  0  0  0  0  0  0  0  0  0  0  0
   -0.5876   62.7658   80.9688 C   0  0  0  0  0  0  0  0  0  0  0  0
   -0.8844   62.7163   82.4470 C   0  0  0  0  0  0  0  0  0  0  0  0
   -0.1446   63.4002   83.2796 N   0  0  0  0  0  0  0  0  0  0  0  0
   -0.5177   63.2689   84.6176 C   0  0  0  0  0  0  0  0  0  0  0  0
    0.0390   63.8490   85.7692 C   0  0  0  0  0  0  0  0  0  0  0  0
   -0.6324   63.4574   86.8694 N   0  0  0  0  0  0  0  0  0  0  0  0
   -1.5988   62.6352   86.3890 N   0  0  0  0  0  0  0  0  0  0  0  0
   -2.5387   62.0214   87.2953 C   0  0  0  0  0  0  0  0  0  0  0  0
   -1.5595   62.4993   85.0372 C   0  0  0  0  0  0  0  0  0  0  0  0
   -2.3697   61.7571   84.1451 C   0  0  0  0  0  0  0  0  0  0  0  0
   -3.3254   61.0562   84.4562 O   0  0  0  0  0  0  0  0  0  0  0  0
   -1.9522   61.9171   82.8443 N   0  0  0  0  0  0  0  0  0  0  0  0
   -2.4939   61.4262   82.1451 H   0  0  0  0  0  0  0  0  0  0  0  0
    1.1994   64.7750   85.8694 C   0  0  0  0  0  0  0  0  0  0  0  0
    1.1936   65.8283   84.7720 C   0  0  0  0  0  0  0  0  0  0  0  0
   -1.6135   60.6575   80.5338 O   0  0  0  0  0  0  0  0  0  0  0  0
   -3.8773   61.1762   80.0082 C   0  0  0  0  0  0  0  0  0  0  0  0
   -2.7480   60.1811   79.8059 C   0  0  0  0  0  0  0  0  0  0  0  0
    1.1765   65.2791   78.6707 C   0  0  0  0  0  0  0  0  0  0  0  0
    1.1302   66.4528   79.6676 C   0  0  0  0  0  0  0  0  0  0  0  0
   -0.2366   67.1588   79.6689 C   0  0  0  0  0  0  0  0  0  0  0  0
   -0.2381   68.3699   80.6025 C   0  0  0  0  0  0  0  0  0  0  0  0
    0.8430   69.2914   80.2236 N   0  0  0  0  0  0  0  0  0  0  0  0
    2.1844   68.6828   80.2627 C   0  0  0  0  0  0  0  0  0  0  0  0
    2.2289   67.4734   79.3280 C   0  0  0  0  0  0  0  0  0  0  0  0
    0.8090   70.5861   80.7697 C   0  0  0  0  0  0  0  0  0  0  0  0
    1.9993   71.3320   80.8333 C   0  0  0  0  0  0  0  0  0  0  0  0
    2.0334   72.6299   81.3585 C   0  0  0  0  0  0  0  0  0  0  0  0
    0.8615   73.2149   81.8429 C   0  0  0  0  0  0  0  0  0  0  0  0
   -0.3372   72.4999   81.7661 C   0  0  0  0  0  0  0  0  0  0  0  0
   -0.3597   71.2030   81.2361 C   0  0  0  0  0  0  0  0  0  0  0  0
    0.8338   74.5870   82.4181 C   0  0  0  0  0  0  0  0  0  0  0  0
    1.8662   75.1647   82.7500 O   0  0  0  0  0  0  0  0  0  0  0  0
   -0.3987   75.2007   82.5056 N   0  0  0  0  0  0  0  0  0  0  0  0
   -0.3455   76.5754   82.8491 O   0  0  0  0  0  0  0  0  0  0  0  0
   -1.1718   74.9298   81.9085 H   0  0  0  0  0  0  0  0  0  0  0  0
    0.6142   76.7108   83.0160 H   0  0  0  0  0  0  0  0  0  0  0  0
 22 23  1  0  0  0
 23 21  1  0  0  0
 21  1  1  0  0  0
  1  2  1  0  0  0
  2  3  2  0  0  0
  3  4  1  0  0  0
  4 24  1  0  0  0
 24 25  1  0  0  0
 25 26  1  0  0  0
 26 27  1  0  0  0
 27 28  1  0  0  0
 28 31  1  0  0  0
 31 32  1  0  0  0
 32 33  2  0  0  0
 33 34  1  0  0  0
 34 37  1  0  0  0
 37 38  2  0  0  0
 37 39  1  0  0  0
 39 40  1  0  0  0
 34 35  2  0  0  0
 35 36  1  0  0  0
 28 29  1  0  0  0
 29 30  1  0  0  0
  4  5  2  0  0  0
  5  6  1  0  0  0
  6  7  1  0  0  0
  7  8  2  0  0  0
  8  9  1  0  0  0
  9 10  1  0  0  0
 10 19  1  0  0  0
 19 20  1  0  0  0
 10 11  2  0  0  0
 11 12  1  0  0  0
 12 13  1  0  0  0
 12 14  1  0  0  0
 14 15  1  0  0  0
 15 16  2  0  0  0
 15 17  1  0  0  0
  6  1  2  0  0  0
 17  7  1  0  0  0
 30 25  1  0  0  0
 14  9  2  0  0  0
 36 31  2  0  0  0
 39 41  1  0  0  0
 40 42  1  0  0  0
 17 18  1  0  0  0
M  END
> <minimizedAffinity>
-10.13224

$$$$



 42 46  0  0  0  0  0  0  0  0999 V2000
    0.9678   72.1504   80.9940 C   0  0  0  0  0  0  0  0  0  0  0  0
   -0.0196   71.1609   81.1024 C   0  0  0  0  0  0  0  0  0  0  0  0
    0.3065   69.8600   81.4960 C   0  0  0  0  0  0  0  0  0  0  0  0
    1.6265   69.5177   81.7912 C   0  0  0  0  0  0  0  0  0  0  0  0
    2.6158   70.5041   81.6894 C   0  0  0  0  0  0  0  0  0  0  0  0
    2.3067   71.8230   81.3002 C   0  0  0  0  0  0  0  0  0  0  0  0
    3.4565   72.7975   81.2381 C   0  0  0  0  0  0  0  0  0  0  0  0
    3.7221   73.5527   82.2713 N   0  0  0  0  0  0  0  0  0  0  0  0
    4.8053   74.4129   82.0883 C   0  0  0  0  0  0  0  0  0  0  0  0
    5.3693   75.3512   82.9681 C   0  0  0  0  0  0  0  0  0  0  0  0
    6.4144   75.9746   82.3903 N   0  0  0  0  0  0  0  0  0  0  0  0
    6.4869   75.4178   81.1553 N   0  0  0  0  0  0  0  0  0  0  0  0
    7.5148   75.8386   80.2345 C   0  0  0  0  0  0  0  0  0  0  0  0
    5.5336   74.4734   80.9395 C   0  0  0  0  0  0  0  0  0  0  0  0
    5.2578   73.6586   79.8156 C   0  0  0  0  0  0  0  0  0  0  0  0
    5.8795   73.6565   78.7596 O   0  0  0  0  0  0  0  0  0  0  0  0
    4.1781   72.8389   80.0489 N   0  0  0  0  0  0  0  0  0  0  0  0
    3.9285   72.2147   79.2930 H   0  0  0  0  0  0  0  0  0  0  0  0
    4.9510   75.6845   84.3566 C   0  0  0  0  0  0  0  0  0  0  0  0
    3.7990   76.6773   84.3896 C   0  0  0  0  0  0  0  0  0  0  0  0
    0.6944   73.4415   80.6163 O   0  0  0  0  0  0  0  0  0  0  0  0
    0.4773   75.1085   82.3028 C   0  0  0  0  0  0  0  0  0  0  0  0
   -0.2742   74.1737   81.3712 C   0  0  0  0  0  0  0  0  0  0  0  0
    1.9809   68.1155   82.2266 C   0  0  0  0  0  0  0  0  0  0  0  0
    0.8886   67.0779   81.9044 C   0  0  0  0  0  0  0  0  0  0  0  0
    0.9489   65.8616   82.8443 C   0  0  0  0  0  0  0  0  0  0  0  0
   -0.0883   64.8063   82.4583 C   0  0  0  0  0  0  0  0  0  0  0  0
    0.1021   64.4117   81.0549 N   0  0  0  0  0  0  0  0  0  0  0  0
   -0.0050   65.5309   80.1025 C   0  0  0  0  0  0  0  0  0  0  0  0
    1.0292   66.6028   80.4488 C   0  0  0  0  0  0  0  0  0  0  0  0
   -0.5556   63.2496   80.6160 C   0  0  0  0  0  0  0  0  0  0  0  0
   -1.7987   62.9137   81.1809 C   0  0  0  0  0  0  0  0  0  0  0  0
   -2.5098   61.7743   80.7837 C   0  0  0  0  0  0  0  0  0  0  0  0
   -1.9816   60.9321   79.8028 C   0  0  0  0  0  0  0  0  0  0  0  0
   -0.7588   61.2613   79.2107 C   0  0  0  0  0  0  0  0  0  0  0  0
   -0.0577   62.4054   79.6143 C   0  0  0  0  0  0  0  0  0  0  0  0
   -2.6853   59.7044   79.3426 C   0  0  0  0  0  0  0  0  0  0  0  0
   -2.2507   59.0250   78.4156 O   0  0  0  0  0  0  0  0  0  0  0  0
   -3.8142   59.3340   80.0438 N   0  0  0  0  0  0  0  0  0  0  0  0
   -4.3156   58.0501   79.7108 O   0  0  0  0  0  0  0  0  0  0  0  0
   -3.9649   59.6259   81.0027 H   0  0  0  0  0  0  0  0  0  0  0  0
   -3.7282   57.7838   78.9682 H   0  0  0  0  0  0  0  0  0  0  0  0
 22 23  1  0  0  0
 23 21  1  0  0  0
 21  1  1  0  0  0
  1  2  1  0  0  0
  2  3  2  0  0  0
  3  4  1  0  0  0
  4 24  1  0  0  0
 24 25  1  0  0  0
 25 26  1  0  0  0
 26 27  1  0  0  0
 27 28  1  0  0  0
 28 31  1  0  0  0
 31 32  1  0  0  0
 32 33  2  0  0  0
 33 34  1  0  0  0
 34 37  1  0  0  0
 37 38  2  0  0  0
 37 39  1  0  0  0
 39 40  1  0  0  0
 34 35  2  0  0  0
 35 36  1  0  0  0
 28 29  1  0  0  0
 29 30  1  0  0  0
  4  5  2  0  0  0
  5  6  1  0  0  0
  6  7  1  0  0  0
  7  8  2  0  0  0
  8  9  1  0  0  0
  9 10  1  0  0  0
 10 19  1  0  0  0
 19 20  1  0  0  0
 10 11  2  0  0  0
 11 12  1  0  0  0
 12 13  1  0  0  0
 12 14  1  0  0  0
 14 15  1  0  0  0
 15 16  2  0  0  0
 15 17  1  0  0  0
  6  1  2  0  0  0
 17  7  1  0  0  0
 30 25  1  0  0  0
 14  9  2  0  0  0
 36 31  2  0  0  0
 39 41  1  0  0  0
 40 42  1  0  0  0
 17 18  1  0  0  0
M  END
> <minimizedAffinity>
-10.10374

$$$$



 42 46  0  0  0  0  0  0  0  0999 V2000
    1.8967   71.8136   80.8084 C   0  0  0  0  0  0  0  0  0  0  0  0
    0.8204   71.1628   81.4281 C   0  0  0  0  0  0  0  0  0  0  0  0
    0.9668   69.8785   81.9599 C   0  0  0  0  0  0  0  0  0  0  0  0
    2.1920   69.2150   81.8857 C   0  0  0  0  0  0  0  0  0  0  0  0
    3.2716   69.8632   81.2722 C   0  0  0  0  0  0  0  0  0  0  0  0
    3.1462   71.1603   80.7353 C   0  0  0  0  0  0  0  0  0  0  0  0
    4.3829   71.7566   80.1101 C   0  0  0  0  0  0  0  0  0  0  0  0
    4.9082   72.8397   80.6192 N   0  0  0  0  0  0  0  0  0  0  0  0
    6.0454   73.2934   79.9500 C   0  0  0  0  0  0  0  0  0  0  0  0
    6.8602   74.4071   80.2114 C   0  0  0  0  0  0  0  0  0  0  0  0
    7.8651   74.4798   79.3172 N   0  0  0  0  0  0  0  0  0  0  0  0
    7.6619   73.4104   78.5074 N   0  0  0  0  0  0  0  0  0  0  0  0
    8.5679   73.1517   77.4148 C   0  0  0  0  0  0  0  0  0  0  0  0
    6.5753   72.6738   78.8596 C   0  0  0  0  0  0  0  0  0  0  0  0
    6.0176   71.4989   78.3015 C   0  0  0  0  0  0  0  0  0  0  0  0
    6.4508   70.8885   77.3313 O   0  0  0  0  0  0  0  0  0  0  0  0
    4.8972   71.1029   78.9944 N   0  0  0  0  0  0  0  0  0  0  0  0
    4.4498   70.2590   78.6615 H   0  0  0  0  0  0  0  0  0  0  0  0
    6.7225   75.4201   81.2926 C   0  0  0  0  0  0  0  0  0  0  0  0
    8.0693   75.9424   81.7690 C   0  0  0  0  0  0  0  0  0  0  0  0
    1.8015   73.0756   80.2766 O   0  0  0  0  0  0  0  0  0  0  0  0
    1.9954   75.1121   81.4955 C   0  0  0  0  0  0  0  0  0  0  0  0
    1.0351   74.0506   80.9879 C   0  0  0  0  0  0  0  0  0  0  0  0
    2.3564   67.8313   82.4684 C   0  0  0  0  0  0  0  0  0  0  0  0
    1.2135   66.8680   82.0949 C   0  0  0  0  0  0  0  0  0  0  0  0
    1.1432   65.6572   83.0413 C   0  0  0  0  0  0  0  0  0  0  0  0
    0.0573   64.6720   82.6070 C   0  0  0  0  0  0  0  0  0  0  0  0
    0.2910   64.2552   81.2167 N   0  0  0  0  0  0  0  0  0  0  0  0
    0.3087   65.3722   80.2558 C   0  0  0  0  0  0  0  0  0  0  0  0
    1.3947   66.3738   80.6502 C   0  0  0  0  0  0  0  0  0  0  0  0
   -0.4215   63.1373   80.7493 C   0  0  0  0  0  0  0  0  0  0  0  0
   -1.7175   62.8995   81.2400 C   0  0  0  0  0  0  0  0  0  0  0  0
   -2.4840   61.8086   80.8107 C   0  0  0  0  0  0  0  0  0  0  0  0
   -1.9599   60.9171   79.8721 C   0  0  0  0  0  0  0  0  0  0  0  0
   -0.6828   61.1494   79.3532 C   0  0  0  0  0  0  0  0  0  0  0  0
    0.0737   62.2458   79.7881 C   0  0  0  0  0  0  0  0  0  0  0  0
   -2.7215   59.7367   79.3813 C   0  0  0  0  0  0  0  0  0  0  0  0
   -2.3804   59.1282   78.3698 O   0  0  0  0  0  0  0  0  0  0  0  0
   -3.7916   59.3237   80.1477 N   0  0  0  0  0  0  0  0  0  0  0  0
   -4.3418   58.0753   79.7611 O   0  0  0  0  0  0  0  0  0  0  0  0
   -3.8538   59.5406   81.1360 H   0  0  0  0  0  0  0  0  0  0  0  0
   -3.8254   57.8625   78.9515 H   0  0  0  0  0  0  0  0  0  0  0  0
 22 23  1  0  0  0
 23 21  1  0  0  0
 21  1  1  0  0  0
  1  2  1  0  0  0
  2  3  2  0  0  0
  3  4  1  0  0  0
  4 24  1  0  0  0
 24 25  1  0  0  0
 25 26  1  0  0  0
 26 27  1  0  0  0
 27 28  1  0  0  0
 28 31  1  0  0  0
 31 32  1  0  0  0
 32 33  2  0  0  0
 33 34  1  0  0  0
 34 37  1  0  0  0
 37 38  2  0  0  0
 37 39  1  0  0  0
 39 40  1  0  0  0
 34 35  2  0  0  0
 35 36  1  0  0  0
 28 29  1  0  0  0
 29 30  1  0  0  0
  4  5  2  0  0  0
  5  6  1  0  0  0
  6  7  1  0  0  0
  7  8  2  0  0  0
  8  9  1  0  0  0
  9 10  1  0  0  0
 10 19  1  0  0  0
 19 20  1  0  0  0
 10 11  2  0  0  0
 11 12  1  0  0  0
 12 13  1  0  0  0
 12 14  1  0  0  0
 14 15  1  0  0  0
 15 16  2  0  0  0
 15 17  1  0  0  0
  6  1  2  0  0  0
 17  7  1  0  0  0
 30 25  1  0  0  0
 14  9  2  0  0  0
 36 31  2  0  0  0
 39 41  1  0  0  0
 40 42  1  0  0  0
 17 18  1  0  0  0
M  END
> <minimizedAffinity>
-10.08019

$$$$
