


 36 40  0  0  0  0  0  0  0  0999 V2000
    3.2338   67.0094   84.0685 C   0  0  0  0  0  0  0  0  0  0  0  0
    4.0078   68.1727   83.9325 C   0  0  0  0  0  0  0  0  0  0  0  0
    3.6567   69.1572   83.0076 C   0  0  0  0  0  0  0  0  0  0  0  0
    2.5275   68.9803   82.2118 C   0  0  0  0  0  0  0  0  0  0  0  0
    1.7499   67.8271   82.3281 C   0  0  0  0  0  0  0  0  0  0  0  0
    2.0795   66.8277   83.2680 C   0  0  0  0  0  0  0  0  0  0  0  0
    1.2180   65.6374   83.3776 C   0  0  0  0  0  0  0  0  0  0  0  0
    0.9274   65.2254   84.6361 N   0  0  0  0  0  0  0  0  0  0  0  0
    0.1694   64.1252   84.7686 C   0  0  0  0  0  0  0  0  0  0  0  0
   -0.1012   63.7678   86.0593 O   0  0  0  0  0  0  0  0  0  0  0  0
   -0.2885   63.4207   83.6604 C   0  0  0  0  0  0  0  0  0  0  0  0
   -1.0587   62.2928   83.5098 N   0  0  0  0  0  0  0  0  0  0  0  0
   -1.1495   62.1149   82.2079 C   0  0  0  0  0  0  0  0  0  0  0  0
   -1.8245   61.1079   81.4640 C   0  0  0  0  0  0  0  0  0  0  0  0
   -1.7808   61.1265   80.1200 C   0  0  0  0  0  0  0  0  0  0  0  0
   -1.0564   62.1576   79.3977 C   0  0  0  0  0  0  0  0  0  0  0  0
   -0.4059   63.1255   80.0773 C   0  0  0  0  0  0  0  0  0  0  0  0
    0.3542   64.2133   79.3798 C   0  0  0  0  0  0  0  0  0  0  0  0
   -0.4575   63.0952   81.4874 N   0  0  0  0  0  0  0  0  0  0  0  0
    0.1000   63.9350   82.4330 C   0  0  0  0  0  0  0  0  0  0  0  0
    0.8628   65.0263   82.2274 N   0  0  0  0  0  0  0  0  0  0  0  0
    0.3590   64.4721   86.5471 H   0  0  0  0  0  0  0  0  0  0  0  0
    2.1011   70.2360   81.0312 S   0  0  0  0  0  0  0  0  0  0  0  0
    3.1777   70.2935   80.0660 O   0  0  0  0  0  0  0  0  0  0  0  0
    0.7271   70.0386   80.6212 O   0  0  0  0  0  0  0  0  0  0  0  0
    2.1545   71.6541   81.9748 N   0  0  0  0  0  0  0  0  0  0  0  0
    0.8635   72.4079   82.0960 C   0  0  0  0  0  0  0  0  0  0  0  0
    0.8864   73.7263   81.3012 C   0  0  0  0  0  0  0  0  0  0  0  0
    1.9561   74.6668   81.7002 N   0  0  0  0  0  0  0  0  0  0  0  0
    3.1318   73.9436   82.2336 C   0  0  0  0  0  0  0  0  0  0  0  0
    3.3122   72.5411   81.6247 C   0  0  0  0  0  0  0  0  0  0  0  0
    1.4628   75.6907   82.6308 C   0  0  0  0  0  0  0  0  0  0  0  0
    2.5273   76.7180   83.0029 C   0  0  0  0  0  0  0  0  0  0  0  0
    3.5442   65.9877   84.9309 O   0  0  0  0  0  0  0  0  0  0  0  0
    5.0429   65.4863   86.7107 C   0  0  0  0  0  0  0  0  0  0  0  0
    4.9172   65.7361   85.2186 C   0  0  0  0  0  0  0  0  0  0  0  0
 35 36  1  0  0  0
 36 34  1  0  0  0
 34  1  1  0  0  0
  1  2  1  0  0  0
  2  3  2  0  0  0
  3  4  1  0  0  0
  4 23  1  0  0  0
 23 24  2  0  0  0
 23 25  2  0  0  0
 23 26  1  0  0  0
 26 27  1  0  0  0
 27 28  1  0  0  0
 28 29  1  0  0  0
 29 32  1  0  0  0
 32 33  1  0  0  0
 29 30  1  0  0  0
 30 31  1  0  0  0
  4  5  2  0  0  0
  5  6  1  0  0  0
  6  7  1  0  0  0
  7  8  2  0  0  0
  8  9  1  0  0  0
  9 10  1  0  0  0
  9 11  2  0  0  0
 11 12  1  0  0  0
 12 13  2  0  0  0
 13 14  1  0  0  0
 14 15  2  0  0  0
 15 16  1  0  0  0
 16 17  2  0  0  0
 17 18  1  0  0  0
 17 19  1  0  0  0
 19 20  1  0  0  0
 20 21  2  0  0  0
  6  1  2  0  0  0
 21  7  1  0  0  0
 31 26  1  0  0  0
 20 11  1  0  0  0
 19 13  1  0  0  0
 10 22  1  0  0  0
M  END
> <minimizedAffinity>
-1.81017

$$$$



 36 40  0  0  0  0  0  0  0  0999 V2000
    1.0078   65.3816   83.3582 C   0  0  0  0  0  0  0  0  0  0  0  0
    1.7564   66.5354   83.6392 C   0  0  0  0  0  0  0  0  0  0  0  0
    1.7680   67.6107   82.7495 C   0  0  0  0  0  0  0  0  0  0  0  0
    1.0296   67.5347   81.5711 C   0  0  0  0  0  0  0  0  0  0  0  0
    0.2849   66.3929   81.2715 C   0  0  0  0  0  0  0  0  0  0  0  0
    0.2480   65.3018   82.1655 C   0  0  0  0  0  0  0  0  0  0  0  0
   -0.5710   64.1255   81.8243 C   0  0  0  0  0  0  0  0  0  0  0  0
   -1.2174   63.5294   82.8562 N   0  0  0  0  0  0  0  0  0  0  0  0
   -1.9475   62.4365   82.5819 C   0  0  0  0  0  0  0  0  0  0  0  0
   -2.5862   61.8889   83.6585 O   0  0  0  0  0  0  0  0  0  0  0  0
   -2.0270   61.9208   81.2928 C   0  0  0  0  0  0  0  0  0  0  0  0
   -2.6820   60.8446   80.7442 N   0  0  0  0  0  0  0  0  0  0  0  0
   -2.3685   60.8721   79.4653 C   0  0  0  0  0  0  0  0  0  0  0  0
   -2.7565   60.0053   78.4063 C   0  0  0  0  0  0  0  0  0  0  0  0
   -2.3079   60.2307   77.1588 C   0  0  0  0  0  0  0  0  0  0  0  0
   -1.4289   61.3472   76.8578 C   0  0  0  0  0  0  0  0  0  0  0  0
   -1.0436   62.1858   77.8428 C   0  0  0  0  0  0  0  0  0  0  0  0
   -0.1399   63.3537   77.5846 C   0  0  0  0  0  0  0  0  0  0  0  0
   -1.5196   61.9387   79.1483 N   0  0  0  0  0  0  0  0  0  0  0  0
   -1.2998   62.6113   80.3355 C   0  0  0  0  0  0  0  0  0  0  0  0
   -0.5427   63.7065   80.5413 N   0  0  0  0  0  0  0  0  0  0  0  0
   -2.3164   62.5004   84.3649 H   0  0  0  0  0  0  0  0  0  0  0  0
    1.0644   68.9058   80.4435 S   0  0  0  0  0  0  0  0  0  0  0  0
    2.1531   68.6680   79.5205 O   0  0  0  0  0  0  0  0  0  0  0  0
   -0.2827   69.1555   79.9765 O   0  0  0  0  0  0  0  0  0  0  0  0
    1.5012   70.2012   81.4612 N   0  0  0  0  0  0  0  0  0  0  0  0
    0.4554   71.2577   81.6602 C   0  0  0  0  0  0  0  0  0  0  0  0
    0.8133   72.5695   80.9381 C   0  0  0  0  0  0  0  0  0  0  0  0
    2.0979   73.1717   81.3570 N   0  0  0  0  0  0  0  0  0  0  0  0
    3.0492   72.1354   81.8162 C   0  0  0  0  0  0  0  0  0  0  0  0
    2.8466   70.7738   81.1269 C   0  0  0  0  0  0  0  0  0  0  0  0
    1.9035   74.2311   82.3557 C   0  0  0  0  0  0  0  0  0  0  0  0
    1.2102   75.4649   81.7863 C   0  0  0  0  0  0  0  0  0  0  0  0
    0.9830   64.2761   84.1715 O   0  0  0  0  0  0  0  0  0  0  0  0
    0.0991   63.3635   86.1842 C   0  0  0  0  0  0  0  0  0  0  0  0
    0.9434   64.4725   85.5825 C   0  0  0  0  0  0  0  0  0  0  0  0
 35 36  1  0  0  0
 36 34  1  0  0  0
 34  1  1  0  0  0
  1  2  1  0  0  0
  2  3  2  0  0  0
  3  4  1  0  0  0
  4 23  1  0  0  0
 23 24  2  0  0  0
 23 25  2  0  0  0
 23 26  1  0  0  0
 26 27  1  0  0  0
 27 28  1  0  0  0
 28 29  1  0  0  0
 29 32  1  0  0  0
 32 33  1  0  0  0
 29 30  1  0  0  0
 30 31  1  0  0  0
  4  5  2  0  0  0
  5  6  1  0  0  0
  6  7  1  0  0  0
  7  8  2  0  0  0
  8  9  1  0  0  0
  9 10  1  0  0  0
  9 11  2  0  0  0
 11 12  1  0  0  0
 12 13  2  0  0  0
 13 14  1  0  0  0
 14 15  2  0  0  0
 15 16  1  0  0  0
 16 17  2  0  0  0
 17 18  1  0  0  0
 17 19  1  0  0  0
 19 20  1  0  0  0
 20 21  2  0  0  0
  6  1  2  0  0  0
 21  7  1  0  0  0
 31 26  1  0  0  0
 20 11  1  0  0  0
 19 13  1  0  0  0
 10 22  1  0  0  0
M  END
> <minimizedAffinity>
-1.78482

$$$$



 36 40  0  0  0  0  0  0  0  0999 V2000
   -0.1163   63.8310   84.4974 C   0  0  0  0  0  0  0  0  0  0  0  0
    0.6729   64.7493   85.2077 C   0  0  0  0  0  0  0  0  0  0  0  0
    1.4269   65.7111   84.5335 C   0  0  0  0  0  0  0  0  0  0  0  0
    1.3952   65.7567   83.1419 C   0  0  0  0  0  0  0  0  0  0  0  0
    0.6219   64.8474   82.4186 C   0  0  0  0  0  0  0  0  0  0  0  0
   -0.1593   63.8779   83.0824 C   0  0  0  0  0  0  0  0  0  0  0  0
   -0.9820   62.9531   82.2831 C   0  0  0  0  0  0  0  0  0  0  0  0
   -1.8029   62.1302   82.9809 N   0  0  0  0  0  0  0  0  0  0  0  0
   -2.5429   61.2546   82.2821 C   0  0  0  0  0  0  0  0  0  0  0  0
   -3.3600   60.4628   83.0385 O   0  0  0  0  0  0  0  0  0  0  0  0
   -2.4615   61.1784   80.8959 C   0  0  0  0  0  0  0  0  0  0  0  0
   -3.0866   60.3971   79.9541 N   0  0  0  0  0  0  0  0  0  0  0  0
   -2.5893   60.7925   78.8004 C   0  0  0  0  0  0  0  0  0  0  0  0
   -2.8650   60.3427   77.4795 C   0  0  0  0  0  0  0  0  0  0  0  0
   -2.2281   60.9022   76.4356 C   0  0  0  0  0  0  0  0  0  0  0  0
   -1.2559   61.9655   76.6200 C   0  0  0  0  0  0  0  0  0  0  0  0
   -0.9736   62.4121   77.8621 C   0  0  0  0  0  0  0  0  0  0  0  0
    0.0195   63.5081   78.1063 C   0  0  0  0  0  0  0  0  0  0  0  0
   -1.6471   61.8166   78.9501 N   0  0  0  0  0  0  0  0  0  0  0  0
   -1.5666   62.0593   80.3083 C   0  0  0  0  0  0  0  0  0  0  0  0
   -0.7898   62.9559   80.9469 N   0  0  0  0  0  0  0  0  0  0  0  0
   -3.1634   60.7932   83.9317 H   0  0  0  0  0  0  0  0  0  0  0  0
    2.3695   66.9780   82.2982 S   0  0  0  0  0  0  0  0  0  0  0  0
    3.5514   67.2061   83.1013 O   0  0  0  0  0  0  0  0  0  0  0  0
    2.4632   66.6113   80.9012 O   0  0  0  0  0  0  0  0  0  0  0  0
    1.3812   68.3628   82.3984 N   0  0  0  0  0  0  0  0  0  0  0  0
    0.4318   68.5725   81.2564 C   0  0  0  0  0  0  0  0  0  0  0  0
    0.8564   69.7498   80.3596 C   0  0  0  0  0  0  0  0  0  0  0  0
    0.9599   71.0494   81.0584 N   0  0  0  0  0  0  0  0  0  0  0  0
    1.3081   70.8630   82.4845 C   0  0  0  0  0  0  0  0  0  0  0  0
    2.1516   69.6019   82.7460 C   0  0  0  0  0  0  0  0  0  0  0  0
   -0.2516   71.8612   80.8825 C   0  0  0  0  0  0  0  0  0  0  0  0
   -0.0937   73.2856   81.4049 C   0  0  0  0  0  0  0  0  0  0  0  0
   -0.8508   62.8384   85.0968 O   0  0  0  0  0  0  0  0  0  0  0  0
   -1.0697   61.8255   87.2395 C   0  0  0  0  0  0  0  0  0  0  0  0
   -1.3534   63.0655   86.4108 C   0  0  0  0  0  0  0  0  0  0  0  0
 35 36  1  0  0  0
 36 34  1  0  0  0
 34  1  1  0  0  0
  1  2  1  0  0  0
  2  3  2  0  0  0
  3  4  1  0  0  0
  4 23  1  0  0  0
 23 24  2  0  0  0
 23 25  2  0  0  0
 23 26  1  0  0  0
 26 27  1  0  0  0
 27 28  1  0  0  0
 28 29  1  0  0  0
 29 32  1  0  0  0
 32 33  1  0  0  0
 29 30  1  0  0  0
 30 31  1  0  0  0
  4  5  2  0  0  0
  5  6  1  0  0  0
  6  7  1  0  0  0
  7  8  2  0  0  0
  8  9  1  0  0  0
  9 10  1  0  0  0
  9 11  2  0  0  0
 11 12  1  0  0  0
 12 13  2  0  0  0
 13 14  1  0  0  0
 14 15  2  0  0  0
 15 16  1  0  0  0
 16 17  2  0  0  0
 17 18  1  0  0  0
 17 19  1  0  0  0
 19 20  1  0  0  0
 20 21  2  0  0  0
  6  1  2  0  0  0
 21  7  1  0  0  0
 31 26  1  0  0  0
 20 11  1  0  0  0
 19 13  1  0  0  0
 10 22  1  0  0  0
M  END
> <minimizedAffinity>
-1.50486

$$$$



 36 40  0  0  0  0  0  0  0  0999 V2000
    1.0780   74.0044   81.6839 C   0  0  0  0  0  0  0  0  0  0  0  0
    0.3198   72.8943   81.2796 C   0  0  0  0  0  0  0  0  0  0  0  0
    0.8753   71.6140   81.2814 C   0  0  0  0  0  0  0  0  0  0  0  0
    2.1960   71.4392   81.6875 C   0  0  0  0  0  0  0  0  0  0  0  0
    2.9673   72.5320   82.0861 C   0  0  0  0  0  0  0  0  0  0  0  0
    2.4189   73.8320   82.1061 C   0  0  0  0  0  0  0  0  0  0  0  0
    3.2585   74.9552   82.5584 C   0  0  0  0  0  0  0  0  0  0  0  0
    2.8062   75.6412   83.6367 N   0  0  0  0  0  0  0  0  0  0  0  0
    3.5339   76.6895   84.0542 C   0  0  0  0  0  0  0  0  0  0  0  0
    3.0357   77.3318   85.1524 O   0  0  0  0  0  0  0  0  0  0  0  0
    4.6989   77.0723   83.3984 C   0  0  0  0  0  0  0  0  0  0  0  0
    5.6126   78.0778   83.6046 N   0  0  0  0  0  0  0  0  0  0  0  0
    6.5048   77.9275   82.6474 C   0  0  0  0  0  0  0  0  0  0  0  0
    7.6787   78.6777   82.3608 C   0  0  0  0  0  0  0  0  0  0  0  0
    8.4527   78.3358   81.3156 C   0  0  0  0  0  0  0  0  0  0  0  0
    8.1211   77.2088   80.4614 C   0  0  0  0  0  0  0  0  0  0  0  0
    7.0128   76.4792   80.7089 C   0  0  0  0  0  0  0  0  0  0  0  0
    6.6273   75.3057   79.8593 C   0  0  0  0  0  0  0  0  0  0  0  0
    6.2074   76.8480   81.8076 N   0  0  0  0  0  0  0  0  0  0  0  0
    5.0362   76.3012   82.2968 C   0  0  0  0  0  0  0  0  0  0  0  0
    4.3508   75.2441   81.8195 N   0  0  0  0  0  0  0  0  0  0  0  0
    2.2435   76.7984   85.3357 H   0  0  0  0  0  0  0  0  0  0  0  0
    2.8924   69.8060   81.6725 S   0  0  0  0  0  0  0  0  0  0  0  0
    3.6481   69.6787   80.4450 O   0  0  0  0  0  0  0  0  0  0  0  0
    3.4956   69.5479   82.9626 O   0  0  0  0  0  0  0  0  0  0  0  0
    1.5063   68.8220   81.5498 N   0  0  0  0  0  0  0  0  0  0  0  0
    1.3760   67.7442   82.5848 C   0  0  0  0  0  0  0  0  0  0  0  0
    1.6147   66.3427   81.9938 C   0  0  0  0  0  0  0  0  0  0  0  0
    0.6979   65.9749   80.8926 N   0  0  0  0  0  0  0  0  0  0  0  0
    0.2441   67.1733   80.1526 C   0  0  0  0  0  0  0  0  0  0  0  0
    1.2736   68.3180   80.1565 C   0  0  0  0  0  0  0  0  0  0  0  0
   -0.4247   65.1558   81.3683 C   0  0  0  0  0  0  0  0  0  0  0  0
   -0.5540   63.8328   80.6202 C   0  0  0  0  0  0  0  0  0  0  0  0
    0.6044   75.2927   81.6702 O   0  0  0  0  0  0  0  0  0  0  0  0
   -0.5596   77.1189   80.6827 C   0  0  0  0  0  0  0  0  0  0  0  0
   -0.4809   75.6075   80.8018 C   0  0  0  0  0  0  0  0  0  0  0  0
 35 36  1  0  0  0
 36 34  1  0  0  0
 34  1  1  0  0  0
  1  2  1  0  0  0
  2  3  2  0  0  0
  3  4  1  0  0  0
  4 23  1  0  0  0
 23 24  2  0  0  0
 23 25  2  0  0  0
 23 26  1  0  0  0
 26 27  1  0  0  0
 27 28  1  0  0  0
 28 29  1  0  0  0
 29 32  1  0  0  0
 32 33  1  0  0  0
 29 30  1  0  0  0
 30 31  1  0  0  0
  4  5  2  0  0  0
  5  6  1  0  0  0
  6  7  1  0  0  0
  7  8  2  0  0  0
  8  9  1  0  0  0
  9 10  1  0  0  0
  9 11  2  0  0  0
 11 12  1  0  0  0
 12 13  2  0  0  0
 13 14  1  0  0  0
 14 15  2  0  0  0
 15 16  1  0  0  0
 16 17  2  0  0  0
 17 18  1  0  0  0
 17 19  1  0  0  0
 19 20  1  0  0  0
 20 21  2  0  0  0
  6  1  2  0  0  0
 21  7  1  0  0  0
 31 26  1  0  0  0
 20 11  1  0  0  0
 19 13  1  0  0  0
 10 22  1  0  0  0
M  END
> <minimizedAffinity>
-1.47959

$$$$



 36 40  0  0  0  0  0  0  0  0999 V2000
    2.6319   68.0994   82.6736 C   0  0  0  0  0  0  0  0  0  0  0  0
    2.2329   66.7778   82.9281 C   0  0  0  0  0  0  0  0  0  0  0  0
    1.5525   66.0402   81.9581 C   0  0  0  0  0  0  0  0  0  0  0  0
    1.2666   66.6245   80.7266 C   0  0  0  0  0  0  0  0  0  0  0  0
    1.6492   67.9396   80.4581 C   0  0  0  0  0  0  0  0  0  0  0  0
    2.3515   68.6962   81.4200 C   0  0  0  0  0  0  0  0  0  0  0  0
    2.7603   70.0722   81.0877 C   0  0  0  0  0  0  0  0  0  0  0  0
    4.0427   70.2306   80.6773 N   0  0  0  0  0  0  0  0  0  0  0  0
    4.4541   71.4774   80.3965 C   0  0  0  0  0  0  0  0  0  0  0  0
    5.7503   71.5718   79.9747 O   0  0  0  0  0  0  0  0  0  0  0  0
    3.6064   72.5709   80.5364 C   0  0  0  0  0  0  0  0  0  0  0  0
    3.7613   73.9199   80.3255 N   0  0  0  0  0  0  0  0  0  0  0  0
    2.5954   74.4482   80.6360 C   0  0  0  0  0  0  0  0  0  0  0  0
    2.1660   75.8040   80.6098 C   0  0  0  0  0  0  0  0  0  0  0  0
    0.9094   76.1149   80.9742 C   0  0  0  0  0  0  0  0  0  0  0  0
   -0.0332   75.0943   81.3980 C   0  0  0  0  0  0  0  0  0  0  0  0
    0.3467   73.7996   81.4334 C   0  0  0  0  0  0  0  0  0  0  0  0
   -0.5879   72.7081   81.8607 C   0  0  0  0  0  0  0  0  0  0  0  0
    1.6681   73.4852   81.0500 N   0  0  0  0  0  0  0  0  0  0  0  0
    2.3294   72.2733   80.9866 C   0  0  0  0  0  0  0  0  0  0  0  0
    1.8533   71.0508   81.2932 N   0  0  0  0  0  0  0  0  0  0  0  0
    6.0189   70.6373   79.9904 H   0  0  0  0  0  0  0  0  0  0  0  0
    0.3894   65.6775   79.5074 S   0  0  0  0  0  0  0  0  0  0  0  0
   -0.8271   66.4000   79.2041 O   0  0  0  0  0  0  0  0  0  0  0  0
    1.3177   65.2886   78.4673 O   0  0  0  0  0  0  0  0  0  0  0  0
   -0.0280   64.2700   80.3730 N   0  0  0  0  0  0  0  0  0  0  0  0
   -0.0482   62.9968   79.5802 C   0  0  0  0  0  0  0  0  0  0  0  0
   -1.4806   62.4825   79.3479 C   0  0  0  0  0  0  0  0  0  0  0  0
   -2.2463   62.2144   80.5849 N   0  0  0  0  0  0  0  0  0  0  0  0
   -1.7966   63.0879   81.6915 C   0  0  0  0  0  0  0  0  0  0  0  0
   -1.2575   64.4484   81.2133 C   0  0  0  0  0  0  0  0  0  0  0  0
   -2.2128   60.7919   80.9494 C   0  0  0  0  0  0  0  0  0  0  0  0
   -2.9807   59.9092   79.9706 C   0  0  0  0  0  0  0  0  0  0  0  0
    3.2701   68.8907   83.5959 O   0  0  0  0  0  0  0  0  0  0  0  0
    5.1948   67.9458   84.6293 C   0  0  0  0  0  0  0  0  0  0  0  0
    3.7267   68.2901   84.8050 C   0  0  0  0  0  0  0  0  0  0  0  0
 35 36  1  0  0  0
 36 34  1  0  0  0
 34  1  1  0  0  0
  1  2  1  0  0  0
  2  3  2  0  0  0
  3  4  1  0  0  0
  4 23  1  0  0  0
 23 24  2  0  0  0
 23 25  2  0  0  0
 23 26  1  0  0  0
 26 27  1  0  0  0
 27 28  1  0  0  0
 28 29  1  0  0  0
 29 32  1  0  0  0
 32 33  1  0  0  0
 29 30  1  0  0  0
 30 31  1  0  0  0
  4  5  2  0  0  0
  5  6  1  0  0  0
  6  7  1  0  0  0
  7  8  2  0  0  0
  8  9  1  0  0  0
  9 10  1  0  0  0
  9 11  2  0  0  0
 11 12  1  0  0  0
 12 13  2  0  0  0
 13 14  1  0  0  0
 14 15  2  0  0  0
 15 16  1  0  0  0
 16 17  2  0  0  0
 17 18  1  0  0  0
 17 19  1  0  0  0
 19 20  1  0  0  0
 20 21  2  0  0  0
  6  1  2  0  0  0
 21  7  1  0  0  0
 31 26  1  0  0  0
 20 11  1  0  0  0
 19 13  1  0  0  0
 10 22  1  0  0  0
M  END
> <minimizedAffinity>
-1.46167

$$$$



 36 40  0  0  0  0  0  0  0  0999 V2000
    1.0657   74.2231   81.6812 C   0  0  0  0  0  0  0  0  0  0  0  0
   -0.0330   73.3781   81.4588 C   0  0  0  0  0  0  0  0  0  0  0  0
    0.1521   72.0116   81.2431 C   0  0  0  0  0  0  0  0  0  0  0  0
    1.4411   71.4842   81.2476 C   0  0  0  0  0  0  0  0  0  0  0  0
    2.5460   72.3102   81.4599 C   0  0  0  0  0  0  0  0  0  0  0  0
    2.3784   73.6913   81.6953 C   0  0  0  0  0  0  0  0  0  0  0  0
    3.5688   74.5242   81.9410 C   0  0  0  0  0  0  0  0  0  0  0  0
    3.6467   75.1073   83.1624 N   0  0  0  0  0  0  0  0  0  0  0  0
    4.7048   75.8972   83.4057 C   0  0  0  0  0  0  0  0  0  0  0  0
    4.7354   76.4446   84.6572 O   0  0  0  0  0  0  0  0  0  0  0  0
    5.6779   76.1262   82.4390 C   0  0  0  0  0  0  0  0  0  0  0  0
    6.8334   76.8696   82.4187 N   0  0  0  0  0  0  0  0  0  0  0  0
    7.3313   76.6907   81.2125 C   0  0  0  0  0  0  0  0  0  0  0  0
    8.5151   77.2125   80.6216 C   0  0  0  0  0  0  0  0  0  0  0  0
    8.8298   76.8879   79.3550 C   0  0  0  0  0  0  0  0  0  0  0  0
    7.9862   76.0090   78.5641 C   0  0  0  0  0  0  0  0  0  0  0  0
    6.8562   75.4995   79.0986 C   0  0  0  0  0  0  0  0  0  0  0  0
    5.9527   74.5863   78.3258 C   0  0  0  0  0  0  0  0  0  0  0  0
    6.5355   75.8480   80.4280 N   0  0  0  0  0  0  0  0  0  0  0  0
    5.4657   75.4890   81.2261 C   0  0  0  0  0  0  0  0  0  0  0  0
    4.4265   74.6913   80.9120 N   0  0  0  0  0  0  0  0  0  0  0  0
    3.9267   76.0680   85.0442 H   0  0  0  0  0  0  0  0  0  0  0  0
    1.6611   69.7461   80.9593 S   0  0  0  0  0  0  0  0  0  0  0  0
    0.3842   69.2240   80.5223 O   0  0  0  0  0  0  0  0  0  0  0  0
    2.8642   69.5550   80.1776 O   0  0  0  0  0  0  0  0  0  0  0  0
    1.9706   69.1548   82.5274 N   0  0  0  0  0  0  0  0  0  0  0  0
    3.2285   69.6508   83.1767 C   0  0  0  0  0  0  0  0  0  0  0  0
    4.3052   68.5538   83.2653 C   0  0  0  0  0  0  0  0  0  0  0  0
    3.8953   67.3488   84.0190 N   0  0  0  0  0  0  0  0  0  0  0  0
    2.4330   67.1379   83.9351 C   0  0  0  0  0  0  0  0  0  0  0  0
    1.8151   67.6664   82.6278 C   0  0  0  0  0  0  0  0  0  0  0  0
    4.3740   67.3848   85.4072 C   0  0  0  0  0  0  0  0  0  0  0  0
    5.7480   66.7449   85.5789 C   0  0  0  0  0  0  0  0  0  0  0  0
    0.9558   75.5793   81.8625 O   0  0  0  0  0  0  0  0  0  0  0  0
   -0.2350   77.6397   81.9064 C   0  0  0  0  0  0  0  0  0  0  0  0
   -0.1675   76.2505   81.2978 C   0  0  0  0  0  0  0  0  0  0  0  0
 35 36  1  0  0  0
 36 34  1  0  0  0
 34  1  1  0  0  0
  1  2  1  0  0  0
  2  3  2  0  0  0
  3  4  1  0  0  0
  4 23  1  0  0  0
 23 24  2  0  0  0
 23 25  2  0  0  0
 23 26  1  0  0  0
 26 27  1  0  0  0
 27 28  1  0  0  0
 28 29  1  0  0  0
 29 32  1  0  0  0
 32 33  1  0  0  0
 29 30  1  0  0  0
 30 31  1  0  0  0
  4  5  2  0  0  0
  5  6  1  0  0  0
  6  7  1  0  0  0
  7  8  2  0  0  0
  8  9  1  0  0  0
  9 10  1  0  0  0
  9 11  2  0  0  0
 11 12  1  0  0  0
 12 13  2  0  0  0
 13 14  1  0  0  0
 14 15  2  0  0  0
 15 16  1  0  0  0
 16 17  2  0  0  0
 17 18  1  0  0  0
 17 19  1  0  0  0
 19 20  1  0  0  0
 20 21  2  0  0  0
  6  1  2  0  0  0
 21  7  1  0  0  0
 31 26  1  0  0  0
 20 11  1  0  0  0
 19 13  1  0  0  0
 10 22  1  0  0  0
M  END
> <minimizedAffinity>
-1.43936

$$$$



 36 40  0  0  0  0  0  0  0  0999 V2000
    1.7392   73.9118   81.5503 C   0  0  0  0  0  0  0  0  0  0  0  0
    0.5673   73.1829   81.8074 C   0  0  0  0  0  0  0  0  0  0  0  0
    0.5532   71.7925   81.6879 C   0  0  0  0  0  0  0  0  0  0  0  0
    1.7145   71.1241   81.3080 C   0  0  0  0  0  0  0  0  0  0  0  0
    2.8871   71.8326   81.0414 C   0  0  0  0  0  0  0  0  0  0  0  0
    2.9257   73.2371   81.1718 C   0  0  0  0  0  0  0  0  0  0  0  0
    4.1903   73.9452   80.9064 C   0  0  0  0  0  0  0  0  0  0  0  0
    4.8215   73.6252   79.7501 N   0  0  0  0  0  0  0  0  0  0  0  0
    5.9920   74.2313   79.4946 C   0  0  0  0  0  0  0  0  0  0  0  0
    6.5728   73.8792   78.3090 O   0  0  0  0  0  0  0  0  0  0  0  0
    6.5491   75.1406   80.3871 C   0  0  0  0  0  0  0  0  0  0  0  0
    7.7029   75.8870   80.3790 N   0  0  0  0  0  0  0  0  0  0  0  0
    7.6788   76.5620   81.5097 C   0  0  0  0  0  0  0  0  0  0  0  0
    8.6108   77.4958   82.0413 C   0  0  0  0  0  0  0  0  0  0  0  0
    8.3748   78.0717   83.2333 C   0  0  0  0  0  0  0  0  0  0  0  0
    7.1815   77.7648   84.0024 C   0  0  0  0  0  0  0  0  0  0  0  0
    6.2799   76.8819   83.5232 C   0  0  0  0  0  0  0  0  0  0  0  0
    5.0316   76.5323   84.2762 C   0  0  0  0  0  0  0  0  0  0  0  0
    6.5386   76.2827   82.2718 N   0  0  0  0  0  0  0  0  0  0  0  0
    5.8136   75.3600   81.5416 C   0  0  0  0  0  0  0  0  0  0  0  0
    4.6399   74.7830   81.8648 N   0  0  0  0  0  0  0  0  0  0  0  0
    5.9169   73.2516   77.9603 H   0  0  0  0  0  0  0  0  0  0  0  0
    1.6773   69.3562   81.1482 S   0  0  0  0  0  0  0  0  0  0  0  0
    0.3056   68.9840   80.8761 O   0  0  0  0  0  0  0  0  0  0  0  0
    2.7591   68.9470   80.2781 O   0  0  0  0  0  0  0  0  0  0  0  0
    2.0667   68.8413   82.7254 N   0  0  0  0  0  0  0  0  0  0  0  0
    3.2765   69.4791   83.3414 C   0  0  0  0  0  0  0  0  0  0  0  0
    4.4601   68.4995   83.4399 C   0  0  0  0  0  0  0  0  0  0  0  0
    4.1851   67.2797   84.2303 N   0  0  0  0  0  0  0  0  0  0  0  0
    2.7508   66.9197   84.1756 C   0  0  0  0  0  0  0  0  0  0  0  0
    2.0646   67.3480   82.8658 C   0  0  0  0  0  0  0  0  0  0  0  0
    4.6767   67.4010   85.6091 C   0  0  0  0  0  0  0  0  0  0  0  0
    5.7461   66.3685   85.9519 C   0  0  0  0  0  0  0  0  0  0  0  0
    1.8106   75.2811   81.6132 O   0  0  0  0  0  0  0  0  0  0  0  0
    0.3280   76.9270   82.4839 C   0  0  0  0  0  0  0  0  0  0  0  0
    0.6446   76.0367   81.2958 C   0  0  0  0  0  0  0  0  0  0  0  0
 35 36  1  0  0  0
 36 34  1  0  0  0
 34  1  1  0  0  0
  1  2  1  0  0  0
  2  3  2  0  0  0
  3  4  1  0  0  0
  4 23  1  0  0  0
 23 24  2  0  0  0
 23 25  2  0  0  0
 23 26  1  0  0  0
 26 27  1  0  0  0
 27 28  1  0  0  0
 28 29  1  0  0  0
 29 32  1  0  0  0
 32 33  1  0  0  0
 29 30  1  0  0  0
 30 31  1  0  0  0
  4  5  2  0  0  0
  5  6  1  0  0  0
  6  7  1  0  0  0
  7  8  2  0  0  0
  8  9  1  0  0  0
  9 10  1  0  0  0
  9 11  2  0  0  0
 11 12  1  0  0  0
 12 13  2  0  0  0
 13 14  1  0  0  0
 14 15  2  0  0  0
 15 16  1  0  0  0
 16 17  2  0  0  0
 17 18  1  0  0  0
 17 19  1  0  0  0
 19 20  1  0  0  0
 20 21  2  0  0  0
  6  1  2  0  0  0
 21  7  1  0  0  0
 31 26  1  0  0  0
 20 11  1  0  0  0
 19 13  1  0  0  0
 10 22  1  0  0  0
M  END
> <minimizedAffinity>
-1.42142

$$$$



 36 40  0  0  0  0  0  0  0  0999 V2000
    3.8957   73.5346   80.9124 C   0  0  0  0  0  0  0  0  0  0  0  0
    4.5230   72.3551   80.4810 C   0  0  0  0  0  0  0  0  0  0  0  0
    3.8565   71.1304   80.5439 C   0  0  0  0  0  0  0  0  0  0  0  0
    2.5567   71.0809   81.0417 C   0  0  0  0  0  0  0  0  0  0  0  0
    1.9197   72.2421   81.4817 C   0  0  0  0  0  0  0  0  0  0  0  0
    2.5709   73.4919   81.4117 C   0  0  0  0  0  0  0  0  0  0  0  0
    1.8541   74.6978   81.8622 C   0  0  0  0  0  0  0  0  0  0  0  0
    2.3529   75.3114   82.9634 N   0  0  0  0  0  0  0  0  0  0  0  0
    1.7033   76.3955   83.4166 C   0  0  0  0  0  0  0  0  0  0  0  0
    2.2609   76.9782   84.5195 O   0  0  0  0  0  0  0  0  0  0  0  0
    0.5519   76.8653   82.7943 C   0  0  0  0  0  0  0  0  0  0  0  0
   -0.2908   77.9227   83.0398 N   0  0  0  0  0  0  0  0  0  0  0  0
   -1.2118   77.8479   82.1013 C   0  0  0  0  0  0  0  0  0  0  0  0
   -2.3396   78.6786   81.8539 C   0  0  0  0  0  0  0  0  0  0  0  0
   -3.1559   78.4080   80.8201 C   0  0  0  0  0  0  0  0  0  0  0  0
   -2.9160   77.2793   79.9380 C   0  0  0  0  0  0  0  0  0  0  0  0
   -1.8540   76.4734   80.1489 C   0  0  0  0  0  0  0  0  0  0  0  0
   -1.5607   75.2972   79.2668 C   0  0  0  0  0  0  0  0  0  0  0  0
   -1.0050   76.7662   81.2376 N   0  0  0  0  0  0  0  0  0  0  0  0
    0.1357   76.1326   81.6934 C   0  0  0  0  0  0  0  0  0  0  0  0
    0.7328   75.0348   81.1902 N   0  0  0  0  0  0  0  0  0  0  0  0
    3.0317   76.4029   84.6635 H   0  0  0  0  0  0  0  0  0  0  0  0
    1.7268   69.5136   81.1269 S   0  0  0  0  0  0  0  0  0  0  0  0
    0.5718   69.6914   81.9805 O   0  0  0  0  0  0  0  0  0  0  0  0
    1.6023   68.9820   79.7865 O   0  0  0  0  0  0  0  0  0  0  0  0
    2.8595   68.5481   81.9569 N   0  0  0  0  0  0  0  0  0  0  0  0
    2.4587   67.1210   82.1865 C   0  0  0  0  0  0  0  0  0  0  0  0
    2.1285   66.8434   83.6645 C   0  0  0  0  0  0  0  0  0  0  0  0
    3.2361   67.1207   84.6050 N   0  0  0  0  0  0  0  0  0  0  0  0
    4.1196   68.1900   84.0894 C   0  0  0  0  0  0  0  0  0  0  0  0
    3.3873   69.2078   83.1962 C   0  0  0  0  0  0  0  0  0  0  0  0
    3.9793   65.9008   84.9471 C   0  0  0  0  0  0  0  0  0  0  0  0
    5.0691   66.1407   85.9871 C   0  0  0  0  0  0  0  0  0  0  0  0
    4.5074   74.7634   80.9121 O   0  0  0  0  0  0  0  0  0  0  0  0
    6.6167   75.7319   81.4393 C   0  0  0  0  0  0  0  0  0  0  0  0
    5.8579   74.8490   80.4650 C   0  0  0  0  0  0  0  0  0  0  0  0
 35 36  1  0  0  0
 36 34  1  0  0  0
 34  1  1  0  0  0
  1  2  1  0  0  0
  2  3  2  0  0  0
  3  4  1  0  0  0
  4 23  1  0  0  0
 23 24  2  0  0  0
 23 25  2  0  0  0
 23 26  1  0  0  0
 26 27  1  0  0  0
 27 28  1  0  0  0
 28 29  1  0  0  0
 29 32  1  0  0  0
 32 33  1  0  0  0
 29 30  1  0  0  0
 30 31  1  0  0  0
  4  5  2  0  0  0
  5  6  1  0  0  0
  6  7  1  0  0  0
  7  8  2  0  0  0
  8  9  1  0  0  0
  9 10  1  0  0  0
  9 11  2  0  0  0
 11 12  1  0  0  0
 12 13  2  0  0  0
 13 14  1  0  0  0
 14 15  2  0  0  0
 15 16  1  0  0  0
 16 17  2  0  0  0
 17 18  1  0  0  0
 17 19  1  0  0  0
 19 20  1  0  0  0
 20 21  2  0  0  0
  6  1  2  0  0  0
 21  7  1  0  0  0
 31 26  1  0  0  0
 20 11  1  0  0  0
 19 13  1  0  0  0
 10 22  1  0  0  0
M  END
> <minimizedAffinity>
-1.40125

$$$$



 36 40  0  0  0  0  0  0  0  0999 V2000
    1.8413   77.1296   83.5134 C   0  0  0  0  0  0  0  0  0  0  0  0
    2.8462   77.8864   84.1363 C   0  0  0  0  0  0  0  0  0  0  0  0
    4.1795   77.7600   83.7434 C   0  0  0  0  0  0  0  0  0  0  0  0
    4.5135   76.8720   82.7238 C   0  0  0  0  0  0  0  0  0  0  0  0
    3.5289   76.1061   82.0977 C   0  0  0  0  0  0  0  0  0  0  0  0
    2.1736   76.2312   82.4700 C   0  0  0  0  0  0  0  0  0  0  0  0
    1.1616   75.4236   81.7666 C   0  0  0  0  0  0  0  0  0  0  0  0
    1.1895   74.0900   82.0086 N   0  0  0  0  0  0  0  0  0  0  0  0
    0.2993   73.3234   81.3586 C   0  0  0  0  0  0  0  0  0  0  0  0
    0.3667   71.9911   81.6541 O   0  0  0  0  0  0  0  0  0  0  0  0
   -0.6078   73.8691   80.4568 C   0  0  0  0  0  0  0  0  0  0  0  0
   -1.6012   73.3322   79.6738 N   0  0  0  0  0  0  0  0  0  0  0  0
   -2.1178   74.3583   79.0296 C   0  0  0  0  0  0  0  0  0  0  0  0
   -3.1781   74.4082   78.0828 C   0  0  0  0  0  0  0  0  0  0  0  0
   -3.5422   75.5870   77.5476 C   0  0  0  0  0  0  0  0  0  0  0  0
   -2.8766   76.8251   77.9131 C   0  0  0  0  0  0  0  0  0  0  0  0
   -1.8666   76.8081   78.8084 C   0  0  0  0  0  0  0  0  0  0  0  0
   -1.1488   78.0578   79.2211 C   0  0  0  0  0  0  0  0  0  0  0  0
   -1.4923   75.5653   79.3626 N   0  0  0  0  0  0  0  0  0  0  0  0
   -0.5142   75.2415   80.2838 C   0  0  0  0  0  0  0  0  0  0  0  0
    0.3565   76.0679   80.8953 N   0  0  0  0  0  0  0  0  0  0  0  0
    1.0873   71.9821   82.3070 H   0  0  0  0  0  0  0  0  0  0  0  0
    6.2155   76.7133   82.2437 S   0  0  0  0  0  0  0  0  0  0  0  0
    6.7302   78.0529   82.0578 O   0  0  0  0  0  0  0  0  0  0  0  0
    6.8614   75.7712   83.1326 O   0  0  0  0  0  0  0  0  0  0  0  0
    6.0932   75.9720   80.7140 N   0  0  0  0  0  0  0  0  0  0  0  0
    6.5630   74.5496   80.6373 C   0  0  0  0  0  0  0  0  0  0  0  0
    7.8869   74.4185   79.8624 C   0  0  0  0  0  0  0  0  0  0  0  0
    7.8366   74.9156   78.4700 N   0  0  0  0  0  0  0  0  0  0  0  0
    6.8389   75.9988   78.3252 C   0  0  0  0  0  0  0  0  0  0  0  0
    6.6449   76.8244   79.6101 C   0  0  0  0  0  0  0  0  0  0  0  0
    7.6188   73.8258   77.5095 C   0  0  0  0  0  0  0  0  0  0  0  0
    6.6254   74.1912   76.4112 C   0  0  0  0  0  0  0  0  0  0  0  0
    0.5186   77.1789   83.8767 O   0  0  0  0  0  0  0  0  0  0  0  0
   -1.3305   78.6013   84.3489 C   0  0  0  0  0  0  0  0  0  0  0  0
    0.0899   78.2314   84.7367 C   0  0  0  0  0  0  0  0  0  0  0  0
 35 36  1  0  0  0
 36 34  1  0  0  0
 34  1  1  0  0  0
  1  2  1  0  0  0
  2  3  2  0  0  0
  3  4  1  0  0  0
  4 23  1  0  0  0
 23 24  2  0  0  0
 23 25  2  0  0  0
 23 26  1  0  0  0
 26 27  1  0  0  0
 27 28  1  0  0  0
 28 29  1  0  0  0
 29 32  1  0  0  0
 32 33  1  0  0  0
 29 30  1  0  0  0
 30 31  1  0  0  0
  4  5  2  0  0  0
  5  6  1  0  0  0
  6  7  1  0  0  0
  7  8  2  0  0  0
  8  9  1  0  0  0
  9 10  1  0  0  0
  9 11  2  0  0  0
 11 12  1  0  0  0
 12 13  2  0  0  0
 13 14  1  0  0  0
 14 15  2  0  0  0
 15 16  1  0  0  0
 16 17  2  0  0  0
 17 18  1  0  0  0
 17 19  1  0  0  0
 19 20  1  0  0  0
 20 21  2  0  0  0
  6  1  2  0  0  0
 21  7  1  0  0  0
 31 26  1  0  0  0
 20 11  1  0  0  0
 19 13  1  0  0  0
 10 22  1  0  0  0
M  END
> <minimizedAffinity>
-1.37786

$$$$
