


 24 26  0  0  0  0  0  0  0  0999 V2000
    2.5127   67.4480   82.8905 C   0  0  0  0  0  0  0  0  0  0  0  0
    2.5512   68.8245   82.8069 N   0  0  0  0  0  0  0  0  0  0  0  0
    1.6718   69.1564   81.8783 C   0  0  0  0  0  0  0  0  0  0  0  0
    1.3693   70.5404   81.4406 C   0  0  0  0  0  0  0  0  0  0  0  0
    1.0656   68.0322   81.3666 N   0  0  0  0  0  0  0  0  0  0  0  0
    0.0977   67.8111   80.4126 C   0  0  0  0  0  0  0  0  0  0  0  0
   -0.3740   68.9247   79.8288 O   0  0  0  0  0  0  0  0  0  0  0  0
   -0.3394   66.6447   80.0918 N   0  0  0  0  0  0  0  0  0  0  0  0
    0.2369   65.5711   80.7649 C   0  0  0  0  0  0  0  0  0  0  0  0
    1.1556   65.6874   81.6839 N   0  0  0  0  0  0  0  0  0  0  0  0
    1.5897   66.9354   82.0009 C   0  0  0  0  0  0  0  0  0  0  0  0
   -1.0362   68.6541   79.1701 H   0  0  0  0  0  0  0  0  0  0  0  0
   -0.3002   64.2288   80.3869 C   0  0  0  0  0  0  0  0  0  0  0  0
   -0.1321   63.7884   79.0625 C   0  0  0  0  0  0  0  0  0  0  0  0
   -0.6218   62.5444   78.6572 C   0  0  0  0  0  0  0  0  0  0  0  0
   -1.2745   61.7222   79.5722 C   0  0  0  0  0  0  0  0  0  0  0  0
   -1.4422   62.1448   80.8905 C   0  0  0  0  0  0  0  0  0  0  0  0
   -0.9757   63.4021   81.2950 C   0  0  0  0  0  0  0  0  0  0  0  0
   -1.0931   63.7336   82.6195 O   0  0  0  0  0  0  0  0  0  0  0  0
   -1.2569   62.5603   83.4261 C   0  0  0  0  0  0  0  0  0  0  0  0
   -1.0362   62.9546   84.8745 C   0  0  0  0  0  0  0  0  0  0  0  0
    3.3982   66.7201   83.8391 C   0  0  0  0  0  0  0  0  0  0  0  0
    5.3933   66.8678   85.3705 C   0  0  0  0  0  0  0  0  0  0  0  0
    4.3584   67.6514   84.5788 C   0  0  0  0  0  0  0  0  0  0  0  0
 23 24  1  0  0  0
 24 22  1  0  0  0
 22  1  1  0  0  0
  1  2  1  0  0  0
  2  3  2  0  0  0
  3  4  1  0  0  0
  3  5  1  0  0  0
  5  6  1  0  0  0
  6  7  1  0  0  0
  6  8  2  0  0  0
  8  9  1  0  0  0
  9 13  1  0  0  0
 13 14  2  0  0  0
 14 15  1  0  0  0
 15 16  2  0  0  0
 16 17  1  0  0  0
 17 18  2  0  0  0
 18 19  1  0  0  0
 19 20  1  0  0  0
 20 21  1  0  0  0
  9 10  2  0  0  0
 10 11  1  0  0  0
 11  1  2  0  0  0
 11  5  1  0  0  0
 18 13  1  0  0  0
  7 12  1  0  0  0
M  END
> <minimizedAffinity>
-1.33443

$$$$



 24 26  0  0  0  0  0  0  0  0999 V2000
    0.6039   66.2015   81.0566 C   0  0  0  0  0  0  0  0  0  0  0  0
    1.0416   66.3532   82.3561 N   0  0  0  0  0  0  0  0  0  0  0  0
    0.9193   65.1651   82.9212 C   0  0  0  0  0  0  0  0  0  0  0  0
    1.2683   64.8448   84.3263 C   0  0  0  0  0  0  0  0  0  0  0  0
    0.4204   64.2531   82.0198 N   0  0  0  0  0  0  0  0  0  0  0  0
    0.1155   62.9116   82.0775 C   0  0  0  0  0  0  0  0  0  0  0  0
    0.3391   62.3403   83.2722 O   0  0  0  0  0  0  0  0  0  0  0  0
   -0.3422   62.2371   81.0827 N   0  0  0  0  0  0  0  0  0  0  0  0
   -0.5373   62.9481   79.9019 C   0  0  0  0  0  0  0  0  0  0  0  0
   -0.2732   64.2173   79.7560 N   0  0  0  0  0  0  0  0  0  0  0  0
    0.2143   64.8971   80.8269 C   0  0  0  0  0  0  0  0  0  0  0  0
    0.0808   61.4052   83.2044 H   0  0  0  0  0  0  0  0  0  0  0  0
   -1.0531   62.1384   78.7567 C   0  0  0  0  0  0  0  0  0  0  0  0
   -0.1938   61.8870   77.6730 C   0  0  0  0  0  0  0  0  0  0  0  0
   -0.6302   61.1412   76.5752 C   0  0  0  0  0  0  0  0  0  0  0  0
   -1.9249   60.6291   76.5527 C   0  0  0  0  0  0  0  0  0  0  0  0
   -2.7851   60.8661   77.6244 C   0  0  0  0  0  0  0  0  0  0  0  0
   -2.3606   61.6350   78.7155 C   0  0  0  0  0  0  0  0  0  0  0  0
   -3.2164   61.7683   79.7774 O   0  0  0  0  0  0  0  0  0  0  0  0
   -3.5417   60.4882   80.3338 C   0  0  0  0  0  0  0  0  0  0  0  0
   -3.3919   60.5821   81.8407 C   0  0  0  0  0  0  0  0  0  0  0  0
    0.5881   67.3583   80.1210 C   0  0  0  0  0  0  0  0  0  0  0  0
    1.7269   69.5324   80.6904 C   0  0  0  0  0  0  0  0  0  0  0  0
    0.4651   68.6984   80.8459 C   0  0  0  0  0  0  0  0  0  0  0  0
 23 24  1  0  0  0
 24 22  1  0  0  0
 22  1  1  0  0  0
  1  2  1  0  0  0
  2  3  2  0  0  0
  3  4  1  0  0  0
  3  5  1  0  0  0
  5  6  1  0  0  0
  6  7  1  0  0  0
  6  8  2  0  0  0
  8  9  1  0  0  0
  9 13  1  0  0  0
 13 14  2  0  0  0
 14 15  1  0  0  0
 15 16  2  0  0  0
 16 17  1  0  0  0
 17 18  2  0  0  0
 18 19  1  0  0  0
 19 20  1  0  0  0
 20 21  1  0  0  0
  9 10  2  0  0  0
 10 11  1  0  0  0
 11  1  2  0  0  0
 11  5  1  0  0  0
 18 13  1  0  0  0
  7 12  1  0  0  0
M  END
> <minimizedAffinity>
-1.33092

$$$$



 24 26  0  0  0  0  0  0  0  0999 V2000
    0.6189   65.4395   82.3196 C   0  0  0  0  0  0  0  0  0  0  0  0
    1.0071   65.6304   83.6296 N   0  0  0  0  0  0  0  0  0  0  0  0
    0.5926   64.5637   84.2900 C   0  0  0  0  0  0  0  0  0  0  0  0
    0.7835   64.3269   85.7412 C   0  0  0  0  0  0  0  0  0  0  0  0
   -0.0463   63.6904   83.4402 N   0  0  0  0  0  0  0  0  0  0  0  0
   -0.6446   62.4602   83.5968 C   0  0  0  0  0  0  0  0  0  0  0  0
   -0.6199   61.9843   84.8524 O   0  0  0  0  0  0  0  0  0  0  0  0
   -1.1855   61.7985   82.6356 N   0  0  0  0  0  0  0  0  0  0  0  0
   -1.1521   62.4052   81.3831 C   0  0  0  0  0  0  0  0  0  0  0  0
   -0.6046   63.5647   81.1424 N   0  0  0  0  0  0  0  0  0  0  0  0
   -0.0379   64.2331   82.1810 C   0  0  0  0  0  0  0  0  0  0  0  0
   -1.0757   61.1254   84.8508 H   0  0  0  0  0  0  0  0  0  0  0  0
   -1.7712   61.6089   80.2805 C   0  0  0  0  0  0  0  0  0  0  0  0
   -2.9378   60.8750   80.5573 C   0  0  0  0  0  0  0  0  0  0  0  0
   -3.5512   60.1093   79.5627 C   0  0  0  0  0  0  0  0  0  0  0  0
   -3.0131   60.0770   78.2788 C   0  0  0  0  0  0  0  0  0  0  0  0
   -1.8597   60.8056   77.9898 C   0  0  0  0  0  0  0  0  0  0  0  0
   -1.2266   61.5541   78.9902 C   0  0  0  0  0  0  0  0  0  0  0  0
   -0.1449   62.3159   78.6332 O   0  0  0  0  0  0  0  0  0  0  0  0
   -0.3734   62.9691   77.3781 C   0  0  0  0  0  0  0  0  0  0  0  0
   -0.3683   64.4664   77.6231 C   0  0  0  0  0  0  0  0  0  0  0  0
    0.9124   66.4663   81.2836 C   0  0  0  0  0  0  0  0  0  0  0  0
    1.5306   68.8629   80.8129 C   0  0  0  0  0  0  0  0  0  0  0  0
    1.3433   67.8030   81.8868 C   0  0  0  0  0  0  0  0  0  0  0  0
 23 24  1  0  0  0
 24 22  1  0  0  0
 22  1  1  0  0  0
  1  2  1  0  0  0
  2  3  2  0  0  0
  3  4  1  0  0  0
  3  5  1  0  0  0
  5  6  1  0  0  0
  6  7  1  0  0  0
  6  8  2  0  0  0
  8  9  1  0  0  0
  9 13  1  0  0  0
 13 14  2  0  0  0
 14 15  1  0  0  0
 15 16  2  0  0  0
 16 17  1  0  0  0
 17 18  2  0  0  0
 18 19  1  0  0  0
 19 20  1  0  0  0
 20 21  1  0  0  0
  9 10  2  0  0  0
 10 11  1  0  0  0
 11  1  2  0  0  0
 11  5  1  0  0  0
 18 13  1  0  0  0
  7 12  1  0  0  0
M  END
> <minimizedAffinity>
-1.27747

$$$$



 24 26  0  0  0  0  0  0  0  0999 V2000
    2.5058   67.0859   83.1602 C   0  0  0  0  0  0  0  0  0  0  0  0
    2.6156   68.4143   82.8044 N   0  0  0  0  0  0  0  0  0  0  0  0
    1.7413   68.6029   81.8319 C   0  0  0  0  0  0  0  0  0  0  0  0
    1.5058   69.8870   81.1289 C   0  0  0  0  0  0  0  0  0  0  0  0
    1.0691   67.4344   81.5565 N   0  0  0  0  0  0  0  0  0  0  0  0
    0.0768   67.0816   80.6694 C   0  0  0  0  0  0  0  0  0  0  0  0
   -0.3441   68.0814   79.8777 O   0  0  0  0  0  0  0  0  0  0  0  0
   -0.4260   65.9005   80.5889 N   0  0  0  0  0  0  0  0  0  0  0  0
    0.1028   64.9519   81.4597 C   0  0  0  0  0  0  0  0  0  0  0  0
    1.0399   65.1977   82.3334 N   0  0  0  0  0  0  0  0  0  0  0  0
    1.5439   66.4582   82.3941 C   0  0  0  0  0  0  0  0  0  0  0  0
   -1.0294   67.7221   79.2887 H   0  0  0  0  0  0  0  0  0  0  0  0
   -0.5099   63.5927   81.3584 C   0  0  0  0  0  0  0  0  0  0  0  0
   -1.1788   63.0738   82.4806 C   0  0  0  0  0  0  0  0  0  0  0  0
   -1.7626   61.8053   82.4393 C   0  0  0  0  0  0  0  0  0  0  0  0
   -1.6947   61.0461   81.2738 C   0  0  0  0  0  0  0  0  0  0  0  0
   -1.0395   61.5521   80.1517 C   0  0  0  0  0  0  0  0  0  0  0  0
   -0.4304   62.8126   80.1966 C   0  0  0  0  0  0  0  0  0  0  0  0
    0.1282   63.2962   79.0425 O   0  0  0  0  0  0  0  0  0  0  0  0
   -0.3241   62.5499   77.9056 C   0  0  0  0  0  0  0  0  0  0  0  0
   -0.9767   63.5205   76.9392 C   0  0  0  0  0  0  0  0  0  0  0  0
    3.3656   66.5133   84.2310 C   0  0  0  0  0  0  0  0  0  0  0  0
    5.5653   66.7884   85.4282 C   0  0  0  0  0  0  0  0  0  0  0  0
    4.4183   67.5024   84.7309 C   0  0  0  0  0  0  0  0  0  0  0  0
 23 24  1  0  0  0
 24 22  1  0  0  0
 22  1  1  0  0  0
  1  2  1  0  0  0
  2  3  2  0  0  0
  3  4  1  0  0  0
  3  5  1  0  0  0
  5  6  1  0  0  0
  6  7  1  0  0  0
  6  8  2  0  0  0
  8  9  1  0  0  0
  9 13  1  0  0  0
 13 14  2  0  0  0
 14 15  1  0  0  0
 15 16  2  0  0  0
 16 17  1  0  0  0
 17 18  2  0  0  0
 18 19  1  0  0  0
 19 20  1  0  0  0
 20 21  1  0  0  0
  9 10  2  0  0  0
 10 11  1  0  0  0
 11  1  2  0  0  0
 11  5  1  0  0  0
 18 13  1  0  0  0
  7 12  1  0  0  0
M  END
> <minimizedAffinity>
-1.27434

$$$$



 24 26  0  0  0  0  0  0  0  0999 V2000
   -0.9000   62.4768   79.2806 C   0  0  0  0  0  0  0  0  0  0  0  0
   -1.4772   61.4056   79.9307 N   0  0  0  0  0  0  0  0  0  0  0  0
   -1.4737   61.7158   81.2150 C   0  0  0  0  0  0  0  0  0  0  0  0
   -1.9959   60.8570   82.3052 C   0  0  0  0  0  0  0  0  0  0  0  0
   -0.9153   62.9584   81.4079 N   0  0  0  0  0  0  0  0  0  0  0  0
   -0.6790   63.7459   82.5124 C   0  0  0  0  0  0  0  0  0  0  0  0
   -1.0637   63.2009   83.6780 O   0  0  0  0  0  0  0  0  0  0  0  0
   -0.1402   64.9125   82.4590 N   0  0  0  0  0  0  0  0  0  0  0  0
    0.2209   65.3601   81.1913 C   0  0  0  0  0  0  0  0  0  0  0  0
    0.0320   64.6839   80.0917 N   0  0  0  0  0  0  0  0  0  0  0  0
   -0.5448   63.4571   80.1856 C   0  0  0  0  0  0  0  0  0  0  0  0
   -0.8411   63.8301   84.3851 H   0  0  0  0  0  0  0  0  0  0  0  0
    0.8286   66.7247   81.1542 C   0  0  0  0  0  0  0  0  0  0  0  0
    0.3736   67.6349   80.1843 C   0  0  0  0  0  0  0  0  0  0  0  0
    0.9142   68.9205   80.1036 C   0  0  0  0  0  0  0  0  0  0  0  0
    1.9066   69.3150   80.9973 C   0  0  0  0  0  0  0  0  0  0  0  0
    2.3622   68.4237   81.9682 C   0  0  0  0  0  0  0  0  0  0  0  0
    1.8415   67.1251   82.0364 C   0  0  0  0  0  0  0  0  0  0  0  0
    2.2645   66.3178   83.0597 O   0  0  0  0  0  0  0  0  0  0  0  0
    2.8442   67.0945   84.1156 C   0  0  0  0  0  0  0  0  0  0  0  0
    3.9718   66.2841   84.7268 C   0  0  0  0  0  0  0  0  0  0  0  0
   -0.7253   62.4636   77.8031 C   0  0  0  0  0  0  0  0  0  0  0  0
   -2.5182   61.3748   76.4075 C   0  0  0  0  0  0  0  0  0  0  0  0
   -1.2168   61.1645   77.1650 C   0  0  0  0  0  0  0  0  0  0  0  0
 23 24  1  0  0  0
 24 22  1  0  0  0
 22  1  1  0  0  0
  1  2  1  0  0  0
  2  3  2  0  0  0
  3  4  1  0  0  0
  3  5  1  0  0  0
  5  6  1  0  0  0
  6  7  1  0  0  0
  6  8  2  0  0  0
  8  9  1  0  0  0
  9 13  1  0  0  0
 13 14  2  0  0  0
 14 15  1  0  0  0
 15 16  2  0  0  0
 16 17  1  0  0  0
 17 18  2  0  0  0
 18 19  1  0  0  0
 19 20  1  0  0  0
 20 21  1  0  0  0
  9 10  2  0  0  0
 10 11  1  0  0  0
 11  1  2  0  0  0
 11  5  1  0  0  0
 18 13  1  0  0  0
  7 12  1  0  0  0
M  END
> <minimizedAffinity>
-1.26158

$$$$



 24 26  0  0  0  0  0  0  0  0999 V2000
    3.0972   68.2164   83.2415 C   0  0  0  0  0  0  0  0  0  0  0  0
    2.4854   67.0581   82.8085 N   0  0  0  0  0  0  0  0  0  0  0  0
    1.6089   67.4311   81.8929 C   0  0  0  0  0  0  0  0  0  0  0  0
    0.7094   66.5190   81.1462 C   0  0  0  0  0  0  0  0  0  0  0  0
    1.6440   68.7958   81.7215 N   0  0  0  0  0  0  0  0  0  0  0  0
    0.9678   69.6815   80.9126 C   0  0  0  0  0  0  0  0  0  0  0  0
    0.0584   69.1143   80.1034 O   0  0  0  0  0  0  0  0  0  0  0  0
    1.1745   70.9510   80.9095 N   0  0  0  0  0  0  0  0  0  0  0  0
    2.1381   71.4141   81.8010 C   0  0  0  0  0  0  0  0  0  0  0  0
    2.8284   70.6484   82.6005 N   0  0  0  0  0  0  0  0  0  0  0  0
    2.5872   69.3114   82.5729 C   0  0  0  0  0  0  0  0  0  0  0  0
   -0.3637   69.8249   79.5910 H   0  0  0  0  0  0  0  0  0  0  0  0
    2.3718   72.8897   81.7657 C   0  0  0  0  0  0  0  0  0  0  0  0
    1.4465   73.7303   82.4088 C   0  0  0  0  0  0  0  0  0  0  0  0
    1.6161   75.1169   82.3989 C   0  0  0  0  0  0  0  0  0  0  0  0
    2.7169   75.6784   81.7568 C   0  0  0  0  0  0  0  0  0  0  0  0
    3.6453   74.8550   81.1207 C   0  0  0  0  0  0  0  0  0  0  0  0
    3.4658   73.4660   81.1057 C   0  0  0  0  0  0  0  0  0  0  0  0
    4.4491   72.6985   80.5383 O   0  0  0  0  0  0  0  0  0  0  0  0
    5.5159   73.5193   80.0459 C   0  0  0  0  0  0  0  0  0  0  0  0
    6.2448   72.7403   78.9670 C   0  0  0  0  0  0  0  0  0  0  0  0
    4.1439   68.1728   84.2979 C   0  0  0  0  0  0  0  0  0  0  0  0
    5.6344   66.6998   85.6966 C   0  0  0  0  0  0  0  0  0  0  0  0
    4.3945   66.7576   84.8185 C   0  0  0  0  0  0  0  0  0  0  0  0
 23 24  1  0  0  0
 24 22  1  0  0  0
 22  1  1  0  0  0
  1  2  1  0  0  0
  2  3  2  0  0  0
  3  4  1  0  0  0
  3  5  1  0  0  0
  5  6  1  0  0  0
  6  7  1  0  0  0
  6  8  2  0  0  0
  8  9  1  0  0  0
  9 13  1  0  0  0
 13 14  2  0  0  0
 14 15  1  0  0  0
 15 16  2  0  0  0
 16 17  1  0  0  0
 17 18  2  0  0  0
 18 19  1  0  0  0
 19 20  1  0  0  0
 20 21  1  0  0  0
  9 10  2  0  0  0
 10 11  1  0  0  0
 11  1  2  0  0  0
 11  5  1  0  0  0
 18 13  1  0  0  0
  7 12  1  0  0  0
M  END
> <minimizedAffinity>
-1.20708

$$$$



 24 26  0  0  0  0  0  0  0  0999 V2000
    1.3040   64.8679   84.7171 C   0  0  0  0  0  0  0  0  0  0  0  0
    1.0457   64.7666   86.0685 N   0  0  0  0  0  0  0  0  0  0  0  0
    0.0607   63.8936   86.1852 C   0  0  0  0  0  0  0  0  0  0  0  0
   -0.5582   63.4662   87.4630 C   0  0  0  0  0  0  0  0  0  0  0  0
   -0.3175   63.4272   84.9473 N   0  0  0  0  0  0  0  0  0  0  0  0
   -1.2589   62.5246   84.5058 C   0  0  0  0  0  0  0  0  0  0  0  0
   -1.9921   61.9626   85.4805 O   0  0  0  0  0  0  0  0  0  0  0  0
   -1.4382   62.2233   83.2683 N   0  0  0  0  0  0  0  0  0  0  0  0
   -0.6190   62.8817   82.3555 C   0  0  0  0  0  0  0  0  0  0  0  0
    0.2999   63.7476   82.6838 N   0  0  0  0  0  0  0  0  0  0  0  0
    0.4650   64.0376   84.0010 C   0  0  0  0  0  0  0  0  0  0  0  0
   -2.6268   61.3577   85.0601 H   0  0  0  0  0  0  0  0  0  0  0  0
   -0.8349   62.5015   80.9265 C   0  0  0  0  0  0  0  0  0  0  0  0
   -1.1101   61.1563   80.6252 C   0  0  0  0  0  0  0  0  0  0  0  0
   -1.3130   60.7485   79.3045 C   0  0  0  0  0  0  0  0  0  0  0  0
   -1.2545   61.6810   78.2719 C   0  0  0  0  0  0  0  0  0  0  0  0
   -0.9886   63.0196   78.5583 C   0  0  0  0  0  0  0  0  0  0  0  0
   -0.7589   63.4286   79.8781 C   0  0  0  0  0  0  0  0  0  0  0  0
   -0.5837   64.7672   80.1131 O   0  0  0  0  0  0  0  0  0  0  0  0
    0.5558   65.2651   79.4004 C   0  0  0  0  0  0  0  0  0  0  0  0
    0.7620   66.7134   79.8026 C   0  0  0  0  0  0  0  0  0  0  0  0
    2.3597   65.7871   84.2129 C   0  0  0  0  0  0  0  0  0  0  0  0
    4.5609   66.8934   84.7409 C   0  0  0  0  0  0  0  0  0  0  0  0
    3.6422   65.7198   85.0418 C   0  0  0  0  0  0  0  0  0  0  0  0
 23 24  1  0  0  0
 24 22  1  0  0  0
 22  1  1  0  0  0
  1  2  1  0  0  0
  2  3  2  0  0  0
  3  4  1  0  0  0
  3  5  1  0  0  0
  5  6  1  0  0  0
  6  7  1  0  0  0
  6  8  2  0  0  0
  8  9  1  0  0  0
  9 13  1  0  0  0
 13 14  2  0  0  0
 14 15  1  0  0  0
 15 16  2  0  0  0
 16 17  1  0  0  0
 17 18  2  0  0  0
 18 19  1  0  0  0
 19 20  1  0  0  0
 20 21  1  0  0  0
  9 10  2  0  0  0
 10 11  1  0  0  0
 11  1  2  0  0  0
 11  5  1  0  0  0
 18 13  1  0  0  0
  7 12  1  0  0  0
M  END
> <minimizedAffinity>
-1.20340

$$$$



 24 26  0  0  0  0  0  0  0  0999 V2000
   -1.0241   62.9243   82.4088 C   0  0  0  0  0  0  0  0  0  0  0  0
   -1.2688   61.8119   81.6304 N   0  0  0  0  0  0  0  0  0  0  0  0
   -0.8520   62.1206   80.4151 C   0  0  0  0  0  0  0  0  0  0  0  0
   -0.9172   61.2262   79.2342 C   0  0  0  0  0  0  0  0  0  0  0  0
   -0.3414   63.3980   80.3921 N   0  0  0  0  0  0  0  0  0  0  0  0
    0.2188   64.1925   79.4170 C   0  0  0  0  0  0  0  0  0  0  0  0
    0.2893   63.6202   78.2042 O   0  0  0  0  0  0  0  0  0  0  0  0
    0.6511   65.3858   79.6255 N   0  0  0  0  0  0  0  0  0  0  0  0
    0.5129   65.8663   80.9247 C   0  0  0  0  0  0  0  0  0  0  0  0
   -0.0017   65.1834   81.9100 N   0  0  0  0  0  0  0  0  0  0  0  0
   -0.4432   63.9240   81.6543 C   0  0  0  0  0  0  0  0  0  0  0  0
    0.6858   64.2669   77.5958 H   0  0  0  0  0  0  0  0  0  0  0  0
    1.0383   67.2478   81.1448 C   0  0  0  0  0  0  0  0  0  0  0  0
    0.4971   68.2996   80.3853 C   0  0  0  0  0  0  0  0  0  0  0  0
    0.9586   69.6080   80.5486 C   0  0  0  0  0  0  0  0  0  0  0  0
    1.9571   69.8821   81.4797 C   0  0  0  0  0  0  0  0  0  0  0  0
    2.4978   68.8485   82.2439 C   0  0  0  0  0  0  0  0  0  0  0  0
    2.0565   67.5312   82.0654 C   0  0  0  0  0  0  0  0  0  0  0  0
    2.5617   66.5675   82.8984 O   0  0  0  0  0  0  0  0  0  0  0  0
    2.7889   67.0962   84.2110 C   0  0  0  0  0  0  0  0  0  0  0  0
    4.1003   66.5298   84.7222 C   0  0  0  0  0  0  0  0  0  0  0  0
   -1.3878   62.9361   83.8514 C   0  0  0  0  0  0  0  0  0  0  0  0
   -0.5661   62.8866   86.2326 C   0  0  0  0  0  0  0  0  0  0  0  0
   -0.1644   62.8817   84.7662 C   0  0  0  0  0  0  0  0  0  0  0  0
 23 24  1  0  0  0
 24 22  1  0  0  0
 22  1  1  0  0  0
  1  2  1  0  0  0
  2  3  2  0  0  0
  3  4  1  0  0  0
  3  5  1  0  0  0
  5  6  1  0  0  0
  6  7  1  0  0  0
  6  8  2  0  0  0
  8  9  1  0  0  0
  9 13  1  0  0  0
 13 14  2  0  0  0
 14 15  1  0  0  0
 15 16  2  0  0  0
 16 17  1  0  0  0
 17 18  2  0  0  0
 18 19  1  0  0  0
 19 20  1  0  0  0
 20 21  1  0  0  0
  9 10  2  0  0  0
 10 11  1  0  0  0
 11  1  2  0  0  0
 11  5  1  0  0  0
 18 13  1  0  0  0
  7 12  1  0  0  0
M  END
> <minimizedAffinity>
-1.19943

$$$$



 24 26  0  0  0  0  0  0  0  0999 V2000
   -0.0288   63.9529   82.9370 C   0  0  0  0  0  0  0  0  0  0  0  0
   -0.3864   63.8654   84.2665 N   0  0  0  0  0  0  0  0  0  0  0  0
   -1.3110   62.9237   84.3323 C   0  0  0  0  0  0  0  0  0  0  0  0
   -1.9972   62.4821   85.5703 C   0  0  0  0  0  0  0  0  0  0  0  0
   -1.5535   62.4001   83.0833 N   0  0  0  0  0  0  0  0  0  0  0  0
   -2.3878   61.4185   82.5972 C   0  0  0  0  0  0  0  0  0  0  0  0
   -3.1536   60.8267   83.5283 O   0  0  0  0  0  0  0  0  0  0  0  0
   -2.4448   61.0744   81.3592 N   0  0  0  0  0  0  0  0  0  0  0  0
   -1.6056   61.7703   80.4936 C   0  0  0  0  0  0  0  0  0  0  0  0
   -0.7819   62.7109   80.8663 N   0  0  0  0  0  0  0  0  0  0  0  0
   -0.7446   63.0445   82.1830 C   0  0  0  0  0  0  0  0  0  0  0  0
   -3.7066   60.1655   83.0781 H   0  0  0  0  0  0  0  0  0  0  0  0
   -1.6779   61.3402   79.0643 C   0  0  0  0  0  0  0  0  0  0  0  0
   -1.8975   59.9803   78.7840 C   0  0  0  0  0  0  0  0  0  0  0  0
   -1.9665   59.5263   77.4646 C   0  0  0  0  0  0  0  0  0  0  0  0
   -1.8284   60.4266   76.4112 C   0  0  0  0  0  0  0  0  0  0  0  0
   -1.6165   61.7793   76.6760 C   0  0  0  0  0  0  0  0  0  0  0  0
   -1.5207   62.2350   77.9970 C   0  0  0  0  0  0  0  0  0  0  0  0
   -1.3942   63.5840   78.2022 O   0  0  0  0  0  0  0  0  0  0  0  0
   -0.1329   64.0579   77.7138 C   0  0  0  0  0  0  0  0  0  0  0  0
    0.2594   65.2722   78.5344 C   0  0  0  0  0  0  0  0  0  0  0  0
    0.9937   64.9367   82.4892 C   0  0  0  0  0  0  0  0  0  0  0  0
    2.5344   66.7976   83.2039 C   0  0  0  0  0  0  0  0  0  0  0  0
    1.7353   65.5862   83.6574 C   0  0  0  0  0  0  0  0  0  0  0  0
 23 24  1  0  0  0
 24 22  1  0  0  0
 22  1  1  0  0  0
  1  2  1  0  0  0
  2  3  2  0  0  0
  3  4  1  0  0  0
  3  5  1  0  0  0
  5  6  1  0  0  0
  6  7  1  0  0  0
  6  8  2  0  0  0
  8  9  1  0  0  0
  9 13  1  0  0  0
 13 14  2  0  0  0
 14 15  1  0  0  0
 15 16  2  0  0  0
 16 17  1  0  0  0
 17 18  2  0  0  0
 18 19  1  0  0  0
 19 20  1  0  0  0
 20 21  1  0  0  0
  9 10  2  0  0  0
 10 11  1  0  0  0
 11  1  2  0  0  0
 11  5  1  0  0  0
 18 13  1  0  0  0
  7 12  1  0  0  0
M  END
> <minimizedAffinity>
-1.18644

$$$$
