


 32 34  0  0  0  0  0  0  0  0999 V2000
    3.4459   66.4347   84.7102 C   0  0  0  0  0  0  0  0  0  0  0  0
    4.2240   67.4273   84.0920 C   0  0  0  0  0  0  0  0  0  0  0  0
    3.7126   68.1857   83.0360 C   0  0  0  0  0  0  0  0  0  0  0  0
    2.4153   67.9513   82.5897 C   0  0  0  0  0  0  0  0  0  0  0  0
    1.6241   66.9682   83.1862 C   0  0  0  0  0  0  0  0  0  0  0  0
    2.1270   66.2023   84.2530 C   0  0  0  0  0  0  0  0  0  0  0  0
    1.1980   65.1767   84.8386 C   0  0  0  0  0  0  0  0  0  0  0  0
    0.4429   64.4561   84.0715 N   0  0  0  0  0  0  0  0  0  0  0  0
   -0.3916   63.5176   84.6405 C   0  0  0  0  0  0  0  0  0  0  0  0
   -0.4900   63.3074   85.9699 C   0  0  0  0  0  0  0  0  0  0  0  0
    0.3736   64.1450   86.8420 C   0  0  0  0  0  0  0  0  0  0  0  0
    0.3694   64.0514   88.0654 O   0  0  0  0  0  0  0  0  0  0  0  0
    1.1788   65.0302   86.1972 N   0  0  0  0  0  0  0  0  0  0  0  0
    1.7663   65.6113   86.7803 H   0  0  0  0  0  0  0  0  0  0  0  0
   -1.1932   62.7462   83.6085 C   0  0  0  0  0  0  0  0  0  0  0  0
   -1.5956   63.6243   82.4301 C   0  0  0  0  0  0  0  0  0  0  0  0
   -1.3879   62.3289   86.6782 C   0  0  0  0  0  0  0  0  0  0  0  0
   -2.7534   62.9279   86.9841 C   0  0  0  0  0  0  0  0  0  0  0  0
    1.7430   68.9078   81.2547 S   0  0  0  0  0  0  0  0  0  0  0  0
    0.8115   68.0549   80.5502 O   0  0  0  0  0  0  0  0  0  0  0  0
    2.8377   69.5609   80.5669 O   0  0  0  0  0  0  0  0  0  0  0  0
    0.8643   70.1194   82.0626 N   0  0  0  0  0  0  0  0  0  0  0  0
    1.6756   71.2086   82.6977 C   0  0  0  0  0  0  0  0  0  0  0  0
    1.5948   72.5157   81.8894 C   0  0  0  0  0  0  0  0  0  0  0  0
    0.2242   73.0651   81.8193 N   0  0  0  0  0  0  0  0  0  0  0  0
    0.0888   73.9561   80.6692 C   0  0  0  0  0  0  0  0  0  0  0  0
   -0.7911   71.9911   81.8075 C   0  0  0  0  0  0  0  0  0  0  0  0
   -0.2902   70.6416   81.2617 C   0  0  0  0  0  0  0  0  0  0  0  0
    3.9005   65.6662   85.7523 O   0  0  0  0  0  0  0  0  0  0  0  0
    5.2485   65.1906   85.7133 C   0  0  0  0  0  0  0  0  0  0  0  0
    5.5091   65.4516   88.2078 C   0  0  0  0  0  0  0  0  0  0  0  0
    6.0122   65.8787   86.8409 C   0  0  0  0  0  0  0  0  0  0  0  0
 31 32  1  0  0  0
 32 30  1  0  0  0
 30 29  1  0  0  0
 29  1  1  0  0  0
  1  2  1  0  0  0
  2  3  2  0  0  0
  3  4  1  0  0  0
  4 19  1  0  0  0
 19 20  2  0  0  0
 19 21  2  0  0  0
 19 22  1  0  0  0
 22 23  1  0  0  0
 23 24  1  0  0  0
 24 25  1  0  0  0
 25 26  1  0  0  0
 25 27  1  0  0  0
 27 28  1  0  0  0
  4  5  2  0  0  0
  5  6  1  0  0  0
  6  7  1  0  0  0
  7  8  2  0  0  0
  8  9  1  0  0  0
  9 15  1  0  0  0
 15 16  1  0  0  0
  9 10  2  0  0  0
 10 17  1  0  0  0
 17 18  1  0  0  0
 10 11  1  0  0  0
 11 12  2  0  0  0
 11 13  1  0  0  0
  6  1  2  0  0  0
 13  7  1  0  0  0
 28 22  1  0  0  0
 13 14  1  0  0  0
M  END
> <minimizedAffinity>
-9.76190

$$$$



 32 34  0  0  0  0  0  0  0  0999 V2000
    3.6614   66.6397   84.6793 C   0  0  0  0  0  0  0  0  0  0  0  0
    4.4271   67.7117   84.1920 C   0  0  0  0  0  0  0  0  0  0  0  0
    3.9067   68.5899   83.2382 C   0  0  0  0  0  0  0  0  0  0  0  0
    2.6127   68.3969   82.7633 C   0  0  0  0  0  0  0  0  0  0  0  0
    1.8338   67.3370   83.2302 C   0  0  0  0  0  0  0  0  0  0  0  0
    2.3458   66.4498   84.1938 C   0  0  0  0  0  0  0  0  0  0  0  0
    1.4297   65.3473   84.6443 C   0  0  0  0  0  0  0  0  0  0  0  0
    0.9024   64.5348   83.7841 N   0  0  0  0  0  0  0  0  0  0  0  0
    0.0732   63.5284   84.2317 C   0  0  0  0  0  0  0  0  0  0  0  0
   -0.2467   63.3398   85.5291 C   0  0  0  0  0  0  0  0  0  0  0  0
    0.3560   64.2822   86.5071 C   0  0  0  0  0  0  0  0  0  0  0  0
    0.1363   64.2169   87.7125 O   0  0  0  0  0  0  0  0  0  0  0  0
    1.1757   65.2309   85.9820 N   0  0  0  0  0  0  0  0  0  0  0  0
    1.5864   65.8830   86.6369 H   0  0  0  0  0  0  0  0  0  0  0  0
   -0.4459   62.6545   83.1050 C   0  0  0  0  0  0  0  0  0  0  0  0
    0.6071   61.6638   82.6239 C   0  0  0  0  0  0  0  0  0  0  0  0
   -1.1596   62.2902   86.1038 C   0  0  0  0  0  0  0  0  0  0  0  0
   -2.6126   62.7438   86.1151 C   0  0  0  0  0  0  0  0  0  0  0  0
    1.9291   69.5046   81.5572 S   0  0  0  0  0  0  0  0  0  0  0  0
    0.5201   69.6373   81.8550 O   0  0  0  0  0  0  0  0  0  0  0  0
    2.3883   69.0904   80.2474 O   0  0  0  0  0  0  0  0  0  0  0  0
    2.7001   70.9774   81.9164 N   0  0  0  0  0  0  0  0  0  0  0  0
    2.9948   71.8687   80.7473 C   0  0  0  0  0  0  0  0  0  0  0  0
    2.0301   73.0665   80.6946 C   0  0  0  0  0  0  0  0  0  0  0  0
    2.1449   73.9499   81.8743 N   0  0  0  0  0  0  0  0  0  0  0  0
    0.9220   74.7303   82.0495 C   0  0  0  0  0  0  0  0  0  0  0  0
    2.4916   73.1873   83.0919 C   0  0  0  0  0  0  0  0  0  0  0  0
    2.0686   71.7073   83.0634 C   0  0  0  0  0  0  0  0  0  0  0  0
    4.1252   65.7525   85.6179 O   0  0  0  0  0  0  0  0  0  0  0  0
    5.4507   65.2359   85.4736 C   0  0  0  0  0  0  0  0  0  0  0  0
    5.4486   65.4688   87.9845 C   0  0  0  0  0  0  0  0  0  0  0  0
    6.2456   65.6567   86.7063 C   0  0  0  0  0  0  0  0  0  0  0  0
 31 32  1  0  0  0
 32 30  1  0  0  0
 30 29  1  0  0  0
 29  1  1  0  0  0
  1  2  1  0  0  0
  2  3  2  0  0  0
  3  4  1  0  0  0
  4 19  1  0  0  0
 19 20  2  0  0  0
 19 21  2  0  0  0
 19 22  1  0  0  0
 22 23  1  0  0  0
 23 24  1  0  0  0
 24 25  1  0  0  0
 25 26  1  0  0  0
 25 27  1  0  0  0
 27 28  1  0  0  0
  4  5  2  0  0  0
  5  6  1  0  0  0
  6  7  1  0  0  0
  7  8  2  0  0  0
  8  9  1  0  0  0
  9 15  1  0  0  0
 15 16  1  0  0  0
  9 10  2  0  0  0
 10 17  1  0  0  0
 17 18  1  0  0  0
 10 11  1  0  0  0
 11 12  2  0  0  0
 11 13  1  0  0  0
  6  1  2  0  0  0
 13  7  1  0  0  0
 28 22  1  0  0  0
 13 14  1  0  0  0
M  END
> <minimizedAffinity>
-9.60533

$$$$



 32 34  0  0  0  0  0  0  0  0999 V2000
    0.9806   66.0733   81.8389 C   0  0  0  0  0  0  0  0  0  0  0  0
    1.3665   66.6133   80.6010 C   0  0  0  0  0  0  0  0  0  0  0  0
    1.1272   65.9222   79.4108 C   0  0  0  0  0  0  0  0  0  0  0  0
    0.5002   64.6803   79.4541 C   0  0  0  0  0  0  0  0  0  0  0  0
    0.1104   64.1218   80.6724 C   0  0  0  0  0  0  0  0  0  0  0  0
    0.3420   64.8110   81.8762 C   0  0  0  0  0  0  0  0  0  0  0  0
   -0.1233   64.1362   83.1355 C   0  0  0  0  0  0  0  0  0  0  0  0
   -1.1195   63.3086   83.1111 N   0  0  0  0  0  0  0  0  0  0  0  0
   -1.5155   62.6996   84.2829 C   0  0  0  0  0  0  0  0  0  0  0  0
   -0.9354   62.9254   85.4803 C   0  0  0  0  0  0  0  0  0  0  0  0
    0.2007   63.8829   85.4995 C   0  0  0  0  0  0  0  0  0  0  0  0
    0.8043   64.1747   86.5270 O   0  0  0  0  0  0  0  0  0  0  0  0
    0.5366   64.4217   84.2976 N   0  0  0  0  0  0  0  0  0  0  0  0
    1.3039   65.0807   84.2987 H   0  0  0  0  0  0  0  0  0  0  0  0
   -2.6798   61.7474   84.0821 C   0  0  0  0  0  0  0  0  0  0  0  0
   -2.5275   60.9252   82.8083 C   0  0  0  0  0  0  0  0  0  0  0  0
   -1.3157   62.3294   86.8090 C   0  0  0  0  0  0  0  0  0  0  0  0
   -2.4686   63.0800   87.4605 C   0  0  0  0  0  0  0  0  0  0  0  0
    0.1798   63.7883   77.9539 S   0  0  0  0  0  0  0  0  0  0  0  0
    1.3663   63.0158   77.6592 O   0  0  0  0  0  0  0  0  0  0  0  0
   -0.3805   64.7103   76.9874 O   0  0  0  0  0  0  0  0  0  0  0  0
   -1.0637   62.7201   78.4072 N   0  0  0  0  0  0  0  0  0  0  0  0
   -2.3371   62.8209   77.6222 C   0  0  0  0  0  0  0  0  0  0  0  0
   -2.4893   61.6444   76.6419 C   0  0  0  0  0  0  0  0  0  0  0  0
   -2.5746   60.3352   77.3232 N   0  0  0  0  0  0  0  0  0  0  0  0
   -2.1992   59.2582   76.4099 C   0  0  0  0  0  0  0  0  0  0  0  0
   -1.7685   60.3143   78.5617 C   0  0  0  0  0  0  0  0  0  0  0  0
   -0.5923   61.3074   78.5778 C   0  0  0  0  0  0  0  0  0  0  0  0
    1.1897   66.7137   83.0345 O   0  0  0  0  0  0  0  0  0  0  0  0
    1.9288   67.9379   83.0337 C   0  0  0  0  0  0  0  0  0  0  0  0
    3.4888   66.5578   84.4551 C   0  0  0  0  0  0  0  0  0  0  0  0
    2.8508   67.9197   84.2494 C   0  0  0  0  0  0  0  0  0  0  0  0
 31 32  1  0  0  0
 32 30  1  0  0  0
 30 29  1  0  0  0
 29  1  1  0  0  0
  1  2  1  0  0  0
  2  3  2  0  0  0
  3  4  1  0  0  0
  4 19  1  0  0  0
 19 20  2  0  0  0
 19 21  2  0  0  0
 19 22  1  0  0  0
 22 23  1  0  0  0
 23 24  1  0  0  0
 24 25  1  0  0  0
 25 26  1  0  0  0
 25 27  1  0  0  0
 27 28  1  0  0  0
  4  5  2  0  0  0
  5  6  1  0  0  0
  6  7  1  0  0  0
  7  8  2  0  0  0
  8  9  1  0  0  0
  9 15  1  0  0  0
 15 16  1  0  0  0
  9 10  2  0  0  0
 10 17  1  0  0  0
 17 18  1  0  0  0
 10 11  1  0  0  0
 11 12  2  0  0  0
 11 13  1  0  0  0
  6  1  2  0  0  0
 13  7  1  0  0  0
 28 22  1  0  0  0
 13 14  1  0  0  0
M  END
> <minimizedAffinity>
-9.24181

$$$$



 32 34  0  0  0  0  0  0  0  0999 V2000
    3.6115   66.9319   84.5058 C   0  0  0  0  0  0  0  0  0  0  0  0
    4.3479   68.0550   84.0944 C   0  0  0  0  0  0  0  0  0  0  0  0
    3.8816   68.8831   83.0704 C   0  0  0  0  0  0  0  0  0  0  0  0
    2.6719   68.5881   82.4484 C   0  0  0  0  0  0  0  0  0  0  0  0
    1.9239   67.4758   82.8377 C   0  0  0  0  0  0  0  0  0  0  0  0
    2.3815   66.6383   83.8707 C   0  0  0  0  0  0  0  0  0  0  0  0
    1.5028   65.4730   84.2281 C   0  0  0  0  0  0  0  0  0  0  0  0
    1.0889   65.3076   85.4444 N   0  0  0  0  0  0  0  0  0  0  0  0
    0.2764   64.2328   85.7369 C   0  0  0  0  0  0  0  0  0  0  0  0
   -0.1097   63.3135   84.8276 C   0  0  0  0  0  0  0  0  0  0  0  0
    0.3775   63.5069   83.4372 C   0  0  0  0  0  0  0  0  0  0  0  0
    0.0999   62.7357   82.5242 O   0  0  0  0  0  0  0  0  0  0  0  0
    1.1566   64.6020   83.2336 N   0  0  0  0  0  0  0  0  0  0  0  0
    1.5005   64.7408   82.2927 H   0  0  0  0  0  0  0  0  0  0  0  0
   -0.1358   64.1921   87.1967 C   0  0  0  0  0  0  0  0  0  0  0  0
    0.8787   63.4436   88.0523 C   0  0  0  0  0  0  0  0  0  0  0  0
   -0.9685   62.0996   85.0606 C   0  0  0  0  0  0  0  0  0  0  0  0
   -2.4526   62.4299   84.9888 C   0  0  0  0  0  0  0  0  0  0  0  0
    2.0570   69.6304   81.1505 S   0  0  0  0  0  0  0  0  0  0  0  0
    1.3307   68.7803   80.2333 O   0  0  0  0  0  0  0  0  0  0  0  0
    3.1398   70.4790   80.6972 O   0  0  0  0  0  0  0  0  0  0  0  0
    0.9439   70.6281   81.9620 N   0  0  0  0  0  0  0  0  0  0  0  0
    1.5222   71.8061   82.6870 C   0  0  0  0  0  0  0  0  0  0  0  0
    1.2510   73.1202   81.9334 C   0  0  0  0  0  0  0  0  0  0  0  0
   -0.1900   73.4277   81.8134 N   0  0  0  0  0  0  0  0  0  0  0  0
   -0.4267   74.3411   80.6978 C   0  0  0  0  0  0  0  0  0  0  0  0
   -1.0001   72.1968   81.6999 C   0  0  0  0  0  0  0  0  0  0  0  0
   -0.2464   70.9845   81.1234 C   0  0  0  0  0  0  0  0  0  0  0  0
    4.0244   66.0905   85.5082 O   0  0  0  0  0  0  0  0  0  0  0  0
    5.2511   65.3757   85.3383 C   0  0  0  0  0  0  0  0  0  0  0  0
    5.5316   65.4472   87.8433 C   0  0  0  0  0  0  0  0  0  0  0  0
    6.1675   65.7516   86.4990 C   0  0  0  0  0  0  0  0  0  0  0  0
 31 32  1  0  0  0
 32 30  1  0  0  0
 30 29  1  0  0  0
 29  1  1  0  0  0
  1  2  1  0  0  0
  2  3  2  0  0  0
  3  4  1  0  0  0
  4 19  1  0  0  0
 19 20  2  0  0  0
 19 21  2  0  0  0
 19 22  1  0  0  0
 22 23  1  0  0  0
 23 24  1  0  0  0
 24 25  1  0  0  0
 25 26  1  0  0  0
 25 27  1  0  0  0
 27 28  1  0  0  0
  4  5  2  0  0  0
  5  6  1  0  0  0
  6  7  1  0  0  0
  7  8  2  0  0  0
  8  9  1  0  0  0
  9 15  1  0  0  0
 15 16  1  0  0  0
  9 10  2  0  0  0
 10 17  1  0  0  0
 17 18  1  0  0  0
 10 11  1  0  0  0
 11 12  2  0  0  0
 11 13  1  0  0  0
  6  1  2  0  0  0
 13  7  1  0  0  0
 28 22  1  0  0  0
 13 14  1  0  0  0
M  END
> <minimizedAffinity>
-9.04477

$$$$



 32 34  0  0  0  0  0  0  0  0999 V2000
    1.5732   65.8205   83.2121 C   0  0  0  0  0  0  0  0  0  0  0  0
    0.7225   66.2688   82.1882 C   0  0  0  0  0  0  0  0  0  0  0  0
    0.9359   67.5015   81.5664 C   0  0  0  0  0  0  0  0  0  0  0  0
    2.0049   68.2962   81.9700 C   0  0  0  0  0  0  0  0  0  0  0  0
    2.8619   67.8735   82.9873 C   0  0  0  0  0  0  0  0  0  0  0  0
    2.6593   66.6324   83.6167 C   0  0  0  0  0  0  0  0  0  0  0  0
    3.6399   66.2576   84.6918 C   0  0  0  0  0  0  0  0  0  0  0  0
    4.8591   66.6935   84.6537 N   0  0  0  0  0  0  0  0  0  0  0  0
    5.7312   66.3381   85.6607 C   0  0  0  0  0  0  0  0  0  0  0  0
    5.3988   65.5365   86.6942 C   0  0  0  0  0  0  0  0  0  0  0  0
    4.0006   65.0344   86.7243 C   0  0  0  0  0  0  0  0  0  0  0  0
    3.5810   64.2942   87.6083 O   0  0  0  0  0  0  0  0  0  0  0  0
    3.2042   65.4493   85.7039 N   0  0  0  0  0  0  0  0  0  0  0  0
    2.2520   65.1084   85.7092 H   0  0  0  0  0  0  0  0  0  0  0  0
    7.1106   66.9440   85.4801 C   0  0  0  0  0  0  0  0  0  0  0  0
    8.0659   65.9830   84.7833 C   0  0  0  0  0  0  0  0  0  0  0  0
    6.2872   65.0762   87.8186 C   0  0  0  0  0  0  0  0  0  0  0  0
    5.7799   65.5469   89.1742 C   0  0  0  0  0  0  0  0  0  0  0  0
    2.2989   69.8623   81.1889 S   0  0  0  0  0  0  0  0  0  0  0  0
    1.8856   69.7312   79.8092 O   0  0  0  0  0  0  0  0  0  0  0  0
    3.6341   70.3015   81.5388 O   0  0  0  0  0  0  0  0  0  0  0  0
    1.2067   70.8937   81.9864 N   0  0  0  0  0  0  0  0  0  0  0  0
    1.8149   72.0191   82.7683 C   0  0  0  0  0  0  0  0  0  0  0  0
    1.6417   73.3661   82.0447 C   0  0  0  0  0  0  0  0  0  0  0  0
    0.2243   73.7519   81.8785 N   0  0  0  0  0  0  0  0  0  0  0  0
    0.0796   74.7073   80.7825 C   0  0  0  0  0  0  0  0  0  0  0  0
   -0.6425   72.5686   81.6967 C   0  0  0  0  0  0  0  0  0  0  0  0
    0.0707   71.3352   81.1136 C   0  0  0  0  0  0  0  0  0  0  0  0
    1.4083   64.6172   83.8510 O   0  0  0  0  0  0  0  0  0  0  0  0
    0.1002   64.2571   84.3027 C   0  0  0  0  0  0  0  0  0  0  0  0
    0.1195   64.1349   86.8213 C   0  0  0  0  0  0  0  0  0  0  0  0
    0.2664   63.3590   85.5250 C   0  0  0  0  0  0  0  0  0  0  0  0
 31 32  1  0  0  0
 32 30  1  0  0  0
 30 29  1  0  0  0
 29  1  1  0  0  0
  1  2  1  0  0  0
  2  3  2  0  0  0
  3  4  1  0  0  0
  4 19  1  0  0  0
 19 20  2  0  0  0
 19 21  2  0  0  0
 19 22  1  0  0  0
 22 23  1  0  0  0
 23 24  1  0  0  0
 24 25  1  0  0  0
 25 26  1  0  0  0
 25 27  1  0  0  0
 27 28  1  0  0  0
  4  5  2  0  0  0
  5  6  1  0  0  0
  6  7  1  0  0  0
  7  8  2  0  0  0
  8  9  1  0  0  0
  9 15  1  0  0  0
 15 16  1  0  0  0
  9 10  2  0  0  0
 10 17  1  0  0  0
 17 18  1  0  0  0
 10 11  1  0  0  0
 11 12  2  0  0  0
 11 13  1  0  0  0
  6  1  2  0  0  0
 13  7  1  0  0  0
 28 22  1  0  0  0
 13 14  1  0  0  0
M  END
> <minimizedAffinity>
-8.91993

$$$$



 32 34  0  0  0  0  0  0  0  0999 V2000
    0.5916   64.0507   85.6545 C   0  0  0  0  0  0  0  0  0  0  0  0
   -0.5913   63.3686   85.3251 C   0  0  0  0  0  0  0  0  0  0  0  0
   -1.1088   63.4149   84.0282 C   0  0  0  0  0  0  0  0  0  0  0  0
   -0.4434   64.1496   83.0511 C   0  0  0  0  0  0  0  0  0  0  0  0
    0.7320   64.8382   83.3553 C   0  0  0  0  0  0  0  0  0  0  0  0
    1.2643   64.7946   84.6563 C   0  0  0  0  0  0  0  0  0  0  0  0
    2.5389   65.5568   84.8852 C   0  0  0  0  0  0  0  0  0  0  0  0
    2.7650   66.6675   84.2583 N   0  0  0  0  0  0  0  0  0  0  0  0
    3.9406   67.3467   84.4981 C   0  0  0  0  0  0  0  0  0  0  0  0
    4.8984   66.9149   85.3451 C   0  0  0  0  0  0  0  0  0  0  0  0
    4.6337   65.6354   86.0527 C   0  0  0  0  0  0  0  0  0  0  0  0
    5.4301   65.1374   86.8421 O   0  0  0  0  0  0  0  0  0  0  0  0
    3.4429   65.0430   85.7720 N   0  0  0  0  0  0  0  0  0  0  0  0
    3.2541   64.1676   86.2420 H   0  0  0  0  0  0  0  0  0  0  0  0
    4.0443   68.6345   83.7023 C   0  0  0  0  0  0  0  0  0  0  0  0
    2.7067   69.0331   83.0909 C   0  0  0  0  0  0  0  0  0  0  0  0
    6.2178   67.5730   85.6476 C   0  0  0  0  0  0  0  0  0  0  0  0
    7.3513   66.9826   84.8210 C   0  0  0  0  0  0  0  0  0  0  0  0
   -1.0788   64.2162   81.3956 S   0  0  0  0  0  0  0  0  0  0  0  0
   -0.9603   65.5874   80.9516 O   0  0  0  0  0  0  0  0  0  0  0  0
   -2.3490   63.5204   81.3677 O   0  0  0  0  0  0  0  0  0  0  0  0
    0.0323   63.2667   80.5256 N   0  0  0  0  0  0  0  0  0  0  0  0
   -0.2280   61.7902   80.5173 C   0  0  0  0  0  0  0  0  0  0  0  0
   -0.7867   61.3241   79.1613 C   0  0  0  0  0  0  0  0  0  0  0  0
    0.1571   61.5419   78.0446 N   0  0  0  0  0  0  0  0  0  0  0  0
   -0.5586   61.5870   76.7716 C   0  0  0  0  0  0  0  0  0  0  0  0
    0.9803   62.7508   78.2577 C   0  0  0  0  0  0  0  0  0  0  0  0
    0.3341   63.8147   79.1634 C   0  0  0  0  0  0  0  0  0  0  0  0
    1.1419   64.0335   86.9116 O   0  0  0  0  0  0  0  0  0  0  0  0
    0.2685   64.1143   88.0409 C   0  0  0  0  0  0  0  0  0  0  0  0
   -0.2420   61.7081   88.5961 C   0  0  0  0  0  0  0  0  0  0  0  0
    0.5833   62.9313   88.9519 C   0  0  0  0  0  0  0  0  0  0  0  0
 31 32  1  0  0  0
 32 30  1  0  0  0
 30 29  1  0  0  0
 29  1  1  0  0  0
  1  2  1  0  0  0
  2  3  2  0  0  0
  3  4  1  0  0  0
  4 19  1  0  0  0
 19 20  2  0  0  0
 19 21  2  0  0  0
 19 22  1  0  0  0
 22 23  1  0  0  0
 23 24  1  0  0  0
 24 25  1  0  0  0
 25 26  1  0  0  0
 25 27  1  0  0  0
 27 28  1  0  0  0
  4  5  2  0  0  0
  5  6  1  0  0  0
  6  7  1  0  0  0
  7  8  2  0  0  0
  8  9  1  0  0  0
  9 15  1  0  0  0
 15 16  1  0  0  0
  9 10  2  0  0  0
 10 17  1  0  0  0
 17 18  1  0  0  0
 10 11  1  0  0  0
 11 12  2  0  0  0
 11 13  1  0  0  0
  6  1  2  0  0  0
 13  7  1  0  0  0
 28 22  1  0  0  0
 13 14  1  0  0  0
M  END
> <minimizedAffinity>
-8.86559

$$$$



 32 34  0  0  0  0  0  0  0  0999 V2000
    0.5034   64.2559   85.8626 C   0  0  0  0  0  0  0  0  0  0  0  0
   -0.6405   63.4910   85.5809 C   0  0  0  0  0  0  0  0  0  0  0  0
   -0.9837   63.1713   84.2649 C   0  0  0  0  0  0  0  0  0  0  0  0
   -0.1816   63.6201   83.2197 C   0  0  0  0  0  0  0  0  0  0  0  0
    0.9582   64.3842   83.4745 C   0  0  0  0  0  0  0  0  0  0  0  0
    1.3157   64.7077   84.7956 C   0  0  0  0  0  0  0  0  0  0  0  0
    2.5652   65.5236   84.9716 C   0  0  0  0  0  0  0  0  0  0  0  0
    2.7685   66.5823   84.2534 N   0  0  0  0  0  0  0  0  0  0  0  0
    3.9213   67.3135   84.4463 C   0  0  0  0  0  0  0  0  0  0  0  0
    4.8794   66.9843   85.3378 C   0  0  0  0  0  0  0  0  0  0  0  0
    4.6413   65.7634   86.1505 C   0  0  0  0  0  0  0  0  0  0  0  0
    5.4408   65.3586   86.9886 O   0  0  0  0  0  0  0  0  0  0  0  0
    3.4714   65.1146   85.9092 N   0  0  0  0  0  0  0  0  0  0  0  0
    3.3010   64.2779   86.4511 H   0  0  0  0  0  0  0  0  0  0  0  0
    3.9993   68.5305   83.5432 C   0  0  0  0  0  0  0  0  0  0  0  0
    2.6405   69.1983   83.3721 C   0  0  0  0  0  0  0  0  0  0  0  0
    6.1756   67.7042   85.5966 C   0  0  0  0  0  0  0  0  0  0  0  0
    7.3387   67.0695   84.8473 C   0  0  0  0  0  0  0  0  0  0  0  0
   -0.5946   63.2196   81.5410 S   0  0  0  0  0  0  0  0  0  0  0  0
    0.4996   62.4363   81.0112 O   0  0  0  0  0  0  0  0  0  0  0  0
   -1.0461   64.4284   80.8829 O   0  0  0  0  0  0  0  0  0  0  0  0
   -1.9505   62.2077   81.7162 N   0  0  0  0  0  0  0  0  0  0  0  0
   -3.2191   62.6906   81.0795 C   0  0  0  0  0  0  0  0  0  0  0  0
   -3.5386   61.9064   79.7945 C   0  0  0  0  0  0  0  0  0  0  0  0
   -3.7703   60.4674   80.0413 N   0  0  0  0  0  0  0  0  0  0  0  0
   -3.5525   59.6974   78.8188 C   0  0  0  0  0  0  0  0  0  0  0  0
   -2.9449   59.9690   81.1614 C   0  0  0  0  0  0  0  0  0  0  0  0
   -1.6544   60.7700   81.4125 C   0  0  0  0  0  0  0  0  0  0  0  0
    0.8849   64.5931   87.1369 O   0  0  0  0  0  0  0  0  0  0  0  0
    1.3484   63.5579   88.0078 C   0  0  0  0  0  0  0  0  0  0  0  0
    0.1378   61.7706   89.3112 C   0  0  0  0  0  0  0  0  0  0  0  0
    0.2277   63.2531   88.9976 C   0  0  0  0  0  0  0  0  0  0  0  0
 31 32  1  0  0  0
 32 30  1  0  0  0
 30 29  1  0  0  0
 29  1  1  0  0  0
  1  2  1  0  0  0
  2  3  2  0  0  0
  3  4  1  0  0  0
  4 19  1  0  0  0
 19 20  2  0  0  0
 19 21  2  0  0  0
 19 22  1  0  0  0
 22 23  1  0  0  0
 23 24  1  0  0  0
 24 25  1  0  0  0
 25 26  1  0  0  0
 25 27  1  0  0  0
 27 28  1  0  0  0
  4  5  2  0  0  0
  5  6  1  0  0  0
  6  7  1  0  0  0
  7  8  2  0  0  0
  8  9  1  0  0  0
  9 15  1  0  0  0
 15 16  1  0  0  0
  9 10  2  0  0  0
 10 17  1  0  0  0
 17 18  1  0  0  0
 10 11  1  0  0  0
 11 12  2  0  0  0
 11 13  1  0  0  0
  6  1  2  0  0  0
 13  7  1  0  0  0
 28 22  1  0  0  0
 13 14  1  0  0  0
M  END
> <minimizedAffinity>
-8.83650

$$$$



 32 34  0  0  0  0  0  0  0  0999 V2000
    0.0122   63.9272   84.8812 C   0  0  0  0  0  0  0  0  0  0  0  0
   -0.6184   62.6855   85.0641 C   0  0  0  0  0  0  0  0  0  0  0  0
   -0.8963   61.8547   83.9759 C   0  0  0  0  0  0  0  0  0  0  0  0
   -0.5453   62.2657   82.6933 C   0  0  0  0  0  0  0  0  0  0  0  0
    0.0793   63.4965   82.4862 C   0  0  0  0  0  0  0  0  0  0  0  0
    0.3681   64.3386   83.5748 C   0  0  0  0  0  0  0  0  0  0  0  0
    1.0526   65.6374   83.2549 C   0  0  0  0  0  0  0  0  0  0  0  0
    0.7339   66.3070   82.1928 N   0  0  0  0  0  0  0  0  0  0  0  0
    1.3750   67.4997   81.9333 C   0  0  0  0  0  0  0  0  0  0  0  0
    2.3436   68.0180   82.7170 C   0  0  0  0  0  0  0  0  0  0  0  0
    2.7082   67.2384   83.9282 C   0  0  0  0  0  0  0  0  0  0  0  0
    3.5772   67.6025   84.7142 O   0  0  0  0  0  0  0  0  0  0  0  0
    2.0135   66.0854   84.1172 N   0  0  0  0  0  0  0  0  0  0  0  0
    2.2576   65.5420   84.9345 H   0  0  0  0  0  0  0  0  0  0  0  0
    0.8755   68.1678   80.6657 C   0  0  0  0  0  0  0  0  0  0  0  0
   -0.4491   67.5781   80.1973 C   0  0  0  0  0  0  0  0  0  0  0  0
    3.1131   69.2931   82.4993 C   0  0  0  0  0  0  0  0  0  0  0  0
    2.3801   70.5033   83.0606 C   0  0  0  0  0  0  0  0  0  0  0  0
   -0.8822   61.2230   81.2974 S   0  0  0  0  0  0  0  0  0  0  0  0
   -1.6283   60.0859   81.7889 O   0  0  0  0  0  0  0  0  0  0  0  0
    0.3463   61.0539   80.5490 O   0  0  0  0  0  0  0  0  0  0  0  0
   -1.9186   62.1828   80.3499 N   0  0  0  0  0  0  0  0  0  0  0  0
   -1.2768   62.9207   79.2134 C   0  0  0  0  0  0  0  0  0  0  0  0
   -1.6087   62.2690   77.8594 C   0  0  0  0  0  0  0  0  0  0  0  0
   -3.0539   62.2916   77.5490 N   0  0  0  0  0  0  0  0  0  0  0  0
   -3.3837   61.2541   76.5744 C   0  0  0  0  0  0  0  0  0  0  0  0
   -3.8739   62.1788   78.7734 C   0  0  0  0  0  0  0  0  0  0  0  0
   -3.1759   61.4717   79.9494 C   0  0  0  0  0  0  0  0  0  0  0  0
    0.3098   64.7770   85.9169 O   0  0  0  0  0  0  0  0  0  0  0  0
   -0.1267   64.4287   87.2333 C   0  0  0  0  0  0  0  0  0  0  0  0
    0.5167   62.7883   89.0372 C   0  0  0  0  0  0  0  0  0  0  0  0
    1.0150   63.6789   87.9135 C   0  0  0  0  0  0  0  0  0  0  0  0
 31 32  1  0  0  0
 32 30  1  0  0  0
 30 29  1  0  0  0
 29  1  1  0  0  0
  1  2  1  0  0  0
  2  3  2  0  0  0
  3  4  1  0  0  0
  4 19  1  0  0  0
 19 20  2  0  0  0
 19 21  2  0  0  0
 19 22  1  0  0  0
 22 23  1  0  0  0
 23 24  1  0  0  0
 24 25  1  0  0  0
 25 26  1  0  0  0
 25 27  1  0  0  0
 27 28  1  0  0  0
  4  5  2  0  0  0
  5  6  1  0  0  0
  6  7  1  0  0  0
  7  8  2  0  0  0
  8  9  1  0  0  0
  9 15  1  0  0  0
 15 16  1  0  0  0
  9 10  2  0  0  0
 10 17  1  0  0  0
 17 18  1  0  0  0
 10 11  1  0  0  0
 11 12  2  0  0  0
 11 13  1  0  0  0
  6  1  2  0  0  0
 13  7  1  0  0  0
 28 22  1  0  0  0
 13 14  1  0  0  0
M  END
> <minimizedAffinity>
-8.79959

$$$$



 32 34  0  0  0  0  0  0  0  0999 V2000
    0.8495   65.8174   80.5479 C   0  0  0  0  0  0  0  0  0  0  0  0
    1.7444   66.8546   80.2373 C   0  0  0  0  0  0  0  0  0  0  0  0
    2.4112   67.5531   81.2468 C   0  0  0  0  0  0  0  0  0  0  0  0
    2.1826   67.2174   82.5781 C   0  0  0  0  0  0  0  0  0  0  0  0
    1.2955   66.1926   82.9114 C   0  0  0  0  0  0  0  0  0  0  0  0
    0.6226   65.4797   81.9032 C   0  0  0  0  0  0  0  0  0  0  0  0
   -0.3026   64.3866   82.3582 C   0  0  0  0  0  0  0  0  0  0  0  0
   -0.0910   63.7656   83.4752 N   0  0  0  0  0  0  0  0  0  0  0  0
   -0.9642   62.7735   83.8679 C   0  0  0  0  0  0  0  0  0  0  0  0
   -2.0355   62.3860   83.1444 C   0  0  0  0  0  0  0  0  0  0  0  0
   -2.2647   63.0982   81.8606 C   0  0  0  0  0  0  0  0  0  0  0  0
   -3.2003   62.8320   81.1128 O   0  0  0  0  0  0  0  0  0  0  0  0
   -1.3674   64.0741   81.5606 N   0  0  0  0  0  0  0  0  0  0  0  0
   -1.5085   64.5614   80.6857 H   0  0  0  0  0  0  0  0  0  0  0  0
   -0.5885   62.1596   85.2037 C   0  0  0  0  0  0  0  0  0  0  0  0
   -0.1430   63.2150   86.2083 C   0  0  0  0  0  0  0  0  0  0  0  0
   -3.0227   61.3004   83.4797 C   0  0  0  0  0  0  0  0  0  0  0  0
   -2.8595   60.0845   82.5787 C   0  0  0  0  0  0  0  0  0  0  0  0
    3.0243   68.0866   83.8761 S   0  0  0  0  0  0  0  0  0  0  0  0
    2.1557   68.0655   85.0321 O   0  0  0  0  0  0  0  0  0  0  0  0
    3.5319   69.3308   83.3355 O   0  0  0  0  0  0  0  0  0  0  0  0
    4.3673   67.0908   84.1889 N   0  0  0  0  0  0  0  0  0  0  0  0
    5.5802   67.7761   84.7433 C   0  0  0  0  0  0  0  0  0  0  0  0
    5.7578   67.4812   86.2432 C   0  0  0  0  0  0  0  0  0  0  0  0
    5.9791   66.0470   86.5253 N   0  0  0  0  0  0  0  0  0  0  0  0
    5.6282   65.7382   87.9097 C   0  0  0  0  0  0  0  0  0  0  0  0
    5.2530   65.1871   85.5673 C   0  0  0  0  0  0  0  0  0  0  0  0
    4.0109   65.8399   84.9340 C   0  0  0  0  0  0  0  0  0  0  0  0
    0.1734   65.0994   79.5936 O   0  0  0  0  0  0  0  0  0  0  0  0
    0.9059   64.5876   78.4772 C   0  0  0  0  0  0  0  0  0  0  0  0
    0.5923   62.2210   79.2891 C   0  0  0  0  0  0  0  0  0  0  0  0
    0.3498   63.2031   78.1574 C   0  0  0  0  0  0  0  0  0  0  0  0
 31 32  1  0  0  0
 32 30  1  0  0  0
 30 29  1  0  0  0
 29  1  1  0  0  0
  1  2  1  0  0  0
  2  3  2  0  0  0
  3  4  1  0  0  0
  4 19  1  0  0  0
 19 20  2  0  0  0
 19 21  2  0  0  0
 19 22  1  0  0  0
 22 23  1  0  0  0
 23 24  1  0  0  0
 24 25  1  0  0  0
 25 26  1  0  0  0
 25 27  1  0  0  0
 27 28  1  0  0  0
  4  5  2  0  0  0
  5  6  1  0  0  0
  6  7  1  0  0  0
  7  8  2  0  0  0
  8  9  1  0  0  0
  9 15  1  0  0  0
 15 16  1  0  0  0
  9 10  2  0  0  0
 10 17  1  0  0  0
 17 18  1  0  0  0
 10 11  1  0  0  0
 11 12  2  0  0  0
 11 13  1  0  0  0
  6  1  2  0  0  0
 13  7  1  0  0  0
 28 22  1  0  0  0
 13 14  1  0  0  0
M  END
> <minimizedAffinity>
-8.79946

$$$$
