


 45 48  0  0  0  0  0  0  0  0999 V2000
    3.6835   67.1576   84.4160 C   0  0  0  0  0  0  0  0  0  0  0  0
    4.4344   68.2447   83.9435 C   0  0  0  0  0  0  0  0  0  0  0  0
    3.9476   69.0656   82.9207 C   0  0  0  0  0  0  0  0  0  0  0  0
    2.7078   68.7924   82.3495 C   0  0  0  0  0  0  0  0  0  0  0  0
    1.9669   67.6897   82.7717 C   0  0  0  0  0  0  0  0  0  0  0  0
    2.4316   66.8800   83.8226 C   0  0  0  0  0  0  0  0  0  0  0  0
    1.5074   65.7829   84.2705 C   0  0  0  0  0  0  0  0  0  0  0  0
    0.7463   65.1967   83.3891 N   0  0  0  0  0  0  0  0  0  0  0  0
   -0.0807   64.2018   83.9082 C   0  0  0  0  0  0  0  0  0  0  0  0
   -0.9854   63.4096   83.1802 C   0  0  0  0  0  0  0  0  0  0  0  0
   -1.5984   62.5595   84.1103 C   0  0  0  0  0  0  0  0  0  0  0  0
   -1.0683   62.8723   85.3634 N   0  0  0  0  0  0  0  0  0  0  0  0
   -0.1204   63.8606   85.2278 C   0  0  0  0  0  0  0  0  0  0  0  0
    0.7199   64.4995   86.1916 C   0  0  0  0  0  0  0  0  0  0  0  0
    0.7579   64.2637   87.3944 O   0  0  0  0  0  0  0  0  0  0  0  0
    1.5222   65.4568   85.6166 N   0  0  0  0  0  0  0  0  0  0  0  0
    2.1161   65.9726   86.2521 H   0  0  0  0  0  0  0  0  0  0  0  0
   -2.5943   61.5514   83.8066 C   0  0  0  0  0  0  0  0  0  0  0  0
   -2.3424   60.5146   83.0727 N   0  0  0  0  0  0  0  0  0  0  0  0
   -3.5031   59.7383   82.9580 O   0  0  0  0  0  0  0  0  0  0  0  0
   -3.2107   59.0066   82.3827 H   0  0  0  0  0  0  0  0  0  0  0  0
   -1.4626   62.2941   86.6409 C   0  0  0  0  0  0  0  0  0  0  0  0
   -2.6396   63.0203   87.2683 C   0  0  0  0  0  0  0  0  0  0  0  0
   -1.2060   63.4838   81.7001 C   0  0  0  0  0  0  0  0  0  0  0  0
    0.0490   63.1084   80.9103 C   0  0  0  0  0  0  0  0  0  0  0  0
    0.4868   61.6820   81.2034 C   0  0  0  0  0  0  0  0  0  0  0  0
    2.0823   69.8214   81.0435 S   0  0  0  0  0  0  0  0  0  0  0  0
    1.3539   68.9854   80.1133 O   0  0  0  0  0  0  0  0  0  0  0  0
    3.1722   70.6601   80.5914 O   0  0  0  0  0  0  0  0  0  0  0  0
    0.9510   70.8152   81.8519 N   0  0  0  0  0  0  0  0  0  0  0  0
   -0.4605   70.7197   81.3458 C   0  0  0  0  0  0  0  0  0  0  0  0
   -1.2694   72.0001   81.6271 C   0  0  0  0  0  0  0  0  0  0  0  0
   -0.7062   73.2305   81.0324 N   0  0  0  0  0  0  0  0  0  0  0  0
    0.7704   73.1406   80.9271 C   0  0  0  0  0  0  0  0  0  0  0  0
    1.4065   72.2396   82.0000 C   0  0  0  0  0  0  0  0  0  0  0  0
   -1.2876   73.5749   79.7207 C   0  0  0  0  0  0  0  0  0  0  0  0
   -2.5758   72.8024   79.3890 C   0  0  0  0  0  0  0  0  0  0  0  0
   -3.4398   73.6508   78.6353 O   0  0  0  0  0  0  0  0  0  0  0  0
   -4.8053   73.4041   78.8980 N   0  0  0  0  0  0  0  0  0  0  0  0
   -5.4270   74.4227   79.1942 O   0  0  0  0  0  0  0  0  0  0  0  0
   -5.2003   72.2414   78.7922 O   0  0  0  0  0  0  0  0  0  0  0  0
    4.0951   66.3285   85.4261 O   0  0  0  0  0  0  0  0  0  0  0  0
    5.3543   66.5472   86.0666 C   0  0  0  0  0  0  0  0  0  0  0  0
    7.3918   66.0383   84.6497 C   0  0  0  0  0  0  0  0  0  0  0  0
    6.3823   65.4959   85.6524 C   0  0  0  0  0  0  0  0  0  0  0  0
 44 45  1  0  0  0
 45 43  1  0  0  0
 43 42  1  0  0  0
 42  1  1  0  0  0
  1  2  1  0  0  0
  2  3  2  0  0  0
  3  4  1  0  0  0
  4 27  1  0  0  0
 27 28  2  0  0  0
 27 29  2  0  0  0
 27 30  1  0  0  0
 30 31  1  0  0  0
 31 32  1  0  0  0
 32 33  1  0  0  0
 33 36  1  0  0  0
 36 37  1  0  0  0
 37 38  1  0  0  0
 38 39  1  0  0  0
 39 40  2  0  0  0
 39 41  1  0  0  0
 33 34  1  0  0  0
 34 35  1  0  0  0
  4  5  2  0  0  0
  5  6  1  0  0  0
  6  7  1  0  0  0
  7  8  2  0  0  0
  8  9  1  0  0  0
  9 10  1  0  0  0
 10 24  1  0  0  0
 24 25  1  0  0  0
 25 26  1  0  0  0
 10 11  2  0  0  0
 11 18  1  0  0  0
 18 19  2  0  0  0
 19 20  1  0  0  0
 11 12  1  0  0  0
 12 22  1  0  0  0
 22 23  1  0  0  0
 12 13  1  0  0  0
 13 14  1  0  0  0
 14 15  2  0  0  0
 14 16  1  0  0  0
  6  1  2  0  0  0
 16  7  1  0  0  0
 35 30  1  0  0  0
 13  9  2  0  0  0
 20 21  1  0  0  0
 16 17  1  0  0  0
M  CHG 1  39   1
M  CHG 1  41  -1
M  END
> <minimizedAffinity>
-10.18667

$$$$



 45 48  0  0  0  0  0  0  0  0999 V2000
    3.7734   67.0108   84.5376 C   0  0  0  0  0  0  0  0  0  0  0  0
    4.5218   68.0937   84.0515 C   0  0  0  0  0  0  0  0  0  0  0  0
    4.0207   68.9181   83.0386 C   0  0  0  0  0  0  0  0  0  0  0  0
    2.7686   68.6528   82.4909 C   0  0  0  0  0  0  0  0  0  0  0  0
    2.0291   67.5544   82.9266 C   0  0  0  0  0  0  0  0  0  0  0  0
    2.5088   66.7412   83.9680 C   0  0  0  0  0  0  0  0  0  0  0  0
    1.5866   65.6495   84.4329 C   0  0  0  0  0  0  0  0  0  0  0  0
    0.7433   65.1293   83.5856 N   0  0  0  0  0  0  0  0  0  0  0  0
   -0.0735   64.1334   84.1187 C   0  0  0  0  0  0  0  0  0  0  0  0
   -1.0550   63.4040   83.4255 C   0  0  0  0  0  0  0  0  0  0  0  0
   -1.6229   62.5261   84.3584 C   0  0  0  0  0  0  0  0  0  0  0  0
   -0.9905   62.7613   85.5807 N   0  0  0  0  0  0  0  0  0  0  0  0
   -0.0247   63.7283   85.4198 C   0  0  0  0  0  0  0  0  0  0  0  0
    0.9055   64.2947   86.3456 C   0  0  0  0  0  0  0  0  0  0  0  0
    1.0263   63.9985   87.5295 O   0  0  0  0  0  0  0  0  0  0  0  0
    1.6922   65.2566   85.7568 N   0  0  0  0  0  0  0  0  0  0  0  0
    2.3482   65.7234   86.3687 H   0  0  0  0  0  0  0  0  0  0  0  0
   -2.6702   61.5626   84.0845 C   0  0  0  0  0  0  0  0  0  0  0  0
   -2.5356   60.6055   83.2226 N   0  0  0  0  0  0  0  0  0  0  0  0
   -3.7174   59.8543   83.1799 O   0  0  0  0  0  0  0  0  0  0  0  0
   -3.5159   59.1839   82.5003 H   0  0  0  0  0  0  0  0  0  0  0  0
   -1.3058   62.1316   86.8558 C   0  0  0  0  0  0  0  0  0  0  0  0
   -2.3631   62.8946   87.6343 C   0  0  0  0  0  0  0  0  0  0  0  0
   -1.3838   63.5578   81.9718 C   0  0  0  0  0  0  0  0  0  0  0  0
   -0.4190   62.7783   81.0766 C   0  0  0  0  0  0  0  0  0  0  0  0
    0.2226   63.6774   80.0317 C   0  0  0  0  0  0  0  0  0  0  0  0
    2.1246   69.6864   81.1975 S   0  0  0  0  0  0  0  0  0  0  0  0
    1.4432   68.8445   80.2375 O   0  0  0  0  0  0  0  0  0  0  0  0
    3.1886   70.5756   80.7817 O   0  0  0  0  0  0  0  0  0  0  0  0
    0.9438   70.6184   82.0087 N   0  0  0  0  0  0  0  0  0  0  0  0
   -0.2331   71.0297   81.1702 C   0  0  0  0  0  0  0  0  0  0  0  0
   -0.9047   72.3124   81.6958 C   0  0  0  0  0  0  0  0  0  0  0  0
   -0.0179   73.4932   81.7595 N   0  0  0  0  0  0  0  0  0  0  0  0
    1.3886   73.0877   81.9984 C   0  0  0  0  0  0  0  0  0  0  0  0
    1.5207   71.7704   82.7824 C   0  0  0  0  0  0  0  0  0  0  0  0
   -0.0997   74.3610   80.5690 C   0  0  0  0  0  0  0  0  0  0  0  0
    0.0826   75.8573   80.8762 C   0  0  0  0  0  0  0  0  0  0  0  0
   -0.9363   76.2674   81.7862 O   0  0  0  0  0  0  0  0  0  0  0  0
   -0.4217   76.6152   83.0545 N   0  0  0  0  0  0  0  0  0  0  0  0
   -1.3021   76.8301   83.8854 O   0  0  0  0  0  0  0  0  0  0  0  0
    0.8042   76.6498   83.1771 O   0  0  0  0  0  0  0  0  0  0  0  0
    4.1991   66.1787   85.5393 O   0  0  0  0  0  0  0  0  0  0  0  0
    5.4476   65.4925   85.4210 C   0  0  0  0  0  0  0  0  0  0  0  0
    5.5288   65.5292   87.9529 C   0  0  0  0  0  0  0  0  0  0  0  0
    6.3169   65.6957   86.6607 C   0  0  0  0  0  0  0  0  0  0  0  0
 44 45  1  0  0  0
 45 43  1  0  0  0
 43 42  1  0  0  0
 42  1  1  0  0  0
  1  2  1  0  0  0
  2  3  2  0  0  0
  3  4  1  0  0  0
  4 27  1  0  0  0
 27 28  2  0  0  0
 27 29  2  0  0  0
 27 30  1  0  0  0
 30 31  1  0  0  0
 31 32  1  0  0  0
 32 33  1  0  0  0
 33 36  1  0  0  0
 36 37  1  0  0  0
 37 38  1  0  0  0
 38 39  1  0  0  0
 39 40  2  0  0  0
 39 41  1  0  0  0
 33 34  1  0  0  0
 34 35  1  0  0  0
  4  5  2  0  0  0
  5  6  1  0  0  0
  6  7  1  0  0  0
  7  8  2  0  0  0
  8  9  1  0  0  0
  9 10  1  0  0  0
 10 24  1  0  0  0
 24 25  1  0  0  0
 25 26  1  0  0  0
 10 11  2  0  0  0
 11 18  1  0  0  0
 18 19  2  0  0  0
 19 20  1  0  0  0
 11 12  1  0  0  0
 12 22  1  0  0  0
 22 23  1  0  0  0
 12 13  1  0  0  0
 13 14  1  0  0  0
 14 15  2  0  0  0
 14 16  1  0  0  0
  6  1  2  0  0  0
 16  7  1  0  0  0
 35 30  1  0  0  0
 13  9  2  0  0  0
 20 21  1  0  0  0
 16 17  1  0  0  0
M  CHG 1  39   1
M  CHG 1  41  -1
M  END
> <minimizedAffinity>
-10.05352

$$$$



 45 48  0  0  0  0  0  0  0  0999 V2000
    3.8100   66.8575   84.5293 C   0  0  0  0  0  0  0  0  0  0  0  0
    4.5868   67.9508   84.1166 C   0  0  0  0  0  0  0  0  0  0  0  0
    4.0586   68.9298   83.2685 C   0  0  0  0  0  0  0  0  0  0  0  0
    2.7488   68.8118   82.8119 C   0  0  0  0  0  0  0  0  0  0  0  0
    1.9755   67.7093   83.1719 C   0  0  0  0  0  0  0  0  0  0  0  0
    2.4856   66.7388   84.0517 C   0  0  0  0  0  0  0  0  0  0  0  0
    1.5336   65.6495   84.4586 C   0  0  0  0  0  0  0  0  0  0  0  0
    0.7532   65.1212   83.5577 N   0  0  0  0  0  0  0  0  0  0  0  0
   -0.0986   64.1284   84.0395 C   0  0  0  0  0  0  0  0  0  0  0  0
   -1.0275   63.3920   83.2841 C   0  0  0  0  0  0  0  0  0  0  0  0
   -1.6597   62.5209   84.1814 C   0  0  0  0  0  0  0  0  0  0  0  0
   -1.1161   62.7669   85.4436 N   0  0  0  0  0  0  0  0  0  0  0  0
   -0.1421   63.7339   85.3440 C   0  0  0  0  0  0  0  0  0  0  0  0
    0.7193   64.3092   86.3290 C   0  0  0  0  0  0  0  0  0  0  0  0
    0.7557   64.0228   87.5208 O   0  0  0  0  0  0  0  0  0  0  0  0
    1.5450   65.2675   85.7899 N   0  0  0  0  0  0  0  0  0  0  0  0
    2.1553   65.7402   86.4431 H   0  0  0  0  0  0  0  0  0  0  0  0
   -2.6840   61.5536   83.8414 C   0  0  0  0  0  0  0  0  0  0  0  0
   -2.4418   60.4917   83.1409 N   0  0  0  0  0  0  0  0  0  0  0  0
   -3.6298   59.7674   82.9766 O   0  0  0  0  0  0  0  0  0  0  0  0
   -3.3414   59.0115   82.4312 H   0  0  0  0  0  0  0  0  0  0  0  0
   -1.5208   62.1471   86.6981 C   0  0  0  0  0  0  0  0  0  0  0  0
   -2.6297   62.9163   87.3945 C   0  0  0  0  0  0  0  0  0  0  0  0
   -1.2521   63.5336   81.8095 C   0  0  0  0  0  0  0  0  0  0  0  0
   -0.2446   62.7232   80.9921 C   0  0  0  0  0  0  0  0  0  0  0  0
   -0.0233   63.3323   79.6167 C   0  0  0  0  0  0  0  0  0  0  0  0
    2.0690   70.0432   81.7269 S   0  0  0  0  0  0  0  0  0  0  0  0
    0.6769   70.2369   82.0722 O   0  0  0  0  0  0  0  0  0  0  0  0
    2.4574   69.6946   80.3766 O   0  0  0  0  0  0  0  0  0  0  0  0
    2.9214   71.4555   82.1740 N   0  0  0  0  0  0  0  0  0  0  0  0
    2.1760   72.3916   83.0826 C   0  0  0  0  0  0  0  0  0  0  0  0
    2.6678   73.8456   82.9534 C   0  0  0  0  0  0  0  0  0  0  0  0
    2.5533   74.4188   81.5958 N   0  0  0  0  0  0  0  0  0  0  0  0
    2.6804   73.3630   80.5620 C   0  0  0  0  0  0  0  0  0  0  0  0
    3.5444   72.1707   81.0083 C   0  0  0  0  0  0  0  0  0  0  0  0
    1.3149   75.1917   81.3810 C   0  0  0  0  0  0  0  0  0  0  0  0
    0.6402   74.9214   80.0252 C   0  0  0  0  0  0  0  0  0  0  0  0
   -0.7646   74.7838   80.2298 O   0  0  0  0  0  0  0  0  0  0  0  0
   -1.2674   73.5621   79.7306 N   0  0  0  0  0  0  0  0  0  0  0  0
   -0.8702   72.5865   80.3648 O   0  0  0  0  0  0  0  0  0  0  0  0
   -2.0262   73.6171   78.7609 O   0  0  0  0  0  0  0  0  0  0  0  0
    4.2617   65.8766   85.3725 O   0  0  0  0  0  0  0  0  0  0  0  0
    5.6335   65.4757   85.3382 C   0  0  0  0  0  0  0  0  0  0  0  0
    5.5903   65.4669   87.8712 C   0  0  0  0  0  0  0  0  0  0  0  0
    6.3628   65.8680   86.6219 C   0  0  0  0  0  0  0  0  0  0  0  0
 44 45  1  0  0  0
 45 43  1  0  0  0
 43 42  1  0  0  0
 42  1  1  0  0  0
  1  2  1  0  0  0
  2  3  2  0  0  0
  3  4  1  0  0  0
  4 27  1  0  0  0
 27 28  2  0  0  0
 27 29  2  0  0  0
 27 30  1  0  0  0
 30 31  1  0  0  0
 31 32  1  0  0  0
 32 33  1  0  0  0
 33 36  1  0  0  0
 36 37  1  0  0  0
 37 38  1  0  0  0
 38 39  1  0  0  0
 39 40  2  0  0  0
 39 41  1  0  0  0
 33 34  1  0  0  0
 34 35  1  0  0  0
  4  5  2  0  0  0
  5  6  1  0  0  0
  6  7  1  0  0  0
  7  8  2  0  0  0
  8  9  1  0  0  0
  9 10  1  0  0  0
 10 24  1  0  0  0
 24 25  1  0  0  0
 25 26  1  0  0  0
 10 11  2  0  0  0
 11 18  1  0  0  0
 18 19  2  0  0  0
 19 20  1  0  0  0
 11 12  1  0  0  0
 12 22  1  0  0  0
 22 23  1  0  0  0
 12 13  1  0  0  0
 13 14  1  0  0  0
 14 15  2  0  0  0
 14 16  1  0  0  0
  6  1  2  0  0  0
 16  7  1  0  0  0
 35 30  1  0  0  0
 13  9  2  0  0  0
 20 21  1  0  0  0
 16 17  1  0  0  0
M  CHG 1  39   1
M  CHG 1  41  -1
M  END
> <minimizedAffinity>
-9.99799

$$$$



 45 48  0  0  0  0  0  0  0  0999 V2000
    4.0574   66.6965   84.2799 C   0  0  0  0  0  0  0  0  0  0  0  0
    4.8552   67.7905   83.9114 C   0  0  0  0  0  0  0  0  0  0  0  0
    4.2804   68.9682   83.4220 C   0  0  0  0  0  0  0  0  0  0  0  0
    2.8980   69.0531   83.2813 C   0  0  0  0  0  0  0  0  0  0  0  0
    2.0908   67.9614   83.5971 C   0  0  0  0  0  0  0  0  0  0  0  0
    2.6562   66.7865   84.1226 C   0  0  0  0  0  0  0  0  0  0  0  0
    1.6882   65.7111   84.5286 C   0  0  0  0  0  0  0  0  0  0  0  0
    0.8574   65.2390   83.6417 N   0  0  0  0  0  0  0  0  0  0  0  0
   -0.0047   64.2544   84.1219 C   0  0  0  0  0  0  0  0  0  0  0  0
   -0.9845   63.5734   83.3789 C   0  0  0  0  0  0  0  0  0  0  0  0
   -1.6072   62.6886   84.2694 C   0  0  0  0  0  0  0  0  0  0  0  0
   -1.0073   62.8724   85.5166 N   0  0  0  0  0  0  0  0  0  0  0  0
   -0.0090   63.8137   85.4122 C   0  0  0  0  0  0  0  0  0  0  0  0
    0.9074   64.3274   86.3816 C   0  0  0  0  0  0  0  0  0  0  0  0
    0.9818   63.9965   87.5601 O   0  0  0  0  0  0  0  0  0  0  0  0
    1.7402   65.2804   85.8440 N   0  0  0  0  0  0  0  0  0  0  0  0
    2.3897   65.7109   86.4884 H   0  0  0  0  0  0  0  0  0  0  0  0
   -2.6730   61.7646   83.9369 C   0  0  0  0  0  0  0  0  0  0  0  0
   -2.4602   60.6284   83.3530 N   0  0  0  0  0  0  0  0  0  0  0  0
   -3.6835   59.9729   83.1609 O   0  0  0  0  0  0  0  0  0  0  0  0
   -3.4133   59.1522   82.7079 H   0  0  0  0  0  0  0  0  0  0  0  0
   -1.3813   62.2190   86.7637 C   0  0  0  0  0  0  0  0  0  0  0  0
   -2.4929   62.9528   87.4929 C   0  0  0  0  0  0  0  0  0  0  0  0
   -1.2623   63.7753   81.9204 C   0  0  0  0  0  0  0  0  0  0  0  0
   -0.6257   62.6859   81.0557 C   0  0  0  0  0  0  0  0  0  0  0  0
   -1.6054   62.1483   80.0246 C   0  0  0  0  0  0  0  0  0  0  0  0
    2.1560   70.5395   82.6521 S   0  0  0  0  0  0  0  0  0  0  0  0
    3.1558   71.5859   82.6572 O   0  0  0  0  0  0  0  0  0  0  0  0
    0.8921   70.7169   83.3353 O   0  0  0  0  0  0  0  0  0  0  0  0
    1.8248   70.1388   81.0239 N   0  0  0  0  0  0  0  0  0  0  0  0
    0.4305   69.6466   80.7575 C   0  0  0  0  0  0  0  0  0  0  0  0
    0.3580   68.7445   79.5110 C   0  0  0  0  0  0  0  0  0  0  0  0
    1.2109   67.5388   79.5698 N   0  0  0  0  0  0  0  0  0  0  0  0
    2.4171   67.7825   80.3977 C   0  0  0  0  0  0  0  0  0  0  0  0
    2.8684   69.2534   80.4031 C   0  0  0  0  0  0  0  0  0  0  0  0
    0.5037   66.3349   80.0470 C   0  0  0  0  0  0  0  0  0  0  0  0
   -0.2001   65.5437   78.9312 C   0  0  0  0  0  0  0  0  0  0  0  0
    0.6854   64.5315   78.4563 O   0  0  0  0  0  0  0  0  0  0  0  0
    0.1539   63.8180   77.3596 N   0  0  0  0  0  0  0  0  0  0  0  0
    0.6476   62.6992   77.2322 O   0  0  0  0  0  0  0  0  0  0  0  0
   -0.7182   64.3763   76.6910 O   0  0  0  0  0  0  0  0  0  0  0  0
    4.5570   65.5240   84.7827 O   0  0  0  0  0  0  0  0  0  0  0  0
    5.8942   65.4699   85.2850 C   0  0  0  0  0  0  0  0  0  0  0  0
    4.9241   65.0164   87.5810 C   0  0  0  0  0  0  0  0  0  0  0  0
    5.9460   65.8061   86.7744 C   0  0  0  0  0  0  0  0  0  0  0  0
 44 45  1  0  0  0
 45 43  1  0  0  0
 43 42  1  0  0  0
 42  1  1  0  0  0
  1  2  1  0  0  0
  2  3  2  0  0  0
  3  4  1  0  0  0
  4 27  1  0  0  0
 27 28  2  0  0  0
 27 29  2  0  0  0
 27 30  1  0  0  0
 30 31  1  0  0  0
 31 32  1  0  0  0
 32 33  1  0  0  0
 33 36  1  0  0  0
 36 37  1  0  0  0
 37 38  1  0  0  0
 38 39  1  0  0  0
 39 40  2  0  0  0
 39 41  1  0  0  0
 33 34  1  0  0  0
 34 35  1  0  0  0
  4  5  2  0  0  0
  5  6  1  0  0  0
  6  7  1  0  0  0
  7  8  2  0  0  0
  8  9  1  0  0  0
  9 10  1  0  0  0
 10 24  1  0  0  0
 24 25  1  0  0  0
 25 26  1  0  0  0
 10 11  2  0  0  0
 11 18  1  0  0  0
 18 19  2  0  0  0
 19 20  1  0  0  0
 11 12  1  0  0  0
 12 22  1  0  0  0
 22 23  1  0  0  0
 12 13  1  0  0  0
 13 14  1  0  0  0
 14 15  2  0  0  0
 14 16  1  0  0  0
  6  1  2  0  0  0
 16  7  1  0  0  0
 35 30  1  0  0  0
 13  9  2  0  0  0
 20 21  1  0  0  0
 16 17  1  0  0  0
M  CHG 1  39   1
M  CHG 1  41  -1
M  END
> <minimizedAffinity>
-9.51598

$$$$



 45 48  0  0  0  0  0  0  0  0999 V2000
    0.9540   65.3450   82.7692 C   0  0  0  0  0  0  0  0  0  0  0  0
    1.4860   66.4569   83.4397 C   0  0  0  0  0  0  0  0  0  0  0  0
    1.6523   67.6813   82.7839 C   0  0  0  0  0  0  0  0  0  0  0  0
    1.3016   67.7968   81.4416 C   0  0  0  0  0  0  0  0  0  0  0  0
    0.8155   66.6920   80.7444 C   0  0  0  0  0  0  0  0  0  0  0  0
    0.6119   65.4673   81.4038 C   0  0  0  0  0  0  0  0  0  0  0  0
   -0.0153   64.3728   80.5872 C   0  0  0  0  0  0  0  0  0  0  0  0
   -0.9711   63.6587   81.1128 N   0  0  0  0  0  0  0  0  0  0  0  0
   -1.4769   62.6636   80.2779 C   0  0  0  0  0  0  0  0  0  0  0  0
   -2.5124   61.7652   80.5886 C   0  0  0  0  0  0  0  0  0  0  0  0
   -2.6745   60.9489   79.4611 C   0  0  0  0  0  0  0  0  0  0  0  0
   -1.7291   61.3585   78.5190 N   0  0  0  0  0  0  0  0  0  0  0  0
   -1.0174   62.4261   79.0163 C   0  0  0  0  0  0  0  0  0  0  0  0
    0.0257   63.2147   78.4389 C   0  0  0  0  0  0  0  0  0  0  0  0
    0.5045   63.0802   77.3179 O   0  0  0  0  0  0  0  0  0  0  0  0
    0.4698   64.1877   79.3031 N   0  0  0  0  0  0  0  0  0  0  0  0
    1.2345   64.7581   78.9677 H   0  0  0  0  0  0  0  0  0  0  0  0
   -3.6477   59.8843   79.3207 C   0  0  0  0  0  0  0  0  0  0  0  0
   -3.5465   58.7539   79.9445 N   0  0  0  0  0  0  0  0  0  0  0  0
   -4.6298   57.9367   79.5960 O   0  0  0  0  0  0  0  0  0  0  0  0
   -4.4482   57.1209   80.0994 H   0  0  0  0  0  0  0  0  0  0  0  0
   -1.4782   60.7484   77.2203 C   0  0  0  0  0  0  0  0  0  0  0  0
   -0.5985   59.5145   77.3188 C   0  0  0  0  0  0  0  0  0  0  0  0
   -3.2747   61.7336   81.8781 C   0  0  0  0  0  0  0  0  0  0  0  0
   -2.4899   61.0439   82.9953 C   0  0  0  0  0  0  0  0  0  0  0  0
   -2.6372   61.7805   84.3174 C   0  0  0  0  0  0  0  0  0  0  0  0
    1.5166   69.3434   80.5944 S   0  0  0  0  0  0  0  0  0  0  0  0
    0.2526   70.0483   80.6039 O   0  0  0  0  0  0  0  0  0  0  0  0
    2.2022   69.0653   79.3501 O   0  0  0  0  0  0  0  0  0  0  0  0
    2.5960   70.1886   81.6150 N   0  0  0  0  0  0  0  0  0  0  0  0
    2.0204   71.4011   82.2903 C   0  0  0  0  0  0  0  0  0  0  0  0
    3.1027   72.4344   82.6562 C   0  0  0  0  0  0  0  0  0  0  0  0
    3.8871   72.9405   81.5103 N   0  0  0  0  0  0  0  0  0  0  0  0
    3.9893   71.9152   80.4435 C   0  0  0  0  0  0  0  0  0  0  0  0
    3.9252   70.4723   80.9738 C   0  0  0  0  0  0  0  0  0  0  0  0
    3.3710   74.2044   80.9504 C   0  0  0  0  0  0  0  0  0  0  0  0
    2.3005   74.8805   81.8241 C   0  0  0  0  0  0  0  0  0  0  0  0
    1.0739   74.9238   81.0975 O   0  0  0  0  0  0  0  0  0  0  0  0
   -0.0503   74.6842   81.9180 N   0  0  0  0  0  0  0  0  0  0  0  0
   -0.3483   75.6519   82.6155 O   0  0  0  0  0  0  0  0  0  0  0  0
   -0.5869   73.5779   81.8328 O   0  0  0  0  0  0  0  0  0  0  0  0
    0.7488   64.1256   83.3592 O   0  0  0  0  0  0  0  0  0  0  0  0
   -0.0527   64.0241   84.5386 C   0  0  0  0  0  0  0  0  0  0  0  0
   -0.0293   64.1328   87.0695 C   0  0  0  0  0  0  0  0  0  0  0  0
    0.8072   64.0313   85.8012 C   0  0  0  0  0  0  0  0  0  0  0  0
 44 45  1  0  0  0
 45 43  1  0  0  0
 43 42  1  0  0  0
 42  1  1  0  0  0
  1  2  1  0  0  0
  2  3  2  0  0  0
  3  4  1  0  0  0
  4 27  1  0  0  0
 27 28  2  0  0  0
 27 29  2  0  0  0
 27 30  1  0  0  0
 30 31  1  0  0  0
 31 32  1  0  0  0
 32 33  1  0  0  0
 33 36  1  0  0  0
 36 37  1  0  0  0
 37 38  1  0  0  0
 38 39  1  0  0  0
 39 40  2  0  0  0
 39 41  1  0  0  0
 33 34  1  0  0  0
 34 35  1  0  0  0
  4  5  2  0  0  0
  5  6  1  0  0  0
  6  7  1  0  0  0
  7  8  2  0  0  0
  8  9  1  0  0  0
  9 10  1  0  0  0
 10 24  1  0  0  0
 24 25  1  0  0  0
 25 26  1  0  0  0
 10 11  2  0  0  0
 11 18  1  0  0  0
 18 19  2  0  0  0
 19 20  1  0  0  0
 11 12  1  0  0  0
 12 22  1  0  0  0
 22 23  1  0  0  0
 12 13  1  0  0  0
 13 14  1  0  0  0
 14 15  2  0  0  0
 14 16  1  0  0  0
  6  1  2  0  0  0
 16  7  1  0  0  0
 35 30  1  0  0  0
 13  9  2  0  0  0
 20 21  1  0  0  0
 16 17  1  0  0  0
M  CHG 1  39   1
M  CHG 1  41  -1
M  END
> <minimizedAffinity>
-9.27456

$$$$



 45 48  0  0  0  0  0  0  0  0999 V2000
    1.2918   65.5754   83.9073 C   0  0  0  0  0  0  0  0  0  0  0  0
    1.9908   66.7203   84.3191 C   0  0  0  0  0  0  0  0  0  0  0  0
    2.1190   67.8280   83.4746 C   0  0  0  0  0  0  0  0  0  0  0  0
    1.5606   67.7906   82.2000 C   0  0  0  0  0  0  0  0  0  0  0  0
    0.9028   66.6454   81.7539 C   0  0  0  0  0  0  0  0  0  0  0  0
    0.7385   65.5408   82.6077 C   0  0  0  0  0  0  0  0  0  0  0  0
   -0.0771   64.4012   82.0652 C   0  0  0  0  0  0  0  0  0  0  0  0
    0.1234   64.0063   80.8390 N   0  0  0  0  0  0  0  0  0  0  0  0
   -0.6911   62.9516   80.4296 C   0  0  0  0  0  0  0  0  0  0  0  0
   -0.6740   62.3292   79.1694 C   0  0  0  0  0  0  0  0  0  0  0  0
   -1.6613   61.3356   79.2096 C   0  0  0  0  0  0  0  0  0  0  0  0
   -2.2550   61.3982   80.4716 N   0  0  0  0  0  0  0  0  0  0  0  0
   -1.6376   62.3725   81.2221 C   0  0  0  0  0  0  0  0  0  0  0  0
   -1.8512   62.8021   82.5686 C   0  0  0  0  0  0  0  0  0  0  0  0
   -2.6732   62.3465   83.3564 O   0  0  0  0  0  0  0  0  0  0  0  0
   -1.0080   63.8308   82.9175 N   0  0  0  0  0  0  0  0  0  0  0  0
   -1.1336   64.2060   83.8481 H   0  0  0  0  0  0  0  0  0  0  0  0
   -1.9885   60.4244   78.1312 C   0  0  0  0  0  0  0  0  0  0  0  0
   -1.5986   59.1896   78.1128 N   0  0  0  0  0  0  0  0  0  0  0  0
   -2.0649   58.5766   76.9424 O   0  0  0  0  0  0  0  0  0  0  0  0
   -1.7069   57.6725   77.0217 H   0  0  0  0  0  0  0  0  0  0  0  0
   -3.3811   60.6023   80.9409 C   0  0  0  0  0  0  0  0  0  0  0  0
   -2.9399   59.3613   81.6969 C   0  0  0  0  0  0  0  0  0  0  0  0
    0.2465   62.6818   78.0410 C   0  0  0  0  0  0  0  0  0  0  0  0
   -0.4684   63.4597   76.9349 C   0  0  0  0  0  0  0  0  0  0  0  0
   -0.6696   64.9173   77.3184 C   0  0  0  0  0  0  0  0  0  0  0  0
    1.7242   69.1870   81.1140 S   0  0  0  0  0  0  0  0  0  0  0  0
    0.9557   68.9256   79.9158 O   0  0  0  0  0  0  0  0  0  0  0  0
    3.1323   69.5141   81.0363 O   0  0  0  0  0  0  0  0  0  0  0  0
    0.9389   70.4346   81.9788 N   0  0  0  0  0  0  0  0  0  0  0  0
   -0.2761   71.0105   81.3083 C   0  0  0  0  0  0  0  0  0  0  0  0
   -0.5601   72.4565   81.7568 C   0  0  0  0  0  0  0  0  0  0  0  0
    0.5383   73.4112   81.4984 N   0  0  0  0  0  0  0  0  0  0  0  0
    1.8548   72.7296   81.5438 C   0  0  0  0  0  0  0  0  0  0  0  0
    1.8762   71.5015   82.4704 C   0  0  0  0  0  0  0  0  0  0  0  0
    0.3945   74.1514   80.2302 C   0  0  0  0  0  0  0  0  0  0  0  0
   -1.0614   74.4968   79.8731 C   0  0  0  0  0  0  0  0  0  0  0  0
   -1.3089   74.1066   78.5237 O   0  0  0  0  0  0  0  0  0  0  0  0
   -2.5588   73.4685   78.3651 N   0  0  0  0  0  0  0  0  0  0  0  0
   -3.2170   73.9303   77.4349 O   0  0  0  0  0  0  0  0  0  0  0  0
   -2.8273   72.5503   79.1421 O   0  0  0  0  0  0  0  0  0  0  0  0
    1.1149   64.4668   84.6928 O   0  0  0  0  0  0  0  0  0  0  0  0
    0.6971   64.6092   86.0525 C   0  0  0  0  0  0  0  0  0  0  0  0
   -0.5807   63.5044   87.9405 C   0  0  0  0  0  0  0  0  0  0  0  0
   -0.3171   63.5350   86.4412 C   0  0  0  0  0  0  0  0  0  0  0  0
 44 45  1  0  0  0
 45 43  1  0  0  0
 43 42  1  0  0  0
 42  1  1  0  0  0
  1  2  1  0  0  0
  2  3  2  0  0  0
  3  4  1  0  0  0
  4 27  1  0  0  0
 27 28  2  0  0  0
 27 29  2  0  0  0
 27 30  1  0  0  0
 30 31  1  0  0  0
 31 32  1  0  0  0
 32 33  1  0  0  0
 33 36  1  0  0  0
 36 37  1  0  0  0
 37 38  1  0  0  0
 38 39  1  0  0  0
 39 40  2  0  0  0
 39 41  1  0  0  0
 33 34  1  0  0  0
 34 35  1  0  0  0
  4  5  2  0  0  0
  5  6  1  0  0  0
  6  7  1  0  0  0
  7  8  2  0  0  0
  8  9  1  0  0  0
  9 10  1  0  0  0
 10 24  1  0  0  0
 24 25  1  0  0  0
 25 26  1  0  0  0
 10 11  2  0  0  0
 11 18  1  0  0  0
 18 19  2  0  0  0
 19 20  1  0  0  0
 11 12  1  0  0  0
 12 22  1  0  0  0
 22 23  1  0  0  0
 12 13  1  0  0  0
 13 14  1  0  0  0
 14 15  2  0  0  0
 14 16  1  0  0  0
  6  1  2  0  0  0
 16  7  1  0  0  0
 35 30  1  0  0  0
 13  9  2  0  0  0
 20 21  1  0  0  0
 16 17  1  0  0  0
M  CHG 1  39   1
M  CHG 1  41  -1
M  END
> <minimizedAffinity>
-9.20706

$$$$



 45 48  0  0  0  0  0  0  0  0999 V2000
   -0.1689   63.2718   85.5547 C   0  0  0  0  0  0  0  0  0  0  0  0
   -1.0832   62.2107   85.4700 C   0  0  0  0  0  0  0  0  0  0  0  0
   -1.6134   61.8139   84.2379 C   0  0  0  0  0  0  0  0  0  0  0  0
   -1.2434   62.4904   83.0789 C   0  0  0  0  0  0  0  0  0  0  0  0
   -0.3729   63.5771   83.1466 C   0  0  0  0  0  0  0  0  0  0  0  0
    0.1921   63.9610   84.3753 C   0  0  0  0  0  0  0  0  0  0  0  0
    1.1987   65.0755   84.3207 C   0  0  0  0  0  0  0  0  0  0  0  0
    0.9802   66.0881   83.5291 N   0  0  0  0  0  0  0  0  0  0  0  0
    1.9783   67.0611   83.5443 C   0  0  0  0  0  0  0  0  0  0  0  0
    1.9879   68.2534   82.7999 C   0  0  0  0  0  0  0  0  0  0  0  0
    3.1820   68.9099   83.1266 C   0  0  0  0  0  0  0  0  0  0  0  0
    3.8629   68.0953   84.0334 N   0  0  0  0  0  0  0  0  0  0  0  0
    3.1073   66.9777   84.3044 C   0  0  0  0  0  0  0  0  0  0  0  0
    3.3418   65.8702   85.1771 C   0  0  0  0  0  0  0  0  0  0  0  0
    4.3206   65.7053   85.8973 O   0  0  0  0  0  0  0  0  0  0  0  0
    2.3163   64.9554   85.1301 N   0  0  0  0  0  0  0  0  0  0  0  0
    2.4384   64.1280   85.6986 H   0  0  0  0  0  0  0  0  0  0  0  0
    3.6105   70.1936   82.6084 C   0  0  0  0  0  0  0  0  0  0  0  0
    2.9466   71.2877   82.8067 N   0  0  0  0  0  0  0  0  0  0  0  0
    3.6088   72.3492   82.1760 O   0  0  0  0  0  0  0  0  0  0  0  0
    3.0255   73.1065   82.3713 H   0  0  0  0  0  0  0  0  0  0  0  0
    5.1857   68.3376   84.5931 C   0  0  0  0  0  0  0  0  0  0  0  0
    6.2532   67.4626   83.9599 C   0  0  0  0  0  0  0  0  0  0  0  0
    0.9054   68.7004   81.8654 C   0  0  0  0  0  0  0  0  0  0  0  0
    0.9168   67.9162   80.5521 C   0  0  0  0  0  0  0  0  0  0  0  0
   -0.4831   67.4788   80.1512 C   0  0  0  0  0  0  0  0  0  0  0  0
   -1.9165   62.0026   81.5089 S   0  0  0  0  0  0  0  0  0  0  0  0
   -3.1354   62.7494   81.2833 O   0  0  0  0  0  0  0  0  0  0  0  0
   -1.9137   60.5555   81.4659 O   0  0  0  0  0  0  0  0  0  0  0  0
   -0.7434   62.5664   80.4011 N   0  0  0  0  0  0  0  0  0  0  0  0
   -1.2874   63.3318   79.2282 C   0  0  0  0  0  0  0  0  0  0  0  0
   -0.3529   63.2681   78.0054 C   0  0  0  0  0  0  0  0  0  0  0  0
   -0.0769   61.9038   77.5084 N   0  0  0  0  0  0  0  0  0  0  0  0
   -0.1315   60.9159   78.6133 C   0  0  0  0  0  0  0  0  0  0  0  0
    0.2397   61.5094   79.9834 C   0  0  0  0  0  0  0  0  0  0  0  0
   -0.9651   61.4826   76.4080 C   0  0  0  0  0  0  0  0  0  0  0  0
   -1.8709   60.2905   76.7612 C   0  0  0  0  0  0  0  0  0  0  0  0
   -3.1539   60.7844   77.1410 O   0  0  0  0  0  0  0  0  0  0  0  0
   -3.5628   60.3124   78.4076 N   0  0  0  0  0  0  0  0  0  0  0  0
   -4.2806   61.1107   79.0068 O   0  0  0  0  0  0  0  0  0  0  0  0
   -3.1751   59.1923   78.7456 O   0  0  0  0  0  0  0  0  0  0  0  0
    0.3999   63.6960   86.7267 O   0  0  0  0  0  0  0  0  0  0  0  0
   -0.4146   64.2586   87.7580 C   0  0  0  0  0  0  0  0  0  0  0  0
    0.2845   62.2283   89.1023 C   0  0  0  0  0  0  0  0  0  0  0  0
   -0.8406   63.2003   88.7739 C   0  0  0  0  0  0  0  0  0  0  0  0
 44 45  1  0  0  0
 45 43  1  0  0  0
 43 42  1  0  0  0
 42  1  1  0  0  0
  1  2  1  0  0  0
  2  3  2  0  0  0
  3  4  1  0  0  0
  4 27  1  0  0  0
 27 28  2  0  0  0
 27 29  2  0  0  0
 27 30  1  0  0  0
 30 31  1  0  0  0
 31 32  1  0  0  0
 32 33  1  0  0  0
 33 36  1  0  0  0
 36 37  1  0  0  0
 37 38  1  0  0  0
 38 39  1  0  0  0
 39 40  2  0  0  0
 39 41  1  0  0  0
 33 34  1  0  0  0
 34 35  1  0  0  0
  4  5  2  0  0  0
  5  6  1  0  0  0
  6  7  1  0  0  0
  7  8  2  0  0  0
  8  9  1  0  0  0
  9 10  1  0  0  0
 10 24  1  0  0  0
 24 25  1  0  0  0
 25 26  1  0  0  0
 10 11  2  0  0  0
 11 18  1  0  0  0
 18 19  2  0  0  0
 19 20  1  0  0  0
 11 12  1  0  0  0
 12 22  1  0  0  0
 22 23  1  0  0  0
 12 13  1  0  0  0
 13 14  1  0  0  0
 14 15  2  0  0  0
 14 16  1  0  0  0
  6  1  2  0  0  0
 16  7  1  0  0  0
 35 30  1  0  0  0
 13  9  2  0  0  0
 20 21  1  0  0  0
 16 17  1  0  0  0
M  CHG 1  39   1
M  CHG 1  41  -1
M  END
> <minimizedAffinity>
-9.16951

$$$$



 45 48  0  0  0  0  0  0  0  0999 V2000
    0.9763   65.1596   82.9729 C   0  0  0  0  0  0  0  0  0  0  0  0
    1.5627   66.1646   83.7572 C   0  0  0  0  0  0  0  0  0  0  0  0
    1.8869   67.4094   83.2076 C   0  0  0  0  0  0  0  0  0  0  0  0
    1.6409   67.6521   81.8591 C   0  0  0  0  0  0  0  0  0  0  0  0
    1.1025   66.6515   81.0515 C   0  0  0  0  0  0  0  0  0  0  0  0
    0.7412   65.4097   81.6023 C   0  0  0  0  0  0  0  0  0  0  0  0
    0.0718   64.4416   80.6681 C   0  0  0  0  0  0  0  0  0  0  0  0
   -0.9754   63.7839   81.0811 N   0  0  0  0  0  0  0  0  0  0  0  0
   -1.5141   62.9043   80.1433 C   0  0  0  0  0  0  0  0  0  0  0  0
   -2.6433   62.0869   80.3233 C   0  0  0  0  0  0  0  0  0  0  0  0
   -2.8058   61.3740   79.1279 C   0  0  0  0  0  0  0  0  0  0  0  0
   -1.7696   61.7607   78.2758 N   0  0  0  0  0  0  0  0  0  0  0  0
   -0.9984   62.7176   78.8949 C   0  0  0  0  0  0  0  0  0  0  0  0
    0.1456   63.4447   78.4412 C   0  0  0  0  0  0  0  0  0  0  0  0
    0.6807   63.3481   77.3420 O   0  0  0  0  0  0  0  0  0  0  0  0
    0.6190   64.3060   79.4029 N   0  0  0  0  0  0  0  0  0  0  0  0
    1.4514   64.8250   79.1572 H   0  0  0  0  0  0  0  0  0  0  0  0
   -3.8593   60.4186   78.8495 C   0  0  0  0  0  0  0  0  0  0  0  0
   -3.8386   59.2019   79.2925 N   0  0  0  0  0  0  0  0  0  0  0  0
   -4.9852   58.5303   78.8483 O   0  0  0  0  0  0  0  0  0  0  0  0
   -4.8614   57.6360   79.2182 H   0  0  0  0  0  0  0  0  0  0  0  0
   -1.4922   61.2263   76.9495 C   0  0  0  0  0  0  0  0  0  0  0  0
   -0.6461   59.9661   76.9967 C   0  0  0  0  0  0  0  0  0  0  0  0
   -3.4858   62.0330   81.5612 C   0  0  0  0  0  0  0  0  0  0  0  0
   -2.8041   61.2571   82.6896 C   0  0  0  0  0  0  0  0  0  0  0  0
   -2.9398   59.7552   82.4953 C   0  0  0  0  0  0  0  0  0  0  0  0
    2.0564   69.2254   81.1465 S   0  0  0  0  0  0  0  0  0  0  0  0
    1.6811   69.2066   79.7489 O   0  0  0  0  0  0  0  0  0  0  0  0
    3.4117   69.5393   81.5471 O   0  0  0  0  0  0  0  0  0  0  0  0
    1.0034   70.2997   81.9578 N   0  0  0  0  0  0  0  0  0  0  0  0
   -0.1402   70.8188   81.1331 C   0  0  0  0  0  0  0  0  0  0  0  0
   -0.6552   72.1791   81.6399 C   0  0  0  0  0  0  0  0  0  0  0  0
    0.3566   73.2564   81.6563 N   0  0  0  0  0  0  0  0  0  0  0  0
    1.7154   72.7042   81.8769 C   0  0  0  0  0  0  0  0  0  0  0  0
    1.7204   71.3985   82.6907 C   0  0  0  0  0  0  0  0  0  0  0  0
    0.3433   74.1008   80.4464 C   0  0  0  0  0  0  0  0  0  0  0  0
   -1.0602   74.5800   80.0377 C   0  0  0  0  0  0  0  0  0  0  0  0
   -1.4238   73.9465   78.8125 O   0  0  0  0  0  0  0  0  0  0  0  0
   -2.7551   73.4753   78.8208 N   0  0  0  0  0  0  0  0  0  0  0  0
   -2.8283   72.2497   78.8854 O   0  0  0  0  0  0  0  0  0  0  0  0
   -3.6533   74.3181   78.7753 O   0  0  0  0  0  0  0  0  0  0  0  0
    0.6186   63.9280   83.4549 O   0  0  0  0  0  0  0  0  0  0  0  0
    0.0310   63.8075   84.7525 C   0  0  0  0  0  0  0  0  0  0  0  0
   -1.3081   62.2508   86.2363 C   0  0  0  0  0  0  0  0  0  0  0  0
   -0.3399   62.3591   85.0661 C   0  0  0  0  0  0  0  0  0  0  0  0
 44 45  1  0  0  0
 45 43  1  0  0  0
 43 42  1  0  0  0
 42  1  1  0  0  0
  1  2  1  0  0  0
  2  3  2  0  0  0
  3  4  1  0  0  0
  4 27  1  0  0  0
 27 28  2  0  0  0
 27 29  2  0  0  0
 27 30  1  0  0  0
 30 31  1  0  0  0
 31 32  1  0  0  0
 32 33  1  0  0  0
 33 36  1  0  0  0
 36 37  1  0  0  0
 37 38  1  0  0  0
 38 39  1  0  0  0
 39 40  2  0  0  0
 39 41  1  0  0  0
 33 34  1  0  0  0
 34 35  1  0  0  0
  4  5  2  0  0  0
  5  6  1  0  0  0
  6  7  1  0  0  0
  7  8  2  0  0  0
  8  9  1  0  0  0
  9 10  1  0  0  0
 10 24  1  0  0  0
 24 25  1  0  0  0
 25 26  1  0  0  0
 10 11  2  0  0  0
 11 18  1  0  0  0
 18 19  2  0  0  0
 19 20  1  0  0  0
 11 12  1  0  0  0
 12 22  1  0  0  0
 22 23  1  0  0  0
 12 13  1  0  0  0
 13 14  1  0  0  0
 14 15  2  0  0  0
 14 16  1  0  0  0
  6  1  2  0  0  0
 16  7  1  0  0  0
 35 30  1  0  0  0
 13  9  2  0  0  0
 20 21  1  0  0  0
 16 17  1  0  0  0
M  CHG 1  39   1
M  CHG 1  41  -1
M  END
> <minimizedAffinity>
-9.16268

$$$$



 45 48  0  0  0  0  0  0  0  0999 V2000
    0.5330   64.0201   81.4295 C   0  0  0  0  0  0  0  0  0  0  0  0
    0.4146   62.6518   81.1420 C   0  0  0  0  0  0  0  0  0  0  0  0
    0.0514   62.2134   79.8643 C   0  0  0  0  0  0  0  0  0  0  0  0
   -0.2137   63.1463   78.8656 C   0  0  0  0  0  0  0  0  0  0  0  0
   -0.1478   64.5109   79.1428 C   0  0  0  0  0  0  0  0  0  0  0  0
    0.2505   64.9606   80.4137 C   0  0  0  0  0  0  0  0  0  0  0  0
    0.3915   66.4481   80.5745 C   0  0  0  0  0  0  0  0  0  0  0  0
    1.2982   66.9141   81.3872 N   0  0  0  0  0  0  0  0  0  0  0  0
    1.3395   68.3049   81.4728 C   0  0  0  0  0  0  0  0  0  0  0  0
    2.2236   69.0631   82.2597 C   0  0  0  0  0  0  0  0  0  0  0  0
    1.8941   70.4066   82.0356 C   0  0  0  0  0  0  0  0  0  0  0  0
    0.8186   70.4220   81.1455 N   0  0  0  0  0  0  0  0  0  0  0  0
    0.5019   69.1323   80.7849 C   0  0  0  0  0  0  0  0  0  0  0  0
   -0.4869   68.6198   79.8889 C   0  0  0  0  0  0  0  0  0  0  0  0
   -1.2823   69.2791   79.2283 O   0  0  0  0  0  0  0  0  0  0  0  0
   -0.4663   67.2459   79.8355 N   0  0  0  0  0  0  0  0  0  0  0  0
   -1.1677   66.8181   79.2460 H   0  0  0  0  0  0  0  0  0  0  0  0
    2.5585   71.5504   82.6276 C   0  0  0  0  0  0  0  0  0  0  0  0
    1.9300   72.4466   83.3197 N   0  0  0  0  0  0  0  0  0  0  0  0
    2.8409   73.4223   83.7456 O   0  0  0  0  0  0  0  0  0  0  0  0
    2.2695   74.0444   84.2338 H   0  0  0  0  0  0  0  0  0  0  0  0
    0.0931   71.5970   80.6821 C   0  0  0  0  0  0  0  0  0  0  0  0
   -1.0892   71.9377   81.5721 C   0  0  0  0  0  0  0  0  0  0  0  0
    3.3006   68.5028   83.1379 C   0  0  0  0  0  0  0  0  0  0  0  0
    2.7303   67.7179   84.3205 C   0  0  0  0  0  0  0  0  0  0  0  0
    3.4340   66.3812   84.4944 C   0  0  0  0  0  0  0  0  0  0  0  0
   -0.6852   62.6032   77.2412 S   0  0  0  0  0  0  0  0  0  0  0  0
    0.2060   61.5354   76.8407 O   0  0  0  0  0  0  0  0  0  0  0  0
   -0.8466   63.7833   76.4184 O   0  0  0  0  0  0  0  0  0  0  0  0
   -2.2322   61.9250   77.5017 N   0  0  0  0  0  0  0  0  0  0  0  0
   -2.8902   62.3118   78.7959 C   0  0  0  0  0  0  0  0  0  0  0  0
   -3.9099   61.2591   79.2698 C   0  0  0  0  0  0  0  0  0  0  0  0
   -3.3494   59.9086   79.4860 N   0  0  0  0  0  0  0  0  0  0  0  0
   -2.2003   59.6606   78.5817 C   0  0  0  0  0  0  0  0  0  0  0  0
   -2.2825   60.4427   77.2593 C   0  0  0  0  0  0  0  0  0  0  0  0
   -2.9595   59.6454   80.8845 C   0  0  0  0  0  0  0  0  0  0  0  0
   -3.5197   60.6667   81.8893 C   0  0  0  0  0  0  0  0  0  0  0  0
   -2.8724   60.4780   83.1462 O   0  0  0  0  0  0  0  0  0  0  0  0
   -2.4221   61.6914   83.7110 N   0  0  0  0  0  0  0  0  0  0  0  0
   -2.5152   62.6427   82.9376 O   0  0  0  0  0  0  0  0  0  0  0  0
   -2.0144   61.6569   84.8737 O   0  0  0  0  0  0  0  0  0  0  0  0
    0.9026   64.5126   82.6535 O   0  0  0  0  0  0  0  0  0  0  0  0
    0.6323   63.7633   83.8405 C   0  0  0  0  0  0  0  0  0  0  0  0
    0.6478   64.0613   86.3563 C   0  0  0  0  0  0  0  0  0  0  0  0
    0.2850   64.6793   85.0128 C   0  0  0  0  0  0  0  0  0  0  0  0
 44 45  1  0  0  0
 45 43  1  0  0  0
 43 42  1  0  0  0
 42  1  1  0  0  0
  1  2  1  0  0  0
  2  3  2  0  0  0
  3  4  1  0  0  0
  4 27  1  0  0  0
 27 28  2  0  0  0
 27 29  2  0  0  0
 27 30  1  0  0  0
 30 31  1  0  0  0
 31 32  1  0  0  0
 32 33  1  0  0  0
 33 36  1  0  0  0
 36 37  1  0  0  0
 37 38  1  0  0  0
 38 39  1  0  0  0
 39 40  2  0  0  0
 39 41  1  0  0  0
 33 34  1  0  0  0
 34 35  1  0  0  0
  4  5  2  0  0  0
  5  6  1  0  0  0
  6  7  1  0  0  0
  7  8  2  0  0  0
  8  9  1  0  0  0
  9 10  1  0  0  0
 10 24  1  0  0  0
 24 25  1  0  0  0
 25 26  1  0  0  0
 10 11  2  0  0  0
 11 18  1  0  0  0
 18 19  2  0  0  0
 19 20  1  0  0  0
 11 12  1  0  0  0
 12 22  1  0  0  0
 22 23  1  0  0  0
 12 13  1  0  0  0
 13 14  1  0  0  0
 14 15  2  0  0  0
 14 16  1  0  0  0
  6  1  2  0  0  0
 16  7  1  0  0  0
 35 30  1  0  0  0
 13  9  2  0  0  0
 20 21  1  0  0  0
 16 17  1  0  0  0
M  CHG 1  39   1
M  CHG 1  41  -1
M  END
> <minimizedAffinity>
-9.11123

$$$$
