


 34 37  0  0  0  0  0  0  0  0999 V2000
    1.7340   66.7715   82.6011 N   0  0  0  0  0  0  0  0  0  0  0  0
    1.5181   67.7514   82.7121 H   0  0  0  0  0  0  0  0  0  0  0  0
    2.6311   65.2376   85.6647 C   0  0  0  0  0  0  0  0  0  0  0  0
    1.9179   65.6659   84.6088 N   0  0  0  0  0  0  0  0  0  0  0  0
    2.5454   66.3760   83.6622 C   0  0  0  0  0  0  0  0  0  0  0  0
    3.8472   66.6746   83.7044 N   0  0  0  0  0  0  0  0  0  0  0  0
    4.5550   66.2702   84.7614 C   0  0  0  0  0  0  0  0  0  0  0  0
    5.9054   66.5950   84.8239 C   0  0  0  0  0  0  0  0  0  0  0  0
    6.7089   66.2180   85.9036 C   0  0  0  0  0  0  0  0  0  0  0  0
    6.1558   65.5011   86.9552 C   0  0  0  0  0  0  0  0  0  0  0  0
    4.8056   65.1619   86.9127 C   0  0  0  0  0  0  0  0  0  0  0  0
    3.9949   65.5364   85.8093 C   0  0  0  0  0  0  0  0  0  0  0  0
    1.9819   64.4800   86.6691 N   0  0  0  0  0  0  0  0  0  0  0  0
    2.5288   63.6372   86.8234 H   0  0  0  0  0  0  0  0  0  0  0  0
    0.5761   64.1765   86.4055 C   0  0  0  0  0  0  0  0  0  0  0  0
    0.5901   63.1046   88.7147 C   0  0  0  0  0  0  0  0  0  0  0  0
   -0.2037   63.9461   87.7139 C   0  0  0  0  0  0  0  0  0  0  0  0
   -1.5843   63.3340   87.4710 C   0  0  0  0  0  0  0  0  0  0  0  0
    1.3052   66.1559   81.4208 C   0  0  0  0  0  0  0  0  0  0  0  0
    1.9120   66.3509   80.1736 C   0  0  0  0  0  0  0  0  0  0  0  0
    1.4573   65.6848   79.0293 C   0  0  0  0  0  0  0  0  0  0  0  0
    0.3888   64.7965   79.1311 C   0  0  0  0  0  0  0  0  0  0  0  0
   -0.2354   64.5792   80.3585 C   0  0  0  0  0  0  0  0  0  0  0  0
    0.2282   65.2534   81.4919 C   0  0  0  0  0  0  0  0  0  0  0  0
   -0.1999   63.9302   77.6986 S   0  0  0  0  0  0  0  0  0  0  0  0
    0.7930   62.9516   77.3071 O   0  0  0  0  0  0  0  0  0  0  0  0
   -0.6872   64.9255   76.7677 O   0  0  0  0  0  0  0  0  0  0  0  0
   -1.5413   63.0756   78.3128 N   0  0  0  0  0  0  0  0  0  0  0  0
   -1.2211   61.8943   79.1802 C   0  0  0  0  0  0  0  0  0  0  0  0
   -1.5153   60.5586   78.4730 C   0  0  0  0  0  0  0  0  0  0  0  0
   -2.9126   60.3946   78.0229 N   0  0  0  0  0  0  0  0  0  0  0  0
   -3.7051   59.6096   78.9650 C   0  0  0  0  0  0  0  0  0  0  0  0
   -3.5553   61.6992   77.7596 C   0  0  0  0  0  0  0  0  0  0  0  0
   -2.5652   62.7663   77.2614 C   0  0  0  0  0  0  0  0  0  0  0  0
 16 17  1  0  0  0
 17 18  1  0  0  0
 17 15  1  0  0  0
 15 13  1  0  0  0
 13  3  1  0  0  0
  3  4  1  0  0  0
  4  5  2  0  0  0
  5  1  1  0  0  0
  1 19  1  0  0  0
 19 20  1  0  0  0
 20 21  2  0  0  0
 21 22  1  0  0  0
 22 25  1  0  0  0
 25 26  2  0  0  0
 25 27  2  0  0  0
 25 28  1  0  0  0
 28 29  1  0  0  0
 29 30  1  0  0  0
 30 31  1  0  0  0
 31 32  1  0  0  0
 31 33  1  0  0  0
 33 34  1  0  0  0
 22 23  2  0  0  0
 23 24  1  0  0  0
  5  6  1  0  0  0
  6  7  2  0  0  0
  7  8  1  0  0  0
  8  9  2  0  0  0
  9 10  1  0  0  0
 10 11  2  0  0  0
 11 12  1  0  0  0
 12  3  2  0  0  0
 24 19  2  0  0  0
 12  7  1  0  0  0
 34 28  1  0  0  0
 13 14  1  0  0  0
  1  2  1  0  0  0
M  END
> <minimizedAffinity>
-10.11898

$$$$



 34 37  0  0  0  0  0  0  0  0999 V2000
    1.3422   65.2756   78.5706 N   0  0  0  0  0  0  0  0  0  0  0  0
    2.1447   65.3849   77.9682 H   0  0  0  0  0  0  0  0  0  0  0  0
    1.1788   66.3035   81.9559 C   0  0  0  0  0  0  0  0  0  0  0  0
    1.0468   65.5803   80.8305 N   0  0  0  0  0  0  0  0  0  0  0  0
    1.5123   66.0945   79.6846 C   0  0  0  0  0  0  0  0  0  0  0  0
    2.1114   67.2859   79.5997 N   0  0  0  0  0  0  0  0  0  0  0  0
    2.2253   68.0173   80.7105 C   0  0  0  0  0  0  0  0  0  0  0  0
    2.8281   69.2674   80.6273 C   0  0  0  0  0  0  0  0  0  0  0  0
    2.9726   70.0960   81.7435 C   0  0  0  0  0  0  0  0  0  0  0  0
    2.5013   69.6743   82.9787 C   0  0  0  0  0  0  0  0  0  0  0  0
    1.8967   68.4242   83.0865 C   0  0  0  0  0  0  0  0  0  0  0  0
    1.7617   67.5803   81.9532 C   0  0  0  0  0  0  0  0  0  0  0  0
    0.6976   65.7688   83.1752 N   0  0  0  0  0  0  0  0  0  0  0  0
    1.2243   66.1982   83.9311 H   0  0  0  0  0  0  0  0  0  0  0  0
    0.7129   64.3092   83.2611 C   0  0  0  0  0  0  0  0  0  0  0  0
    0.5353   64.3353   85.8007 C   0  0  0  0  0  0  0  0  0  0  0  0
   -0.0638   63.8109   84.4946 C   0  0  0  0  0  0  0  0  0  0  0  0
   -0.1858   62.2866   84.5315 C   0  0  0  0  0  0  0  0  0  0  0  0
    0.4100   64.2953   78.2156 C   0  0  0  0  0  0  0  0  0  0  0  0
    0.5838   62.9273   78.4609 C   0  0  0  0  0  0  0  0  0  0  0  0
   -0.3975   61.9929   78.1090 C   0  0  0  0  0  0  0  0  0  0  0  0
   -1.5803   62.4297   77.5162 C   0  0  0  0  0  0  0  0  0  0  0  0
   -1.7844   63.7848   77.2605 C   0  0  0  0  0  0  0  0  0  0  0  0
   -0.7944   64.7058   77.6153 C   0  0  0  0  0  0  0  0  0  0  0  0
   -2.8454   61.2677   77.0710 S   0  0  0  0  0  0  0  0  0  0  0  0
   -2.2225   60.1195   76.4464 O   0  0  0  0  0  0  0  0  0  0  0  0
   -3.8946   62.0117   76.4074 O   0  0  0  0  0  0  0  0  0  0  0  0
   -3.4314   60.7640   78.5909 N   0  0  0  0  0  0  0  0  0  0  0  0
   -3.6307   61.8502   79.6062 C   0  0  0  0  0  0  0  0  0  0  0  0
   -2.5719   61.8015   80.7231 C   0  0  0  0  0  0  0  0  0  0  0  0
   -2.5173   60.5252   81.4648 N   0  0  0  0  0  0  0  0  0  0  0  0
   -3.2587   60.5873   82.7212 C   0  0  0  0  0  0  0  0  0  0  0  0
   -2.9868   59.3949   80.6365 C   0  0  0  0  0  0  0  0  0  0  0  0
   -2.6871   59.5830   79.1391 C   0  0  0  0  0  0  0  0  0  0  0  0
 16 17  1  0  0  0
 17 18  1  0  0  0
 17 15  1  0  0  0
 15 13  1  0  0  0
 13  3  1  0  0  0
  3  4  1  0  0  0
  4  5  2  0  0  0
  5  1  1  0  0  0
  1 19  1  0  0  0
 19 20  1  0  0  0
 20 21  2  0  0  0
 21 22  1  0  0  0
 22 25  1  0  0  0
 25 26  2  0  0  0
 25 27  2  0  0  0
 25 28  1  0  0  0
 28 29  1  0  0  0
 29 30  1  0  0  0
 30 31  1  0  0  0
 31 32  1  0  0  0
 31 33  1  0  0  0
 33 34  1  0  0  0
 22 23  2  0  0  0
 23 24  1  0  0  0
  5  6  1  0  0  0
  6  7  2  0  0  0
  7  8  1  0  0  0
  8  9  2  0  0  0
  9 10  1  0  0  0
 10 11  2  0  0  0
 11 12  1  0  0  0
 12  3  2  0  0  0
 24 19  2  0  0  0
 12  7  1  0  0  0
 34 28  1  0  0  0
 13 14  1  0  0  0
  1  2  1  0  0  0
M  END
> <minimizedAffinity>
-9.95825

$$$$



 34 37  0  0  0  0  0  0  0  0999 V2000
    2.0892   65.7645   84.9102 N   0  0  0  0  0  0  0  0  0  0  0  0
    2.8874   65.4344   85.4326 H   0  0  0  0  0  0  0  0  0  0  0  0
   -0.5369   63.4990   84.1931 C   0  0  0  0  0  0  0  0  0  0  0  0
    0.4949   64.3486   84.0498 N   0  0  0  0  0  0  0  0  0  0  0  0
    1.0195   64.9048   85.1496 C   0  0  0  0  0  0  0  0  0  0  0  0
    0.5792   64.6534   86.3858 N   0  0  0  0  0  0  0  0  0  0  0  0
   -0.4591   63.8273   86.5318 C   0  0  0  0  0  0  0  0  0  0  0  0
   -0.9375   63.5769   87.8130 C   0  0  0  0  0  0  0  0  0  0  0  0
   -2.0278   62.7338   88.0451 C   0  0  0  0  0  0  0  0  0  0  0  0
   -2.6659   62.1241   86.9743 C   0  0  0  0  0  0  0  0  0  0  0  0
   -2.2020   62.3580   85.6820 C   0  0  0  0  0  0  0  0  0  0  0  0
   -1.0873   63.2057   85.4506 C   0  0  0  0  0  0  0  0  0  0  0  0
   -1.0962   62.8985   83.0395 N   0  0  0  0  0  0  0  0  0  0  0  0
   -1.2406   61.9130   83.2423 H   0  0  0  0  0  0  0  0  0  0  0  0
   -0.3347   63.0952   81.8070 C   0  0  0  0  0  0  0  0  0  0  0  0
    1.2887   61.1453   82.0173 C   0  0  0  0  0  0  0  0  0  0  0  0
    0.1352   61.7520   81.2167 C   0  0  0  0  0  0  0  0  0  0  0  0
    0.5060   61.8623   79.7367 C   0  0  0  0  0  0  0  0  0  0  0  0
    2.2994   66.8390   84.0400 C   0  0  0  0  0  0  0  0  0  0  0  0
    2.8864   68.0514   84.4240 C   0  0  0  0  0  0  0  0  0  0  0  0
    3.0987   69.0832   83.5019 C   0  0  0  0  0  0  0  0  0  0  0  0
    2.7341   68.8991   82.1698 C   0  0  0  0  0  0  0  0  0  0  0  0
    2.1494   67.7034   81.7557 C   0  0  0  0  0  0  0  0  0  0  0  0
    1.9415   66.6831   82.6884 C   0  0  0  0  0  0  0  0  0  0  0  0
    3.0029   70.1862   80.9781 S   0  0  0  0  0  0  0  0  0  0  0  0
    2.1517   69.9433   79.8322 O   0  0  0  0  0  0  0  0  0  0  0  0
    4.4344   70.3443   80.8354 O   0  0  0  0  0  0  0  0  0  0  0  0
    2.3941   71.5617   81.7809 N   0  0  0  0  0  0  0  0  0  0  0  0
    0.9006   71.6429   81.8954 C   0  0  0  0  0  0  0  0  0  0  0  0
    0.3057   72.7205   80.9703 C   0  0  0  0  0  0  0  0  0  0  0  0
    0.8283   74.0834   81.1966 N   0  0  0  0  0  0  0  0  0  0  0  0
   -0.0622   74.8818   82.0341 C   0  0  0  0  0  0  0  0  0  0  0  0
    2.1928   74.0549   81.7638 C   0  0  0  0  0  0  0  0  0  0  0  0
    3.0119   72.8394   81.2960 C   0  0  0  0  0  0  0  0  0  0  0  0
 16 17  1  0  0  0
 17 18  1  0  0  0
 17 15  1  0  0  0
 15 13  1  0  0  0
 13  3  1  0  0  0
  3  4  1  0  0  0
  4  5  2  0  0  0
  5  1  1  0  0  0
  1 19  1  0  0  0
 19 20  1  0  0  0
 20 21  2  0  0  0
 21 22  1  0  0  0
 22 25  1  0  0  0
 25 26  2  0  0  0
 25 27  2  0  0  0
 25 28  1  0  0  0
 28 29  1  0  0  0
 29 30  1  0  0  0
 30 31  1  0  0  0
 31 32  1  0  0  0
 31 33  1  0  0  0
 33 34  1  0  0  0
 22 23  2  0  0  0
 23 24  1  0  0  0
  5  6  1  0  0  0
  6  7  2  0  0  0
  7  8  1  0  0  0
  8  9  2  0  0  0
  9 10  1  0  0  0
 10 11  2  0  0  0
 11 12  1  0  0  0
 12  3  2  0  0  0
 24 19  2  0  0  0
 12  7  1  0  0  0
 34 28  1  0  0  0
 13 14  1  0  0  0
  1  2  1  0  0  0
M  END
> <minimizedAffinity>
-9.76534

$$$$



 34 37  0  0  0  0  0  0  0  0999 V2000
    1.7844   65.6198   83.5322 N   0  0  0  0  0  0  0  0  0  0  0  0
    2.5445   65.0369   83.2137 H   0  0  0  0  0  0  0  0  0  0  0  0
   -0.8144   63.2704   84.0516 C   0  0  0  0  0  0  0  0  0  0  0  0
    0.0825   64.0754   83.4564 N   0  0  0  0  0  0  0  0  0  0  0  0
    0.8803   64.8226   84.2306 C   0  0  0  0  0  0  0  0  0  0  0  0
    0.8406   64.8045   85.5661 N   0  0  0  0  0  0  0  0  0  0  0  0
   -0.0630   64.0231   86.1616 C   0  0  0  0  0  0  0  0  0  0  0  0
   -0.1256   64.0144   87.5505 C   0  0  0  0  0  0  0  0  0  0  0  0
   -1.0524   63.2323   88.2455 C   0  0  0  0  0  0  0  0  0  0  0  0
   -1.9470   62.4383   87.5420 C   0  0  0  0  0  0  0  0  0  0  0  0
   -1.9006   62.4287   86.1500 C   0  0  0  0  0  0  0  0  0  0  0  0
   -0.9506   63.2154   85.4475 C   0  0  0  0  0  0  0  0  0  0  0  0
   -1.6590   62.4699   83.2453 N   0  0  0  0  0  0  0  0  0  0  0  0
   -2.2949   61.9715   83.8622 H   0  0  0  0  0  0  0  0  0  0  0  0
   -0.9662   61.5642   82.3301 C   0  0  0  0  0  0  0  0  0  0  0  0
   -2.6696   61.5010   80.4390 C   0  0  0  0  0  0  0  0  0  0  0  0
   -1.9624   60.7001   81.5337 C   0  0  0  0  0  0  0  0  0  0  0  0
   -2.9824   60.0033   82.4358 C   0  0  0  0  0  0  0  0  0  0  0  0
    1.7765   66.9486   83.0960 C   0  0  0  0  0  0  0  0  0  0  0  0
    1.0515   67.4018   81.9866 C   0  0  0  0  0  0  0  0  0  0  0  0
    1.0580   68.7509   81.6128 C   0  0  0  0  0  0  0  0  0  0  0  0
    1.7872   69.6685   82.3662 C   0  0  0  0  0  0  0  0  0  0  0  0
    2.5178   69.2493   83.4770 C   0  0  0  0  0  0  0  0  0  0  0  0
    2.5036   67.8985   83.8366 C   0  0  0  0  0  0  0  0  0  0  0  0
    1.8032   71.3863   81.9214 S   0  0  0  0  0  0  0  0  0  0  0  0
    1.4823   72.1727   83.0940 O   0  0  0  0  0  0  0  0  0  0  0  0
    1.0467   71.5169   80.6944 O   0  0  0  0  0  0  0  0  0  0  0  0
    3.4479   71.6565   81.5625 N   0  0  0  0  0  0  0  0  0  0  0  0
    3.9164   73.0769   81.6783 C   0  0  0  0  0  0  0  0  0  0  0  0
    4.1812   73.7144   80.3020 C   0  0  0  0  0  0  0  0  0  0  0  0
    5.1744   73.0010   79.4735 N   0  0  0  0  0  0  0  0  0  0  0  0
    6.5004   73.6060   79.5618 C   0  0  0  0  0  0  0  0  0  0  0  0
    5.2325   71.5635   79.8123 C   0  0  0  0  0  0  0  0  0  0  0  0
    3.8794   71.0029   80.2835 C   0  0  0  0  0  0  0  0  0  0  0  0
 16 17  1  0  0  0
 17 18  1  0  0  0
 17 15  1  0  0  0
 15 13  1  0  0  0
 13  3  1  0  0  0
  3  4  1  0  0  0
  4  5  2  0  0  0
  5  1  1  0  0  0
  1 19  1  0  0  0
 19 20  1  0  0  0
 20 21  2  0  0  0
 21 22  1  0  0  0
 22 25  1  0  0  0
 25 26  2  0  0  0
 25 27  2  0  0  0
 25 28  1  0  0  0
 28 29  1  0  0  0
 29 30  1  0  0  0
 30 31  1  0  0  0
 31 32  1  0  0  0
 31 33  1  0  0  0
 33 34  1  0  0  0
 22 23  2  0  0  0
 23 24  1  0  0  0
  5  6  1  0  0  0
  6  7  2  0  0  0
  7  8  1  0  0  0
  8  9  2  0  0  0
  9 10  1  0  0  0
 10 11  2  0  0  0
 11 12  1  0  0  0
 12  3  2  0  0  0
 24 19  2  0  0  0
 12  7  1  0  0  0
 34 28  1  0  0  0
 13 14  1  0  0  0
  1  2  1  0  0  0
M  END
> <minimizedAffinity>
-9.75455

$$$$



 34 37  0  0  0  0  0  0  0  0999 V2000
    0.7784   65.6025   84.7707 N   0  0  0  0  0  0  0  0  0  0  0  0
    0.2095   66.2301   85.3198 H   0  0  0  0  0  0  0  0  0  0  0  0
    3.3380   67.9736   84.1630 C   0  0  0  0  0  0  0  0  0  0  0  0
    2.1310   67.3893   84.2563 N   0  0  0  0  0  0  0  0  0  0  0  0
    2.0672   66.1261   84.6971 C   0  0  0  0  0  0  0  0  0  0  0  0
    3.1393   65.4157   85.0599 N   0  0  0  0  0  0  0  0  0  0  0  0
    4.3419   65.9840   84.9484 C   0  0  0  0  0  0  0  0  0  0  0  0
    5.4646   65.2446   85.3033 C   0  0  0  0  0  0  0  0  0  0  0  0
    6.7575   65.7661   85.2026 C   0  0  0  0  0  0  0  0  0  0  0  0
    6.9431   67.0581   84.7317 C   0  0  0  0  0  0  0  0  0  0  0  0
    5.8326   67.8186   84.3732 C   0  0  0  0  0  0  0  0  0  0  0  0
    4.5203   67.2900   84.4874 C   0  0  0  0  0  0  0  0  0  0  0  0
    3.4192   69.3108   83.7053 N   0  0  0  0  0  0  0  0  0  0  0  0
    3.3628   69.9200   84.5170 H   0  0  0  0  0  0  0  0  0  0  0  0
    2.4418   69.6760   82.6811 C   0  0  0  0  0  0  0  0  0  0  0  0
    4.0702   70.3394   80.8399 C   0  0  0  0  0  0  0  0  0  0  0  0
    2.9685   69.3678   81.2666 C   0  0  0  0  0  0  0  0  0  0  0  0
    1.8509   69.3284   80.2229 C   0  0  0  0  0  0  0  0  0  0  0  0
    0.1282   64.5256   84.1595 C   0  0  0  0  0  0  0  0  0  0  0  0
   -0.2890   63.3760   84.8423 C   0  0  0  0  0  0  0  0  0  0  0  0
   -0.9622   62.3404   84.1833 C   0  0  0  0  0  0  0  0  0  0  0  0
   -1.2390   62.4580   82.8229 C   0  0  0  0  0  0  0  0  0  0  0  0
   -0.8386   63.5904   82.1153 C   0  0  0  0  0  0  0  0  0  0  0  0
   -0.1651   64.6152   82.7864 C   0  0  0  0  0  0  0  0  0  0  0  0
   -2.1013   61.1654   81.9658 S   0  0  0  0  0  0  0  0  0  0  0  0
   -3.4562   61.0960   82.4721 O   0  0  0  0  0  0  0  0  0  0  0  0
   -1.2365   60.0049   81.9613 O   0  0  0  0  0  0  0  0  0  0  0  0
   -2.1838   61.7725   80.3747 N   0  0  0  0  0  0  0  0  0  0  0  0
   -3.5552   61.8343   79.7699 C   0  0  0  0  0  0  0  0  0  0  0  0
   -3.7573   60.7654   78.6802 C   0  0  0  0  0  0  0  0  0  0  0  0
   -2.7924   60.8337   77.5639 N   0  0  0  0  0  0  0  0  0  0  0  0
   -3.3379   61.5396   76.4080 C   0  0  0  0  0  0  0  0  0  0  0  0
   -1.5121   61.4378   77.9886 C   0  0  0  0  0  0  0  0  0  0  0  0
   -1.1713   61.1487   79.4608 C   0  0  0  0  0  0  0  0  0  0  0  0
 16 17  1  0  0  0
 17 18  1  0  0  0
 17 15  1  0  0  0
 15 13  1  0  0  0
 13  3  1  0  0  0
  3  4  1  0  0  0
  4  5  2  0  0  0
  5  1  1  0  0  0
  1 19  1  0  0  0
 19 20  1  0  0  0
 20 21  2  0  0  0
 21 22  1  0  0  0
 22 25  1  0  0  0
 25 26  2  0  0  0
 25 27  2  0  0  0
 25 28  1  0  0  0
 28 29  1  0  0  0
 29 30  1  0  0  0
 30 31  1  0  0  0
 31 32  1  0  0  0
 31 33  1  0  0  0
 33 34  1  0  0  0
 22 23  2  0  0  0
 23 24  1  0  0  0
  5  6  1  0  0  0
  6  7  2  0  0  0
  7  8  1  0  0  0
  8  9  2  0  0  0
  9 10  1  0  0  0
 10 11  2  0  0  0
 11 12  1  0  0  0
 12  3  2  0  0  0
 24 19  2  0  0  0
 12  7  1  0  0  0
 34 28  1  0  0  0
 13 14  1  0  0  0
  1  2  1  0  0  0
M  END
> <minimizedAffinity>
-9.75277

$$$$



 34 37  0  0  0  0  0  0  0  0999 V2000
    0.7789   64.6638   82.4366 N   0  0  0  0  0  0  0  0  0  0  0  0
    0.7512   64.0323   81.6497 H   0  0  0  0  0  0  0  0  0  0  0  0
   -1.5237   62.5507   84.1027 C   0  0  0  0  0  0  0  0  0  0  0  0
   -0.8249   63.1726   83.1374 N   0  0  0  0  0  0  0  0  0  0  0  0
    0.0966   64.0749   83.4989 C   0  0  0  0  0  0  0  0  0  0  0  0
    0.3675   64.3848   84.7701 N   0  0  0  0  0  0  0  0  0  0  0  0
   -0.3388   63.7860   85.7315 C   0  0  0  0  0  0  0  0  0  0  0  0
   -0.0783   64.1184   87.0562 C   0  0  0  0  0  0  0  0  0  0  0  0
   -0.7841   63.5436   88.1168 C   0  0  0  0  0  0  0  0  0  0  0  0
   -1.7813   62.6146   87.8560 C   0  0  0  0  0  0  0  0  0  0  0  0
   -2.0575   62.2639   86.5366 C   0  0  0  0  0  0  0  0  0  0  0  0
   -1.3311   62.8410   85.4624 C   0  0  0  0  0  0  0  0  0  0  0  0
   -2.4958   61.5895   83.7348 N   0  0  0  0  0  0  0  0  0  0  0  0
   -2.6696   60.9993   84.5439 H   0  0  0  0  0  0  0  0  0  0  0  0
   -2.1707   60.8025   82.5462 C   0  0  0  0  0  0  0  0  0  0  0  0
   -3.2674   59.5899   80.5946 C   0  0  0  0  0  0  0  0  0  0  0  0
   -3.3426   60.7850   81.5463 C   0  0  0  0  0  0  0  0  0  0  0  0
   -3.4600   62.0925   80.7611 C   0  0  0  0  0  0  0  0  0  0  0  0
    1.3349   65.9283   82.2174 C   0  0  0  0  0  0  0  0  0  0  0  0
    1.4929   66.5025   80.9497 C   0  0  0  0  0  0  0  0  0  0  0  0
    2.0299   67.7857   80.7921 C   0  0  0  0  0  0  0  0  0  0  0  0
    2.4022   68.5171   81.9181 C   0  0  0  0  0  0  0  0  0  0  0  0
    2.2558   67.9744   83.1937 C   0  0  0  0  0  0  0  0  0  0  0  0
    1.7203   66.6909   83.3351 C   0  0  0  0  0  0  0  0  0  0  0  0
    3.0746   70.1504   81.7474 S   0  0  0  0  0  0  0  0  0  0  0  0
    4.1580   70.1087   80.7877 O   0  0  0  0  0  0  0  0  0  0  0  0
    3.2682   70.6745   83.0825 O   0  0  0  0  0  0  0  0  0  0  0  0
    1.7873   71.0027   81.0239 N   0  0  0  0  0  0  0  0  0  0  0  0
    2.0847   72.4174   80.6232 C   0  0  0  0  0  0  0  0  0  0  0  0
    1.3890   73.4389   81.5416 C   0  0  0  0  0  0  0  0  0  0  0  0
   -0.0812   73.3103   81.6037 N   0  0  0  0  0  0  0  0  0  0  0  0
   -0.7537   74.2537   80.7150 C   0  0  0  0  0  0  0  0  0  0  0  0
   -0.5179   71.9264   81.3233 C   0  0  0  0  0  0  0  0  0  0  0  0
    0.5015   70.8704   81.7846 C   0  0  0  0  0  0  0  0  0  0  0  0
 16 17  1  0  0  0
 17 18  1  0  0  0
 17 15  1  0  0  0
 15 13  1  0  0  0
 13  3  1  0  0  0
  3  4  1  0  0  0
  4  5  2  0  0  0
  5  1  1  0  0  0
  1 19  1  0  0  0
 19 20  1  0  0  0
 20 21  2  0  0  0
 21 22  1  0  0  0
 22 25  1  0  0  0
 25 26  2  0  0  0
 25 27  2  0  0  0
 25 28  1  0  0  0
 28 29  1  0  0  0
 29 30  1  0  0  0
 30 31  1  0  0  0
 31 32  1  0  0  0
 31 33  1  0  0  0
 33 34  1  0  0  0
 22 23  2  0  0  0
 23 24  1  0  0  0
  5  6  1  0  0  0
  6  7  2  0  0  0
  7  8  1  0  0  0
  8  9  2  0  0  0
  9 10  1  0  0  0
 10 11  2  0  0  0
 11 12  1  0  0  0
 12  3  2  0  0  0
 24 19  2  0  0  0
 12  7  1  0  0  0
 34 28  1  0  0  0
 13 14  1  0  0  0
  1  2  1  0  0  0
M  END
> <minimizedAffinity>
-9.67368

$$$$



 34 37  0  0  0  0  0  0  0  0999 V2000
    0.9968   64.4806   84.0777 N   0  0  0  0  0  0  0  0  0  0  0  0
    1.2415   64.2594   85.0317 H   0  0  0  0  0  0  0  0  0  0  0  0
    3.2103   67.2323   84.3462 C   0  0  0  0  0  0  0  0  0  0  0  0
    2.5301   66.1057   84.6207 N   0  0  0  0  0  0  0  0  0  0  0  0
    1.6499   65.6569   83.7164 C   0  0  0  0  0  0  0  0  0  0  0  0
    1.4169   66.2632   82.5486 N   0  0  0  0  0  0  0  0  0  0  0  0
    2.0738   67.3939   82.2809 C   0  0  0  0  0  0  0  0  0  0  0  0
    1.8216   68.0430   81.0774 C   0  0  0  0  0  0  0  0  0  0  0  0
    2.4605   69.2370   80.7316 C   0  0  0  0  0  0  0  0  0  0  0  0
    3.3736   69.8071   81.6073 C   0  0  0  0  0  0  0  0  0  0  0  0
    3.6443   69.1728   82.8174 C   0  0  0  0  0  0  0  0  0  0  0  0
    3.0023   67.9543   83.1606 C   0  0  0  0  0  0  0  0  0  0  0  0
    4.1490   67.7139   85.2901 N   0  0  0  0  0  0  0  0  0  0  0  0
    3.9384   68.6929   85.4646 H   0  0  0  0  0  0  0  0  0  0  0  0
    5.5513   67.5147   84.9272 C   0  0  0  0  0  0  0  0  0  0  0  0
    5.6522   65.6252   86.6306 C   0  0  0  0  0  0  0  0  0  0  0  0
    6.0049   66.0699   85.2102 C   0  0  0  0  0  0  0  0  0  0  0  0
    7.4949   65.8609   84.9346 C   0  0  0  0  0  0  0  0  0  0  0  0
    0.0270   63.6782   83.4680 C   0  0  0  0  0  0  0  0  0  0  0  0
   -1.0919   64.1826   82.7933 C   0  0  0  0  0  0  0  0  0  0  0  0
   -2.0162   63.3314   82.1760 C   0  0  0  0  0  0  0  0  0  0  0  0
   -1.8149   61.9534   82.2178 C   0  0  0  0  0  0  0  0  0  0  0  0
   -0.7100   61.4202   82.8798 C   0  0  0  0  0  0  0  0  0  0  0  0
    0.2030   62.2826   83.4936 C   0  0  0  0  0  0  0  0  0  0  0  0
   -2.9647   60.8526   81.4336 S   0  0  0  0  0  0  0  0  0  0  0  0
   -4.0738   61.6286   80.9195 O   0  0  0  0  0  0  0  0  0  0  0  0
   -3.1750   59.7407   82.3359 O   0  0  0  0  0  0  0  0  0  0  0  0
   -2.0751   60.2877   80.0932 N   0  0  0  0  0  0  0  0  0  0  0  0
   -0.8690   61.0987   79.7217 C   0  0  0  0  0  0  0  0  0  0  0  0
   -1.0835   61.8954   78.4217 C   0  0  0  0  0  0  0  0  0  0  0  0
   -1.4266   61.0721   77.2442 N   0  0  0  0  0  0  0  0  0  0  0  0
   -0.2616   60.7950   76.4088 C   0  0  0  0  0  0  0  0  0  0  0  0
   -2.0986   59.8157   77.6369 C   0  0  0  0  0  0  0  0  0  0  0  0
   -2.9433   59.9609   78.9146 C   0  0  0  0  0  0  0  0  0  0  0  0
 16 17  1  0  0  0
 17 18  1  0  0  0
 17 15  1  0  0  0
 15 13  1  0  0  0
 13  3  1  0  0  0
  3  4  1  0  0  0
  4  5  2  0  0  0
  5  1  1  0  0  0
  1 19  1  0  0  0
 19 20  1  0  0  0
 20 21  2  0  0  0
 21 22  1  0  0  0
 22 25  1  0  0  0
 25 26  2  0  0  0
 25 27  2  0  0  0
 25 28  1  0  0  0
 28 29  1  0  0  0
 29 30  1  0  0  0
 30 31  1  0  0  0
 31 32  1  0  0  0
 31 33  1  0  0  0
 33 34  1  0  0  0
 22 23  2  0  0  0
 23 24  1  0  0  0
  5  6  1  0  0  0
  6  7  2  0  0  0
  7  8  1  0  0  0
  8  9  2  0  0  0
  9 10  1  0  0  0
 10 11  2  0  0  0
 11 12  1  0  0  0
 12  3  2  0  0  0
 24 19  2  0  0  0
 12  7  1  0  0  0
 34 28  1  0  0  0
 13 14  1  0  0  0
  1  2  1  0  0  0
M  END
> <minimizedAffinity>
-9.56871

$$$$



 34 37  0  0  0  0  0  0  0  0999 V2000
    2.4424   66.9598   82.8018 N   0  0  0  0  0  0  0  0  0  0  0  0
    3.3118   66.5173   82.5421 H   0  0  0  0  0  0  0  0  0  0  0  0
    0.0287   64.3681   82.7814 C   0  0  0  0  0  0  0  0  0  0  0  0
    0.8749   65.3317   82.3784 N   0  0  0  0  0  0  0  0  0  0  0  0
    1.5853   65.9848   83.3073 C   0  0  0  0  0  0  0  0  0  0  0  0
    1.5067   65.7239   84.6154 N   0  0  0  0  0  0  0  0  0  0  0  0
    0.6520   64.7830   85.0225 C   0  0  0  0  0  0  0  0  0  0  0  0
    0.5480   64.5199   86.3838 C   0  0  0  0  0  0  0  0  0  0  0  0
   -0.3327   63.5587   86.8876 C   0  0  0  0  0  0  0  0  0  0  0  0
   -1.1380   62.8397   86.0157 C   0  0  0  0  0  0  0  0  0  0  0  0
   -1.0487   63.0841   84.6474 C   0  0  0  0  0  0  0  0  0  0  0  0
   -0.1449   64.0529   84.1381 C   0  0  0  0  0  0  0  0  0  0  0  0
   -0.7231   63.6650   81.8094 N   0  0  0  0  0  0  0  0  0  0  0  0
   -1.3703   63.0542   82.3006 H   0  0  0  0  0  0  0  0  0  0  0  0
    0.0697   62.9361   80.8204 C   0  0  0  0  0  0  0  0  0  0  0  0
   -1.1898   60.9079   81.7049 C   0  0  0  0  0  0  0  0  0  0  0  0
    0.1359   61.4329   81.1509 C   0  0  0  0  0  0  0  0  0  0  0  0
    1.2879   61.0933   82.0982 C   0  0  0  0  0  0  0  0  0  0  0  0
    2.2953   68.3119   82.4760 C   0  0  0  0  0  0  0  0  0  0  0  0
    1.2531   68.8161   81.6877 C   0  0  0  0  0  0  0  0  0  0  0  0
    1.1396   70.1851   81.4176 C   0  0  0  0  0  0  0  0  0  0  0  0
    2.0718   71.0704   81.9548 C   0  0  0  0  0  0  0  0  0  0  0  0
    3.1196   70.6002   82.7449 C   0  0  0  0  0  0  0  0  0  0  0  0
    3.2213   69.2302   83.0039 C   0  0  0  0  0  0  0  0  0  0  0  0
    1.9444   72.8117   81.6379 S   0  0  0  0  0  0  0  0  0  0  0  0
    0.7906   73.3290   82.3434 O   0  0  0  0  0  0  0  0  0  0  0  0
    2.1040   72.9992   80.2117 O   0  0  0  0  0  0  0  0  0  0  0  0
    3.3325   73.4276   82.4131 N   0  0  0  0  0  0  0  0  0  0  0  0
    3.0801   74.3017   83.6059 C   0  0  0  0  0  0  0  0  0  0  0  0
    3.3799   75.7833   83.3131 C   0  0  0  0  0  0  0  0  0  0  0  0
    4.7611   76.0556   82.8659 N   0  0  0  0  0  0  0  0  0  0  0  0
    5.6127   76.5147   83.9594 C   0  0  0  0  0  0  0  0  0  0  0  0
    5.3574   74.8801   82.1974 C   0  0  0  0  0  0  0  0  0  0  0  0
    4.3195   74.0222   81.4531 C   0  0  0  0  0  0  0  0  0  0  0  0
 16 17  1  0  0  0
 17 18  1  0  0  0
 17 15  1  0  0  0
 15 13  1  0  0  0
 13  3  1  0  0  0
  3  4  1  0  0  0
  4  5  2  0  0  0
  5  1  1  0  0  0
  1 19  1  0  0  0
 19 20  1  0  0  0
 20 21  2  0  0  0
 21 22  1  0  0  0
 22 25  1  0  0  0
 25 26  2  0  0  0
 25 27  2  0  0  0
 25 28  1  0  0  0
 28 29  1  0  0  0
 29 30  1  0  0  0
 30 31  1  0  0  0
 31 32  1  0  0  0
 31 33  1  0  0  0
 33 34  1  0  0  0
 22 23  2  0  0  0
 23 24  1  0  0  0
  5  6  1  0  0  0
  6  7  2  0  0  0
  7  8  1  0  0  0
  8  9  2  0  0  0
  9 10  1  0  0  0
 10 11  2  0  0  0
 11 12  1  0  0  0
 12  3  2  0  0  0
 24 19  2  0  0  0
 12  7  1  0  0  0
 34 28  1  0  0  0
 13 14  1  0  0  0
  1  2  1  0  0  0
M  END
> <minimizedAffinity>
-9.51098

$$$$



 34 37  0  0  0  0  0  0  0  0999 V2000
    1.9619   67.5138   81.2160 N   0  0  0  0  0  0  0  0  0  0  0  0
    2.1930   66.9771   80.3929 H   0  0  0  0  0  0  0  0  0  0  0  0
    2.2958   65.8696   84.3351 C   0  0  0  0  0  0  0  0  0  0  0  0
    2.5128   66.6857   83.2891 N   0  0  0  0  0  0  0  0  0  0  0  0
    1.6682   66.6290   82.2511 C   0  0  0  0  0  0  0  0  0  0  0  0
    0.6128   65.8108   82.2019 N   0  0  0  0  0  0  0  0  0  0  0  0
    0.4056   64.9832   83.2285 C   0  0  0  0  0  0  0  0  0  0  0  0
   -0.6778   64.1134   83.1760 C   0  0  0  0  0  0  0  0  0  0  0  0
   -0.9527   63.2094   84.2059 C   0  0  0  0  0  0  0  0  0  0  0  0
   -0.1258   63.1633   85.3194 C   0  0  0  0  0  0  0  0  0  0  0  0
    0.9637   64.0276   85.3951 C   0  0  0  0  0  0  0  0  0  0  0  0
    1.2335   64.9524   84.3527 C   0  0  0  0  0  0  0  0  0  0  0  0
    3.1768   65.9243   85.4419 N   0  0  0  0  0  0  0  0  0  0  0  0
    2.9895   66.7877   85.9446 H   0  0  0  0  0  0  0  0  0  0  0  0
    4.5944   65.7815   85.1138 C   0  0  0  0  0  0  0  0  0  0  0  0
    5.2030   65.3381   87.5459 C   0  0  0  0  0  0  0  0  0  0  0  0
    5.4892   66.1816   86.3023 C   0  0  0  0  0  0  0  0  0  0  0  0
    5.3938   67.6729   86.6292 C   0  0  0  0  0  0  0  0  0  0  0  0
    1.8699   68.9011   81.0650 C   0  0  0  0  0  0  0  0  0  0  0  0
    0.7254   69.6461   81.3763 C   0  0  0  0  0  0  0  0  0  0  0  0
    0.7001   71.0384   81.2322 C   0  0  0  0  0  0  0  0  0  0  0  0
    1.8399   71.7031   80.7848 C   0  0  0  0  0  0  0  0  0  0  0  0
    2.9954   70.9905   80.4684 C   0  0  0  0  0  0  0  0  0  0  0  0
    3.0049   69.6003   80.6150 C   0  0  0  0  0  0  0  0  0  0  0  0
    1.8386   73.4685   80.6044 S   0  0  0  0  0  0  0  0  0  0  0  0
    0.5410   73.8843   80.1146 O   0  0  0  0  0  0  0  0  0  0  0  0
    3.0577   73.8282   79.9123 O   0  0  0  0  0  0  0  0  0  0  0  0
    1.9673   74.0017   82.2188 N   0  0  0  0  0  0  0  0  0  0  0  0
    1.2713   75.2919   82.5374 C   0  0  0  0  0  0  0  0  0  0  0  0
    2.2645   76.4474   82.7590 C   0  0  0  0  0  0  0  0  0  0  0  0
    3.2505   76.2146   83.8339 N   0  0  0  0  0  0  0  0  0  0  0  0
    2.8548   76.8465   85.0893 C   0  0  0  0  0  0  0  0  0  0  0  0
    3.5070   74.7727   84.0330 C   0  0  0  0  0  0  0  0  0  0  0  0
    3.3741   73.9550   82.7366 C   0  0  0  0  0  0  0  0  0  0  0  0
 16 17  1  0  0  0
 17 18  1  0  0  0
 17 15  1  0  0  0
 15 13  1  0  0  0
 13  3  1  0  0  0
  3  4  1  0  0  0
  4  5  2  0  0  0
  5  1  1  0  0  0
  1 19  1  0  0  0
 19 20  1  0  0  0
 20 21  2  0  0  0
 21 22  1  0  0  0
 22 25  1  0  0  0
 25 26  2  0  0  0
 25 27  2  0  0  0
 25 28  1  0  0  0
 28 29  1  0  0  0
 29 30  1  0  0  0
 30 31  1  0  0  0
 31 32  1  0  0  0
 31 33  1  0  0  0
 33 34  1  0  0  0
 22 23  2  0  0  0
 23 24  1  0  0  0
  5  6  1  0  0  0
  6  7  2  0  0  0
  7  8  1  0  0  0
  8  9  2  0  0  0
  9 10  1  0  0  0
 10 11  2  0  0  0
 11 12  1  0  0  0
 12  3  2  0  0  0
 24 19  2  0  0  0
 12  7  1  0  0  0
 34 28  1  0  0  0
 13 14  1  0  0  0
  1  2  1  0  0  0
M  END
> <minimizedAffinity>
-9.46499

$$$$
