


 32 35  0  0  0  0  0  0  0  0999 V2000
   -0.3722   63.1356   85.0168 N   0  0  0  0  0  0  0  0  0  0  0  0
    0.2571   64.3832   85.1011 C   0  0  0  0  0  0  0  0  0  0  0  0
    0.4188   64.9966   86.1523 O   0  0  0  0  0  0  0  0  0  0  0  0
    0.6626   64.8900   83.8364 C   0  0  0  0  0  0  0  0  0  0  0  0
    0.4044   64.2467   82.6666 C   0  0  0  0  0  0  0  0  0  0  0  0
    0.8587   64.9429   81.5935 N   0  0  0  0  0  0  0  0  0  0  0  0
    1.4088   66.0310   82.0912 C   0  0  0  0  0  0  0  0  0  0  0  0
    1.3490   66.0224   83.4745 N   0  0  0  0  0  0  0  0  0  0  0  0
   -0.2606   63.0439   82.6270 N   0  0  0  0  0  0  0  0  0  0  0  0
   -0.7014   62.4684   83.8203 C   0  0  0  0  0  0  0  0  0  0  0  0
   -1.3600   61.4240   83.8268 O   0  0  0  0  0  0  0  0  0  0  0  0
   -2.2772   62.8987   86.5695 C   0  0  0  0  0  0  0  0  0  0  0  0
   -0.8301   62.5363   86.2651 C   0  0  0  0  0  0  0  0  0  0  0  0
    1.9808   67.0401   81.3947 N   0  0  0  0  0  0  0  0  0  0  0  0
    2.6275   67.6702   81.8554 H   0  0  0  0  0  0  0  0  0  0  0  0
    1.2050   67.6729   80.3271 C   0  0  0  0  0  0  0  0  0  0  0  0
    1.9787   68.8825   79.7879 C   0  0  0  0  0  0  0  0  0  0  0  0
    1.4437   70.0611   80.5862 C   0  0  0  0  0  0  0  0  0  0  0  0
   -0.0406   69.7570   80.6817 C   0  0  0  0  0  0  0  0  0  0  0  0
   -0.1134   68.2447   80.8768 C   0  0  0  0  0  0  0  0  0  0  0  0
   -0.5759   62.4058   81.3541 C   0  0  0  0  0  0  0  0  0  0  0  0
    0.5431   61.4872   80.8879 C   0  0  0  0  0  0  0  0  0  0  0  0
    1.9213   67.0014   84.3843 C   0  0  0  0  0  0  0  0  0  0  0  0
    3.3947   66.7635   84.6151 C   0  0  0  0  0  0  0  0  0  0  0  0
    4.3587   67.6757   84.1578 C   0  0  0  0  0  0  0  0  0  0  0  0
    5.7256   67.4535   84.3756 C   0  0  0  0  0  0  0  0  0  0  0  0
    6.1542   66.3153   85.0594 C   0  0  0  0  0  0  0  0  0  0  0  0
    5.1919   65.4115   85.5176 C   0  0  0  0  0  0  0  0  0  0  0  0
    5.5676   64.3073   86.1815 F   0  0  0  0  0  0  0  0  0  0  0  0
    3.8309   65.6249   85.3029 C   0  0  0  0  0  0  0  0  0  0  0  0
    7.4551   65.9921   85.3336 O   0  0  0  0  0  0  0  0  0  0  0  0
    8.4625   66.8277   84.7798 C   0  0  0  0  0  0  0  0  0  0  0  0
 12 13  1  0  0  0
 13  1  1  0  0  0
  1  2  1  0  0  0
  2  3  2  0  0  0
  2  4  1  0  0  0
  4  5  2  0  0  0
  5  6  1  0  0  0
  6  7  2  0  0  0
  7 14  1  0  0  0
 14 16  1  0  0  0
 16 17  1  0  0  0
 17 18  1  0  0  0
 18 19  1  0  0  0
 19 20  1  0  0  0
  7  8  1  0  0  0
  8 23  1  0  0  0
 23 24  1  0  0  0
 24 25  1  0  0  0
 25 26  2  0  0  0
 26 27  1  0  0  0
 27 31  1  0  0  0
 31 32  1  0  0  0
 27 28  2  0  0  0
 28 29  1  0  0  0
 28 30  1  0  0  0
  5  9  1  0  0  0
  9 21  1  0  0  0
 21 22  1  0  0  0
  9 10  1  0  0  0
 10 11  2  0  0  0
 10  1  1  0  0  0
  8  4  1  0  0  0
 30 24  2  0  0  0
 20 16  1  0  0  0
 14 15  1  0  0  0
M  END
> <minimizedAffinity>
-9.32793

$$$$



 32 35  0  0  0  0  0  0  0  0999 V2000
   -0.9681   62.8975   85.5869 N   0  0  0  0  0  0  0  0  0  0  0  0
   -1.7472   62.6463   84.4514 C   0  0  0  0  0  0  0  0  0  0  0  0
   -2.7096   61.8840   84.4387 O   0  0  0  0  0  0  0  0  0  0  0  0
   -1.2904   63.3386   83.2970 C   0  0  0  0  0  0  0  0  0  0  0  0
   -0.1733   64.1141   83.2957 C   0  0  0  0  0  0  0  0  0  0  0  0
    0.0771   64.6413   82.0702 N   0  0  0  0  0  0  0  0  0  0  0  0
   -0.8901   64.1967   81.2950 C   0  0  0  0  0  0  0  0  0  0  0  0
   -1.7818   63.4225   82.0180 N   0  0  0  0  0  0  0  0  0  0  0  0
    0.5905   64.2946   84.4246 N   0  0  0  0  0  0  0  0  0  0  0  0
    0.2222   63.6512   85.6077 C   0  0  0  0  0  0  0  0  0  0  0  0
    0.9147   63.7312   86.6269 O   0  0  0  0  0  0  0  0  0  0  0  0
   -2.3904   63.0260   87.6010 C   0  0  0  0  0  0  0  0  0  0  0  0
   -1.3563   62.2253   86.8216 C   0  0  0  0  0  0  0  0  0  0  0  0
   -1.0473   64.4441   79.9741 N   0  0  0  0  0  0  0  0  0  0  0  0
   -1.9140   64.1939   79.5118 H   0  0  0  0  0  0  0  0  0  0  0  0
    0.1279   64.3527   79.1067 C   0  0  0  0  0  0  0  0  0  0  0  0
   -0.2442   64.8316   77.6980 C   0  0  0  0  0  0  0  0  0  0  0  0
   -0.6286   63.5617   76.9551 C   0  0  0  0  0  0  0  0  0  0  0  0
    0.3924   62.5562   77.4563 C   0  0  0  0  0  0  0  0  0  0  0  0
    0.5669   62.8880   78.9362 C   0  0  0  0  0  0  0  0  0  0  0  0
    1.8161   65.0837   84.3794 C   0  0  0  0  0  0  0  0  0  0  0  0
    1.5281   66.5767   84.3432 C   0  0  0  0  0  0  0  0  0  0  0  0
   -3.0188   62.8284   81.5378 C   0  0  0  0  0  0  0  0  0  0  0  0
   -2.7821   61.8954   80.3741 C   0  0  0  0  0  0  0  0  0  0  0  0
   -1.9029   60.8065   80.4825 C   0  0  0  0  0  0  0  0  0  0  0  0
   -1.6870   59.9407   79.4014 C   0  0  0  0  0  0  0  0  0  0  0  0
   -2.3504   60.1456   78.1912 C   0  0  0  0  0  0  0  0  0  0  0  0
   -3.2287   61.2276   78.0877 C   0  0  0  0  0  0  0  0  0  0  0  0
   -3.8861   61.4537   76.9397 F   0  0  0  0  0  0  0  0  0  0  0  0
   -3.4469   62.0941   79.1581 C   0  0  0  0  0  0  0  0  0  0  0  0
   -2.2237   59.3706   77.0708 O   0  0  0  0  0  0  0  0  0  0  0  0
   -0.9098   59.1602   76.5718 C   0  0  0  0  0  0  0  0  0  0  0  0
 12 13  1  0  0  0
 13  1  1  0  0  0
  1  2  1  0  0  0
  2  3  2  0  0  0
  2  4  1  0  0  0
  4  5  2  0  0  0
  5  6  1  0  0  0
  6  7  2  0  0  0
  7 14  1  0  0  0
 14 16  1  0  0  0
 16 17  1  0  0  0
 17 18  1  0  0  0
 18 19  1  0  0  0
 19 20  1  0  0  0
  7  8  1  0  0  0
  8 23  1  0  0  0
 23 24  1  0  0  0
 24 25  1  0  0  0
 25 26  2  0  0  0
 26 27  1  0  0  0
 27 31  1  0  0  0
 31 32  1  0  0  0
 27 28  2  0  0  0
 28 29  1  0  0  0
 28 30  1  0  0  0
  5  9  1  0  0  0
  9 21  1  0  0  0
 21 22  1  0  0  0
  9 10  1  0  0  0
 10 11  2  0  0  0
 10  1  1  0  0  0
  8  4  1  0  0  0
 30 24  2  0  0  0
 20 16  1  0  0  0
 14 15  1  0  0  0
M  END
> <minimizedAffinity>
-8.97156

$$$$



 32 35  0  0  0  0  0  0  0  0999 V2000
   -1.0489   63.6702   81.9554 N   0  0  0  0  0  0  0  0  0  0  0  0
    0.0118   64.5477   81.7012 C   0  0  0  0  0  0  0  0  0  0  0  0
    0.3827   64.8621   80.5738 O   0  0  0  0  0  0  0  0  0  0  0  0
    0.6448   65.0154   82.8850 C   0  0  0  0  0  0  0  0  0  0  0  0
    0.2857   64.5972   84.1282 C   0  0  0  0  0  0  0  0  0  0  0  0
    1.0570   65.1573   85.0946 N   0  0  0  0  0  0  0  0  0  0  0  0
    1.9061   65.9353   84.4558 C   0  0  0  0  0  0  0  0  0  0  0  0
    1.6627   65.9126   83.0929 N   0  0  0  0  0  0  0  0  0  0  0  0
   -0.7326   63.6954   84.3284 N   0  0  0  0  0  0  0  0  0  0  0  0
   -1.4119   63.1768   83.2243 C   0  0  0  0  0  0  0  0  0  0  0  0
   -2.2872   62.3155   83.3528 O   0  0  0  0  0  0  0  0  0  0  0  0
   -1.0858   61.8769   80.2587 C   0  0  0  0  0  0  0  0  0  0  0  0
   -1.7573   63.1315   80.8000 C   0  0  0  0  0  0  0  0  0  0  0  0
    2.8880   66.6859   85.0064 N   0  0  0  0  0  0  0  0  0  0  0  0
    2.7698   67.6889   85.0936 H   0  0  0  0  0  0  0  0  0  0  0  0
    4.2765   66.2748   84.7949 C   0  0  0  0  0  0  0  0  0  0  0  0
    4.8124   65.6237   86.0761 C   0  0  0  0  0  0  0  0  0  0  0  0
    5.4860   66.7620   86.8265 C   0  0  0  0  0  0  0  0  0  0  0  0
    6.1651   67.5425   85.7154 C   0  0  0  0  0  0  0  0  0  0  0  0
    5.1766   67.4989   84.5529 C   0  0  0  0  0  0  0  0  0  0  0  0
   -1.0568   63.2196   85.6683 C   0  0  0  0  0  0  0  0  0  0  0  0
   -0.3309   61.9251   86.0014 C   0  0  0  0  0  0  0  0  0  0  0  0
    2.3286   66.7008   82.0688 C   0  0  0  0  0  0  0  0  0  0  0  0
    1.7788   68.1052   81.9912 C   0  0  0  0  0  0  0  0  0  0  0  0
    0.6024   68.3870   81.2790 C   0  0  0  0  0  0  0  0  0  0  0  0
    0.0930   69.6912   81.2107 C   0  0  0  0  0  0  0  0  0  0  0  0
    0.7493   70.7388   81.8577 C   0  0  0  0  0  0  0  0  0  0  0  0
    1.9175   70.4544   82.5699 C   0  0  0  0  0  0  0  0  0  0  0  0
    2.5737   71.4367   83.2068 F   0  0  0  0  0  0  0  0  0  0  0  0
    2.4312   69.1601   82.6405 C   0  0  0  0  0  0  0  0  0  0  0  0
    0.3494   72.0472   81.8651 O   0  0  0  0  0  0  0  0  0  0  0  0
   -1.0171   72.3103   81.5766 C   0  0  0  0  0  0  0  0  0  0  0  0
 12 13  1  0  0  0
 13  1  1  0  0  0
  1  2  1  0  0  0
  2  3  2  0  0  0
  2  4  1  0  0  0
  4  5  2  0  0  0
  5  6  1  0  0  0
  6  7  2  0  0  0
  7 14  1  0  0  0
 14 16  1  0  0  0
 16 17  1  0  0  0
 17 18  1  0  0  0
 18 19  1  0  0  0
 19 20  1  0  0  0
  7  8  1  0  0  0
  8 23  1  0  0  0
 23 24  1  0  0  0
 24 25  1  0  0  0
 25 26  2  0  0  0
 26 27  1  0  0  0
 27 31  1  0  0  0
 31 32  1  0  0  0
 27 28  2  0  0  0
 28 29  1  0  0  0
 28 30  1  0  0  0
  5  9  1  0  0  0
  9 21  1  0  0  0
 21 22  1  0  0  0
  9 10  1  0  0  0
 10 11  2  0  0  0
 10  1  1  0  0  0
  8  4  1  0  0  0
 30 24  2  0  0  0
 20 16  1  0  0  0
 14 15  1  0  0  0
M  END
> <minimizedAffinity>
-8.89279

$$$$



 32 35  0  0  0  0  0  0  0  0999 V2000
   -1.2098   63.2468   82.4308 N   0  0  0  0  0  0  0  0  0  0  0  0
   -0.1865   64.1076   82.0166 C   0  0  0  0  0  0  0  0  0  0  0  0
    0.1287   64.2781   80.8423 O   0  0  0  0  0  0  0  0  0  0  0  0
    0.4801   64.7435   83.0993 C   0  0  0  0  0  0  0  0  0  0  0  0
    0.1843   64.4859   84.4013 C   0  0  0  0  0  0  0  0  0  0  0  0
    0.9775   65.1877   85.2504 N   0  0  0  0  0  0  0  0  0  0  0  0
    1.7767   65.8937   84.4777 C   0  0  0  0  0  0  0  0  0  0  0  0
    1.4788   65.6842   83.1418 N   0  0  0  0  0  0  0  0  0  0  0  0
   -0.7981   63.5948   84.7635 N   0  0  0  0  0  0  0  0  0  0  0  0
   -1.5062   62.9181   83.7685 C   0  0  0  0  0  0  0  0  0  0  0  0
   -2.3499   62.0610   84.0481 O   0  0  0  0  0  0  0  0  0  0  0  0
   -1.2833   61.2251   81.0155 C   0  0  0  0  0  0  0  0  0  0  0  0
   -1.9486   62.5426   81.3891 C   0  0  0  0  0  0  0  0  0  0  0  0
    2.7577   66.7339   84.8806 N   0  0  0  0  0  0  0  0  0  0  0  0
    2.6054   67.7359   84.8617 H   0  0  0  0  0  0  0  0  0  0  0  0
    4.1473   66.3469   84.6334 C   0  0  0  0  0  0  0  0  0  0  0  0
    4.7069   65.6470   85.8781 C   0  0  0  0  0  0  0  0  0  0  0  0
    5.3793   66.7589   86.6681 C   0  0  0  0  0  0  0  0  0  0  0  0
    6.0355   67.5935   85.5829 C   0  0  0  0  0  0  0  0  0  0  0  0
    5.0318   67.5896   84.4326 C   0  0  0  0  0  0  0  0  0  0  0  0
   -1.0534   63.2939   86.1675 C   0  0  0  0  0  0  0  0  0  0  0  0
   -0.4923   61.9380   86.5678 C   0  0  0  0  0  0  0  0  0  0  0  0
    2.0791   66.3448   81.9942 C   0  0  0  0  0  0  0  0  0  0  0  0
    1.3803   67.6413   81.6602 C   0  0  0  0  0  0  0  0  0  0  0  0
    1.6346   68.8131   82.3900 C   0  0  0  0  0  0  0  0  0  0  0  0
    0.9863   70.0158   82.0762 C   0  0  0  0  0  0  0  0  0  0  0  0
    0.0734   70.0700   81.0225 C   0  0  0  0  0  0  0  0  0  0  0  0
   -0.1741   68.9030   80.2948 C   0  0  0  0  0  0  0  0  0  0  0  0
   -1.0441   68.9186   79.2729 F   0  0  0  0  0  0  0  0  0  0  0  0
    0.4654   67.7028   80.6024 C   0  0  0  0  0  0  0  0  0  0  0  0
   -0.6171   71.1811   80.6216 O   0  0  0  0  0  0  0  0  0  0  0  0
   -1.0162   72.0974   81.6319 C   0  0  0  0  0  0  0  0  0  0  0  0
 12 13  1  0  0  0
 13  1  1  0  0  0
  1  2  1  0  0  0
  2  3  2  0  0  0
  2  4  1  0  0  0
  4  5  2  0  0  0
  5  6  1  0  0  0
  6  7  2  0  0  0
  7 14  1  0  0  0
 14 16  1  0  0  0
 16 17  1  0  0  0
 17 18  1  0  0  0
 18 19  1  0  0  0
 19 20  1  0  0  0
  7  8  1  0  0  0
  8 23  1  0  0  0
 23 24  1  0  0  0
 24 25  1  0  0  0
 25 26  2  0  0  0
 26 27  1  0  0  0
 27 31  1  0  0  0
 31 32  1  0  0  0
 27 28  2  0  0  0
 28 29  1  0  0  0
 28 30  1  0  0  0
  5  9  1  0  0  0
  9 21  1  0  0  0
 21 22  1  0  0  0
  9 10  1  0  0  0
 10 11  2  0  0  0
 10  1  1  0  0  0
  8  4  1  0  0  0
 30 24  2  0  0  0
 20 16  1  0  0  0
 14 15  1  0  0  0
M  END
> <minimizedAffinity>
-8.83685

$$$$



 32 35  0  0  0  0  0  0  0  0999 V2000
   -0.4579   63.0118   84.3190 N   0  0  0  0  0  0  0  0  0  0  0  0
    0.1682   64.2302   84.6072 C   0  0  0  0  0  0  0  0  0  0  0  0
    0.2810   64.6885   85.7406 O   0  0  0  0  0  0  0  0  0  0  0  0
    0.6332   64.9067   83.4467 C   0  0  0  0  0  0  0  0  0  0  0  0
    0.4296   64.4361   82.1872 C   0  0  0  0  0  0  0  0  0  0  0  0
    0.9346   65.2728   81.2450 N   0  0  0  0  0  0  0  0  0  0  0  0
    1.4619   66.2758   81.9159 C   0  0  0  0  0  0  0  0  0  0  0  0
    1.3372   66.0733   83.2800 N   0  0  0  0  0  0  0  0  0  0  0  0
   -0.2342   63.2561   81.9479 N   0  0  0  0  0  0  0  0  0  0  0  0
   -0.7313   62.5220   83.0265 C   0  0  0  0  0  0  0  0  0  0  0  0
   -1.3907   61.4922   82.8554 O   0  0  0  0  0  0  0  0  0  0  0  0
   -2.4069   62.6359   85.7874 C   0  0  0  0  0  0  0  0  0  0  0  0
   -0.9747   62.2465   85.4479 C   0  0  0  0  0  0  0  0  0  0  0  0
    2.0672   67.3683   81.3956 N   0  0  0  0  0  0  0  0  0  0  0  0
    2.9084   67.7344   81.8267 H   0  0  0  0  0  0  0  0  0  0  0  0
    1.2296   68.3967   80.7770 C   0  0  0  0  0  0  0  0  0  0  0  0
    2.0134   69.0756   79.6469 C   0  0  0  0  0  0  0  0  0  0  0  0
    2.6506   70.2900   80.3039 C   0  0  0  0  0  0  0  0  0  0  0  0
    1.5539   70.7866   81.2288 C   0  0  0  0  0  0  0  0  0  0  0  0
    0.9108   69.5173   81.7819 C   0  0  0  0  0  0  0  0  0  0  0  0
   -0.4901   62.8057   80.5846 C   0  0  0  0  0  0  0  0  0  0  0  0
    0.5697   61.8271   80.1025 C   0  0  0  0  0  0  0  0  0  0  0  0
    1.8672   66.9102   84.3440 C   0  0  0  0  0  0  0  0  0  0  0  0
    3.3182   66.6057   84.6316 C   0  0  0  0  0  0  0  0  0  0  0  0
    3.6920   65.4572   85.3470 C   0  0  0  0  0  0  0  0  0  0  0  0
    5.0398   65.1758   85.6104 C   0  0  0  0  0  0  0  0  0  0  0  0
    6.0406   66.0369   85.1592 C   0  0  0  0  0  0  0  0  0  0  0  0
    5.6657   67.1769   84.4432 C   0  0  0  0  0  0  0  0  0  0  0  0
    6.6016   68.0262   83.9915 F   0  0  0  0  0  0  0  0  0  0  0  0
    4.3271   67.4643   84.1792 C   0  0  0  0  0  0  0  0  0  0  0  0
    7.3847   65.8682   85.3517 O   0  0  0  0  0  0  0  0  0  0  0  0
    8.1096   65.2053   84.3247 C   0  0  0  0  0  0  0  0  0  0  0  0
 12 13  1  0  0  0
 13  1  1  0  0  0
  1  2  1  0  0  0
  2  3  2  0  0  0
  2  4  1  0  0  0
  4  5  2  0  0  0
  5  6  1  0  0  0
  6  7  2  0  0  0
  7 14  1  0  0  0
 14 16  1  0  0  0
 16 17  1  0  0  0
 17 18  1  0  0  0
 18 19  1  0  0  0
 19 20  1  0  0  0
  7  8  1  0  0  0
  8 23  1  0  0  0
 23 24  1  0  0  0
 24 25  1  0  0  0
 25 26  2  0  0  0
 26 27  1  0  0  0
 27 31  1  0  0  0
 31 32  1  0  0  0
 27 28  2  0  0  0
 28 29  1  0  0  0
 28 30  1  0  0  0
  5  9  1  0  0  0
  9 21  1  0  0  0
 21 22  1  0  0  0
  9 10  1  0  0  0
 10 11  2  0  0  0
 10  1  1  0  0  0
  8  4  1  0  0  0
 30 24  2  0  0  0
 20 16  1  0  0  0
 14 15  1  0  0  0
M  END
> <minimizedAffinity>
-8.79699

$$$$



 32 35  0  0  0  0  0  0  0  0999 V2000
    0.0927   65.0638   80.3069 N   0  0  0  0  0  0  0  0  0  0  0  0
    1.0229   66.0852   80.5330 C   0  0  0  0  0  0  0  0  0  0  0  0
    1.5711   66.7201   79.6365 O   0  0  0  0  0  0  0  0  0  0  0  0
    1.2987   66.2933   81.9119 C   0  0  0  0  0  0  0  0  0  0  0  0
    0.7539   65.5300   82.8966 C   0  0  0  0  0  0  0  0  0  0  0  0
    1.1946   65.8982   84.1266 N   0  0  0  0  0  0  0  0  0  0  0  0
    2.0207   66.9017   83.9152 C   0  0  0  0  0  0  0  0  0  0  0  0
    2.0847   67.2088   82.5665 N   0  0  0  0  0  0  0  0  0  0  0  0
   -0.1198   64.5038   82.6249 N   0  0  0  0  0  0  0  0  0  0  0  0
   -0.4489   64.2213   81.2978 C   0  0  0  0  0  0  0  0  0  0  0  0
   -1.1763   63.2678   81.0036 O   0  0  0  0  0  0  0  0  0  0  0  0
    0.7230   63.7838   78.2919 C   0  0  0  0  0  0  0  0  0  0  0  0
   -0.2502   64.7721   78.9197 C   0  0  0  0  0  0  0  0  0  0  0  0
    2.7222   67.5834   84.8499 N   0  0  0  0  0  0  0  0  0  0  0  0
    2.3674   68.4631   85.2074 H   0  0  0  0  0  0  0  0  0  0  0  0
    4.1835   67.5137   84.8080 C   0  0  0  0  0  0  0  0  0  0  0  0
    4.6189   66.0439   84.7575 C   0  0  0  0  0  0  0  0  0  0  0  0
    4.8540   65.6681   86.2122 C   0  0  0  0  0  0  0  0  0  0  0  0
    5.5161   66.9114   86.7784 C   0  0  0  0  0  0  0  0  0  0  0  0
    4.7934   68.0749   86.1042 C   0  0  0  0  0  0  0  0  0  0  0  0
   -0.6423   63.6637   83.6964 C   0  0  0  0  0  0  0  0  0  0  0  0
    0.1997   62.4133   83.8984 C   0  0  0  0  0  0  0  0  0  0  0  0
    2.8162   68.3029   81.9489 C   0  0  0  0  0  0  0  0  0  0  0  0
    2.0283   69.5912   81.9699 C   0  0  0  0  0  0  0  0  0  0  0  0
    0.8186   69.7150   81.2686 C   0  0  0  0  0  0  0  0  0  0  0  0
    0.0881   70.9112   81.2919 C   0  0  0  0  0  0  0  0  0  0  0  0
    0.5525   72.0063   82.0212 C   0  0  0  0  0  0  0  0  0  0  0  0
    1.7546   71.8785   82.7221 C   0  0  0  0  0  0  0  0  0  0  0  0
    2.2303   72.9103   83.4365 F   0  0  0  0  0  0  0  0  0  0  0  0
    2.4875   70.6925   82.7020 C   0  0  0  0  0  0  0  0  0  0  0  0
   -0.0706   73.2203   82.1213 O   0  0  0  0  0  0  0  0  0  0  0  0
   -0.1367   74.0153   80.9452 C   0  0  0  0  0  0  0  0  0  0  0  0
 12 13  1  0  0  0
 13  1  1  0  0  0
  1  2  1  0  0  0
  2  3  2  0  0  0
  2  4  1  0  0  0
  4  5  2  0  0  0
  5  6  1  0  0  0
  6  7  2  0  0  0
  7 14  1  0  0  0
 14 16  1  0  0  0
 16 17  1  0  0  0
 17 18  1  0  0  0
 18 19  1  0  0  0
 19 20  1  0  0  0
  7  8  1  0  0  0
  8 23  1  0  0  0
 23 24  1  0  0  0
 24 25  1  0  0  0
 25 26  2  0  0  0
 26 27  1  0  0  0
 27 31  1  0  0  0
 31 32  1  0  0  0
 27 28  2  0  0  0
 28 29  1  0  0  0
 28 30  1  0  0  0
  5  9  1  0  0  0
  9 21  1  0  0  0
 21 22  1  0  0  0
  9 10  1  0  0  0
 10 11  2  0  0  0
 10  1  1  0  0  0
  8  4  1  0  0  0
 30 24  2  0  0  0
 20 16  1  0  0  0
 14 15  1  0  0  0
M  END
> <minimizedAffinity>
-8.78154

$$$$



 32 35  0  0  0  0  0  0  0  0999 V2000
    0.7087   65.7545   80.3706 N   0  0  0  0  0  0  0  0  0  0  0  0
    1.2598   66.3323   81.5204 C   0  0  0  0  0  0  0  0  0  0  0  0
    2.0212   67.2953   81.5028 O   0  0  0  0  0  0  0  0  0  0  0  0
    0.8762   65.6680   82.7172 C   0  0  0  0  0  0  0  0  0  0  0  0
    0.1021   64.5500   82.7248 C   0  0  0  0  0  0  0  0  0  0  0  0
   -0.0990   64.0806   83.9825 N   0  0  0  0  0  0  0  0  0  0  0  0
    0.5508   64.9100   84.7725 C   0  0  0  0  0  0  0  0  0  0  0  0
    1.1337   65.9302   84.0399 N   0  0  0  0  0  0  0  0  0  0  0  0
   -0.3784   63.9878   81.5658 N   0  0  0  0  0  0  0  0  0  0  0  0
   -0.0515   64.5687   80.3390 C   0  0  0  0  0  0  0  0  0  0  0  0
   -0.4053   64.0601   79.2710 O   0  0  0  0  0  0  0  0  0  0  0  0
    2.3576   65.8165   78.5339 C   0  0  0  0  0  0  0  0  0  0  0  0
    1.0509   66.3645   79.0908 C   0  0  0  0  0  0  0  0  0  0  0  0
    0.6535   64.8320   86.1193 N   0  0  0  0  0  0  0  0  0  0  0  0
    1.2109   65.5113   86.6247 H   0  0  0  0  0  0  0  0  0  0  0  0
    0.6381   63.5069   86.7405 C   0  0  0  0  0  0  0  0  0  0  0  0
   -0.8118   63.0221   86.8630 C   0  0  0  0  0  0  0  0  0  0  0  0
   -1.2374   63.4486   88.2593 C   0  0  0  0  0  0  0  0  0  0  0  0
    0.0051   63.1758   89.0879 C   0  0  0  0  0  0  0  0  0  0  0  0
    1.1682   63.5750   88.1832 C   0  0  0  0  0  0  0  0  0  0  0  0
   -1.1568   62.7549   81.6001 C   0  0  0  0  0  0  0  0  0  0  0  0
   -0.2660   61.5221   81.6056 C   0  0  0  0  0  0  0  0  0  0  0  0
    1.8584   67.0794   84.5572 C   0  0  0  0  0  0  0  0  0  0  0  0
    3.3369   66.8012   84.6897 C   0  0  0  0  0  0  0  0  0  0  0  0
    4.2927   67.6822   84.1599 C   0  0  0  0  0  0  0  0  0  0  0  0
    5.6645   67.4227   84.2865 C   0  0  0  0  0  0  0  0  0  0  0  0
    6.1066   66.2776   84.9498 C   0  0  0  0  0  0  0  0  0  0  0  0
    5.1529   65.4049   85.4804 C   0  0  0  0  0  0  0  0  0  0  0  0
    5.5418   64.2952   86.1272 F   0  0  0  0  0  0  0  0  0  0  0  0
    3.7868   65.6555   85.3566 C   0  0  0  0  0  0  0  0  0  0  0  0
    7.4136   65.9193   85.1381 O   0  0  0  0  0  0  0  0  0  0  0  0
    8.4066   66.8639   84.7618 C   0  0  0  0  0  0  0  0  0  0  0  0
 12 13  1  0  0  0
 13  1  1  0  0  0
  1  2  1  0  0  0
  2  3  2  0  0  0
  2  4  1  0  0  0
  4  5  2  0  0  0
  5  6  1  0  0  0
  6  7  2  0  0  0
  7 14  1  0  0  0
 14 16  1  0  0  0
 16 17  1  0  0  0
 17 18  1  0  0  0
 18 19  1  0  0  0
 19 20  1  0  0  0
  7  8  1  0  0  0
  8 23  1  0  0  0
 23 24  1  0  0  0
 24 25  1  0  0  0
 25 26  2  0  0  0
 26 27  1  0  0  0
 27 31  1  0  0  0
 31 32  1  0  0  0
 27 28  2  0  0  0
 28 29  1  0  0  0
 28 30  1  0  0  0
  5  9  1  0  0  0
  9 21  1  0  0  0
 21 22  1  0  0  0
  9 10  1  0  0  0
 10 11  2  0  0  0
 10  1  1  0  0  0
  8  4  1  0  0  0
 30 24  2  0  0  0
 20 16  1  0  0  0
 14 15  1  0  0  0
M  END
> <minimizedAffinity>
-8.69631

$$$$



 32 35  0  0  0  0  0  0  0  0999 V2000
   -0.0496   63.5995   82.3322 N   0  0  0  0  0  0  0  0  0  0  0  0
    0.4140   64.7278   83.0189 C   0  0  0  0  0  0  0  0  0  0  0  0
    0.2988   64.8845   84.2311 O   0  0  0  0  0  0  0  0  0  0  0  0
    1.0048   65.6976   82.1637 C   0  0  0  0  0  0  0  0  0  0  0  0
    1.0527   65.5578   80.8119 C   0  0  0  0  0  0  0  0  0  0  0  0
    1.6330   66.6280   80.2113 N   0  0  0  0  0  0  0  0  0  0  0  0
    1.9548   67.4461   81.1917 C   0  0  0  0  0  0  0  0  0  0  0  0
    1.6244   66.8958   82.4186 N   0  0  0  0  0  0  0  0  0  0  0  0
    0.5406   64.4526   80.1744 N   0  0  0  0  0  0  0  0  0  0  0  0
   -0.0631   63.4468   80.9316 C   0  0  0  0  0  0  0  0  0  0  0  0
   -0.5949   62.4692   80.3966 O   0  0  0  0  0  0  0  0  0  0  0  0
   -2.1696   62.7960   83.3099 C   0  0  0  0  0  0  0  0  0  0  0  0
   -0.6784   62.5500   83.1260 C   0  0  0  0  0  0  0  0  0  0  0  0
    2.5422   68.6593   81.0738 N   0  0  0  0  0  0  0  0  0  0  0  0
    3.2150   68.9655   81.7674 H   0  0  0  0  0  0  0  0  0  0  0  0
    1.7649   69.7521   80.4878 C   0  0  0  0  0  0  0  0  0  0  0  0
    2.5757   71.0514   80.5712 C   0  0  0  0  0  0  0  0  0  0  0  0
    2.1167   71.7021   81.8667 C   0  0  0  0  0  0  0  0  0  0  0  0
    0.6238   71.4270   81.8712 C   0  0  0  0  0  0  0  0  0  0  0  0
    0.4896   70.0146   81.3074 C   0  0  0  0  0  0  0  0  0  0  0  0
    0.5526   64.3567   78.7192 C   0  0  0  0  0  0  0  0  0  0  0  0
   -0.5969   65.1294   78.0907 C   0  0  0  0  0  0  0  0  0  0  0  0
    1.8982   67.4528   83.7333 C   0  0  0  0  0  0  0  0  0  0  0  0
    3.3067   67.1556   84.1898 C   0  0  0  0  0  0  0  0  0  0  0  0
    4.3255   68.1145   84.0756 C   0  0  0  0  0  0  0  0  0  0  0  0
    5.6316   67.8367   84.5024 C   0  0  0  0  0  0  0  0  0  0  0  0
    5.9427   66.5944   85.0560 C   0  0  0  0  0  0  0  0  0  0  0  0
    4.9253   65.6435   85.1729 C   0  0  0  0  0  0  0  0  0  0  0  0
    5.1875   64.4387   85.7031 F   0  0  0  0  0  0  0  0  0  0  0  0
    3.6245   65.9120   84.7487 C   0  0  0  0  0  0  0  0  0  0  0  0
    7.1749   66.2087   85.5086 O   0  0  0  0  0  0  0  0  0  0  0  0
    8.3089   66.7323   84.8307 C   0  0  0  0  0  0  0  0  0  0  0  0
 12 13  1  0  0  0
 13  1  1  0  0  0
  1  2  1  0  0  0
  2  3  2  0  0  0
  2  4  1  0  0  0
  4  5  2  0  0  0
  5  6  1  0  0  0
  6  7  2  0  0  0
  7 14  1  0  0  0
 14 16  1  0  0  0
 16 17  1  0  0  0
 17 18  1  0  0  0
 18 19  1  0  0  0
 19 20  1  0  0  0
  7  8  1  0  0  0
  8 23  1  0  0  0
 23 24  1  0  0  0
 24 25  1  0  0  0
 25 26  2  0  0  0
 26 27  1  0  0  0
 27 31  1  0  0  0
 31 32  1  0  0  0
 27 28  2  0  0  0
 28 29  1  0  0  0
 28 30  1  0  0  0
  5  9  1  0  0  0
  9 21  1  0  0  0
 21 22  1  0  0  0
  9 10  1  0  0  0
 10 11  2  0  0  0
 10  1  1  0  0  0
  8  4  1  0  0  0
 30 24  2  0  0  0
 20 16  1  0  0  0
 14 15  1  0  0  0
M  END
> <minimizedAffinity>
-8.55723

$$$$



 32 35  0  0  0  0  0  0  0  0999 V2000
    0.3919   63.8906   79.6555 N   0  0  0  0  0  0  0  0  0  0  0  0
    0.6241   64.8341   80.6632 C   0  0  0  0  0  0  0  0  0  0  0  0
    1.1001   65.9474   80.4596 O   0  0  0  0  0  0  0  0  0  0  0  0
    0.2847   64.3604   81.9598 C   0  0  0  0  0  0  0  0  0  0  0  0
   -0.1611   63.0966   82.1902 C   0  0  0  0  0  0  0  0  0  0  0  0
   -0.3850   62.8701   83.5098 N   0  0  0  0  0  0  0  0  0  0  0  0
   -0.0803   63.9998   84.1141 C   0  0  0  0  0  0  0  0  0  0  0  0
    0.2982   64.9623   83.1935 N   0  0  0  0  0  0  0  0  0  0  0  0
   -0.3289   62.1858   81.1741 N   0  0  0  0  0  0  0  0  0  0  0  0
   -0.0180   62.5589   79.8651 C   0  0  0  0  0  0  0  0  0  0  0  0
   -0.0900   61.7539   78.9316 O   0  0  0  0  0  0  0  0  0  0  0  0
   -0.5063   64.8019   77.5439 C   0  0  0  0  0  0  0  0  0  0  0  0
    0.7162   64.2838   78.2890 C   0  0  0  0  0  0  0  0  0  0  0  0
   -0.1280   64.2448   85.4439 N   0  0  0  0  0  0  0  0  0  0  0  0
    0.2947   65.0864   85.8190 H   0  0  0  0  0  0  0  0  0  0  0  0
   -0.0808   63.1055   86.3612 C   0  0  0  0  0  0  0  0  0  0  0  0
   -1.5042   62.5836   86.5938 C   0  0  0  0  0  0  0  0  0  0  0  0
   -1.9717   63.3038   87.8489 C   0  0  0  0  0  0  0  0  0  0  0  0
   -0.7282   63.3042   88.7197 C   0  0  0  0  0  0  0  0  0  0  0  0
    0.4244   63.5422   87.7473 C   0  0  0  0  0  0  0  0  0  0  0  0
   -0.7518   60.8192   81.4576 C   0  0  0  0  0  0  0  0  0  0  0  0
   -2.2660   60.6778   81.4339 C   0  0  0  0  0  0  0  0  0  0  0  0
    0.6238   66.3537   83.4613 C   0  0  0  0  0  0  0  0  0  0  0  0
    2.0644   66.5255   83.8805 C   0  0  0  0  0  0  0  0  0  0  0  0
    2.7205   65.5480   84.6452 C   0  0  0  0  0  0  0  0  0  0  0  0
    4.0586   65.7090   85.0309 C   0  0  0  0  0  0  0  0  0  0  0  0
    4.7678   66.8503   84.6549 C   0  0  0  0  0  0  0  0  0  0  0  0
    4.1135   67.8193   83.8897 C   0  0  0  0  0  0  0  0  0  0  0  0
    4.7652   68.9286   83.5077 F   0  0  0  0  0  0  0  0  0  0  0  0
    2.7822   67.6669   83.5041 C   0  0  0  0  0  0  0  0  0  0  0  0
    6.0726   67.1177   84.9677 O   0  0  0  0  0  0  0  0  0  0  0  0
    7.0207   66.0845   84.7369 C   0  0  0  0  0  0  0  0  0  0  0  0
 12 13  1  0  0  0
 13  1  1  0  0  0
  1  2  1  0  0  0
  2  3  2  0  0  0
  2  4  1  0  0  0
  4  5  2  0  0  0
  5  6  1  0  0  0
  6  7  2  0  0  0
  7 14  1  0  0  0
 14 16  1  0  0  0
 16 17  1  0  0  0
 17 18  1  0  0  0
 18 19  1  0  0  0
 19 20  1  0  0  0
  7  8  1  0  0  0
  8 23  1  0  0  0
 23 24  1  0  0  0
 24 25  1  0  0  0
 25 26  2  0  0  0
 26 27  1  0  0  0
 27 31  1  0  0  0
 31 32  1  0  0  0
 27 28  2  0  0  0
 28 29  1  0  0  0
 28 30  1  0  0  0
  5  9  1  0  0  0
  9 21  1  0  0  0
 21 22  1  0  0  0
  9 10  1  0  0  0
 10 11  2  0  0  0
 10  1  1  0  0  0
  8  4  1  0  0  0
 30 24  2  0  0  0
 20 16  1  0  0  0
 14 15  1  0  0  0
M  END
> <minimizedAffinity>
-8.32932

$$$$
