


 35 37  0  0  0  0  0  0  0  0999 V2000
    7.9902   75.4484   78.8893 C   0  0  0  0  0  0  0  0  0  0  0  0
    8.0294   76.2189   80.0541 C   0  0  0  0  0  0  0  0  0  0  0  0
    6.9657   76.2106   80.9752 C   0  0  0  0  0  0  0  0  0  0  0  0
    7.0354   77.0043   82.1261 C   0  0  0  0  0  0  0  0  0  0  0  0
    5.9961   77.0393   83.0676 C   0  0  0  0  0  0  0  0  0  0  0  0
    4.8564   76.2273   82.8753 C   0  0  0  0  0  0  0  0  0  0  0  0
    4.7572   75.4277   81.7002 C   0  0  0  0  0  0  0  0  0  0  0  0
    5.8243   75.4152   80.7420 C   0  0  0  0  0  0  0  0  0  0  0  0
    5.8056   74.6454   79.5504 C   0  0  0  0  0  0  0  0  0  0  0  0
    6.8665   74.6498   78.6356 C   0  0  0  0  0  0  0  0  0  0  0  0
    3.5397   74.6233   81.4569 C   0  0  0  0  0  0  0  0  0  0  0  0
    3.4699   73.2852   81.8747 C   0  0  0  0  0  0  0  0  0  0  0  0
    2.3231   72.5280   81.6390 C   0  0  0  0  0  0  0  0  0  0  0  0
    1.2202   73.1218   80.9884 C   0  0  0  0  0  0  0  0  0  0  0  0
    1.2835   74.4515   80.5336 C   0  0  0  0  0  0  0  0  0  0  0  0
    2.4419   75.1923   80.7876 C   0  0  0  0  0  0  0  0  0  0  0  0
    2.1883   71.1723   82.0162 N   0  0  0  0  0  0  0  0  0  0  0  0
    2.7495   70.0608   81.4256 C   0  0  0  0  0  0  0  0  0  0  0  0
    2.3469   68.7784   82.1098 C   0  0  0  0  0  0  0  0  0  0  0  0
    3.5216   70.0471   80.4733 O   0  0  0  0  0  0  0  0  0  0  0  0
    1.6028   71.0380   82.8357 H   0  0  0  0  0  0  0  0  0  0  0  0
    0.1354   72.2889   80.7910 O   0  0  0  0  0  0  0  0  0  0  0  0
   -0.9448   72.5234   81.6935 C   0  0  0  0  0  0  0  0  0  0  0  0
    0.2012   74.9339   79.8461 O   0  0  0  0  0  0  0  0  0  0  0  0
    0.4406   75.8987   78.8285 C   0  0  0  0  0  0  0  0  0  0  0  0
    6.1582   77.9261   84.2792 C   0  0  0  0  0  0  0  0  0  0  0  0
    7.5298   78.2431   84.4804 O   0  0  0  0  0  0  0  0  0  0  0  0
    7.9905   78.1091   83.6339 H   0  0  0  0  0  0  0  0  0  0  0  0
    3.7373   76.2491   83.8956 C   0  0  0  0  0  0  0  0  0  0  0  0
    2.8548   77.3180   83.5800 O   0  0  0  0  0  0  0  0  0  0  0  0
    2.1627   77.3082   84.2621 H   0  0  0  0  0  0  0  0  0  0  0  0
    9.2484   76.5913   77.2072 C   0  0  0  0  0  0  0  0  0  0  0  0
    8.9877   75.4081   77.9473 O   0  0  0  0  0  0  0  0  0  0  0  0
    6.8910   73.9215   77.4715 O   0  0  0  0  0  0  0  0  0  0  0  0
    6.5639   72.5413   77.5503 C   0  0  0  0  0  0  0  0  0  0  0  0
 32 33  1  0  0  0
 33  1  1  0  0  0
  1  2  1  0  0  0
  2  3  2  0  0  0
  3  4  1  0  0  0
  4  5  2  0  0  0
  5 26  1  0  0  0
 26 27  1  0  0  0
  5  6  1  0  0  0
  6 29  1  0  0  0
 29 30  1  0  0  0
  6  7  2  0  0  0
  7 11  1  0  0  0
 11 12  2  0  0  0
 12 13  1  0  0  0
 13 17  1  0  0  0
 17 18  1  0  0  0
 18 19  1  0  0  0
 18 20  2  0  0  0
 13 14  2  0  0  0
 14 22  1  0  0  0
 22 23  1  0  0  0
 14 15  1  0  0  0
 15 24  1  0  0  0
 24 25  1  0  0  0
 15 16  2  0  0  0
  7  8  1  0  0  0
  8  9  2  0  0  0
  9 10  1  0  0  0
 10 34  1  0  0  0
 34 35  1  0  0  0
 10  1  2  0  0  0
  8  3  1  0  0  0
 16 11  1  0  0  0
 27 28  1  0  0  0
 30 31  1  0  0  0
 17 21  1  0  0  0
M  END
> <minimizedAffinity>
-1.16511

$$$$



 35 37  0  0  0  0  0  0  0  0999 V2000
    1.0642   70.6314   81.4949 C   0  0  0  0  0  0  0  0  0  0  0  0
    0.2311   71.7505   81.4225 C   0  0  0  0  0  0  0  0  0  0  0  0
    0.7565   73.0483   81.2822 C   0  0  0  0  0  0  0  0  0  0  0  0
   -0.1088   74.1470   81.2243 C   0  0  0  0  0  0  0  0  0  0  0  0
    0.3669   75.4606   81.0968 C   0  0  0  0  0  0  0  0  0  0  0  0
    1.7566   75.6890   80.9882 C   0  0  0  0  0  0  0  0  0  0  0  0
    2.6551   74.5859   81.0653 C   0  0  0  0  0  0  0  0  0  0  0  0
    2.1506   73.2512   81.2093 C   0  0  0  0  0  0  0  0  0  0  0  0
    2.9761   72.1001   81.2898 C   0  0  0  0  0  0  0  0  0  0  0  0
    2.4531   70.8075   81.4247 C   0  0  0  0  0  0  0  0  0  0  0  0
    4.1151   74.8200   81.0179 C   0  0  0  0  0  0  0  0  0  0  0  0
    4.8129   74.7486   79.8022 C   0  0  0  0  0  0  0  0  0  0  0  0
    6.1898   74.9643   79.7615 C   0  0  0  0  0  0  0  0  0  0  0  0
    6.8801   75.2723   80.9536 C   0  0  0  0  0  0  0  0  0  0  0  0
    6.2034   75.3163   82.1862 C   0  0  0  0  0  0  0  0  0  0  0  0
    4.8216   75.1029   82.2001 C   0  0  0  0  0  0  0  0  0  0  0  0
    6.9594   74.8924   78.5779 N   0  0  0  0  0  0  0  0  0  0  0  0
    7.2533   73.7827   77.8155 C   0  0  0  0  0  0  0  0  0  0  0  0
    8.1286   74.1110   76.6319 C   0  0  0  0  0  0  0  0  0  0  0  0
    6.8548   72.6383   78.0016 O   0  0  0  0  0  0  0  0  0  0  0  0
    7.3192   75.7932   78.2755 H   0  0  0  0  0  0  0  0  0  0  0  0
    8.2421   75.4584   80.8132 O   0  0  0  0  0  0  0  0  0  0  0  0
    8.6335   76.8287   80.7405 C   0  0  0  0  0  0  0  0  0  0  0  0
    6.9540   75.5488   83.3084 O   0  0  0  0  0  0  0  0  0  0  0  0
    6.7935   76.8013   83.9634 C   0  0  0  0  0  0  0  0  0  0  0  0
   -0.6408   76.5841   81.0435 C   0  0  0  0  0  0  0  0  0  0  0  0
   -1.6316   76.3139   80.0600 O   0  0  0  0  0  0  0  0  0  0  0  0
   -1.6310   75.3547   79.8968 H   0  0  0  0  0  0  0  0  0  0  0  0
    2.2760   77.1034   80.8354 C   0  0  0  0  0  0  0  0  0  0  0  0
    2.4067   77.6821   82.1272 O   0  0  0  0  0  0  0  0  0  0  0  0
    2.7261   78.5891   81.9867 H   0  0  0  0  0  0  0  0  0  0  0  0
   -0.0515   68.7476   80.5332 C   0  0  0  0  0  0  0  0  0  0  0  0
    0.6234   69.3389   81.6334 O   0  0  0  0  0  0  0  0  0  0  0  0
    3.2135   69.6669   81.5063 O   0  0  0  0  0  0  0  0  0  0  0  0
    3.7228   69.3038   82.7819 C   0  0  0  0  0  0  0  0  0  0  0  0
 32 33  1  0  0  0
 33  1  1  0  0  0
  1  2  1  0  0  0
  2  3  2  0  0  0
  3  4  1  0  0  0
  4  5  2  0  0  0
  5 26  1  0  0  0
 26 27  1  0  0  0
  5  6  1  0  0  0
  6 29  1  0  0  0
 29 30  1  0  0  0
  6  7  2  0  0  0
  7 11  1  0  0  0
 11 12  2  0  0  0
 12 13  1  0  0  0
 13 17  1  0  0  0
 17 18  1  0  0  0
 18 19  1  0  0  0
 18 20  2  0  0  0
 13 14  2  0  0  0
 14 22  1  0  0  0
 22 23  1  0  0  0
 14 15  1  0  0  0
 15 24  1  0  0  0
 24 25  1  0  0  0
 15 16  2  0  0  0
  7  8  1  0  0  0
  8  9  2  0  0  0
  9 10  1  0  0  0
 10 34  1  0  0  0
 34 35  1  0  0  0
 10  1  2  0  0  0
  8  3  1  0  0  0
 16 11  1  0  0  0
 27 28  1  0  0  0
 30 31  1  0  0  0
 17 21  1  0  0  0
M  END
> <minimizedAffinity>
-1.16435

$$$$



 35 37  0  0  0  0  0  0  0  0999 V2000
    2.4168   71.3417   81.3219 C   0  0  0  0  0  0  0  0  0  0  0  0
    3.6235   72.0357   81.2021 C   0  0  0  0  0  0  0  0  0  0  0  0
    3.6768   73.4378   81.3074 C   0  0  0  0  0  0  0  0  0  0  0  0
    4.9025   74.0999   81.1707 C   0  0  0  0  0  0  0  0  0  0  0  0
    5.0053   75.4964   81.2558 C   0  0  0  0  0  0  0  0  0  0  0  0
    3.8493   76.2635   81.5214 C   0  0  0  0  0  0  0  0  0  0  0  0
    2.5890   75.6103   81.6436 C   0  0  0  0  0  0  0  0  0  0  0  0
    2.5016   74.1825   81.5402 C   0  0  0  0  0  0  0  0  0  0  0  0
    1.2882   73.4561   81.6535 C   0  0  0  0  0  0  0  0  0  0  0  0
    1.2354   72.0598   81.5534 C   0  0  0  0  0  0  0  0  0  0  0  0
    1.3625   76.4094   81.8571 C   0  0  0  0  0  0  0  0  0  0  0  0
    0.5703   76.8101   80.7699 C   0  0  0  0  0  0  0  0  0  0  0  0
   -0.5821   77.5679   80.9738 C   0  0  0  0  0  0  0  0  0  0  0  0
   -0.9591   77.9189   82.2880 C   0  0  0  0  0  0  0  0  0  0  0  0
   -0.1607   77.5543   83.3873 C   0  0  0  0  0  0  0  0  0  0  0  0
    0.9867   76.7888   83.1578 C   0  0  0  0  0  0  0  0  0  0  0  0
   -1.4178   78.0200   79.9271 N   0  0  0  0  0  0  0  0  0  0  0  0
   -2.2123   77.2732   79.0844 C   0  0  0  0  0  0  0  0  0  0  0  0
   -2.9414   78.1236   78.0744 C   0  0  0  0  0  0  0  0  0  0  0  0
   -2.3794   76.0590   79.1183 O   0  0  0  0  0  0  0  0  0  0  0  0
   -1.4139   79.0299   79.8156 H   0  0  0  0  0  0  0  0  0  0  0  0
   -2.1089   78.6788   82.3869 O   0  0  0  0  0  0  0  0  0  0  0  0
   -3.2609   77.9350   82.7819 C   0  0  0  0  0  0  0  0  0  0  0  0
   -0.5531   77.9943   84.6239 O   0  0  0  0  0  0  0  0  0  0  0  0
    0.4640   78.3111   85.5665 C   0  0  0  0  0  0  0  0  0  0  0  0
    6.3693   76.1242   81.0946 C   0  0  0  0  0  0  0  0  0  0  0  0
    7.2528   75.2257   80.4355 O   0  0  0  0  0  0  0  0  0  0  0  0
    6.7093   74.5789   79.9530 H   0  0  0  0  0  0  0  0  0  0  0  0
    3.9559   77.7703   81.6294 C   0  0  0  0  0  0  0  0  0  0  0  0
    4.2548   78.1099   82.9771 O   0  0  0  0  0  0  0  0  0  0  0  0
    4.3001   79.0801   83.0084 H   0  0  0  0  0  0  0  0  0  0  0  0
    2.8562   69.1874   82.2624 C   0  0  0  0  0  0  0  0  0  0  0  0
    2.2890   69.9783   81.2288 O   0  0  0  0  0  0  0  0  0  0  0  0
    0.0851   71.3168   81.6567 O   0  0  0  0  0  0  0  0  0  0  0  0
   -1.1338   71.9304   81.2614 C   0  0  0  0  0  0  0  0  0  0  0  0
 32 33  1  0  0  0
 33  1  1  0  0  0
  1  2  1  0  0  0
  2  3  2  0  0  0
  3  4  1  0  0  0
  4  5  2  0  0  0
  5 26  1  0  0  0
 26 27  1  0  0  0
  5  6  1  0  0  0
  6 29  1  0  0  0
 29 30  1  0  0  0
  6  7  2  0  0  0
  7 11  1  0  0  0
 11 12  2  0  0  0
 12 13  1  0  0  0
 13 17  1  0  0  0
 17 18  1  0  0  0
 18 19  1  0  0  0
 18 20  2  0  0  0
 13 14  2  0  0  0
 14 22  1  0  0  0
 22 23  1  0  0  0
 14 15  1  0  0  0
 15 24  1  0  0  0
 24 25  1  0  0  0
 15 16  2  0  0  0
  7  8  1  0  0  0
  8  9  2  0  0  0
  9 10  1  0  0  0
 10 34  1  0  0  0
 34 35  1  0  0  0
 10  1  2  0  0  0
  8  3  1  0  0  0
 16 11  1  0  0  0
 27 28  1  0  0  0
 30 31  1  0  0  0
 17 21  1  0  0  0
M  END
> <minimizedAffinity>
-1.15705

$$$$



 35 37  0  0  0  0  0  0  0  0999 V2000
    2.3025   70.7973   80.9364 C   0  0  0  0  0  0  0  0  0  0  0  0
    3.5712   71.2937   80.6264 C   0  0  0  0  0  0  0  0  0  0  0  0
    3.8726   72.6629   80.7464 C   0  0  0  0  0  0  0  0  0  0  0  0
    5.1517   73.1255   80.4159 C   0  0  0  0  0  0  0  0  0  0  0  0
    5.4969   74.4822   80.5075 C   0  0  0  0  0  0  0  0  0  0  0  0
    4.5433   75.4117   80.9787 C   0  0  0  0  0  0  0  0  0  0  0  0
    3.2297   74.9640   81.3008 C   0  0  0  0  0  0  0  0  0  0  0  0
    2.8913   73.5749   81.1880 C   0  0  0  0  0  0  0  0  0  0  0  0
    1.6096   73.0480   81.4922 C   0  0  0  0  0  0  0  0  0  0  0  0
    1.3106   71.6842   81.3774 C   0  0  0  0  0  0  0  0  0  0  0  0
    2.2043   75.9389   81.7331 C   0  0  0  0  0  0  0  0  0  0  0  0
    2.0968   76.3150   83.0811 C   0  0  0  0  0  0  0  0  0  0  0  0
    1.1258   77.2298   83.4864 C   0  0  0  0  0  0  0  0  0  0  0  0
    0.2566   77.7912   82.5263 C   0  0  0  0  0  0  0  0  0  0  0  0
    0.3279   77.4022   81.1763 C   0  0  0  0  0  0  0  0  0  0  0  0
    1.3144   76.4882   80.7934 C   0  0  0  0  0  0  0  0  0  0  0  0
    0.9487   77.6419   84.8270 N   0  0  0  0  0  0  0  0  0  0  0  0
    1.8462   78.2901   85.6477 C   0  0  0  0  0  0  0  0  0  0  0  0
    1.2904   78.5395   87.0275 C   0  0  0  0  0  0  0  0  0  0  0  0
    2.9693   78.6775   85.3453 O   0  0  0  0  0  0  0  0  0  0  0  0
    0.0282   77.4235   85.1978 H   0  0  0  0  0  0  0  0  0  0  0  0
   -0.6773   78.6786   83.0260 O   0  0  0  0  0  0  0  0  0  0  0  0
   -1.9842   78.1233   83.1674 C   0  0  0  0  0  0  0  0  0  0  0  0
   -0.5969   77.9355   80.3178 O   0  0  0  0  0  0  0  0  0  0  0  0
   -1.0337   77.1278   79.2314 C   0  0  0  0  0  0  0  0  0  0  0  0
    6.9008   74.8900   80.1290 C   0  0  0  0  0  0  0  0  0  0  0  0
    7.8140   74.5351   81.1596 O   0  0  0  0  0  0  0  0  0  0  0  0
    7.3993   73.8346   81.6925 H   0  0  0  0  0  0  0  0  0  0  0  0
    4.9143   76.8755   81.0940 C   0  0  0  0  0  0  0  0  0  0  0  0
    5.4637   77.1053   82.3849 O   0  0  0  0  0  0  0  0  0  0  0  0
    5.6740   78.0532   82.4250 H   0  0  0  0  0  0  0  0  0  0  0  0
    2.4919   68.5676   81.7797 C   0  0  0  0  0  0  0  0  0  0  0  0
    1.9372   69.4777   80.8418 O   0  0  0  0  0  0  0  0  0  0  0  0
    0.0858   71.1313   81.6606 O   0  0  0  0  0  0  0  0  0  0  0  0
   -1.0704   71.8976   81.3537 C   0  0  0  0  0  0  0  0  0  0  0  0
 32 33  1  0  0  0
 33  1  1  0  0  0
  1  2  1  0  0  0
  2  3  2  0  0  0
  3  4  1  0  0  0
  4  5  2  0  0  0
  5 26  1  0  0  0
 26 27  1  0  0  0
  5  6  1  0  0  0
  6 29  1  0  0  0
 29 30  1  0  0  0
  6  7  2  0  0  0
  7 11  1  0  0  0
 11 12  2  0  0  0
 12 13  1  0  0  0
 13 17  1  0  0  0
 17 18  1  0  0  0
 18 19  1  0  0  0
 18 20  2  0  0  0
 13 14  2  0  0  0
 14 22  1  0  0  0
 22 23  1  0  0  0
 14 15  1  0  0  0
 15 24  1  0  0  0
 24 25  1  0  0  0
 15 16  2  0  0  0
  7  8  1  0  0  0
  8  9  2  0  0  0
  9 10  1  0  0  0
 10 34  1  0  0  0
 34 35  1  0  0  0
 10  1  2  0  0  0
  8  3  1  0  0  0
 16 11  1  0  0  0
 27 28  1  0  0  0
 30 31  1  0  0  0
 17 21  1  0  0  0
M  END
> <minimizedAffinity>
-1.14334

$$$$



 35 37  0  0  0  0  0  0  0  0999 V2000
    7.7784   74.5056   78.3945 C   0  0  0  0  0  0  0  0  0  0  0  0
    8.1185   75.3134   79.4826 C   0  0  0  0  0  0  0  0  0  0  0  0
    7.2254   75.5200   80.5502 C   0  0  0  0  0  0  0  0  0  0  0  0
    7.5966   76.3451   81.6183 C   0  0  0  0  0  0  0  0  0  0  0  0
    6.7372   76.5914   82.6994 C   0  0  0  0  0  0  0  0  0  0  0  0
    5.4713   75.9657   82.7375 C   0  0  0  0  0  0  0  0  0  0  0  0
    5.0667   75.1384   81.6504 C   0  0  0  0  0  0  0  0  0  0  0  0
    5.9539   74.9091   80.5471 C   0  0  0  0  0  0  0  0  0  0  0  0
    5.6297   74.0975   79.4295 C   0  0  0  0  0  0  0  0  0  0  0  0
    6.5204   73.8877   78.3688 C   0  0  0  0  0  0  0  0  0  0  0  0
    3.7181   74.5304   81.6493 C   0  0  0  0  0  0  0  0  0  0  0  0
    2.6113   75.2435   81.1627 C   0  0  0  0  0  0  0  0  0  0  0  0
    1.3405   74.6698   81.1681 C   0  0  0  0  0  0  0  0  0  0  0  0
    1.1741   73.3549   81.6534 C   0  0  0  0  0  0  0  0  0  0  0  0
    2.2655   72.6367   82.1749 C   0  0  0  0  0  0  0  0  0  0  0  0
    3.5310   73.2310   82.1526 C   0  0  0  0  0  0  0  0  0  0  0  0
    0.1794   75.3335   80.7099 N   0  0  0  0  0  0  0  0  0  0  0  0
   -0.4895   76.3872   81.2941 C   0  0  0  0  0  0  0  0  0  0  0  0
   -1.7076   76.8042   80.5084 C   0  0  0  0  0  0  0  0  0  0  0  0
   -0.1677   76.9849   82.3150 O   0  0  0  0  0  0  0  0  0  0  0  0
   -0.1749   74.9660   79.8314 H   0  0  0  0  0  0  0  0  0  0  0  0
   -0.1227   72.8782   81.6277 O   0  0  0  0  0  0  0  0  0  0  0  0
   -0.3952   72.0034   80.5338 C   0  0  0  0  0  0  0  0  0  0  0  0
    2.0115   71.3949   82.6946 O   0  0  0  0  0  0  0  0  0  0  0  0
    2.5779   70.2717   82.0305 C   0  0  0  0  0  0  0  0  0  0  0  0
    7.2223   77.4962   83.8069 C   0  0  0  0  0  0  0  0  0  0  0  0
    8.3831   78.2059   83.3933 O   0  0  0  0  0  0  0  0  0  0  0  0
    8.3967   78.2072   82.4205 H   0  0  0  0  0  0  0  0  0  0  0  0
    4.5447   76.2155   83.9091 C   0  0  0  0  0  0  0  0  0  0  0  0
    3.8128   77.4093   83.6638 O   0  0  0  0  0  0  0  0  0  0  0  0
    3.2438   77.5426   84.4402 H   0  0  0  0  0  0  0  0  0  0  0  0
    8.9298   75.3547   76.4783 C   0  0  0  0  0  0  0  0  0  0  0  0
    8.5960   74.2609   77.3196 O   0  0  0  0  0  0  0  0  0  0  0  0
    6.2490   73.1114   77.2690 O   0  0  0  0  0  0  0  0  0  0  0  0
    6.2501   71.7012   77.4410 C   0  0  0  0  0  0  0  0  0  0  0  0
 32 33  1  0  0  0
 33  1  1  0  0  0
  1  2  1  0  0  0
  2  3  2  0  0  0
  3  4  1  0  0  0
  4  5  2  0  0  0
  5 26  1  0  0  0
 26 27  1  0  0  0
  5  6  1  0  0  0
  6 29  1  0  0  0
 29 30  1  0  0  0
  6  7  2  0  0  0
  7 11  1  0  0  0
 11 12  2  0  0  0
 12 13  1  0  0  0
 13 17  1  0  0  0
 17 18  1  0  0  0
 18 19  1  0  0  0
 18 20  2  0  0  0
 13 14  2  0  0  0
 14 22  1  0  0  0
 22 23  1  0  0  0
 14 15  1  0  0  0
 15 24  1  0  0  0
 24 25  1  0  0  0
 15 16  2  0  0  0
  7  8  1  0  0  0
  8  9  2  0  0  0
  9 10  1  0  0  0
 10 34  1  0  0  0
 34 35  1  0  0  0
 10  1  2  0  0  0
  8  3  1  0  0  0
 16 11  1  0  0  0
 27 28  1  0  0  0
 30 31  1  0  0  0
 17 21  1  0  0  0
M  END
> <minimizedAffinity>
-1.12486

$$$$



 35 37  0  0  0  0  0  0  0  0999 V2000
    0.7127   70.8805   81.3186 C   0  0  0  0  0  0  0  0  0  0  0  0
   -0.2190   71.8369   80.9072 C   0  0  0  0  0  0  0  0  0  0  0  0
    0.1035   73.2060   80.8685 C   0  0  0  0  0  0  0  0  0  0  0  0
   -0.8597   74.1366   80.4615 C   0  0  0  0  0  0  0  0  0  0  0  0
   -0.5902   75.5127   80.4175 C   0  0  0  0  0  0  0  0  0  0  0  0
    0.6984   75.9798   80.7591 C   0  0  0  0  0  0  0  0  0  0  0  0
    1.6865   75.0507   81.1954 C   0  0  0  0  0  0  0  0  0  0  0  0
    1.3883   73.6488   81.2467 C   0  0  0  0  0  0  0  0  0  0  0  0
    2.3154   72.6598   81.6652 C   0  0  0  0  0  0  0  0  0  0  0  0
    1.9962   71.2962   81.6993 C   0  0  0  0  0  0  0  0  0  0  0  0
    3.0188   75.5359   81.6175 C   0  0  0  0  0  0  0  0  0  0  0  0
    4.0901   75.5669   80.7111 C   0  0  0  0  0  0  0  0  0  0  0  0
    5.3460   76.0196   81.1133 C   0  0  0  0  0  0  0  0  0  0  0  0
    5.5320   76.4640   82.4400 C   0  0  0  0  0  0  0  0  0  0  0  0
    4.4790   76.4100   83.3713 C   0  0  0  0  0  0  0  0  0  0  0  0
    3.2272   75.9583   82.9422 C   0  0  0  0  0  0  0  0  0  0  0  0
    6.4729   76.0632   80.2610 N   0  0  0  0  0  0  0  0  0  0  0  0
    7.1913   75.0093   79.7391 C   0  0  0  0  0  0  0  0  0  0  0  0
    8.3485   75.4658   78.8863 C   0  0  0  0  0  0  0  0  0  0  0  0
    6.9521   73.8155   79.8835 O   0  0  0  0  0  0  0  0  0  0  0  0
    6.7569   77.0075   80.0160 H   0  0  0  0  0  0  0  0  0  0  0  0
    6.8127   76.8833   82.7458 O   0  0  0  0  0  0  0  0  0  0  0  0
    6.9719   78.3013   82.7459 C   0  0  0  0  0  0  0  0  0  0  0  0
    4.7566   76.7896   84.6581 O   0  0  0  0  0  0  0  0  0  0  0  0
    3.8617   77.6992   85.2868 C   0  0  0  0  0  0  0  0  0  0  0  0
   -1.6909   76.4429   79.9664 C   0  0  0  0  0  0  0  0  0  0  0  0
   -2.5323   75.7927   79.0222 O   0  0  0  0  0  0  0  0  0  0  0  0
   -2.4187   74.8333   79.1378 H   0  0  0  0  0  0  0  0  0  0  0  0
    1.0003   77.4627   80.6994 C   0  0  0  0  0  0  0  0  0  0  0  0
    1.4803   77.7773   79.3988 O   0  0  0  0  0  0  0  0  0  0  0  0
    1.6758   78.7292   79.4051 H   0  0  0  0  0  0  0  0  0  0  0  0
    0.2333   68.8416   80.1647 C   0  0  0  0  0  0  0  0  0  0  0  0
    0.4686   69.5314   81.3831 O   0  0  0  0  0  0  0  0  0  0  0  0
    2.8608   70.3060   82.0967 O   0  0  0  0  0  0  0  0  0  0  0  0
    3.9950   70.0538   81.2792 C   0  0  0  0  0  0  0  0  0  0  0  0
 32 33  1  0  0  0
 33  1  1  0  0  0
  1  2  1  0  0  0
  2  3  2  0  0  0
  3  4  1  0  0  0
  4  5  2  0  0  0
  5 26  1  0  0  0
 26 27  1  0  0  0
  5  6  1  0  0  0
  6 29  1  0  0  0
 29 30  1  0  0  0
  6  7  2  0  0  0
  7 11  1  0  0  0
 11 12  2  0  0  0
 12 13  1  0  0  0
 13 17  1  0  0  0
 17 18  1  0  0  0
 18 19  1  0  0  0
 18 20  2  0  0  0
 13 14  2  0  0  0
 14 22  1  0  0  0
 22 23  1  0  0  0
 14 15  1  0  0  0
 15 24  1  0  0  0
 24 25  1  0  0  0
 15 16  2  0  0  0
  7  8  1  0  0  0
  8  9  2  0  0  0
  9 10  1  0  0  0
 10 34  1  0  0  0
 34 35  1  0  0  0
 10  1  2  0  0  0
  8  3  1  0  0  0
 16 11  1  0  0  0
 27 28  1  0  0  0
 30 31  1  0  0  0
 17 21  1  0  0  0
M  END
> <minimizedAffinity>
-1.09157

$$$$



 35 37  0  0  0  0  0  0  0  0999 V2000
   -1.4913   78.2593   82.1176 C   0  0  0  0  0  0  0  0  0  0  0  0
   -0.8234   78.6228   83.2897 C   0  0  0  0  0  0  0  0  0  0  0  0
    0.4716   78.1505   83.5726 C   0  0  0  0  0  0  0  0  0  0  0  0
    1.1052   78.5272   84.7626 C   0  0  0  0  0  0  0  0  0  0  0  0
    2.3904   78.0734   85.0949 C   0  0  0  0  0  0  0  0  0  0  0  0
    3.0878   77.2393   84.1931 C   0  0  0  0  0  0  0  0  0  0  0  0
    2.4523   76.8282   82.9860 C   0  0  0  0  0  0  0  0  0  0  0  0
    1.1325   77.2917   82.6696 C   0  0  0  0  0  0  0  0  0  0  0  0
    0.4323   76.9329   81.4889 C   0  0  0  0  0  0  0  0  0  0  0  0
   -0.8551   77.4067   81.2047 C   0  0  0  0  0  0  0  0  0  0  0  0
    3.1481   75.9027   82.0651 C   0  0  0  0  0  0  0  0  0  0  0  0
    3.0256   74.5129   82.2186 C   0  0  0  0  0  0  0  0  0  0  0  0
    3.6871   73.6432   81.3525 C   0  0  0  0  0  0  0  0  0  0  0  0
    4.4724   74.1703   80.3047 C   0  0  0  0  0  0  0  0  0  0  0  0
    4.6332   75.5598   80.1549 C   0  0  0  0  0  0  0  0  0  0  0  0
    3.9545   76.4115   81.0319 C   0  0  0  0  0  0  0  0  0  0  0  0
    3.6231   72.2348   81.4567 N   0  0  0  0  0  0  0  0  0  0  0  0
    2.5091   71.4245   81.4169 C   0  0  0  0  0  0  0  0  0  0  0  0
    2.8505   69.9653   81.5872 C   0  0  0  0  0  0  0  0  0  0  0  0
    1.3499   71.7794   81.2336 O   0  0  0  0  0  0  0  0  0  0  0  0
    4.5333   71.7968   81.5659 H   0  0  0  0  0  0  0  0  0  0  0  0
    5.0961   73.2301   79.5069 O   0  0  0  0  0  0  0  0  0  0  0  0
    6.4871   73.0702   79.7821 C   0  0  0  0  0  0  0  0  0  0  0  0
    5.4694   75.9930   79.1600 O   0  0  0  0  0  0  0  0  0  0  0  0
    5.6324   77.3968   78.9978 C   0  0  0  0  0  0  0  0  0  0  0  0
    2.9949   78.5311   86.4009 C   0  0  0  0  0  0  0  0  0  0  0  0
    2.0140   78.5215   87.4304 O   0  0  0  0  0  0  0  0  0  0  0  0
    1.3004   77.9216   87.1520 H   0  0  0  0  0  0  0  0  0  0  0  0
    4.4815   76.7580   84.5391 C   0  0  0  0  0  0  0  0  0  0  0  0
    5.4242   77.6989   84.0420 O   0  0  0  0  0  0  0  0  0  0  0  0
    6.3018   77.3490   84.2694 H   0  0  0  0  0  0  0  0  0  0  0  0
   -3.8074   78.4177   82.6914 C   0  0  0  0  0  0  0  0  0  0  0  0
   -2.7530   78.6788   81.7772 O   0  0  0  0  0  0  0  0  0  0  0  0
   -1.5689   77.0861   80.0762 O   0  0  0  0  0  0  0  0  0  0  0  0
   -1.1362   75.9648   79.3188 C   0  0  0  0  0  0  0  0  0  0  0  0
 32 33  1  0  0  0
 33  1  1  0  0  0
  1  2  1  0  0  0
  2  3  2  0  0  0
  3  4  1  0  0  0
  4  5  2  0  0  0
  5 26  1  0  0  0
 26 27  1  0  0  0
  5  6  1  0  0  0
  6 29  1  0  0  0
 29 30  1  0  0  0
  6  7  2  0  0  0
  7 11  1  0  0  0
 11 12  2  0  0  0
 12 13  1  0  0  0
 13 17  1  0  0  0
 17 18  1  0  0  0
 18 19  1  0  0  0
 18 20  2  0  0  0
 13 14  2  0  0  0
 14 22  1  0  0  0
 22 23  1  0  0  0
 14 15  1  0  0  0
 15 24  1  0  0  0
 24 25  1  0  0  0
 15 16  2  0  0  0
  7  8  1  0  0  0
  8  9  2  0  0  0
  9 10  1  0  0  0
 10 34  1  0  0  0
 34 35  1  0  0  0
 10  1  2  0  0  0
  8  3  1  0  0  0
 16 11  1  0  0  0
 27 28  1  0  0  0
 30 31  1  0  0  0
 17 21  1  0  0  0
M  END
> <minimizedAffinity>
-1.07623

$$$$



 35 37  0  0  0  0  0  0  0  0999 V2000
    1.0847   70.7156   81.4586 C   0  0  0  0  0  0  0  0  0  0  0  0
    0.2495   71.8304   81.3508 C   0  0  0  0  0  0  0  0  0  0  0  0
    0.7715   73.1210   81.1467 C   0  0  0  0  0  0  0  0  0  0  0  0
   -0.0957   74.2160   81.0549 C   0  0  0  0  0  0  0  0  0  0  0  0
    0.3769   75.5230   80.8638 C   0  0  0  0  0  0  0  0  0  0  0  0
    1.7646   75.7469   80.7243 C   0  0  0  0  0  0  0  0  0  0  0  0
    2.6651   74.6484   80.8351 C   0  0  0  0  0  0  0  0  0  0  0  0
    2.1641   73.3210   81.0440 C   0  0  0  0  0  0  0  0  0  0  0  0
    2.9918   72.1747   81.1614 C   0  0  0  0  0  0  0  0  0  0  0  0
    2.4722   70.8889   81.3597 C   0  0  0  0  0  0  0  0  0  0  0  0
    4.1240   74.8807   80.7555 C   0  0  0  0  0  0  0  0  0  0  0  0
    4.8355   75.3554   81.8684 C   0  0  0  0  0  0  0  0  0  0  0  0
    6.2095   75.5786   81.7886 C   0  0  0  0  0  0  0  0  0  0  0  0
    6.8882   75.3082   80.5809 C   0  0  0  0  0  0  0  0  0  0  0  0
    6.1870   74.8630   79.4455 C   0  0  0  0  0  0  0  0  0  0  0  0
    4.8107   74.6404   79.5524 C   0  0  0  0  0  0  0  0  0  0  0  0
    6.9869   76.0704   82.8621 N   0  0  0  0  0  0  0  0  0  0  0  0
    6.9961   77.3392   83.3998 C   0  0  0  0  0  0  0  0  0  0  0  0
    7.9870   77.4806   84.5281 C   0  0  0  0  0  0  0  0  0  0  0  0
    6.2841   78.2811   83.0696 O   0  0  0  0  0  0  0  0  0  0  0  0
    7.5995   75.3701   83.2704 H   0  0  0  0  0  0  0  0  0  0  0  0
    8.2448   75.5706   80.5971 O   0  0  0  0  0  0  0  0  0  0  0  0
    8.5979   76.8234   80.0122 C   0  0  0  0  0  0  0  0  0  0  0  0
    6.9029   74.6930   78.2900 O   0  0  0  0  0  0  0  0  0  0  0  0
    6.7186   73.4799   77.5703 C   0  0  0  0  0  0  0  0  0  0  0  0
   -0.6326   76.6429   80.7775 C   0  0  0  0  0  0  0  0  0  0  0  0
   -0.9949   77.0838   82.0800 O   0  0  0  0  0  0  0  0  0  0  0  0
   -0.2866   76.8141   82.6901 H   0  0  0  0  0  0  0  0  0  0  0  0
    2.2802   77.1536   80.5029 C   0  0  0  0  0  0  0  0  0  0  0  0
    2.3162   77.4102   79.1051 O   0  0  0  0  0  0  0  0  0  0  0  0
    2.6646   78.3117   79.0041 H   0  0  0  0  0  0  0  0  0  0  0  0
   -0.0180   68.7815   80.5856 C   0  0  0  0  0  0  0  0  0  0  0  0
    0.6473   69.4302   81.6591 O   0  0  0  0  0  0  0  0  0  0  0  0
    3.2348   69.7531   81.4788 O   0  0  0  0  0  0  0  0  0  0  0  0
    3.7369   69.4280   82.7674 C   0  0  0  0  0  0  0  0  0  0  0  0
 32 33  1  0  0  0
 33  1  1  0  0  0
  1  2  1  0  0  0
  2  3  2  0  0  0
  3  4  1  0  0  0
  4  5  2  0  0  0
  5 26  1  0  0  0
 26 27  1  0  0  0
  5  6  1  0  0  0
  6 29  1  0  0  0
 29 30  1  0  0  0
  6  7  2  0  0  0
  7 11  1  0  0  0
 11 12  2  0  0  0
 12 13  1  0  0  0
 13 17  1  0  0  0
 17 18  1  0  0  0
 18 19  1  0  0  0
 18 20  2  0  0  0
 13 14  2  0  0  0
 14 22  1  0  0  0
 22 23  1  0  0  0
 14 15  1  0  0  0
 15 24  1  0  0  0
 24 25  1  0  0  0
 15 16  2  0  0  0
  7  8  1  0  0  0
  8  9  2  0  0  0
  9 10  1  0  0  0
 10 34  1  0  0  0
 34 35  1  0  0  0
 10  1  2  0  0  0
  8  3  1  0  0  0
 16 11  1  0  0  0
 27 28  1  0  0  0
 30 31  1  0  0  0
 17 21  1  0  0  0
M  END
> <minimizedAffinity>
-1.06883

$$$$



 35 37  0  0  0  0  0  0  0  0999 V2000
    0.7449   70.3976   81.5114 C   0  0  0  0  0  0  0  0  0  0  0  0
   -0.1874   71.2469   80.9102 C   0  0  0  0  0  0  0  0  0  0  0  0
    0.0371   72.6328   80.8154 C   0  0  0  0  0  0  0  0  0  0  0  0
   -0.9249   73.4543   80.2162 C   0  0  0  0  0  0  0  0  0  0  0  0
   -0.7526   74.8424   80.1086 C   0  0  0  0  0  0  0  0  0  0  0  0
    0.4384   75.4338   80.5850 C   0  0  0  0  0  0  0  0  0  0  0  0
    1.4209   74.6178   81.2165 C   0  0  0  0  0  0  0  0  0  0  0  0
    1.2210   73.2021   81.3293 C   0  0  0  0  0  0  0  0  0  0  0  0
    2.1502   72.3203   81.9392 C   0  0  0  0  0  0  0  0  0  0  0  0
    1.9291   70.9399   82.0295 C   0  0  0  0  0  0  0  0  0  0  0  0
    2.6426   75.2358   81.7769 C   0  0  0  0  0  0  0  0  0  0  0  0
    2.6536   75.7413   83.0863 C   0  0  0  0  0  0  0  0  0  0  0  0
    3.8050   76.3282   83.6097 C   0  0  0  0  0  0  0  0  0  0  0  0
    4.9710   76.3976   82.8174 C   0  0  0  0  0  0  0  0  0  0  0  0
    4.9696   75.9259   81.4921 C   0  0  0  0  0  0  0  0  0  0  0  0
    3.8049   75.3356   80.9920 C   0  0  0  0  0  0  0  0  0  0  0  0
    3.8841   76.8723   84.9121 N   0  0  0  0  0  0  0  0  0  0  0  0
    3.2343   77.9775   85.4177 C   0  0  0  0  0  0  0  0  0  0  0  0
    3.5998   78.2546   86.8545 C   0  0  0  0  0  0  0  0  0  0  0  0
    2.4162   78.6787   84.8329 O   0  0  0  0  0  0  0  0  0  0  0  0
    4.5014   76.3526   85.5295 H   0  0  0  0  0  0  0  0  0  0  0  0
    6.0560   77.0057   83.4196 O   0  0  0  0  0  0  0  0  0  0  0  0
    7.0521   76.0908   83.8745 C   0  0  0  0  0  0  0  0  0  0  0  0
    6.1168   76.0948   80.7625 O   0  0  0  0  0  0  0  0  0  0  0  0
    6.3017   75.2676   79.6201 C   0  0  0  0  0  0  0  0  0  0  0  0
   -1.8444   75.6494   79.4474 C   0  0  0  0  0  0  0  0  0  0  0  0
   -2.5506   74.8496   78.5073 O   0  0  0  0  0  0  0  0  0  0  0  0
   -2.4033   73.9175   78.7439 H   0  0  0  0  0  0  0  0  0  0  0  0
    0.6372   76.9299   80.4585 C   0  0  0  0  0  0  0  0  0  0  0  0
    0.0226   77.5662   81.5713 O   0  0  0  0  0  0  0  0  0  0  0  0
    0.1581   78.5203   81.4466 H   0  0  0  0  0  0  0  0  0  0  0  0
    0.5755   68.2589   80.4549 C   0  0  0  0  0  0  0  0  0  0  0  0
    0.5927   69.0396   81.6406 O   0  0  0  0  0  0  0  0  0  0  0  0
    2.7996   70.0505   82.6103 O   0  0  0  0  0  0  0  0  0  0  0  0
    4.0051   69.7595   81.9172 C   0  0  0  0  0  0  0  0  0  0  0  0
 32 33  1  0  0  0
 33  1  1  0  0  0
  1  2  1  0  0  0
  2  3  2  0  0  0
  3  4  1  0  0  0
  4  5  2  0  0  0
  5 26  1  0  0  0
 26 27  1  0  0  0
  5  6  1  0  0  0
  6 29  1  0  0  0
 29 30  1  0  0  0
  6  7  2  0  0  0
  7 11  1  0  0  0
 11 12  2  0  0  0
 12 13  1  0  0  0
 13 17  1  0  0  0
 17 18  1  0  0  0
 18 19  1  0  0  0
 18 20  2  0  0  0
 13 14  2  0  0  0
 14 22  1  0  0  0
 22 23  1  0  0  0
 14 15  1  0  0  0
 15 24  1  0  0  0
 24 25  1  0  0  0
 15 16  2  0  0  0
  7  8  1  0  0  0
  8  9  2  0  0  0
  9 10  1  0  0  0
 10 34  1  0  0  0
 34 35  1  0  0  0
 10  1  2  0  0  0
  8  3  1  0  0  0
 16 11  1  0  0  0
 27 28  1  0  0  0
 30 31  1  0  0  0
 17 21  1  0  0  0
M  END
> <minimizedAffinity>
-1.06592

$$$$
