


 42 46  0  0  0  0  0  0  0  0999 V2000
    1.5721   73.1001   81.2564 C   0  0  0  0  0  0  0  0  0  0  0  0
    0.5698   72.1308   81.4036 C   0  0  0  0  0  0  0  0  0  0  0  0
    0.8932   70.7962   81.6645 C   0  0  0  0  0  0  0  0  0  0  0  0
    2.2253   70.3992   81.7852 C   0  0  0  0  0  0  0  0  0  0  0  0
    3.2301   71.3650   81.6440 C   0  0  0  0  0  0  0  0  0  0  0  0
    2.9247   72.7166   81.3869 C   0  0  0  0  0  0  0  0  0  0  0  0
    4.0929   73.6635   81.2664 C   0  0  0  0  0  0  0  0  0  0  0  0
    4.7948   73.6893   80.1643 N   0  0  0  0  0  0  0  0  0  0  0  0
    5.8490   74.6032   80.1782 C   0  0  0  0  0  0  0  0  0  0  0  0
    6.7972   74.9001   79.1855 C   0  0  0  0  0  0  0  0  0  0  0  0
    7.6454   75.8564   79.6107 N   0  0  0  0  0  0  0  0  0  0  0  0
    7.2159   76.1418   80.8656 N   0  0  0  0  0  0  0  0  0  0  0  0
    7.8910   77.1500   81.6463 C   0  0  0  0  0  0  0  0  0  0  0  0
    6.1359   75.4063   81.2396 C   0  0  0  0  0  0  0  0  0  0  0  0
    5.3812   75.3898   82.4368 C   0  0  0  0  0  0  0  0  0  0  0  0
    5.5797   76.0921   83.4211 O   0  0  0  0  0  0  0  0  0  0  0  0
    4.3632   74.4672   82.3700 N   0  0  0  0  0  0  0  0  0  0  0  0
    3.7694   74.4077   83.1867 H   0  0  0  0  0  0  0  0  0  0  0  0
    6.9324   74.3048   77.8286 C   0  0  0  0  0  0  0  0  0  0  0  0
    7.5813   75.2621   76.8404 C   0  0  0  0  0  0  0  0  0  0  0  0
    1.3025   74.4223   81.0047 O   0  0  0  0  0  0  0  0  0  0  0  0
    0.5266   76.4436   81.9959 C   0  0  0  0  0  0  0  0  0  0  0  0
    0.1662   75.0115   81.6417 C   0  0  0  0  0  0  0  0  0  0  0  0
    2.5779   68.9599   82.0771 C   0  0  0  0  0  0  0  0  0  0  0  0
    1.4672   67.9649   81.6899 C   0  0  0  0  0  0  0  0  0  0  0  0
    1.5291   66.6736   82.5236 C   0  0  0  0  0  0  0  0  0  0  0  0
    0.4723   65.6656   82.0704 C   0  0  0  0  0  0  0  0  0  0  0  0
    0.6327   65.3878   80.6356 N   0  0  0  0  0  0  0  0  0  0  0  0
    0.5227   66.5840   79.7822 C   0  0  0  0  0  0  0  0  0  0  0  0
    1.5760   67.6118   80.1973 C   0  0  0  0  0  0  0  0  0  0  0  0
   -0.0471   64.2738   80.1136 C   0  0  0  0  0  0  0  0  0  0  0  0
   -0.1268   64.1143   78.7188 C   0  0  0  0  0  0  0  0  0  0  0  0
   -0.7826   63.0238   78.1338 C   0  0  0  0  0  0  0  0  0  0  0  0
   -1.3857   62.0591   78.9437 C   0  0  0  0  0  0  0  0  0  0  0  0
   -1.2965   62.1858   80.3331 C   0  0  0  0  0  0  0  0  0  0  0  0
   -0.6354   63.2797   80.9071 C   0  0  0  0  0  0  0  0  0  0  0  0
   -2.1021   60.8816   78.3830 C   0  0  0  0  0  0  0  0  0  0  0  0
   -2.9566   60.2819   79.0310 O   0  0  0  0  0  0  0  0  0  0  0  0
   -1.8038   60.5329   77.0820 N   0  0  0  0  0  0  0  0  0  0  0  0
   -2.6652   59.5535   76.5258 O   0  0  0  0  0  0  0  0  0  0  0  0
   -1.4251   61.2049   76.4242 H   0  0  0  0  0  0  0  0  0  0  0  0
   -3.2340   59.3175   77.2927 H   0  0  0  0  0  0  0  0  0  0  0  0
 22 23  1  0  0  0
 23 21  1  0  0  0
 21  1  1  0  0  0
  1  2  1  0  0  0
  2  3  2  0  0  0
  3  4  1  0  0  0
  4 24  1  0  0  0
 24 25  1  0  0  0
 25 26  1  0  0  0
 26 27  1  0  0  0
 27 28  1  0  0  0
 28 31  1  0  0  0
 31 32  1  0  0  0
 32 33  2  0  0  0
 33 34  1  0  0  0
 34 37  1  0  0  0
 37 38  2  0  0  0
 37 39  1  0  0  0
 39 40  1  0  0  0
 34 35  2  0  0  0
 35 36  1  0  0  0
 28 29  1  0  0  0
 29 30  1  0  0  0
  4  5  2  0  0  0
  5  6  1  0  0  0
  6  7  1  0  0  0
  7  8  2  0  0  0
  8  9  1  0  0  0
  9 10  1  0  0  0
 10 19  1  0  0  0
 19 20  1  0  0  0
 10 11  2  0  0  0
 11 12  1  0  0  0
 12 13  1  0  0  0
 12 14  1  0  0  0
 14 15  1  0  0  0
 15 16  2  0  0  0
 15 17  1  0  0  0
  6  1  2  0  0  0
 17  7  1  0  0  0
 30 25  1  0  0  0
 14  9  2  0  0  0
 36 31  2  0  0  0
 39 41  1  0  0  0
 40 42  1  0  0  0
 17 18  1  0  0  0
M  END
> <minimizedAffinity>
-1.82234

$$$$



 42 46  0  0  0  0  0  0  0  0999 V2000
    1.4674   73.2982   81.2952 C   0  0  0  0  0  0  0  0  0  0  0  0
    0.5075   72.2846   81.4260 C   0  0  0  0  0  0  0  0  0  0  0  0
    0.8880   70.9596   81.6567 C   0  0  0  0  0  0  0  0  0  0  0  0
    2.2363   70.6166   81.7629 C   0  0  0  0  0  0  0  0  0  0  0  0
    3.1989   71.6266   81.6381 C   0  0  0  0  0  0  0  0  0  0  0  0
    2.8356   72.9693   81.4114 C   0  0  0  0  0  0  0  0  0  0  0  0
    3.9623   73.9669   81.3062 C   0  0  0  0  0  0  0  0  0  0  0  0
    4.1717   74.8129   82.2801 N   0  0  0  0  0  0  0  0  0  0  0  0
    5.2390   75.6845   82.0618 C   0  0  0  0  0  0  0  0  0  0  0  0
    5.7474   76.7085   82.8777 C   0  0  0  0  0  0  0  0  0  0  0  0
    6.7969   77.3102   82.2850 N   0  0  0  0  0  0  0  0  0  0  0  0
    6.9277   76.6543   81.1046 N   0  0  0  0  0  0  0  0  0  0  0  0
    7.9774   77.0250   80.1868 C   0  0  0  0  0  0  0  0  0  0  0  0
    6.0065   75.6690   80.9373 C   0  0  0  0  0  0  0  0  0  0  0  0
    5.7918   74.7556   79.8777 C   0  0  0  0  0  0  0  0  0  0  0  0
    6.4510   74.6825   78.8473 O   0  0  0  0  0  0  0  0  0  0  0  0
    4.7251   73.9287   80.1428 N   0  0  0  0  0  0  0  0  0  0  0  0
    4.5185   73.2368   79.4344 H   0  0  0  0  0  0  0  0  0  0  0  0
    5.2712   77.1450   84.2181 C   0  0  0  0  0  0  0  0  0  0  0  0
    5.4958   78.6308   84.4546 C   0  0  0  0  0  0  0  0  0  0  0  0
    1.1411   74.6129   81.0732 O   0  0  0  0  0  0  0  0  0  0  0  0
   -0.3080   76.4035   80.4695 C   0  0  0  0  0  0  0  0  0  0  0  0
   -0.2358   74.9409   80.8723 C   0  0  0  0  0  0  0  0  0  0  0  0
    2.6506   69.1875   82.0222 C   0  0  0  0  0  0  0  0  0  0  0  0
    1.5544   68.1593   81.6837 C   0  0  0  0  0  0  0  0  0  0  0  0
    1.6642   66.8897   82.5455 C   0  0  0  0  0  0  0  0  0  0  0  0
    0.6206   65.8482   82.1401 C   0  0  0  0  0  0  0  0  0  0  0  0
    0.7551   65.5401   80.7088 N   0  0  0  0  0  0  0  0  0  0  0  0
    0.5989   66.7130   79.8307 C   0  0  0  0  0  0  0  0  0  0  0  0
    1.6377   67.7734   80.1976 C   0  0  0  0  0  0  0  0  0  0  0  0
    0.0893   64.3992   80.2285 C   0  0  0  0  0  0  0  0  0  0  0  0
   -0.0511   64.2242   78.8404 C   0  0  0  0  0  0  0  0  0  0  0  0
   -0.6968   63.1071   78.2957 C   0  0  0  0  0  0  0  0  0  0  0  0
   -1.2280   62.1304   79.1410 C   0  0  0  0  0  0  0  0  0  0  0  0
   -1.0774   62.2730   80.5234 C   0  0  0  0  0  0  0  0  0  0  0  0
   -0.4270   63.3936   81.0568 C   0  0  0  0  0  0  0  0  0  0  0  0
   -1.9302   60.9246   78.6241 C   0  0  0  0  0  0  0  0  0  0  0  0
   -2.8229   60.3770   79.2668 O   0  0  0  0  0  0  0  0  0  0  0  0
   -1.5722   60.4873   77.3656 N   0  0  0  0  0  0  0  0  0  0  0  0
   -2.4169   59.4806   76.8330 O   0  0  0  0  0  0  0  0  0  0  0  0
   -1.1533   61.1105   76.6846 H   0  0  0  0  0  0  0  0  0  0  0  0
   -3.0258   59.3014   77.5844 H   0  0  0  0  0  0  0  0  0  0  0  0
 22 23  1  0  0  0
 23 21  1  0  0  0
 21  1  1  0  0  0
  1  2  1  0  0  0
  2  3  2  0  0  0
  3  4  1  0  0  0
  4 24  1  0  0  0
 24 25  1  0  0  0
 25 26  1  0  0  0
 26 27  1  0  0  0
 27 28  1  0  0  0
 28 31  1  0  0  0
 31 32  1  0  0  0
 32 33  2  0  0  0
 33 34  1  0  0  0
 34 37  1  0  0  0
 37 38  2  0  0  0
 37 39  1  0  0  0
 39 40  1  0  0  0
 34 35  2  0  0  0
 35 36  1  0  0  0
 28 29  1  0  0  0
 29 30  1  0  0  0
  4  5  2  0  0  0
  5  6  1  0  0  0
  6  7  1  0  0  0
  7  8  2  0  0  0
  8  9  1  0  0  0
  9 10  1  0  0  0
 10 19  1  0  0  0
 19 20  1  0  0  0
 10 11  2  0  0  0
 11 12  1  0  0  0
 12 13  1  0  0  0
 12 14  1  0  0  0
 14 15  1  0  0  0
 15 16  2  0  0  0
 15 17  1  0  0  0
  6  1  2  0  0  0
 17  7  1  0  0  0
 30 25  1  0  0  0
 14  9  2  0  0  0
 36 31  2  0  0  0
 39 41  1  0  0  0
 40 42  1  0  0  0
 17 18  1  0  0  0
M  END
> <minimizedAffinity>
-1.80110

$$$$



 42 46  0  0  0  0  0  0  0  0999 V2000
    2.1313   74.3279   80.8675 C   0  0  0  0  0  0  0  0  0  0  0  0
    0.9287   73.7218   81.2581 C   0  0  0  0  0  0  0  0  0  0  0  0
    0.9179   72.4411   81.8178 C   0  0  0  0  0  0  0  0  0  0  0  0
    2.1082   71.7365   82.0011 C   0  0  0  0  0  0  0  0  0  0  0  0
    3.3127   72.3399   81.6172 C   0  0  0  0  0  0  0  0  0  0  0  0
    3.3455   73.6327   81.0567 C   0  0  0  0  0  0  0  0  0  0  0  0
    4.7041   74.1789   80.6940 C   0  0  0  0  0  0  0  0  0  0  0  0
    5.3808   74.8690   81.5738 N   0  0  0  0  0  0  0  0  0  0  0  0
    6.6191   75.3213   81.1169 C   0  0  0  0  0  0  0  0  0  0  0  0
    7.6008   76.0790   81.7764 C   0  0  0  0  0  0  0  0  0  0  0  0
    8.6554   76.2961   80.9669 N   0  0  0  0  0  0  0  0  0  0  0  0
    8.3161   75.6722   79.8110 N   0  0  0  0  0  0  0  0  0  0  0  0
    9.2270   75.6828   78.6922 C   0  0  0  0  0  0  0  0  0  0  0  0
    7.0967   75.0744   79.8660 C   0  0  0  0  0  0  0  0  0  0  0  0
    6.3749   74.3257   78.9061 C   0  0  0  0  0  0  0  0  0  0  0  0
    6.7517   74.0596   77.7709 O   0  0  0  0  0  0  0  0  0  0  0  0
    5.1619   73.9136   79.4068 N   0  0  0  0  0  0  0  0  0  0  0  0
    4.5933   73.3587   78.7807 H   0  0  0  0  0  0  0  0  0  0  0  0
    7.5787   76.6126   83.1652 C   0  0  0  0  0  0  0  0  0  0  0  0
    6.7050   77.8511   83.2938 C   0  0  0  0  0  0  0  0  0  0  0  0
    2.1914   75.5846   80.3185 O   0  0  0  0  0  0  0  0  0  0  0  0
    1.2336   77.5020   79.2809 C   0  0  0  0  0  0  0  0  0  0  0  0
    0.9788   76.3354   80.2193 C   0  0  0  0  0  0  0  0  0  0  0  0
    2.1011   70.3565   82.6150 C   0  0  0  0  0  0  0  0  0  0  0  0
    1.7991   69.2355   81.6022 C   0  0  0  0  0  0  0  0  0  0  0  0
    0.3081   69.1785   81.2279 C   0  0  0  0  0  0  0  0  0  0  0  0
    0.0135   68.0099   80.2866 C   0  0  0  0  0  0  0  0  0  0  0  0
    0.4626   66.7516   80.9001 N   0  0  0  0  0  0  0  0  0  0  0  0
    1.8995   66.7282   81.2257 C   0  0  0  0  0  0  0  0  0  0  0  0
    2.2305   67.8770   82.1791 C   0  0  0  0  0  0  0  0  0  0  0  0
    0.0088   65.5534   80.3221 C   0  0  0  0  0  0  0  0  0  0  0  0
    0.0027   65.4303   78.9214 C   0  0  0  0  0  0  0  0  0  0  0  0
   -0.4298   64.2616   78.2820 C   0  0  0  0  0  0  0  0  0  0  0  0
   -0.8767   63.1782   79.0416 C   0  0  0  0  0  0  0  0  0  0  0  0
   -0.8552   63.2710   80.4362 C   0  0  0  0  0  0  0  0  0  0  0  0
   -0.4178   64.4443   81.0649 C   0  0  0  0  0  0  0  0  0  0  0  0
   -1.3541   61.9124   78.4217 C   0  0  0  0  0  0  0  0  0  0  0  0
   -1.3258   60.8475   79.0340 O   0  0  0  0  0  0  0  0  0  0  0  0
   -1.8835   62.0025   77.1510 N   0  0  0  0  0  0  0  0  0  0  0  0
   -2.5213   60.8203   76.6970 O   0  0  0  0  0  0  0  0  0  0  0  0
   -2.2683   62.8701   76.7948 H   0  0  0  0  0  0  0  0  0  0  0  0
   -2.3368   60.1903   77.4294 H   0  0  0  0  0  0  0  0  0  0  0  0
 22 23  1  0  0  0
 23 21  1  0  0  0
 21  1  1  0  0  0
  1  2  1  0  0  0
  2  3  2  0  0  0
  3  4  1  0  0  0
  4 24  1  0  0  0
 24 25  1  0  0  0
 25 26  1  0  0  0
 26 27  1  0  0  0
 27 28  1  0  0  0
 28 31  1  0  0  0
 31 32  1  0  0  0
 32 33  2  0  0  0
 33 34  1  0  0  0
 34 37  1  0  0  0
 37 38  2  0  0  0
 37 39  1  0  0  0
 39 40  1  0  0  0
 34 35  2  0  0  0
 35 36  1  0  0  0
 28 29  1  0  0  0
 29 30  1  0  0  0
  4  5  2  0  0  0
  5  6  1  0  0  0
  6  7  1  0  0  0
  7  8  2  0  0  0
  8  9  1  0  0  0
  9 10  1  0  0  0
 10 19  1  0  0  0
 19 20  1  0  0  0
 10 11  2  0  0  0
 11 12  1  0  0  0
 12 13  1  0  0  0
 12 14  1  0  0  0
 14 15  1  0  0  0
 15 16  2  0  0  0
 15 17  1  0  0  0
  6  1  2  0  0  0
 17  7  1  0  0  0
 30 25  1  0  0  0
 14  9  2  0  0  0
 36 31  2  0  0  0
 39 41  1  0  0  0
 40 42  1  0  0  0
 17 18  1  0  0  0
M  END
> <minimizedAffinity>
-1.62348

$$$$



 42 46  0  0  0  0  0  0  0  0999 V2000
    3.2295   73.6868   80.6125 C   0  0  0  0  0  0  0  0  0  0  0  0
    4.0832   72.5750   80.6457 C   0  0  0  0  0  0  0  0  0  0  0  0
    3.6668   71.3656   81.2092 C   0  0  0  0  0  0  0  0  0  0  0  0
    2.3876   71.2385   81.7516 C   0  0  0  0  0  0  0  0  0  0  0  0
    1.5292   72.3449   81.7161 C   0  0  0  0  0  0  0  0  0  0  0  0
    1.9279   73.5711   81.1471 C   0  0  0  0  0  0  0  0  0  0  0  0
    0.9107   74.6851   81.1585 C   0  0  0  0  0  0  0  0  0  0  0  0
    0.1315   74.8615   80.1241 N   0  0  0  0  0  0  0  0  0  0  0  0
   -0.7623   75.9248   80.2554 C   0  0  0  0  0  0  0  0  0  0  0  0
   -1.7342   76.4006   79.3600 C   0  0  0  0  0  0  0  0  0  0  0  0
   -2.3879   77.4546   79.8858 N   0  0  0  0  0  0  0  0  0  0  0  0
   -1.8126   77.6239   81.1028 N   0  0  0  0  0  0  0  0  0  0  0  0
   -2.2718   78.6761   81.9766 C   0  0  0  0  0  0  0  0  0  0  0  0
   -0.8304   76.7199   81.3585 C   0  0  0  0  0  0  0  0  0  0  0  0
    0.0055   76.5367   82.4858 C   0  0  0  0  0  0  0  0  0  0  0  0
   -0.0127   77.2083   83.5106 O   0  0  0  0  0  0  0  0  0  0  0  0
    0.8694   75.4830   82.2980 N   0  0  0  0  0  0  0  0  0  0  0  0
    1.4911   75.2811   83.0700 H   0  0  0  0  0  0  0  0  0  0  0  0
   -2.0736   75.8871   78.0054 C   0  0  0  0  0  0  0  0  0  0  0  0
   -2.9272   76.8664   77.2141 C   0  0  0  0  0  0  0  0  0  0  0  0
    3.5927   74.8924   80.0656 O   0  0  0  0  0  0  0  0  0  0  0  0
    4.5057   76.2243   81.8157 C   0  0  0  0  0  0  0  0  0  0  0  0
    4.8067   75.4984   80.5161 C   0  0  0  0  0  0  0  0  0  0  0  0
    1.9308   69.9301   82.3521 C   0  0  0  0  0  0  0  0  0  0  0  0
    1.6304   68.8440   81.3015 C   0  0  0  0  0  0  0  0  0  0  0  0
    0.1301   68.7536   80.9737 C   0  0  0  0  0  0  0  0  0  0  0  0
   -0.1591   67.6173   79.9922 C   0  0  0  0  0  0  0  0  0  0  0  0
    0.3503   66.3494   80.5349 N   0  0  0  0  0  0  0  0  0  0  0  0
    1.7974   66.3598   80.8123 C   0  0  0  0  0  0  0  0  0  0  0  0
    2.1240   67.4771   81.8038 C   0  0  0  0  0  0  0  0  0  0  0  0
   -0.0846   65.1627   79.9200 C   0  0  0  0  0  0  0  0  0  0  0  0
   -0.6438   64.1467   80.7152 C   0  0  0  0  0  0  0  0  0  0  0  0
   -1.1033   62.9434   80.1652 C   0  0  0  0  0  0  0  0  0  0  0  0
   -1.0065   62.7262   78.7891 C   0  0  0  0  0  0  0  0  0  0  0  0
   -0.4765   63.7335   77.9776 C   0  0  0  0  0  0  0  0  0  0  0  0
   -0.0225   64.9345   78.5387 C   0  0  0  0  0  0  0  0  0  0  0  0
   -1.4709   61.4673   78.1457 C   0  0  0  0  0  0  0  0  0  0  0  0
   -1.3446   60.3785   78.7009 O   0  0  0  0  0  0  0  0  0  0  0  0
   -2.1020   61.5881   76.9249 N   0  0  0  0  0  0  0  0  0  0  0  0
   -2.7170   60.3969   76.4631 O   0  0  0  0  0  0  0  0  0  0  0  0
   -2.5539   62.4503   76.6423 H   0  0  0  0  0  0  0  0  0  0  0  0
   -2.4462   59.7444   77.1474 H   0  0  0  0  0  0  0  0  0  0  0  0
 22 23  1  0  0  0
 23 21  1  0  0  0
 21  1  1  0  0  0
  1  2  1  0  0  0
  2  3  2  0  0  0
  3  4  1  0  0  0
  4 24  1  0  0  0
 24 25  1  0  0  0
 25 26  1  0  0  0
 26 27  1  0  0  0
 27 28  1  0  0  0
 28 31  1  0  0  0
 31 32  1  0  0  0
 32 33  2  0  0  0
 33 34  1  0  0  0
 34 37  1  0  0  0
 37 38  2  0  0  0
 37 39  1  0  0  0
 39 40  1  0  0  0
 34 35  2  0  0  0
 35 36  1  0  0  0
 28 29  1  0  0  0
 29 30  1  0  0  0
  4  5  2  0  0  0
  5  6  1  0  0  0
  6  7  1  0  0  0
  7  8  2  0  0  0
  8  9  1  0  0  0
  9 10  1  0  0  0
 10 19  1  0  0  0
 19 20  1  0  0  0
 10 11  2  0  0  0
 11 12  1  0  0  0
 12 13  1  0  0  0
 12 14  1  0  0  0
 14 15  1  0  0  0
 15 16  2  0  0  0
 15 17  1  0  0  0
  6  1  2  0  0  0
 17  7  1  0  0  0
 30 25  1  0  0  0
 14  9  2  0  0  0
 36 31  2  0  0  0
 39 41  1  0  0  0
 40 42  1  0  0  0
 17 18  1  0  0  0
M  END
> <minimizedAffinity>
-1.59039

$$$$



 42 46  0  0  0  0  0  0  0  0999 V2000
    0.6596   64.8809   82.1185 C   0  0  0  0  0  0  0  0  0  0  0  0
    1.2600   65.9856   82.7389 C   0  0  0  0  0  0  0  0  0  0  0  0
    1.3715   67.2104   82.0746 C   0  0  0  0  0  0  0  0  0  0  0  0
    0.8850   67.3601   80.7755 C   0  0  0  0  0  0  0  0  0  0  0  0
    0.2797   66.2606   80.1534 C   0  0  0  0  0  0  0  0  0  0  0  0
    0.1521   65.0191   80.8082 C   0  0  0  0  0  0  0  0  0  0  0  0
   -0.5282   63.9146   80.0383 C   0  0  0  0  0  0  0  0  0  0  0  0
   -1.3926   63.1418   80.6414 N   0  0  0  0  0  0  0  0  0  0  0  0
   -1.9490   62.1577   79.8237 C   0  0  0  0  0  0  0  0  0  0  0  0
   -2.8973   61.1664   80.1247 C   0  0  0  0  0  0  0  0  0  0  0  0
   -3.1635   60.4186   79.0363 N   0  0  0  0  0  0  0  0  0  0  0  0
   -2.3747   60.9525   78.0703 N   0  0  0  0  0  0  0  0  0  0  0  0
   -2.3995   60.4051   76.7356 C   0  0  0  0  0  0  0  0  0  0  0  0
   -1.6303   62.0016   78.5093 C   0  0  0  0  0  0  0  0  0  0  0  0
   -0.6986   62.8340   77.8444 C   0  0  0  0  0  0  0  0  0  0  0  0
   -0.3769   62.7536   76.6648 O   0  0  0  0  0  0  0  0  0  0  0  0
   -0.1774   63.7779   78.6985 N   0  0  0  0  0  0  0  0  0  0  0  0
    0.4879   64.4211   78.2899 H   0  0  0  0  0  0  0  0  0  0  0  0
   -3.5724   60.8965   81.4229 C   0  0  0  0  0  0  0  0  0  0  0  0
   -2.6746   60.1470   82.3955 C   0  0  0  0  0  0  0  0  0  0  0  0
    0.5236   63.6608   82.7328 O   0  0  0  0  0  0  0  0  0  0  0  0
   -0.4513   62.3136   84.4372 C   0  0  0  0  0  0  0  0  0  0  0  0
    0.2221   63.6398   84.1302 C   0  0  0  0  0  0  0  0  0  0  0  0
    0.9947   68.6849   80.0586 C   0  0  0  0  0  0  0  0  0  0  0  0
    1.5774   69.8106   80.9342 C   0  0  0  0  0  0  0  0  0  0  0  0
    0.6469   71.0337   81.0013 C   0  0  0  0  0  0  0  0  0  0  0  0
    1.2772   72.1709   81.8061 C   0  0  0  0  0  0  0  0  0  0  0  0
    2.5850   72.5207   81.2327 N   0  0  0  0  0  0  0  0  0  0  0  0
    3.5390   71.3983   81.1986 C   0  0  0  0  0  0  0  0  0  0  0  0
    2.9479   70.2441   80.3882 C   0  0  0  0  0  0  0  0  0  0  0  0
    3.1702   73.7291   81.6488 C   0  0  0  0  0  0  0  0  0  0  0  0
    4.3951   74.1251   81.0830 C   0  0  0  0  0  0  0  0  0  0  0  0
    5.0279   75.3202   81.4476 C   0  0  0  0  0  0  0  0  0  0  0  0
    4.4427   76.1532   82.4037 C   0  0  0  0  0  0  0  0  0  0  0  0
    3.2128   75.7900   82.9602 C   0  0  0  0  0  0  0  0  0  0  0  0
    2.5876   74.5932   82.5856 C   0  0  0  0  0  0  0  0  0  0  0  0
    5.0681   77.4318   82.8375 C   0  0  0  0  0  0  0  0  0  0  0  0
    4.4568   78.4962   82.7827 O   0  0  0  0  0  0  0  0  0  0  0  0
    6.3433   77.3558   83.3583 N   0  0  0  0  0  0  0  0  0  0  0  0
    6.8043   78.5560   83.9564 O   0  0  0  0  0  0  0  0  0  0  0  0
    6.7018   76.4997   83.7658 H   0  0  0  0  0  0  0  0  0  0  0  0
    6.0710   79.1812   83.7595 H   0  0  0  0  0  0  0  0  0  0  0  0
 22 23  1  0  0  0
 23 21  1  0  0  0
 21  1  1  0  0  0
  1  2  1  0  0  0
  2  3  2  0  0  0
  3  4  1  0  0  0
  4 24  1  0  0  0
 24 25  1  0  0  0
 25 26  1  0  0  0
 26 27  1  0  0  0
 27 28  1  0  0  0
 28 31  1  0  0  0
 31 32  1  0  0  0
 32 33  2  0  0  0
 33 34  1  0  0  0
 34 37  1  0  0  0
 37 38  2  0  0  0
 37 39  1  0  0  0
 39 40  1  0  0  0
 34 35  2  0  0  0
 35 36  1  0  0  0
 28 29  1  0  0  0
 29 30  1  0  0  0
  4  5  2  0  0  0
  5  6  1  0  0  0
  6  7  1  0  0  0
  7  8  2  0  0  0
  8  9  1  0  0  0
  9 10  1  0  0  0
 10 19  1  0  0  0
 19 20  1  0  0  0
 10 11  2  0  0  0
 11 12  1  0  0  0
 12 13  1  0  0  0
 12 14  1  0  0  0
 14 15  1  0  0  0
 15 16  2  0  0  0
 15 17  1  0  0  0
  6  1  2  0  0  0
 17  7  1  0  0  0
 30 25  1  0  0  0
 14  9  2  0  0  0
 36 31  2  0  0  0
 39 41  1  0  0  0
 40 42  1  0  0  0
 17 18  1  0  0  0
M  END
> <minimizedAffinity>
-1.59015

$$$$



 42 46  0  0  0  0  0  0  0  0999 V2000
    1.0866   74.7172   81.9463 C   0  0  0  0  0  0  0  0  0  0  0  0
    2.1026   74.2976   82.8167 C   0  0  0  0  0  0  0  0  0  0  0  0
    2.6887   73.0358   82.6822 C   0  0  0  0  0  0  0  0  0  0  0  0
    2.2739   72.1643   81.6747 C   0  0  0  0  0  0  0  0  0  0  0  0
    1.2627   72.5809   80.7995 C   0  0  0  0  0  0  0  0  0  0  0  0
    0.6634   73.8514   80.9144 C   0  0  0  0  0  0  0  0  0  0  0  0
   -0.4065   74.1888   79.9059 C   0  0  0  0  0  0  0  0  0  0  0  0
   -0.2501   75.2176   79.1151 N   0  0  0  0  0  0  0  0  0  0  0  0
   -1.3091   75.4264   78.2311 C   0  0  0  0  0  0  0  0  0  0  0  0
   -1.4830   76.4180   77.2517 C   0  0  0  0  0  0  0  0  0  0  0  0
   -2.6572   76.2526   76.6126 N   0  0  0  0  0  0  0  0  0  0  0  0
   -3.2020   75.1600   77.2044 N   0  0  0  0  0  0  0  0  0  0  0  0
   -4.4842   74.6663   76.7642 C   0  0  0  0  0  0  0  0  0  0  0  0
   -2.4172   74.6367   78.1829 C   0  0  0  0  0  0  0  0  0  0  0  0
   -2.5964   73.5183   79.0314 C   0  0  0  0  0  0  0  0  0  0  0  0
   -3.5617   72.7635   79.0313 O   0  0  0  0  0  0  0  0  0  0  0  0
   -1.5286   73.3658   79.8849 N   0  0  0  0  0  0  0  0  0  0  0  0
   -1.5784   72.5758   80.5148 H   0  0  0  0  0  0  0  0  0  0  0  0
   -0.5654   77.5325   76.8913 C   0  0  0  0  0  0  0  0  0  0  0  0
   -0.6246   78.6756   77.8931 C   0  0  0  0  0  0  0  0  0  0  0  0
    0.4856   75.9480   82.0366 O   0  0  0  0  0  0  0  0  0  0  0  0
    1.4593   78.0867   82.4217 C   0  0  0  0  0  0  0  0  0  0  0  0
    0.9113   76.8311   83.0773 C   0  0  0  0  0  0  0  0  0  0  0  0
    2.9120   70.8041   81.5203 C   0  0  0  0  0  0  0  0  0  0  0  0
    1.9020   69.6420   81.5760 C   0  0  0  0  0  0  0  0  0  0  0  0
    2.4315   68.4522   82.3947 C   0  0  0  0  0  0  0  0  0  0  0  0
    1.4519   67.2783   82.3706 C   0  0  0  0  0  0  0  0  0  0  0  0
    1.1720   66.8923   80.9798 N   0  0  0  0  0  0  0  0  0  0  0  0
    0.6057   67.9801   80.1631 C   0  0  0  0  0  0  0  0  0  0  0  0
    1.5665   69.1697   80.1517 C   0  0  0  0  0  0  0  0  0  0  0  0
    0.5374   65.6562   80.7680 C   0  0  0  0  0  0  0  0  0  0  0  0
    0.1958   65.2798   79.4569 C   0  0  0  0  0  0  0  0  0  0  0  0
   -0.4312   64.0593   79.1758 C   0  0  0  0  0  0  0  0  0  0  0  0
   -0.7386   63.1798   80.2162 C   0  0  0  0  0  0  0  0  0  0  0  0
   -0.3850   63.5239   81.5241 C   0  0  0  0  0  0  0  0  0  0  0  0
    0.2444   64.7466   81.7930 C   0  0  0  0  0  0  0  0  0  0  0  0
   -1.4092   61.8720   79.9830 C   0  0  0  0  0  0  0  0  0  0  0  0
   -1.7650   61.1577   80.9173 O   0  0  0  0  0  0  0  0  0  0  0  0
   -1.6649   61.5285   78.6716 N   0  0  0  0  0  0  0  0  0  0  0  0
   -2.4956   60.3900   78.5156 O   0  0  0  0  0  0  0  0  0  0  0  0
   -1.7439   62.2293   77.9434 H   0  0  0  0  0  0  0  0  0  0  0  0
   -2.6119   60.0888   79.4446 H   0  0  0  0  0  0  0  0  0  0  0  0
 22 23  1  0  0  0
 23 21  1  0  0  0
 21  1  1  0  0  0
  1  2  1  0  0  0
  2  3  2  0  0  0
  3  4  1  0  0  0
  4 24  1  0  0  0
 24 25  1  0  0  0
 25 26  1  0  0  0
 26 27  1  0  0  0
 27 28  1  0  0  0
 28 31  1  0  0  0
 31 32  1  0  0  0
 32 33  2  0  0  0
 33 34  1  0  0  0
 34 37  1  0  0  0
 37 38  2  0  0  0
 37 39  1  0  0  0
 39 40  1  0  0  0
 34 35  2  0  0  0
 35 36  1  0  0  0
 28 29  1  0  0  0
 29 30  1  0  0  0
  4  5  2  0  0  0
  5  6  1  0  0  0
  6  7  1  0  0  0
  7  8  2  0  0  0
  8  9  1  0  0  0
  9 10  1  0  0  0
 10 19  1  0  0  0
 19 20  1  0  0  0
 10 11  2  0  0  0
 11 12  1  0  0  0
 12 13  1  0  0  0
 12 14  1  0  0  0
 14 15  1  0  0  0
 15 16  2  0  0  0
 15 17  1  0  0  0
  6  1  2  0  0  0
 17  7  1  0  0  0
 30 25  1  0  0  0
 14  9  2  0  0  0
 36 31  2  0  0  0
 39 41  1  0  0  0
 40 42  1  0  0  0
 17 18  1  0  0  0
M  END
> <minimizedAffinity>
-1.56656

$$$$



 42 46  0  0  0  0  0  0  0  0999 V2000
    0.6213   64.4446   83.0514 C   0  0  0  0  0  0  0  0  0  0  0  0
    1.2981   65.5813   83.5160 C   0  0  0  0  0  0  0  0  0  0  0  0
    1.4865   66.6932   82.6903 C   0  0  0  0  0  0  0  0  0  0  0  0
    1.0024   66.6958   81.3818 C   0  0  0  0  0  0  0  0  0  0  0  0
    0.3210   65.5645   80.9147 C   0  0  0  0  0  0  0  0  0  0  0  0
    0.1154   64.4358   81.7333 C   0  0  0  0  0  0  0  0  0  0  0  0
   -0.6421   63.2841   81.1204 C   0  0  0  0  0  0  0  0  0  0  0  0
   -0.5602   63.0661   79.8343 N   0  0  0  0  0  0  0  0  0  0  0  0
   -1.3083   61.9755   79.3898 C   0  0  0  0  0  0  0  0  0  0  0  0
   -1.4563   61.4523   78.0948 C   0  0  0  0  0  0  0  0  0  0  0  0
   -2.2738   60.3817   78.1064 N   0  0  0  0  0  0  0  0  0  0  0  0
   -2.6273   60.2527   79.4099 N   0  0  0  0  0  0  0  0  0  0  0  0
   -3.5071   59.1836   79.8154 C   0  0  0  0  0  0  0  0  0  0  0  0
   -2.0639   61.1953   80.2108 C   0  0  0  0  0  0  0  0  0  0  0  0
   -2.1578   61.4193   81.6051 C   0  0  0  0  0  0  0  0  0  0  0  0
   -2.8092   60.7499   82.3982 O   0  0  0  0  0  0  0  0  0  0  0  0
   -1.4089   62.5087   81.9850 N   0  0  0  0  0  0  0  0  0  0  0  0
   -1.4152   62.7235   82.9735 H   0  0  0  0  0  0  0  0  0  0  0  0
   -0.8431   61.9338   76.8275 C   0  0  0  0  0  0  0  0  0  0  0  0
   -1.3766   63.2955   76.4090 C   0  0  0  0  0  0  0  0  0  0  0  0
    0.4083   63.3321   83.8269 O   0  0  0  0  0  0  0  0  0  0  0  0
   -1.1445   62.7530   85.5368 C   0  0  0  0  0  0  0  0  0  0  0  0
    0.1248   63.5225   85.2152 C   0  0  0  0  0  0  0  0  0  0  0  0
    1.1954   67.8995   80.4902 C   0  0  0  0  0  0  0  0  0  0  0  0
    1.5217   69.1910   81.2643 C   0  0  0  0  0  0  0  0  0  0  0  0
    0.5563   70.3364   80.9143 C   0  0  0  0  0  0  0  0  0  0  0  0
    0.9447   71.6314   81.6287 C   0  0  0  0  0  0  0  0  0  0  0  0
    2.3351   71.9814   81.3033 N   0  0  0  0  0  0  0  0  0  0  0  0
    3.3121   70.9420   81.6727 C   0  0  0  0  0  0  0  0  0  0  0  0
    2.9638   69.6324   80.9644 C   0  0  0  0  0  0  0  0  0  0  0  0
    2.7655   73.2809   81.6223 C   0  0  0  0  0  0  0  0  0  0  0  0
    2.4813   73.8006   82.8975 C   0  0  0  0  0  0  0  0  0  0  0  0
    2.8876   75.0847   83.2819 C   0  0  0  0  0  0  0  0  0  0  0  0
    3.5920   75.8891   82.3835 C   0  0  0  0  0  0  0  0  0  0  0  0
    3.9064   75.3819   81.1193 C   0  0  0  0  0  0  0  0  0  0  0  0
    3.4970   74.0947   80.7468 C   0  0  0  0  0  0  0  0  0  0  0  0
    4.0455   77.2634   82.7298 C   0  0  0  0  0  0  0  0  0  0  0  0
    3.2811   78.2239   82.6766 O   0  0  0  0  0  0  0  0  0  0  0  0
    5.3463   77.3975   83.1692 N   0  0  0  0  0  0  0  0  0  0  0  0
    5.6587   78.6777   83.6928 O   0  0  0  0  0  0  0  0  0  0  0  0
    5.8511   76.6219   83.5830 H   0  0  0  0  0  0  0  0  0  0  0  0
    4.8306   79.1799   83.5215 H   0  0  0  0  0  0  0  0  0  0  0  0
 22 23  1  0  0  0
 23 21  1  0  0  0
 21  1  1  0  0  0
  1  2  1  0  0  0
  2  3  2  0  0  0
  3  4  1  0  0  0
  4 24  1  0  0  0
 24 25  1  0  0  0
 25 26  1  0  0  0
 26 27  1  0  0  0
 27 28  1  0  0  0
 28 31  1  0  0  0
 31 32  1  0  0  0
 32 33  2  0  0  0
 33 34  1  0  0  0
 34 37  1  0  0  0
 37 38  2  0  0  0
 37 39  1  0  0  0
 39 40  1  0  0  0
 34 35  2  0  0  0
 35 36  1  0  0  0
 28 29  1  0  0  0
 29 30  1  0  0  0
  4  5  2  0  0  0
  5  6  1  0  0  0
  6  7  1  0  0  0
  7  8  2  0  0  0
  8  9  1  0  0  0
  9 10  1  0  0  0
 10 19  1  0  0  0
 19 20  1  0  0  0
 10 11  2  0  0  0
 11 12  1  0  0  0
 12 13  1  0  0  0
 12 14  1  0  0  0
 14 15  1  0  0  0
 15 16  2  0  0  0
 15 17  1  0  0  0
  6  1  2  0  0  0
 17  7  1  0  0  0
 30 25  1  0  0  0
 14  9  2  0  0  0
 36 31  2  0  0  0
 39 41  1  0  0  0
 40 42  1  0  0  0
 17 18  1  0  0  0
M  END
> <minimizedAffinity>
-1.48771

$$$$



 42 46  0  0  0  0  0  0  0  0999 V2000
    1.7473   74.9088   82.2731 C   0  0  0  0  0  0  0  0  0  0  0  0
    2.5765   74.1741   83.1326 C   0  0  0  0  0  0  0  0  0  0  0  0
    3.0398   72.9052   82.7735 C   0  0  0  0  0  0  0  0  0  0  0  0
    2.6863   72.3413   81.5473 C   0  0  0  0  0  0  0  0  0  0  0  0
    1.8623   73.0736   80.6830 C   0  0  0  0  0  0  0  0  0  0  0  0
    1.3896   74.3569   81.0238 C   0  0  0  0  0  0  0  0  0  0  0  0
    0.5189   75.0499   80.0054 C   0  0  0  0  0  0  0  0  0  0  0  0
   -0.6804   74.5922   79.7596 N   0  0  0  0  0  0  0  0  0  0  0  0
   -1.3837   75.3169   78.7969 C   0  0  0  0  0  0  0  0  0  0  0  0
   -2.6781   75.1201   78.2886 C   0  0  0  0  0  0  0  0  0  0  0  0
   -2.9732   76.0570   77.3668 N   0  0  0  0  0  0  0  0  0  0  0  0
   -1.8564   76.8254   77.3106 N   0  0  0  0  0  0  0  0  0  0  0  0
   -1.8062   77.9594   76.4199 C   0  0  0  0  0  0  0  0  0  0  0  0
   -0.8795   76.4088   78.1587 C   0  0  0  0  0  0  0  0  0  0  0  0
    0.4161   76.9159   78.4186 C   0  0  0  0  0  0  0  0  0  0  0  0
    0.9234   77.8972   77.8885 O   0  0  0  0  0  0  0  0  0  0  0  0
    1.0647   76.1597   79.3670 N   0  0  0  0  0  0  0  0  0  0  0  0
    1.9944   76.4703   79.6166 H   0  0  0  0  0  0  0  0  0  0  0  0
   -3.6618   74.0633   78.6484 C   0  0  0  0  0  0  0  0  0  0  0  0
   -4.9102   74.1175   77.7809 C   0  0  0  0  0  0  0  0  0  0  0  0
    1.2723   76.1595   82.5806 O   0  0  0  0  0  0  0  0  0  0  0  0
    0.8882   77.9030   84.1564 C   0  0  0  0  0  0  0  0  0  0  0  0
    1.8809   76.8635   83.6660 C   0  0  0  0  0  0  0  0  0  0  0  0
    3.1934   70.9747   81.1518 C   0  0  0  0  0  0  0  0  0  0  0  0
    2.1534   69.8545   81.3439 C   0  0  0  0  0  0  0  0  0  0  0  0
    2.7130   68.6776   82.1613 C   0  0  0  0  0  0  0  0  0  0  0  0
    1.6957   67.5413   82.2719 C   0  0  0  0  0  0  0  0  0  0  0  0
    1.2798   67.1134   80.9282 N   0  0  0  0  0  0  0  0  0  0  0  0
    0.6802   68.1899   80.1202 C   0  0  0  0  0  0  0  0  0  0  0  0
    1.6761   69.3411   79.9753 C   0  0  0  0  0  0  0  0  0  0  0  0
    0.5870   65.8949   80.8241 C   0  0  0  0  0  0  0  0  0  0  0  0
    0.3043   65.1680   81.9941 C   0  0  0  0  0  0  0  0  0  0  0  0
   -0.3884   63.9511   81.9614 C   0  0  0  0  0  0  0  0  0  0  0  0
   -0.8140   63.4260   80.7393 C   0  0  0  0  0  0  0  0  0  0  0  0
   -0.5647   64.1452   79.5668 C   0  0  0  0  0  0  0  0  0  0  0  0
    0.1268   65.3629   79.6121 C   0  0  0  0  0  0  0  0  0  0  0  0
   -1.5484   62.1358   80.6380 C   0  0  0  0  0  0  0  0  0  0  0  0
   -2.0072   61.5787   81.6324 O   0  0  0  0  0  0  0  0  0  0  0  0
   -1.7403   61.6265   79.3703 N   0  0  0  0  0  0  0  0  0  0  0  0
   -2.6285   60.5229   79.3107 O   0  0  0  0  0  0  0  0  0  0  0  0
   -1.7286   62.2219   78.5500 H   0  0  0  0  0  0  0  0  0  0  0  0
   -2.8228   60.3609   80.2611 H   0  0  0  0  0  0  0  0  0  0  0  0
 22 23  1  0  0  0
 23 21  1  0  0  0
 21  1  1  0  0  0
  1  2  1  0  0  0
  2  3  2  0  0  0
  3  4  1  0  0  0
  4 24  1  0  0  0
 24 25  1  0  0  0
 25 26  1  0  0  0
 26 27  1  0  0  0
 27 28  1  0  0  0
 28 31  1  0  0  0
 31 32  1  0  0  0
 32 33  2  0  0  0
 33 34  1  0  0  0
 34 37  1  0  0  0
 37 38  2  0  0  0
 37 39  1  0  0  0
 39 40  1  0  0  0
 34 35  2  0  0  0
 35 36  1  0  0  0
 28 29  1  0  0  0
 29 30  1  0  0  0
  4  5  2  0  0  0
  5  6  1  0  0  0
  6  7  1  0  0  0
  7  8  2  0  0  0
  8  9  1  0  0  0
  9 10  1  0  0  0
 10 19  1  0  0  0
 19 20  1  0  0  0
 10 11  2  0  0  0
 11 12  1  0  0  0
 12 13  1  0  0  0
 12 14  1  0  0  0
 14 15  1  0  0  0
 15 16  2  0  0  0
 15 17  1  0  0  0
  6  1  2  0  0  0
 17  7  1  0  0  0
 30 25  1  0  0  0
 14  9  2  0  0  0
 36 31  2  0  0  0
 39 41  1  0  0  0
 40 42  1  0  0  0
 17 18  1  0  0  0
M  END
> <minimizedAffinity>
-1.47576

$$$$



 42 46  0  0  0  0  0  0  0  0999 V2000
    3.9701   71.9987   80.8854 C   0  0  0  0  0  0  0  0  0  0  0  0
    4.2934   70.6528   80.6624 C   0  0  0  0  0  0  0  0  0  0  0  0
    3.4738   69.6275   81.1428 C   0  0  0  0  0  0  0  0  0  0  0  0
    2.3119   69.9231   81.8564 C   0  0  0  0  0  0  0  0  0  0  0  0
    1.9819   71.2665   82.0772 C   0  0  0  0  0  0  0  0  0  0  0  0
    2.7917   72.3148   81.5959 C   0  0  0  0  0  0  0  0  0  0  0  0
    2.3250   73.7193   81.8880 C   0  0  0  0  0  0  0  0  0  0  0  0
    1.2277   74.1654   81.3357 N   0  0  0  0  0  0  0  0  0  0  0  0
    0.9055   75.4782   81.6815 C   0  0  0  0  0  0  0  0  0  0  0  0
   -0.1832   76.2726   81.2863 C   0  0  0  0  0  0  0  0  0  0  0  0
   -0.1149   77.4898   81.8594 N   0  0  0  0  0  0  0  0  0  0  0  0
    1.0184   77.4391   82.6035 N   0  0  0  0  0  0  0  0  0  0  0  0
    1.4195   78.5842   83.3843 C   0  0  0  0  0  0  0  0  0  0  0  0
    1.6578   76.2426   82.5202 C   0  0  0  0  0  0  0  0  0  0  0  0
    2.8457   75.7696   83.1270 C   0  0  0  0  0  0  0  0  0  0  0  0
    3.5600   76.4009   83.8969 O   0  0  0  0  0  0  0  0  0  0  0  0
    3.1181   74.4766   82.7449 N   0  0  0  0  0  0  0  0  0  0  0  0
    3.9476   74.0637   83.1508 H   0  0  0  0  0  0  0  0  0  0  0  0
   -1.3036   75.9177   80.3737 C   0  0  0  0  0  0  0  0  0  0  0  0
   -1.0826   76.4347   78.9603 C   0  0  0  0  0  0  0  0  0  0  0  0
    4.7413   73.0386   80.4289 O   0  0  0  0  0  0  0  0  0  0  0  0
    5.8125   74.0257   78.5452 C   0  0  0  0  0  0  0  0  0  0  0  0
    5.6878   72.7708   79.3915 C   0  0  0  0  0  0  0  0  0  0  0  0
    1.4187   68.8179   82.3681 C   0  0  0  0  0  0  0  0  0  0  0  0
    1.3704   67.5884   81.4410 C   0  0  0  0  0  0  0  0  0  0  0  0
    0.3753   67.7744   80.2826 C   0  0  0  0  0  0  0  0  0  0  0  0
    0.2802   66.5146   79.4211 C   0  0  0  0  0  0  0  0  0  0  0  0
   -0.0813   65.3636   80.2613 N   0  0  0  0  0  0  0  0  0  0  0  0
    0.8720   65.1020   81.3539 C   0  0  0  0  0  0  0  0  0  0  0  0
    0.9833   66.3378   82.2475 C   0  0  0  0  0  0  0  0  0  0  0  0
   -0.5040   64.1937   79.6066 C   0  0  0  0  0  0  0  0  0  0  0  0
   -0.6053   64.1946   78.2041 C   0  0  0  0  0  0  0  0  0  0  0  0
   -1.0130   63.0610   77.4898 C   0  0  0  0  0  0  0  0  0  0  0  0
   -1.3377   61.8877   78.1740 C   0  0  0  0  0  0  0  0  0  0  0  0
   -1.2198   61.8581   79.5667 C   0  0  0  0  0  0  0  0  0  0  0  0
   -0.8082   62.9977   80.2705 C   0  0  0  0  0  0  0  0  0  0  0  0
   -1.7829   60.6529   77.4731 C   0  0  0  0  0  0  0  0  0  0  0  0
   -2.9312   60.5320   77.0529 O   0  0  0  0  0  0  0  0  0  0  0  0
   -0.8303   59.6767   77.2660 N   0  0  0  0  0  0  0  0  0  0  0  0
   -1.2442   58.6271   76.4072 O   0  0  0  0  0  0  0  0  0  0  0  0
    0.1594   59.8951   77.2424 H   0  0  0  0  0  0  0  0  0  0  0  0
   -2.1861   58.8551   76.2395 H   0  0  0  0  0  0  0  0  0  0  0  0
 22 23  1  0  0  0
 23 21  1  0  0  0
 21  1  1  0  0  0
  1  2  1  0  0  0
  2  3  2  0  0  0
  3  4  1  0  0  0
  4 24  1  0  0  0
 24 25  1  0  0  0
 25 26  1  0  0  0
 26 27  1  0  0  0
 27 28  1  0  0  0
 28 31  1  0  0  0
 31 32  1  0  0  0
 32 33  2  0  0  0
 33 34  1  0  0  0
 34 37  1  0  0  0
 37 38  2  0  0  0
 37 39  1  0  0  0
 39 40  1  0  0  0
 34 35  2  0  0  0
 35 36  1  0  0  0
 28 29  1  0  0  0
 29 30  1  0  0  0
  4  5  2  0  0  0
  5  6  1  0  0  0
  6  7  1  0  0  0
  7  8  2  0  0  0
  8  9  1  0  0  0
  9 10  1  0  0  0
 10 19  1  0  0  0
 19 20  1  0  0  0
 10 11  2  0  0  0
 11 12  1  0  0  0
 12 13  1  0  0  0
 12 14  1  0  0  0
 14 15  1  0  0  0
 15 16  2  0  0  0
 15 17  1  0  0  0
  6  1  2  0  0  0
 17  7  1  0  0  0
 30 25  1  0  0  0
 14  9  2  0  0  0
 36 31  2  0  0  0
 39 41  1  0  0  0
 40 42  1  0  0  0
 17 18  1  0  0  0
M  END
> <minimizedAffinity>
-1.40931

$$$$
