


 35 38  0  0  0  0  0  0  0  0999 V2000
    0.7112   65.5676   83.9321 C   0  0  0  0  0  0  0  0  0  0  0  0
    0.6062   65.5637   82.5888 N   0  0  0  0  0  0  0  0  0  0  0  0
    0.0194   64.5175   81.9276 N   0  0  0  0  0  0  0  0  0  0  0  0
   -0.4618   63.4512   82.6004 C   0  0  0  0  0  0  0  0  0  0  0  0
   -0.3382   63.3790   84.0055 C   0  0  0  0  0  0  0  0  0  0  0  0
   -0.7654   62.2587   84.7606 C   0  0  0  0  0  0  0  0  0  0  0  0
   -0.6226   62.2055   86.1482 C   0  0  0  0  0  0  0  0  0  0  0  0
   -0.0343   63.2702   86.8215 C   0  0  0  0  0  0  0  0  0  0  0  0
    0.4073   64.3827   86.0975 C   0  0  0  0  0  0  0  0  0  0  0  0
    0.2641   64.4631   84.6878 C   0  0  0  0  0  0  0  0  0  0  0  0
   -1.1159   62.4092   81.8847 N   0  0  0  0  0  0  0  0  0  0  0  0
   -2.5575   62.7181   81.7738 C   0  0  0  0  0  0  0  0  0  0  0  0
   -3.1928   62.0145   80.5712 C   0  0  0  0  0  0  0  0  0  0  0  0
   -2.5282   60.6647   80.2860 C   0  0  0  0  0  0  0  0  0  0  0  0
   -1.0172   60.8310   80.0410 C   0  0  0  0  0  0  0  0  0  0  0  0
   -0.4706   62.1498   80.5924 C   0  0  0  0  0  0  0  0  0  0  0  0
   -3.1927   59.9666   79.1112 C   0  0  0  0  0  0  0  0  0  0  0  0
   -4.5570   59.9835   79.1277 N   0  0  0  0  0  0  0  0  0  0  0  0
   -2.5875   59.4261   78.1935 O   0  0  0  0  0  0  0  0  0  0  0  0
   -5.0840   60.5853   79.7451 H   0  0  0  0  0  0  0  0  0  0  0  0
   -5.0293   59.5947   78.3212 H   0  0  0  0  0  0  0  0  0  0  0  0
    1.2965   66.6741   84.5887 N   0  0  0  0  0  0  0  0  0  0  0  0
    0.5583   67.2695   84.9538 H   0  0  0  0  0  0  0  0  0  0  0  0
    2.2244   67.4390   83.7634 C   0  0  0  0  0  0  0  0  0  0  0  0
    6.2424   66.7854   85.2701 C   0  0  0  0  0  0  0  0  0  0  0  0
    5.9744   67.8450   84.3971 C   0  0  0  0  0  0  0  0  0  0  0  0
    4.6792   68.0563   83.9078 C   0  0  0  0  0  0  0  0  0  0  0  0
    3.6271   67.2101   84.2786 C   0  0  0  0  0  0  0  0  0  0  0  0
    3.8929   66.1509   85.1571 C   0  0  0  0  0  0  0  0  0  0  0  0
    5.1861   65.9407   85.6463 C   0  0  0  0  0  0  0  0  0  0  0  0
    5.4341   64.6119   86.7262 Cl  0  0  0  0  0  0  0  0  0  0  0  0
    8.4462   65.9229   84.9371 C   0  0  0  0  0  0  0  0  0  0  0  0
    7.4764   66.5057   85.7966 O   0  0  0  0  0  0  0  0  0  0  0  0
    0.1247   63.2247   88.2453 C   0  0  0  0  0  0  0  0  0  0  0  0
    0.2605   63.1931   89.3973 N   0  0  0  0  0  0  0  0  0  0  0  0
 32 33  1  0  0  0
 33 25  1  0  0  0
 25 26  1  0  0  0
 26 27  2  0  0  0
 27 28  1  0  0  0
 28 24  1  0  0  0
 24 22  1  0  0  0
 22  1  1  0  0  0
  1  2  1  0  0  0
  2  3  2  0  0  0
  3  4  1  0  0  0
  4 11  1  0  0  0
 11 12  1  0  0  0
 12 13  1  0  0  0
 13 14  1  0  0  0
 14 17  1  0  0  0
 17 18  1  0  0  0
 17 19  2  0  0  0
 14 15  1  0  0  0
 15 16  1  0  0  0
  4  5  2  0  0  0
  5  6  1  0  0  0
  6  7  2  0  0  0
  7  8  1  0  0  0
  8 34  1  0  0  0
 34 35  3  0  0  0
  8  9  2  0  0  0
  9 10  1  0  0  0
 28 29  2  0  0  0
 29 30  1  0  0  0
 30 31  1  0  0  0
 30 25  2  0  0  0
 10  1  2  0  0  0
 16 11  1  0  0  0
 10  5  1  0  0  0
 22 23  1  0  0  0
 18 20  1  0  0  0
 18 21  1  0  0  0
M  END
> <minimizedAffinity>
-10.89040

$$$$



 35 38  0  0  0  0  0  0  0  0999 V2000
    0.9030   65.6219   83.1719 C   0  0  0  0  0  0  0  0  0  0  0  0
    0.8247   65.5152   81.8310 N   0  0  0  0  0  0  0  0  0  0  0  0
    0.1964   64.4507   81.2410 N   0  0  0  0  0  0  0  0  0  0  0  0
   -0.3540   63.4682   81.9845 C   0  0  0  0  0  0  0  0  0  0  0  0
   -0.2623   63.5030   83.3935 C   0  0  0  0  0  0  0  0  0  0  0  0
   -0.7633   62.4706   84.2246 C   0  0  0  0  0  0  0  0  0  0  0  0
   -0.6511   62.5220   85.6151 C   0  0  0  0  0  0  0  0  0  0  0  0
   -0.0206   63.6058   86.2157 C   0  0  0  0  0  0  0  0  0  0  0  0
    0.4938   64.6322   85.4166 C   0  0  0  0  0  0  0  0  0  0  0  0
    0.3831   64.6062   84.0018 C   0  0  0  0  0  0  0  0  0  0  0  0
   -1.0482   62.4069   81.3382 N   0  0  0  0  0  0  0  0  0  0  0  0
   -2.5001   62.6853   81.3567 C   0  0  0  0  0  0  0  0  0  0  0  0
   -3.2268   61.9586   80.2216 C   0  0  0  0  0  0  0  0  0  0  0  0
   -2.5625   60.6202   79.8863 C   0  0  0  0  0  0  0  0  0  0  0  0
   -1.0838   60.8152   79.5039 C   0  0  0  0  0  0  0  0  0  0  0  0
   -0.5174   62.1496   79.9944 C   0  0  0  0  0  0  0  0  0  0  0  0
   -3.3159   59.8986   78.7814 C   0  0  0  0  0  0  0  0  0  0  0  0
   -4.6293   59.6446   79.0506 N   0  0  0  0  0  0  0  0  0  0  0  0
   -2.8227   59.5614   77.7121 O   0  0  0  0  0  0  0  0  0  0  0  0
   -5.1189   60.0807   79.8195 H   0  0  0  0  0  0  0  0  0  0  0  0
   -5.1781   59.2345   78.3054 H   0  0  0  0  0  0  0  0  0  0  0  0
    1.5331   66.7461   83.7525 N   0  0  0  0  0  0  0  0  0  0  0  0
    0.9532   67.5661   83.5975 H   0  0  0  0  0  0  0  0  0  0  0  0
    2.8967   66.9754   83.2886 C   0  0  0  0  0  0  0  0  0  0  0  0
    5.6631   65.7367   86.3957 C   0  0  0  0  0  0  0  0  0  0  0  0
    4.3756   65.1934   86.3326 C   0  0  0  0  0  0  0  0  0  0  0  0
    3.4805   65.5934   85.3324 C   0  0  0  0  0  0  0  0  0  0  0  0
    3.8537   66.5473   84.3778 C   0  0  0  0  0  0  0  0  0  0  0  0
    5.1449   67.0891   84.4366 C   0  0  0  0  0  0  0  0  0  0  0  0
    6.0388   66.6887   85.4348 C   0  0  0  0  0  0  0  0  0  0  0  0
    7.6144   67.4034   85.4409 Cl  0  0  0  0  0  0  0  0  0  0  0  0
    6.1660   65.2513   88.6811 C   0  0  0  0  0  0  0  0  0  0  0  0
    6.6016   65.4036   87.3373 O   0  0  0  0  0  0  0  0  0  0  0  0
    0.1076   63.6670   87.6421 C   0  0  0  0  0  0  0  0  0  0  0  0
    0.2028   63.7146   88.7976 N   0  0  0  0  0  0  0  0  0  0  0  0
 32 33  1  0  0  0
 33 25  1  0  0  0
 25 26  1  0  0  0
 26 27  2  0  0  0
 27 28  1  0  0  0
 28 24  1  0  0  0
 24 22  1  0  0  0
 22  1  1  0  0  0
  1  2  1  0  0  0
  2  3  2  0  0  0
  3  4  1  0  0  0
  4 11  1  0  0  0
 11 12  1  0  0  0
 12 13  1  0  0  0
 13 14  1  0  0  0
 14 17  1  0  0  0
 17 18  1  0  0  0
 17 19  2  0  0  0
 14 15  1  0  0  0
 15 16  1  0  0  0
  4  5  2  0  0  0
  5  6  1  0  0  0
  6  7  2  0  0  0
  7  8  1  0  0  0
  8 34  1  0  0  0
 34 35  3  0  0  0
  8  9  2  0  0  0
  9 10  1  0  0  0
 28 29  2  0  0  0
 29 30  1  0  0  0
 30 31  1  0  0  0
 30 25  2  0  0  0
 10  1  2  0  0  0
 16 11  1  0  0  0
 10  5  1  0  0  0
 22 23  1  0  0  0
 18 20  1  0  0  0
 18 21  1  0  0  0
M  END
> <minimizedAffinity>
-10.47489

$$$$



 35 38  0  0  0  0  0  0  0  0999 V2000
    0.7594   65.3184   83.9287 C   0  0  0  0  0  0  0  0  0  0  0  0
    0.5282   65.2492   82.6031 N   0  0  0  0  0  0  0  0  0  0  0  0
   -0.2702   64.2701   82.0740 N   0  0  0  0  0  0  0  0  0  0  0  0
   -0.8413   63.3359   82.8629 C   0  0  0  0  0  0  0  0  0  0  0  0
   -0.5974   63.3310   84.2541 C   0  0  0  0  0  0  0  0  0  0  0  0
   -1.1157   62.3401   85.1243 C   0  0  0  0  0  0  0  0  0  0  0  0
   -0.8517   62.3498   86.4950 C   0  0  0  0  0  0  0  0  0  0  0  0
   -0.0479   63.3477   87.0346 C   0  0  0  0  0  0  0  0  0  0  0  0
    0.4864   64.3304   86.1947 C   0  0  0  0  0  0  0  0  0  0  0  0
    0.2240   64.3463   84.8000 C   0  0  0  0  0  0  0  0  0  0  0  0
   -1.7105   62.3682   82.2849 N   0  0  0  0  0  0  0  0  0  0  0  0
   -2.3991   62.9599   81.1180 C   0  0  0  0  0  0  0  0  0  0  0  0
   -2.8549   61.8838   80.1286 C   0  0  0  0  0  0  0  0  0  0  0  0
   -3.2286   60.5798   80.8391 C   0  0  0  0  0  0  0  0  0  0  0  0
   -2.0486   60.0430   81.6700 C   0  0  0  0  0  0  0  0  0  0  0  0
   -1.0047   61.1187   81.9780 C   0  0  0  0  0  0  0  0  0  0  0  0
   -3.7095   59.5354   79.8457 C   0  0  0  0  0  0  0  0  0  0  0  0
   -4.3371   60.0359   78.7422 N   0  0  0  0  0  0  0  0  0  0  0  0
   -3.5574   58.3276   79.9816 O   0  0  0  0  0  0  0  0  0  0  0  0
   -4.3006   61.0151   78.4956 H   0  0  0  0  0  0  0  0  0  0  0  0
   -4.6009   59.3718   78.0252 H   0  0  0  0  0  0  0  0  0  0  0  0
    1.5650   66.3569   84.4489 N   0  0  0  0  0  0  0  0  0  0  0  0
    0.9720   67.1473   84.6861 H   0  0  0  0  0  0  0  0  0  0  0  0
    2.6555   66.7667   83.5714 C   0  0  0  0  0  0  0  0  0  0  0  0
    1.8078   70.7421   82.0485 C   0  0  0  0  0  0  0  0  0  0  0  0
    2.8156   70.5449   82.9983 C   0  0  0  0  0  0  0  0  0  0  0  0
    3.0892   69.2634   83.4928 C   0  0  0  0  0  0  0  0  0  0  0  0
    2.3580   68.1544   83.0505 C   0  0  0  0  0  0  0  0  0  0  0  0
    1.3511   68.3494   82.0953 C   0  0  0  0  0  0  0  0  0  0  0  0
    1.0788   69.6290   81.6009 C   0  0  0  0  0  0  0  0  0  0  0  0
   -0.1794   69.7884   80.4241 Cl  0  0  0  0  0  0  0  0  0  0  0  0
    1.3716   73.0663   82.3943 C   0  0  0  0  0  0  0  0  0  0  0  0
    1.4738   71.9578   81.5112 O   0  0  0  0  0  0  0  0  0  0  0  0
    0.2368   63.3646   88.4394 C   0  0  0  0  0  0  0  0  0  0  0  0
    0.4681   63.3871   89.5763 N   0  0  0  0  0  0  0  0  0  0  0  0
 32 33  1  0  0  0
 33 25  1  0  0  0
 25 26  1  0  0  0
 26 27  2  0  0  0
 27 28  1  0  0  0
 28 24  1  0  0  0
 24 22  1  0  0  0
 22  1  1  0  0  0
  1  2  1  0  0  0
  2  3  2  0  0  0
  3  4  1  0  0  0
  4 11  1  0  0  0
 11 12  1  0  0  0
 12 13  1  0  0  0
 13 14  1  0  0  0
 14 17  1  0  0  0
 17 18  1  0  0  0
 17 19  2  0  0  0
 14 15  1  0  0  0
 15 16  1  0  0  0
  4  5  2  0  0  0
  5  6  1  0  0  0
  6  7  2  0  0  0
  7  8  1  0  0  0
  8 34  1  0  0  0
 34 35  3  0  0  0
  8  9  2  0  0  0
  9 10  1  0  0  0
 28 29  2  0  0  0
 29 30  1  0  0  0
 30 31  1  0  0  0
 30 25  2  0  0  0
 10  1  2  0  0  0
 16 11  1  0  0  0
 10  5  1  0  0  0
 22 23  1  0  0  0
 18 20  1  0  0  0
 18 21  1  0  0  0
M  END
> <minimizedAffinity>
-10.47019

$$$$



 35 38  0  0  0  0  0  0  0  0999 V2000
    0.9365   65.8143   82.9187 C   0  0  0  0  0  0  0  0  0  0  0  0
    0.8115   65.6983   81.5822 N   0  0  0  0  0  0  0  0  0  0  0  0
    0.2088   64.6044   81.0199 N   0  0  0  0  0  0  0  0  0  0  0  0
   -0.2687   63.6019   81.7869 C   0  0  0  0  0  0  0  0  0  0  0  0
   -0.1245   63.6472   83.1912 C   0  0  0  0  0  0  0  0  0  0  0  0
   -0.5471   62.5975   84.0439 C   0  0  0  0  0  0  0  0  0  0  0  0
   -0.3839   62.6601   85.4289 C   0  0  0  0  0  0  0  0  0  0  0  0
    0.2206   63.7734   86.0016 C   0  0  0  0  0  0  0  0  0  0  0  0
    0.6580   64.8179   85.1804 C   0  0  0  0  0  0  0  0  0  0  0  0
    0.4943   64.7805   83.7711 C   0  0  0  0  0  0  0  0  0  0  0  0
   -0.9395   62.5081   81.1709 N   0  0  0  0  0  0  0  0  0  0  0  0
   -2.4007   62.7212   81.2468 C   0  0  0  0  0  0  0  0  0  0  0  0
   -3.1385   61.9583   80.1430 C   0  0  0  0  0  0  0  0  0  0  0  0
   -2.4285   60.6498   79.7840 C   0  0  0  0  0  0  0  0  0  0  0  0
   -0.9765   60.9096   79.3426 C   0  0  0  0  0  0  0  0  0  0  0  0
   -0.4516   62.2699   79.8075 C   0  0  0  0  0  0  0  0  0  0  0  0
   -3.1920   59.8910   78.7115 C   0  0  0  0  0  0  0  0  0  0  0  0
   -4.5077   59.6635   78.9930 N   0  0  0  0  0  0  0  0  0  0  0  0
   -2.7046   59.5036   77.6567 O   0  0  0  0  0  0  0  0  0  0  0  0
   -4.9909   60.1369   79.7435 H   0  0  0  0  0  0  0  0  0  0  0  0
   -5.0624   59.2286   78.2664 H   0  0  0  0  0  0  0  0  0  0  0  0
    1.5381   66.9679   83.4714 N   0  0  0  0  0  0  0  0  0  0  0  0
    0.8147   67.5553   83.8769 H   0  0  0  0  0  0  0  0  0  0  0  0
    2.3597   67.7238   82.5329 C   0  0  0  0  0  0  0  0  0  0  0  0
    0.5393   71.6228   81.9613 C   0  0  0  0  0  0  0  0  0  0  0  0
   -0.0814   70.4697   81.4696 C   0  0  0  0  0  0  0  0  0  0  0  0
    0.5053   69.2109   81.6508 C   0  0  0  0  0  0  0  0  0  0  0  0
    1.7262   69.0805   82.3237 C   0  0  0  0  0  0  0  0  0  0  0  0
    2.3471   70.2343   82.8214 C   0  0  0  0  0  0  0  0  0  0  0  0
    1.7605   71.4909   82.6412 C   0  0  0  0  0  0  0  0  0  0  0  0
    2.5883   72.8674   83.2842 Cl  0  0  0  0  0  0  0  0  0  0  0  0
   -0.5608   73.2416   80.5899 C   0  0  0  0  0  0  0  0  0  0  0  0
    0.0375   72.8913   81.8302 O   0  0  0  0  0  0  0  0  0  0  0  0
    0.4007   63.8467   87.4219 C   0  0  0  0  0  0  0  0  0  0  0  0
    0.5386   63.9099   88.5723 N   0  0  0  0  0  0  0  0  0  0  0  0
 32 33  1  0  0  0
 33 25  1  0  0  0
 25 26  1  0  0  0
 26 27  2  0  0  0
 27 28  1  0  0  0
 28 24  1  0  0  0
 24 22  1  0  0  0
 22  1  1  0  0  0
  1  2  1  0  0  0
  2  3  2  0  0  0
  3  4  1  0  0  0
  4 11  1  0  0  0
 11 12  1  0  0  0
 12 13  1  0  0  0
 13 14  1  0  0  0
 14 17  1  0  0  0
 17 18  1  0  0  0
 17 19  2  0  0  0
 14 15  1  0  0  0
 15 16  1  0  0  0
  4  5  2  0  0  0
  5  6  1  0  0  0
  6  7  2  0  0  0
  7  8  1  0  0  0
  8 34  1  0  0  0
 34 35  3  0  0  0
  8  9  2  0  0  0
  9 10  1  0  0  0
 28 29  2  0  0  0
 29 30  1  0  0  0
 30 31  1  0  0  0
 30 25  2  0  0  0
 10  1  2  0  0  0
 16 11  1  0  0  0
 10  5  1  0  0  0
 22 23  1  0  0  0
 18 20  1  0  0  0
 18 21  1  0  0  0
M  END
> <minimizedAffinity>
-10.46900

$$$$



 35 38  0  0  0  0  0  0  0  0999 V2000
    0.9984   66.0050   82.8322 C   0  0  0  0  0  0  0  0  0  0  0  0
    0.9296   65.9070   81.4902 N   0  0  0  0  0  0  0  0  0  0  0  0
    0.4244   64.7858   80.8872 N   0  0  0  0  0  0  0  0  0  0  0  0
   -0.0098   63.7380   81.6186 C   0  0  0  0  0  0  0  0  0  0  0  0
    0.0806   63.7654   83.0279 C   0  0  0  0  0  0  0  0  0  0  0  0
   -0.2987   62.6726   83.8462 C   0  0  0  0  0  0  0  0  0  0  0  0
   -0.1899   62.7189   85.2372 C   0  0  0  0  0  0  0  0  0  0  0  0
    0.3154   63.8595   85.8509 C   0  0  0  0  0  0  0  0  0  0  0  0
    0.7087   64.9474   85.0645 C   0  0  0  0  0  0  0  0  0  0  0  0
    0.5984   64.9267   83.6497 C   0  0  0  0  0  0  0  0  0  0  0  0
   -0.5810   62.6132   80.9595 N   0  0  0  0  0  0  0  0  0  0  0  0
   -2.0527   62.7527   80.9343 C   0  0  0  0  0  0  0  0  0  0  0  0
   -2.6737   61.9560   79.7834 C   0  0  0  0  0  0  0  0  0  0  0  0
   -1.8760   60.6855   79.4761 C   0  0  0  0  0  0  0  0  0  0  0  0
   -0.4118   61.0186   79.1353 C   0  0  0  0  0  0  0  0  0  0  0  0
    0.0109   62.4025   79.6332 C   0  0  0  0  0  0  0  0  0  0  0  0
   -2.5249   59.8916   78.3546 C   0  0  0  0  0  0  0  0  0  0  0  0
   -3.7983   60.2700   78.0431 N   0  0  0  0  0  0  0  0  0  0  0  0
   -1.9787   58.9806   77.7444 O   0  0  0  0  0  0  0  0  0  0  0  0
   -4.2030   61.1346   78.3742 H   0  0  0  0  0  0  0  0  0  0  0  0
   -4.2304   59.8128   77.2500 H   0  0  0  0  0  0  0  0  0  0  0  0
    1.4987   67.1859   83.4266 N   0  0  0  0  0  0  0  0  0  0  0  0
    0.8095   67.9254   83.3222 H   0  0  0  0  0  0  0  0  0  0  0  0
    2.7991   67.6083   82.9189 C   0  0  0  0  0  0  0  0  0  0  0  0
    2.3173   71.4436   80.9441 C   0  0  0  0  0  0  0  0  0  0  0  0
    3.5845   70.8659   81.0748 C   0  0  0  0  0  0  0  0  0  0  0  0
    3.7426   69.6295   81.7138 C   0  0  0  0  0  0  0  0  0  0  0  0
    2.6374   68.9484   82.2380 C   0  0  0  0  0  0  0  0  0  0  0  0
    1.3663   69.5235   82.1036 C   0  0  0  0  0  0  0  0  0  0  0  0
    1.2087   70.7575   81.4647 C   0  0  0  0  0  0  0  0  0  0  0  0
   -0.3919   71.4020   81.3385 Cl  0  0  0  0  0  0  0  0  0  0  0  0
    2.2278   73.8260   81.1110 C   0  0  0  0  0  0  0  0  0  0  0  0
    2.0710   72.6462   80.3348 O   0  0  0  0  0  0  0  0  0  0  0  0
    0.4390   63.9169   87.2779 C   0  0  0  0  0  0  0  0  0  0  0  0
    0.5427   63.9713   88.4324 N   0  0  0  0  0  0  0  0  0  0  0  0
 32 33  1  0  0  0
 33 25  1  0  0  0
 25 26  1  0  0  0
 26 27  2  0  0  0
 27 28  1  0  0  0
 28 24  1  0  0  0
 24 22  1  0  0  0
 22  1  1  0  0  0
  1  2  1  0  0  0
  2  3  2  0  0  0
  3  4  1  0  0  0
  4 11  1  0  0  0
 11 12  1  0  0  0
 12 13  1  0  0  0
 13 14  1  0  0  0
 14 17  1  0  0  0
 17 18  1  0  0  0
 17 19  2  0  0  0
 14 15  1  0  0  0
 15 16  1  0  0  0
  4  5  2  0  0  0
  5  6  1  0  0  0
  6  7  2  0  0  0
  7  8  1  0  0  0
  8 34  1  0  0  0
 34 35  3  0  0  0
  8  9  2  0  0  0
  9 10  1  0  0  0
 28 29  2  0  0  0
 29 30  1  0  0  0
 30 31  1  0  0  0
 30 25  2  0  0  0
 10  1  2  0  0  0
 16 11  1  0  0  0
 10  5  1  0  0  0
 22 23  1  0  0  0
 18 20  1  0  0  0
 18 21  1  0  0  0
M  END
> <minimizedAffinity>
-10.01633

$$$$



 35 38  0  0  0  0  0  0  0  0999 V2000
    0.5640   64.9304   84.3201 C   0  0  0  0  0  0  0  0  0  0  0  0
   -0.2146   63.8522   84.5363 N   0  0  0  0  0  0  0  0  0  0  0  0
   -0.8767   63.2390   83.5059 N   0  0  0  0  0  0  0  0  0  0  0  0
   -0.7796   63.7030   82.2424 C   0  0  0  0  0  0  0  0  0  0  0  0
   -0.0150   64.8572   81.9630 C   0  0  0  0  0  0  0  0  0  0  0  0
    0.0734   65.4290   80.6696 C   0  0  0  0  0  0  0  0  0  0  0  0
    0.8270   66.5772   80.4197 C   0  0  0  0  0  0  0  0  0  0  0  0
    1.5059   67.1961   81.4633 C   0  0  0  0  0  0  0  0  0  0  0  0
    1.4245   66.6585   82.7521 C   0  0  0  0  0  0  0  0  0  0  0  0
    0.6725   65.4869   83.0280 C   0  0  0  0  0  0  0  0  0  0  0  0
   -1.4359   63.0064   81.1888 N   0  0  0  0  0  0  0  0  0  0  0  0
   -0.5212   61.9901   80.6263 C   0  0  0  0  0  0  0  0  0  0  0  0
   -1.2918   60.8516   79.9517 C   0  0  0  0  0  0  0  0  0  0  0  0
   -2.5995   61.3435   79.3248 C   0  0  0  0  0  0  0  0  0  0  0  0
   -3.5000   62.0169   80.3767 C   0  0  0  0  0  0  0  0  0  0  0  0
   -2.7267   62.4585   81.6213 C   0  0  0  0  0  0  0  0  0  0  0  0
   -3.3337   60.2078   78.6321 C   0  0  0  0  0  0  0  0  0  0  0  0
   -4.4717   59.7905   79.2588 N   0  0  0  0  0  0  0  0  0  0  0  0
   -2.9715   59.6848   77.5852 O   0  0  0  0  0  0  0  0  0  0  0  0
   -4.9090   60.3221   79.9984 H   0  0  0  0  0  0  0  0  0  0  0  0
   -5.0248   59.0885   78.7833 H   0  0  0  0  0  0  0  0  0  0  0  0
    1.2573   65.5251   85.3988 N   0  0  0  0  0  0  0  0  0  0  0  0
    1.6725   66.3974   85.0835 H   0  0  0  0  0  0  0  0  0  0  0  0
    2.2587   64.6630   86.0161 C   0  0  0  0  0  0  0  0  0  0  0  0
    6.1252   66.6128   85.7156 C   0  0  0  0  0  0  0  0  0  0  0  0
    5.9243   65.5694   86.6253 C   0  0  0  0  0  0  0  0  0  0  0  0
    4.6769   64.9404   86.7257 C   0  0  0  0  0  0  0  0  0  0  0  0
    3.6047   65.3449   85.9213 C   0  0  0  0  0  0  0  0  0  0  0  0
    3.8056   66.3869   85.0058 C   0  0  0  0  0  0  0  0  0  0  0  0
    5.0515   67.0141   84.9052 C   0  0  0  0  0  0  0  0  0  0  0  0
    5.2204   68.2925   83.7516 Cl  0  0  0  0  0  0  0  0  0  0  0  0
    8.3204   66.6575   84.7720 C   0  0  0  0  0  0  0  0  0  0  0  0
    7.3095   67.2824   85.5507 O   0  0  0  0  0  0  0  0  0  0  0  0
    2.2772   68.3799   81.2213 C   0  0  0  0  0  0  0  0  0  0  0  0
    2.8991   69.3414   81.0331 N   0  0  0  0  0  0  0  0  0  0  0  0
 32 33  1  0  0  0
 33 25  1  0  0  0
 25 26  1  0  0  0
 26 27  2  0  0  0
 27 28  1  0  0  0
 28 24  1  0  0  0
 24 22  1  0  0  0
 22  1  1  0  0  0
  1  2  1  0  0  0
  2  3  2  0  0  0
  3  4  1  0  0  0
  4 11  1  0  0  0
 11 12  1  0  0  0
 12 13  1  0  0  0
 13 14  1  0  0  0
 14 17  1  0  0  0
 17 18  1  0  0  0
 17 19  2  0  0  0
 14 15  1  0  0  0
 15 16  1  0  0  0
  4  5  2  0  0  0
  5  6  1  0  0  0
  6  7  2  0  0  0
  7  8  1  0  0  0
  8 34  1  0  0  0
 34 35  3  0  0  0
  8  9  2  0  0  0
  9 10  1  0  0  0
 28 29  2  0  0  0
 29 30  1  0  0  0
 30 31  1  0  0  0
 30 25  2  0  0  0
 10  1  2  0  0  0
 16 11  1  0  0  0
 10  5  1  0  0  0
 22 23  1  0  0  0
 18 20  1  0  0  0
 18 21  1  0  0  0
M  END
> <minimizedAffinity>
-9.97559

$$$$



 35 38  0  0  0  0  0  0  0  0999 V2000
   -0.8779   63.9029   82.4580 C   0  0  0  0  0  0  0  0  0  0  0  0
   -0.8945   64.4895   81.2451 N   0  0  0  0  0  0  0  0  0  0  0  0
   -0.1097   65.5791   80.9749 N   0  0  0  0  0  0  0  0  0  0  0  0
    0.6966   66.1073   81.9193 C   0  0  0  0  0  0  0  0  0  0  0  0
    0.7211   65.5629   83.2224 C   0  0  0  0  0  0  0  0  0  0  0  0
    1.4974   66.1119   84.2729 C   0  0  0  0  0  0  0  0  0  0  0  0
    1.4969   65.5627   85.5563 C   0  0  0  0  0  0  0  0  0  0  0  0
    0.7068   64.4519   85.8299 C   0  0  0  0  0  0  0  0  0  0  0  0
   -0.0785   63.8986   84.8131 C   0  0  0  0  0  0  0  0  0  0  0  0
   -0.0868   64.4340   83.4987 C   0  0  0  0  0  0  0  0  0  0  0  0
    1.5401   67.2042   81.5856 N   0  0  0  0  0  0  0  0  0  0  0  0
    1.8412   67.1709   80.1385 C   0  0  0  0  0  0  0  0  0  0  0  0
    2.2073   68.5600   79.6080 C   0  0  0  0  0  0  0  0  0  0  0  0
    2.9257   69.4016   80.6665 C   0  0  0  0  0  0  0  0  0  0  0  0
    2.0658   69.5495   81.9351 C   0  0  0  0  0  0  0  0  0  0  0  0
    0.9752   68.4809   82.0380 C   0  0  0  0  0  0  0  0  0  0  0  0
    3.3104   70.7632   80.1123 C   0  0  0  0  0  0  0  0  0  0  0  0
    2.4491   71.7754   80.4218 N   0  0  0  0  0  0  0  0  0  0  0  0
    4.3127   70.9811   79.4428 O   0  0  0  0  0  0  0  0  0  0  0  0
    1.7351   71.6815   81.1306 H   0  0  0  0  0  0  0  0  0  0  0  0
    2.7165   72.7080   80.1331 H   0  0  0  0  0  0  0  0  0  0  0  0
   -1.6778   62.7626   82.6989 N   0  0  0  0  0  0  0  0  0  0  0  0
   -2.0300   62.8018   83.6513 H   0  0  0  0  0  0  0  0  0  0  0  0
   -1.0059   61.4939   82.4421 C   0  0  0  0  0  0  0  0  0  0  0  0
   -2.3830   59.9772   78.6152 C   0  0  0  0  0  0  0  0  0  0  0  0
   -3.1418   59.7778   79.7733 C   0  0  0  0  0  0  0  0  0  0  0  0
   -2.6982   60.2642   81.0096 C   0  0  0  0  0  0  0  0  0  0  0  0
   -1.4854   60.9561   81.1130 C   0  0  0  0  0  0  0  0  0  0  0  0
   -0.7263   61.1611   79.9528 C   0  0  0  0  0  0  0  0  0  0  0  0
   -1.1700   60.6762   78.7184 C   0  0  0  0  0  0  0  0  0  0  0  0
   -0.1767   60.9691   77.3323 Cl  0  0  0  0  0  0  0  0  0  0  0  0
   -3.4939   60.4183   76.5456 C   0  0  0  0  0  0  0  0  0  0  0  0
   -2.7401   59.5375   77.3672 O   0  0  0  0  0  0  0  0  0  0  0  0
    0.6917   63.8829   87.1455 C   0  0  0  0  0  0  0  0  0  0  0  0
    0.6711   63.4204   88.2095 N   0  0  0  0  0  0  0  0  0  0  0  0
 32 33  1  0  0  0
 33 25  1  0  0  0
 25 26  1  0  0  0
 26 27  2  0  0  0
 27 28  1  0  0  0
 28 24  1  0  0  0
 24 22  1  0  0  0
 22  1  1  0  0  0
  1  2  1  0  0  0
  2  3  2  0  0  0
  3  4  1  0  0  0
  4 11  1  0  0  0
 11 12  1  0  0  0
 12 13  1  0  0  0
 13 14  1  0  0  0
 14 17  1  0  0  0
 17 18  1  0  0  0
 17 19  2  0  0  0
 14 15  1  0  0  0
 15 16  1  0  0  0
  4  5  2  0  0  0
  5  6  1  0  0  0
  6  7  2  0  0  0
  7  8  1  0  0  0
  8 34  1  0  0  0
 34 35  3  0  0  0
  8  9  2  0  0  0
  9 10  1  0  0  0
 28 29  2  0  0  0
 29 30  1  0  0  0
 30 31  1  0  0  0
 30 25  2  0  0  0
 10  1  2  0  0  0
 16 11  1  0  0  0
 10  5  1  0  0  0
 22 23  1  0  0  0
 18 20  1  0  0  0
 18 21  1  0  0  0
M  END
> <minimizedAffinity>
-9.82583

$$$$



 35 38  0  0  0  0  0  0  0  0999 V2000
    1.6666   65.9697   83.0001 C   0  0  0  0  0  0  0  0  0  0  0  0
    0.9529   66.7626   82.1770 N   0  0  0  0  0  0  0  0  0  0  0  0
    1.2803   68.0813   82.0048 N   0  0  0  0  0  0  0  0  0  0  0  0
    2.3215   68.6317   82.6637 C   0  0  0  0  0  0  0  0  0  0  0  0
    3.0772   67.8608   83.5745 C   0  0  0  0  0  0  0  0  0  0  0  0
    4.1399   68.3977   84.3428 C   0  0  0  0  0  0  0  0  0  0  0  0
    4.8657   67.6184   85.2454 C   0  0  0  0  0  0  0  0  0  0  0  0
    4.5395   66.2776   85.4153 C   0  0  0  0  0  0  0  0  0  0  0  0
    3.4863   65.7267   84.6779 C   0  0  0  0  0  0  0  0  0  0  0  0
    2.7407   66.4970   83.7478 C   0  0  0  0  0  0  0  0  0  0  0  0
    2.6669   69.9902   82.4164 N   0  0  0  0  0  0  0  0  0  0  0  0
    3.4760   70.0754   81.1819 C   0  0  0  0  0  0  0  0  0  0  0  0
    3.3790   71.4624   80.5403 C   0  0  0  0  0  0  0  0  0  0  0  0
    3.2047   72.5634   81.5902 C   0  0  0  0  0  0  0  0  0  0  0  0
    1.9561   72.3123   82.4554 C   0  0  0  0  0  0  0  0  0  0  0  0
    1.4834   70.8577   82.4031 C   0  0  0  0  0  0  0  0  0  0  0  0
    3.1438   73.9346   80.9382 C   0  0  0  0  0  0  0  0  0  0  0  0
    2.2789   74.0349   79.8875 N   0  0  0  0  0  0  0  0  0  0  0  0
    3.7966   74.9050   81.3024 O   0  0  0  0  0  0  0  0  0  0  0  0
    1.5825   73.3300   79.6898 H   0  0  0  0  0  0  0  0  0  0  0  0
    2.1578   74.9539   79.4807 H   0  0  0  0  0  0  0  0  0  0  0  0
    1.3221   64.6055   83.1361 N   0  0  0  0  0  0  0  0  0  0  0  0
    1.6323   64.1027   82.3093 H   0  0  0  0  0  0  0  0  0  0  0  0
   -0.0939   64.3673   83.3918 C   0  0  0  0  0  0  0  0  0  0  0  0
   -0.5992   63.2352   87.5517 C   0  0  0  0  0  0  0  0  0  0  0  0
    0.4560   64.0682   87.1650 C   0  0  0  0  0  0  0  0  0  0  0  0
    0.6223   64.4328   85.8229 C   0  0  0  0  0  0  0  0  0  0  0  0
   -0.2607   63.9687   84.8405 C   0  0  0  0  0  0  0  0  0  0  0  0
   -1.3213   63.1379   85.2269 C   0  0  0  0  0  0  0  0  0  0  0  0
   -1.4877   62.7749   86.5671 C   0  0  0  0  0  0  0  0  0  0  0  0
   -2.8209   61.7462   86.9648 Cl  0  0  0  0  0  0  0  0  0  0  0  0
    0.2086   62.1546   89.5243 C   0  0  0  0  0  0  0  0  0  0  0  0
   -0.8371   62.8296   88.8390 O   0  0  0  0  0  0  0  0  0  0  0  0
    5.2723   65.4685   86.3444 C   0  0  0  0  0  0  0  0  0  0  0  0
    5.8654   64.8201   87.1023 N   0  0  0  0  0  0  0  0  0  0  0  0
 32 33  1  0  0  0
 33 25  1  0  0  0
 25 26  1  0  0  0
 26 27  2  0  0  0
 27 28  1  0  0  0
 28 24  1  0  0  0
 24 22  1  0  0  0
 22  1  1  0  0  0
  1  2  1  0  0  0
  2  3  2  0  0  0
  3  4  1  0  0  0
  4 11  1  0  0  0
 11 12  1  0  0  0
 12 13  1  0  0  0
 13 14  1  0  0  0
 14 17  1  0  0  0
 17 18  1  0  0  0
 17 19  2  0  0  0
 14 15  1  0  0  0
 15 16  1  0  0  0
  4  5  2  0  0  0
  5  6  1  0  0  0
  6  7  2  0  0  0
  7  8  1  0  0  0
  8 34  1  0  0  0
 34 35  3  0  0  0
  8  9  2  0  0  0
  9 10  1  0  0  0
 28 29  2  0  0  0
 29 30  1  0  0  0
 30 31  1  0  0  0
 30 25  2  0  0  0
 10  1  2  0  0  0
 16 11  1  0  0  0
 10  5  1  0  0  0
 22 23  1  0  0  0
 18 20  1  0  0  0
 18 21  1  0  0  0
M  END
> <minimizedAffinity>
-9.57021

$$$$



 35 38  0  0  0  0  0  0  0  0999 V2000
    0.8645   67.3916   80.7013 C   0  0  0  0  0  0  0  0  0  0  0  0
    0.0142   66.7236   79.8975 N   0  0  0  0  0  0  0  0  0  0  0  0
   -0.4810   65.4973   80.2538 N   0  0  0  0  0  0  0  0  0  0  0  0
   -0.1233   64.9136   81.4168 C   0  0  0  0  0  0  0  0  0  0  0  0
    0.8005   65.5459   82.2779 C   0  0  0  0  0  0  0  0  0  0  0  0
    1.2632   64.9552   83.4799 C   0  0  0  0  0  0  0  0  0  0  0  0
    2.1856   65.5950   84.3098 C   0  0  0  0  0  0  0  0  0  0  0  0
    2.6831   66.8433   83.9532 C   0  0  0  0  0  0  0  0  0  0  0  0
    2.2516   67.4424   82.7651 C   0  0  0  0  0  0  0  0  0  0  0  0
    1.3077   66.8152   81.9106 C   0  0  0  0  0  0  0  0  0  0  0  0
   -0.7021   63.6650   81.7801 N   0  0  0  0  0  0  0  0  0  0  0  0
   -2.1497   63.8451   82.0208 C   0  0  0  0  0  0  0  0  0  0  0  0
   -2.9196   62.5359   81.8258 C   0  0  0  0  0  0  0  0  0  0  0  0
   -2.0781   61.3178   82.2171 C   0  0  0  0  0  0  0  0  0  0  0  0
   -0.7685   61.2656   81.4091 C   0  0  0  0  0  0  0  0  0  0  0  0
   -0.3966   62.6184   80.7978 C   0  0  0  0  0  0  0  0  0  0  0  0
   -2.8689   60.0312   82.0486 C   0  0  0  0  0  0  0  0  0  0  0  0
   -3.4054   59.5300   83.1989 N   0  0  0  0  0  0  0  0  0  0  0  0
   -3.0439   59.4602   80.9792 O   0  0  0  0  0  0  0  0  0  0  0  0
   -3.4587   60.0692   84.0517 H   0  0  0  0  0  0  0  0  0  0  0  0
   -4.0016   58.7169   83.1092 H   0  0  0  0  0  0  0  0  0  0  0  0
    1.3371   68.6680   80.3198 N   0  0  0  0  0  0  0  0  0  0  0  0
    2.1907   68.8707   80.8325 H   0  0  0  0  0  0  0  0  0  0  0  0
    0.3629   69.7412   80.4821 C   0  0  0  0  0  0  0  0  0  0  0  0
    2.1720   72.9171   82.8236 C   0  0  0  0  0  0  0  0  0  0  0  0
    2.7838   71.6623   82.7355 C   0  0  0  0  0  0  0  0  0  0  0  0
    2.2007   70.6353   81.9825 C   0  0  0  0  0  0  0  0  0  0  0  0
    0.9923   70.8415   81.3059 C   0  0  0  0  0  0  0  0  0  0  0  0
    0.3804   72.0997   81.3891 C   0  0  0  0  0  0  0  0  0  0  0  0
    0.9635   73.1252   82.1403 C   0  0  0  0  0  0  0  0  0  0  0  0
    0.1474   74.6498   82.1944 Cl  0  0  0  0  0  0  0  0  0  0  0  0
    3.8966   74.5486   83.0990 C   0  0  0  0  0  0  0  0  0  0  0  0
    2.6713   73.9765   83.5353 O   0  0  0  0  0  0  0  0  0  0  0  0
    3.6361   67.5075   84.7930 C   0  0  0  0  0  0  0  0  0  0  0  0
    4.4087   68.0513   85.4667 N   0  0  0  0  0  0  0  0  0  0  0  0
 32 33  1  0  0  0
 33 25  1  0  0  0
 25 26  1  0  0  0
 26 27  2  0  0  0
 27 28  1  0  0  0
 28 24  1  0  0  0
 24 22  1  0  0  0
 22  1  1  0  0  0
  1  2  1  0  0  0
  2  3  2  0  0  0
  3  4  1  0  0  0
  4 11  1  0  0  0
 11 12  1  0  0  0
 12 13  1  0  0  0
 13 14  1  0  0  0
 14 17  1  0  0  0
 17 18  1  0  0  0
 17 19  2  0  0  0
 14 15  1  0  0  0
 15 16  1  0  0  0
  4  5  2  0  0  0
  5  6  1  0  0  0
  6  7  2  0  0  0
  7  8  1  0  0  0
  8 34  1  0  0  0
 34 35  3  0  0  0
  8  9  2  0  0  0
  9 10  1  0  0  0
 28 29  2  0  0  0
 29 30  1  0  0  0
 30 31  1  0  0  0
 30 25  2  0  0  0
 10  1  2  0  0  0
 16 11  1  0  0  0
 10  5  1  0  0  0
 22 23  1  0  0  0
 18 20  1  0  0  0
 18 21  1  0  0  0
M  END
> <minimizedAffinity>
-9.47588

$$$$
