


 34 37  0  0  0  0  0  0  0  0999 V2000
   -0.3968   64.4045   81.0274 N   0  0  0  0  0  0  0  0  0  0  0  0
   -0.5326   64.6195   80.0508 H   0  0  0  0  0  0  0  0  0  0  0  0
   -2.0768   61.7754   82.8939 C   0  0  0  0  0  0  0  0  0  0  0  0
   -1.3949   62.9138   82.6024 N   0  0  0  0  0  0  0  0  0  0  0  0
   -1.0724   63.2212   81.3274 C   0  0  0  0  0  0  0  0  0  0  0  0
   -1.3806   62.4791   80.2444 N   0  0  0  0  0  0  0  0  0  0  0  0
   -2.0499   61.3628   80.5617 C   0  0  0  0  0  0  0  0  0  0  0  0
   -2.4311   60.9425   81.8212 C   0  0  0  0  0  0  0  0  0  0  0  0
   -3.1232   59.7479   81.7540 N   0  0  0  0  0  0  0  0  0  0  0  0
   -3.1456   59.4462   80.4721 C   0  0  0  0  0  0  0  0  0  0  0  0
   -2.5098   60.3926   79.7168 N   0  0  0  0  0  0  0  0  0  0  0  0
   -2.3482   60.3802   78.2875 C   0  0  0  0  0  0  0  0  0  0  0  0
   -2.4092   61.4464   84.2027 N   0  0  0  0  0  0  0  0  0  0  0  0
   -3.0401   60.6506   84.2454 H   0  0  0  0  0  0  0  0  0  0  0  0
   -2.5958   62.4999   85.1834 C   0  0  0  0  0  0  0  0  0  0  0  0
   -2.2159   62.9315   87.6716 C   0  0  0  0  0  0  0  0  0  0  0  0
   -1.5999   62.4486   86.3573 C   0  0  0  0  0  0  0  0  0  0  0  0
   -0.2933   63.1893   86.0736 C   0  0  0  0  0  0  0  0  0  0  0  0
    0.4853   65.2243   81.7390 C   0  0  0  0  0  0  0  0  0  0  0  0
    0.4966   65.3294   83.1354 C   0  0  0  0  0  0  0  0  0  0  0  0
    1.3720   66.2009   83.7921 C   0  0  0  0  0  0  0  0  0  0  0  0
    2.2411   66.9953   83.0453 C   0  0  0  0  0  0  0  0  0  0  0  0
    2.2518   66.9175   81.6544 C   0  0  0  0  0  0  0  0  0  0  0  0
    1.3736   66.0387   81.0125 C   0  0  0  0  0  0  0  0  0  0  0  0
    3.3257   68.1159   83.8891 S   0  0  0  0  0  0  0  0  0  0  0  0
    2.6550   68.5989   85.0788 O   0  0  0  0  0  0  0  0  0  0  0  0
    3.8506   69.0323   82.9002 O   0  0  0  0  0  0  0  0  0  0  0  0
    4.5965   67.0977   84.4051 N   0  0  0  0  0  0  0  0  0  0  0  0
    4.1567   65.8103   85.0302 C   0  0  0  0  0  0  0  0  0  0  0  0
    5.3778   64.9293   85.3682 C   0  0  0  0  0  0  0  0  0  0  0  0
    6.4052   65.5749   86.2112 N   0  0  0  0  0  0  0  0  0  0  0  0
    5.9631   65.7142   87.5971 C   0  0  0  0  0  0  0  0  0  0  0  0
    6.7700   66.8791   85.6185 C   0  0  0  0  0  0  0  0  0  0  0  0
    5.5826   67.8046   85.2819 C   0  0  0  0  0  0  0  0  0  0  0  0
 16 17  1  0  0  0
 17 18  1  0  0  0
 17 15  1  0  0  0
 15 13  1  0  0  0
 13  3  1  0  0  0
  3  4  1  0  0  0
  4  5  2  0  0  0
  5  1  1  0  0  0
  1 19  1  0  0  0
 19 20  1  0  0  0
 20 21  2  0  0  0
 21 22  1  0  0  0
 22 25  1  0  0  0
 25 26  2  0  0  0
 25 27  2  0  0  0
 25 28  1  0  0  0
 28 29  1  0  0  0
 29 30  1  0  0  0
 30 31  1  0  0  0
 31 32  1  0  0  0
 31 33  1  0  0  0
 33 34  1  0  0  0
 22 23  2  0  0  0
 23 24  1  0  0  0
  5  6  1  0  0  0
  6  7  2  0  0  0
  7  8  1  0  0  0
  8  9  1  0  0  0
  9 10  2  0  0  0
 10 11  1  0  0  0
 11 12  1  0  0  0
  8  3  2  0  0  0
 24 19  2  0  0  0
 11  7  1  0  0  0
 34 28  1  0  0  0
 13 14  1  0  0  0
  1  2  1  0  0  0
M  END
> <minimizedAffinity>
-9.94268

$$$$



 34 37  0  0  0  0  0  0  0  0999 V2000
    1.3649   64.9979   84.4638 N   0  0  0  0  0  0  0  0  0  0  0  0
    2.1051   64.7630   85.1083 H   0  0  0  0  0  0  0  0  0  0  0  0
   -1.5068   62.8236   83.9695 C   0  0  0  0  0  0  0  0  0  0  0  0
   -0.4497   63.6387   83.7162 N   0  0  0  0  0  0  0  0  0  0  0  0
    0.2626   64.1838   84.7260 C   0  0  0  0  0  0  0  0  0  0  0  0
    0.0293   63.9875   86.0397 N   0  0  0  0  0  0  0  0  0  0  0  0
   -1.0189   63.1826   86.2592 C   0  0  0  0  0  0  0  0  0  0  0  0
   -1.8207   62.5725   85.3142 C   0  0  0  0  0  0  0  0  0  0  0  0
   -2.7940   61.7992   85.9185 N   0  0  0  0  0  0  0  0  0  0  0  0
   -2.5894   61.9534   87.2104 C   0  0  0  0  0  0  0  0  0  0  0  0
   -1.5290   62.7799   87.4611 N   0  0  0  0  0  0  0  0  0  0  0  0
   -1.0298   63.1634   88.7545 C   0  0  0  0  0  0  0  0  0  0  0  0
   -2.2502   62.2616   82.9383 N   0  0  0  0  0  0  0  0  0  0  0  0
   -3.2496   62.3266   83.1119 H   0  0  0  0  0  0  0  0  0  0  0  0
   -1.7647   61.0682   82.2701 C   0  0  0  0  0  0  0  0  0  0  0  0
    0.4458   61.4142   81.0388 C   0  0  0  0  0  0  0  0  0  0  0  0
   -1.0774   61.3408   80.9188 C   0  0  0  0  0  0  0  0  0  0  0  0
   -1.6192   62.5789   80.2046 C   0  0  0  0  0  0  0  0  0  0  0  0
    1.5813   66.0961   83.6248 C   0  0  0  0  0  0  0  0  0  0  0  0
    1.3547   66.0775   82.2431 C   0  0  0  0  0  0  0  0  0  0  0  0
    1.6321   67.1929   81.4455 C   0  0  0  0  0  0  0  0  0  0  0  0
    2.1605   68.3429   82.0305 C   0  0  0  0  0  0  0  0  0  0  0  0
    2.4014   68.3922   83.4019 C   0  0  0  0  0  0  0  0  0  0  0  0
    2.1153   67.2706   84.1865 C   0  0  0  0  0  0  0  0  0  0  0  0
    2.5336   69.7396   81.0038 S   0  0  0  0  0  0  0  0  0  0  0  0
    2.1671   69.4198   79.6392 O   0  0  0  0  0  0  0  0  0  0  0  0
    3.8729   70.1731   81.3383 O   0  0  0  0  0  0  0  0  0  0  0  0
    1.4328   70.9224   81.5574 N   0  0  0  0  0  0  0  0  0  0  0  0
    0.0529   70.8137   80.9866 C   0  0  0  0  0  0  0  0  0  0  0  0
   -0.8799   71.8643   81.6251 C   0  0  0  0  0  0  0  0  0  0  0  0
   -0.4063   73.2611   81.5388 N   0  0  0  0  0  0  0  0  0  0  0  0
   -0.5263   73.7937   80.1833 C   0  0  0  0  0  0  0  0  0  0  0  0
    0.9841   73.3338   82.0352 C   0  0  0  0  0  0  0  0  0  0  0  0
    1.9603   72.3156   81.4106 C   0  0  0  0  0  0  0  0  0  0  0  0
 16 17  1  0  0  0
 17 18  1  0  0  0
 17 15  1  0  0  0
 15 13  1  0  0  0
 13  3  1  0  0  0
  3  4  1  0  0  0
  4  5  2  0  0  0
  5  1  1  0  0  0
  1 19  1  0  0  0
 19 20  1  0  0  0
 20 21  2  0  0  0
 21 22  1  0  0  0
 22 25  1  0  0  0
 25 26  2  0  0  0
 25 27  2  0  0  0
 25 28  1  0  0  0
 28 29  1  0  0  0
 29 30  1  0  0  0
 30 31  1  0  0  0
 31 32  1  0  0  0
 31 33  1  0  0  0
 33 34  1  0  0  0
 22 23  2  0  0  0
 23 24  1  0  0  0
  5  6  1  0  0  0
  6  7  2  0  0  0
  7  8  1  0  0  0
  8  9  1  0  0  0
  9 10  2  0  0  0
 10 11  1  0  0  0
 11 12  1  0  0  0
  8  3  2  0  0  0
 24 19  2  0  0  0
 11  7  1  0  0  0
 34 28  1  0  0  0
 13 14  1  0  0  0
  1  2  1  0  0  0
M  END
> <minimizedAffinity>
-9.49156

$$$$



 34 37  0  0  0  0  0  0  0  0999 V2000
   -0.1424   63.8055   84.0294 N   0  0  0  0  0  0  0  0  0  0  0  0
   -0.1653   63.5014   84.9914 H   0  0  0  0  0  0  0  0  0  0  0  0
    2.6849   66.0104   84.6321 C   0  0  0  0  0  0  0  0  0  0  0  0
    1.7973   64.9897   84.7602 N   0  0  0  0  0  0  0  0  0  0  0  0
    0.7519   64.8702   83.9136 C   0  0  0  0  0  0  0  0  0  0  0  0
    0.4817   65.7004   82.8858 N   0  0  0  0  0  0  0  0  0  0  0  0
    1.3709   66.6974   82.7851 C   0  0  0  0  0  0  0  0  0  0  0  0
    2.4714   66.9244   83.5886 C   0  0  0  0  0  0  0  0  0  0  0  0
    3.1671   68.0421   83.1676 N   0  0  0  0  0  0  0  0  0  0  0  0
    2.4860   68.4900   82.1331 C   0  0  0  0  0  0  0  0  0  0  0  0
    1.3949   67.7094   81.8674 N   0  0  0  0  0  0  0  0  0  0  0  0
    0.4370   67.9076   80.8128 C   0  0  0  0  0  0  0  0  0  0  0  0
    3.7612   66.1464   85.5008 N   0  0  0  0  0  0  0  0  0  0  0  0
    3.8034   67.0759   85.9102 H   0  0  0  0  0  0  0  0  0  0  0  0
    5.0208   65.4948   85.1921 C   0  0  0  0  0  0  0  0  0  0  0  0
    7.5075   65.7779   84.6842 C   0  0  0  0  0  0  0  0  0  0  0  0
    6.1432   66.4637   84.7748 C   0  0  0  0  0  0  0  0  0  0  0  0
    6.2263   67.7081   85.6585 C   0  0  0  0  0  0  0  0  0  0  0  0
   -0.8640   63.0408   83.1068 C   0  0  0  0  0  0  0  0  0  0  0  0
   -0.5656   61.7083   82.7965 C   0  0  0  0  0  0  0  0  0  0  0  0
   -1.2942   61.0056   81.8309 C   0  0  0  0  0  0  0  0  0  0  0  0
   -2.3286   61.6453   81.1489 C   0  0  0  0  0  0  0  0  0  0  0  0
   -2.6479   62.9717   81.4313 C   0  0  0  0  0  0  0  0  0  0  0  0
   -1.9130   63.6596   82.4019 C   0  0  0  0  0  0  0  0  0  0  0  0
   -3.2257   60.7516   79.9077 S   0  0  0  0  0  0  0  0  0  0  0  0
   -4.5319   61.3593   79.7555 O   0  0  0  0  0  0  0  0  0  0  0  0
   -3.0845   59.3430   80.2063 O   0  0  0  0  0  0  0  0  0  0  0  0
   -2.3435   61.0895   78.4847 N   0  0  0  0  0  0  0  0  0  0  0  0
   -0.8605   61.1783   78.6701 C   0  0  0  0  0  0  0  0  0  0  0  0
   -0.1581   61.3883   77.3122 C   0  0  0  0  0  0  0  0  0  0  0  0
   -0.6390   62.5440   76.5273 N   0  0  0  0  0  0  0  0  0  0  0  0
   -0.1921   63.8131   77.0977 C   0  0  0  0  0  0  0  0  0  0  0  0
   -2.1120   62.4795   76.4210 C   0  0  0  0  0  0  0  0  0  0  0  0
   -2.8609   62.2907   77.7564 C   0  0  0  0  0  0  0  0  0  0  0  0
 16 17  1  0  0  0
 17 18  1  0  0  0
 17 15  1  0  0  0
 15 13  1  0  0  0
 13  3  1  0  0  0
  3  4  1  0  0  0
  4  5  2  0  0  0
  5  1  1  0  0  0
  1 19  1  0  0  0
 19 20  1  0  0  0
 20 21  2  0  0  0
 21 22  1  0  0  0
 22 25  1  0  0  0
 25 26  2  0  0  0
 25 27  2  0  0  0
 25 28  1  0  0  0
 28 29  1  0  0  0
 29 30  1  0  0  0
 30 31  1  0  0  0
 31 32  1  0  0  0
 31 33  1  0  0  0
 33 34  1  0  0  0
 22 23  2  0  0  0
 23 24  1  0  0  0
  5  6  1  0  0  0
  6  7  2  0  0  0
  7  8  1  0  0  0
  8  9  1  0  0  0
  9 10  2  0  0  0
 10 11  1  0  0  0
 11 12  1  0  0  0
  8  3  2  0  0  0
 24 19  2  0  0  0
 11  7  1  0  0  0
 34 28  1  0  0  0
 13 14  1  0  0  0
  1  2  1  0  0  0
M  END
> <minimizedAffinity>
-9.45747

$$$$



 34 37  0  0  0  0  0  0  0  0999 V2000
    1.9473   65.7697   85.1123 N   0  0  0  0  0  0  0  0  0  0  0  0
    2.5097   65.7556   85.9501 H   0  0  0  0  0  0  0  0  0  0  0  0
   -0.6956   63.4263   84.2509 C   0  0  0  0  0  0  0  0  0  0  0  0
    0.2699   64.3759   84.1414 N   0  0  0  0  0  0  0  0  0  0  0  0
    0.9368   64.8149   85.2307 C   0  0  0  0  0  0  0  0  0  0  0  0
    0.7425   64.3794   86.4921 N   0  0  0  0  0  0  0  0  0  0  0  0
   -0.2155   63.4463   86.5702 C   0  0  0  0  0  0  0  0  0  0  0  0
   -0.9641   62.9237   85.5335 C   0  0  0  0  0  0  0  0  0  0  0  0
   -1.8458   61.9650   85.9964 N   0  0  0  0  0  0  0  0  0  0  0  0
   -1.6403   61.9217   87.2966 C   0  0  0  0  0  0  0  0  0  0  0  0
   -0.6658   62.7987   87.6859 N   0  0  0  0  0  0  0  0  0  0  0  0
   -0.1905   63.0102   89.0270 C   0  0  0  0  0  0  0  0  0  0  0  0
   -1.3921   62.9711   83.1376 N   0  0  0  0  0  0  0  0  0  0  0  0
   -2.3570   63.2910   83.1367 H   0  0  0  0  0  0  0  0  0  0  0  0
   -1.1290   61.6412   82.6195 C   0  0  0  0  0  0  0  0  0  0  0  0
    1.3263   61.1986   82.0740 C   0  0  0  0  0  0  0  0  0  0  0  0
   -0.0452   61.5964   81.5258 C   0  0  0  0  0  0  0  0  0  0  0  0
    0.0543   62.8921   80.7209 C   0  0  0  0  0  0  0  0  0  0  0  0
    2.2313   66.7696   84.1763 C   0  0  0  0  0  0  0  0  0  0  0  0
    3.2491   67.7183   84.3343 C   0  0  0  0  0  0  0  0  0  0  0  0
    3.4588   68.7250   83.3857 C   0  0  0  0  0  0  0  0  0  0  0  0
    2.6299   68.7998   82.2670 C   0  0  0  0  0  0  0  0  0  0  0  0
    1.6056   67.8736   82.0825 C   0  0  0  0  0  0  0  0  0  0  0  0
    1.4110   66.8708   83.0375 C   0  0  0  0  0  0  0  0  0  0  0  0
    2.8889   70.0974   81.0867 S   0  0  0  0  0  0  0  0  0  0  0  0
    2.0939   69.8151   79.9091 O   0  0  0  0  0  0  0  0  0  0  0  0
    4.3163   70.3144   80.9933 O   0  0  0  0  0  0  0  0  0  0  0  0
    2.1891   71.4536   81.8541 N   0  0  0  0  0  0  0  0  0  0  0  0
    1.2030   72.2096   81.0189 C   0  0  0  0  0  0  0  0  0  0  0  0
    0.5631   73.3498   81.8386 C   0  0  0  0  0  0  0  0  0  0  0  0
    1.5182   74.2872   82.4645 N   0  0  0  0  0  0  0  0  0  0  0  0
    2.1369   75.1721   81.4798 C   0  0  0  0  0  0  0  0  0  0  0  0
    2.5285   73.5176   83.2211 C   0  0  0  0  0  0  0  0  0  0  0  0
    3.2118   72.3786   82.4366 C   0  0  0  0  0  0  0  0  0  0  0  0
 16 17  1  0  0  0
 17 18  1  0  0  0
 17 15  1  0  0  0
 15 13  1  0  0  0
 13  3  1  0  0  0
  3  4  1  0  0  0
  4  5  2  0  0  0
  5  1  1  0  0  0
  1 19  1  0  0  0
 19 20  1  0  0  0
 20 21  2  0  0  0
 21 22  1  0  0  0
 22 25  1  0  0  0
 25 26  2  0  0  0
 25 27  2  0  0  0
 25 28  1  0  0  0
 28 29  1  0  0  0
 29 30  1  0  0  0
 30 31  1  0  0  0
 31 32  1  0  0  0
 31 33  1  0  0  0
 33 34  1  0  0  0
 22 23  2  0  0  0
 23 24  1  0  0  0
  5  6  1  0  0  0
  6  7  2  0  0  0
  7  8  1  0  0  0
  8  9  1  0  0  0
  9 10  2  0  0  0
 10 11  1  0  0  0
 11 12  1  0  0  0
  8  3  2  0  0  0
 24 19  2  0  0  0
 11  7  1  0  0  0
 34 28  1  0  0  0
 13 14  1  0  0  0
  1  2  1  0  0  0
M  END
> <minimizedAffinity>
-9.34085

$$$$



 34 37  0  0  0  0  0  0  0  0999 V2000
   -2.2818   61.5050   84.1827 N   0  0  0  0  0  0  0  0  0  0  0  0
   -2.7349   60.8816   84.8343 H   0  0  0  0  0  0  0  0  0  0  0  0
    0.2416   64.0168   84.9186 C   0  0  0  0  0  0  0  0  0  0  0  0
   -0.6564   63.2523   84.2440 N   0  0  0  0  0  0  0  0  0  0  0  0
   -1.3397   62.2703   84.8707 C   0  0  0  0  0  0  0  0  0  0  0  0
   -1.2268   61.9524   86.1764 N   0  0  0  0  0  0  0  0  0  0  0  0
   -0.3339   62.7201   86.8153 C   0  0  0  0  0  0  0  0  0  0  0  0
    0.4233   63.7459   86.2837 C   0  0  0  0  0  0  0  0  0  0  0  0
    1.2222   64.3226   87.2532 N   0  0  0  0  0  0  0  0  0  0  0  0
    0.9596   63.6432   88.3505 C   0  0  0  0  0  0  0  0  0  0  0  0
    0.0270   62.6671   88.1320 N   0  0  0  0  0  0  0  0  0  0  0  0
   -0.4903   61.7440   89.1064 C   0  0  0  0  0  0  0  0  0  0  0  0
    0.9543   65.0263   84.2826 N   0  0  0  0  0  0  0  0  0  0  0  0
    0.9844   65.8773   84.8378 H   0  0  0  0  0  0  0  0  0  0  0  0
    0.8634   65.1721   82.8415 C   0  0  0  0  0  0  0  0  0  0  0  0
    1.8410   66.6339   80.9896 C   0  0  0  0  0  0  0  0  0  0  0  0
    1.1191   66.6052   82.3380 C   0  0  0  0  0  0  0  0  0  0  0  0
    1.8489   67.4817   83.3557 C   0  0  0  0  0  0  0  0  0  0  0  0
   -2.6037   61.3497   82.8303 C   0  0  0  0  0  0  0  0  0  0  0  0
   -2.7263   60.1071   82.1963 C   0  0  0  0  0  0  0  0  0  0  0  0
   -3.0058   60.0128   80.8288 C   0  0  0  0  0  0  0  0  0  0  0  0
   -3.1497   61.1763   80.0740 C   0  0  0  0  0  0  0  0  0  0  0  0
   -3.0296   62.4280   80.6738 C   0  0  0  0  0  0  0  0  0  0  0  0
   -2.7539   62.5059   82.0426 C   0  0  0  0  0  0  0  0  0  0  0  0
   -3.4761   61.0423   78.3363 S   0  0  0  0  0  0  0  0  0  0  0  0
   -4.5401   61.9641   77.9946 O   0  0  0  0  0  0  0  0  0  0  0  0
   -3.5767   59.6328   78.0256 O   0  0  0  0  0  0  0  0  0  0  0  0
   -2.0412   61.6456   77.6330 N   0  0  0  0  0  0  0  0  0  0  0  0
   -0.8053   61.4436   78.4536 C   0  0  0  0  0  0  0  0  0  0  0  0
    0.4394   61.9351   77.6851 C   0  0  0  0  0  0  0  0  0  0  0  0
    0.3730   63.3316   77.2076 N   0  0  0  0  0  0  0  0  0  0  0  0
    0.5154   64.2886   78.3028 C   0  0  0  0  0  0  0  0  0  0  0  0
   -0.8899   63.5315   76.4658 C   0  0  0  0  0  0  0  0  0  0  0  0
   -2.1657   63.0739   77.2026 C   0  0  0  0  0  0  0  0  0  0  0  0
 16 17  1  0  0  0
 17 18  1  0  0  0
 17 15  1  0  0  0
 15 13  1  0  0  0
 13  3  1  0  0  0
  3  4  1  0  0  0
  4  5  2  0  0  0
  5  1  1  0  0  0
  1 19  1  0  0  0
 19 20  1  0  0  0
 20 21  2  0  0  0
 21 22  1  0  0  0
 22 25  1  0  0  0
 25 26  2  0  0  0
 25 27  2  0  0  0
 25 28  1  0  0  0
 28 29  1  0  0  0
 29 30  1  0  0  0
 30 31  1  0  0  0
 31 32  1  0  0  0
 31 33  1  0  0  0
 33 34  1  0  0  0
 22 23  2  0  0  0
 23 24  1  0  0  0
  5  6  1  0  0  0
  6  7  2  0  0  0
  7  8  1  0  0  0
  8  9  1  0  0  0
  9 10  2  0  0  0
 10 11  1  0  0  0
 11 12  1  0  0  0
  8  3  2  0  0  0
 24 19  2  0  0  0
 11  7  1  0  0  0
 34 28  1  0  0  0
 13 14  1  0  0  0
  1  2  1  0  0  0
M  END
> <minimizedAffinity>
-9.28339

$$$$



 34 37  0  0  0  0  0  0  0  0999 V2000
    0.1688   67.6175   79.8622 N   0  0  0  0  0  0  0  0  0  0  0  0
   -0.0331   67.8611   78.9039 H   0  0  0  0  0  0  0  0  0  0  0  0
    1.5259   69.9921   82.2577 C   0  0  0  0  0  0  0  0  0  0  0  0
    1.3085   68.8445   81.5635 N   0  0  0  0  0  0  0  0  0  0  0  0
    0.3711   68.7888   80.5928 C   0  0  0  0  0  0  0  0  0  0  0  0
   -0.4150   69.8147   80.2079 N   0  0  0  0  0  0  0  0  0  0  0  0
   -0.1806   70.9313   80.9101 C   0  0  0  0  0  0  0  0  0  0  0  0
    0.7432   71.1077   81.9219 C   0  0  0  0  0  0  0  0  0  0  0  0
    0.7102   72.4045   82.3991 N   0  0  0  0  0  0  0  0  0  0  0  0
   -0.2311   72.9967   81.6935 C   0  0  0  0  0  0  0  0  0  0  0  0
   -0.7950   72.1451   80.7839 N   0  0  0  0  0  0  0  0  0  0  0  0
   -1.8469   72.4596   79.8546 C   0  0  0  0  0  0  0  0  0  0  0  0
    2.4840   70.0594   83.2622 N   0  0  0  0  0  0  0  0  0  0  0  0
    2.7786   71.0155   83.4422 H   0  0  0  0  0  0  0  0  0  0  0  0
    3.4912   69.0196   83.3656 C   0  0  0  0  0  0  0  0  0  0  0  0
    4.6189   67.7555   85.2766 C   0  0  0  0  0  0  0  0  0  0  0  0
    3.3012   68.0788   84.5703 C   0  0  0  0  0  0  0  0  0  0  0  0
    2.5510   66.7937   84.2205 C   0  0  0  0  0  0  0  0  0  0  0  0
    0.0652   66.2657   80.2068 C   0  0  0  0  0  0  0  0  0  0  0  0
   -0.3397   65.8120   81.4682 C   0  0  0  0  0  0  0  0  0  0  0  0
   -0.3814   64.4469   81.7713 C   0  0  0  0  0  0  0  0  0  0  0  0
    0.0030   63.5159   80.8071 C   0  0  0  0  0  0  0  0  0  0  0  0
    0.4149   63.9349   79.5439 C   0  0  0  0  0  0  0  0  0  0  0  0
    0.4474   65.3027   79.2547 C   0  0  0  0  0  0  0  0  0  0  0  0
   -0.0278   61.7903   81.2137 S   0  0  0  0  0  0  0  0  0  0  0  0
   -0.4054   61.6511   82.6054 O   0  0  0  0  0  0  0  0  0  0  0  0
    1.1958   61.2077   80.7071 O   0  0  0  0  0  0  0  0  0  0  0  0
   -1.3298   61.2029   80.2769 N   0  0  0  0  0  0  0  0  0  0  0  0
   -0.9637   60.7746   78.8898 C   0  0  0  0  0  0  0  0  0  0  0  0
   -2.1887   60.1731   78.1694 C   0  0  0  0  0  0  0  0  0  0  0  0
   -3.3843   61.0402   78.1312 N   0  0  0  0  0  0  0  0  0  0  0  0
   -3.2213   62.1511   77.1958 C   0  0  0  0  0  0  0  0  0  0  0  0
   -3.6838   61.5147   79.4988 C   0  0  0  0  0  0  0  0  0  0  0  0
   -2.4940   62.1436   80.2528 C   0  0  0  0  0  0  0  0  0  0  0  0
 16 17  1  0  0  0
 17 18  1  0  0  0
 17 15  1  0  0  0
 15 13  1  0  0  0
 13  3  1  0  0  0
  3  4  1  0  0  0
  4  5  2  0  0  0
  5  1  1  0  0  0
  1 19  1  0  0  0
 19 20  1  0  0  0
 20 21  2  0  0  0
 21 22  1  0  0  0
 22 25  1  0  0  0
 25 26  2  0  0  0
 25 27  2  0  0  0
 25 28  1  0  0  0
 28 29  1  0  0  0
 29 30  1  0  0  0
 30 31  1  0  0  0
 31 32  1  0  0  0
 31 33  1  0  0  0
 33 34  1  0  0  0
 22 23  2  0  0  0
 23 24  1  0  0  0
  5  6  1  0  0  0
  6  7  2  0  0  0
  7  8  1  0  0  0
  8  9  1  0  0  0
  9 10  2  0  0  0
 10 11  1  0  0  0
 11 12  1  0  0  0
  8  3  2  0  0  0
 24 19  2  0  0  0
 11  7  1  0  0  0
 34 28  1  0  0  0
 13 14  1  0  0  0
  1  2  1  0  0  0
M  END
> <minimizedAffinity>
-9.27795

$$$$



 34 37  0  0  0  0  0  0  0  0999 V2000
   -0.2542   64.7424   80.5223 N   0  0  0  0  0  0  0  0  0  0  0  0
   -0.5091   64.6667   79.5489 H   0  0  0  0  0  0  0  0  0  0  0  0
   -0.8327   62.2939   83.1471 C   0  0  0  0  0  0  0  0  0  0  0  0
   -0.3497   63.3708   82.4739 N   0  0  0  0  0  0  0  0  0  0  0  0
   -0.7296   63.6205   81.2022 C   0  0  0  0  0  0  0  0  0  0  0  0
   -1.5969   62.8758   80.4867 N   0  0  0  0  0  0  0  0  0  0  0  0
   -2.0546   61.8208   81.1739 C   0  0  0  0  0  0  0  0  0  0  0  0
   -1.7383   61.4624   82.4700 C   0  0  0  0  0  0  0  0  0  0  0  0
   -2.4211   60.3211   82.8466 N   0  0  0  0  0  0  0  0  0  0  0  0
   -3.1280   59.9891   81.7861 C   0  0  0  0  0  0  0  0  0  0  0  0
   -2.9371   60.8659   80.7541 N   0  0  0  0  0  0  0  0  0  0  0  0
   -3.5506   60.8049   79.4545 C   0  0  0  0  0  0  0  0  0  0  0  0
   -0.4445   62.0242   84.4540 N   0  0  0  0  0  0  0  0  0  0  0  0
   -0.3918   61.0254   84.6358 H   0  0  0  0  0  0  0  0  0  0  0  0
   -0.9116   62.8754   85.5327 C   0  0  0  0  0  0  0  0  0  0  0  0
   -0.1812   63.9345   87.7388 C   0  0  0  0  0  0  0  0  0  0  0  0
    0.2157   63.5891   86.3025 C   0  0  0  0  0  0  0  0  0  0  0  0
    0.7498   64.8266   85.5815 C   0  0  0  0  0  0  0  0  0  0  0  0
    0.5696   65.8151   80.8792 C   0  0  0  0  0  0  0  0  0  0  0  0
    0.6672   66.3232   82.1804 C   0  0  0  0  0  0  0  0  0  0  0  0
    1.4740   67.4285   82.4710 C   0  0  0  0  0  0  0  0  0  0  0  0
    2.1843   68.0507   81.4451 C   0  0  0  0  0  0  0  0  0  0  0  0
    2.1055   67.5722   80.1390 C   0  0  0  0  0  0  0  0  0  0  0  0
    1.2978   66.4641   79.8650 C   0  0  0  0  0  0  0  0  0  0  0  0
    3.1812   69.4677   81.8223 S   0  0  0  0  0  0  0  0  0  0  0  0
    3.8836   69.8704   80.6210 O   0  0  0  0  0  0  0  0  0  0  0  0
    3.8955   69.1768   83.0464 O   0  0  0  0  0  0  0  0  0  0  0  0
    2.0173   70.6731   82.1538 N   0  0  0  0  0  0  0  0  0  0  0  0
    0.8635   70.7125   81.2005 C   0  0  0  0  0  0  0  0  0  0  0  0
   -0.1706   71.7672   81.6475 C   0  0  0  0  0  0  0  0  0  0  0  0
    0.3662   73.1291   81.8472 N   0  0  0  0  0  0  0  0  0  0  0  0
    0.6735   73.7846   80.5778 C   0  0  0  0  0  0  0  0  0  0  0  0
    1.5505   73.0597   82.7291 C   0  0  0  0  0  0  0  0  0  0  0  0
    2.6232   72.0329   82.3112 C   0  0  0  0  0  0  0  0  0  0  0  0
 16 17  1  0  0  0
 17 18  1  0  0  0
 17 15  1  0  0  0
 15 13  1  0  0  0
 13  3  1  0  0  0
  3  4  1  0  0  0
  4  5  2  0  0  0
  5  1  1  0  0  0
  1 19  1  0  0  0
 19 20  1  0  0  0
 20 21  2  0  0  0
 21 22  1  0  0  0
 22 25  1  0  0  0
 25 26  2  0  0  0
 25 27  2  0  0  0
 25 28  1  0  0  0
 28 29  1  0  0  0
 29 30  1  0  0  0
 30 31  1  0  0  0
 31 32  1  0  0  0
 31 33  1  0  0  0
 33 34  1  0  0  0
 22 23  2  0  0  0
 23 24  1  0  0  0
  5  6  1  0  0  0
  6  7  2  0  0  0
  7  8  1  0  0  0
  8  9  1  0  0  0
  9 10  2  0  0  0
 10 11  1  0  0  0
 11 12  1  0  0  0
  8  3  2  0  0  0
 24 19  2  0  0  0
 11  7  1  0  0  0
 34 28  1  0  0  0
 13 14  1  0  0  0
  1  2  1  0  0  0
M  END
> <minimizedAffinity>
-9.16840

$$$$



 34 37  0  0  0  0  0  0  0  0999 V2000
   -0.3413   64.7565   80.9173 N   0  0  0  0  0  0  0  0  0  0  0  0
   -0.4473   64.6148   79.9238 H   0  0  0  0  0  0  0  0  0  0  0  0
   -1.7162   62.7052   83.5858 C   0  0  0  0  0  0  0  0  0  0  0  0
   -1.1100   63.7296   82.9307 N   0  0  0  0  0  0  0  0  0  0  0  0
   -0.9388   63.6910   81.5916 C   0  0  0  0  0  0  0  0  0  0  0  0
   -1.3369   62.6879   80.7830 N   0  0  0  0  0  0  0  0  0  0  0  0
   -1.9286   61.6918   81.4556 C   0  0  0  0  0  0  0  0  0  0  0  0
   -2.1558   61.6170   82.8161 C   0  0  0  0  0  0  0  0  0  0  0  0
   -2.8092   60.4437   83.1432 N   0  0  0  0  0  0  0  0  0  0  0  0
   -2.9603   59.8142   81.9962 C   0  0  0  0  0  0  0  0  0  0  0  0
   -2.4435   60.5306   80.9522 N   0  0  0  0  0  0  0  0  0  0  0  0
   -2.4379   60.1422   79.5672 C   0  0  0  0  0  0  0  0  0  0  0  0
   -1.8928   62.7318   84.9641 N   0  0  0  0  0  0  0  0  0  0  0  0
   -2.5691   63.4362   85.2465 H   0  0  0  0  0  0  0  0  0  0  0  0
   -0.7564   62.5085   85.8388 C   0  0  0  0  0  0  0  0  0  0  0  0
    0.8674   64.4672   86.0602 C   0  0  0  0  0  0  0  0  0  0  0  0
   -0.3417   63.7455   86.6577 C   0  0  0  0  0  0  0  0  0  0  0  0
   -0.1065   63.4395   88.1367 C   0  0  0  0  0  0  0  0  0  0  0  0
    0.4421   65.8425   81.3217 C   0  0  0  0  0  0  0  0  0  0  0  0
    1.0151   66.7627   80.4352 C   0  0  0  0  0  0  0  0  0  0  0  0
    1.8282   67.8048   80.8935 C   0  0  0  0  0  0  0  0  0  0  0  0
    2.0901   67.9242   82.2578 C   0  0  0  0  0  0  0  0  0  0  0  0
    1.5385   67.0226   83.1655 C   0  0  0  0  0  0  0  0  0  0  0  0
    0.7246   65.9886   82.6924 C   0  0  0  0  0  0  0  0  0  0  0  0
    3.1449   69.2329   82.8223 S   0  0  0  0  0  0  0  0  0  0  0  0
    4.1663   69.4660   81.8218 O   0  0  0  0  0  0  0  0  0  0  0  0
    3.4937   68.9413   84.1958 O   0  0  0  0  0  0  0  0  0  0  0  0
    2.1070   70.5895   82.8086 N   0  0  0  0  0  0  0  0  0  0  0  0
    1.0384   70.5533   81.7606 C   0  0  0  0  0  0  0  0  0  0  0  0
    0.1033   71.7730   81.9006 C   0  0  0  0  0  0  0  0  0  0  0  0
    0.7778   73.0874   81.8890 N   0  0  0  0  0  0  0  0  0  0  0  0
    1.2510   73.4445   80.5533 C   0  0  0  0  0  0  0  0  0  0  0  0
    1.8785   73.0770   82.8758 C   0  0  0  0  0  0  0  0  0  0  0  0
    2.8530   71.8865   82.7625 C   0  0  0  0  0  0  0  0  0  0  0  0
 16 17  1  0  0  0
 17 18  1  0  0  0
 17 15  1  0  0  0
 15 13  1  0  0  0
 13  3  1  0  0  0
  3  4  1  0  0  0
  4  5  2  0  0  0
  5  1  1  0  0  0
  1 19  1  0  0  0
 19 20  1  0  0  0
 20 21  2  0  0  0
 21 22  1  0  0  0
 22 25  1  0  0  0
 25 26  2  0  0  0
 25 27  2  0  0  0
 25 28  1  0  0  0
 28 29  1  0  0  0
 29 30  1  0  0  0
 30 31  1  0  0  0
 31 32  1  0  0  0
 31 33  1  0  0  0
 33 34  1  0  0  0
 22 23  2  0  0  0
 23 24  1  0  0  0
  5  6  1  0  0  0
  6  7  2  0  0  0
  7  8  1  0  0  0
  8  9  1  0  0  0
  9 10  2  0  0  0
 10 11  1  0  0  0
 11 12  1  0  0  0
  8  3  2  0  0  0
 24 19  2  0  0  0
 11  7  1  0  0  0
 34 28  1  0  0  0
 13 14  1  0  0  0
  1  2  1  0  0  0
M  END
> <minimizedAffinity>
-9.05035

$$$$



 34 37  0  0  0  0  0  0  0  0999 V2000
   -0.5260   64.1160   78.9112 N   0  0  0  0  0  0  0  0  0  0  0  0
   -0.4523   64.0038   77.9110 H   0  0  0  0  0  0  0  0  0  0  0  0
   -1.6696   61.6295   81.3046 C   0  0  0  0  0  0  0  0  0  0  0  0
   -1.0603   62.7218   80.7740 N   0  0  0  0  0  0  0  0  0  0  0  0
   -1.1287   62.9787   79.4498 C   0  0  0  0  0  0  0  0  0  0  0  0
   -1.7843   62.2268   78.5424 N   0  0  0  0  0  0  0  0  0  0  0  0
   -2.3729   61.1566   79.0928 C   0  0  0  0  0  0  0  0  0  0  0  0
   -2.3699   60.7898   80.4246 C   0  0  0  0  0  0  0  0  0  0  0  0
   -3.1007   59.6327   80.6190 N   0  0  0  0  0  0  0  0  0  0  0  0
   -3.5259   59.3000   79.4177 C   0  0  0  0  0  0  0  0  0  0  0  0
   -3.1101   60.1912   78.4673 N   0  0  0  0  0  0  0  0  0  0  0  0
   -3.3925   60.1336   77.0580 C   0  0  0  0  0  0  0  0  0  0  0  0
   -1.6012   61.3524   82.6648 N   0  0  0  0  0  0  0  0  0  0  0  0
   -2.5231   61.2174   83.0714 H   0  0  0  0  0  0  0  0  0  0  0  0
   -0.6005   62.0119   83.4832 C   0  0  0  0  0  0  0  0  0  0  0  0
   -0.1560   63.4393   85.5537 C   0  0  0  0  0  0  0  0  0  0  0  0
   -1.1813   63.0095   84.5030 C   0  0  0  0  0  0  0  0  0  0  0  0
   -2.4604   62.5105   85.1748 C   0  0  0  0  0  0  0  0  0  0  0  0
    0.0783   65.2483   79.4673 C   0  0  0  0  0  0  0  0  0  0  0  0
    1.3872   65.6538   79.1788 C   0  0  0  0  0  0  0  0  0  0  0  0
    1.9562   66.7707   79.8000 C   0  0  0  0  0  0  0  0  0  0  0  0
    1.2153   67.4882   80.7384 C   0  0  0  0  0  0  0  0  0  0  0  0
   -0.0882   67.1083   81.0507 C   0  0  0  0  0  0  0  0  0  0  0  0
   -0.6445   65.9919   80.4184 C   0  0  0  0  0  0  0  0  0  0  0  0
    1.9584   68.8851   81.5388 S   0  0  0  0  0  0  0  0  0  0  0  0
    0.9251   69.8624   81.8140 O   0  0  0  0  0  0  0  0  0  0  0  0
    3.1397   69.2362   80.7808 O   0  0  0  0  0  0  0  0  0  0  0  0
    2.4563   68.2413   83.0406 N   0  0  0  0  0  0  0  0  0  0  0  0
    3.6658   68.8938   83.6347 C   0  0  0  0  0  0  0  0  0  0  0  0
    3.9678   68.3039   85.0284 C   0  0  0  0  0  0  0  0  0  0  0  0
    4.1145   66.8344   85.0711 N   0  0  0  0  0  0  0  0  0  0  0  0
    5.3736   66.3955   84.4732 C   0  0  0  0  0  0  0  0  0  0  0  0
    2.9478   66.2108   84.4115 C   0  0  0  0  0  0  0  0  0  0  0  0
    2.6182   66.7536   83.0056 C   0  0  0  0  0  0  0  0  0  0  0  0
 16 17  1  0  0  0
 17 18  1  0  0  0
 17 15  1  0  0  0
 15 13  1  0  0  0
 13  3  1  0  0  0
  3  4  1  0  0  0
  4  5  2  0  0  0
  5  1  1  0  0  0
  1 19  1  0  0  0
 19 20  1  0  0  0
 20 21  2  0  0  0
 21 22  1  0  0  0
 22 25  1  0  0  0
 25 26  2  0  0  0
 25 27  2  0  0  0
 25 28  1  0  0  0
 28 29  1  0  0  0
 29 30  1  0  0  0
 30 31  1  0  0  0
 31 32  1  0  0  0
 31 33  1  0  0  0
 33 34  1  0  0  0
 22 23  2  0  0  0
 23 24  1  0  0  0
  5  6  1  0  0  0
  6  7  2  0  0  0
  7  8  1  0  0  0
  8  9  1  0  0  0
  9 10  2  0  0  0
 10 11  1  0  0  0
 11 12  1  0  0  0
  8  3  2  0  0  0
 24 19  2  0  0  0
 11  7  1  0  0  0
 34 28  1  0  0  0
 13 14  1  0  0  0
  1  2  1  0  0  0
M  END
> <minimizedAffinity>
-8.93580

$$$$
