


 34 37  0  0  0  0  0  0  0  0999 V2000
   -0.6260   61.8120   80.1486 C   0  0  0  0  0  0  0  0  0  0  0  0
   -0.2227   62.8785   80.7855 N   0  0  0  0  0  0  0  0  0  0  0  0
    0.2844   63.8585   79.9913 C   0  0  0  0  0  0  0  0  0  0  0  0
    0.3313   63.8404   78.6188 C   0  0  0  0  0  0  0  0  0  0  0  0
    0.7856   65.0978   78.2328 C   0  0  0  0  0  0  0  0  0  0  0  0
    1.0031   65.8940   79.2831 N   0  0  0  0  0  0  0  0  0  0  0  0
    0.7927   65.0928   80.3805 N   0  0  0  0  0  0  0  0  0  0  0  0
   -0.0983   62.6672   77.9235 C   0  0  0  0  0  0  0  0  0  0  0  0
   -0.0716   62.5335   76.7063 O   0  0  0  0  0  0  0  0  0  0  0  0
   -0.5622   61.6834   78.7752 N   0  0  0  0  0  0  0  0  0  0  0  0
   -0.8424   60.8303   78.3241 H   0  0  0  0  0  0  0  0  0  0  0  0
    1.0116   65.6188   81.6820 C   0  0  0  0  0  0  0  0  0  0  0  0
    0.3990   64.9437   82.7580 C   0  0  0  0  0  0  0  0  0  0  0  0
    0.6119   65.3534   84.0752 C   0  0  0  0  0  0  0  0  0  0  0  0
    1.4212   66.4530   84.3357 C   0  0  0  0  0  0  0  0  0  0  0  0
    1.9920   67.1589   83.2762 C   0  0  0  0  0  0  0  0  0  0  0  0
    1.7815   66.7602   81.9466 C   0  0  0  0  0  0  0  0  0  0  0  0
    2.3416   67.8730   80.7446 Cl  0  0  0  0  0  0  0  0  0  0  0  0
   -1.1161   60.7800   80.8951 N   0  0  0  0  0  0  0  0  0  0  0  0
   -0.4848   60.6084   81.6801 H   0  0  0  0  0  0  0  0  0  0  0  0
   -2.5250   60.6146   81.2789 C   0  0  0  0  0  0  0  0  0  0  0  0
   -3.3871   61.6694   80.5964 C   0  0  0  0  0  0  0  0  0  0  0  0
   -1.9759   61.7866   83.3351 N   0  0  0  0  0  0  0  0  0  0  0  0
   -2.6573   60.6933   82.8195 C   0  0  0  0  0  0  0  0  0  0  0  0
   -3.2550   59.8380   83.4642 O   0  0  0  0  0  0  0  0  0  0  0  0
   -1.5871   62.4142   82.6352 H   0  0  0  0  0  0  0  0  0  0  0  0
   -1.3718   62.9070   87.3623 C   0  0  0  0  0  0  0  0  0  0  0  0
   -2.6700   62.8395   86.8605 C   0  0  0  0  0  0  0  0  0  0  0  0
   -2.8971   62.4705   85.5265 C   0  0  0  0  0  0  0  0  0  0  0  0
   -1.8302   62.1663   84.6810 C   0  0  0  0  0  0  0  0  0  0  0  0
   -0.5290   62.2336   85.1884 C   0  0  0  0  0  0  0  0  0  0  0  0
   -0.3041   62.6016   86.5184 C   0  0  0  0  0  0  0  0  0  0  0  0
    0.2929   62.8869   89.0574 C   0  0  0  0  0  0  0  0  0  0  0  0
   -1.0158   63.2512   88.6362 O   0  0  0  0  0  0  0  0  0  0  0  0
 33 34  1  0  0  0
 34 27  1  0  0  0
 27 28  1  0  0  0
 28 29  2  0  0  0
 29 30  1  0  0  0
 30 23  1  0  0  0
 23 24  1  0  0  0
 24 25  2  0  0  0
 24 21  1  0  0  0
 21 22  1  0  0  0
 21 19  1  0  0  0
 19  1  1  0  0  0
  1  2  2  0  0  0
  2  3  1  0  0  0
  3  4  2  0  0  0
  4  5  1  0  0  0
  5  6  2  0  0  0
  6  7  1  0  0  0
  7 12  1  0  0  0
 12 13  2  0  0  0
 13 14  1  0  0  0
 14 15  2  0  0  0
 15 16  1  0  0  0
 16 17  2  0  0  0
 17 18  1  0  0  0
  4  8  1  0  0  0
  8  9  2  0  0  0
  8 10  1  0  0  0
 30 31  2  0  0  0
 31 32  1  0  0  0
 32 27  2  0  0  0
 10  1  1  0  0  0
  7  3  1  0  0  0
 17 12  1  0  0  0
 23 26  1  0  0  0
 19 20  1  0  0  0
 10 11  1  0  0  0
M  END
> <minimizedAffinity>
-10.72885

$$$$



 34 37  0  0  0  0  0  0  0  0999 V2000
   -1.3735   62.0812   78.5276 C   0  0  0  0  0  0  0  0  0  0  0  0
   -1.2858   62.0501   79.8303 N   0  0  0  0  0  0  0  0  0  0  0  0
   -2.0375   61.0884   80.4290 C   0  0  0  0  0  0  0  0  0  0  0  0
   -2.7918   60.1378   79.7858 C   0  0  0  0  0  0  0  0  0  0  0  0
   -3.2608   59.2826   80.7783 C   0  0  0  0  0  0  0  0  0  0  0  0
   -2.8257   59.6383   81.9901 N   0  0  0  0  0  0  0  0  0  0  0  0
   -2.1519   60.8197   81.7884 N   0  0  0  0  0  0  0  0  0  0  0  0
   -2.8975   60.1811   78.3605 C   0  0  0  0  0  0  0  0  0  0  0  0
   -3.5648   59.4025   77.6906 O   0  0  0  0  0  0  0  0  0  0  0  0
   -2.1530   61.2021   77.8022 N   0  0  0  0  0  0  0  0  0  0  0  0
   -2.2289   61.2842   76.8035 H   0  0  0  0  0  0  0  0  0  0  0  0
   -1.6128   61.5159   82.9035 C   0  0  0  0  0  0  0  0  0  0  0  0
   -2.5277   62.1696   83.7548 C   0  0  0  0  0  0  0  0  0  0  0  0
   -2.0913   62.8235   84.9081 C   0  0  0  0  0  0  0  0  0  0  0  0
   -0.7364   62.8519   85.2171 C   0  0  0  0  0  0  0  0  0  0  0  0
    0.1826   62.2516   84.3558 C   0  0  0  0  0  0  0  0  0  0  0  0
   -0.2428   61.5950   83.1901 C   0  0  0  0  0  0  0  0  0  0  0  0
    1.0211   61.1245   82.1048 Cl  0  0  0  0  0  0  0  0  0  0  0  0
   -0.6659   63.0461   77.8713 N   0  0  0  0  0  0  0  0  0  0  0  0
   -0.5032   62.7426   76.9092 H   0  0  0  0  0  0  0  0  0  0  0  0
   -0.9355   64.4884   77.9524 C   0  0  0  0  0  0  0  0  0  0  0  0
   -0.9801   65.0981   76.5567 C   0  0  0  0  0  0  0  0  0  0  0  0
   -0.3112   65.3881   80.1212 N   0  0  0  0  0  0  0  0  0  0  0  0
    0.1433   65.1711   78.8282 C   0  0  0  0  0  0  0  0  0  0  0  0
    1.2307   65.5094   78.3725 O   0  0  0  0  0  0  0  0  0  0  0  0
   -1.2230   64.9855   80.3247 H   0  0  0  0  0  0  0  0  0  0  0  0
    1.6814   67.1339   83.4107 C   0  0  0  0  0  0  0  0  0  0  0  0
    1.4840   67.8869   82.2549 C   0  0  0  0  0  0  0  0  0  0  0  0
    0.8255   67.3299   81.1488 C   0  0  0  0  0  0  0  0  0  0  0  0
    0.3589   66.0160   81.1859 C   0  0  0  0  0  0  0  0  0  0  0  0
    0.5574   65.2639   82.3479 C   0  0  0  0  0  0  0  0  0  0  0  0
    1.2139   65.8203   83.4499 C   0  0  0  0  0  0  0  0  0  0  0  0
    3.4809   68.3376   84.3894 C   0  0  0  0  0  0  0  0  0  0  0  0
    2.3044   67.5553   84.5519 O   0  0  0  0  0  0  0  0  0  0  0  0
 33 34  1  0  0  0
 34 27  1  0  0  0
 27 28  1  0  0  0
 28 29  2  0  0  0
 29 30  1  0  0  0
 30 23  1  0  0  0
 23 24  1  0  0  0
 24 25  2  0  0  0
 24 21  1  0  0  0
 21 22  1  0  0  0
 21 19  1  0  0  0
 19  1  1  0  0  0
  1  2  2  0  0  0
  2  3  1  0  0  0
  3  4  2  0  0  0
  4  5  1  0  0  0
  5  6  2  0  0  0
  6  7  1  0  0  0
  7 12  1  0  0  0
 12 13  2  0  0  0
 13 14  1  0  0  0
 14 15  2  0  0  0
 15 16  1  0  0  0
 16 17  2  0  0  0
 17 18  1  0  0  0
  4  8  1  0  0  0
  8  9  2  0  0  0
  8 10  1  0  0  0
 30 31  2  0  0  0
 31 32  1  0  0  0
 32 27  2  0  0  0
 10  1  1  0  0  0
  7  3  1  0  0  0
 17 12  1  0  0  0
 23 26  1  0  0  0
 19 20  1  0  0  0
 10 11  1  0  0  0
M  END
> <minimizedAffinity>
-10.48574

$$$$



 34 37  0  0  0  0  0  0  0  0999 V2000
    3.0026   68.7822   83.0029 C   0  0  0  0  0  0  0  0  0  0  0  0
    2.3384   67.9702   82.2249 N   0  0  0  0  0  0  0  0  0  0  0  0
    1.2731   68.5309   81.5932 C   0  0  0  0  0  0  0  0  0  0  0  0
    0.9050   69.8527   81.6519 C   0  0  0  0  0  0  0  0  0  0  0  0
   -0.1378   70.0024   80.7428 C   0  0  0  0  0  0  0  0  0  0  0  0
   -0.4209   68.8577   80.1152 N   0  0  0  0  0  0  0  0  0  0  0  0
    0.3835   67.9191   80.7170 N   0  0  0  0  0  0  0  0  0  0  0  0
    1.6248   70.7376   82.5141 C   0  0  0  0  0  0  0  0  0  0  0  0
    1.3632   71.9247   82.6643 O   0  0  0  0  0  0  0  0  0  0  0  0
    2.6686   70.1119   83.1678 N   0  0  0  0  0  0  0  0  0  0  0  0
    3.1776   70.6953   83.8084 H   0  0  0  0  0  0  0  0  0  0  0  0
    0.2801   66.5568   80.3270 C   0  0  0  0  0  0  0  0  0  0  0  0
   -0.6852   65.7713   80.9903 C   0  0  0  0  0  0  0  0  0  0  0  0
   -0.8986   64.4406   80.6269 C   0  0  0  0  0  0  0  0  0  0  0  0
   -0.1392   63.8700   79.6122 C   0  0  0  0  0  0  0  0  0  0  0  0
    0.8530   64.6228   78.9832 C   0  0  0  0  0  0  0  0  0  0  0  0
    1.0810   65.9606   79.3428 C   0  0  0  0  0  0  0  0  0  0  0  0
    2.4991   66.6781   78.6566 Cl  0  0  0  0  0  0  0  0  0  0  0  0
    4.0647   68.2691   83.6893 N   0  0  0  0  0  0  0  0  0  0  0  0
    4.8740   68.8779   83.5530 H   0  0  0  0  0  0  0  0  0  0  0  0
    4.0038   67.7373   85.0580 C   0  0  0  0  0  0  0  0  0  0  0  0
    5.3823   67.7827   85.7055 C   0  0  0  0  0  0  0  0  0  0  0  0
    2.0567   66.2844   85.0323 N   0  0  0  0  0  0  0  0  0  0  0  0
    3.4443   66.2940   85.0310 C   0  0  0  0  0  0  0  0  0  0  0  0
    4.1790   65.3123   85.0624 O   0  0  0  0  0  0  0  0  0  0  0  0
    1.6250   67.2017   84.9495 H   0  0  0  0  0  0  0  0  0  0  0  0
   -0.5320   62.9550   85.2630 C   0  0  0  0  0  0  0  0  0  0  0  0
   -0.1260   63.4180   84.0130 C   0  0  0  0  0  0  0  0  0  0  0  0
    0.7329   64.5221   83.9096 C   0  0  0  0  0  0  0  0  0  0  0  0
    1.1936   65.1746   85.0530 C   0  0  0  0  0  0  0  0  0  0  0  0
    0.7855   64.7063   86.3057 C   0  0  0  0  0  0  0  0  0  0  0  0
   -0.0707   63.6056   86.4074 C   0  0  0  0  0  0  0  0  0  0  0  0
   -2.7515   62.1786   85.6030 C   0  0  0  0  0  0  0  0  0  0  0  0
   -1.3616   61.8952   85.5008 O   0  0  0  0  0  0  0  0  0  0  0  0
 33 34  1  0  0  0
 34 27  1  0  0  0
 27 28  1  0  0  0
 28 29  2  0  0  0
 29 30  1  0  0  0
 30 23  1  0  0  0
 23 24  1  0  0  0
 24 25  2  0  0  0
 24 21  1  0  0  0
 21 22  1  0  0  0
 21 19  1  0  0  0
 19  1  1  0  0  0
  1  2  2  0  0  0
  2  3  1  0  0  0
  3  4  2  0  0  0
  4  5  1  0  0  0
  5  6  2  0  0  0
  6  7  1  0  0  0
  7 12  1  0  0  0
 12 13  2  0  0  0
 13 14  1  0  0  0
 14 15  2  0  0  0
 15 16  1  0  0  0
 16 17  2  0  0  0
 17 18  1  0  0  0
  4  8  1  0  0  0
  8  9  2  0  0  0
  8 10  1  0  0  0
 30 31  2  0  0  0
 31 32  1  0  0  0
 32 27  2  0  0  0
 10  1  1  0  0  0
  7  3  1  0  0  0
 17 12  1  0  0  0
 23 26  1  0  0  0
 19 20  1  0  0  0
 10 11  1  0  0  0
M  END
> <minimizedAffinity>
-10.29682

$$$$



 34 37  0  0  0  0  0  0  0  0999 V2000
    0.9116   65.3222   85.0681 C   0  0  0  0  0  0  0  0  0  0  0  0
    0.3363   64.5575   84.1793 N   0  0  0  0  0  0  0  0  0  0  0  0
   -0.3127   63.4781   84.6913 C   0  0  0  0  0  0  0  0  0  0  0  0
   -0.4654   63.1868   86.0247 C   0  0  0  0  0  0  0  0  0  0  0  0
   -1.3152   62.0865   86.0832 C   0  0  0  0  0  0  0  0  0  0  0  0
   -1.7092   61.6950   84.8684 N   0  0  0  0  0  0  0  0  0  0  0  0
   -1.0050   62.4922   83.9971 N   0  0  0  0  0  0  0  0  0  0  0  0
    0.1760   64.0172   86.9960 C   0  0  0  0  0  0  0  0  0  0  0  0
    0.1299   63.8319   88.2059 O   0  0  0  0  0  0  0  0  0  0  0  0
    0.8595   65.0735   86.4254 N   0  0  0  0  0  0  0  0  0  0  0  0
    1.3510   65.6608   87.0760 H   0  0  0  0  0  0  0  0  0  0  0  0
   -1.1391   62.2863   82.5977 C   0  0  0  0  0  0  0  0  0  0  0  0
   -2.3939   62.5783   82.0239 C   0  0  0  0  0  0  0  0  0  0  0  0
   -2.5955   62.4657   80.6473 C   0  0  0  0  0  0  0  0  0  0  0  0
   -1.5560   62.0416   79.8279 C   0  0  0  0  0  0  0  0  0  0  0  0
   -0.3254   61.7020   80.3908 C   0  0  0  0  0  0  0  0  0  0  0  0
   -0.1111   61.8059   81.7744 C   0  0  0  0  0  0  0  0  0  0  0  0
    1.3696   61.1152   82.3461 Cl  0  0  0  0  0  0  0  0  0  0  0  0
    1.6061   66.4051   84.6127 N   0  0  0  0  0  0  0  0  0  0  0  0
    1.4832   67.1788   85.2687 H   0  0  0  0  0  0  0  0  0  0  0  0
    2.9701   66.3609   84.0674 C   0  0  0  0  0  0  0  0  0  0  0  0
    3.9291   65.7605   85.0880 C   0  0  0  0  0  0  0  0  0  0  0  0
    2.4831   68.3846   82.8143 N   0  0  0  0  0  0  0  0  0  0  0  0
    3.4117   67.7860   83.6539 C   0  0  0  0  0  0  0  0  0  0  0  0
    4.4863   68.2606   84.0066 O   0  0  0  0  0  0  0  0  0  0  0  0
    1.6257   67.8536   82.6810 H   0  0  0  0  0  0  0  0  0  0  0  0
    2.7875   72.1158   80.8586 C   0  0  0  0  0  0  0  0  0  0  0  0
    2.0306   72.0164   82.0243 C   0  0  0  0  0  0  0  0  0  0  0  0
    1.9135   70.7887   82.6922 C   0  0  0  0  0  0  0  0  0  0  0  0
    2.5502   69.6485   82.2019 C   0  0  0  0  0  0  0  0  0  0  0  0
    3.3103   69.7522   81.0329 C   0  0  0  0  0  0  0  0  0  0  0  0
    3.4262   70.9768   80.3681 C   0  0  0  0  0  0  0  0  0  0  0  0
    4.1940   73.9571   80.3330 C   0  0  0  0  0  0  0  0  0  0  0  0
    2.9813   73.2466   80.1159 O   0  0  0  0  0  0  0  0  0  0  0  0
 33 34  1  0  0  0
 34 27  1  0  0  0
 27 28  1  0  0  0
 28 29  2  0  0  0
 29 30  1  0  0  0
 30 23  1  0  0  0
 23 24  1  0  0  0
 24 25  2  0  0  0
 24 21  1  0  0  0
 21 22  1  0  0  0
 21 19  1  0  0  0
 19  1  1  0  0  0
  1  2  2  0  0  0
  2  3  1  0  0  0
  3  4  2  0  0  0
  4  5  1  0  0  0
  5  6  2  0  0  0
  6  7  1  0  0  0
  7 12  1  0  0  0
 12 13  2  0  0  0
 13 14  1  0  0  0
 14 15  2  0  0  0
 15 16  1  0  0  0
 16 17  2  0  0  0
 17 18  1  0  0  0
  4  8  1  0  0  0
  8  9  2  0  0  0
  8 10  1  0  0  0
 30 31  2  0  0  0
 31 32  1  0  0  0
 32 27  2  0  0  0
 10  1  1  0  0  0
  7  3  1  0  0  0
 17 12  1  0  0  0
 23 26  1  0  0  0
 19 20  1  0  0  0
 10 11  1  0  0  0
M  END
> <minimizedAffinity>
-10.23242

$$$$



 34 37  0  0  0  0  0  0  0  0999 V2000
   -1.7656   62.4976   84.0420 C   0  0  0  0  0  0  0  0  0  0  0  0
   -1.3421   63.2203   83.0400 N   0  0  0  0  0  0  0  0  0  0  0  0
   -1.4859   62.6405   81.8187 C   0  0  0  0  0  0  0  0  0  0  0  0
   -2.0885   61.4326   81.5655 C   0  0  0  0  0  0  0  0  0  0  0  0
   -2.1429   61.3127   80.1803 C   0  0  0  0  0  0  0  0  0  0  0  0
   -1.6276   62.3813   79.5662 N   0  0  0  0  0  0  0  0  0  0  0  0
   -1.1240   63.1605   80.5809 N   0  0  0  0  0  0  0  0  0  0  0  0
   -2.5398   60.6366   82.6642 C   0  0  0  0  0  0  0  0  0  0  0  0
   -3.0624   59.5344   82.5536 O   0  0  0  0  0  0  0  0  0  0  0  0
   -2.3311   61.2476   83.8855 N   0  0  0  0  0  0  0  0  0  0  0  0
   -2.6060   60.7029   84.6840 H   0  0  0  0  0  0  0  0  0  0  0  0
   -0.4329   64.3605   80.2633 C   0  0  0  0  0  0  0  0  0  0  0  0
   -0.8682   65.5397   80.9027 C   0  0  0  0  0  0  0  0  0  0  0  0
   -0.2064   66.7515   80.6982 C   0  0  0  0  0  0  0  0  0  0  0  0
    0.8845   66.8079   79.8387 C   0  0  0  0  0  0  0  0  0  0  0  0
    1.2928   65.6580   79.1622 C   0  0  0  0  0  0  0  0  0  0  0  0
    0.6326   64.4341   79.3552 C   0  0  0  0  0  0  0  0  0  0  0  0
    1.0901   63.1687   78.2661 Cl  0  0  0  0  0  0  0  0  0  0  0  0
   -1.6190   63.0131   85.2971 N   0  0  0  0  0  0  0  0  0  0  0  0
   -2.5021   62.9154   85.8019 H   0  0  0  0  0  0  0  0  0  0  0  0
   -0.4602   62.7823   86.1709 C   0  0  0  0  0  0  0  0  0  0  0  0
   -0.9207   62.3540   87.5588 C   0  0  0  0  0  0  0  0  0  0  0  0
    0.9863   64.3529   85.0117 N   0  0  0  0  0  0  0  0  0  0  0  0
    0.4046   64.0648   86.2381 C   0  0  0  0  0  0  0  0  0  0  0  0
    0.5686   64.6830   87.2847 O   0  0  0  0  0  0  0  0  0  0  0  0
    0.6850   63.7538   84.2468 H   0  0  0  0  0  0  0  0  0  0  0  0
    3.4985   67.5794   83.9544 C   0  0  0  0  0  0  0  0  0  0  0  0
    4.0110   66.5417   84.7305 C   0  0  0  0  0  0  0  0  0  0  0  0
    3.1971   65.4593   85.0953 C   0  0  0  0  0  0  0  0  0  0  0  0
    1.8638   65.4032   84.6894 C   0  0  0  0  0  0  0  0  0  0  0  0
    1.3533   66.4453   83.9095 C   0  0  0  0  0  0  0  0  0  0  0  0
    2.1658   67.5238   83.5465 C   0  0  0  0  0  0  0  0  0  0  0  0
    3.5159   69.5374   82.6088 C   0  0  0  0  0  0  0  0  0  0  0  0
    4.1817   68.6854   83.5326 O   0  0  0  0  0  0  0  0  0  0  0  0
 33 34  1  0  0  0
 34 27  1  0  0  0
 27 28  1  0  0  0
 28 29  2  0  0  0
 29 30  1  0  0  0
 30 23  1  0  0  0
 23 24  1  0  0  0
 24 25  2  0  0  0
 24 21  1  0  0  0
 21 22  1  0  0  0
 21 19  1  0  0  0
 19  1  1  0  0  0
  1  2  2  0  0  0
  2  3  1  0  0  0
  3  4  2  0  0  0
  4  5  1  0  0  0
  5  6  2  0  0  0
  6  7  1  0  0  0
  7 12  1  0  0  0
 12 13  2  0  0  0
 13 14  1  0  0  0
 14 15  2  0  0  0
 15 16  1  0  0  0
 16 17  2  0  0  0
 17 18  1  0  0  0
  4  8  1  0  0  0
  8  9  2  0  0  0
  8 10  1  0  0  0
 30 31  2  0  0  0
 31 32  1  0  0  0
 32 27  2  0  0  0
 10  1  1  0  0  0
  7  3  1  0  0  0
 17 12  1  0  0  0
 23 26  1  0  0  0
 19 20  1  0  0  0
 10 11  1  0  0  0
M  END
> <minimizedAffinity>
-10.22666

$$$$



 34 37  0  0  0  0  0  0  0  0999 V2000
    0.2305   65.4832   79.5982 C   0  0  0  0  0  0  0  0  0  0  0  0
    0.0386   64.8589   80.7292 N   0  0  0  0  0  0  0  0  0  0  0  0
    0.0160   63.5029   80.6344 C   0  0  0  0  0  0  0  0  0  0  0  0
    0.2465   62.7702   79.4959 C   0  0  0  0  0  0  0  0  0  0  0  0
    0.2716   61.4373   79.8946 C   0  0  0  0  0  0  0  0  0  0  0  0
    0.0893   61.3068   81.2115 N   0  0  0  0  0  0  0  0  0  0  0  0
   -0.1740   62.5805   81.6574 N   0  0  0  0  0  0  0  0  0  0  0  0
    0.4433   63.4548   78.2561 C   0  0  0  0  0  0  0  0  0  0  0  0
    0.6270   62.9007   77.1794 O   0  0  0  0  0  0  0  0  0  0  0  0
    0.4128   64.8289   78.3960 N   0  0  0  0  0  0  0  0  0  0  0  0
    0.5149   65.3441   77.5393 H   0  0  0  0  0  0  0  0  0  0  0  0
   -0.4885   62.7903   83.0269 C   0  0  0  0  0  0  0  0  0  0  0  0
    0.4307   63.5415   83.7882 C   0  0  0  0  0  0  0  0  0  0  0  0
    0.1710   63.8499   85.1245 C   0  0  0  0  0  0  0  0  0  0  0  0
   -0.9978   63.3966   85.7248 C   0  0  0  0  0  0  0  0  0  0  0  0
   -1.8905   62.6103   84.9958 C   0  0  0  0  0  0  0  0  0  0  0  0
   -1.6386   62.2889   83.6525 C   0  0  0  0  0  0  0  0  0  0  0  0
   -2.7012   61.1084   82.9641 Cl  0  0  0  0  0  0  0  0  0  0  0  0
    0.2317   66.8477   79.6241 N   0  0  0  0  0  0  0  0  0  0  0  0
   -0.4039   67.1944   78.9029 H   0  0  0  0  0  0  0  0  0  0  0  0
    0.1748   67.6658   80.8435 C   0  0  0  0  0  0  0  0  0  0  0  0
   -0.3436   69.0618   80.5209 C   0  0  0  0  0  0  0  0  0  0  0  0
    1.5461   67.2938   82.8143 N   0  0  0  0  0  0  0  0  0  0  0  0
    1.5776   67.7256   81.4960 C   0  0  0  0  0  0  0  0  0  0  0  0
    2.5544   68.1620   80.8961 O   0  0  0  0  0  0  0  0  0  0  0  0
    0.6514   66.9160   83.1169 H   0  0  0  0  0  0  0  0  0  0  0  0
    4.7135   66.9724   85.5898 C   0  0  0  0  0  0  0  0  0  0  0  0
    4.2640   68.2359   85.2112 C   0  0  0  0  0  0  0  0  0  0  0  0
    3.2140   68.3694   84.2908 C   0  0  0  0  0  0  0  0  0  0  0  0
    2.6038   67.2428   83.7394 C   0  0  0  0  0  0  0  0  0  0  0  0
    3.0564   65.9766   84.1229 C   0  0  0  0  0  0  0  0  0  0  0  0
    4.1031   65.8450   85.0404 C   0  0  0  0  0  0  0  0  0  0  0  0
    5.5318   65.6035   87.3509 C   0  0  0  0  0  0  0  0  0  0  0  0
    5.7224   66.7057   86.4725 O   0  0  0  0  0  0  0  0  0  0  0  0
 33 34  1  0  0  0
 34 27  1  0  0  0
 27 28  1  0  0  0
 28 29  2  0  0  0
 29 30  1  0  0  0
 30 23  1  0  0  0
 23 24  1  0  0  0
 24 25  2  0  0  0
 24 21  1  0  0  0
 21 22  1  0  0  0
 21 19  1  0  0  0
 19  1  1  0  0  0
  1  2  2  0  0  0
  2  3  1  0  0  0
  3  4  2  0  0  0
  4  5  1  0  0  0
  5  6  2  0  0  0
  6  7  1  0  0  0
  7 12  1  0  0  0
 12 13  2  0  0  0
 13 14  1  0  0  0
 14 15  2  0  0  0
 15 16  1  0  0  0
 16 17  2  0  0  0
 17 18  1  0  0  0
  4  8  1  0  0  0
  8  9  2  0  0  0
  8 10  1  0  0  0
 30 31  2  0  0  0
 31 32  1  0  0  0
 32 27  2  0  0  0
 10  1  1  0  0  0
  7  3  1  0  0  0
 17 12  1  0  0  0
 23 26  1  0  0  0
 19 20  1  0  0  0
 10 11  1  0  0  0
M  END
> <minimizedAffinity>
-10.22023

$$$$



 34 37  0  0  0  0  0  0  0  0999 V2000
   -2.8151   61.6403   78.4678 C   0  0  0  0  0  0  0  0  0  0  0  0
   -2.1950   61.9030   79.5867 N   0  0  0  0  0  0  0  0  0  0  0  0
   -2.4515   61.0314   80.5982 C   0  0  0  0  0  0  0  0  0  0  0  0
   -3.2235   59.8989   80.5103 C   0  0  0  0  0  0  0  0  0  0  0  0
   -3.0838   59.2426   81.7294 C   0  0  0  0  0  0  0  0  0  0  0  0
   -2.2585   59.8926   82.5544 N   0  0  0  0  0  0  0  0  0  0  0  0
   -1.9469   61.0574   81.8936 N   0  0  0  0  0  0  0  0  0  0  0  0
   -3.9123   59.6197   79.2889 C   0  0  0  0  0  0  0  0  0  0  0  0
   -4.6478   58.6564   79.1120 O   0  0  0  0  0  0  0  0  0  0  0  0
   -3.6561   60.5570   78.3068 N   0  0  0  0  0  0  0  0  0  0  0  0
   -4.1495   60.4116   77.4436 H   0  0  0  0  0  0  0  0  0  0  0  0
   -1.1283   62.0264   82.5335 C   0  0  0  0  0  0  0  0  0  0  0  0
   -1.7348   62.8230   83.5268 C   0  0  0  0  0  0  0  0  0  0  0  0
   -0.9900   63.7556   84.2506 C   0  0  0  0  0  0  0  0  0  0  0  0
    0.3633   63.9206   83.9801 C   0  0  0  0  0  0  0  0  0  0  0  0
    0.9625   63.1736   82.9654 C   0  0  0  0  0  0  0  0  0  0  0  0
    0.2235   62.2359   82.2267 C   0  0  0  0  0  0  0  0  0  0  0  0
    1.0359   61.5766   80.8476 Cl  0  0  0  0  0  0  0  0  0  0  0  0
   -2.6224   62.4983   77.4241 N   0  0  0  0  0  0  0  0  0  0  0  0
   -3.0859   63.3848   77.6326 H   0  0  0  0  0  0  0  0  0  0  0  0
   -1.3452   62.6992   76.7254 C   0  0  0  0  0  0  0  0  0  0  0  0
   -0.4051   61.5306   76.9942 C   0  0  0  0  0  0  0  0  0  0  0  0
   -0.2778   63.9874   78.4872 N   0  0  0  0  0  0  0  0  0  0  0  0
   -0.7137   64.0407   77.1709 C   0  0  0  0  0  0  0  0  0  0  0  0
   -0.6779   65.0186   76.4314 O   0  0  0  0  0  0  0  0  0  0  0  0
   -0.3427   63.0691   78.9199 H   0  0  0  0  0  0  0  0  0  0  0  0
    1.3440   67.0564   80.8936 C   0  0  0  0  0  0  0  0  0  0  0  0
    2.0210   66.6640   79.7405 C   0  0  0  0  0  0  0  0  0  0  0  0
    1.5035   65.6470   78.9249 C   0  0  0  0  0  0  0  0  0  0  0  0
    0.3059   65.0118   79.2534 C   0  0  0  0  0  0  0  0  0  0  0  0
   -0.3715   65.4092   80.4102 C   0  0  0  0  0  0  0  0  0  0  0  0
    0.1455   66.4231   81.2224 C   0  0  0  0  0  0  0  0  0  0  0  0
    1.6677   69.3729   81.3104 C   0  0  0  0  0  0  0  0  0  0  0  0
    1.7380   68.0287   81.7695 O   0  0  0  0  0  0  0  0  0  0  0  0
 33 34  1  0  0  0
 34 27  1  0  0  0
 27 28  1  0  0  0
 28 29  2  0  0  0
 29 30  1  0  0  0
 30 23  1  0  0  0
 23 24  1  0  0  0
 24 25  2  0  0  0
 24 21  1  0  0  0
 21 22  1  0  0  0
 21 19  1  0  0  0
 19  1  1  0  0  0
  1  2  2  0  0  0
  2  3  1  0  0  0
  3  4  2  0  0  0
  4  5  1  0  0  0
  5  6  2  0  0  0
  6  7  1  0  0  0
  7 12  1  0  0  0
 12 13  2  0  0  0
 13 14  1  0  0  0
 14 15  2  0  0  0
 15 16  1  0  0  0
 16 17  2  0  0  0
 17 18  1  0  0  0
  4  8  1  0  0  0
  8  9  2  0  0  0
  8 10  1  0  0  0
 30 31  2  0  0  0
 31 32  1  0  0  0
 32 27  2  0  0  0
 10  1  1  0  0  0
  7  3  1  0  0  0
 17 12  1  0  0  0
 23 26  1  0  0  0
 19 20  1  0  0  0
 10 11  1  0  0  0
M  END
> <minimizedAffinity>
-10.10221

$$$$



 34 37  0  0  0  0  0  0  0  0999 V2000
   -0.9252   64.0608   80.9544 C   0  0  0  0  0  0  0  0  0  0  0  0
   -0.8249   63.8859   82.2447 N   0  0  0  0  0  0  0  0  0  0  0  0
   -1.5525   62.8483   82.7370 C   0  0  0  0  0  0  0  0  0  0  0  0
   -2.2945   61.9608   81.9967 C   0  0  0  0  0  0  0  0  0  0  0  0
   -2.7379   60.9907   82.8903 C   0  0  0  0  0  0  0  0  0  0  0  0
   -2.2986   61.2171   84.1313 N   0  0  0  0  0  0  0  0  0  0  0  0
   -1.6493   62.4269   84.0586 N   0  0  0  0  0  0  0  0  0  0  0  0
   -2.4142   62.1613   80.5860 C   0  0  0  0  0  0  0  0  0  0  0  0
   -3.0727   61.4495   79.8378 O   0  0  0  0  0  0  0  0  0  0  0  0
   -1.6945   63.2530   80.1404 N   0  0  0  0  0  0  0  0  0  0  0  0
   -1.7811   63.4450   79.1579 H   0  0  0  0  0  0  0  0  0  0  0  0
   -1.1133   63.0044   85.2408 C   0  0  0  0  0  0  0  0  0  0  0  0
    0.0788   63.7463   85.1086 C   0  0  0  0  0  0  0  0  0  0  0  0
    0.6405   64.4010   86.2061 C   0  0  0  0  0  0  0  0  0  0  0  0
    0.0330   64.3080   87.4527 C   0  0  0  0  0  0  0  0  0  0  0  0
   -1.1189   63.5356   87.6056 C   0  0  0  0  0  0  0  0  0  0  0  0
   -1.6910   62.8682   86.5109 C   0  0  0  0  0  0  0  0  0  0  0  0
   -2.9589   61.7572   86.9041 Cl  0  0  0  0  0  0  0  0  0  0  0  0
   -0.2422   65.1071   80.4054 N   0  0  0  0  0  0  0  0  0  0  0  0
   -0.4163   65.1261   79.3987 H   0  0  0  0  0  0  0  0  0  0  0  0
   -0.1762   66.4600   80.9754 C   0  0  0  0  0  0  0  0  0  0  0  0
   -0.5771   67.4946   79.9311 C   0  0  0  0  0  0  0  0  0  0  0  0
    1.2958   66.6613   82.8977 N   0  0  0  0  0  0  0  0  0  0  0  0
    1.2507   66.7293   81.5125 C   0  0  0  0  0  0  0  0  0  0  0  0
    2.1810   67.0182   80.7672 O   0  0  0  0  0  0  0  0  0  0  0  0
    0.4318   66.3525   83.3368 H   0  0  0  0  0  0  0  0  0  0  0  0
    4.6224   67.1712   85.4499 C   0  0  0  0  0  0  0  0  0  0  0  0
    3.9005   68.2899   85.0385 C   0  0  0  0  0  0  0  0  0  0  0  0
    2.7922   68.1472   84.1908 C   0  0  0  0  0  0  0  0  0  0  0  0
    2.3950   66.8865   83.7453 C   0  0  0  0  0  0  0  0  0  0  0  0
    3.1207   65.7661   84.1613 C   0  0  0  0  0  0  0  0  0  0  0  0
    4.2253   65.9098   85.0064 C   0  0  0  0  0  0  0  0  0  0  0  0
    6.5573   66.0276   86.2199 C   0  0  0  0  0  0  0  0  0  0  0  0
    5.7157   67.1729   86.2700 O   0  0  0  0  0  0  0  0  0  0  0  0
 33 34  1  0  0  0
 34 27  1  0  0  0
 27 28  1  0  0  0
 28 29  2  0  0  0
 29 30  1  0  0  0
 30 23  1  0  0  0
 23 24  1  0  0  0
 24 25  2  0  0  0
 24 21  1  0  0  0
 21 22  1  0  0  0
 21 19  1  0  0  0
 19  1  1  0  0  0
  1  2  2  0  0  0
  2  3  1  0  0  0
  3  4  2  0  0  0
  4  5  1  0  0  0
  5  6  2  0  0  0
  6  7  1  0  0  0
  7 12  1  0  0  0
 12 13  2  0  0  0
 13 14  1  0  0  0
 14 15  2  0  0  0
 15 16  1  0  0  0
 16 17  2  0  0  0
 17 18  1  0  0  0
  4  8  1  0  0  0
  8  9  2  0  0  0
  8 10  1  0  0  0
 30 31  2  0  0  0
 31 32  1  0  0  0
 32 27  2  0  0  0
 10  1  1  0  0  0
  7  3  1  0  0  0
 17 12  1  0  0  0
 23 26  1  0  0  0
 19 20  1  0  0  0
 10 11  1  0  0  0
M  END
> <minimizedAffinity>
-10.06260

$$$$



 34 37  0  0  0  0  0  0  0  0999 V2000
   -0.8662   61.3122   79.9777 C   0  0  0  0  0  0  0  0  0  0  0  0
   -0.6031   61.9820   81.0676 N   0  0  0  0  0  0  0  0  0  0  0  0
   -1.4080   61.6903   82.1237 C   0  0  0  0  0  0  0  0  0  0  0  0
   -2.3877   60.7280   82.1492 C   0  0  0  0  0  0  0  0  0  0  0  0
   -2.8442   60.6785   83.4627 C   0  0  0  0  0  0  0  0  0  0  0  0
   -2.1923   61.5381   84.2504 N   0  0  0  0  0  0  0  0  0  0  0  0
   -1.3726   62.2415   83.3997 N   0  0  0  0  0  0  0  0  0  0  0  0
   -2.6836   60.0048   80.9518 C   0  0  0  0  0  0  0  0  0  0  0  0
   -3.5544   59.1488   80.8558 O   0  0  0  0  0  0  0  0  0  0  0  0
   -1.8705   60.3681   79.8956 N   0  0  0  0  0  0  0  0  0  0  0  0
   -2.0713   59.9037   79.0274 H   0  0  0  0  0  0  0  0  0  0  0  0
   -0.5780   63.3018   83.9126 C   0  0  0  0  0  0  0  0  0  0  0  0
   -0.0913   64.2454   82.9844 C   0  0  0  0  0  0  0  0  0  0  0  0
    0.6437   65.3538   83.4084 C   0  0  0  0  0  0  0  0  0  0  0  0
    0.9202   65.5252   84.7597 C   0  0  0  0  0  0  0  0  0  0  0  0
    0.4867   64.5716   85.6813 C   0  0  0  0  0  0  0  0  0  0  0  0
   -0.2490   63.4498   85.2674 C   0  0  0  0  0  0  0  0  0  0  0  0
   -0.4950   62.2396   86.4804 Cl  0  0  0  0  0  0  0  0  0  0  0  0
   -0.1119   61.5842   78.8734 N   0  0  0  0  0  0  0  0  0  0  0  0
    0.4531   60.7636   78.6464 H   0  0  0  0  0  0  0  0  0  0  0  0
   -0.6031   62.2621   77.6656 C   0  0  0  0  0  0  0  0  0  0  0  0
   -0.0737   61.5682   76.4166 C   0  0  0  0  0  0  0  0  0  0  0  0
    0.0603   64.1850   78.9943 N   0  0  0  0  0  0  0  0  0  0  0  0
   -0.1850   63.7525   77.6988 C   0  0  0  0  0  0  0  0  0  0  0  0
   -0.1449   64.4382   76.6826 O   0  0  0  0  0  0  0  0  0  0  0  0
    0.0295   63.4531   79.7001 H   0  0  0  0  0  0  0  0  0  0  0  0
    0.9737   68.0831   80.3394 C   0  0  0  0  0  0  0  0  0  0  0  0
    1.9893   67.2881   79.8120 C   0  0  0  0  0  0  0  0  0  0  0  0
    1.7119   65.9900   79.3589 C   0  0  0  0  0  0  0  0  0  0  0  0
    0.4181   65.4734   79.4291 C   0  0  0  0  0  0  0  0  0  0  0  0
   -0.5988   66.2745   79.9575 C   0  0  0  0  0  0  0  0  0  0  0  0
   -0.3208   67.5683   80.4088 C   0  0  0  0  0  0  0  0  0  0  0  0
    2.2596   70.0803   80.3893 C   0  0  0  0  0  0  0  0  0  0  0  0
    1.1101   69.3579   80.8130 O   0  0  0  0  0  0  0  0  0  0  0  0
 33 34  1  0  0  0
 34 27  1  0  0  0
 27 28  1  0  0  0
 28 29  2  0  0  0
 29 30  1  0  0  0
 30 23  1  0  0  0
 23 24  1  0  0  0
 24 25  2  0  0  0
 24 21  1  0  0  0
 21 22  1  0  0  0
 21 19  1  0  0  0
 19  1  1  0  0  0
  1  2  2  0  0  0
  2  3  1  0  0  0
  3  4  2  0  0  0
  4  5  1  0  0  0
  5  6  2  0  0  0
  6  7  1  0  0  0
  7 12  1  0  0  0
 12 13  2  0  0  0
 13 14  1  0  0  0
 14 15  2  0  0  0
 15 16  1  0  0  0
 16 17  2  0  0  0
 17 18  1  0  0  0
  4  8  1  0  0  0
  8  9  2  0  0  0
  8 10  1  0  0  0
 30 31  2  0  0  0
 31 32  1  0  0  0
 32 27  2  0  0  0
 10  1  1  0  0  0
  7  3  1  0  0  0
 17 12  1  0  0  0
 23 26  1  0  0  0
 19 20  1  0  0  0
 10 11  1  0  0  0
M  END
> <minimizedAffinity>
-10.01646

$$$$
