


 28 30  0  0  0  0  0  0  0  0999 V2000
    0.3101   65.5011   81.2113 C   0  0  0  0  0  0  0  0  0  0  0  0
   -0.2367   64.8895   82.2541 N   0  0  0  0  0  0  0  0  0  0  0  0
   -0.7020   63.6842   81.7848 C   0  0  0  0  0  0  0  0  0  0  0  0
   -1.3809   62.6262   82.4979 C   0  0  0  0  0  0  0  0  0  0  0  0
   -1.6594   62.6981   83.6922 O   0  0  0  0  0  0  0  0  0  0  0  0
   -1.6866   61.5219   81.6819 N   0  0  0  0  0  0  0  0  0  0  0  0
   -2.3674   60.4025   82.3019 C   0  0  0  0  0  0  0  0  0  0  0  0
   -1.4310   61.4017   80.2997 C   0  0  0  0  0  0  0  0  0  0  0  0
   -1.7721   60.3973   79.6677 O   0  0  0  0  0  0  0  0  0  0  0  0
   -0.7725   62.4725   79.6664 N   0  0  0  0  0  0  0  0  0  0  0  0
   -0.4428   63.5560   80.4510 C   0  0  0  0  0  0  0  0  0  0  0  0
    0.1921   64.7034   80.0906 N   0  0  0  0  0  0  0  0  0  0  0  0
    0.5393   64.9645   79.1796 H   0  0  0  0  0  0  0  0  0  0  0  0
    1.8999   67.2459   82.1713 C   0  0  0  0  0  0  0  0  0  0  0  0
    2.4554   68.5312   82.0766 C   0  0  0  0  0  0  0  0  0  0  0  0
    2.0707   69.4037   81.0556 C   0  0  0  0  0  0  0  0  0  0  0  0
    1.1284   69.0049   80.1166 C   0  0  0  0  0  0  0  0  0  0  0  0
    0.5720   67.7293   80.1963 C   0  0  0  0  0  0  0  0  0  0  0  0
    0.9445   66.8305   81.2134 C   0  0  0  0  0  0  0  0  0  0  0  0
    2.2332   66.3459   83.1586 O   0  0  0  0  0  0  0  0  0  0  0  0
    2.8565   66.8563   84.3407 C   0  0  0  0  0  0  0  0  0  0  0  0
    4.0402   65.9545   84.6911 C   0  0  0  0  0  0  0  0  0  0  0  0
    6.1838   66.3766   85.6270 C   0  0  0  0  0  0  0  0  0  0  0  0
    4.7755   66.4335   85.8142 O   0  0  0  0  0  0  0  0  0  0  0  0
   -0.4772   62.3707   78.2379 C   0  0  0  0  0  0  0  0  0  0  0  0
   -1.6716   62.7399   77.3371 C   0  0  0  0  0  0  0  0  0  0  0  0
   -2.0738   61.5938   76.4074 C   0  0  0  0  0  0  0  0  0  0  0  0
   -1.3290   63.9808   76.5099 C   0  0  0  0  0  0  0  0  0  0  0  0
 23 24  1  0  0  0
 24 22  1  0  0  0
 22 21  1  0  0  0
 21 20  1  0  0  0
 20 14  1  0  0  0
 14 15  2  0  0  0
 15 16  1  0  0  0
 16 17  2  0  0  0
 17 18  1  0  0  0
 18 19  2  0  0  0
 19  1  1  0  0  0
  1  2  2  0  0  0
  2  3  1  0  0  0
  3  4  1  0  0  0
  4  5  2  0  0  0
  4  6  1  0  0  0
  6  7  1  0  0  0
  6  8  1  0  0  0
  8  9  2  0  0  0
  8 10  1  0  0  0
 10 25  1  0  0  0
 25 26  1  0  0  0
 26 27  1  0  0  0
 26 28  1  0  0  0
 10 11  1  0  0  0
 11 12  1  0  0  0
 19 14  1  0  0  0
 12  1  1  0  0  0
 11  3  2  0  0  0
 12 13  1  0  0  0
M  END
> <minimizedAffinity>
-1.59899

$$$$



 28 30  0  0  0  0  0  0  0  0999 V2000
    0.6125   66.3979   80.6702 C   0  0  0  0  0  0  0  0  0  0  0  0
    0.7095   65.8200   79.4799 N   0  0  0  0  0  0  0  0  0  0  0  0
    0.0088   64.6411   79.5733 C   0  0  0  0  0  0  0  0  0  0  0  0
   -0.2104   63.6259   78.5682 C   0  0  0  0  0  0  0  0  0  0  0  0
    0.2583   63.6966   77.4348 O   0  0  0  0  0  0  0  0  0  0  0  0
   -1.0060   62.5607   79.0276 N   0  0  0  0  0  0  0  0  0  0  0  0
   -1.2885   61.4883   78.0943 C   0  0  0  0  0  0  0  0  0  0  0  0
   -1.5338   62.4051   80.3266 C   0  0  0  0  0  0  0  0  0  0  0  0
   -2.1955   61.4099   80.6369 O   0  0  0  0  0  0  0  0  0  0  0  0
   -1.2762   63.4285   81.2582 N   0  0  0  0  0  0  0  0  0  0  0  0
   -0.5177   64.4934   80.8237 C   0  0  0  0  0  0  0  0  0  0  0  0
   -0.1333   65.5999   81.5146 N   0  0  0  0  0  0  0  0  0  0  0  0
   -0.3398   65.8399   82.4730 H   0  0  0  0  0  0  0  0  0  0  0  0
    2.1332   67.8359   82.1239 C   0  0  0  0  0  0  0  0  0  0  0  0
    2.6506   69.1083   82.4117 C   0  0  0  0  0  0  0  0  0  0  0  0
    2.2554   70.2257   81.6721 C   0  0  0  0  0  0  0  0  0  0  0  0
    1.3403   70.0876   80.6366 C   0  0  0  0  0  0  0  0  0  0  0  0
    0.8219   68.8289   80.3372 C   0  0  0  0  0  0  0  0  0  0  0  0
    1.2059   67.6871   81.0652 C   0  0  0  0  0  0  0  0  0  0  0  0
    2.4785   66.7005   82.8221 O   0  0  0  0  0  0  0  0  0  0  0  0
    2.8392   66.8502   84.1982 C   0  0  0  0  0  0  0  0  0  0  0  0
    4.3226   66.5122   84.3488 C   0  0  0  0  0  0  0  0  0  0  0  0
    5.9178   66.5182   86.1108 C   0  0  0  0  0  0  0  0  0  0  0  0
    4.6478   66.0631   85.6618 O   0  0  0  0  0  0  0  0  0  0  0  0
   -1.8247   63.3052   82.6080 C   0  0  0  0  0  0  0  0  0  0  0  0
   -0.7515   63.0566   83.6856 C   0  0  0  0  0  0  0  0  0  0  0  0
    0.1585   61.8776   83.3374 C   0  0  0  0  0  0  0  0  0  0  0  0
   -1.4257   62.8082   85.0366 C   0  0  0  0  0  0  0  0  0  0  0  0
 23 24  1  0  0  0
 24 22  1  0  0  0
 22 21  1  0  0  0
 21 20  1  0  0  0
 20 14  1  0  0  0
 14 15  2  0  0  0
 15 16  1  0  0  0
 16 17  2  0  0  0
 17 18  1  0  0  0
 18 19  2  0  0  0
 19  1  1  0  0  0
  1  2  2  0  0  0
  2  3  1  0  0  0
  3  4  1  0  0  0
  4  5  2  0  0  0
  4  6  1  0  0  0
  6  7  1  0  0  0
  6  8  1  0  0  0
  8  9  2  0  0  0
  8 10  1  0  0  0
 10 25  1  0  0  0
 25 26  1  0  0  0
 26 27  1  0  0  0
 26 28  1  0  0  0
 10 11  1  0  0  0
 11 12  1  0  0  0
 19 14  1  0  0  0
 12  1  1  0  0  0
 11  3  2  0  0  0
 12 13  1  0  0  0
M  END
> <minimizedAffinity>
-1.51042

$$$$



 28 30  0  0  0  0  0  0  0  0999 V2000
    0.4372   65.1050   81.6033 C   0  0  0  0  0  0  0  0  0  0  0  0
    0.2138   66.0954   80.7492 N   0  0  0  0  0  0  0  0  0  0  0  0
    0.8678   67.1910   81.2605 C   0  0  0  0  0  0  0  0  0  0  0  0
    0.9558   68.5327   80.7304 C   0  0  0  0  0  0  0  0  0  0  0  0
    0.3956   68.8787   79.6933 O   0  0  0  0  0  0  0  0  0  0  0  0
    1.7404   69.3873   81.5260 N   0  0  0  0  0  0  0  0  0  0  0  0
    1.8951   70.7579   81.0805 C   0  0  0  0  0  0  0  0  0  0  0  0
    2.3699   69.0584   82.7448 C   0  0  0  0  0  0  0  0  0  0  0  0
    3.0115   69.8975   83.3841 O   0  0  0  0  0  0  0  0  0  0  0  0
    2.2377   67.7353   83.2067 N   0  0  0  0  0  0  0  0  0  0  0  0
    1.4921   66.8739   82.4319 C   0  0  0  0  0  0  0  0  0  0  0  0
    1.2168   65.5597   82.6481 N   0  0  0  0  0  0  0  0  0  0  0  0
    1.5146   64.9784   83.4175 H   0  0  0  0  0  0  0  0  0  0  0  0
   -0.6581   63.0110   82.5566 C   0  0  0  0  0  0  0  0  0  0  0  0
   -1.1156   61.7022   82.3395 C   0  0  0  0  0  0  0  0  0  0  0  0
   -0.9835   61.0963   81.0876 C   0  0  0  0  0  0  0  0  0  0  0  0
   -0.3944   61.7883   80.0375 C   0  0  0  0  0  0  0  0  0  0  0  0
    0.0603   63.0905   80.2381 C   0  0  0  0  0  0  0  0  0  0  0  0
   -0.0634   63.7244   81.4888 C   0  0  0  0  0  0  0  0  0  0  0  0
   -0.7534   63.6569   83.7689 O   0  0  0  0  0  0  0  0  0  0  0  0
   -1.2623   62.9136   84.8801 C   0  0  0  0  0  0  0  0  0  0  0  0
   -0.4706   63.3062   86.1277 C   0  0  0  0  0  0  0  0  0  0  0  0
   -0.0378   62.8004   88.4094 C   0  0  0  0  0  0  0  0  0  0  0  0
   -0.8701   62.5688   87.2801 O   0  0  0  0  0  0  0  0  0  0  0  0
    2.8935   67.3583   84.4581 C   0  0  0  0  0  0  0  0  0  0  0  0
    4.2856   66.7292   84.2555 C   0  0  0  0  0  0  0  0  0  0  0  0
    4.5189   65.5278   85.1729 C   0  0  0  0  0  0  0  0  0  0  0  0
    5.3677   67.7834   84.4986 C   0  0  0  0  0  0  0  0  0  0  0  0
 23 24  1  0  0  0
 24 22  1  0  0  0
 22 21  1  0  0  0
 21 20  1  0  0  0
 20 14  1  0  0  0
 14 15  2  0  0  0
 15 16  1  0  0  0
 16 17  2  0  0  0
 17 18  1  0  0  0
 18 19  2  0  0  0
 19  1  1  0  0  0
  1  2  2  0  0  0
  2  3  1  0  0  0
  3  4  1  0  0  0
  4  5  2  0  0  0
  4  6  1  0  0  0
  6  7  1  0  0  0
  6  8  1  0  0  0
  8  9  2  0  0  0
  8 10  1  0  0  0
 10 25  1  0  0  0
 25 26  1  0  0  0
 26 27  1  0  0  0
 26 28  1  0  0  0
 10 11  1  0  0  0
 11 12  1  0  0  0
 19 14  1  0  0  0
 12  1  1  0  0  0
 11  3  2  0  0  0
 12 13  1  0  0  0
M  END
> <minimizedAffinity>
-1.48501

$$$$



 28 30  0  0  0  0  0  0  0  0999 V2000
    0.2561   65.1429   81.9415 C   0  0  0  0  0  0  0  0  0  0  0  0
    0.0514   66.0681   81.0127 N   0  0  0  0  0  0  0  0  0  0  0  0
    0.7908   67.1610   81.3977 C   0  0  0  0  0  0  0  0  0  0  0  0
    0.9320   68.4441   80.7476 C   0  0  0  0  0  0  0  0  0  0  0  0
    0.3456   68.7335   79.7077 O   0  0  0  0  0  0  0  0  0  0  0  0
    1.8009   69.3137   81.4314 N   0  0  0  0  0  0  0  0  0  0  0  0
    2.0141   70.6287   80.8602 C   0  0  0  0  0  0  0  0  0  0  0  0
    2.4659   69.0526   82.6478 C   0  0  0  0  0  0  0  0  0  0  0  0
    3.1840   69.9023   83.1833 O   0  0  0  0  0  0  0  0  0  0  0  0
    2.2785   67.7849   83.2302 N   0  0  0  0  0  0  0  0  0  0  0  0
    1.4491   66.9078   82.5661 C   0  0  0  0  0  0  0  0  0  0  0  0
    1.1082   65.6367   82.9090 N   0  0  0  0  0  0  0  0  0  0  0  0
    1.4070   65.1064   83.7141 H   0  0  0  0  0  0  0  0  0  0  0  0
   -0.3955   62.9376   80.8436 C   0  0  0  0  0  0  0  0  0  0  0  0
   -0.9613   61.6606   80.9801 C   0  0  0  0  0  0  0  0  0  0  0  0
   -1.4639   61.2283   82.2099 C   0  0  0  0  0  0  0  0  0  0  0  0
   -1.4078   62.0637   83.3179 C   0  0  0  0  0  0  0  0  0  0  0  0
   -0.8443   63.3329   83.1973 C   0  0  0  0  0  0  0  0  0  0  0  0
   -0.3286   63.7912   81.9704 C   0  0  0  0  0  0  0  0  0  0  0  0
    0.1082   63.4215   79.6569 O   0  0  0  0  0  0  0  0  0  0  0  0
   -0.0575   62.6159   78.4866 C   0  0  0  0  0  0  0  0  0  0  0  0
   -0.9400   63.3768   77.4969 C   0  0  0  0  0  0  0  0  0  0  0  0
   -1.5578   61.2930   76.5349 C   0  0  0  0  0  0  0  0  0  0  0  0
   -1.9951   62.5714   76.9778 O   0  0  0  0  0  0  0  0  0  0  0  0
    2.9685   67.4771   84.4822 C   0  0  0  0  0  0  0  0  0  0  0  0
    4.3225   66.7703   84.2784 C   0  0  0  0  0  0  0  0  0  0  0  0
    4.4849   65.5528   85.1898 C   0  0  0  0  0  0  0  0  0  0  0  0
    5.4629   67.7593   84.5286 C   0  0  0  0  0  0  0  0  0  0  0  0
 23 24  1  0  0  0
 24 22  1  0  0  0
 22 21  1  0  0  0
 21 20  1  0  0  0
 20 14  1  0  0  0
 14 15  2  0  0  0
 15 16  1  0  0  0
 16 17  2  0  0  0
 17 18  1  0  0  0
 18 19  2  0  0  0
 19  1  1  0  0  0
  1  2  2  0  0  0
  2  3  1  0  0  0
  3  4  1  0  0  0
  4  5  2  0  0  0
  4  6  1  0  0  0
  6  7  1  0  0  0
  6  8  1  0  0  0
  8  9  2  0  0  0
  8 10  1  0  0  0
 10 25  1  0  0  0
 25 26  1  0  0  0
 26 27  1  0  0  0
 26 28  1  0  0  0
 10 11  1  0  0  0
 11 12  1  0  0  0
 19 14  1  0  0  0
 12  1  1  0  0  0
 11  3  2  0  0  0
 12 13  1  0  0  0
M  END
> <minimizedAffinity>
-1.44970

$$$$



 28 30  0  0  0  0  0  0  0  0999 V2000
    0.4016   64.5419   81.9818 C   0  0  0  0  0  0  0  0  0  0  0  0
    1.0752   64.4680   83.1225 N   0  0  0  0  0  0  0  0  0  0  0  0
    1.7686   65.6500   83.2299 C   0  0  0  0  0  0  0  0  0  0  0  0
    2.6574   66.0963   84.2785 C   0  0  0  0  0  0  0  0  0  0  0  0
    2.9319   65.4083   85.2586 O   0  0  0  0  0  0  0  0  0  0  0  0
    3.1692   67.3869   84.0526 N   0  0  0  0  0  0  0  0  0  0  0  0
    4.0710   67.9307   85.0485 C   0  0  0  0  0  0  0  0  0  0  0  0
    2.9244   68.2034   82.9285 C   0  0  0  0  0  0  0  0  0  0  0  0
    3.4531   69.3131   82.8124 O   0  0  0  0  0  0  0  0  0  0  0  0
    2.0540   67.7040   81.9414 N   0  0  0  0  0  0  0  0  0  0  0  0
    1.5225   66.4505   82.1523 C   0  0  0  0  0  0  0  0  0  0  0  0
    0.6634   65.7491   81.3652 N   0  0  0  0  0  0  0  0  0  0  0  0
    0.2581   66.0258   80.4832 H   0  0  0  0  0  0  0  0  0  0  0  0
   -1.5082   62.8651   82.1670 C   0  0  0  0  0  0  0  0  0  0  0  0
   -2.3124   61.9018   81.5388 C   0  0  0  0  0  0  0  0  0  0  0  0
   -2.1128   61.5675   80.1971 C   0  0  0  0  0  0  0  0  0  0  0  0
   -1.1095   62.1900   79.4659 C   0  0  0  0  0  0  0  0  0  0  0  0
   -0.3063   63.1519   80.0763 C   0  0  0  0  0  0  0  0  0  0  0  0
   -0.4888   63.5085   81.4257 C   0  0  0  0  0  0  0  0  0  0  0  0
   -1.6520   63.2299   83.4869 O   0  0  0  0  0  0  0  0  0  0  0  0
   -1.4254   62.2279   84.4822 C   0  0  0  0  0  0  0  0  0  0  0  0
   -1.7789   62.8151   85.8488 C   0  0  0  0  0  0  0  0  0  0  0  0
   -0.2558   63.2531   87.6202 C   0  0  0  0  0  0  0  0  0  0  0  0
   -0.9842   62.2684   86.8981 O   0  0  0  0  0  0  0  0  0  0  0  0
    1.7659   68.5340   80.7725 C   0  0  0  0  0  0  0  0  0  0  0  0
    0.5367   69.4452   80.9554 C   0  0  0  0  0  0  0  0  0  0  0  0
   -0.5000   69.2508   79.8479 C   0  0  0  0  0  0  0  0  0  0  0  0
    0.9818   70.9086   80.9961 C   0  0  0  0  0  0  0  0  0  0  0  0
 23 24  1  0  0  0
 24 22  1  0  0  0
 22 21  1  0  0  0
 21 20  1  0  0  0
 20 14  1  0  0  0
 14 15  2  0  0  0
 15 16  1  0  0  0
 16 17  2  0  0  0
 17 18  1  0  0  0
 18 19  2  0  0  0
 19  1  1  0  0  0
  1  2  2  0  0  0
  2  3  1  0  0  0
  3  4  1  0  0  0
  4  5  2  0  0  0
  4  6  1  0  0  0
  6  7  1  0  0  0
  6  8  1  0  0  0
  8  9  2  0  0  0
  8 10  1  0  0  0
 10 25  1  0  0  0
 25 26  1  0  0  0
 26 27  1  0  0  0
 26 28  1  0  0  0
 10 11  1  0  0  0
 11 12  1  0  0  0
 19 14  1  0  0  0
 12  1  1  0  0  0
 11  3  2  0  0  0
 12 13  1  0  0  0
M  END
> <minimizedAffinity>
-1.43872

$$$$



 28 30  0  0  0  0  0  0  0  0999 V2000
    1.2435   66.7558   82.6352 C   0  0  0  0  0  0  0  0  0  0  0  0
    1.2994   66.2372   83.8552 N   0  0  0  0  0  0  0  0  0  0  0  0
    0.5889   65.0618   83.7998 C   0  0  0  0  0  0  0  0  0  0  0  0
    0.3331   64.0982   84.8461 C   0  0  0  0  0  0  0  0  0  0  0  0
    0.7349   64.2413   85.9981 O   0  0  0  0  0  0  0  0  0  0  0  0
   -0.4205   62.9953   84.4050 N   0  0  0  0  0  0  0  0  0  0  0  0
   -0.7307   61.9672   85.3784 C   0  0  0  0  0  0  0  0  0  0  0  0
   -0.9440   62.7989   83.1098 C   0  0  0  0  0  0  0  0  0  0  0  0
   -1.6243   61.8058   82.8350 O   0  0  0  0  0  0  0  0  0  0  0  0
   -0.6623   63.7802   82.1407 N   0  0  0  0  0  0  0  0  0  0  0  0
    0.0937   64.8589   82.5443 C   0  0  0  0  0  0  0  0  0  0  0  0
    0.5044   65.9293   81.8126 N   0  0  0  0  0  0  0  0  0  0  0  0
    0.3297   66.1223   80.8374 H   0  0  0  0  0  0  0  0  0  0  0  0
    2.9159   68.6627   82.8807 C   0  0  0  0  0  0  0  0  0  0  0  0
    3.4391   69.8609   82.3709 C   0  0  0  0  0  0  0  0  0  0  0  0
    2.9217   70.4286   81.2039 C   0  0  0  0  0  0  0  0  0  0  0  0
    1.8771   69.8081   80.5313 C   0  0  0  0  0  0  0  0  0  0  0  0
    1.3510   68.6151   81.0242 C   0  0  0  0  0  0  0  0  0  0  0  0
    1.8562   68.0214   82.1961 C   0  0  0  0  0  0  0  0  0  0  0  0
    3.3787   68.0604   84.0292 O   0  0  0  0  0  0  0  0  0  0  0  0
    4.7941   67.9233   84.1840 C   0  0  0  0  0  0  0  0  0  0  0  0
    5.0931   67.6253   85.6534 C   0  0  0  0  0  0  0  0  0  0  0  0
    5.7973   65.4717   86.3715 C   0  0  0  0  0  0  0  0  0  0  0  0
    6.1834   66.7216   85.8144 O   0  0  0  0  0  0  0  0  0  0  0  0
   -1.1758   63.5967   80.7839 C   0  0  0  0  0  0  0  0  0  0  0  0
   -0.1893   62.8720   79.8478 C   0  0  0  0  0  0  0  0  0  0  0  0
    0.1744   63.7139   78.6237 C   0  0  0  0  0  0  0  0  0  0  0  0
   -0.7904   61.5386   79.3983 C   0  0  0  0  0  0  0  0  0  0  0  0
 23 24  1  0  0  0
 24 22  1  0  0  0
 22 21  1  0  0  0
 21 20  1  0  0  0
 20 14  1  0  0  0
 14 15  2  0  0  0
 15 16  1  0  0  0
 16 17  2  0  0  0
 17 18  1  0  0  0
 18 19  2  0  0  0
 19  1  1  0  0  0
  1  2  2  0  0  0
  2  3  1  0  0  0
  3  4  1  0  0  0
  4  5  2  0  0  0
  4  6  1  0  0  0
  6  7  1  0  0  0
  6  8  1  0  0  0
  8  9  2  0  0  0
  8 10  1  0  0  0
 10 25  1  0  0  0
 25 26  1  0  0  0
 26 27  1  0  0  0
 26 28  1  0  0  0
 10 11  1  0  0  0
 11 12  1  0  0  0
 19 14  1  0  0  0
 12  1  1  0  0  0
 11  3  2  0  0  0
 12 13  1  0  0  0
M  END
> <minimizedAffinity>
-1.41218

$$$$



 28 30  0  0  0  0  0  0  0  0999 V2000
   -0.0066   64.9080   81.3818 C   0  0  0  0  0  0  0  0  0  0  0  0
   -0.6873   64.3245   82.3599 N   0  0  0  0  0  0  0  0  0  0  0  0
   -1.1958   63.1639   81.8271 C   0  0  0  0  0  0  0  0  0  0  0  0
   -2.0109   62.1497   82.4562 C   0  0  0  0  0  0  0  0  0  0  0  0
   -2.3886   62.2257   83.6227 O   0  0  0  0  0  0  0  0  0  0  0  0
   -2.3227   61.0827   81.5942 N   0  0  0  0  0  0  0  0  0  0  0  0
   -3.1359   60.0087   82.1292 C   0  0  0  0  0  0  0  0  0  0  0  0
   -1.9546   60.9629   80.2376 C   0  0  0  0  0  0  0  0  0  0  0  0
   -2.3105   59.9956   79.5578 O   0  0  0  0  0  0  0  0  0  0  0  0
   -1.1658   61.9903   79.6865 N   0  0  0  0  0  0  0  0  0  0  0  0
   -0.8290   63.0352   80.5189 C   0  0  0  0  0  0  0  0  0  0  0  0
   -0.0824   64.1370   80.2391 N   0  0  0  0  0  0  0  0  0  0  0  0
    0.3626   64.3841   79.3675 H   0  0  0  0  0  0  0  0  0  0  0  0
    1.6514   66.4968   82.4863 C   0  0  0  0  0  0  0  0  0  0  0  0
    2.3019   67.7402   82.4689 C   0  0  0  0  0  0  0  0  0  0  0  0
    2.0351   68.6735   81.4642 C   0  0  0  0  0  0  0  0  0  0  0  0
    1.1173   68.3779   80.4647 C   0  0  0  0  0  0  0  0  0  0  0  0
    0.4674   67.1448   80.4674 C   0  0  0  0  0  0  0  0  0  0  0  0
    0.7205   66.1863   81.4667 C   0  0  0  0  0  0  0  0  0  0  0  0
    1.8670   65.5410   83.4538 O   0  0  0  0  0  0  0  0  0  0  0  0
    1.3556   65.7954   84.7653 C   0  0  0  0  0  0  0  0  0  0  0  0
    0.8788   64.4717   85.3635 C   0  0  0  0  0  0  0  0  0  0  0  0
   -0.0414   63.4036   87.2770 C   0  0  0  0  0  0  0  0  0  0  0  0
    0.5183   64.5938   86.7370 O   0  0  0  0  0  0  0  0  0  0  0  0
   -0.7528   61.8865   78.2876 C   0  0  0  0  0  0  0  0  0  0  0  0
   -1.8074   62.4151   77.2961 C   0  0  0  0  0  0  0  0  0  0  0  0
   -2.3814   61.3060   76.4131 C   0  0  0  0  0  0  0  0  0  0  0  0
   -1.1892   63.5063   76.4195 C   0  0  0  0  0  0  0  0  0  0  0  0
 23 24  1  0  0  0
 24 22  1  0  0  0
 22 21  1  0  0  0
 21 20  1  0  0  0
 20 14  1  0  0  0
 14 15  2  0  0  0
 15 16  1  0  0  0
 16 17  2  0  0  0
 17 18  1  0  0  0
 18 19  2  0  0  0
 19  1  1  0  0  0
  1  2  2  0  0  0
  2  3  1  0  0  0
  3  4  1  0  0  0
  4  5  2  0  0  0
  4  6  1  0  0  0
  6  7  1  0  0  0
  6  8  1  0  0  0
  8  9  2  0  0  0
  8 10  1  0  0  0
 10 25  1  0  0  0
 25 26  1  0  0  0
 26 27  1  0  0  0
 26 28  1  0  0  0
 10 11  1  0  0  0
 11 12  1  0  0  0
 19 14  1  0  0  0
 12  1  1  0  0  0
 11  3  2  0  0  0
 12 13  1  0  0  0
M  END
> <minimizedAffinity>
-1.40604

$$$$



 28 30  0  0  0  0  0  0  0  0999 V2000
    0.3688   65.7564   80.2674 C   0  0  0  0  0  0  0  0  0  0  0  0
    0.0746   65.6190   78.9809 N   0  0  0  0  0  0  0  0  0  0  0  0
   -0.3959   64.3357   78.8352 C   0  0  0  0  0  0  0  0  0  0  0  0
   -0.8593   63.6618   77.6436 C   0  0  0  0  0  0  0  0  0  0  0  0
   -0.8663   64.1935   76.5362 O   0  0  0  0  0  0  0  0  0  0  0  0
   -1.2915   62.3460   77.8895 N   0  0  0  0  0  0  0  0  0  0  0  0
   -1.7791   61.5818   76.7586 C   0  0  0  0  0  0  0  0  0  0  0  0
   -1.2662   61.6704   79.1277 C   0  0  0  0  0  0  0  0  0  0  0  0
   -1.6401   60.4981   79.2283 O   0  0  0  0  0  0  0  0  0  0  0  0
   -0.7964   62.3841   80.2463 N   0  0  0  0  0  0  0  0  0  0  0  0
   -0.3886   63.6828   80.0337 C   0  0  0  0  0  0  0  0  0  0  0  0
    0.0969   64.5787   80.9344 N   0  0  0  0  0  0  0  0  0  0  0  0
    0.2421   64.4508   81.9250 H   0  0  0  0  0  0  0  0  0  0  0  0
    1.5641   66.9576   82.1705 C   0  0  0  0  0  0  0  0  0  0  0  0
    2.0594   68.1618   82.6941 C   0  0  0  0  0  0  0  0  0  0  0  0
    1.9099   69.3617   81.9942 C   0  0  0  0  0  0  0  0  0  0  0  0
    1.2655   69.3750   80.7641 C   0  0  0  0  0  0  0  0  0  0  0  0
    0.7727   68.1853   80.2304 C   0  0  0  0  0  0  0  0  0  0  0  0
    0.9128   66.9630   80.9141 C   0  0  0  0  0  0  0  0  0  0  0  0
    1.6743   65.7469   82.8169 O   0  0  0  0  0  0  0  0  0  0  0  0
    1.8334   65.7641   84.2384 C   0  0  0  0  0  0  0  0  0  0  0  0
    0.8339   64.7813   84.8487 C   0  0  0  0  0  0  0  0  0  0  0  0
    0.0976   63.9660   86.9564 C   0  0  0  0  0  0  0  0  0  0  0  0
    1.2049   64.3738   86.1631 O   0  0  0  0  0  0  0  0  0  0  0  0
   -0.7745   61.7173   81.5476 C   0  0  0  0  0  0  0  0  0  0  0  0
   -2.0412   61.9708   82.3878 C   0  0  0  0  0  0  0  0  0  0  0  0
   -1.7139   62.3224   83.8399 C   0  0  0  0  0  0  0  0  0  0  0  0
   -2.9432   60.7356   82.3455 C   0  0  0  0  0  0  0  0  0  0  0  0
 23 24  1  0  0  0
 24 22  1  0  0  0
 22 21  1  0  0  0
 21 20  1  0  0  0
 20 14  1  0  0  0
 14 15  2  0  0  0
 15 16  1  0  0  0
 16 17  2  0  0  0
 17 18  1  0  0  0
 18 19  2  0  0  0
 19  1  1  0  0  0
  1  2  2  0  0  0
  2  3  1  0  0  0
  3  4  1  0  0  0
  4  5  2  0  0  0
  4  6  1  0  0  0
  6  7  1  0  0  0
  6  8  1  0  0  0
  8  9  2  0  0  0
  8 10  1  0  0  0
 10 25  1  0  0  0
 25 26  1  0  0  0
 26 27  1  0  0  0
 26 28  1  0  0  0
 10 11  1  0  0  0
 11 12  1  0  0  0
 19 14  1  0  0  0
 12  1  1  0  0  0
 11  3  2  0  0  0
 12 13  1  0  0  0
M  END
> <minimizedAffinity>
-1.39503

$$$$



 28 30  0  0  0  0  0  0  0  0999 V2000
   -0.9628   62.4653   83.5118 C   0  0  0  0  0  0  0  0  0  0  0  0
   -1.8753   61.5629   83.1752 N   0  0  0  0  0  0  0  0  0  0  0  0
   -1.8473   61.4898   81.8029 C   0  0  0  0  0  0  0  0  0  0  0  0
   -2.6345   60.6645   80.9152 C   0  0  0  0  0  0  0  0  0  0  0  0
   -3.4997   59.8900   81.3159 O   0  0  0  0  0  0  0  0  0  0  0  0
   -2.3067   60.8479   79.5595 N   0  0  0  0  0  0  0  0  0  0  0  0
   -3.0383   60.0638   78.5844 C   0  0  0  0  0  0  0  0  0  0  0  0
   -1.3562   61.7513   79.0393 C   0  0  0  0  0  0  0  0  0  0  0  0
   -1.1684   61.8577   77.8237 O   0  0  0  0  0  0  0  0  0  0  0  0
   -0.6294   62.5295   79.9599 N   0  0  0  0  0  0  0  0  0  0  0  0
   -0.9176   62.3504   81.2952 C   0  0  0  0  0  0  0  0  0  0  0  0
   -0.3636   62.9668   82.3735 N   0  0  0  0  0  0  0  0  0  0  0  0
    0.3636   63.6666   82.3866 H   0  0  0  0  0  0  0  0  0  0  0  0
    0.2978   63.9281   85.1744 C   0  0  0  0  0  0  0  0  0  0  0  0
    0.5406   64.2718   86.5132 C   0  0  0  0  0  0  0  0  0  0  0  0
   -0.1099   63.6030   87.5531 C   0  0  0  0  0  0  0  0  0  0  0  0
   -1.0104   62.5843   87.2705 C   0  0  0  0  0  0  0  0  0  0  0  0
   -1.2642   62.2358   85.9450 C   0  0  0  0  0  0  0  0  0  0  0  0
   -0.6241   62.8958   84.8792 C   0  0  0  0  0  0  0  0  0  0  0  0
    0.9140   64.5451   84.1088 O   0  0  0  0  0  0  0  0  0  0  0  0
    1.9143   65.5264   84.3962 C   0  0  0  0  0  0  0  0  0  0  0  0
    2.0267   66.4680   83.1970 C   0  0  0  0  0  0  0  0  0  0  0  0
    3.7921   67.2826   84.5642 C   0  0  0  0  0  0  0  0  0  0  0  0
    3.0211   67.4717   83.3846 O   0  0  0  0  0  0  0  0  0  0  0  0
    0.3759   63.4625   79.4530 C   0  0  0  0  0  0  0  0  0  0  0  0
   -0.1619   64.8921   79.2490 C   0  0  0  0  0  0  0  0  0  0  0  0
   -0.5588   65.1614   77.7967 C   0  0  0  0  0  0  0  0  0  0  0  0
    0.8927   65.9077   79.6937 C   0  0  0  0  0  0  0  0  0  0  0  0
 23 24  1  0  0  0
 24 22  1  0  0  0
 22 21  1  0  0  0
 21 20  1  0  0  0
 20 14  1  0  0  0
 14 15  2  0  0  0
 15 16  1  0  0  0
 16 17  2  0  0  0
 17 18  1  0  0  0
 18 19  2  0  0  0
 19  1  1  0  0  0
  1  2  2  0  0  0
  2  3  1  0  0  0
  3  4  1  0  0  0
  4  5  2  0  0  0
  4  6  1  0  0  0
  6  7  1  0  0  0
  6  8  1  0  0  0
  8  9  2  0  0  0
  8 10  1  0  0  0
 10 25  1  0  0  0
 25 26  1  0  0  0
 26 27  1  0  0  0
 26 28  1  0  0  0
 10 11  1  0  0  0
 11 12  1  0  0  0
 19 14  1  0  0  0
 12  1  1  0  0  0
 11  3  2  0  0  0
 12 13  1  0  0  0
M  END
> <minimizedAffinity>
-1.37924

$$$$
