


 36 39  0  0  0  0  0  0  0  0999 V2000
   -0.2484   63.6802   85.3725 C   0  0  0  0  0  0  0  0  0  0  0  0
   -1.0904   62.5620   85.4528 C   0  0  0  0  0  0  0  0  0  0  0  0
   -1.4141   61.8227   84.3116 C   0  0  0  0  0  0  0  0  0  0  0  0
   -0.9003   62.1805   83.0647 C   0  0  0  0  0  0  0  0  0  0  0  0
   -0.0561   63.2948   82.9798 C   0  0  0  0  0  0  0  0  0  0  0  0
    0.2829   64.0519   84.1188 C   0  0  0  0  0  0  0  0  0  0  0  0
    1.1978   65.2301   83.9002 C   0  0  0  0  0  0  0  0  0  0  0  0
    2.2832   65.3482   84.6178 N   0  0  0  0  0  0  0  0  0  0  0  0
    3.0447   66.4787   84.3225 C   0  0  0  0  0  0  0  0  0  0  0  0
    4.2562   66.9180   84.8802 C   0  0  0  0  0  0  0  0  0  0  0  0
    4.6521   68.0702   84.3049 N   0  0  0  0  0  0  0  0  0  0  0  0
    3.6853   68.3293   83.3892 N   0  0  0  0  0  0  0  0  0  0  0  0
    3.7770   69.5063   82.5598 C   0  0  0  0  0  0  0  0  0  0  0  0
    2.7000   67.3933   83.3743 C   0  0  0  0  0  0  0  0  0  0  0  0
    1.5271   67.2756   82.5902 C   0  0  0  0  0  0  0  0  0  0  0  0
    1.1675   68.0522   81.7132 O   0  0  0  0  0  0  0  0  0  0  0  0
    0.8139   66.1487   82.9277 N   0  0  0  0  0  0  0  0  0  0  0  0
   -0.0291   65.9835   82.3938 H   0  0  0  0  0  0  0  0  0  0  0  0
    5.0651   66.2781   85.9528 C   0  0  0  0  0  0  0  0  0  0  0  0
    6.5518   66.5623   85.8040 C   0  0  0  0  0  0  0  0  0  0  0  0
    0.1016   64.4339   86.4654 O   0  0  0  0  0  0  0  0  0  0  0  0
   -0.0783   63.4816   88.6405 C   0  0  0  0  0  0  0  0  0  0  0  0
    0.8667   63.8072   87.4975 C   0  0  0  0  0  0  0  0  0  0  0  0
   -1.2530   61.3857   81.8292 C   0  0  0  0  0  0  0  0  0  0  0  0
   -1.7149   62.2607   80.6433 C   0  0  0  0  0  0  0  0  0  0  0  0
   -0.7599   62.1290   79.4385 C   0  0  0  0  0  0  0  0  0  0  0  0
   -1.4667   62.4133   78.1163 C   0  0  0  0  0  0  0  0  0  0  0  0
   -2.5914   61.3982   77.8449 C   0  0  0  0  0  0  0  0  0  0  0  0
   -3.2660   60.9089   79.1393 C   0  0  0  0  0  0  0  0  0  0  0  0
   -3.1736   61.9392   80.2594 C   0  0  0  0  0  0  0  0  0  0  0  0
   -2.0963   60.2014   77.0348 C   0  0  0  0  0  0  0  0  0  0  0  0
   -2.8233   59.4231   76.4215 O   0  0  0  0  0  0  0  0  0  0  0  0
   -0.7249   60.0525   77.0384 N   0  0  0  0  0  0  0  0  0  0  0  0
   -0.2570   58.8731   76.4073 O   0  0  0  0  0  0  0  0  0  0  0  0
   -0.1588   60.3930   77.8083 H   0  0  0  0  0  0  0  0  0  0  0  0
   -1.0879   58.4738   76.0643 H   0  0  0  0  0  0  0  0  0  0  0  0
 22 23  1  0  0  0
 23 21  1  0  0  0
 21  1  1  0  0  0
  1  2  1  0  0  0
  2  3  2  0  0  0
  3  4  1  0  0  0
  4 24  1  0  0  0
 24 25  1  0  0  0
 25 26  1  0  0  0
 26 27  1  0  0  0
 27 28  1  0  0  0
 28 31  1  0  0  0
 31 32  2  0  0  0
 31 33  1  0  0  0
 33 34  1  0  0  0
 28 29  1  0  0  0
 29 30  1  0  0  0
  4  5  2  0  0  0
  5  6  1  0  0  0
  6  7  1  0  0  0
  7  8  2  0  0  0
  8  9  1  0  0  0
  9 10  1  0  0  0
 10 19  1  0  0  0
 19 20  1  0  0  0
 10 11  2  0  0  0
 11 12  1  0  0  0
 12 13  1  0  0  0
 12 14  1  0  0  0
 14 15  1  0  0  0
 15 16  2  0  0  0
 15 17  1  0  0  0
  6  1  2  0  0  0
 17  7  1  0  0  0
 30 25  1  0  0  0
 14  9  2  0  0  0
 33 35  1  0  0  0
 34 36  1  0  0  0
 17 18  1  0  0  0
M  END
> <minimizedAffinity>
-1.65349

$$$$



 36 39  0  0  0  0  0  0  0  0999 V2000
    2.3315   68.0291   82.6824 C   0  0  0  0  0  0  0  0  0  0  0  0
    2.1929   66.6366   82.7688 C   0  0  0  0  0  0  0  0  0  0  0  0
    1.3707   65.9397   81.8788 C   0  0  0  0  0  0  0  0  0  0  0  0
    0.6718   66.6171   80.8792 C   0  0  0  0  0  0  0  0  0  0  0  0
    0.8095   68.0077   80.7867 C   0  0  0  0  0  0  0  0  0  0  0  0
    1.6344   68.7280   81.6735 C   0  0  0  0  0  0  0  0  0  0  0  0
    1.6994   70.2211   81.4753 C   0  0  0  0  0  0  0  0  0  0  0  0
    2.8153   70.7730   81.0787 N   0  0  0  0  0  0  0  0  0  0  0  0
    2.7486   72.1585   80.9331 C   0  0  0  0  0  0  0  0  0  0  0  0
    3.7370   73.0686   80.5252 C   0  0  0  0  0  0  0  0  0  0  0  0
    3.2523   74.3257   80.5250 N   0  0  0  0  0  0  0  0  0  0  0  0
    1.9640   74.1810   80.9250 N   0  0  0  0  0  0  0  0  0  0  0  0
    1.1118   75.3396   81.0392 C   0  0  0  0  0  0  0  0  0  0  0  0
    1.6272   72.8897   81.1823 C   0  0  0  0  0  0  0  0  0  0  0  0
    0.4124   72.3028   81.6115 C   0  0  0  0  0  0  0  0  0  0  0  0
   -0.6338   72.8993   81.8380 O   0  0  0  0  0  0  0  0  0  0  0  0
    0.5379   70.9393   81.7436 N   0  0  0  0  0  0  0  0  0  0  0  0
   -0.2975   70.4445   82.0267 H   0  0  0  0  0  0  0  0  0  0  0  0
    5.1439   72.7885   80.1293 C   0  0  0  0  0  0  0  0  0  0  0  0
    5.9968   74.0473   80.0946 C   0  0  0  0  0  0  0  0  0  0  0  0
    3.1304   68.7561   83.5299 O   0  0  0  0  0  0  0  0  0  0  0  0
    5.1308   67.8859   84.4848 C   0  0  0  0  0  0  0  0  0  0  0  0
    3.6430   68.1049   84.6947 C   0  0  0  0  0  0  0  0  0  0  0  0
   -0.2213   65.8662   79.9196 C   0  0  0  0  0  0  0  0  0  0  0  0
    0.3748   64.5232   79.4438 C   0  0  0  0  0  0  0  0  0  0  0  0
   -0.2843   63.3267   80.1615 C   0  0  0  0  0  0  0  0  0  0  0  0
   -0.2261   62.0545   79.3209 C   0  0  0  0  0  0  0  0  0  0  0  0
   -1.0085   62.2085   78.0044 C   0  0  0  0  0  0  0  0  0  0  0  0
   -0.9677   63.6486   77.4618 C   0  0  0  0  0  0  0  0  0  0  0  0
    0.2840   64.3952   77.9095 C   0  0  0  0  0  0  0  0  0  0  0  0
   -2.4586   61.7494   78.1458 C   0  0  0  0  0  0  0  0  0  0  0  0
   -3.4016   62.2023   77.5006 O   0  0  0  0  0  0  0  0  0  0  0  0
   -2.6409   60.7521   79.0811 N   0  0  0  0  0  0  0  0  0  0  0  0
   -3.9944   60.4094   79.3235 O   0  0  0  0  0  0  0  0  0  0  0  0
   -2.0132   60.6481   79.8713 H   0  0  0  0  0  0  0  0  0  0  0  0
   -4.4739   60.9751   78.6772 H   0  0  0  0  0  0  0  0  0  0  0  0
 22 23  1  0  0  0
 23 21  1  0  0  0
 21  1  1  0  0  0
  1  2  1  0  0  0
  2  3  2  0  0  0
  3  4  1  0  0  0
  4 24  1  0  0  0
 24 25  1  0  0  0
 25 26  1  0  0  0
 26 27  1  0  0  0
 27 28  1  0  0  0
 28 31  1  0  0  0
 31 32  2  0  0  0
 31 33  1  0  0  0
 33 34  1  0  0  0
 28 29  1  0  0  0
 29 30  1  0  0  0
  4  5  2  0  0  0
  5  6  1  0  0  0
  6  7  1  0  0  0
  7  8  2  0  0  0
  8  9  1  0  0  0
  9 10  1  0  0  0
 10 19  1  0  0  0
 19 20  1  0  0  0
 10 11  2  0  0  0
 11 12  1  0  0  0
 12 13  1  0  0  0
 12 14  1  0  0  0
 14 15  1  0  0  0
 15 16  2  0  0  0
 15 17  1  0  0  0
  6  1  2  0  0  0
 17  7  1  0  0  0
 30 25  1  0  0  0
 14  9  2  0  0  0
 33 35  1  0  0  0
 34 36  1  0  0  0
 17 18  1  0  0  0
M  END
> <minimizedAffinity>
-1.54021

$$$$



 36 39  0  0  0  0  0  0  0  0999 V2000
    2.4953   67.9223   82.9017 C   0  0  0  0  0  0  0  0  0  0  0  0
    2.0816   66.6023   83.1305 C   0  0  0  0  0  0  0  0  0  0  0  0
    1.2304   65.9504   82.2338 C   0  0  0  0  0  0  0  0  0  0  0  0
    0.7765   66.6003   81.0856 C   0  0  0  0  0  0  0  0  0  0  0  0
    1.1896   67.9177   80.8509 C   0  0  0  0  0  0  0  0  0  0  0  0
    2.0483   68.5915   81.7421 C   0  0  0  0  0  0  0  0  0  0  0  0
    2.4205   70.0075   81.3825 C   0  0  0  0  0  0  0  0  0  0  0  0
    1.5659   70.9736   81.5908 N   0  0  0  0  0  0  0  0  0  0  0  0
    2.0265   72.2359   81.2169 C   0  0  0  0  0  0  0  0  0  0  0  0
    1.3921   73.4858   81.2999 C   0  0  0  0  0  0  0  0  0  0  0  0
    2.1946   74.4569   80.8222 N   0  0  0  0  0  0  0  0  0  0  0  0
    3.3232   73.7994   80.4553 N   0  0  0  0  0  0  0  0  0  0  0  0
    4.4320   74.5320   79.8936 C   0  0  0  0  0  0  0  0  0  0  0  0
    3.2560   72.4601   80.6760 C   0  0  0  0  0  0  0  0  0  0  0  0
    4.1904   71.4215   80.4464 C   0  0  0  0  0  0  0  0  0  0  0  0
    5.3149   71.5565   79.9787 O   0  0  0  0  0  0  0  0  0  0  0  0
    3.6817   70.2014   80.8271 N   0  0  0  0  0  0  0  0  0  0  0  0
    4.3013   69.4101   80.7138 H   0  0  0  0  0  0  0  0  0  0  0  0
    0.0348   73.7999   81.8228 C   0  0  0  0  0  0  0  0  0  0  0  0
   -0.3268   75.2670   81.6497 C   0  0  0  0  0  0  0  0  0  0  0  0
    3.3337   68.6019   83.7503 O   0  0  0  0  0  0  0  0  0  0  0  0
    5.4290   67.7846   84.5326 C   0  0  0  0  0  0  0  0  0  0  0  0
    3.9410   67.8748   84.8208 C   0  0  0  0  0  0  0  0  0  0  0  0
   -0.1477   65.8990   80.1179 C   0  0  0  0  0  0  0  0  0  0  0  0
    0.5237   64.7349   79.3565 C   0  0  0  0  0  0  0  0  0  0  0  0
    0.1586   63.3697   79.9760 C   0  0  0  0  0  0  0  0  0  0  0  0
    0.2321   62.2405   78.9522 C   0  0  0  0  0  0  0  0  0  0  0  0
   -0.7808   62.4429   77.8111 C   0  0  0  0  0  0  0  0  0  0  0  0
   -1.0201   63.9305   77.4950 C   0  0  0  0  0  0  0  0  0  0  0  0
    0.1842   64.7942   77.8533 C   0  0  0  0  0  0  0  0  0  0  0  0
   -2.1131   61.7547   78.1024 C   0  0  0  0  0  0  0  0  0  0  0  0
   -2.9048   62.1046   78.9750 O   0  0  0  0  0  0  0  0  0  0  0  0
   -2.3755   60.6750   77.2851 N   0  0  0  0  0  0  0  0  0  0  0  0
   -3.5391   59.9429   77.6284 O   0  0  0  0  0  0  0  0  0  0  0  0
   -1.6256   60.1362   76.8649 H   0  0  0  0  0  0  0  0  0  0  0  0
   -3.9045   60.4666   78.3766 H   0  0  0  0  0  0  0  0  0  0  0  0
 22 23  1  0  0  0
 23 21  1  0  0  0
 21  1  1  0  0  0
  1  2  1  0  0  0
  2  3  2  0  0  0
  3  4  1  0  0  0
  4 24  1  0  0  0
 24 25  1  0  0  0
 25 26  1  0  0  0
 26 27  1  0  0  0
 27 28  1  0  0  0
 28 31  1  0  0  0
 31 32  2  0  0  0
 31 33  1  0  0  0
 33 34  1  0  0  0
 28 29  1  0  0  0
 29 30  1  0  0  0
  4  5  2  0  0  0
  5  6  1  0  0  0
  6  7  1  0  0  0
  7  8  2  0  0  0
  8  9  1  0  0  0
  9 10  1  0  0  0
 10 19  1  0  0  0
 19 20  1  0  0  0
 10 11  2  0  0  0
 11 12  1  0  0  0
 12 13  1  0  0  0
 12 14  1  0  0  0
 14 15  1  0  0  0
 15 16  2  0  0  0
 15 17  1  0  0  0
  6  1  2  0  0  0
 17  7  1  0  0  0
 30 25  1  0  0  0
 14  9  2  0  0  0
 33 35  1  0  0  0
 34 36  1  0  0  0
 17 18  1  0  0  0
M  END
> <minimizedAffinity>
-1.50524

$$$$



 36 39  0  0  0  0  0  0  0  0999 V2000
    3.0557   67.7234   83.2144 C   0  0  0  0  0  0  0  0  0  0  0  0
    3.6410   68.9966   83.2606 C   0  0  0  0  0  0  0  0  0  0  0  0
    3.1013   70.0624   82.5350 C   0  0  0  0  0  0  0  0  0  0  0  0
    1.9617   69.8820   81.7503 C   0  0  0  0  0  0  0  0  0  0  0  0
    1.3715   68.6129   81.7034 C   0  0  0  0  0  0  0  0  0  0  0  0
    1.8998   67.5264   82.4286 C   0  0  0  0  0  0  0  0  0  0  0  0
    1.1779   66.2094   82.2959 C   0  0  0  0  0  0  0  0  0  0  0  0
    0.8860   65.7487   81.1086 N   0  0  0  0  0  0  0  0  0  0  0  0
    0.2185   64.5240   81.1180 C   0  0  0  0  0  0  0  0  0  0  0  0
   -0.2385   63.7406   80.0461 C   0  0  0  0  0  0  0  0  0  0  0  0
   -0.8392   62.6228   80.4988 N   0  0  0  0  0  0  0  0  0  0  0  0
   -0.7407   62.7206   81.8484 N   0  0  0  0  0  0  0  0  0  0  0  0
   -1.2806   61.6776   82.6865 C   0  0  0  0  0  0  0  0  0  0  0  0
   -0.1121   63.8543   82.2566 C   0  0  0  0  0  0  0  0  0  0  0  0
    0.1996   64.3432   83.5482 C   0  0  0  0  0  0  0  0  0  0  0  0
   -0.0549   63.7852   84.6091 O   0  0  0  0  0  0  0  0  0  0  0  0
    0.8501   65.5534   83.4786 N   0  0  0  0  0  0  0  0  0  0  0  0
    1.1263   65.9576   84.3636 H   0  0  0  0  0  0  0  0  0  0  0  0
   -0.1257   64.0144   78.5878 C   0  0  0  0  0  0  0  0  0  0  0  0
   -0.8522   62.9765   77.7462 C   0  0  0  0  0  0  0  0  0  0  0  0
    3.5463   66.6480   83.9128 O   0  0  0  0  0  0  0  0  0  0  0  0
    4.7486   65.7465   85.7601 C   0  0  0  0  0  0  0  0  0  0  0  0
    4.7188   66.8405   84.7076 C   0  0  0  0  0  0  0  0  0  0  0  0
    1.3799   71.0316   80.9613 C   0  0  0  0  0  0  0  0  0  0  0  0
    1.0505   72.2689   81.8249 C   0  0  0  0  0  0  0  0  0  0  0  0
    2.0614   73.4099   81.5860 C   0  0  0  0  0  0  0  0  0  0  0  0
    1.4538   74.7800   81.8730 C   0  0  0  0  0  0  0  0  0  0  0  0
    0.2772   75.0874   80.9296 C   0  0  0  0  0  0  0  0  0  0  0  0
   -0.5038   73.8214   80.5329 C   0  0  0  0  0  0  0  0  0  0  0  0
   -0.4029   72.7294   81.5921 C   0  0  0  0  0  0  0  0  0  0  0  0
    0.7318   75.8298   79.6743 C   0  0  0  0  0  0  0  0  0  0  0  0
    1.8783   76.2233   79.4711 O   0  0  0  0  0  0  0  0  0  0  0  0
   -0.2719   76.0323   78.7499 N   0  0  0  0  0  0  0  0  0  0  0  0
    0.0975   76.8363   77.6431 O   0  0  0  0  0  0  0  0  0  0  0  0
   -1.2447   76.0925   79.0314 H   0  0  0  0  0  0  0  0  0  0  0  0
    1.0519   77.0033   77.8130 H   0  0  0  0  0  0  0  0  0  0  0  0
 22 23  1  0  0  0
 23 21  1  0  0  0
 21  1  1  0  0  0
  1  2  1  0  0  0
  2  3  2  0  0  0
  3  4  1  0  0  0
  4 24  1  0  0  0
 24 25  1  0  0  0
 25 26  1  0  0  0
 26 27  1  0  0  0
 27 28  1  0  0  0
 28 31  1  0  0  0
 31 32  2  0  0  0
 31 33  1  0  0  0
 33 34  1  0  0  0
 28 29  1  0  0  0
 29 30  1  0  0  0
  4  5  2  0  0  0
  5  6  1  0  0  0
  6  7  1  0  0  0
  7  8  2  0  0  0
  8  9  1  0  0  0
  9 10  1  0  0  0
 10 19  1  0  0  0
 19 20  1  0  0  0
 10 11  2  0  0  0
 11 12  1  0  0  0
 12 13  1  0  0  0
 12 14  1  0  0  0
 14 15  1  0  0  0
 15 16  2  0  0  0
 15 17  1  0  0  0
  6  1  2  0  0  0
 17  7  1  0  0  0
 30 25  1  0  0  0
 14  9  2  0  0  0
 33 35  1  0  0  0
 34 36  1  0  0  0
 17 18  1  0  0  0
M  END
> <minimizedAffinity>
-1.50214

$$$$



 36 39  0  0  0  0  0  0  0  0999 V2000
    4.2100   72.7453   80.6341 C   0  0  0  0  0  0  0  0  0  0  0  0
    4.4797   74.1169   80.5269 C   0  0  0  0  0  0  0  0  0  0  0  0
    3.6878   75.0590   81.1894 C   0  0  0  0  0  0  0  0  0  0  0  0
    2.6109   74.6524   81.9780 C   0  0  0  0  0  0  0  0  0  0  0  0
    2.3393   73.2831   82.0909 C   0  0  0  0  0  0  0  0  0  0  0  0
    3.1268   72.3181   81.4320 C   0  0  0  0  0  0  0  0  0  0  0  0
    2.7340   70.8758   81.6283 C   0  0  0  0  0  0  0  0  0  0  0  0
    3.3080   70.1712   82.5670 N   0  0  0  0  0  0  0  0  0  0  0  0
    2.8604   68.8527   82.6480 C   0  0  0  0  0  0  0  0  0  0  0  0
    3.2427   67.8253   83.5254 C   0  0  0  0  0  0  0  0  0  0  0  0
    2.5604   66.6950   83.2570 N   0  0  0  0  0  0  0  0  0  0  0  0
    1.7548   67.0360   82.2201 N   0  0  0  0  0  0  0  0  0  0  0  0
    0.8559   66.0585   81.6559 C   0  0  0  0  0  0  0  0  0  0  0  0
    1.9110   68.3270   81.8253 C   0  0  0  0  0  0  0  0  0  0  0  0
    1.2817   69.0809   80.8055 C   0  0  0  0  0  0  0  0  0  0  0  0
    0.4124   68.6746   80.0434 O   0  0  0  0  0  0  0  0  0  0  0  0
    1.7651   70.3682   80.7679 N   0  0  0  0  0  0  0  0  0  0  0  0
    1.3467   70.9768   80.0770 H   0  0  0  0  0  0  0  0  0  0  0  0
    4.2441   67.8745   84.6250 C   0  0  0  0  0  0  0  0  0  0  0  0
    5.0396   66.5835   84.7414 C   0  0  0  0  0  0  0  0  0  0  0  0
    4.9618   71.7830   80.0066 O   0  0  0  0  0  0  0  0  0  0  0  0
    6.2478   71.7200   78.0034 C   0  0  0  0  0  0  0  0  0  0  0  0
    6.2223   72.1689   79.4537 C   0  0  0  0  0  0  0  0  0  0  0  0
    1.7507   75.6694   82.6907 C   0  0  0  0  0  0  0  0  0  0  0  0
    1.0147   76.6337   81.7348 C   0  0  0  0  0  0  0  0  0  0  0  0
   -0.4967   76.3281   81.6775 C   0  0  0  0  0  0  0  0  0  0  0  0
   -1.3151   77.5629   81.3112 C   0  0  0  0  0  0  0  0  0  0  0  0
   -1.1735   78.6715   82.3695 C   0  0  0  0  0  0  0  0  0  0  0  0
    0.2158   78.6765   83.0327 C   0  0  0  0  0  0  0  0  0  0  0  0
    1.2909   78.1022   82.1168 C   0  0  0  0  0  0  0  0  0  0  0  0
   -2.2583   78.5788   83.4410 C   0  0  0  0  0  0  0  0  0  0  0  0
   -2.0433   78.4740   84.6466 O   0  0  0  0  0  0  0  0  0  0  0  0
   -3.5433   78.6257   82.9416 N   0  0  0  0  0  0  0  0  0  0  0  0
   -4.5598   78.4047   83.9039 O   0  0  0  0  0  0  0  0  0  0  0  0
   -3.7553   78.3149   81.9994 H   0  0  0  0  0  0  0  0  0  0  0  0
   -4.0457   78.3243   84.7387 H   0  0  0  0  0  0  0  0  0  0  0  0
 22 23  1  0  0  0
 23 21  1  0  0  0
 21  1  1  0  0  0
  1  2  1  0  0  0
  2  3  2  0  0  0
  3  4  1  0  0  0
  4 24  1  0  0  0
 24 25  1  0  0  0
 25 26  1  0  0  0
 26 27  1  0  0  0
 27 28  1  0  0  0
 28 31  1  0  0  0
 31 32  2  0  0  0
 31 33  1  0  0  0
 33 34  1  0  0  0
 28 29  1  0  0  0
 29 30  1  0  0  0
  4  5  2  0  0  0
  5  6  1  0  0  0
  6  7  1  0  0  0
  7  8  2  0  0  0
  8  9  1  0  0  0
  9 10  1  0  0  0
 10 19  1  0  0  0
 19 20  1  0  0  0
 10 11  2  0  0  0
 11 12  1  0  0  0
 12 13  1  0  0  0
 12 14  1  0  0  0
 14 15  1  0  0  0
 15 16  2  0  0  0
 15 17  1  0  0  0
  6  1  2  0  0  0
 17  7  1  0  0  0
 30 25  1  0  0  0
 14  9  2  0  0  0
 33 35  1  0  0  0
 34 36  1  0  0  0
 17 18  1  0  0  0
M  END
> <minimizedAffinity>
-1.49964

$$$$



 36 39  0  0  0  0  0  0  0  0999 V2000
    2.8661   67.8162   83.1070 C   0  0  0  0  0  0  0  0  0  0  0  0
    3.4293   69.0879   83.2838 C   0  0  0  0  0  0  0  0  0  0  0  0
    2.9464   70.1924   82.5762 C   0  0  0  0  0  0  0  0  0  0  0  0
    1.8868   70.0528   81.6792 C   0  0  0  0  0  0  0  0  0  0  0  0
    1.3188   68.7852   81.5014 C   0  0  0  0  0  0  0  0  0  0  0  0
    1.7905   67.6599   82.2064 C   0  0  0  0  0  0  0  0  0  0  0  0
    1.0999   66.3490   81.9281 C   0  0  0  0  0  0  0  0  0  0  0  0
    0.7612   65.5725   82.9228 N   0  0  0  0  0  0  0  0  0  0  0  0
    0.1307   64.3897   82.5369 C   0  0  0  0  0  0  0  0  0  0  0  0
   -0.3684   63.3386   83.3228 C   0  0  0  0  0  0  0  0  0  0  0  0
   -0.9022   62.3773   82.5443 N   0  0  0  0  0  0  0  0  0  0  0  0
   -0.7361   62.8468   81.2823 N   0  0  0  0  0  0  0  0  0  0  0  0
   -1.2023   62.0706   80.1590 C   0  0  0  0  0  0  0  0  0  0  0  0
   -0.1149   64.0548   81.2400 C   0  0  0  0  0  0  0  0  0  0  0  0
    0.2468   64.8883   80.1542 C   0  0  0  0  0  0  0  0  0  0  0  0
    0.0421   64.6544   78.9689 O   0  0  0  0  0  0  0  0  0  0  0  0
    0.8686   66.0345   80.5923 N   0  0  0  0  0  0  0  0  0  0  0  0
    1.1381   66.6928   79.8734 H   0  0  0  0  0  0  0  0  0  0  0  0
   -0.3592   63.2087   84.8052 C   0  0  0  0  0  0  0  0  0  0  0  0
   -1.6261   62.5563   85.3368 C   0  0  0  0  0  0  0  0  0  0  0  0
    3.3027   66.7035   83.7824 O   0  0  0  0  0  0  0  0  0  0  0  0
    4.5728   65.5503   85.4339 C   0  0  0  0  0  0  0  0  0  0  0  0
    4.4306   66.8425   84.6496 C   0  0  0  0  0  0  0  0  0  0  0  0
    1.3670   71.2445   80.9097 C   0  0  0  0  0  0  0  0  0  0  0  0
    1.1053   72.4837   81.7935 C   0  0  0  0  0  0  0  0  0  0  0  0
    2.1103   73.6151   81.4919 C   0  0  0  0  0  0  0  0  0  0  0  0
    1.5357   74.9907   81.8181 C   0  0  0  0  0  0  0  0  0  0  0  0
    0.3048   75.3110   80.9514 C   0  0  0  0  0  0  0  0  0  0  0  0
   -0.5124   74.0534   80.6040 C   0  0  0  0  0  0  0  0  0  0  0  0
   -0.3553   72.9589   81.6538 C   0  0  0  0  0  0  0  0  0  0  0  0
    0.6861   76.0508   79.6704 C   0  0  0  0  0  0  0  0  0  0  0  0
    1.8118   76.4730   79.4154 O   0  0  0  0  0  0  0  0  0  0  0  0
   -0.3603   76.2150   78.7867 N   0  0  0  0  0  0  0  0  0  0  0  0
   -0.0596   77.0157   77.6570 O   0  0  0  0  0  0  0  0  0  0  0  0
   -1.3219   76.2519   79.1080 H   0  0  0  0  0  0  0  0  0  0  0  0
    0.8960   77.2106   77.7852 H   0  0  0  0  0  0  0  0  0  0  0  0
 22 23  1  0  0  0
 23 21  1  0  0  0
 21  1  1  0  0  0
  1  2  1  0  0  0
  2  3  2  0  0  0
  3  4  1  0  0  0
  4 24  1  0  0  0
 24 25  1  0  0  0
 25 26  1  0  0  0
 26 27  1  0  0  0
 27 28  1  0  0  0
 28 31  1  0  0  0
 31 32  2  0  0  0
 31 33  1  0  0  0
 33 34  1  0  0  0
 28 29  1  0  0  0
 29 30  1  0  0  0
  4  5  2  0  0  0
  5  6  1  0  0  0
  6  7  1  0  0  0
  7  8  2  0  0  0
  8  9  1  0  0  0
  9 10  1  0  0  0
 10 19  1  0  0  0
 19 20  1  0  0  0
 10 11  2  0  0  0
 11 12  1  0  0  0
 12 13  1  0  0  0
 12 14  1  0  0  0
 14 15  1  0  0  0
 15 16  2  0  0  0
 15 17  1  0  0  0
  6  1  2  0  0  0
 17  7  1  0  0  0
 30 25  1  0  0  0
 14  9  2  0  0  0
 33 35  1  0  0  0
 34 36  1  0  0  0
 17 18  1  0  0  0
M  END
> <minimizedAffinity>
-1.46644

$$$$



 36 39  0  0  0  0  0  0  0  0999 V2000
    3.3473   73.2894   81.0333 C   0  0  0  0  0  0  0  0  0  0  0  0
    3.4209   74.6871   80.9509 C   0  0  0  0  0  0  0  0  0  0  0  0
    2.3073   75.4832   81.2335 C   0  0  0  0  0  0  0  0  0  0  0  0
    1.0959   74.9017   81.6094 C   0  0  0  0  0  0  0  0  0  0  0  0
    1.0183   73.5061   81.6963 C   0  0  0  0  0  0  0  0  0  0  0  0
    2.1300   72.6865   81.4167 C   0  0  0  0  0  0  0  0  0  0  0  0
    1.9222   71.1986   81.5426 C   0  0  0  0  0  0  0  0  0  0  0  0
    2.6454   70.5138   82.3882 N   0  0  0  0  0  0  0  0  0  0  0  0
    2.3599   69.1487   82.4114 C   0  0  0  0  0  0  0  0  0  0  0  0
    2.9256   68.1246   83.1879 C   0  0  0  0  0  0  0  0  0  0  0  0
    2.3587   66.9385   82.8929 N   0  0  0  0  0  0  0  0  0  0  0  0
    1.4401   67.2411   81.9415 N   0  0  0  0  0  0  0  0  0  0  0  0
    0.6179   66.1980   81.3779 C   0  0  0  0  0  0  0  0  0  0  0  0
    1.4155   68.5625   81.6248 C   0  0  0  0  0  0  0  0  0  0  0  0
    0.6254   69.2943   80.7057 C   0  0  0  0  0  0  0  0  0  0  0  0
   -0.2487   68.8324   79.9817 O   0  0  0  0  0  0  0  0  0  0  0  0
    0.9533   70.6302   80.7210 N   0  0  0  0  0  0  0  0  0  0  0  0
    0.4147   71.2240   80.1043 H   0  0  0  0  0  0  0  0  0  0  0  0
    3.9981   68.2286   84.2142 C   0  0  0  0  0  0  0  0  0  0  0  0
    4.3363   66.8825   84.8362 C   0  0  0  0  0  0  0  0  0  0  0  0
    4.4145   72.4666   80.7703 O   0  0  0  0  0  0  0  0  0  0  0  0
    5.9497   71.9292   79.0311 C   0  0  0  0  0  0  0  0  0  0  0  0
    5.5031   72.9988   80.0118 C   0  0  0  0  0  0  0  0  0  0  0  0
   -0.1102   75.7603   81.9102 C   0  0  0  0  0  0  0  0  0  0  0  0
   -0.3484   76.8764   80.8696 C   0  0  0  0  0  0  0  0  0  0  0  0
   -0.8229   76.2983   79.5199 C   0  0  0  0  0  0  0  0  0  0  0  0
   -1.6551   77.3039   78.7294 C   0  0  0  0  0  0  0  0  0  0  0  0
   -2.9468   77.6822   79.4759 C   0  0  0  0  0  0  0  0  0  0  0  0
   -2.7679   77.6662   81.0049 C   0  0  0  0  0  0  0  0  0  0  0  0
   -1.3251   77.9373   81.4166 C   0  0  0  0  0  0  0  0  0  0  0  0
   -4.1172   76.7829   79.0823 C   0  0  0  0  0  0  0  0  0  0  0  0
   -5.1114   76.5846   79.7773 O   0  0  0  0  0  0  0  0  0  0  0  0
   -3.9753   76.1896   77.8451 N   0  0  0  0  0  0  0  0  0  0  0  0
   -4.9836   75.2478   77.5221 O   0  0  0  0  0  0  0  0  0  0  0  0
   -3.0594   76.0055   77.4497 H   0  0  0  0  0  0  0  0  0  0  0  0
   -5.5871   75.3113   78.2964 H   0  0  0  0  0  0  0  0  0  0  0  0
 22 23  1  0  0  0
 23 21  1  0  0  0
 21  1  1  0  0  0
  1  2  1  0  0  0
  2  3  2  0  0  0
  3  4  1  0  0  0
  4 24  1  0  0  0
 24 25  1  0  0  0
 25 26  1  0  0  0
 26 27  1  0  0  0
 27 28  1  0  0  0
 28 31  1  0  0  0
 31 32  2  0  0  0
 31 33  1  0  0  0
 33 34  1  0  0  0
 28 29  1  0  0  0
 29 30  1  0  0  0
  4  5  2  0  0  0
  5  6  1  0  0  0
  6  7  1  0  0  0
  7  8  2  0  0  0
  8  9  1  0  0  0
  9 10  1  0  0  0
 10 19  1  0  0  0
 19 20  1  0  0  0
 10 11  2  0  0  0
 11 12  1  0  0  0
 12 13  1  0  0  0
 12 14  1  0  0  0
 14 15  1  0  0  0
 15 16  2  0  0  0
 15 17  1  0  0  0
  6  1  2  0  0  0
 17  7  1  0  0  0
 30 25  1  0  0  0
 14  9  2  0  0  0
 33 35  1  0  0  0
 34 36  1  0  0  0
 17 18  1  0  0  0
M  END
> <minimizedAffinity>
-1.41078

$$$$



 36 39  0  0  0  0  0  0  0  0999 V2000
    1.4583   66.1808   82.7981 C   0  0  0  0  0  0  0  0  0  0  0  0
    2.0422   67.2906   83.4252 C   0  0  0  0  0  0  0  0  0  0  0  0
    2.0828   68.5355   82.7909 C   0  0  0  0  0  0  0  0  0  0  0  0
    1.5370   68.7015   81.5176 C   0  0  0  0  0  0  0  0  0  0  0  0
    0.9498   67.5968   80.8883 C   0  0  0  0  0  0  0  0  0  0  0  0
    0.8977   66.3342   81.5117 C   0  0  0  0  0  0  0  0  0  0  0  0
    0.2423   65.2218   80.7332 C   0  0  0  0  0  0  0  0  0  0  0  0
   -0.3835   64.2681   81.3703 N   0  0  0  0  0  0  0  0  0  0  0  0
   -0.9464   63.2988   80.5403 C   0  0  0  0  0  0  0  0  0  0  0  0
   -1.6850   62.1511   80.8702 C   0  0  0  0  0  0  0  0  0  0  0  0
   -2.0408   61.4806   79.7570 N   0  0  0  0  0  0  0  0  0  0  0  0
   -1.5258   62.2251   78.7465 N   0  0  0  0  0  0  0  0  0  0  0  0
   -1.7166   61.8103   77.3779 C   0  0  0  0  0  0  0  0  0  0  0  0
   -0.8577   63.3258   79.1817 C   0  0  0  0  0  0  0  0  0  0  0  0
   -0.1831   64.3542   78.4806 C   0  0  0  0  0  0  0  0  0  0  0  0
   -0.0795   64.4461   77.2630 O   0  0  0  0  0  0  0  0  0  0  0  0
    0.3560   65.2765   79.3473 N   0  0  0  0  0  0  0  0  0  0  0  0
    0.8368   66.0564   78.9189 H   0  0  0  0  0  0  0  0  0  0  0  0
   -2.0728   61.6584   82.2197 C   0  0  0  0  0  0  0  0  0  0  0  0
   -3.1025   60.5410   82.1540 C   0  0  0  0  0  0  0  0  0  0  0  0
    1.3903   64.9403   83.3826 O   0  0  0  0  0  0  0  0  0  0  0  0
    0.1669   63.6514   84.9676 C   0  0  0  0  0  0  0  0  0  0  0  0
    1.0534   64.8681   84.7699 C   0  0  0  0  0  0  0  0  0  0  0  0
    1.5846   70.0451   80.8283 C   0  0  0  0  0  0  0  0  0  0  0  0
    1.7596   71.2320   81.8010 C   0  0  0  0  0  0  0  0  0  0  0  0
    3.0341   72.0411   81.4812 C   0  0  0  0  0  0  0  0  0  0  0  0
    2.9160   73.4938   81.9333 C   0  0  0  0  0  0  0  0  0  0  0  0
    1.7832   74.2276   81.1935 C   0  0  0  0  0  0  0  0  0  0  0  0
    0.6090   73.2952   80.8445 C   0  0  0  0  0  0  0  0  0  0  0  0
    0.5003   72.1223   81.8126 C   0  0  0  0  0  0  0  0  0  0  0  0
    2.2848   74.9238   79.9296 C   0  0  0  0  0  0  0  0  0  0  0  0
    3.4515   74.9164   79.5433 O   0  0  0  0  0  0  0  0  0  0  0  0
    1.2987   75.5831   79.2254 N   0  0  0  0  0  0  0  0  0  0  0  0
    1.7668   76.3465   78.1272 O   0  0  0  0  0  0  0  0  0  0  0  0
    0.4693   75.9407   79.6873 H   0  0  0  0  0  0  0  0  0  0  0  0
    2.7299   76.1467   78.1268 H   0  0  0  0  0  0  0  0  0  0  0  0
 22 23  1  0  0  0
 23 21  1  0  0  0
 21  1  1  0  0  0
  1  2  1  0  0  0
  2  3  2  0  0  0
  3  4  1  0  0  0
  4 24  1  0  0  0
 24 25  1  0  0  0
 25 26  1  0  0  0
 26 27  1  0  0  0
 27 28  1  0  0  0
 28 31  1  0  0  0
 31 32  2  0  0  0
 31 33  1  0  0  0
 33 34  1  0  0  0
 28 29  1  0  0  0
 29 30  1  0  0  0
  4  5  2  0  0  0
  5  6  1  0  0  0
  6  7  1  0  0  0
  7  8  2  0  0  0
  8  9  1  0  0  0
  9 10  1  0  0  0
 10 19  1  0  0  0
 19 20  1  0  0  0
 10 11  2  0  0  0
 11 12  1  0  0  0
 12 13  1  0  0  0
 12 14  1  0  0  0
 14 15  1  0  0  0
 15 16  2  0  0  0
 15 17  1  0  0  0
  6  1  2  0  0  0
 17  7  1  0  0  0
 30 25  1  0  0  0
 14  9  2  0  0  0
 33 35  1  0  0  0
 34 36  1  0  0  0
 17 18  1  0  0  0
M  END
> <minimizedAffinity>
-1.36187

$$$$



 36 39  0  0  0  0  0  0  0  0999 V2000
   -0.2308   63.3982   85.3327 C   0  0  0  0  0  0  0  0  0  0  0  0
   -1.0098   62.2481   85.5229 C   0  0  0  0  0  0  0  0  0  0  0  0
   -1.5343   61.5472   84.4332 C   0  0  0  0  0  0  0  0  0  0  0  0
   -1.2889   61.9763   83.1285 C   0  0  0  0  0  0  0  0  0  0  0  0
   -0.5087   63.1228   82.9332 C   0  0  0  0  0  0  0  0  0  0  0  0
    0.0301   63.8422   84.0184 C   0  0  0  0  0  0  0  0  0  0  0  0
    0.8512   65.0608   83.6814 C   0  0  0  0  0  0  0  0  0  0  0  0
    0.4843   65.8355   82.6954 N   0  0  0  0  0  0  0  0  0  0  0  0
    1.3246   66.9281   82.4825 C   0  0  0  0  0  0  0  0  0  0  0  0
    1.2387   67.9569   81.5307 C   0  0  0  0  0  0  0  0  0  0  0  0
    2.2656   68.8179   81.6700 N   0  0  0  0  0  0  0  0  0  0  0  0
    2.9740   68.3182   82.7136 N   0  0  0  0  0  0  0  0  0  0  0  0
    4.1658   68.9952   83.1639 C   0  0  0  0  0  0  0  0  0  0  0  0
    2.4379   67.1790   83.2255 C   0  0  0  0  0  0  0  0  0  0  0  0
    2.8449   66.3474   84.2965 C   0  0  0  0  0  0  0  0  0  0  0  0
    3.8239   66.5238   85.0121 O   0  0  0  0  0  0  0  0  0  0  0  0
    1.9851   65.2854   84.4564 N   0  0  0  0  0  0  0  0  0  0  0  0
    2.1981   64.6560   85.2188 H   0  0  0  0  0  0  0  0  0  0  0  0
    0.2052   68.1587   80.4793 C   0  0  0  0  0  0  0  0  0  0  0  0
   -0.2037   69.6171   80.3421 C   0  0  0  0  0  0  0  0  0  0  0  0
    0.3096   64.1166   86.3705 O   0  0  0  0  0  0  0  0  0  0  0  0
    0.6937   63.2268   88.5456 C   0  0  0  0  0  0  0  0  0  0  0  0
   -0.2849   63.9813   87.6634 C   0  0  0  0  0  0  0  0  0  0  0  0
   -1.8593   61.2230   81.9497 C   0  0  0  0  0  0  0  0  0  0  0  0
   -2.2753   62.1366   80.7759 C   0  0  0  0  0  0  0  0  0  0  0  0
   -1.2131   62.1371   79.6566 C   0  0  0  0  0  0  0  0  0  0  0  0
   -1.8208   62.4550   78.2934 C   0  0  0  0  0  0  0  0  0  0  0  0
   -2.8466   61.3895   77.8675 C   0  0  0  0  0  0  0  0  0  0  0  0
   -3.5958   60.7824   79.0676 C   0  0  0  0  0  0  0  0  0  0  0  0
   -3.6703   61.7477   80.2455 C   0  0  0  0  0  0  0  0  0  0  0  0
   -2.2036   60.2766   77.0419 C   0  0  0  0  0  0  0  0  0  0  0  0
   -2.8260   59.4255   76.4104 O   0  0  0  0  0  0  0  0  0  0  0  0
   -0.8244   60.2970   77.0538 N   0  0  0  0  0  0  0  0  0  0  0  0
   -0.2115   59.1950   76.4073 O   0  0  0  0  0  0  0  0  0  0  0  0
   -0.3088   60.6911   77.8336 H   0  0  0  0  0  0  0  0  0  0  0  0
   -0.9851   58.7026   76.0512 H   0  0  0  0  0  0  0  0  0  0  0  0
 22 23  1  0  0  0
 23 21  1  0  0  0
 21  1  1  0  0  0
  1  2  1  0  0  0
  2  3  2  0  0  0
  3  4  1  0  0  0
  4 24  1  0  0  0
 24 25  1  0  0  0
 25 26  1  0  0  0
 26 27  1  0  0  0
 27 28  1  0  0  0
 28 31  1  0  0  0
 31 32  2  0  0  0
 31 33  1  0  0  0
 33 34  1  0  0  0
 28 29  1  0  0  0
 29 30  1  0  0  0
  4  5  2  0  0  0
  5  6  1  0  0  0
  6  7  1  0  0  0
  7  8  2  0  0  0
  8  9  1  0  0  0
  9 10  1  0  0  0
 10 19  1  0  0  0
 19 20  1  0  0  0
 10 11  2  0  0  0
 11 12  1  0  0  0
 12 13  1  0  0  0
 12 14  1  0  0  0
 14 15  1  0  0  0
 15 16  2  0  0  0
 15 17  1  0  0  0
  6  1  2  0  0  0
 17  7  1  0  0  0
 30 25  1  0  0  0
 14  9  2  0  0  0
 33 35  1  0  0  0
 34 36  1  0  0  0
 17 18  1  0  0  0
M  END
> <minimizedAffinity>
-1.35886

$$$$
