


 23 25  0  0  0  0  0  0  0  0999 V2000
    0.2694   65.6564   81.0278 C   0  0  0  0  0  0  0  0  0  0  0  0
    0.6770   65.9229   82.2838 N   0  0  0  0  0  0  0  0  0  0  0  0
    0.4959   64.7512   82.9432 N   0  0  0  0  0  0  0  0  0  0  0  0
    0.8307   64.6540   84.3434 C   0  0  0  0  0  0  0  0  0  0  0  0
   -0.0075   63.7668   82.1528 C   0  0  0  0  0  0  0  0  0  0  0  0
   -0.3436   62.4196   82.4314 C   0  0  0  0  0  0  0  0  0  0  0  0
   -0.2291   61.8617   83.5163 O   0  0  0  0  0  0  0  0  0  0  0  0
   -0.8293   61.7874   81.3107 N   0  0  0  0  0  0  0  0  0  0  0  0
   -0.9739   62.3883   80.0640 C   0  0  0  0  0  0  0  0  0  0  0  0
   -0.6605   63.6322   79.8154 N   0  0  0  0  0  0  0  0  0  0  0  0
   -0.1603   64.3240   80.9194 C   0  0  0  0  0  0  0  0  0  0  0  0
   -1.0952   60.8159   81.4228 H   0  0  0  0  0  0  0  0  0  0  0  0
   -1.5264   61.5206   78.9679 C   0  0  0  0  0  0  0  0  0  0  0  0
   -0.6620   61.1641   77.9187 C   0  0  0  0  0  0  0  0  0  0  0  0
   -1.1041   60.3604   76.8650 C   0  0  0  0  0  0  0  0  0  0  0  0
   -2.4177   59.9008   76.8439 C   0  0  0  0  0  0  0  0  0  0  0  0
   -3.2923   60.2427   77.8749 C   0  0  0  0  0  0  0  0  0  0  0  0
   -2.8495   61.0477   78.9304 C   0  0  0  0  0  0  0  0  0  0  0  0
   -3.7381   61.3640   79.9275 O   0  0  0  0  0  0  0  0  0  0  0  0
   -4.5956   60.9467   79.7263 H   0  0  0  0  0  0  0  0  0  0  0  0
    0.3071   66.7054   79.9717 C   0  0  0  0  0  0  0  0  0  0  0  0
    1.0486   69.0662   80.4528 C   0  0  0  0  0  0  0  0  0  0  0  0
    1.4993   67.6486   80.1387 C   0  0  0  0  0  0  0  0  0  0  0  0
 22 23  1  0  0  0
 23 21  1  0  0  0
 21  1  1  0  0  0
  1  2  2  0  0  0
  2  3  1  0  0  0
  3  4  1  0  0  0
  3  5  1  0  0  0
  5  6  1  0  0  0
  6  7  2  0  0  0
  6  8  1  0  0  0
  8  9  1  0  0  0
  9 13  1  0  0  0
 13 14  2  0  0  0
 14 15  1  0  0  0
 15 16  2  0  0  0
 16 17  1  0  0  0
 17 18  2  0  0  0
 18 19  1  0  0  0
  9 10  2  0  0  0
 10 11  1  0  0  0
 11  1  1  0  0  0
 11  5  2  0  0  0
 18 13  1  0  0  0
  8 12  1  0  0  0
 19 20  1  0  0  0
M  END
> <minimizedAffinity>
-1.40543

$$$$



 23 25  0  0  0  0  0  0  0  0999 V2000
   -0.4444   63.2579   82.8113 C   0  0  0  0  0  0  0  0  0  0  0  0
    0.1302   64.4170   83.1864 N   0  0  0  0  0  0  0  0  0  0  0  0
    0.3744   65.0566   82.0151 N   0  0  0  0  0  0  0  0  0  0  0  0
    0.9984   66.3576   82.0217 C   0  0  0  0  0  0  0  0  0  0  0  0
   -0.0224   64.3458   80.9267 C   0  0  0  0  0  0  0  0  0  0  0  0
    0.0454   64.6342   79.5420 C   0  0  0  0  0  0  0  0  0  0  0  0
    0.5074   65.6540   79.0438 O   0  0  0  0  0  0  0  0  0  0  0  0
   -0.4823   63.6073   78.7947 N   0  0  0  0  0  0  0  0  0  0  0  0
   -1.0142   62.4359   79.3249 C   0  0  0  0  0  0  0  0  0  0  0  0
   -1.0737   62.1780   80.6044 N   0  0  0  0  0  0  0  0  0  0  0  0
   -0.5514   63.1887   81.4129 C   0  0  0  0  0  0  0  0  0  0  0  0
   -0.4728   63.7327   77.7891 H   0  0  0  0  0  0  0  0  0  0  0  0
   -1.5396   61.4359   78.3331 C   0  0  0  0  0  0  0  0  0  0  0  0
   -0.6348   60.9076   77.3965 C   0  0  0  0  0  0  0  0  0  0  0  0
   -1.0499   59.9738   76.4439 C   0  0  0  0  0  0  0  0  0  0  0  0
   -2.3766   59.5539   76.4131 C   0  0  0  0  0  0  0  0  0  0  0  0
   -3.2911   60.0653   77.3332 C   0  0  0  0  0  0  0  0  0  0  0  0
   -2.8754   61.0006   78.2874 C   0  0  0  0  0  0  0  0  0  0  0  0
   -3.8030   61.4824   79.1769 O   0  0  0  0  0  0  0  0  0  0  0  0
   -4.6634   61.0653   78.9882 H   0  0  0  0  0  0  0  0  0  0  0  0
   -0.8696   62.2514   83.8229 C   0  0  0  0  0  0  0  0  0  0  0  0
   -1.5524   62.1918   86.2487 C   0  0  0  0  0  0  0  0  0  0  0  0
   -0.5190   62.6828   85.2476 C   0  0  0  0  0  0  0  0  0  0  0  0
 22 23  1  0  0  0
 23 21  1  0  0  0
 21  1  1  0  0  0
  1  2  2  0  0  0
  2  3  1  0  0  0
  3  4  1  0  0  0
  3  5  1  0  0  0
  5  6  1  0  0  0
  6  7  2  0  0  0
  6  8  1  0  0  0
  8  9  1  0  0  0
  9 13  1  0  0  0
 13 14  2  0  0  0
 14 15  1  0  0  0
 15 16  2  0  0  0
 16 17  1  0  0  0
 17 18  2  0  0  0
 18 19  1  0  0  0
  9 10  2  0  0  0
 10 11  1  0  0  0
 11  1  1  0  0  0
 11  5  2  0  0  0
 18 13  1  0  0  0
  8 12  1  0  0  0
 19 20  1  0  0  0
M  END
> <minimizedAffinity>
-1.37854

$$$$



 23 25  0  0  0  0  0  0  0  0999 V2000
    0.2984   65.6658   81.1373 C   0  0  0  0  0  0  0  0  0  0  0  0
    0.7051   65.9102   82.3980 N   0  0  0  0  0  0  0  0  0  0  0  0
    0.4756   64.7424   83.0493 N   0  0  0  0  0  0  0  0  0  0  0  0
    0.7949   64.6253   84.4515 C   0  0  0  0  0  0  0  0  0  0  0  0
   -0.0572   63.7815   82.2492 C   0  0  0  0  0  0  0  0  0  0  0  0
   -0.4450   62.4462   82.5172 C   0  0  0  0  0  0  0  0  0  0  0  0
   -0.3601   61.8785   83.5998 O   0  0  0  0  0  0  0  0  0  0  0  0
   -0.9443   61.8385   81.3891 N   0  0  0  0  0  0  0  0  0  0  0  0
   -1.0564   62.4511   80.1447 C   0  0  0  0  0  0  0  0  0  0  0  0
   -0.6953   63.6839   79.9058 N   0  0  0  0  0  0  0  0  0  0  0  0
   -0.1791   64.3507   81.0178 C   0  0  0  0  0  0  0  0  0  0  0  0
   -1.2468   60.8769   81.4934 H   0  0  0  0  0  0  0  0  0  0  0  0
   -1.6314   61.6104   79.0392 C   0  0  0  0  0  0  0  0  0  0  0  0
   -2.8662   60.9809   79.2720 C   0  0  0  0  0  0  0  0  0  0  0  0
   -3.4626   60.1839   78.2918 C   0  0  0  0  0  0  0  0  0  0  0  0
   -2.8333   60.0038   77.0634 C   0  0  0  0  0  0  0  0  0  0  0  0
   -1.6076   60.6192   76.8114 C   0  0  0  0  0  0  0  0  0  0  0  0
   -1.0102   61.4175   77.7931 C   0  0  0  0  0  0  0  0  0  0  0  0
    0.1965   62.0072   77.5100 O   0  0  0  0  0  0  0  0  0  0  0  0
    0.4619   61.7582   76.6059 H   0  0  0  0  0  0  0  0  0  0  0  0
    0.3835   66.7185   80.0876 C   0  0  0  0  0  0  0  0  0  0  0  0
    0.9939   69.1135   80.5835 C   0  0  0  0  0  0  0  0  0  0  0  0
    1.5206   67.7061   80.3528 C   0  0  0  0  0  0  0  0  0  0  0  0
 22 23  1  0  0  0
 23 21  1  0  0  0
 21  1  1  0  0  0
  1  2  2  0  0  0
  2  3  1  0  0  0
  3  4  1  0  0  0
  3  5  1  0  0  0
  5  6  1  0  0  0
  6  7  2  0  0  0
  6  8  1  0  0  0
  8  9  1  0  0  0
  9 13  1  0  0  0
 13 14  2  0  0  0
 14 15  1  0  0  0
 15 16  2  0  0  0
 16 17  1  0  0  0
 17 18  2  0  0  0
 18 19  1  0  0  0
  9 10  2  0  0  0
 10 11  1  0  0  0
 11  1  1  0  0  0
 11  5  2  0  0  0
 18 13  1  0  0  0
  8 12  1  0  0  0
 19 20  1  0  0  0
M  END
> <minimizedAffinity>
-1.34777

$$$$



 23 25  0  0  0  0  0  0  0  0999 V2000
    2.5307   67.4639   82.9383 C   0  0  0  0  0  0  0  0  0  0  0  0
    2.6105   68.8009   82.7946 N   0  0  0  0  0  0  0  0  0  0  0  0
    1.6844   69.0848   81.8447 N   0  0  0  0  0  0  0  0  0  0  0  0
    1.4827   70.4493   81.4210 C   0  0  0  0  0  0  0  0  0  0  0  0
    1.0320   67.9826   81.3899 C   0  0  0  0  0  0  0  0  0  0  0  0
    0.0133   67.8297   80.4181 C   0  0  0  0  0  0  0  0  0  0  0  0
   -0.4994   68.7333   79.7685 O   0  0  0  0  0  0  0  0  0  0  0  0
   -0.3474   66.5097   80.2809 N   0  0  0  0  0  0  0  0  0  0  0  0
    0.2124   65.4581   80.9999 C   0  0  0  0  0  0  0  0  0  0  0  0
    1.1518   65.6082   81.8956 N   0  0  0  0  0  0  0  0  0  0  0  0
    1.5576   66.9310   82.0776 C   0  0  0  0  0  0  0  0  0  0  0  0
   -1.0736   66.3107   79.6025 H   0  0  0  0  0  0  0  0  0  0  0  0
   -0.3232   64.0865   80.6976 C   0  0  0  0  0  0  0  0  0  0  0  0
   -0.1960   63.6111   79.3811 C   0  0  0  0  0  0  0  0  0  0  0  0
   -0.6702   62.3462   79.0249 C   0  0  0  0  0  0  0  0  0  0  0  0
   -1.2791   61.5369   79.9797 C   0  0  0  0  0  0  0  0  0  0  0  0
   -1.4156   61.9889   81.2918 C   0  0  0  0  0  0  0  0  0  0  0  0
   -0.9408   63.2559   81.6487 C   0  0  0  0  0  0  0  0  0  0  0  0
   -1.0926   63.6676   82.9492 O   0  0  0  0  0  0  0  0  0  0  0  0
   -1.5377   62.9606   83.4512 H   0  0  0  0  0  0  0  0  0  0  0  0
    3.4046   66.7442   83.9056 C   0  0  0  0  0  0  0  0  0  0  0  0
    5.4590   66.9053   85.3575 C   0  0  0  0  0  0  0  0  0  0  0  0
    4.4007   67.6813   84.5900 C   0  0  0  0  0  0  0  0  0  0  0  0
 22 23  1  0  0  0
 23 21  1  0  0  0
 21  1  1  0  0  0
  1  2  2  0  0  0
  2  3  1  0  0  0
  3  4  1  0  0  0
  3  5  1  0  0  0
  5  6  1  0  0  0
  6  7  2  0  0  0
  6  8  1  0  0  0
  8  9  1  0  0  0
  9 13  1  0  0  0
 13 14  2  0  0  0
 14 15  1  0  0  0
 15 16  2  0  0  0
 16 17  1  0  0  0
 17 18  2  0  0  0
 18 19  1  0  0  0
  9 10  2  0  0  0
 10 11  1  0  0  0
 11  1  1  0  0  0
 11  5  2  0  0  0
 18 13  1  0  0  0
  8 12  1  0  0  0
 19 20  1  0  0  0
M  END
> <minimizedAffinity>
-1.18959

$$$$



 23 25  0  0  0  0  0  0  0  0999 V2000
   -1.2790   61.7258   79.2851 C   0  0  0  0  0  0  0  0  0  0  0  0
   -1.9561   60.6999   79.8364 N   0  0  0  0  0  0  0  0  0  0  0  0
   -2.0933   61.0587   81.1375 N   0  0  0  0  0  0  0  0  0  0  0  0
   -2.7816   60.1848   82.0565 C   0  0  0  0  0  0  0  0  0  0  0  0
   -1.5304   62.2629   81.4208 C   0  0  0  0  0  0  0  0  0  0  0  0
   -1.4437   62.9972   82.6286 C   0  0  0  0  0  0  0  0  0  0  0  0
   -1.8972   62.6503   83.7128 O   0  0  0  0  0  0  0  0  0  0  0  0
   -0.7709   64.1820   82.4418 N   0  0  0  0  0  0  0  0  0  0  0  0
   -0.2421   64.6082   81.2272 C   0  0  0  0  0  0  0  0  0  0  0  0
   -0.3274   63.9245   80.1170 N   0  0  0  0  0  0  0  0  0  0  0  0
   -1.0026   62.7101   80.2476 C   0  0  0  0  0  0  0  0  0  0  0  0
   -0.6632   64.7712   83.2594 H   0  0  0  0  0  0  0  0  0  0  0  0
    0.4597   65.9374   81.2374 C   0  0  0  0  0  0  0  0  0  0  0  0
    0.1468   66.8490   80.2146 C   0  0  0  0  0  0  0  0  0  0  0  0
    0.7587   68.1037   80.1584 C   0  0  0  0  0  0  0  0  0  0  0  0
    1.6932   68.4662   81.1241 C   0  0  0  0  0  0  0  0  0  0  0  0
    2.0184   67.5769   82.1478 C   0  0  0  0  0  0  0  0  0  0  0  0
    1.4056   66.3202   82.2042 C   0  0  0  0  0  0  0  0  0  0  0  0
    1.7503   65.4709   83.2258 O   0  0  0  0  0  0  0  0  0  0  0  0
    2.4132   65.9112   83.7885 H   0  0  0  0  0  0  0  0  0  0  0  0
   -0.9188   61.7171   77.8403 C   0  0  0  0  0  0  0  0  0  0  0  0
   -1.3504   59.6869   76.4098 C   0  0  0  0  0  0  0  0  0  0  0  0
   -1.9432   60.9584   76.9955 C   0  0  0  0  0  0  0  0  0  0  0  0
 22 23  1  0  0  0
 23 21  1  0  0  0
 21  1  1  0  0  0
  1  2  2  0  0  0
  2  3  1  0  0  0
  3  4  1  0  0  0
  3  5  1  0  0  0
  5  6  1  0  0  0
  6  7  2  0  0  0
  6  8  1  0  0  0
  8  9  1  0  0  0
  9 13  1  0  0  0
 13 14  2  0  0  0
 14 15  1  0  0  0
 15 16  2  0  0  0
 16 17  1  0  0  0
 17 18  2  0  0  0
 18 19  1  0  0  0
  9 10  2  0  0  0
 10 11  1  0  0  0
 11  1  1  0  0  0
 11  5  2  0  0  0
 18 13  1  0  0  0
  8 12  1  0  0  0
 19 20  1  0  0  0
M  END
> <minimizedAffinity>
-1.17602

$$$$



 23 25  0  0  0  0  0  0  0  0999 V2000
    3.3198   67.6225   83.8621 C   0  0  0  0  0  0  0  0  0  0  0  0
    2.7112   66.4356   83.6736 N   0  0  0  0  0  0  0  0  0  0  0  0
    1.8857   66.6537   82.6194 N   0  0  0  0  0  0  0  0  0  0  0  0
    1.0544   65.5840   82.1226 C   0  0  0  0  0  0  0  0  0  0  0  0
    1.9529   67.9250   82.1436 C   0  0  0  0  0  0  0  0  0  0  0  0
    1.2735   68.5656   81.0790 C   0  0  0  0  0  0  0  0  0  0  0  0
    0.4436   68.0460   80.3423 O   0  0  0  0  0  0  0  0  0  0  0  0
    1.6623   69.8795   80.9613 N   0  0  0  0  0  0  0  0  0  0  0  0
    2.5998   70.5030   81.7789 C   0  0  0  0  0  0  0  0  0  0  0  0
    3.2229   69.9041   82.7589 N   0  0  0  0  0  0  0  0  0  0  0  0
    2.8671   68.5648   82.9247 C   0  0  0  0  0  0  0  0  0  0  0  0
    1.2223   70.4135   80.2208 H   0  0  0  0  0  0  0  0  0  0  0  0
    2.8824   71.9495   81.4834 C   0  0  0  0  0  0  0  0  0  0  0  0
    2.0064   72.9089   82.0194 C   0  0  0  0  0  0  0  0  0  0  0  0
    2.2047   74.2722   81.7875 C   0  0  0  0  0  0  0  0  0  0  0  0
    3.2822   74.6974   81.0158 C   0  0  0  0  0  0  0  0  0  0  0  0
    4.1636   73.7623   80.4742 C   0  0  0  0  0  0  0  0  0  0  0  0
    3.9651   72.3968   80.7064 C   0  0  0  0  0  0  0  0  0  0  0  0
    4.8525   71.5052   80.1575 O   0  0  0  0  0  0  0  0  0  0  0  0
    5.5271   72.0019   79.6592 H   0  0  0  0  0  0  0  0  0  0  0  0
    4.3209   67.8057   84.9491 C   0  0  0  0  0  0  0  0  0  0  0  0
    6.3985   66.6589   85.7993 C   0  0  0  0  0  0  0  0  0  0  0  0
    4.9465   66.4803   85.3857 C   0  0  0  0  0  0  0  0  0  0  0  0
 22 23  1  0  0  0
 23 21  1  0  0  0
 21  1  1  0  0  0
  1  2  2  0  0  0
  2  3  1  0  0  0
  3  4  1  0  0  0
  3  5  1  0  0  0
  5  6  1  0  0  0
  6  7  2  0  0  0
  6  8  1  0  0  0
  8  9  1  0  0  0
  9 13  1  0  0  0
 13 14  2  0  0  0
 14 15  1  0  0  0
 15 16  2  0  0  0
 16 17  1  0  0  0
 17 18  2  0  0  0
 18 19  1  0  0  0
  9 10  2  0  0  0
 10 11  1  0  0  0
 11  1  1  0  0  0
 11  5  2  0  0  0
 18 13  1  0  0  0
  8 12  1  0  0  0
 19 20  1  0  0  0
M  END
> <minimizedAffinity>
-1.15297

$$$$



 23 25  0  0  0  0  0  0  0  0999 V2000
    1.0135   65.3112   82.7044 C   0  0  0  0  0  0  0  0  0  0  0  0
    1.0497   65.3507   84.0504 N   0  0  0  0  0  0  0  0  0  0  0  0
    0.3023   64.2841   84.4303 N   0  0  0  0  0  0  0  0  0  0  0  0
    0.1114   64.0016   85.8324 C   0  0  0  0  0  0  0  0  0  0  0  0
   -0.1986   63.5826   83.3795 C   0  0  0  0  0  0  0  0  0  0  0  0
   -1.0149   62.4266   83.3268 C   0  0  0  0  0  0  0  0  0  0  0  0
   -1.4444   61.8075   84.2931 O   0  0  0  0  0  0  0  0  0  0  0  0
   -1.2805   62.0656   82.0266 N   0  0  0  0  0  0  0  0  0  0  0  0
   -0.8114   62.7440   80.9059 C   0  0  0  0  0  0  0  0  0  0  0  0
   -0.0576   63.8097   80.9635 N   0  0  0  0  0  0  0  0  0  0  0  0
    0.2452   64.2223   82.2619 C   0  0  0  0  0  0  0  0  0  0  0  0
   -1.8612   61.2449   81.8980 H   0  0  0  0  0  0  0  0  0  0  0  0
   -1.2190   62.1850   79.5714 C   0  0  0  0  0  0  0  0  0  0  0  0
   -1.7190   60.8720   79.5384 C   0  0  0  0  0  0  0  0  0  0  0  0
   -2.1177   60.2849   78.3350 C   0  0  0  0  0  0  0  0  0  0  0  0
   -2.0224   61.0018   77.1457 C   0  0  0  0  0  0  0  0  0  0  0  0
   -1.5290   62.3060   77.1557 C   0  0  0  0  0  0  0  0  0  0  0  0
   -1.1297   62.8941   78.3610 C   0  0  0  0  0  0  0  0  0  0  0  0
   -0.6489   64.1794   78.3327 O   0  0  0  0  0  0  0  0  0  0  0  0
   -0.6648   64.4991   77.4121 H   0  0  0  0  0  0  0  0  0  0  0  0
    1.7245   66.3344   81.8889 C   0  0  0  0  0  0  0  0  0  0  0  0
    3.0386   68.1275   83.0771 C   0  0  0  0  0  0  0  0  0  0  0  0
    1.6782   67.7198   82.5347 C   0  0  0  0  0  0  0  0  0  0  0  0
 22 23  1  0  0  0
 23 21  1  0  0  0
 21  1  1  0  0  0
  1  2  2  0  0  0
  2  3  1  0  0  0
  3  4  1  0  0  0
  3  5  1  0  0  0
  5  6  1  0  0  0
  6  7  2  0  0  0
  6  8  1  0  0  0
  8  9  1  0  0  0
  9 13  1  0  0  0
 13 14  2  0  0  0
 14 15  1  0  0  0
 15 16  2  0  0  0
 16 17  1  0  0  0
 17 18  2  0  0  0
 18 19  1  0  0  0
  9 10  2  0  0  0
 10 11  1  0  0  0
 11  1  1  0  0  0
 11  5  2  0  0  0
 18 13  1  0  0  0
  8 12  1  0  0  0
 19 20  1  0  0  0
M  END
> <minimizedAffinity>
-1.11453

$$$$



 23 25  0  0  0  0  0  0  0  0999 V2000
   -1.2065   62.0451   79.6476 C   0  0  0  0  0  0  0  0  0  0  0  0
   -0.9628   62.7530   78.5278 N   0  0  0  0  0  0  0  0  0  0  0  0
   -0.4981   63.9424   78.9859 N   0  0  0  0  0  0  0  0  0  0  0  0
   -0.1258   64.9778   78.0524 C   0  0  0  0  0  0  0  0  0  0  0  0
   -0.4426   64.0064   80.3425 C   0  0  0  0  0  0  0  0  0  0  0  0
   -0.0301   65.0411   81.2169 C   0  0  0  0  0  0  0  0  0  0  0  0
    0.3827   66.1440   80.8783 O   0  0  0  0  0  0  0  0  0  0  0  0
   -0.1490   64.6564   82.5319 N   0  0  0  0  0  0  0  0  0  0  0  0
   -0.6138   63.4144   82.9535 C   0  0  0  0  0  0  0  0  0  0  0  0
   -0.9918   62.4646   82.1396 N   0  0  0  0  0  0  0  0  0  0  0  0
   -0.8915   62.8003   80.7887 C   0  0  0  0  0  0  0  0  0  0  0  0
    0.1260   65.3409   83.2268 H   0  0  0  0  0  0  0  0  0  0  0  0
   -0.6682   63.1943   84.4395 C   0  0  0  0  0  0  0  0  0  0  0  0
    0.3389   63.7819   85.2241 C   0  0  0  0  0  0  0  0  0  0  0  0
    0.3543   63.6212   86.6118 C   0  0  0  0  0  0  0  0  0  0  0  0
   -0.6372   62.8702   87.2365 C   0  0  0  0  0  0  0  0  0  0  0  0
   -1.6458   62.2783   86.4770 C   0  0  0  0  0  0  0  0  0  0  0  0
   -1.6614   62.4392   85.0870 C   0  0  0  0  0  0  0  0  0  0  0  0
   -2.6693   61.8422   84.3718 O   0  0  0  0  0  0  0  0  0  0  0  0
   -3.2545   61.3690   84.9912 H   0  0  0  0  0  0  0  0  0  0  0  0
   -1.7408   60.6571   79.5749 C   0  0  0  0  0  0  0  0  0  0  0  0
   -1.8168   59.5502   77.3115 C   0  0  0  0  0  0  0  0  0  0  0  0
   -2.5640   60.4221   78.3077 C   0  0  0  0  0  0  0  0  0  0  0  0
 22 23  1  0  0  0
 23 21  1  0  0  0
 21  1  1  0  0  0
  1  2  2  0  0  0
  2  3  1  0  0  0
  3  4  1  0  0  0
  3  5  1  0  0  0
  5  6  1  0  0  0
  6  7  2  0  0  0
  6  8  1  0  0  0
  8  9  1  0  0  0
  9 13  1  0  0  0
 13 14  2  0  0  0
 14 15  1  0  0  0
 15 16  2  0  0  0
 16 17  1  0  0  0
 17 18  2  0  0  0
 18 19  1  0  0  0
  9 10  2  0  0  0
 10 11  1  0  0  0
 11  1  1  0  0  0
 11  5  2  0  0  0
 18 13  1  0  0  0
  8 12  1  0  0  0
 19 20  1  0  0  0
M  END
> <minimizedAffinity>
-1.10541

$$$$



 23 25  0  0  0  0  0  0  0  0999 V2000
   -0.7114   62.5355   78.0091 C   0  0  0  0  0  0  0  0  0  0  0  0
   -1.2064   61.8149   76.9843 N   0  0  0  0  0  0  0  0  0  0  0  0
   -1.9825   60.8788   77.5858 N   0  0  0  0  0  0  0  0  0  0  0  0
   -2.6889   59.9073   76.7863 C   0  0  0  0  0  0  0  0  0  0  0  0
   -1.9917   60.9844   78.9408 C   0  0  0  0  0  0  0  0  0  0  0  0
   -2.6527   60.2249   79.9366 C   0  0  0  0  0  0  0  0  0  0  0  0
   -3.3903   59.2672   79.7362 O   0  0  0  0  0  0  0  0  0  0  0  0
   -2.3638   60.6984   81.1951 N   0  0  0  0  0  0  0  0  0  0  0  0
   -1.5314   61.7813   81.4608 C   0  0  0  0  0  0  0  0  0  0  0  0
   -0.9258   62.4773   80.5355 N   0  0  0  0  0  0  0  0  0  0  0  0
   -1.1839   62.0407   79.2354 C   0  0  0  0  0  0  0  0  0  0  0  0
   -2.7978   60.2094   81.9695 H   0  0  0  0  0  0  0  0  0  0  0  0
   -1.3452   62.1371   82.9093 C   0  0  0  0  0  0  0  0  0  0  0  0
   -2.4396   61.9561   83.7723 C   0  0  0  0  0  0  0  0  0  0  0  0
   -2.3419   62.2649   85.1312 C   0  0  0  0  0  0  0  0  0  0  0  0
   -1.1483   62.7598   85.6485 C   0  0  0  0  0  0  0  0  0  0  0  0
   -0.0499   62.9471   84.8100 C   0  0  0  0  0  0  0  0  0  0  0  0
   -0.1476   62.6378   83.4488 C   0  0  0  0  0  0  0  0  0  0  0  0
    0.9536   62.8352   82.6536 O   0  0  0  0  0  0  0  0  0  0  0  0
    1.6787   63.1830   83.2042 H   0  0  0  0  0  0  0  0  0  0  0  0
    0.2080   63.6812   77.7659 C   0  0  0  0  0  0  0  0  0  0  0  0
   -0.0724   65.7016   79.2471 C   0  0  0  0  0  0  0  0  0  0  0  0
   -0.4903   65.0294   77.9491 C   0  0  0  0  0  0  0  0  0  0  0  0
 22 23  1  0  0  0
 23 21  1  0  0  0
 21  1  1  0  0  0
  1  2  2  0  0  0
  2  3  1  0  0  0
  3  4  1  0  0  0
  3  5  1  0  0  0
  5  6  1  0  0  0
  6  7  2  0  0  0
  6  8  1  0  0  0
  8  9  1  0  0  0
  9 13  1  0  0  0
 13 14  2  0  0  0
 14 15  1  0  0  0
 15 16  2  0  0  0
 16 17  1  0  0  0
 17 18  2  0  0  0
 18 19  1  0  0  0
  9 10  2  0  0  0
 10 11  1  0  0  0
 11  1  1  0  0  0
 11  5  2  0  0  0
 18 13  1  0  0  0
  8 12  1  0  0  0
 19 20  1  0  0  0
M  END
> <minimizedAffinity>
-1.08903

$$$$
