


 30 34  0  0  0  0  0  0  0  0999 V2000
   -0.2676   62.5544   78.4699 N   0  0  0  0  0  0  0  0  0  0  0  0
   -0.8074   63.8030   78.3035 C   0  0  0  0  0  0  0  0  0  0  0  0
   -1.3320   64.2380   77.2870 O   0  0  0  0  0  0  0  0  0  0  0  0
   -0.6508   64.5816   79.6006 C   0  0  0  0  0  0  0  0  0  0  0  0
    0.1248   65.8892   79.4037 C   0  0  0  0  0  0  0  0  0  0  0  0
    0.7551   66.2882   80.6983 C   0  0  0  0  0  0  0  0  0  0  0  0
    0.9692   65.3720   81.7147 C   0  0  0  0  0  0  0  0  0  0  0  0
    1.5669   66.0312   82.7555 N   0  0  0  0  0  0  0  0  0  0  0  0
    1.7398   67.3602   82.4316 C   0  0  0  0  0  0  0  0  0  0  0  0
    2.2982   68.4022   83.1815 C   0  0  0  0  0  0  0  0  0  0  0  0
    2.3486   69.6697   82.5937 C   0  0  0  0  0  0  0  0  0  0  0  0
    1.8598   69.8849   81.3072 C   0  0  0  0  0  0  0  0  0  0  0  0
    1.3032   68.8336   80.5697 C   0  0  0  0  0  0  0  0  0  0  0  0
    1.2393   67.5477   81.1403 C   0  0  0  0  0  0  0  0  0  0  0  0
    0.6288   63.9109   81.7066 C   0  0  0  0  0  0  0  0  0  0  0  0
    0.0787   63.6001   80.3951 N   0  0  0  0  0  0  0  0  0  0  0  0
    0.2864   62.4230   79.7139 C   0  0  0  0  0  0  0  0  0  0  0  0
    0.8904   61.4541   80.1467 O   0  0  0  0  0  0  0  0  0  0  0  0
    1.8296   65.6205   83.6414 H   0  0  0  0  0  0  0  0  0  0  0  0
   -0.3522   63.4674   82.7665 C   0  0  0  0  0  0  0  0  0  0  0  0
   -1.6831   63.1264   82.5748 C   0  0  0  0  0  0  0  0  0  0  0  0
   -2.3407   62.7609   83.7865 C   0  0  0  0  0  0  0  0  0  0  0  0
   -1.4877   62.8468   84.8554 C   0  0  0  0  0  0  0  0  0  0  0  0
   -2.0025   62.4398   86.6500 Br  0  0  0  0  0  0  0  0  0  0  0  0
    0.0684   63.3571   84.4330 S   0  0  0  0  0  0  0  0  0  0  0  0
   -0.2205   61.5391   77.4410 C   0  0  0  0  0  0  0  0  0  0  0  0
   -1.5924   60.9632   77.0701 C   0  0  0  0  0  0  0  0  0  0  0  0
   -2.0253   59.7547   77.9086 C   0  0  0  0  0  0  0  0  0  0  0  0
   -3.1434   59.9816   80.1555 C   0  0  0  0  0  0  0  0  0  0  0  0
   -3.3468   59.9737   78.6483 C   0  0  0  0  0  0  0  0  0  0  0  0
 29 30  1  0  0  0
 30 28  1  0  0  0
 28 27  1  0  0  0
 27 26  1  0  0  0
 26  1  1  0  0  0
  1  2  1  0  0  0
  2  3  2  0  0  0
  2  4  1  0  0  0
  4  5  1  0  0  0
  5  6  1  0  0  0
  6  7  2  0  0  0
  7  8  1  0  0  0
  8  9  1  0  0  0
  9 10  2  0  0  0
 10 11  1  0  0  0
 11 12  2  0  0  0
 12 13  1  0  0  0
 13 14  2  0  0  0
  7 15  1  0  0  0
 15 20  1  0  0  0
 20 21  2  0  0  0
 21 22  1  0  0  0
 22 23  2  0  0  0
 23 24  1  0  0  0
 23 25  1  0  0  0
 15 16  1  0  0  0
 16 17  1  0  0  0
 17 18  2  0  0  0
 17  1  1  0  0  0
 16  4  1  0  0  0
 14  6  1  0  0  0
 25 20  1  0  0  0
 14  9  1  0  0  0
  8 19  1  0  0  0
M  END
> <minimizedAffinity>
-1.26068

$$$$



 30 34  0  0  0  0  0  0  0  0999 V2000
    1.2737   70.9449   81.3870 N   0  0  0  0  0  0  0  0  0  0  0  0
    2.5269   71.4986   81.4152 C   0  0  0  0  0  0  0  0  0  0  0  0
    3.5881   70.8916   81.4700 O   0  0  0  0  0  0  0  0  0  0  0  0
    2.3950   73.0131   81.3683 C   0  0  0  0  0  0  0  0  0  0  0  0
    3.0627   73.6923   82.5695 C   0  0  0  0  0  0  0  0  0  0  0  0
    2.4238   75.0229   82.8013 C   0  0  0  0  0  0  0  0  0  0  0  0
    1.1639   75.3195   82.3082 C   0  0  0  0  0  0  0  0  0  0  0  0
    0.8524   76.5963   82.6924 N   0  0  0  0  0  0  0  0  0  0  0  0
    1.8913   77.1332   83.4227 C   0  0  0  0  0  0  0  0  0  0  0  0
    2.0173   78.3981   84.0094 C   0  0  0  0  0  0  0  0  0  0  0  0
    3.1981   78.6760   84.7046 C   0  0  0  0  0  0  0  0  0  0  0  0
    4.2113   77.7257   84.8082 C   0  0  0  0  0  0  0  0  0  0  0  0
    4.0716   76.4655   84.2155 C   0  0  0  0  0  0  0  0  0  0  0  0
    2.8924   76.1618   83.5082 C   0  0  0  0  0  0  0  0  0  0  0  0
    0.2700   74.4233   81.5030 C   0  0  0  0  0  0  0  0  0  0  0  0
    0.9421   73.1381   81.3776 N   0  0  0  0  0  0  0  0  0  0  0  0
    0.3101   71.9161   81.3843 C   0  0  0  0  0  0  0  0  0  0  0  0
   -0.8988   71.7468   81.4163 O   0  0  0  0  0  0  0  0  0  0  0  0
   -0.0004   77.0898   82.4648 H   0  0  0  0  0  0  0  0  0  0  0  0
   -0.0820   74.9283   80.1232 C   0  0  0  0  0  0  0  0  0  0  0  0
    0.7317   75.6681   79.2778 C   0  0  0  0  0  0  0  0  0  0  0  0
    0.0944   75.9977   78.0451 C   0  0  0  0  0  0  0  0  0  0  0  0
   -1.1831   75.5041   78.0034 C   0  0  0  0  0  0  0  0  0  0  0  0
   -2.3574   75.7433   76.5151 Br  0  0  0  0  0  0  0  0  0  0  0  0
   -1.6250   74.6663   79.4045 S   0  0  0  0  0  0  0  0  0  0  0  0
    1.0049   69.5246   81.4333 C   0  0  0  0  0  0  0  0  0  0  0  0
    1.1392   68.8201   80.0780 C   0  0  0  0  0  0  0  0  0  0  0  0
    1.2367   67.2921   80.1597 C   0  0  0  0  0  0  0  0  0  0  0  0
   -0.1161   65.3878   79.2146 C   0  0  0  0  0  0  0  0  0  0  0  0
   -0.1261   66.5968   80.1373 C   0  0  0  0  0  0  0  0  0  0  0  0
 29 30  1  0  0  0
 30 28  1  0  0  0
 28 27  1  0  0  0
 27 26  1  0  0  0
 26  1  1  0  0  0
  1  2  1  0  0  0
  2  3  2  0  0  0
  2  4  1  0  0  0
  4  5  1  0  0  0
  5  6  1  0  0  0
  6  7  2  0  0  0
  7  8  1  0  0  0
  8  9  1  0  0  0
  9 10  2  0  0  0
 10 11  1  0  0  0
 11 12  2  0  0  0
 12 13  1  0  0  0
 13 14  2  0  0  0
  7 15  1  0  0  0
 15 20  1  0  0  0
 20 21  2  0  0  0
 21 22  1  0  0  0
 22 23  2  0  0  0
 23 24  1  0  0  0
 23 25  1  0  0  0
 15 16  1  0  0  0
 16 17  1  0  0  0
 17 18  2  0  0  0
 17  1  1  0  0  0
 16  4  1  0  0  0
 14  6  1  0  0  0
 25 20  1  0  0  0
 14  9  1  0  0  0
  8 19  1  0  0  0
M  END
> <minimizedAffinity>
-1.19832

$$$$



 30 34  0  0  0  0  0  0  0  0999 V2000
    1.9313   71.0195   81.0813 N   0  0  0  0  0  0  0  0  0  0  0  0
    3.0892   71.7504   81.0249 C   0  0  0  0  0  0  0  0  0  0  0  0
    4.2236   71.3062   80.9087 O   0  0  0  0  0  0  0  0  0  0  0  0
    2.7424   73.2274   81.1321 C   0  0  0  0  0  0  0  0  0  0  0  0
    3.4481   73.9061   82.3117 C   0  0  0  0  0  0  0  0  0  0  0  0
    2.6623   75.1051   82.7326 C   0  0  0  0  0  0  0  0  0  0  0  0
    1.3233   75.2466   82.4078 C   0  0  0  0  0  0  0  0  0  0  0  0
    0.8850   76.4300   82.9392 N   0  0  0  0  0  0  0  0  0  0  0  0
    1.9189   77.0594   83.5994 C   0  0  0  0  0  0  0  0  0  0  0  0
    1.9367   78.2810   84.2830 C   0  0  0  0  0  0  0  0  0  0  0  0
    3.1419   78.6788   84.8693 C   0  0  0  0  0  0  0  0  0  0  0  0
    4.2829   77.8854   84.7750 C   0  0  0  0  0  0  0  0  0  0  0  0
    4.2504   76.6668   84.0874 C   0  0  0  0  0  0  0  0  0  0  0  0
    3.0488   76.2446   83.4865 C   0  0  0  0  0  0  0  0  0  0  0  0
    0.4730   74.2904   81.6247 C   0  0  0  0  0  0  0  0  0  0  0  0
    1.2980   73.1330   81.3097 N   0  0  0  0  0  0  0  0  0  0  0  0
    0.8482   71.8334   81.2721 C   0  0  0  0  0  0  0  0  0  0  0  0
   -0.3124   71.4836   81.4187 O   0  0  0  0  0  0  0  0  0  0  0  0
   -0.0495   76.8063   82.8514 H   0  0  0  0  0  0  0  0  0  0  0  0
   -0.1093   74.8397   80.3434 C   0  0  0  0  0  0  0  0  0  0  0  0
   -1.3357   74.5143   79.7829 C   0  0  0  0  0  0  0  0  0  0  0  0
   -1.5847   75.2027   78.5588 C   0  0  0  0  0  0  0  0  0  0  0  0
   -0.5342   76.0185   78.2297 C   0  0  0  0  0  0  0  0  0  0  0  0
   -0.4938   77.1022   76.6564 Br  0  0  0  0  0  0  0  0  0  0  0  0
    0.7315   75.9679   79.3503 S   0  0  0  0  0  0  0  0  0  0  0  0
    1.8710   69.5756   81.0255 C   0  0  0  0  0  0  0  0  0  0  0  0
    1.8280   68.8996   82.4011 C   0  0  0  0  0  0  0  0  0  0  0  0
    3.2027   68.6460   83.0310 C   0  0  0  0  0  0  0  0  0  0  0  0
    4.3719   67.6381   85.0228 C   0  0  0  0  0  0  0  0  0  0  0  0
    3.1954   67.5193   84.0663 C   0  0  0  0  0  0  0  0  0  0  0  0
 29 30  1  0  0  0
 30 28  1  0  0  0
 28 27  1  0  0  0
 27 26  1  0  0  0
 26  1  1  0  0  0
  1  2  1  0  0  0
  2  3  2  0  0  0
  2  4  1  0  0  0
  4  5  1  0  0  0
  5  6  1  0  0  0
  6  7  2  0  0  0
  7  8  1  0  0  0
  8  9  1  0  0  0
  9 10  2  0  0  0
 10 11  1  0  0  0
 11 12  2  0  0  0
 12 13  1  0  0  0
 13 14  2  0  0  0
  7 15  1  0  0  0
 15 20  1  0  0  0
 20 21  2  0  0  0
 21 22  1  0  0  0
 22 23  2  0  0  0
 23 24  1  0  0  0
 23 25  1  0  0  0
 15 16  1  0  0  0
 16 17  1  0  0  0
 17 18  2  0  0  0
 17  1  1  0  0  0
 16  4  1  0  0  0
 14  6  1  0  0  0
 25 20  1  0  0  0
 14  9  1  0  0  0
  8 19  1  0  0  0
M  END
> <minimizedAffinity>
-1.17705

$$$$



 30 34  0  0  0  0  0  0  0  0999 V2000
    1.4199   77.0541   82.7789 N   0  0  0  0  0  0  0  0  0  0  0  0
    0.6407   76.4140   81.8508 C   0  0  0  0  0  0  0  0  0  0  0  0
   -0.4879   76.7356   81.5040 O   0  0  0  0  0  0  0  0  0  0  0  0
    1.4077   75.2183   81.3076 C   0  0  0  0  0  0  0  0  0  0  0  0
    0.6498   73.9011   81.5092 C   0  0  0  0  0  0  0  0  0  0  0  0
    1.6252   72.7696   81.5324 C   0  0  0  0  0  0  0  0  0  0  0  0
    2.9681   72.9737   81.8036 C   0  0  0  0  0  0  0  0  0  0  0  0
    3.5942   71.7566   81.7647 N   0  0  0  0  0  0  0  0  0  0  0  0
    2.6799   70.7679   81.4687 C   0  0  0  0  0  0  0  0  0  0  0  0
    2.8650   69.3879   81.3224 C   0  0  0  0  0  0  0  0  0  0  0  0
    1.7426   68.6116   81.0189 C   0  0  0  0  0  0  0  0  0  0  0  0
    0.4860   69.1935   80.8680 C   0  0  0  0  0  0  0  0  0  0  0  0
    0.3165   70.5749   81.0161 C   0  0  0  0  0  0  0  0  0  0  0  0
    1.4319   71.3789   81.3202 C   0  0  0  0  0  0  0  0  0  0  0  0
    3.6462   74.2785   82.1006 C   0  0  0  0  0  0  0  0  0  0  0  0
    2.6180   75.3090   82.1162 N   0  0  0  0  0  0  0  0  0  0  0  0
    2.6027   76.3920   82.9644 C   0  0  0  0  0  0  0  0  0  0  0  0
    3.4835   76.6778   83.7604 O   0  0  0  0  0  0  0  0  0  0  0  0
    4.5819   71.5960   81.9104 H   0  0  0  0  0  0  0  0  0  0  0  0
    4.7296   74.6827   81.1283 C   0  0  0  0  0  0  0  0  0  0  0  0
    4.6792   74.5917   79.7450 C   0  0  0  0  0  0  0  0  0  0  0  0
    5.8754   75.0481   79.1165 C   0  0  0  0  0  0  0  0  0  0  0  0
    6.7940   75.4602   80.0460 C   0  0  0  0  0  0  0  0  0  0  0  0
    8.5227   76.1360   79.5917 Br  0  0  0  0  0  0  0  0  0  0  0  0
    6.2515   75.3054   81.6403 S   0  0  0  0  0  0  0  0  0  0  0  0
    1.0133   78.2278   83.5197 C   0  0  0  0  0  0  0  0  0  0  0  0
    0.6399   77.9452   84.9798 C   0  0  0  0  0  0  0  0  0  0  0  0
    1.5032   78.6788   86.0130 C   0  0  0  0  0  0  0  0  0  0  0  0
    2.8585   78.5125   88.1309 C   0  0  0  0  0  0  0  0  0  0  0  0
    1.8357   77.8257   87.2389 C   0  0  0  0  0  0  0  0  0  0  0  0
 29 30  1  0  0  0
 30 28  1  0  0  0
 28 27  1  0  0  0
 27 26  1  0  0  0
 26  1  1  0  0  0
  1  2  1  0  0  0
  2  3  2  0  0  0
  2  4  1  0  0  0
  4  5  1  0  0  0
  5  6  1  0  0  0
  6  7  2  0  0  0
  7  8  1  0  0  0
  8  9  1  0  0  0
  9 10  2  0  0  0
 10 11  1  0  0  0
 11 12  2  0  0  0
 12 13  1  0  0  0
 13 14  2  0  0  0
  7 15  1  0  0  0
 15 20  1  0  0  0
 20 21  2  0  0  0
 21 22  1  0  0  0
 22 23  2  0  0  0
 23 24  1  0  0  0
 23 25  1  0  0  0
 15 16  1  0  0  0
 16 17  1  0  0  0
 17 18  2  0  0  0
 17  1  1  0  0  0
 16  4  1  0  0  0
 14  6  1  0  0  0
 25 20  1  0  0  0
 14  9  1  0  0  0
  8 19  1  0  0  0
M  END
> <minimizedAffinity>
-1.10470

$$$$



 30 34  0  0  0  0  0  0  0  0999 V2000
    0.0556   76.7551   81.3497 N   0  0  0  0  0  0  0  0  0  0  0  0
   -0.1421   75.8527   80.3375 C   0  0  0  0  0  0  0  0  0  0  0  0
   -1.0236   75.8939   79.4896 O   0  0  0  0  0  0  0  0  0  0  0  0
    0.9217   74.7698   80.4312 C   0  0  0  0  0  0  0  0  0  0  0  0
    0.3147   73.3687   80.5673 C   0  0  0  0  0  0  0  0  0  0  0  0
    1.3010   72.4669   81.2353 C   0  0  0  0  0  0  0  0  0  0  0  0
    2.3444   72.9681   81.9961 C   0  0  0  0  0  0  0  0  0  0  0  0
    3.0594   71.9055   82.4803 N   0  0  0  0  0  0  0  0  0  0  0  0
    2.4989   70.7243   82.0425 C   0  0  0  0  0  0  0  0  0  0  0  0
    2.8906   69.4015   82.2810 C   0  0  0  0  0  0  0  0  0  0  0  0
    2.1243   68.3841   81.7045 C   0  0  0  0  0  0  0  0  0  0  0  0
    1.0110   68.6794   80.9212 C   0  0  0  0  0  0  0  0  0  0  0  0
    0.6320   70.0069   80.6905 C   0  0  0  0  0  0  0  0  0  0  0  0
    1.3886   71.0498   81.2588 C   0  0  0  0  0  0  0  0  0  0  0  0
    2.6581   74.4095   82.2691 C   0  0  0  0  0  0  0  0  0  0  0  0
    1.6195   75.2081   81.6345 N   0  0  0  0  0  0  0  0  0  0  0  0
    1.0975   76.3721   82.1495 C   0  0  0  0  0  0  0  0  0  0  0  0
    1.4863   76.9327   83.1622 O   0  0  0  0  0  0  0  0  0  0  0  0
    3.8875   71.9651   83.0577 H   0  0  0  0  0  0  0  0  0  0  0  0
    4.0070   74.8836   81.7810 C   0  0  0  0  0  0  0  0  0  0  0  0
    4.6170   74.5549   80.5793 C   0  0  0  0  0  0  0  0  0  0  0  0
    5.8984   75.1621   80.4250 C   0  0  0  0  0  0  0  0  0  0  0  0
    6.2185   75.9221   81.5193 C   0  0  0  0  0  0  0  0  0  0  0  0
    7.8572   76.8905   81.6871 Br  0  0  0  0  0  0  0  0  0  0  0  0
    5.0226   75.9143   82.7151 S   0  0  0  0  0  0  0  0  0  0  0  0
   -0.7752   77.9150   81.5864 C   0  0  0  0  0  0  0  0  0  0  0  0
   -2.0211   77.6272   82.4327 C   0  0  0  0  0  0  0  0  0  0  0  0
   -3.1353   78.6728   82.3046 C   0  0  0  0  0  0  0  0  0  0  0  0
   -4.8593   78.4842   80.4764 C   0  0  0  0  0  0  0  0  0  0  0  0
   -4.4818   78.0747   81.8917 C   0  0  0  0  0  0  0  0  0  0  0  0
 29 30  1  0  0  0
 30 28  1  0  0  0
 28 27  1  0  0  0
 27 26  1  0  0  0
 26  1  1  0  0  0
  1  2  1  0  0  0
  2  3  2  0  0  0
  2  4  1  0  0  0
  4  5  1  0  0  0
  5  6  1  0  0  0
  6  7  2  0  0  0
  7  8  1  0  0  0
  8  9  1  0  0  0
  9 10  2  0  0  0
 10 11  1  0  0  0
 11 12  2  0  0  0
 12 13  1  0  0  0
 13 14  2  0  0  0
  7 15  1  0  0  0
 15 20  1  0  0  0
 20 21  2  0  0  0
 21 22  1  0  0  0
 22 23  2  0  0  0
 23 24  1  0  0  0
 23 25  1  0  0  0
 15 16  1  0  0  0
 16 17  1  0  0  0
 17 18  2  0  0  0
 17  1  1  0  0  0
 16  4  1  0  0  0
 14  6  1  0  0  0
 25 20  1  0  0  0
 14  9  1  0  0  0
  8 19  1  0  0  0
M  END
> <minimizedAffinity>
-1.07784

$$$$



 30 34  0  0  0  0  0  0  0  0999 V2000
    1.8483   71.5064   81.2970 N   0  0  0  0  0  0  0  0  0  0  0  0
    0.5411   71.9085   81.3853 C   0  0  0  0  0  0  0  0  0  0  0  0
   -0.4364   71.1812   81.4993 O   0  0  0  0  0  0  0  0  0  0  0  0
    0.4896   73.4270   81.3174 C   0  0  0  0  0  0  0  0  0  0  0  0
   -0.3879   73.9280   80.1645 C   0  0  0  0  0  0  0  0  0  0  0  0
    0.0516   75.3007   79.7710 C   0  0  0  0  0  0  0  0  0  0  0  0
    1.3128   75.7781   80.0871 C   0  0  0  0  0  0  0  0  0  0  0  0
    1.4191   77.0479   79.5859 N   0  0  0  0  0  0  0  0  0  0  0  0
    0.2462   77.4025   78.9538 C   0  0  0  0  0  0  0  0  0  0  0  0
   -0.1002   78.5942   78.3059 C   0  0  0  0  0  0  0  0  0  0  0  0
   -1.3770   78.6788   77.7426 C   0  0  0  0  0  0  0  0  0  0  0  0
   -2.2704   77.6132   77.8247 C   0  0  0  0  0  0  0  0  0  0  0  0
   -1.9104   76.4282   78.4766 C   0  0  0  0  0  0  0  0  0  0  0  0
   -0.6305   76.3188   79.0538 C   0  0  0  0  0  0  0  0  0  0  0  0
    2.3956   75.0570   80.8344 C   0  0  0  0  0  0  0  0  0  0  0  0
    1.9057   73.7170   81.1236 N   0  0  0  0  0  0  0  0  0  0  0  0
    2.6788   72.5791   81.1196 C   0  0  0  0  0  0  0  0  0  0  0  0
    3.8879   72.5478   80.9521 O   0  0  0  0  0  0  0  0  0  0  0  0
    2.2247   77.6525   79.6758 H   0  0  0  0  0  0  0  0  0  0  0  0
    2.8359   75.7065   82.1255 C   0  0  0  0  0  0  0  0  0  0  0  0
    4.1139   75.6981   82.6648 C   0  0  0  0  0  0  0  0  0  0  0  0
    4.1953   76.3963   83.9059 C   0  0  0  0  0  0  0  0  0  0  0  0
    2.9742   76.9013   84.2682 C   0  0  0  0  0  0  0  0  0  0  0  0
    2.6791   77.8966   85.8724 Br  0  0  0  0  0  0  0  0  0  0  0  0
    1.7469   76.5508   83.1586 S   0  0  0  0  0  0  0  0  0  0  0  0
    2.2833   70.1272   81.3107 C   0  0  0  0  0  0  0  0  0  0  0  0
    2.2705   69.4832   82.7023 C   0  0  0  0  0  0  0  0  0  0  0  0
    3.6247   68.9307   83.1625 C   0  0  0  0  0  0  0  0  0  0  0  0
    4.8721   67.3739   84.7020 C   0  0  0  0  0  0  0  0  0  0  0  0
    3.5085   67.9156   84.3015 C   0  0  0  0  0  0  0  0  0  0  0  0
 29 30  1  0  0  0
 30 28  1  0  0  0
 28 27  1  0  0  0
 27 26  1  0  0  0
 26  1  1  0  0  0
  1  2  1  0  0  0
  2  3  2  0  0  0
  2  4  1  0  0  0
  4  5  1  0  0  0
  5  6  1  0  0  0
  6  7  2  0  0  0
  7  8  1  0  0  0
  8  9  1  0  0  0
  9 10  2  0  0  0
 10 11  1  0  0  0
 11 12  2  0  0  0
 12 13  1  0  0  0
 13 14  2  0  0  0
  7 15  1  0  0  0
 15 20  1  0  0  0
 20 21  2  0  0  0
 21 22  1  0  0  0
 22 23  2  0  0  0
 23 24  1  0  0  0
 23 25  1  0  0  0
 15 16  1  0  0  0
 16 17  1  0  0  0
 17 18  2  0  0  0
 17  1  1  0  0  0
 16  4  1  0  0  0
 14  6  1  0  0  0
 25 20  1  0  0  0
 14  9  1  0  0  0
  8 19  1  0  0  0
M  END
> <minimizedAffinity>
-1.07466

$$$$



 30 34  0  0  0  0  0  0  0  0999 V2000
    3.0862   71.5607   81.3988 N   0  0  0  0  0  0  0  0  0  0  0  0
    4.0473   71.9582   80.5064 C   0  0  0  0  0  0  0  0  0  0  0  0
    4.7189   71.2286   79.7894 O   0  0  0  0  0  0  0  0  0  0  0  0
    4.1549   73.4748   80.5448 C   0  0  0  0  0  0  0  0  0  0  0  0
    5.5724   73.9486   80.8857 C   0  0  0  0  0  0  0  0  0  0  0  0
    5.5045   75.3153   81.4855 C   0  0  0  0  0  0  0  0  0  0  0  0
    4.3367   75.8050   82.0468 C   0  0  0  0  0  0  0  0  0  0  0  0
    4.5930   77.0651   82.5173 N   0  0  0  0  0  0  0  0  0  0  0  0
    5.9063   77.4015   82.2664 C   0  0  0  0  0  0  0  0  0  0  0  0
    6.6044   78.5784   82.5621 C   0  0  0  0  0  0  0  0  0  0  0  0
    7.9501   78.6457   82.1888 C   0  0  0  0  0  0  0  0  0  0  0  0
    8.5714   77.5777   81.5457 C   0  0  0  0  0  0  0  0  0  0  0  0
    7.8604   76.4075   81.2555 C   0  0  0  0  0  0  0  0  0  0  0  0
    6.5032   76.3158   81.6197 C   0  0  0  0  0  0  0  0  0  0  0  0
    3.0141   75.1040   82.1470 C   0  0  0  0  0  0  0  0  0  0  0  0
    3.1877   73.7677   81.5963 N   0  0  0  0  0  0  0  0  0  0  0  0
    2.5740   72.6336   82.0758 C   0  0  0  0  0  0  0  0  0  0  0  0
    1.7448   72.6048   82.9717 O   0  0  0  0  0  0  0  0  0  0  0  0
    3.9230   77.6752   82.9661 H   0  0  0  0  0  0  0  0  0  0  0  0
    1.8656   75.7810   81.4362 C   0  0  0  0  0  0  0  0  0  0  0  0
    0.5610   75.8987   81.8925 C   0  0  0  0  0  0  0  0  0  0  0  0
   -0.2862   76.5876   80.9749 C   0  0  0  0  0  0  0  0  0  0  0  0
    0.4040   76.9597   79.8512 C   0  0  0  0  0  0  0  0  0  0  0  0
   -0.3898   77.9013   78.3902 Br  0  0  0  0  0  0  0  0  0  0  0  0
    2.0305   76.4968   79.8784 S   0  0  0  0  0  0  0  0  0  0  0  0
    2.7187   70.1841   81.6472 C   0  0  0  0  0  0  0  0  0  0  0  0
    1.5992   69.6638   80.7376 C   0  0  0  0  0  0  0  0  0  0  0  0
    0.9665   68.3442   81.1951 C   0  0  0  0  0  0  0  0  0  0  0  0
    0.4858   65.9277   80.6669 C   0  0  0  0  0  0  0  0  0  0  0  0
    1.0170   67.2475   80.1293 C   0  0  0  0  0  0  0  0  0  0  0  0
 29 30  1  0  0  0
 30 28  1  0  0  0
 28 27  1  0  0  0
 27 26  1  0  0  0
 26  1  1  0  0  0
  1  2  1  0  0  0
  2  3  2  0  0  0
  2  4  1  0  0  0
  4  5  1  0  0  0
  5  6  1  0  0  0
  6  7  2  0  0  0
  7  8  1  0  0  0
  8  9  1  0  0  0
  9 10  2  0  0  0
 10 11  1  0  0  0
 11 12  2  0  0  0
 12 13  1  0  0  0
 13 14  2  0  0  0
  7 15  1  0  0  0
 15 20  1  0  0  0
 20 21  2  0  0  0
 21 22  1  0  0  0
 22 23  2  0  0  0
 23 24  1  0  0  0
 23 25  1  0  0  0
 15 16  1  0  0  0
 16 17  1  0  0  0
 17 18  2  0  0  0
 17  1  1  0  0  0
 16  4  1  0  0  0
 14  6  1  0  0  0
 25 20  1  0  0  0
 14  9  1  0  0  0
  8 19  1  0  0  0
M  END
> <minimizedAffinity>
-1.07184

$$$$



 30 34  0  0  0  0  0  0  0  0999 V2000
    2.8809   71.4510   81.2568 N   0  0  0  0  0  0  0  0  0  0  0  0
    3.9509   71.8997   80.5274 C   0  0  0  0  0  0  0  0  0  0  0  0
    4.7495   71.2087   79.9091 O   0  0  0  0  0  0  0  0  0  0  0  0
    3.9960   73.4179   80.6062 C   0  0  0  0  0  0  0  0  0  0  0  0
    5.3273   73.9317   81.1662 C   0  0  0  0  0  0  0  0  0  0  0  0
    5.1195   75.2821   81.7707 C   0  0  0  0  0  0  0  0  0  0  0  0
    3.8632   75.7201   82.1558 C   0  0  0  0  0  0  0  0  0  0  0  0
    3.9991   76.9777   82.6800 N   0  0  0  0  0  0  0  0  0  0  0  0
    5.3221   77.3633   82.6372 C   0  0  0  0  0  0  0  0  0  0  0  0
    5.9239   78.5565   83.0545 C   0  0  0  0  0  0  0  0  0  0  0  0
    7.3072   78.6770   82.8913 C   0  0  0  0  0  0  0  0  0  0  0  0
    8.0573   77.6446   82.3329 C   0  0  0  0  0  0  0  0  0  0  0  0
    7.4416   76.4577   81.9192 C   0  0  0  0  0  0  0  0  0  0  0  0
    6.0492   76.3125   82.0713 C   0  0  0  0  0  0  0  0  0  0  0  0
    2.5671   74.9730   82.0424 C   0  0  0  0  0  0  0  0  0  0  0  0
    2.8707   73.6554   81.5030 N   0  0  0  0  0  0  0  0  0  0  0  0
    2.2333   72.4913   81.8653 C   0  0  0  0  0  0  0  0  0  0  0  0
    1.2797   72.4153   82.6242 O   0  0  0  0  0  0  0  0  0  0  0  0
    3.2471   77.5551   83.0316 H   0  0  0  0  0  0  0  0  0  0  0  0
    1.5155   75.6261   81.1763 C   0  0  0  0  0  0  0  0  0  0  0  0
    1.7284   76.3237   79.9964 C   0  0  0  0  0  0  0  0  0  0  0  0
    0.5221   76.8273   79.4259 C   0  0  0  0  0  0  0  0  0  0  0  0
   -0.5617   76.5016   80.1984 C   0  0  0  0  0  0  0  0  0  0  0  0
   -2.3539   77.0030   79.7649 Br  0  0  0  0  0  0  0  0  0  0  0  0
   -0.1582   75.6166   81.5820 S   0  0  0  0  0  0  0  0  0  0  0  0
    2.5306   70.0579   81.4241 C   0  0  0  0  0  0  0  0  0  0  0  0
    3.1294   69.4108   82.6787 C   0  0  0  0  0  0  0  0  0  0  0  0
    2.5006   68.0671   83.0660 C   0  0  0  0  0  0  0  0  0  0  0  0
    4.6448   67.7891   84.3603 C   0  0  0  0  0  0  0  0  0  0  0  0
    3.1750   67.4084   84.2712 C   0  0  0  0  0  0  0  0  0  0  0  0
 29 30  1  0  0  0
 30 28  1  0  0  0
 28 27  1  0  0  0
 27 26  1  0  0  0
 26  1  1  0  0  0
  1  2  1  0  0  0
  2  3  2  0  0  0
  2  4  1  0  0  0
  4  5  1  0  0  0
  5  6  1  0  0  0
  6  7  2  0  0  0
  7  8  1  0  0  0
  8  9  1  0  0  0
  9 10  2  0  0  0
 10 11  1  0  0  0
 11 12  2  0  0  0
 12 13  1  0  0  0
 13 14  2  0  0  0
  7 15  1  0  0  0
 15 20  1  0  0  0
 20 21  2  0  0  0
 21 22  1  0  0  0
 22 23  2  0  0  0
 23 24  1  0  0  0
 23 25  1  0  0  0
 15 16  1  0  0  0
 16 17  1  0  0  0
 17 18  2  0  0  0
 17  1  1  0  0  0
 16  4  1  0  0  0
 14  6  1  0  0  0
 25 20  1  0  0  0
 14  9  1  0  0  0
  8 19  1  0  0  0
M  END
> <minimizedAffinity>
-1.03394

$$$$



 30 34  0  0  0  0  0  0  0  0999 V2000
   -0.1818   76.5170   82.1578 N   0  0  0  0  0  0  0  0  0  0  0  0
    0.8092   76.7442   83.0767 C   0  0  0  0  0  0  0  0  0  0  0  0
    0.7793   77.5567   83.9914 O   0  0  0  0  0  0  0  0  0  0  0  0
    1.9758   75.8146   82.7797 C   0  0  0  0  0  0  0  0  0  0  0  0
    3.2821   76.5798   82.5385 C   0  0  0  0  0  0  0  0  0  0  0  0
    4.1940   75.7458   81.6988 C   0  0  0  0  0  0  0  0  0  0  0  0
    3.7150   74.7073   80.9175 C   0  0  0  0  0  0  0  0  0  0  0  0
    4.7799   74.1477   80.2636 N   0  0  0  0  0  0  0  0  0  0  0  0
    5.9416   74.8039   80.6115 C   0  0  0  0  0  0  0  0  0  0  0  0
    7.2597   74.5770   80.1981 C   0  0  0  0  0  0  0  0  0  0  0  0
    8.2551   75.4100   80.7179 C   0  0  0  0  0  0  0  0  0  0  0  0
    7.9429   76.4288   81.6150 C   0  0  0  0  0  0  0  0  0  0  0  0
    6.6205   76.6432   82.0201 C   0  0  0  0  0  0  0  0  0  0  0  0
    5.5999   75.8164   81.5122 C   0  0  0  0  0  0  0  0  0  0  0  0
    2.2907   74.2561   80.7811 C   0  0  0  0  0  0  0  0  0  0  0  0
    1.4714   75.1555   81.5806 N   0  0  0  0  0  0  0  0  0  0  0  0
    0.2078   75.5798   81.2403 C   0  0  0  0  0  0  0  0  0  0  0  0
   -0.4262   75.2008   80.2680 O   0  0  0  0  0  0  0  0  0  0  0  0
    4.7368   73.3589   79.6324 H   0  0  0  0  0  0  0  0  0  0  0  0
    2.0171   72.8334   81.2098 C   0  0  0  0  0  0  0  0  0  0  0  0
    0.8988   72.0737   80.8991 C   0  0  0  0  0  0  0  0  0  0  0  0
    0.9415   70.7673   81.4698 C   0  0  0  0  0  0  0  0  0  0  0  0
    2.0862   70.5859   82.2006 C   0  0  0  0  0  0  0  0  0  0  0  0
    2.5031   68.9643   83.1214 Br  0  0  0  0  0  0  0  0  0  0  0  0
    3.0949   71.9434   82.2160 S   0  0  0  0  0  0  0  0  0  0  0  0
   -1.4398   77.2293   82.1174 C   0  0  0  0  0  0  0  0  0  0  0  0
   -1.4139   78.4915   81.2470 C   0  0  0  0  0  0  0  0  0  0  0  0
   -2.4011   78.4782   80.0738 C   0  0  0  0  0  0  0  0  0  0  0  0
   -4.8217   78.2342   79.4174 C   0  0  0  0  0  0  0  0  0  0  0  0
   -3.8556   78.6788   80.5046 C   0  0  0  0  0  0  0  0  0  0  0  0
 29 30  1  0  0  0
 30 28  1  0  0  0
 28 27  1  0  0  0
 27 26  1  0  0  0
 26  1  1  0  0  0
  1  2  1  0  0  0
  2  3  2  0  0  0
  2  4  1  0  0  0
  4  5  1  0  0  0
  5  6  1  0  0  0
  6  7  2  0  0  0
  7  8  1  0  0  0
  8  9  1  0  0  0
  9 10  2  0  0  0
 10 11  1  0  0  0
 11 12  2  0  0  0
 12 13  1  0  0  0
 13 14  2  0  0  0
  7 15  1  0  0  0
 15 20  1  0  0  0
 20 21  2  0  0  0
 21 22  1  0  0  0
 22 23  2  0  0  0
 23 24  1  0  0  0
 23 25  1  0  0  0
 15 16  1  0  0  0
 16 17  1  0  0  0
 17 18  2  0  0  0
 17  1  1  0  0  0
 16  4  1  0  0  0
 14  6  1  0  0  0
 25 20  1  0  0  0
 14  9  1  0  0  0
  8 19  1  0  0  0
M  END
> <minimizedAffinity>
-1.01068

$$$$
