


 34 38  0  0  0  0  0  0  0  0999 V2000
   -1.1463   63.0941   83.3881 C   0  0  0  0  0  0  0  0  0  0  0  0
   -0.4426   63.9016   84.1237 N   0  0  0  0  0  0  0  0  0  0  0  0
    0.3676   64.8308   83.4666 C   0  0  0  0  0  0  0  0  0  0  0  0
    1.1870   65.7407   84.3507 C   0  0  0  0  0  0  0  0  0  0  0  0
    1.1186   65.6459   85.5772 O   0  0  0  0  0  0  0  0  0  0  0  0
    1.9897   66.6687   83.7064 N   0  0  0  0  0  0  0  0  0  0  0  0
    2.0803   66.7965   82.3466 N   0  0  0  0  0  0  0  0  0  0  0  0
    1.3754   66.0036   81.6054 C   0  0  0  0  0  0  0  0  0  0  0  0
    1.5367   66.1984   80.1154 C   0  0  0  0  0  0  0  0  0  0  0  0
    0.4535   64.9537   82.1223 C   0  0  0  0  0  0  0  0  0  0  0  0
   -0.3381   64.0845   81.3119 C   0  0  0  0  0  0  0  0  0  0  0  0
   -0.5991   63.8418   79.9807 C   0  0  0  0  0  0  0  0  0  0  0  0
   -1.5505   62.7805   79.9440 C   0  0  0  0  0  0  0  0  0  0  0  0
   -1.8555   62.3902   81.1911 N   0  0  0  0  0  0  0  0  0  0  0  0
   -1.1140   63.1743   81.9938 N   0  0  0  0  0  0  0  0  0  0  0  0
   -2.1630   62.1447   78.7702 C   0  0  0  0  0  0  0  0  0  0  0  0
   -2.2633   62.8437   77.5563 C   0  0  0  0  0  0  0  0  0  0  0  0
   -2.8459   62.2519   76.4323 C   0  0  0  0  0  0  0  0  0  0  0  0
   -3.3358   60.9510   76.5053 C   0  0  0  0  0  0  0  0  0  0  0  0
   -3.2424   60.2416   77.7002 C   0  0  0  0  0  0  0  0  0  0  0  0
   -2.6598   60.8335   78.8258 C   0  0  0  0  0  0  0  0  0  0  0  0
   -2.0574   62.0562   83.9807 C   0  0  0  0  0  0  0  0  0  0  0  0
   -2.6897   62.5773   85.2657 C   0  0  0  0  0  0  0  0  0  0  0  0
   -1.8740   62.1930   86.4737 C   0  0  0  0  0  0  0  0  0  0  0  0
   -0.9585   61.3829   86.4825 O   0  0  0  0  0  0  0  0  0  0  0  0
   -1.2853   63.2850   88.4589 C   0  0  0  0  0  0  0  0  0  0  0  0
   -2.3208   62.8838   87.5608 O   0  0  0  0  0  0  0  0  0  0  0  0
    2.8623   67.5324   84.4971 C   0  0  0  0  0  0  0  0  0  0  0  0
    4.2452   66.9446   84.6627 C   0  0  0  0  0  0  0  0  0  0  0  0
    4.4204   65.7020   85.2888 C   0  0  0  0  0  0  0  0  0  0  0  0
    5.6987   65.1669   85.4555 C   0  0  0  0  0  0  0  0  0  0  0  0
    6.8141   65.8713   85.0058 C   0  0  0  0  0  0  0  0  0  0  0  0
    6.6533   67.1133   84.3941 C   0  0  0  0  0  0  0  0  0  0  0  0
    5.3758   67.6497   84.2260 C   0  0  0  0  0  0  0  0  0  0  0  0
 26 27  1  0  0  0
 27 24  1  0  0  0
 24 25  2  0  0  0
 24 23  1  0  0  0
 23 22  1  0  0  0
 22  1  1  0  0  0
  1  2  2  0  0  0
  2  3  1  0  0  0
  3  4  1  0  0  0
  4  5  2  0  0  0
  4  6  1  0  0  0
  6 28  1  0  0  0
 28 29  1  0  0  0
 29 30  2  0  0  0
 30 31  1  0  0  0
 31 32  2  0  0  0
 32 33  1  0  0  0
 33 34  2  0  0  0
  6  7  1  0  0  0
  7  8  2  0  0  0
  8  9  1  0  0  0
  8 10  1  0  0  0
 10 11  1  0  0  0
 11 12  2  0  0  0
 12 13  1  0  0  0
 13 16  1  0  0  0
 16 17  2  0  0  0
 17 18  1  0  0  0
 18 19  2  0  0  0
 19 20  1  0  0  0
 20 21  2  0  0  0
 13 14  2  0  0  0
 14 15  1  0  0  0
 15  1  1  0  0  0
 10  3  2  0  0  0
 15 11  1  0  0  0
 34 29  1  0  0  0
 21 16  1  0  0  0
M  END
> <minimizedAffinity>
-10.77648

$$$$



 34 38  0  0  0  0  0  0  0  0999 V2000
    0.3248   64.4764   84.5768 C   0  0  0  0  0  0  0  0  0  0  0  0
    1.0614   65.5343   84.7403 N   0  0  0  0  0  0  0  0  0  0  0  0
    1.4104   66.2592   83.5982 C   0  0  0  0  0  0  0  0  0  0  0  0
    2.2830   67.4715   83.8214 C   0  0  0  0  0  0  0  0  0  0  0  0
    2.6454   67.7785   84.9583 O   0  0  0  0  0  0  0  0  0  0  0  0
    2.6297   68.1988   82.6938 N   0  0  0  0  0  0  0  0  0  0  0  0
    2.2373   67.8810   81.4216 N   0  0  0  0  0  0  0  0  0  0  0  0
    1.4950   66.8349   81.2495 C   0  0  0  0  0  0  0  0  0  0  0  0
    1.1115   66.5432   79.8170 C   0  0  0  0  0  0  0  0  0  0  0  0
    1.0197   65.9415   82.3428 C   0  0  0  0  0  0  0  0  0  0  0  0
    0.1893   64.7939   82.1632 C   0  0  0  0  0  0  0  0  0  0  0  0
   -0.4461   64.1083   81.1505 C   0  0  0  0  0  0  0  0  0  0  0  0
   -1.1300   63.0204   81.7684 C   0  0  0  0  0  0  0  0  0  0  0  0
   -0.9218   63.0369   83.0939 N   0  0  0  0  0  0  0  0  0  0  0  0
   -0.1235   64.0978   83.3091 N   0  0  0  0  0  0  0  0  0  0  0  0
   -1.9611   61.9879   81.1356 C   0  0  0  0  0  0  0  0  0  0  0  0
   -2.3017   60.8214   81.8395 C   0  0  0  0  0  0  0  0  0  0  0  0
   -3.0896   59.8299   81.2488 C   0  0  0  0  0  0  0  0  0  0  0  0
   -3.5502   59.9911   79.9451 C   0  0  0  0  0  0  0  0  0  0  0  0
   -3.2246   61.1426   79.2327 C   0  0  0  0  0  0  0  0  0  0  0  0
   -2.4355   62.1354   79.8232 C   0  0  0  0  0  0  0  0  0  0  0  0
   -0.1176   63.6201   85.7297 C   0  0  0  0  0  0  0  0  0  0  0  0
    0.0077   64.3885   87.0398 C   0  0  0  0  0  0  0  0  0  0  0  0
   -0.7896   63.7334   88.1386 C   0  0  0  0  0  0  0  0  0  0  0  0
   -1.9764   63.4464   88.0790 O   0  0  0  0  0  0  0  0  0  0  0  0
    0.3849   62.1489   89.3996 C   0  0  0  0  0  0  0  0  0  0  0  0
    0.0168   63.5167   89.2163 O   0  0  0  0  0  0  0  0  0  0  0  0
    3.5294   69.3412   82.8271 C   0  0  0  0  0  0  0  0  0  0  0  0
    2.9316   70.6055   82.2531 C   0  0  0  0  0  0  0  0  0  0  0  0
    3.5692   71.2817   81.2028 C   0  0  0  0  0  0  0  0  0  0  0  0
    3.0251   72.4574   80.6836 C   0  0  0  0  0  0  0  0  0  0  0  0
    1.8437   72.9730   81.2137 C   0  0  0  0  0  0  0  0  0  0  0  0
    1.2082   72.3171   82.2666 C   0  0  0  0  0  0  0  0  0  0  0  0
    1.7505   71.1409   82.7866 C   0  0  0  0  0  0  0  0  0  0  0  0
 26 27  1  0  0  0
 27 24  1  0  0  0
 24 25  2  0  0  0
 24 23  1  0  0  0
 23 22  1  0  0  0
 22  1  1  0  0  0
  1  2  2  0  0  0
  2  3  1  0  0  0
  3  4  1  0  0  0
  4  5  2  0  0  0
  4  6  1  0  0  0
  6 28  1  0  0  0
 28 29  1  0  0  0
 29 30  2  0  0  0
 30 31  1  0  0  0
 31 32  2  0  0  0
 32 33  1  0  0  0
 33 34  2  0  0  0
  6  7  1  0  0  0
  7  8  2  0  0  0
  8  9  1  0  0  0
  8 10  1  0  0  0
 10 11  1  0  0  0
 11 12  2  0  0  0
 12 13  1  0  0  0
 13 16  1  0  0  0
 16 17  2  0  0  0
 17 18  1  0  0  0
 18 19  2  0  0  0
 19 20  1  0  0  0
 20 21  2  0  0  0
 13 14  2  0  0  0
 14 15  1  0  0  0
 15  1  1  0  0  0
 10  3  2  0  0  0
 15 11  1  0  0  0
 34 29  1  0  0  0
 21 16  1  0  0  0
M  END
> <minimizedAffinity>
-10.36815

$$$$



 34 38  0  0  0  0  0  0  0  0999 V2000
    0.1048   65.1589   81.5866 C   0  0  0  0  0  0  0  0  0  0  0  0
    0.6136   66.0784   80.8223 N   0  0  0  0  0  0  0  0  0  0  0  0
    1.4287   67.0392   81.4256 C   0  0  0  0  0  0  0  0  0  0  0  0
    1.9877   68.1045   80.5127 C   0  0  0  0  0  0  0  0  0  0  0  0
    1.7242   68.0956   79.3091 O   0  0  0  0  0  0  0  0  0  0  0  0
    2.8014   69.0587   81.1028 N   0  0  0  0  0  0  0  0  0  0  0  0
    3.1120   69.0882   82.4355 N   0  0  0  0  0  0  0  0  0  0  0  0
    2.6183   68.1706   83.2032 C   0  0  0  0  0  0  0  0  0  0  0  0
    2.9977   68.2760   84.6623 C   0  0  0  0  0  0  0  0  0  0  0  0
    1.7333   67.0640   82.7433 C   0  0  0  0  0  0  0  0  0  0  0  0
    1.1960   66.0400   83.5809 C   0  0  0  0  0  0  0  0  0  0  0  0
    1.2236   65.6436   84.9005 C   0  0  0  0  0  0  0  0  0  0  0  0
    0.4187   64.4698   84.9850 C   0  0  0  0  0  0  0  0  0  0  0  0
   -0.0798   64.1635   83.7775 N   0  0  0  0  0  0  0  0  0  0  0  0
    0.3878   65.1185   82.9539 N   0  0  0  0  0  0  0  0  0  0  0  0
    0.1219   63.6506   86.1675 C   0  0  0  0  0  0  0  0  0  0  0  0
    0.7124   63.9518   87.4056 C   0  0  0  0  0  0  0  0  0  0  0  0
    0.4409   63.1793   88.5381 C   0  0  0  0  0  0  0  0  0  0  0  0
   -0.4269   62.0945   88.4494 C   0  0  0  0  0  0  0  0  0  0  0  0
   -1.0237   61.7825   87.2303 C   0  0  0  0  0  0  0  0  0  0  0  0
   -0.7520   62.5550   86.0962 C   0  0  0  0  0  0  0  0  0  0  0  0
   -0.7826   64.0706   81.0514 C   0  0  0  0  0  0  0  0  0  0  0  0
    0.0491   63.0095   80.3409 C   0  0  0  0  0  0  0  0  0  0  0  0
   -0.4877   61.6254   80.6026 C   0  0  0  0  0  0  0  0  0  0  0  0
   -1.1334   60.9539   79.8109 O   0  0  0  0  0  0  0  0  0  0  0  0
    1.2597   61.1641   82.0905 C   0  0  0  0  0  0  0  0  0  0  0  0
   -0.1487   61.2390   81.8653 O   0  0  0  0  0  0  0  0  0  0  0  0
    3.3183   70.1587   80.2933 C   0  0  0  0  0  0  0  0  0  0  0  0
    2.7972   71.4997   80.7575 C   0  0  0  0  0  0  0  0  0  0  0  0
    3.6848   72.5405   81.0665 C   0  0  0  0  0  0  0  0  0  0  0  0
    3.2039   73.7734   81.5099 C   0  0  0  0  0  0  0  0  0  0  0  0
    1.8327   73.9757   81.6565 C   0  0  0  0  0  0  0  0  0  0  0  0
    0.9416   72.9443   81.3653 C   0  0  0  0  0  0  0  0  0  0  0  0
    1.4206   71.7109   80.9211 C   0  0  0  0  0  0  0  0  0  0  0  0
 26 27  1  0  0  0
 27 24  1  0  0  0
 24 25  2  0  0  0
 24 23  1  0  0  0
 23 22  1  0  0  0
 22  1  1  0  0  0
  1  2  2  0  0  0
  2  3  1  0  0  0
  3  4  1  0  0  0
  4  5  2  0  0  0
  4  6  1  0  0  0
  6 28  1  0  0  0
 28 29  1  0  0  0
 29 30  2  0  0  0
 30 31  1  0  0  0
 31 32  2  0  0  0
 32 33  1  0  0  0
 33 34  2  0  0  0
  6  7  1  0  0  0
  7  8  2  0  0  0
  8  9  1  0  0  0
  8 10  1  0  0  0
 10 11  1  0  0  0
 11 12  2  0  0  0
 12 13  1  0  0  0
 13 16  1  0  0  0
 16 17  2  0  0  0
 17 18  1  0  0  0
 18 19  2  0  0  0
 19 20  1  0  0  0
 20 21  2  0  0  0
 13 14  2  0  0  0
 14 15  1  0  0  0
 15  1  1  0  0  0
 10  3  2  0  0  0
 15 11  1  0  0  0
 34 29  1  0  0  0
 21 16  1  0  0  0
M  END
> <minimizedAffinity>
-10.35898

$$$$



 34 38  0  0  0  0  0  0  0  0999 V2000
    0.9112   64.7380   84.9885 C   0  0  0  0  0  0  0  0  0  0  0  0
    1.5263   65.8824   85.0090 N   0  0  0  0  0  0  0  0  0  0  0  0
    1.5621   66.6159   83.8206 C   0  0  0  0  0  0  0  0  0  0  0  0
    2.3015   67.9317   83.8738 C   0  0  0  0  0  0  0  0  0  0  0  0
    2.8280   68.3095   84.9218 O   0  0  0  0  0  0  0  0  0  0  0  0
    2.3375   68.6677   82.7000 N   0  0  0  0  0  0  0  0  0  0  0  0
    1.7579   68.2721   81.5248 N   0  0  0  0  0  0  0  0  0  0  0  0
    1.1342   67.1384   81.4970 C   0  0  0  0  0  0  0  0  0  0  0  0
    0.5302   66.7657   80.1627 C   0  0  0  0  0  0  0  0  0  0  0  0
    0.9874   66.2210   82.6616 C   0  0  0  0  0  0  0  0  0  0  0  0
    0.2891   64.9756   82.6431 C   0  0  0  0  0  0  0  0  0  0  0  0
   -0.4325   64.1916   81.7691 C   0  0  0  0  0  0  0  0  0  0  0  0
   -0.8468   63.0436   82.5063 C   0  0  0  0  0  0  0  0  0  0  0  0
   -0.3988   63.1190   83.7688 N   0  0  0  0  0  0  0  0  0  0  0  0
    0.2856   64.2753   83.8284 N   0  0  0  0  0  0  0  0  0  0  0  0
   -1.6447   61.9010   82.0426 C   0  0  0  0  0  0  0  0  0  0  0  0
   -1.7064   61.5871   80.6751 C   0  0  0  0  0  0  0  0  0  0  0  0
   -2.4636   60.5044   80.2199 C   0  0  0  0  0  0  0  0  0  0  0  0
   -3.1696   59.7182   81.1261 C   0  0  0  0  0  0  0  0  0  0  0  0
   -3.1180   60.0130   82.4863 C   0  0  0  0  0  0  0  0  0  0  0  0
   -2.3605   61.0969   82.9426 C   0  0  0  0  0  0  0  0  0  0  0  0
    0.8029   63.8629   86.2054 C   0  0  0  0  0  0  0  0  0  0  0  0
   -0.3290   64.3438   87.1054 C   0  0  0  0  0  0  0  0  0  0  0  0
   -0.3362   63.6058   88.4198 C   0  0  0  0  0  0  0  0  0  0  0  0
    0.6380   63.4220   89.1351 O   0  0  0  0  0  0  0  0  0  0  0  0
   -2.3968   62.9542   87.5202 C   0  0  0  0  0  0  0  0  0  0  0  0
   -1.5989   63.1659   88.6857 O   0  0  0  0  0  0  0  0  0  0  0  0
    3.0953   69.9153   82.6599 C   0  0  0  0  0  0  0  0  0  0  0  0
    2.1975   71.1207   82.4976 C   0  0  0  0  0  0  0  0  0  0  0  0
    0.8929   70.9755   82.0040 C   0  0  0  0  0  0  0  0  0  0  0  0
    0.0696   72.0906   81.8396 C   0  0  0  0  0  0  0  0  0  0  0  0
    0.5443   73.3615   82.1589 C   0  0  0  0  0  0  0  0  0  0  0  0
    1.8438   73.5196   82.6375 C   0  0  0  0  0  0  0  0  0  0  0  0
    2.6682   72.4057   82.8032 C   0  0  0  0  0  0  0  0  0  0  0  0
 26 27  1  0  0  0
 27 24  1  0  0  0
 24 25  2  0  0  0
 24 23  1  0  0  0
 23 22  1  0  0  0
 22  1  1  0  0  0
  1  2  2  0  0  0
  2  3  1  0  0  0
  3  4  1  0  0  0
  4  5  2  0  0  0
  4  6  1  0  0  0
  6 28  1  0  0  0
 28 29  1  0  0  0
 29 30  2  0  0  0
 30 31  1  0  0  0
 31 32  2  0  0  0
 32 33  1  0  0  0
 33 34  2  0  0  0
  6  7  1  0  0  0
  7  8  2  0  0  0
  8  9  1  0  0  0
  8 10  1  0  0  0
 10 11  1  0  0  0
 11 12  2  0  0  0
 12 13  1  0  0  0
 13 16  1  0  0  0
 16 17  2  0  0  0
 17 18  1  0  0  0
 18 19  2  0  0  0
 19 20  1  0  0  0
 20 21  2  0  0  0
 13 14  2  0  0  0
 14 15  1  0  0  0
 15  1  1  0  0  0
 10  3  2  0  0  0
 15 11  1  0  0  0
 34 29  1  0  0  0
 21 16  1  0  0  0
M  END
> <minimizedAffinity>
-10.30487

$$$$



 34 38  0  0  0  0  0  0  0  0999 V2000
   -0.7149   63.5194   83.0784 C   0  0  0  0  0  0  0  0  0  0  0  0
   -0.0403   64.4818   83.6326 N   0  0  0  0  0  0  0  0  0  0  0  0
    0.6590   65.3477   82.7883 C   0  0  0  0  0  0  0  0  0  0  0  0
    1.4483   66.4428   83.4654 C   0  0  0  0  0  0  0  0  0  0  0  0
    1.4510   66.5417   84.6936 O   0  0  0  0  0  0  0  0  0  0  0  0
    2.1410   67.3090   82.6344 N   0  0  0  0  0  0  0  0  0  0  0  0
    2.1510   67.2227   81.2684 N   0  0  0  0  0  0  0  0  0  0  0  0
    1.4737   66.2737   80.7065 C   0  0  0  0  0  0  0  0  0  0  0  0
    1.5421   66.2374   79.1972 C   0  0  0  0  0  0  0  0  0  0  0  0
    0.6655   65.2587   81.4386 C   0  0  0  0  0  0  0  0  0  0  0  0
   -0.0956   64.2174   80.8259 C   0  0  0  0  0  0  0  0  0  0  0  0
   -0.4048   63.7464   79.5682 C   0  0  0  0  0  0  0  0  0  0  0  0
   -1.2700   62.6292   79.7584 C   0  0  0  0  0  0  0  0  0  0  0  0
   -1.4785   62.4240   81.0679 N   0  0  0  0  0  0  0  0  0  0  0  0
   -0.7609   63.3767   81.6895 N   0  0  0  0  0  0  0  0  0  0  0  0
   -1.8900   61.7718   78.7396 C   0  0  0  0  0  0  0  0  0  0  0  0
   -1.4515   60.4494   78.5629 C   0  0  0  0  0  0  0  0  0  0  0  0
   -2.0307   59.6235   77.5957 C   0  0  0  0  0  0  0  0  0  0  0  0
   -3.0586   60.1077   76.7916 C   0  0  0  0  0  0  0  0  0  0  0  0
   -3.5082   61.4158   76.9545 C   0  0  0  0  0  0  0  0  0  0  0  0
   -2.9285   62.2432   77.9221 C   0  0  0  0  0  0  0  0  0  0  0  0
   -1.5093   62.5292   83.8826 C   0  0  0  0  0  0  0  0  0  0  0  0
   -0.8337   62.2720   85.2242 C   0  0  0  0  0  0  0  0  0  0  0  0
   -1.8165   62.3767   86.3624 C   0  0  0  0  0  0  0  0  0  0  0  0
   -2.7438   61.6080   86.5715 O   0  0  0  0  0  0  0  0  0  0  0  0
   -0.1174   63.7361   87.2258 C   0  0  0  0  0  0  0  0  0  0  0  0
   -1.5165   63.4689   87.1212 O   0  0  0  0  0  0  0  0  0  0  0  0
    2.9821   68.3473   83.2234 C   0  0  0  0  0  0  0  0  0  0  0  0
    2.8657   69.6606   82.4837 C   0  0  0  0  0  0  0  0  0  0  0  0
    3.8568   70.0554   81.5735 C   0  0  0  0  0  0  0  0  0  0  0  0
    3.7568   71.2751   80.9024 C   0  0  0  0  0  0  0  0  0  0  0  0
    2.6704   72.1153   81.1402 C   0  0  0  0  0  0  0  0  0  0  0  0
    1.6861   71.7396   82.0527 C   0  0  0  0  0  0  0  0  0  0  0  0
    1.7841   70.5200   82.7242 C   0  0  0  0  0  0  0  0  0  0  0  0
 26 27  1  0  0  0
 27 24  1  0  0  0
 24 25  2  0  0  0
 24 23  1  0  0  0
 23 22  1  0  0  0
 22  1  1  0  0  0
  1  2  2  0  0  0
  2  3  1  0  0  0
  3  4  1  0  0  0
  4  5  2  0  0  0
  4  6  1  0  0  0
  6 28  1  0  0  0
 28 29  1  0  0  0
 29 30  2  0  0  0
 30 31  1  0  0  0
 31 32  2  0  0  0
 32 33  1  0  0  0
 33 34  2  0  0  0
  6  7  1  0  0  0
  7  8  2  0  0  0
  8  9  1  0  0  0
  8 10  1  0  0  0
 10 11  1  0  0  0
 11 12  2  0  0  0
 12 13  1  0  0  0
 13 16  1  0  0  0
 16 17  2  0  0  0
 17 18  1  0  0  0
 18 19  2  0  0  0
 19 20  1  0  0  0
 20 21  2  0  0  0
 13 14  2  0  0  0
 14 15  1  0  0  0
 15  1  1  0  0  0
 10  3  2  0  0  0
 15 11  1  0  0  0
 34 29  1  0  0  0
 21 16  1  0  0  0
M  END
> <minimizedAffinity>
-10.15205

$$$$



 34 38  0  0  0  0  0  0  0  0999 V2000
   -0.1002   63.1960   85.1416 C   0  0  0  0  0  0  0  0  0  0  0  0
   -0.9906   62.4303   84.5854 N   0  0  0  0  0  0  0  0  0  0  0  0
   -1.2328   62.6096   83.2213 C   0  0  0  0  0  0  0  0  0  0  0  0
   -2.2871   61.7172   82.6106 C   0  0  0  0  0  0  0  0  0  0  0  0
   -2.8781   60.8863   83.3023 O   0  0  0  0  0  0  0  0  0  0  0  0
   -2.5299   61.8857   81.2565 N   0  0  0  0  0  0  0  0  0  0  0  0
   -1.8848   62.7981   80.4661 N   0  0  0  0  0  0  0  0  0  0  0  0
   -0.9890   63.5584   81.0088 C   0  0  0  0  0  0  0  0  0  0  0  0
   -0.3286   64.5466   80.0752 C   0  0  0  0  0  0  0  0  0  0  0  0
   -0.5924   63.5125   82.4440 C   0  0  0  0  0  0  0  0  0  0  0  0
    0.4046   64.3378   83.0474 C   0  0  0  0  0  0  0  0  0  0  0  0
    1.2918   65.3333   82.6997 C   0  0  0  0  0  0  0  0  0  0  0  0
    2.0003   65.6743   83.8892 C   0  0  0  0  0  0  0  0  0  0  0  0
    1.5667   64.9267   84.9155 N   0  0  0  0  0  0  0  0  0  0  0  0
    0.6069   64.1414   84.3949 N   0  0  0  0  0  0  0  0  0  0  0  0
    3.0603   66.6758   84.0640 C   0  0  0  0  0  0  0  0  0  0  0  0
    4.1875   66.3860   84.8501 C   0  0  0  0  0  0  0  0  0  0  0  0
    5.2022   67.3304   85.0270 C   0  0  0  0  0  0  0  0  0  0  0  0
    5.1055   68.5788   84.4189 C   0  0  0  0  0  0  0  0  0  0  0  0
    3.9961   68.8828   83.6336 C   0  0  0  0  0  0  0  0  0  0  0  0
    2.9798   67.9381   83.4565 C   0  0  0  0  0  0  0  0  0  0  0  0
    0.2491   63.0931   86.5997 C   0  0  0  0  0  0  0  0  0  0  0  0
   -0.6392   64.0170   87.4242 C   0  0  0  0  0  0  0  0  0  0  0  0
   -1.4089   63.2498   88.4688 C   0  0  0  0  0  0  0  0  0  0  0  0
   -0.9789   62.9153   89.5632 O   0  0  0  0  0  0  0  0  0  0  0  0
   -2.7750   61.7090   87.3552 C   0  0  0  0  0  0  0  0  0  0  0  0
   -2.6603   62.9778   88.0010 O   0  0  0  0  0  0  0  0  0  0  0  0
   -3.5857   61.1064   80.6159 C   0  0  0  0  0  0  0  0  0  0  0  0
   -3.3234   60.8978   79.1418 C   0  0  0  0  0  0  0  0  0  0  0  0
   -2.5450   59.8169   78.7030 C   0  0  0  0  0  0  0  0  0  0  0  0
   -2.2901   59.6335   77.3430 C   0  0  0  0  0  0  0  0  0  0  0  0
   -2.8033   60.5323   76.4096 C   0  0  0  0  0  0  0  0  0  0  0  0
   -3.5670   61.6179   76.8349 C   0  0  0  0  0  0  0  0  0  0  0  0
   -3.8235   61.8025   78.1944 C   0  0  0  0  0  0  0  0  0  0  0  0
 26 27  1  0  0  0
 27 24  1  0  0  0
 24 25  2  0  0  0
 24 23  1  0  0  0
 23 22  1  0  0  0
 22  1  1  0  0  0
  1  2  2  0  0  0
  2  3  1  0  0  0
  3  4  1  0  0  0
  4  5  2  0  0  0
  4  6  1  0  0  0
  6 28  1  0  0  0
 28 29  1  0  0  0
 29 30  2  0  0  0
 30 31  1  0  0  0
 31 32  2  0  0  0
 32 33  1  0  0  0
 33 34  2  0  0  0
  6  7  1  0  0  0
  7  8  2  0  0  0
  8  9  1  0  0  0
  8 10  1  0  0  0
 10 11  1  0  0  0
 11 12  2  0  0  0
 12 13  1  0  0  0
 13 16  1  0  0  0
 16 17  2  0  0  0
 17 18  1  0  0  0
 18 19  2  0  0  0
 19 20  1  0  0  0
 20 21  2  0  0  0
 13 14  2  0  0  0
 14 15  1  0  0  0
 15  1  1  0  0  0
 10  3  2  0  0  0
 15 11  1  0  0  0
 34 29  1  0  0  0
 21 16  1  0  0  0
M  END
> <minimizedAffinity>
-10.12051

$$$$



 34 38  0  0  0  0  0  0  0  0999 V2000
    2.9227   66.6053   84.0815 C   0  0  0  0  0  0  0  0  0  0  0  0
    2.1934   65.5318   84.1443 N   0  0  0  0  0  0  0  0  0  0  0  0
    1.1659   65.3953   83.2076 C   0  0  0  0  0  0  0  0  0  0  0  0
    0.3250   64.1459   83.3209 C   0  0  0  0  0  0  0  0  0  0  0  0
    0.5607   63.3127   84.1975 O   0  0  0  0  0  0  0  0  0  0  0  0
   -0.6934   64.0008   82.3922 N   0  0  0  0  0  0  0  0  0  0  0  0
   -0.9729   64.9093   81.4073 N   0  0  0  0  0  0  0  0  0  0  0  0
   -0.2455   65.9770   81.3302 C   0  0  0  0  0  0  0  0  0  0  0  0
   -0.6214   66.9365   80.2247 C   0  0  0  0  0  0  0  0  0  0  0  0
    0.8937   66.2958   82.2357 C   0  0  0  0  0  0  0  0  0  0  0  0
    1.7099   67.4642   82.1487 C   0  0  0  0  0  0  0  0  0  0  0  0
    1.8388   68.5972   81.3748 C   0  0  0  0  0  0  0  0  0  0  0  0
    2.9396   69.3277   81.9110 C   0  0  0  0  0  0  0  0  0  0  0  0
    3.4579   68.6761   82.9632 N   0  0  0  0  0  0  0  0  0  0  0  0
    2.7038   67.5703   83.0954 N   0  0  0  0  0  0  0  0  0  0  0  0
    3.4968   70.6063   81.4505 C   0  0  0  0  0  0  0  0  0  0  0  0
    3.1452   71.8053   82.0917 C   0  0  0  0  0  0  0  0  0  0  0  0
    3.6658   73.0292   81.6626 C   0  0  0  0  0  0  0  0  0  0  0  0
    4.5474   73.0719   80.5861 C   0  0  0  0  0  0  0  0  0  0  0  0
    4.9094   71.8925   79.9398 C   0  0  0  0  0  0  0  0  0  0  0  0
    4.3883   70.6671   80.3686 C   0  0  0  0  0  0  0  0  0  0  0  0
    4.0588   66.8608   85.0315 C   0  0  0  0  0  0  0  0  0  0  0  0
    5.2700   66.0189   84.6484 C   0  0  0  0  0  0  0  0  0  0  0  0
    5.8919   65.3698   85.8585 C   0  0  0  0  0  0  0  0  0  0  0  0
    5.3768   64.4920   86.5357 O   0  0  0  0  0  0  0  0  0  0  0  0
    7.9730   65.9286   84.9437 C   0  0  0  0  0  0  0  0  0  0  0  0
    7.1182   65.9197   86.0878 O   0  0  0  0  0  0  0  0  0  0  0  0
   -1.5904   62.8523   82.4866 C   0  0  0  0  0  0  0  0  0  0  0  0
   -1.7861   62.1727   81.1505 C   0  0  0  0  0  0  0  0  0  0  0  0
   -0.7045   61.5681   80.4938 C   0  0  0  0  0  0  0  0  0  0  0  0
   -0.8825   60.9543   79.2530 C   0  0  0  0  0  0  0  0  0  0  0  0
   -2.1404   60.9458   78.6529 C   0  0  0  0  0  0  0  0  0  0  0  0
   -3.2200   61.5552   79.2898 C   0  0  0  0  0  0  0  0  0  0  0  0
   -3.0441   62.1689   80.5309 C   0  0  0  0  0  0  0  0  0  0  0  0
 26 27  1  0  0  0
 27 24  1  0  0  0
 24 25  2  0  0  0
 24 23  1  0  0  0
 23 22  1  0  0  0
 22  1  1  0  0  0
  1  2  2  0  0  0
  2  3  1  0  0  0
  3  4  1  0  0  0
  4  5  2  0  0  0
  4  6  1  0  0  0
  6 28  1  0  0  0
 28 29  1  0  0  0
 29 30  2  0  0  0
 30 31  1  0  0  0
 31 32  2  0  0  0
 32 33  1  0  0  0
 33 34  2  0  0  0
  6  7  1  0  0  0
  7  8  2  0  0  0
  8  9  1  0  0  0
  8 10  1  0  0  0
 10 11  1  0  0  0
 11 12  2  0  0  0
 12 13  1  0  0  0
 13 16  1  0  0  0
 16 17  2  0  0  0
 17 18  1  0  0  0
 18 19  2  0  0  0
 19 20  1  0  0  0
 20 21  2  0  0  0
 13 14  2  0  0  0
 14 15  1  0  0  0
 15  1  1  0  0  0
 10  3  2  0  0  0
 15 11  1  0  0  0
 34 29  1  0  0  0
 21 16  1  0  0  0
M  END
> <minimizedAffinity>
-9.73182

$$$$



 34 38  0  0  0  0  0  0  0  0999 V2000
    3.5076   68.3256   84.0863 C   0  0  0  0  0  0  0  0  0  0  0  0
    3.6412   69.5150   83.5804 N   0  0  0  0  0  0  0  0  0  0  0  0
    2.7510   69.8895   82.5710 C   0  0  0  0  0  0  0  0  0  0  0  0
    2.9462   71.2703   81.9913 C   0  0  0  0  0  0  0  0  0  0  0  0
    3.8457   72.0011   82.4098 O   0  0  0  0  0  0  0  0  0  0  0  0
    2.0639   71.6512   80.9927 N   0  0  0  0  0  0  0  0  0  0  0  0
    1.0551   70.8600   80.5134 N   0  0  0  0  0  0  0  0  0  0  0  0
    0.9075   69.6774   81.0181 C   0  0  0  0  0  0  0  0  0  0  0  0
   -0.2202   68.8603   80.4308 C   0  0  0  0  0  0  0  0  0  0  0  0
    1.7551   69.1041   82.1008 C   0  0  0  0  0  0  0  0  0  0  0  0
    1.5902   67.8062   82.6728 C   0  0  0  0  0  0  0  0  0  0  0  0
    0.7673   66.7069   82.5570 C   0  0  0  0  0  0  0  0  0  0  0  0
    1.2311   65.7546   83.5114 C   0  0  0  0  0  0  0  0  0  0  0  0
    2.2878   66.2450   84.1773 N   0  0  0  0  0  0  0  0  0  0  0  0
    2.4930   67.4676   83.6554 N   0  0  0  0  0  0  0  0  0  0  0  0
    0.6989   64.4157   83.7969 C   0  0  0  0  0  0  0  0  0  0  0  0
    0.6967   63.4260   82.8005 C   0  0  0  0  0  0  0  0  0  0  0  0
    0.1911   62.1488   83.0575 C   0  0  0  0  0  0  0  0  0  0  0  0
   -0.3185   61.8418   84.3160 C   0  0  0  0  0  0  0  0  0  0  0  0
   -0.3219   62.8100   85.3171 C   0  0  0  0  0  0  0  0  0  0  0  0
    0.1836   64.0888   85.0604 C   0  0  0  0  0  0  0  0  0  0  0  0
    4.4023   67.8130   85.1796 C   0  0  0  0  0  0  0  0  0  0  0  0
    5.7317   67.3439   84.6006 C   0  0  0  0  0  0  0  0  0  0  0  0
    6.0296   65.9196   84.9943 C   0  0  0  0  0  0  0  0  0  0  0  0
    5.2311   65.1404   85.4941 O   0  0  0  0  0  0  0  0  0  0  0  0
    8.2079   66.7591   84.8203 C   0  0  0  0  0  0  0  0  0  0  0  0
    7.3331   65.6351   84.7142 O   0  0  0  0  0  0  0  0  0  0  0  0
    2.2385   72.9447   80.3378 C   0  0  0  0  0  0  0  0  0  0  0  0
    1.2115   73.9559   80.7941 C   0  0  0  0  0  0  0  0  0  0  0  0
    1.2879   74.5197   82.0759 C   0  0  0  0  0  0  0  0  0  0  0  0
    0.3306   75.4415   82.5024 C   0  0  0  0  0  0  0  0  0  0  0  0
   -0.7161   75.8026   81.6558 C   0  0  0  0  0  0  0  0  0  0  0  0
   -0.8099   75.2388   80.3846 C   0  0  0  0  0  0  0  0  0  0  0  0
    0.1468   74.3173   79.9562 C   0  0  0  0  0  0  0  0  0  0  0  0
 26 27  1  0  0  0
 27 24  1  0  0  0
 24 25  2  0  0  0
 24 23  1  0  0  0
 23 22  1  0  0  0
 22  1  1  0  0  0
  1  2  2  0  0  0
  2  3  1  0  0  0
  3  4  1  0  0  0
  4  5  2  0  0  0
  4  6  1  0  0  0
  6 28  1  0  0  0
 28 29  1  0  0  0
 29 30  2  0  0  0
 30 31  1  0  0  0
 31 32  2  0  0  0
 32 33  1  0  0  0
 33 34  2  0  0  0
  6  7  1  0  0  0
  7  8  2  0  0  0
  8  9  1  0  0  0
  8 10  1  0  0  0
 10 11  1  0  0  0
 11 12  2  0  0  0
 12 13  1  0  0  0
 13 16  1  0  0  0
 16 17  2  0  0  0
 17 18  1  0  0  0
 18 19  2  0  0  0
 19 20  1  0  0  0
 20 21  2  0  0  0
 13 14  2  0  0  0
 14 15  1  0  0  0
 15  1  1  0  0  0
 10  3  2  0  0  0
 15 11  1  0  0  0
 34 29  1  0  0  0
 21 16  1  0  0  0
M  END
> <minimizedAffinity>
-9.43248

$$$$



 34 38  0  0  0  0  0  0  0  0999 V2000
    2.5411   66.3674   83.7571 C   0  0  0  0  0  0  0  0  0  0  0  0
    2.9521   67.5546   83.4253 N   0  0  0  0  0  0  0  0  0  0  0  0
    2.2829   68.1999   82.3825 C   0  0  0  0  0  0  0  0  0  0  0  0
    2.7982   69.5696   82.0091 C   0  0  0  0  0  0  0  0  0  0  0  0
    3.7528   70.0627   82.6122 O   0  0  0  0  0  0  0  0  0  0  0  0
    2.1366   70.2184   80.9786 N   0  0  0  0  0  0  0  0  0  0  0  0
    1.0723   69.6942   80.2960 N   0  0  0  0  0  0  0  0  0  0  0  0
    0.6491   68.5164   80.6260 C   0  0  0  0  0  0  0  0  0  0  0  0
   -0.5217   68.0015   79.8208 C   0  0  0  0  0  0  0  0  0  0  0  0
    1.2311   67.6779   81.7111 C   0  0  0  0  0  0  0  0  0  0  0  0
    0.7615   66.3839   82.0907 C   0  0  0  0  0  0  0  0  0  0  0  0
   -0.2244   65.4845   81.7469 C   0  0  0  0  0  0  0  0  0  0  0  0
   -0.0683   64.3647   82.6156 C   0  0  0  0  0  0  0  0  0  0  0  0
    0.9640   64.5667   83.4486 N   0  0  0  0  0  0  0  0  0  0  0  0
    1.4528   65.7739   83.1131 N   0  0  0  0  0  0  0  0  0  0  0  0
   -0.8662   63.1327   82.6679 C   0  0  0  0  0  0  0  0  0  0  0  0
   -1.6881   62.8663   83.7751 C   0  0  0  0  0  0  0  0  0  0  0  0
   -2.4507   61.6970   83.8392 C   0  0  0  0  0  0  0  0  0  0  0  0
   -2.4036   60.7769   82.7957 C   0  0  0  0  0  0  0  0  0  0  0  0
   -1.5962   61.0256   81.6885 C   0  0  0  0  0  0  0  0  0  0  0  0
   -0.8323   62.1958   81.6239 C   0  0  0  0  0  0  0  0  0  0  0  0
    3.1788   65.5777   84.8654 C   0  0  0  0  0  0  0  0  0  0  0  0
    4.6477   65.9571   85.0096 C   0  0  0  0  0  0  0  0  0  0  0  0
    5.1912   65.5454   86.3540 C   0  0  0  0  0  0  0  0  0  0  0  0
    5.4198   64.3969   86.7049 O   0  0  0  0  0  0  0  0  0  0  0  0
    5.5398   67.8602   86.3765 C   0  0  0  0  0  0  0  0  0  0  0  0
    5.3818   66.6538   87.1246 O   0  0  0  0  0  0  0  0  0  0  0  0
    2.6256   71.5149   80.5178 C   0  0  0  0  0  0  0  0  0  0  0  0
    1.8537   72.6629   81.1274 C   0  0  0  0  0  0  0  0  0  0  0  0
    0.5614   72.9704   80.6780 C   0  0  0  0  0  0  0  0  0  0  0  0
   -0.1448   74.0400   81.2304 C   0  0  0  0  0  0  0  0  0  0  0  0
    0.4361   74.8174   82.2307 C   0  0  0  0  0  0  0  0  0  0  0  0
    1.7252   74.5297   82.6760 C   0  0  0  0  0  0  0  0  0  0  0  0
    2.4326   73.4600   82.1253 C   0  0  0  0  0  0  0  0  0  0  0  0
 26 27  1  0  0  0
 27 24  1  0  0  0
 24 25  2  0  0  0
 24 23  1  0  0  0
 23 22  1  0  0  0
 22  1  1  0  0  0
  1  2  2  0  0  0
  2  3  1  0  0  0
  3  4  1  0  0  0
  4  5  2  0  0  0
  4  6  1  0  0  0
  6 28  1  0  0  0
 28 29  1  0  0  0
 29 30  2  0  0  0
 30 31  1  0  0  0
 31 32  2  0  0  0
 32 33  1  0  0  0
 33 34  2  0  0  0
  6  7  1  0  0  0
  7  8  2  0  0  0
  8  9  1  0  0  0
  8 10  1  0  0  0
 10 11  1  0  0  0
 11 12  2  0  0  0
 12 13  1  0  0  0
 13 16  1  0  0  0
 16 17  2  0  0  0
 17 18  1  0  0  0
 18 19  2  0  0  0
 19 20  1  0  0  0
 20 21  2  0  0  0
 13 14  2  0  0  0
 14 15  1  0  0  0
 15  1  1  0  0  0
 10  3  2  0  0  0
 15 11  1  0  0  0
 34 29  1  0  0  0
 21 16  1  0  0  0
M  END
> <minimizedAffinity>
-9.41487

$$$$
