


 34 37  0  0  0  0  0  0  0  0999 V2000
    0.3232   64.8751   81.4605 C   0  0  0  0  0  0  0  0  0  0  0  0
   -0.2518   63.9949   80.6857 N   0  0  0  0  0  0  0  0  0  0  0  0
   -0.6704   62.8666   81.3182 C   0  0  0  0  0  0  0  0  0  0  0  0
   -0.6038   62.6276   82.6690 C   0  0  0  0  0  0  0  0  0  0  0  0
   -1.2764   61.4280   82.8811 C   0  0  0  0  0  0  0  0  0  0  0  0
   -1.7685   60.9244   81.7460 N   0  0  0  0  0  0  0  0  0  0  0  0
   -1.3037   61.7619   80.7597 N   0  0  0  0  0  0  0  0  0  0  0  0
    0.0377   63.5860   83.5142 C   0  0  0  0  0  0  0  0  0  0  0  0
    0.1779   63.4597   84.7244 O   0  0  0  0  0  0  0  0  0  0  0  0
    0.4857   64.6930   82.8196 N   0  0  0  0  0  0  0  0  0  0  0  0
    0.9717   65.3740   83.3761 H   0  0  0  0  0  0  0  0  0  0  0  0
   -1.5910   61.4671   79.3998 C   0  0  0  0  0  0  0  0  0  0  0  0
   -0.5003   61.4353   78.5063 C   0  0  0  0  0  0  0  0  0  0  0  0
   -0.6825   61.0918   77.1657 C   0  0  0  0  0  0  0  0  0  0  0  0
   -1.9559   60.7955   76.6940 C   0  0  0  0  0  0  0  0  0  0  0  0
   -3.0492   60.8726   77.5574 C   0  0  0  0  0  0  0  0  0  0  0  0
   -2.8802   61.2218   78.9067 C   0  0  0  0  0  0  0  0  0  0  0  0
   -4.3442   61.5189   79.7814 Cl  0  0  0  0  0  0  0  0  0  0  0  0
    0.7934   66.0159   80.8775 N   0  0  0  0  0  0  0  0  0  0  0  0
    1.1459   65.7918   79.9449 H   0  0  0  0  0  0  0  0  0  0  0  0
    0.1125   67.3179   80.9072 C   0  0  0  0  0  0  0  0  0  0  0  0
   -0.8769   67.4244   79.7534 C   0  0  0  0  0  0  0  0  0  0  0  0
    0.7139   69.5941   81.5074 N   0  0  0  0  0  0  0  0  0  0  0  0
    1.1615   68.4552   80.8531 C   0  0  0  0  0  0  0  0  0  0  0  0
    2.2201   68.3335   80.2455 O   0  0  0  0  0  0  0  0  0  0  0  0
   -0.1692   69.4823   81.9997 H   0  0  0  0  0  0  0  0  0  0  0  0
    2.5200   73.3983   81.8314 C   0  0  0  0  0  0  0  0  0  0  0  0
    3.2480   72.2650   82.1881 C   0  0  0  0  0  0  0  0  0  0  0  0
    2.6708   70.9905   82.0901 C   0  0  0  0  0  0  0  0  0  0  0  0
    1.3611   70.8357   81.6357 C   0  0  0  0  0  0  0  0  0  0  0  0
    0.6340   71.9750   81.2771 C   0  0  0  0  0  0  0  0  0  0  0  0
    1.2107   73.2449   81.3754 C   0  0  0  0  0  0  0  0  0  0  0  0
    3.1721   75.2491   83.1708 C   0  0  0  0  0  0  0  0  0  0  0  0
    2.9627   74.6904   81.8798 O   0  0  0  0  0  0  0  0  0  0  0  0
 33 34  1  0  0  0
 34 27  1  0  0  0
 27 28  1  0  0  0
 28 29  2  0  0  0
 29 30  1  0  0  0
 30 23  1  0  0  0
 23 24  1  0  0  0
 24 25  2  0  0  0
 24 21  1  0  0  0
 21 22  1  0  0  0
 21 19  1  0  0  0
 19  1  1  0  0  0
  1  2  2  0  0  0
  2  3  1  0  0  0
  3  4  2  0  0  0
  4  5  1  0  0  0
  5  6  2  0  0  0
  6  7  1  0  0  0
  7 12  1  0  0  0
 12 13  2  0  0  0
 13 14  1  0  0  0
 14 15  2  0  0  0
 15 16  1  0  0  0
 16 17  2  0  0  0
 17 18  1  0  0  0
  4  8  1  0  0  0
  8  9  2  0  0  0
  8 10  1  0  0  0
 30 31  2  0  0  0
 31 32  1  0  0  0
 32 27  2  0  0  0
 10  1  1  0  0  0
  7  3  1  0  0  0
 17 12  1  0  0  0
 23 26  1  0  0  0
 19 20  1  0  0  0
 10 11  1  0  0  0
M  END
> <minimizedAffinity>
-1.79424

$$$$



 34 37  0  0  0  0  0  0  0  0999 V2000
    0.1817   64.6596   81.8910 C   0  0  0  0  0  0  0  0  0  0  0  0
   -0.3541   63.8281   81.0382 N   0  0  0  0  0  0  0  0  0  0  0  0
   -0.9145   62.7223   81.5964 C   0  0  0  0  0  0  0  0  0  0  0  0
   -1.0210   62.4637   82.9410 C   0  0  0  0  0  0  0  0  0  0  0  0
   -1.7887   61.3084   83.0509 C   0  0  0  0  0  0  0  0  0  0  0  0
   -2.1765   60.8514   81.8571 N   0  0  0  0  0  0  0  0  0  0  0  0
   -1.5475   61.6681   80.9473 N   0  0  0  0  0  0  0  0  0  0  0  0
   -0.4225   63.3681   83.8728 C   0  0  0  0  0  0  0  0  0  0  0  0
   -0.4325   63.2187   85.0885 O   0  0  0  0  0  0  0  0  0  0  0  0
    0.1730   64.4513   83.2560 N   0  0  0  0  0  0  0  0  0  0  0  0
    0.6333   65.0925   83.8779 H   0  0  0  0  0  0  0  0  0  0  0  0
   -1.6927   61.4087   79.5580 C   0  0  0  0  0  0  0  0  0  0  0  0
   -0.5105   61.3322   78.7929 C   0  0  0  0  0  0  0  0  0  0  0  0
   -0.5560   61.0183   77.4336 C   0  0  0  0  0  0  0  0  0  0  0  0
   -1.7809   60.7967   76.8151 C   0  0  0  0  0  0  0  0  0  0  0  0
   -2.9600   60.9190   77.5509 C   0  0  0  0  0  0  0  0  0  0  0  0
   -2.9282   61.2392   78.9175 C   0  0  0  0  0  0  0  0  0  0  0  0
   -4.4653   61.6005   79.6271 Cl  0  0  0  0  0  0  0  0  0  0  0  0
    0.7884   65.7740   81.3882 N   0  0  0  0  0  0  0  0  0  0  0  0
    1.7890   65.7274   81.5901 H   0  0  0  0  0  0  0  0  0  0  0  0
    0.5234   66.3501   80.0625 C   0  0  0  0  0  0  0  0  0  0  0  0
    1.6196   65.9502   79.0827 C   0  0  0  0  0  0  0  0  0  0  0  0
    1.5550   68.4474   80.7256 N   0  0  0  0  0  0  0  0  0  0  0  0
    0.4086   67.8898   80.1777 C   0  0  0  0  0  0  0  0  0  0  0  0
   -0.6133   68.4899   79.8616 O   0  0  0  0  0  0  0  0  0  0  0  0
    2.3190   67.7919   80.8714 H   0  0  0  0  0  0  0  0  0  0  0  0
    2.4654   72.4919   81.5332 C   0  0  0  0  0  0  0  0  0  0  0  0
    1.2999   71.9372   82.0582 C   0  0  0  0  0  0  0  0  0  0  0  0
    0.9749   70.5966   81.8041 C   0  0  0  0  0  0  0  0  0  0  0  0
    1.8099   69.7978   81.0230 C   0  0  0  0  0  0  0  0  0  0  0  0
    2.9794   70.3574   80.4991 C   0  0  0  0  0  0  0  0  0  0  0  0
    3.3022   71.6939   80.7532 C   0  0  0  0  0  0  0  0  0  0  0  0
    2.6255   74.3826   82.9631 C   0  0  0  0  0  0  0  0  0  0  0  0
    2.8956   73.7779   81.7045 O   0  0  0  0  0  0  0  0  0  0  0  0
 33 34  1  0  0  0
 34 27  1  0  0  0
 27 28  1  0  0  0
 28 29  2  0  0  0
 29 30  1  0  0  0
 30 23  1  0  0  0
 23 24  1  0  0  0
 24 25  2  0  0  0
 24 21  1  0  0  0
 21 22  1  0  0  0
 21 19  1  0  0  0
 19  1  1  0  0  0
  1  2  2  0  0  0
  2  3  1  0  0  0
  3  4  2  0  0  0
  4  5  1  0  0  0
  5  6  2  0  0  0
  6  7  1  0  0  0
  7 12  1  0  0  0
 12 13  2  0  0  0
 13 14  1  0  0  0
 14 15  2  0  0  0
 15 16  1  0  0  0
 16 17  2  0  0  0
 17 18  1  0  0  0
  4  8  1  0  0  0
  8  9  2  0  0  0
  8 10  1  0  0  0
 30 31  2  0  0  0
 31 32  1  0  0  0
 32 27  2  0  0  0
 10  1  1  0  0  0
  7  3  1  0  0  0
 17 12  1  0  0  0
 23 26  1  0  0  0
 19 20  1  0  0  0
 10 11  1  0  0  0
M  END
> <minimizedAffinity>
-1.69523

$$$$



 34 37  0  0  0  0  0  0  0  0999 V2000
    0.8973   65.1513   82.9163 C   0  0  0  0  0  0  0  0  0  0  0  0
    0.1219   64.3434   82.2441 N   0  0  0  0  0  0  0  0  0  0  0  0
   -0.5207   63.4122   82.9980 C   0  0  0  0  0  0  0  0  0  0  0  0
   -0.4749   63.3118   84.3670 C   0  0  0  0  0  0  0  0  0  0  0  0
   -1.3915   62.3229   84.7110 C   0  0  0  0  0  0  0  0  0  0  0  0
   -2.0115   61.8223   83.6389 N   0  0  0  0  0  0  0  0  0  0  0  0
   -1.3973   62.4232   82.5656 N   0  0  0  0  0  0  0  0  0  0  0  0
    0.3843   64.1881   85.1004 C   0  0  0  0  0  0  0  0  0  0  0  0
    0.5234   64.1652   86.3171 O   0  0  0  0  0  0  0  0  0  0  0  0
    1.0494   65.0853   84.2871 N   0  0  0  0  0  0  0  0  0  0  0  0
    1.6883   65.6965   84.7646 H   0  0  0  0  0  0  0  0  0  0  0  0
   -1.7769   62.0549   81.2470 C   0  0  0  0  0  0  0  0  0  0  0  0
   -3.1580   62.0184   80.9638 C   0  0  0  0  0  0  0  0  0  0  0  0
   -3.6182   61.7289   79.6782 C   0  0  0  0  0  0  0  0  0  0  0  0
   -2.7093   61.4524   78.6637 C   0  0  0  0  0  0  0  0  0  0  0  0
   -1.3426   61.4365   78.9441 C   0  0  0  0  0  0  0  0  0  0  0  0
   -0.8670   61.7209   80.2341 C   0  0  0  0  0  0  0  0  0  0  0  0
    0.8188   61.4168   80.4831 Cl  0  0  0  0  0  0  0  0  0  0  0  0
    1.5943   66.0883   82.2102 N   0  0  0  0  0  0  0  0  0  0  0  0
    2.2471   65.6144   81.5830 H   0  0  0  0  0  0  0  0  0  0  0  0
    1.0052   67.2820   81.5874 C   0  0  0  0  0  0  0  0  0  0  0  0
    0.9335   67.1094   80.0752 C   0  0  0  0  0  0  0  0  0  0  0  0
    1.4071   69.6586   81.2825 N   0  0  0  0  0  0  0  0  0  0  0  0
    1.8347   68.5319   81.9703 C   0  0  0  0  0  0  0  0  0  0  0  0
    2.7802   68.4698   82.7493 O   0  0  0  0  0  0  0  0  0  0  0  0
    0.5697   69.5220   80.7213 H   0  0  0  0  0  0  0  0  0  0  0  0
    2.8409   73.6271   81.4679 C   0  0  0  0  0  0  0  0  0  0  0  0
    3.7126   72.6033   81.1024 C   0  0  0  0  0  0  0  0  0  0  0  0
    3.2611   71.2772   81.0339 C   0  0  0  0  0  0  0  0  0  0  0  0
    1.9354   70.9608   81.3305 C   0  0  0  0  0  0  0  0  0  0  0  0
    1.0630   71.9908   81.6953 C   0  0  0  0  0  0  0  0  0  0  0  0
    1.5145   73.3124   81.7632 C   0  0  0  0  0  0  0  0  0  0  0  0
    4.5345   75.2871   81.6125 C   0  0  0  0  0  0  0  0  0  0  0  0
    3.1525   74.9538   81.5723 O   0  0  0  0  0  0  0  0  0  0  0  0
 33 34  1  0  0  0
 34 27  1  0  0  0
 27 28  1  0  0  0
 28 29  2  0  0  0
 29 30  1  0  0  0
 30 23  1  0  0  0
 23 24  1  0  0  0
 24 25  2  0  0  0
 24 21  1  0  0  0
 21 22  1  0  0  0
 21 19  1  0  0  0
 19  1  1  0  0  0
  1  2  2  0  0  0
  2  3  1  0  0  0
  3  4  2  0  0  0
  4  5  1  0  0  0
  5  6  2  0  0  0
  6  7  1  0  0  0
  7 12  1  0  0  0
 12 13  2  0  0  0
 13 14  1  0  0  0
 14 15  2  0  0  0
 15 16  1  0  0  0
 16 17  2  0  0  0
 17 18  1  0  0  0
  4  8  1  0  0  0
  8  9  2  0  0  0
  8 10  1  0  0  0
 30 31  2  0  0  0
 31 32  1  0  0  0
 32 27  2  0  0  0
 10  1  1  0  0  0
  7  3  1  0  0  0
 17 12  1  0  0  0
 23 26  1  0  0  0
 19 20  1  0  0  0
 10 11  1  0  0  0
M  END
> <minimizedAffinity>
-1.65454

$$$$



 34 37  0  0  0  0  0  0  0  0999 V2000
    0.4220   65.2324   81.5676 C   0  0  0  0  0  0  0  0  0  0  0  0
   -0.2012   64.3091   80.8858 N   0  0  0  0  0  0  0  0  0  0  0  0
   -0.5733   63.2201   81.6096 C   0  0  0  0  0  0  0  0  0  0  0  0
   -0.4156   63.0602   82.9646 C   0  0  0  0  0  0  0  0  0  0  0  0
   -1.0691   61.8758   83.2908 C   0  0  0  0  0  0  0  0  0  0  0  0
   -1.6348   61.3073   82.2226 N   0  0  0  0  0  0  0  0  0  0  0  0
   -1.2394   62.0854   81.1602 N   0  0  0  0  0  0  0  0  0  0  0  0
    0.2784   64.0656   83.7075 C   0  0  0  0  0  0  0  0  0  0  0  0
    0.4998   64.0099   84.9109 O   0  0  0  0  0  0  0  0  0  0  0  0
    0.6758   65.1296   82.9211 N   0  0  0  0  0  0  0  0  0  0  0  0
    1.1961   65.8414   83.4031 H   0  0  0  0  0  0  0  0  0  0  0  0
   -1.6164   61.7121   79.8422 C   0  0  0  0  0  0  0  0  0  0  0  0
   -2.9049   61.1636   79.6747 C   0  0  0  0  0  0  0  0  0  0  0  0
   -3.3814   60.8283   78.4063 C   0  0  0  0  0  0  0  0  0  0  0  0
   -2.5729   61.0162   77.2914 C   0  0  0  0  0  0  0  0  0  0  0  0
   -1.2782   61.5111   77.4506 C   0  0  0  0  0  0  0  0  0  0  0  0
   -0.7852   61.8474   78.7214 C   0  0  0  0  0  0  0  0  0  0  0  0
    0.9072   62.2054   78.7857 Cl  0  0  0  0  0  0  0  0  0  0  0  0
    0.8489   66.3367   80.8889 N   0  0  0  0  0  0  0  0  0  0  0  0
    1.1251   66.0605   79.9447 H   0  0  0  0  0  0  0  0  0  0  0  0
    0.1776   67.6440   80.9028 C   0  0  0  0  0  0  0  0  0  0  0  0
   -0.8834   67.7060   79.8110 C   0  0  0  0  0  0  0  0  0  0  0  0
    0.8298   69.9387   81.3628 N   0  0  0  0  0  0  0  0  0  0  0  0
    1.2266   68.7695   80.7297 C   0  0  0  0  0  0  0  0  0  0  0  0
    2.2414   68.6134   80.0587 O   0  0  0  0  0  0  0  0  0  0  0  0
   -0.0189   69.8552   81.9173 H   0  0  0  0  0  0  0  0  0  0  0  0
    2.6700   73.7401   81.4133 C   0  0  0  0  0  0  0  0  0  0  0  0
    3.4369   72.6075   81.6794 C   0  0  0  0  0  0  0  0  0  0  0  0
    2.8493   71.3339   81.6691 C   0  0  0  0  0  0  0  0  0  0  0  0
    1.4906   71.1794   81.3940 C   0  0  0  0  0  0  0  0  0  0  0  0
    0.7245   72.3180   81.1259 C   0  0  0  0  0  0  0  0  0  0  0  0
    1.3115   73.5870   81.1365 C   0  0  0  0  0  0  0  0  0  0  0  0
    2.7050   75.8713   82.4629 C   0  0  0  0  0  0  0  0  0  0  0  0
    3.1177   75.0313   81.3921 O   0  0  0  0  0  0  0  0  0  0  0  0
 33 34  1  0  0  0
 34 27  1  0  0  0
 27 28  1  0  0  0
 28 29  2  0  0  0
 29 30  1  0  0  0
 30 23  1  0  0  0
 23 24  1  0  0  0
 24 25  2  0  0  0
 24 21  1  0  0  0
 21 22  1  0  0  0
 21 19  1  0  0  0
 19  1  1  0  0  0
  1  2  2  0  0  0
  2  3  1  0  0  0
  3  4  2  0  0  0
  4  5  1  0  0  0
  5  6  2  0  0  0
  6  7  1  0  0  0
  7 12  1  0  0  0
 12 13  2  0  0  0
 13 14  1  0  0  0
 14 15  2  0  0  0
 15 16  1  0  0  0
 16 17  2  0  0  0
 17 18  1  0  0  0
  4  8  1  0  0  0
  8  9  2  0  0  0
  8 10  1  0  0  0
 30 31  2  0  0  0
 31 32  1  0  0  0
 32 27  2  0  0  0
 10  1  1  0  0  0
  7  3  1  0  0  0
 17 12  1  0  0  0
 23 26  1  0  0  0
 19 20  1  0  0  0
 10 11  1  0  0  0
M  END
> <minimizedAffinity>
-1.64071

$$$$



 34 37  0  0  0  0  0  0  0  0999 V2000
    1.6444   70.7341   81.2214 C   0  0  0  0  0  0  0  0  0  0  0  0
    2.4715   71.7445   81.2443 N   0  0  0  0  0  0  0  0  0  0  0  0
    1.8866   72.9628   81.0956 C   0  0  0  0  0  0  0  0  0  0  0  0
    0.5376   73.2036   81.0032 C   0  0  0  0  0  0  0  0  0  0  0  0
    0.3922   74.5874   81.0151 C   0  0  0  0  0  0  0  0  0  0  0  0
    1.5677   75.2118   81.1280 N   0  0  0  0  0  0  0  0  0  0  0  0
    2.5053   74.2078   81.0727 N   0  0  0  0  0  0  0  0  0  0  0  0
   -0.3657   72.0959   80.9649 C   0  0  0  0  0  0  0  0  0  0  0  0
   -1.5814   72.1959   80.8549 O   0  0  0  0  0  0  0  0  0  0  0  0
    0.2792   70.8790   81.0738 N   0  0  0  0  0  0  0  0  0  0  0  0
   -0.3211   70.0752   81.0176 H   0  0  0  0  0  0  0  0  0  0  0  0
    3.8866   74.5396   81.0957 C   0  0  0  0  0  0  0  0  0  0  0  0
    4.6630   74.1301   79.9918 C   0  0  0  0  0  0  0  0  0  0  0  0
    6.0142   74.4685   79.9015 C   0  0  0  0  0  0  0  0  0  0  0  0
    6.6136   75.2014   80.9191 C   0  0  0  0  0  0  0  0  0  0  0  0
    5.8676   75.5687   82.0395 C   0  0  0  0  0  0  0  0  0  0  0  0
    4.5092   75.2302   82.1449 C   0  0  0  0  0  0  0  0  0  0  0  0
    3.7909   75.5324   83.6907 Cl  0  0  0  0  0  0  0  0  0  0  0  0
    2.1759   69.4821   81.3343 N   0  0  0  0  0  0  0  0  0  0  0  0
    3.1638   69.5615   81.5829 H   0  0  0  0  0  0  0  0  0  0  0  0
    1.5288   68.3521   82.0155 C   0  0  0  0  0  0  0  0  0  0  0  0
    2.3231   67.9552   83.2537 C   0  0  0  0  0  0  0  0  0  0  0  0
    0.4074   66.2737   81.4451 N   0  0  0  0  0  0  0  0  0  0  0  0
    1.3897   67.1632   81.0336 C   0  0  0  0  0  0  0  0  0  0  0  0
    2.1204   67.0395   80.0562 O   0  0  0  0  0  0  0  0  0  0  0  0
   -0.1308   66.5782   82.2528 H   0  0  0  0  0  0  0  0  0  0  0  0
   -0.7472   62.5642   79.7881 C   0  0  0  0  0  0  0  0  0  0  0  0
   -0.5685   63.6609   78.9471 C   0  0  0  0  0  0  0  0  0  0  0  0
   -0.1858   64.9036   79.4729 C   0  0  0  0  0  0  0  0  0  0  0  0
    0.0212   65.0632   80.8430 C   0  0  0  0  0  0  0  0  0  0  0  0
   -0.1575   63.9602   81.6836 C   0  0  0  0  0  0  0  0  0  0  0  0
   -0.5390   62.7219   81.1582 C   0  0  0  0  0  0  0  0  0  0  0  0
   -2.2973   61.1937   78.6202 C   0  0  0  0  0  0  0  0  0  0  0  0
   -1.1166   61.3052   79.4053 O   0  0  0  0  0  0  0  0  0  0  0  0
 33 34  1  0  0  0
 34 27  1  0  0  0
 27 28  1  0  0  0
 28 29  2  0  0  0
 29 30  1  0  0  0
 30 23  1  0  0  0
 23 24  1  0  0  0
 24 25  2  0  0  0
 24 21  1  0  0  0
 21 22  1  0  0  0
 21 19  1  0  0  0
 19  1  1  0  0  0
  1  2  2  0  0  0
  2  3  1  0  0  0
  3  4  2  0  0  0
  4  5  1  0  0  0
  5  6  2  0  0  0
  6  7  1  0  0  0
  7 12  1  0  0  0
 12 13  2  0  0  0
 13 14  1  0  0  0
 14 15  2  0  0  0
 15 16  1  0  0  0
 16 17  2  0  0  0
 17 18  1  0  0  0
  4  8  1  0  0  0
  8  9  2  0  0  0
  8 10  1  0  0  0
 30 31  2  0  0  0
 31 32  1  0  0  0
 32 27  2  0  0  0
 10  1  1  0  0  0
  7  3  1  0  0  0
 17 12  1  0  0  0
 23 26  1  0  0  0
 19 20  1  0  0  0
 10 11  1  0  0  0
M  END
> <minimizedAffinity>
-1.59910

$$$$



 34 37  0  0  0  0  0  0  0  0999 V2000
    2.3274   70.8070   81.9018 C   0  0  0  0  0  0  0  0  0  0  0  0
    3.0785   71.8711   81.9977 N   0  0  0  0  0  0  0  0  0  0  0  0
    2.4536   73.0389   81.6908 C   0  0  0  0  0  0  0  0  0  0  0  0
    1.1251   73.1834   81.3742 C   0  0  0  0  0  0  0  0  0  0  0  0
    0.8976   74.5534   81.2853 C   0  0  0  0  0  0  0  0  0  0  0  0
    2.0005   75.2603   81.5463 N   0  0  0  0  0  0  0  0  0  0  0  0
    2.9929   74.3205   81.6955 N   0  0  0  0  0  0  0  0  0  0  0  0
    0.3071   72.0166   81.2566 C   0  0  0  0  0  0  0  0  0  0  0  0
   -0.8791   72.0290   80.9515 O   0  0  0  0  0  0  0  0  0  0  0  0
    0.9973   70.8524   81.5336 N   0  0  0  0  0  0  0  0  0  0  0  0
    0.4626   70.0081   81.4290 H   0  0  0  0  0  0  0  0  0  0  0  0
    4.3304   74.7456   81.9166 C   0  0  0  0  0  0  0  0  0  0  0  0
    4.6031   75.3954   83.1383 C   0  0  0  0  0  0  0  0  0  0  0  0
    5.9016   75.7894   83.4657 C   0  0  0  0  0  0  0  0  0  0  0  0
    6.9408   75.5595   82.5718 C   0  0  0  0  0  0  0  0  0  0  0  0
    6.6743   74.9628   81.3391 C   0  0  0  0  0  0  0  0  0  0  0  0
    5.3720   74.5663   80.9955 C   0  0  0  0  0  0  0  0  0  0  0  0
    5.1596   74.0769   79.3488 Cl  0  0  0  0  0  0  0  0  0  0  0  0
    2.9073   69.6004   82.1669 N   0  0  0  0  0  0  0  0  0  0  0  0
    3.8261   69.7580   82.5856 H   0  0  0  0  0  0  0  0  0  0  0  0
    2.2193   68.4516   82.7723 C   0  0  0  0  0  0  0  0  0  0  0  0
    3.0983   67.8100   83.8388 C   0  0  0  0  0  0  0  0  0  0  0  0
    1.0218   66.4268   82.1649 N   0  0  0  0  0  0  0  0  0  0  0  0
    1.8403   67.4322   81.6703 C   0  0  0  0  0  0  0  0  0  0  0  0
    2.2813   67.5164   80.5289 O   0  0  0  0  0  0  0  0  0  0  0  0
    0.7171   66.5607   83.1261 H   0  0  0  0  0  0  0  0  0  0  0  0
   -0.4808   62.9726   80.2545 C   0  0  0  0  0  0  0  0  0  0  0  0
   -0.5010   64.1901   79.5769 C   0  0  0  0  0  0  0  0  0  0  0  0
   -0.0083   65.3516   80.1896 C   0  0  0  0  0  0  0  0  0  0  0  0
    0.5082   65.3086   81.4846 C   0  0  0  0  0  0  0  0  0  0  0  0
    0.5283   64.0849   82.1609 C   0  0  0  0  0  0  0  0  0  0  0  0
    0.0368   62.9277   81.5489 C   0  0  0  0  0  0  0  0  0  0  0  0
   -1.6964   61.8084   78.5776 C   0  0  0  0  0  0  0  0  0  0  0  0
   -0.9276   61.7738   79.7736 O   0  0  0  0  0  0  0  0  0  0  0  0
 33 34  1  0  0  0
 34 27  1  0  0  0
 27 28  1  0  0  0
 28 29  2  0  0  0
 29 30  1  0  0  0
 30 23  1  0  0  0
 23 24  1  0  0  0
 24 25  2  0  0  0
 24 21  1  0  0  0
 21 22  1  0  0  0
 21 19  1  0  0  0
 19  1  1  0  0  0
  1  2  2  0  0  0
  2  3  1  0  0  0
  3  4  2  0  0  0
  4  5  1  0  0  0
  5  6  2  0  0  0
  6  7  1  0  0  0
  7 12  1  0  0  0
 12 13  2  0  0  0
 13 14  1  0  0  0
 14 15  2  0  0  0
 15 16  1  0  0  0
 16 17  2  0  0  0
 17 18  1  0  0  0
  4  8  1  0  0  0
  8  9  2  0  0  0
  8 10  1  0  0  0
 30 31  2  0  0  0
 31 32  1  0  0  0
 32 27  2  0  0  0
 10  1  1  0  0  0
  7  3  1  0  0  0
 17 12  1  0  0  0
 23 26  1  0  0  0
 19 20  1  0  0  0
 10 11  1  0  0  0
M  END
> <minimizedAffinity>
-1.52474

$$$$



 34 37  0  0  0  0  0  0  0  0999 V2000
    2.0921   71.5921   81.1571 C   0  0  0  0  0  0  0  0  0  0  0  0
    3.0604   72.4683   81.1635 N   0  0  0  0  0  0  0  0  0  0  0  0
    2.6564   73.7642   81.0872 C   0  0  0  0  0  0  0  0  0  0  0  0
    1.3553   74.2040   81.0809 C   0  0  0  0  0  0  0  0  0  0  0  0
    1.4184   75.5927   81.1445 C   0  0  0  0  0  0  0  0  0  0  0  0
    2.6780   76.0327   81.2084 N   0  0  0  0  0  0  0  0  0  0  0  0
    3.4515   74.9047   81.0673 N   0  0  0  0  0  0  0  0  0  0  0  0
    0.2964   73.2435   81.0606 C   0  0  0  0  0  0  0  0  0  0  0  0
   -0.8950   73.5252   81.0246 O   0  0  0  0  0  0  0  0  0  0  0  0
    0.7577   71.9417   81.0936 N   0  0  0  0  0  0  0  0  0  0  0  0
    0.0423   71.2376   81.0473 H   0  0  0  0  0  0  0  0  0  0  0  0
    4.8660   75.0288   81.0204 C   0  0  0  0  0  0  0  0  0  0  0  0
    5.5095   74.5916   79.8441 C   0  0  0  0  0  0  0  0  0  0  0  0
    6.8890   74.7349   79.6867 C   0  0  0  0  0  0  0  0  0  0  0  0
    7.6473   75.2966   80.7071 C   0  0  0  0  0  0  0  0  0  0  0  0
    7.0285   75.6867   81.8952 C   0  0  0  0  0  0  0  0  0  0  0  0
    5.6426   75.5434   82.0681 C   0  0  0  0  0  0  0  0  0  0  0  0
    5.0649   75.8342   83.6738 Cl  0  0  0  0  0  0  0  0  0  0  0  0
    2.4364   70.2722   81.1997 N   0  0  0  0  0  0  0  0  0  0  0  0
    3.4540   70.1924   81.1517 H   0  0  0  0  0  0  0  0  0  0  0  0
    1.8517   69.2795   82.1120 C   0  0  0  0  0  0  0  0  0  0  0  0
    2.9515   68.4842   82.8044 C   0  0  0  0  0  0  0  0  0  0  0  0
    1.2475   67.0142   81.4744 N   0  0  0  0  0  0  0  0  0  0  0  0
    0.8970   68.3485   81.3253 C   0  0  0  0  0  0  0  0  0  0  0  0
   -0.0090   68.7892   80.6257 O   0  0  0  0  0  0  0  0  0  0  0  0
    1.9960   66.8431   82.1418 H   0  0  0  0  0  0  0  0  0  0  0  0
   -0.5627   63.5571   79.8587 C   0  0  0  0  0  0  0  0  0  0  0  0
   -0.1319   64.5662   78.9998 C   0  0  0  0  0  0  0  0  0  0  0  0
    0.4718   65.7242   79.5115 C   0  0  0  0  0  0  0  0  0  0  0  0
    0.6501   65.8858   80.8855 C   0  0  0  0  0  0  0  0  0  0  0  0
    0.2181   64.8705   81.7443 C   0  0  0  0  0  0  0  0  0  0  0  0
   -0.3836   63.7166   81.2328 C   0  0  0  0  0  0  0  0  0  0  0  0
   -0.6558   61.7427   78.3277 C   0  0  0  0  0  0  0  0  0  0  0  0
   -1.1625   62.3854   79.4908 O   0  0  0  0  0  0  0  0  0  0  0  0
 33 34  1  0  0  0
 34 27  1  0  0  0
 27 28  1  0  0  0
 28 29  2  0  0  0
 29 30  1  0  0  0
 30 23  1  0  0  0
 23 24  1  0  0  0
 24 25  2  0  0  0
 24 21  1  0  0  0
 21 22  1  0  0  0
 21 19  1  0  0  0
 19  1  1  0  0  0
  1  2  2  0  0  0
  2  3  1  0  0  0
  3  4  2  0  0  0
  4  5  1  0  0  0
  5  6  2  0  0  0
  6  7  1  0  0  0
  7 12  1  0  0  0
 12 13  2  0  0  0
 13 14  1  0  0  0
 14 15  2  0  0  0
 15 16  1  0  0  0
 16 17  2  0  0  0
 17 18  1  0  0  0
  4  8  1  0  0  0
  8  9  2  0  0  0
  8 10  1  0  0  0
 30 31  2  0  0  0
 31 32  1  0  0  0
 32 27  2  0  0  0
 10  1  1  0  0  0
  7  3  1  0  0  0
 17 12  1  0  0  0
 23 26  1  0  0  0
 19 20  1  0  0  0
 10 11  1  0  0  0
M  END
> <minimizedAffinity>
-1.45739

$$$$



 34 37  0  0  0  0  0  0  0  0999 V2000
    0.9974   64.7975   84.8599 C   0  0  0  0  0  0  0  0  0  0  0  0
    0.6528   64.6480   83.6091 N   0  0  0  0  0  0  0  0  0  0  0  0
   -0.2640   63.6696   83.3840 C   0  0  0  0  0  0  0  0  0  0  0  0
   -0.8848   62.9099   84.3450 C   0  0  0  0  0  0  0  0  0  0  0  0
   -1.8425   62.1526   83.6773 C   0  0  0  0  0  0  0  0  0  0  0  0
   -1.8611   62.4139   82.3675 N   0  0  0  0  0  0  0  0  0  0  0  0
   -0.8111   63.2785   82.1670 N   0  0  0  0  0  0  0  0  0  0  0  0
   -0.4971   63.0653   85.7124 C   0  0  0  0  0  0  0  0  0  0  0  0
   -0.9636   62.4202   86.6432 O   0  0  0  0  0  0  0  0  0  0  0  0
    0.4683   64.0383   85.8848 N   0  0  0  0  0  0  0  0  0  0  0  0
    0.7899   64.1530   86.8299 H   0  0  0  0  0  0  0  0  0  0  0  0
   -0.5016   63.7080   80.8485 C   0  0  0  0  0  0  0  0  0  0  0  0
   -0.4839   65.0987   80.6147 C   0  0  0  0  0  0  0  0  0  0  0  0
   -0.1278   65.6106   79.3659 C   0  0  0  0  0  0  0  0  0  0  0  0
    0.1954   64.7432   78.3290 C   0  0  0  0  0  0  0  0  0  0  0  0
    0.1327   63.3647   78.5346 C   0  0  0  0  0  0  0  0  0  0  0  0
   -0.2289   62.8370   79.7844 C   0  0  0  0  0  0  0  0  0  0  0  0
   -0.5047   61.1283   79.8125 Cl  0  0  0  0  0  0  0  0  0  0  0  0
    1.9386   65.7437   85.1454 N   0  0  0  0  0  0  0  0  0  0  0  0
    2.3515   65.5374   86.0571 H   0  0  0  0  0  0  0  0  0  0  0  0
    2.9373   66.2504   84.1939 C   0  0  0  0  0  0  0  0  0  0  0  0
    4.3424   65.8849   84.6563 C   0  0  0  0  0  0  0  0  0  0  0  0
    2.4437   68.1328   82.7393 N   0  0  0  0  0  0  0  0  0  0  0  0
    2.7787   67.7827   84.0396 C   0  0  0  0  0  0  0  0  0  0  0  0
    2.9891   68.5540   84.9698 O   0  0  0  0  0  0  0  0  0  0  0  0
    2.2569   67.3463   82.1218 H   0  0  0  0  0  0  0  0  0  0  0  0
    1.7248   71.9560   81.0945 C   0  0  0  0  0  0  0  0  0  0  0  0
    2.9906   71.6553   81.5938 C   0  0  0  0  0  0  0  0  0  0  0  0
    3.2545   70.3930   82.1455 C   0  0  0  0  0  0  0  0  0  0  0  0
    2.2571   69.4197   82.2046 C   0  0  0  0  0  0  0  0  0  0  0  0
    0.9887   69.7244   81.7012 C   0  0  0  0  0  0  0  0  0  0  0  0
    0.7269   70.9831   81.1515 C   0  0  0  0  0  0  0  0  0  0  0  0
    0.9115   74.1636   81.4258 C   0  0  0  0  0  0  0  0  0  0  0  0
    1.3389   73.1413   80.5342 O   0  0  0  0  0  0  0  0  0  0  0  0
 33 34  1  0  0  0
 34 27  1  0  0  0
 27 28  1  0  0  0
 28 29  2  0  0  0
 29 30  1  0  0  0
 30 23  1  0  0  0
 23 24  1  0  0  0
 24 25  2  0  0  0
 24 21  1  0  0  0
 21 22  1  0  0  0
 21 19  1  0  0  0
 19  1  1  0  0  0
  1  2  2  0  0  0
  2  3  1  0  0  0
  3  4  2  0  0  0
  4  5  1  0  0  0
  5  6  2  0  0  0
  6  7  1  0  0  0
  7 12  1  0  0  0
 12 13  2  0  0  0
 13 14  1  0  0  0
 14 15  2  0  0  0
 15 16  1  0  0  0
 16 17  2  0  0  0
 17 18  1  0  0  0
  4  8  1  0  0  0
  8  9  2  0  0  0
  8 10  1  0  0  0
 30 31  2  0  0  0
 31 32  1  0  0  0
 32 27  2  0  0  0
 10  1  1  0  0  0
  7  3  1  0  0  0
 17 12  1  0  0  0
 23 26  1  0  0  0
 19 20  1  0  0  0
 10 11  1  0  0  0
M  END
> <minimizedAffinity>
-1.42838

$$$$



 34 37  0  0  0  0  0  0  0  0999 V2000
    3.1226   71.5370   81.2528 C   0  0  0  0  0  0  0  0  0  0  0  0
    2.7536   72.7527   81.5552 N   0  0  0  0  0  0  0  0  0  0  0  0
    3.5923   73.7284   81.1160 C   0  0  0  0  0  0  0  0  0  0  0  0
    4.7128   73.5412   80.3441 C   0  0  0  0  0  0  0  0  0  0  0  0
    5.1683   74.8135   80.0124 C   0  0  0  0  0  0  0  0  0  0  0  0
    4.3859   75.7712   80.5174 N   0  0  0  0  0  0  0  0  0  0  0  0
    3.4665   75.1021   81.2903 N   0  0  0  0  0  0  0  0  0  0  0  0
    5.1230   72.2092   80.0250 C   0  0  0  0  0  0  0  0  0  0  0  0
    6.1193   71.9284   79.3702 O   0  0  0  0  0  0  0  0  0  0  0  0
    4.2648   71.2521   80.5310 N   0  0  0  0  0  0  0  0  0  0  0  0
    4.5391   70.3017   80.3545 H   0  0  0  0  0  0  0  0  0  0  0  0
    2.5118   75.8422   82.0383 C   0  0  0  0  0  0  0  0  0  0  0  0
    1.2219   75.9709   81.4828 C   0  0  0  0  0  0  0  0  0  0  0  0
    0.2047   76.6266   82.1783 C   0  0  0  0  0  0  0  0  0  0  0  0
    0.4650   77.1797   83.4266 C   0  0  0  0  0  0  0  0  0  0  0  0
    1.7504   77.1021   83.9637 C   0  0  0  0  0  0  0  0  0  0  0  0
    2.7836   76.4498   83.2722 C   0  0  0  0  0  0  0  0  0  0  0  0
    4.3657   76.6545   83.9441 Cl  0  0  0  0  0  0  0  0  0  0  0  0
    2.3372   70.5119   81.6941 N   0  0  0  0  0  0  0  0  0  0  0  0
    2.0077   70.7276   82.6370 H   0  0  0  0  0  0  0  0  0  0  0  0
    1.3045   69.8391   80.8938 C   0  0  0  0  0  0  0  0  0  0  0  0
   -0.0749   70.3834   81.2437 C   0  0  0  0  0  0  0  0  0  0  0  0
    0.4580   67.6290   80.3442 N   0  0  0  0  0  0  0  0  0  0  0  0
    1.3795   68.3103   81.1266 C   0  0  0  0  0  0  0  0  0  0  0  0
    2.1388   67.8161   81.9535 O   0  0  0  0  0  0  0  0  0  0  0  0
   -0.0453   68.2093   79.6774 H   0  0  0  0  0  0  0  0  0  0  0  0
   -0.3087   63.4848   80.0664 C   0  0  0  0  0  0  0  0  0  0  0  0
   -0.3051   64.0954   81.3190 C   0  0  0  0  0  0  0  0  0  0  0  0
   -0.0527   65.4699   81.4380 C   0  0  0  0  0  0  0  0  0  0  0  0
    0.1992   66.2474   80.3077 C   0  0  0  0  0  0  0  0  0  0  0  0
    0.1933   65.6318   79.0522 C   0  0  0  0  0  0  0  0  0  0  0  0
   -0.0585   64.2614   78.9351 C   0  0  0  0  0  0  0  0  0  0  0  0
   -1.6273   61.8527   78.9519 C   0  0  0  0  0  0  0  0  0  0  0  0
   -0.5392   62.1615   79.8141 O   0  0  0  0  0  0  0  0  0  0  0  0
 33 34  1  0  0  0
 34 27  1  0  0  0
 27 28  1  0  0  0
 28 29  2  0  0  0
 29 30  1  0  0  0
 30 23  1  0  0  0
 23 24  1  0  0  0
 24 25  2  0  0  0
 24 21  1  0  0  0
 21 22  1  0  0  0
 21 19  1  0  0  0
 19  1  1  0  0  0
  1  2  2  0  0  0
  2  3  1  0  0  0
  3  4  2  0  0  0
  4  5  1  0  0  0
  5  6  2  0  0  0
  6  7  1  0  0  0
  7 12  1  0  0  0
 12 13  2  0  0  0
 13 14  1  0  0  0
 14 15  2  0  0  0
 15 16  1  0  0  0
 16 17  2  0  0  0
 17 18  1  0  0  0
  4  8  1  0  0  0
  8  9  2  0  0  0
  8 10  1  0  0  0
 30 31  2  0  0  0
 31 32  1  0  0  0
 32 27  2  0  0  0
 10  1  1  0  0  0
  7  3  1  0  0  0
 17 12  1  0  0  0
 23 26  1  0  0  0
 19 20  1  0  0  0
 10 11  1  0  0  0
M  END
> <minimizedAffinity>
-1.40116

$$$$
