


 35 38  0  0  0  0  0  0  0  0999 V2000
    0.2345   64.1927   83.9652 C   0  0  0  0  0  0  0  0  0  0  0  0
   -0.2637   63.5422   82.8168 C   0  0  0  0  0  0  0  0  0  0  0  0
   -1.1056   62.4259   82.9060 C   0  0  0  0  0  0  0  0  0  0  0  0
   -1.4571   61.9640   84.1767 C   0  0  0  0  0  0  0  0  0  0  0  0
   -0.9733   62.5940   85.3289 C   0  0  0  0  0  0  0  0  0  0  0  0
   -0.1275   63.7073   85.2402 C   0  0  0  0  0  0  0  0  0  0  0  0
    4.1546   67.1402   84.7021 C   0  0  0  0  0  0  0  0  0  0  0  0
    4.5399   68.2833   84.1025 N   0  0  0  0  0  0  0  0  0  0  0  0
    3.5792   68.5070   83.1716 N   0  0  0  0  0  0  0  0  0  0  0  0
    3.6616   69.6659   82.3158 C   0  0  0  0  0  0  0  0  0  0  0  0
    2.6092   67.5549   83.1678 C   0  0  0  0  0  0  0  0  0  0  0  0
    1.4458   67.4033   82.3761 C   0  0  0  0  0  0  0  0  0  0  0  0
    1.0788   68.1600   81.4851 O   0  0  0  0  0  0  0  0  0  0  0  0
    0.7483   66.2712   82.7288 N   0  0  0  0  0  0  0  0  0  0  0  0
    1.1316   65.3832   83.7292 C   0  0  0  0  0  0  0  0  0  0  0  0
    2.2083   65.5333   84.4545 N   0  0  0  0  0  0  0  0  0  0  0  0
    2.9561   66.6691   84.1420 C   0  0  0  0  0  0  0  0  0  0  0  0
   -0.0963   66.0937   82.2011 H   0  0  0  0  0  0  0  0  0  0  0  0
    4.9598   66.5447   85.8051 C   0  0  0  0  0  0  0  0  0  0  0  0
    7.3715   65.9105   85.2823 C   0  0  0  0  0  0  0  0  0  0  0  0
    6.4256   66.9849   85.8010 C   0  0  0  0  0  0  0  0  0  0  0  0
   -1.6118   61.7881   81.6834 C   0  0  0  0  0  0  0  0  0  0  0  0
   -2.8502   61.2163   81.4597 C   0  0  0  0  0  0  0  0  0  0  0  0
   -2.9888   60.7108   80.1349 C   0  0  0  0  0  0  0  0  0  0  0  0
   -1.8584   60.9162   79.3674 C   0  0  0  0  0  0  0  0  0  0  0  0
   -0.6436   61.7181   80.2687 S   0  0  0  0  0  0  0  0  0  0  0  0
   -1.6709   60.5266   77.9786 C   0  0  0  0  0  0  0  0  0  0  0  0
   -1.5326   61.3340   77.0570 O   0  0  0  0  0  0  0  0  0  0  0  0
   -1.6229   59.1733   77.7181 N   0  0  0  0  0  0  0  0  0  0  0  0
   -1.2494   58.7931   76.4080 O   0  0  0  0  0  0  0  0  0  0  0  0
   -1.4905   58.4889   78.4544 H   0  0  0  0  0  0  0  0  0  0  0  0
   -1.1533   59.6606   75.9561 H   0  0  0  0  0  0  0  0  0  0  0  0
    0.3720   64.3595   86.3394 O   0  0  0  0  0  0  0  0  0  0  0  0
    0.7892   63.5795   87.4621 C   0  0  0  0  0  0  0  0  0  0  0  0
   -0.2996   63.6680   88.5165 C   0  0  0  0  0  0  0  0  0  0  0  0
 20 21  1  0  0  0
 21 19  1  0  0  0
 19  7  1  0  0  0
  7  8  2  0  0  0
  8  9  1  0  0  0
  9 10  1  0  0  0
  9 11  1  0  0  0
 11 12  1  0  0  0
 12 13  2  0  0  0
 12 14  1  0  0  0
 14 15  1  0  0  0
 15  1  1  0  0  0
  1  2  1  0  0  0
  2  3  2  0  0  0
  3 22  1  0  0  0
 22 23  2  0  0  0
 23 24  1  0  0  0
 24 25  2  0  0  0
 25 27  1  0  0  0
 27 28  2  0  0  0
 27 29  1  0  0  0
 29 30  1  0  0  0
 25 26  1  0  0  0
  3  4  1  0  0  0
  4  5  2  0  0  0
  5  6  1  0  0  0
  6 33  1  0  0  0
 33 34  1  0  0  0
 34 35  1  0  0  0
 15 16  2  0  0  0
 16 17  1  0  0  0
 17  7  1  0  0  0
 17 11  2  0  0  0
  6  1  2  0  0  0
 26 22  1  0  0  0
 14 18  1  0  0  0
 29 31  1  0  0  0
 30 32  1  0  0  0
M  END
> <minimizedAffinity>
-1.68087

$$$$



 35 38  0  0  0  0  0  0  0  0999 V2000
    0.1714   64.0230   84.3912 C   0  0  0  0  0  0  0  0  0  0  0  0
   -0.2644   63.4559   83.1752 C   0  0  0  0  0  0  0  0  0  0  0  0
   -1.2782   62.4899   83.1313 C   0  0  0  0  0  0  0  0  0  0  0  0
   -1.8678   62.0964   84.3350 C   0  0  0  0  0  0  0  0  0  0  0  0
   -1.4499   62.6457   85.5524 C   0  0  0  0  0  0  0  0  0  0  0  0
   -0.4329   63.6080   85.5975 C   0  0  0  0  0  0  0  0  0  0  0  0
    2.4367   68.1083   82.7250 C   0  0  0  0  0  0  0  0  0  0  0  0
    3.6210   68.6670   83.0413 N   0  0  0  0  0  0  0  0  0  0  0  0
    4.1329   67.8404   83.9870 N   0  0  0  0  0  0  0  0  0  0  0  0
    5.4181   68.1290   84.5763 C   0  0  0  0  0  0  0  0  0  0  0  0
    3.3208   66.7882   84.2709 C   0  0  0  0  0  0  0  0  0  0  0  0
    3.4641   65.7093   85.1756 C   0  0  0  0  0  0  0  0  0  0  0  0
    4.4174   65.5177   85.9211 O   0  0  0  0  0  0  0  0  0  0  0  0
    2.3753   64.8699   85.1251 N   0  0  0  0  0  0  0  0  0  0  0  0
    1.2709   65.0527   84.2984 C   0  0  0  0  0  0  0  0  0  0  0  0
    1.1492   66.0530   83.4664 N   0  0  0  0  0  0  0  0  0  0  0  0
    2.2280   66.9380   83.4725 C   0  0  0  0  0  0  0  0  0  0  0  0
    2.4045   64.0749   85.7499 H   0  0  0  0  0  0  0  0  0  0  0  0
    1.5476   68.7258   81.7014 C   0  0  0  0  0  0  0  0  0  0  0  0
    2.0604   71.0797   80.8718 C   0  0  0  0  0  0  0  0  0  0  0  0
    1.3320   70.2277   81.9021 C   0  0  0  0  0  0  0  0  0  0  0  0
   -1.7096   61.9361   81.8409 C   0  0  0  0  0  0  0  0  0  0  0  0
   -2.9598   61.4714   81.4779 C   0  0  0  0  0  0  0  0  0  0  0  0
   -3.0066   61.0241   80.1260 C   0  0  0  0  0  0  0  0  0  0  0  0
   -1.7948   61.1662   79.4777 C   0  0  0  0  0  0  0  0  0  0  0  0
   -0.6166   61.8388   80.5220 S   0  0  0  0  0  0  0  0  0  0  0  0
   -1.5031   60.8109   78.0976 C   0  0  0  0  0  0  0  0  0  0  0  0
   -0.8950   61.5478   77.3182 O   0  0  0  0  0  0  0  0  0  0  0  0
   -1.9195   59.5645   77.6798 N   0  0  0  0  0  0  0  0  0  0  0  0
   -1.4710   59.1403   76.4072 O   0  0  0  0  0  0  0  0  0  0  0  0
   -2.2002   58.8441   78.3357 H   0  0  0  0  0  0  0  0  0  0  0  0
   -0.9694   59.9232   76.0888 H   0  0  0  0  0  0  0  0  0  0  0  0
    0.0110   64.1766   86.7648 O   0  0  0  0  0  0  0  0  0  0  0  0
   -0.5011   63.6775   88.0024 C   0  0  0  0  0  0  0  0  0  0  0  0
    0.6241   62.9375   88.7034 C   0  0  0  0  0  0  0  0  0  0  0  0
 20 21  1  0  0  0
 21 19  1  0  0  0
 19  7  1  0  0  0
  7  8  2  0  0  0
  8  9  1  0  0  0
  9 10  1  0  0  0
  9 11  1  0  0  0
 11 12  1  0  0  0
 12 13  2  0  0  0
 12 14  1  0  0  0
 14 15  1  0  0  0
 15  1  1  0  0  0
  1  2  1  0  0  0
  2  3  2  0  0  0
  3 22  1  0  0  0
 22 23  2  0  0  0
 23 24  1  0  0  0
 24 25  2  0  0  0
 25 27  1  0  0  0
 27 28  2  0  0  0
 27 29  1  0  0  0
 29 30  1  0  0  0
 25 26  1  0  0  0
  3  4  1  0  0  0
  4  5  2  0  0  0
  5  6  1  0  0  0
  6 33  1  0  0  0
 33 34  1  0  0  0
 34 35  1  0  0  0
 15 16  2  0  0  0
 16 17  1  0  0  0
 17  7  1  0  0  0
 17 11  2  0  0  0
  6  1  2  0  0  0
 26 22  1  0  0  0
 14 18  1  0  0  0
 29 31  1  0  0  0
 30 32  1  0  0  0
M  END
> <minimizedAffinity>
-1.56195

$$$$



 35 38  0  0  0  0  0  0  0  0999 V2000
    3.2644   72.4062   81.3255 C   0  0  0  0  0  0  0  0  0  0  0  0
    2.4759   73.3953   81.9500 C   0  0  0  0  0  0  0  0  0  0  0  0
    2.7665   74.7602   81.8254 C   0  0  0  0  0  0  0  0  0  0  0  0
    3.8671   75.1328   81.0500 C   0  0  0  0  0  0  0  0  0  0  0  0
    4.6630   74.1677   80.4226 C   0  0  0  0  0  0  0  0  0  0  0  0
    4.3759   72.8026   80.5508 C   0  0  0  0  0  0  0  0  0  0  0  0
    3.2557   67.9550   83.5126 C   0  0  0  0  0  0  0  0  0  0  0  0
    2.5570   66.8325   83.2545 N   0  0  0  0  0  0  0  0  0  0  0  0
    1.7804   67.1646   82.1933 N   0  0  0  0  0  0  0  0  0  0  0  0
    0.8759   66.1914   81.6303 C   0  0  0  0  0  0  0  0  0  0  0  0
    1.9678   68.4445   81.7760 C   0  0  0  0  0  0  0  0  0  0  0  0
    1.3756   69.1855   80.7256 C   0  0  0  0  0  0  0  0  0  0  0  0
    0.5233   68.7744   79.9471 O   0  0  0  0  0  0  0  0  0  0  0  0
    1.8793   70.4646   80.6738 N   0  0  0  0  0  0  0  0  0  0  0  0
    2.8422   70.9732   81.5402 C   0  0  0  0  0  0  0  0  0  0  0  0
    3.3826   70.2796   82.5069 N   0  0  0  0  0  0  0  0  0  0  0  0
    2.9106   68.9703   82.6060 C   0  0  0  0  0  0  0  0  0  0  0  0
    1.4985   71.0574   79.9480 H   0  0  0  0  0  0  0  0  0  0  0  0
    4.2417   68.0038   84.6284 C   0  0  0  0  0  0  0  0  0  0  0  0
    5.9182   66.6069   85.9437 C   0  0  0  0  0  0  0  0  0  0  0  0
    5.2644   66.8657   84.5933 C   0  0  0  0  0  0  0  0  0  0  0  0
    1.9099   75.7565   82.4824 C   0  0  0  0  0  0  0  0  0  0  0  0
    2.2260   76.6146   83.5188 C   0  0  0  0  0  0  0  0  0  0  0  0
    1.1372   77.4584   83.8826 C   0  0  0  0  0  0  0  0  0  0  0  0
    0.0134   77.2378   83.1098 C   0  0  0  0  0  0  0  0  0  0  0  0
    0.2965   76.0063   81.9547 S   0  0  0  0  0  0  0  0  0  0  0  0
   -1.2623   77.9284   83.2178 C   0  0  0  0  0  0  0  0  0  0  0  0
   -1.6033   78.5787   84.2083 O   0  0  0  0  0  0  0  0  0  0  0  0
   -2.0994   77.8535   82.1246 N   0  0  0  0  0  0  0  0  0  0  0  0
   -3.2485   78.6778   82.1489 O   0  0  0  0  0  0  0  0  0  0  0  0
   -1.7711   77.5433   81.2169 H   0  0  0  0  0  0  0  0  0  0  0  0
   -3.1854   79.1013   83.0335 H   0  0  0  0  0  0  0  0  0  0  0  0
    5.1248   71.8191   79.9551 O   0  0  0  0  0  0  0  0  0  0  0  0
    6.4216   72.1580   79.4588 C   0  0  0  0  0  0  0  0  0  0  0  0
    6.3979   71.9883   77.9502 C   0  0  0  0  0  0  0  0  0  0  0  0
 20 21  1  0  0  0
 21 19  1  0  0  0
 19  7  1  0  0  0
  7  8  2  0  0  0
  8  9  1  0  0  0
  9 10  1  0  0  0
  9 11  1  0  0  0
 11 12  1  0  0  0
 12 13  2  0  0  0
 12 14  1  0  0  0
 14 15  1  0  0  0
 15  1  1  0  0  0
  1  2  1  0  0  0
  2  3  2  0  0  0
  3 22  1  0  0  0
 22 23  2  0  0  0
 23 24  1  0  0  0
 24 25  2  0  0  0
 25 27  1  0  0  0
 27 28  2  0  0  0
 27 29  1  0  0  0
 29 30  1  0  0  0
 25 26  1  0  0  0
  3  4  1  0  0  0
  4  5  2  0  0  0
  5  6  1  0  0  0
  6 33  1  0  0  0
 33 34  1  0  0  0
 34 35  1  0  0  0
 15 16  2  0  0  0
 16 17  1  0  0  0
 17  7  1  0  0  0
 17 11  2  0  0  0
  6  1  2  0  0  0
 26 22  1  0  0  0
 14 18  1  0  0  0
 29 31  1  0  0  0
 30 32  1  0  0  0
M  END
> <minimizedAffinity>
-1.54989

$$$$



 35 38  0  0  0  0  0  0  0  0999 V2000
    2.6932   73.9843   81.6103 C   0  0  0  0  0  0  0  0  0  0  0  0
    2.7726   72.5779   81.6877 C   0  0  0  0  0  0  0  0  0  0  0  0
    1.6314   71.7681   81.6183 C   0  0  0  0  0  0  0  0  0  0  0  0
    0.3900   72.3887   81.4595 C   0  0  0  0  0  0  0  0  0  0  0  0
    0.2889   73.7823   81.3814 C   0  0  0  0  0  0  0  0  0  0  0  0
    1.4291   74.5929   81.4557 C   0  0  0  0  0  0  0  0  0  0  0  0
    6.9820   75.8450   79.9547 C   0  0  0  0  0  0  0  0  0  0  0  0
    7.9367   76.5732   80.5655 N   0  0  0  0  0  0  0  0  0  0  0  0
    7.4749   76.7258   81.8316 N   0  0  0  0  0  0  0  0  0  0  0  0
    8.2479   77.4718   82.7950 C   0  0  0  0  0  0  0  0  0  0  0  0
    6.2756   76.1206   82.0377 C   0  0  0  0  0  0  0  0  0  0  0  0
    5.4533   76.0333   83.1864 C   0  0  0  0  0  0  0  0  0  0  0  0
    5.6941   76.5259   84.2822 O   0  0  0  0  0  0  0  0  0  0  0  0
    4.3123   75.3097   82.9275 N   0  0  0  0  0  0  0  0  0  0  0  0
    3.9976   74.7384   81.6982 C   0  0  0  0  0  0  0  0  0  0  0  0
    4.7647   74.8253   80.6439 N   0  0  0  0  0  0  0  0  0  0  0  0
    5.9407   75.5478   80.8487 C   0  0  0  0  0  0  0  0  0  0  0  0
    3.6713   75.2081   83.7034 H   0  0  0  0  0  0  0  0  0  0  0  0
    7.1148   75.4551   78.5229 C   0  0  0  0  0  0  0  0  0  0  0  0
    6.9977   73.4401   76.9678 C   0  0  0  0  0  0  0  0  0  0  0  0
    7.4513   73.9760   78.3188 C   0  0  0  0  0  0  0  0  0  0  0  0
    1.7624   70.3067   81.6898 C   0  0  0  0  0  0  0  0  0  0  0  0
    2.6982   69.5586   82.3793 C   0  0  0  0  0  0  0  0  0  0  0  0
    2.4976   68.1562   82.2279 C   0  0  0  0  0  0  0  0  0  0  0  0
    1.4057   67.8587   81.4354 C   0  0  0  0  0  0  0  0  0  0  0  0
    0.6412   69.2880   80.8844 S   0  0  0  0  0  0  0  0  0  0  0  0
    0.9249   66.5313   81.0849 C   0  0  0  0  0  0  0  0  0  0  0  0
    0.8443   65.6011   81.8902 O   0  0  0  0  0  0  0  0  0  0  0  0
    0.5199   66.3461   79.7798 N   0  0  0  0  0  0  0  0  0  0  0  0
   -0.1255   65.1227   79.4843 O   0  0  0  0  0  0  0  0  0  0  0  0
    0.3418   67.1259   79.1568 H   0  0  0  0  0  0  0  0  0  0  0  0
   -0.0807   64.6478   80.3436 H   0  0  0  0  0  0  0  0  0  0  0  0
    1.3821   75.9624   81.3833 O   0  0  0  0  0  0  0  0  0  0  0  0
    0.3056   76.6415   82.0336 C   0  0  0  0  0  0  0  0  0  0  0  0
    0.6005   78.1300   81.9830 C   0  0  0  0  0  0  0  0  0  0  0  0
 20 21  1  0  0  0
 21 19  1  0  0  0
 19  7  1  0  0  0
  7  8  2  0  0  0
  8  9  1  0  0  0
  9 10  1  0  0  0
  9 11  1  0  0  0
 11 12  1  0  0  0
 12 13  2  0  0  0
 12 14  1  0  0  0
 14 15  1  0  0  0
 15  1  1  0  0  0
  1  2  1  0  0  0
  2  3  2  0  0  0
  3 22  1  0  0  0
 22 23  2  0  0  0
 23 24  1  0  0  0
 24 25  2  0  0  0
 25 27  1  0  0  0
 27 28  2  0  0  0
 27 29  1  0  0  0
 29 30  1  0  0  0
 25 26  1  0  0  0
  3  4  1  0  0  0
  4  5  2  0  0  0
  5  6  1  0  0  0
  6 33  1  0  0  0
 33 34  1  0  0  0
 34 35  1  0  0  0
 15 16  2  0  0  0
 16 17  1  0  0  0
 17  7  1  0  0  0
 17 11  2  0  0  0
  6  1  2  0  0  0
 26 22  1  0  0  0
 14 18  1  0  0  0
 29 31  1  0  0  0
 30 32  1  0  0  0
M  END
> <minimizedAffinity>
-1.49252

$$$$



 35 38  0  0  0  0  0  0  0  0999 V2000
    1.2555   68.1385   81.7024 C   0  0  0  0  0  0  0  0  0  0  0  0
    0.6698   67.3054   80.7261 C   0  0  0  0  0  0  0  0  0  0  0  0
    0.6397   65.9116   80.8652 C   0  0  0  0  0  0  0  0  0  0  0  0
    1.2029   65.3504   82.0138 C   0  0  0  0  0  0  0  0  0  0  0  0
    1.7897   66.1586   82.9941 C   0  0  0  0  0  0  0  0  0  0  0  0
    1.8246   67.5520   82.8533 C   0  0  0  0  0  0  0  0  0  0  0  0
    3.1324   72.6017   80.6281 C   0  0  0  0  0  0  0  0  0  0  0  0
    2.5474   73.8057   80.4769 N   0  0  0  0  0  0  0  0  0  0  0  0
    1.2300   73.5604   80.6866 N   0  0  0  0  0  0  0  0  0  0  0  0
    0.2743   74.6382   80.6010 C   0  0  0  0  0  0  0  0  0  0  0  0
    0.9690   72.2562   80.9662 C   0  0  0  0  0  0  0  0  0  0  0  0
   -0.2430   71.5803   81.2443 C   0  0  0  0  0  0  0  0  0  0  0  0
   -1.3571   72.0887   81.2846 O   0  0  0  0  0  0  0  0  0  0  0  0
   -0.0248   70.2410   81.4711 N   0  0  0  0  0  0  0  0  0  0  0  0
    1.2211   69.6226   81.4300 C   0  0  0  0  0  0  0  0  0  0  0  0
    2.3342   70.2569   81.1722 N   0  0  0  0  0  0  0  0  0  0  0  0
    2.1739   71.6227   80.9359 C   0  0  0  0  0  0  0  0  0  0  0  0
   -0.8487   69.6900   81.6730 H   0  0  0  0  0  0  0  0  0  0  0  0
    4.6057   72.4414   80.4750 C   0  0  0  0  0  0  0  0  0  0  0  0
    6.0423   73.6837   78.7765 C   0  0  0  0  0  0  0  0  0  0  0  0
    5.3305   73.7421   80.1212 C   0  0  0  0  0  0  0  0  0  0  0  0
    0.0072   65.0837   79.8296 C   0  0  0  0  0  0  0  0  0  0  0  0
   -0.1434   65.3554   78.4828 C   0  0  0  0  0  0  0  0  0  0  0  0
   -0.7951   64.3007   77.7808 C   0  0  0  0  0  0  0  0  0  0  0  0
   -1.1197   63.2379   78.6017 C   0  0  0  0  0  0  0  0  0  0  0  0
   -0.6301   63.5380   80.2146 S   0  0  0  0  0  0  0  0  0  0  0  0
   -1.7851   62.0071   78.2041 C   0  0  0  0  0  0  0  0  0  0  0  0
   -2.7556   61.5340   78.7997 O   0  0  0  0  0  0  0  0  0  0  0  0
   -1.2955   61.3758   77.0801 N   0  0  0  0  0  0  0  0  0  0  0  0
   -2.0550   60.2922   76.5805 O   0  0  0  0  0  0  0  0  0  0  0  0
   -0.6713   61.8419   76.4313 H   0  0  0  0  0  0  0  0  0  0  0  0
   -2.7803   60.2215   77.2399 H   0  0  0  0  0  0  0  0  0  0  0  0
    2.3871   68.3865   83.7860 O   0  0  0  0  0  0  0  0  0  0  0  0
    3.8125   68.4686   83.8538 C   0  0  0  0  0  0  0  0  0  0  0  0
    4.2596   67.7239   85.0990 C   0  0  0  0  0  0  0  0  0  0  0  0
 20 21  1  0  0  0
 21 19  1  0  0  0
 19  7  1  0  0  0
  7  8  2  0  0  0
  8  9  1  0  0  0
  9 10  1  0  0  0
  9 11  1  0  0  0
 11 12  1  0  0  0
 12 13  2  0  0  0
 12 14  1  0  0  0
 14 15  1  0  0  0
 15  1  1  0  0  0
  1  2  1  0  0  0
  2  3  2  0  0  0
  3 22  1  0  0  0
 22 23  2  0  0  0
 23 24  1  0  0  0
 24 25  2  0  0  0
 25 27  1  0  0  0
 27 28  2  0  0  0
 27 29  1  0  0  0
 29 30  1  0  0  0
 25 26  1  0  0  0
  3  4  1  0  0  0
  4  5  2  0  0  0
  5  6  1  0  0  0
  6 33  1  0  0  0
 33 34  1  0  0  0
 34 35  1  0  0  0
 15 16  2  0  0  0
 16 17  1  0  0  0
 17  7  1  0  0  0
 17 11  2  0  0  0
  6  1  2  0  0  0
 26 22  1  0  0  0
 14 18  1  0  0  0
 29 31  1  0  0  0
 30 32  1  0  0  0
M  END
> <minimizedAffinity>
-1.48542

$$$$



 35 38  0  0  0  0  0  0  0  0999 V2000
    2.0407   67.5142   82.9383 C   0  0  0  0  0  0  0  0  0  0  0  0
    1.3729   68.6285   82.3884 C   0  0  0  0  0  0  0  0  0  0  0  0
    1.9797   69.8887   82.3083 C   0  0  0  0  0  0  0  0  0  0  0  0
    3.2862   70.0238   82.7839 C   0  0  0  0  0  0  0  0  0  0  0  0
    3.9665   68.9315   83.3340 C   0  0  0  0  0  0  0  0  0  0  0  0
    3.3585   67.6723   83.4188 C   0  0  0  0  0  0  0  0  0  0  0  0
   -0.3743   63.6281   81.0243 C   0  0  0  0  0  0  0  0  0  0  0  0
   -0.9646   62.5663   81.6063 N   0  0  0  0  0  0  0  0  0  0  0  0
   -0.7612   62.7625   82.9329 N   0  0  0  0  0  0  0  0  0  0  0  0
   -1.2616   61.8033   83.8877 C   0  0  0  0  0  0  0  0  0  0  0  0
   -0.0732   63.9030   83.2033 C   0  0  0  0  0  0  0  0  0  0  0  0
    0.3464   64.4785   84.4264 C   0  0  0  0  0  0  0  0  0  0  0  0
    0.1502   64.0154   85.5437 O   0  0  0  0  0  0  0  0  0  0  0  0
    1.0246   65.6566   84.2149 N   0  0  0  0  0  0  0  0  0  0  0  0
    1.2737   66.2146   82.9648 C   0  0  0  0  0  0  0  0  0  0  0  0
    0.8813   65.6744   81.8414 N   0  0  0  0  0  0  0  0  0  0  0  0
    0.1841   64.4755   81.9949 C   0  0  0  0  0  0  0  0  0  0  0  0
    1.3603   66.1252   85.0462 H   0  0  0  0  0  0  0  0  0  0  0  0
   -0.3770   63.7895   79.5432 C   0  0  0  0  0  0  0  0  0  0  0  0
   -1.6403   62.1672   78.0385 C   0  0  0  0  0  0  0  0  0  0  0  0
   -0.3447   62.4622   78.7818 C   0  0  0  0  0  0  0  0  0  0  0  0
    1.2513   71.0183   81.7154 C   0  0  0  0  0  0  0  0  0  0  0  0
    0.0526   71.0041   81.0274 C   0  0  0  0  0  0  0  0  0  0  0  0
   -0.3575   72.3047   80.6149 C   0  0  0  0  0  0  0  0  0  0  0  0
    0.5292   73.2897   81.0055 C   0  0  0  0  0  0  0  0  0  0  0  0
    1.8490   72.6195   81.8657 S   0  0  0  0  0  0  0  0  0  0  0  0
    0.4079   74.7164   80.7494 C   0  0  0  0  0  0  0  0  0  0  0  0
   -0.1923   75.1862   79.7802 O   0  0  0  0  0  0  0  0  0  0  0  0
    0.9836   75.5609   81.6752 N   0  0  0  0  0  0  0  0  0  0  0  0
    0.7034   76.9402   81.5349 O   0  0  0  0  0  0  0  0  0  0  0  0
    1.2697   75.2375   82.5924 H   0  0  0  0  0  0  0  0  0  0  0  0
    0.1599   76.9627   80.7164 H   0  0  0  0  0  0  0  0  0  0  0  0
    3.9835   66.5715   83.9484 O   0  0  0  0  0  0  0  0  0  0  0  0
    5.2116   66.7605   84.6550 C   0  0  0  0  0  0  0  0  0  0  0  0
    5.0985   66.0309   85.9816 C   0  0  0  0  0  0  0  0  0  0  0  0
 20 21  1  0  0  0
 21 19  1  0  0  0
 19  7  1  0  0  0
  7  8  2  0  0  0
  8  9  1  0  0  0
  9 10  1  0  0  0
  9 11  1  0  0  0
 11 12  1  0  0  0
 12 13  2  0  0  0
 12 14  1  0  0  0
 14 15  1  0  0  0
 15  1  1  0  0  0
  1  2  1  0  0  0
  2  3  2  0  0  0
  3 22  1  0  0  0
 22 23  2  0  0  0
 23 24  1  0  0  0
 24 25  2  0  0  0
 25 27  1  0  0  0
 27 28  2  0  0  0
 27 29  1  0  0  0
 29 30  1  0  0  0
 25 26  1  0  0  0
  3  4  1  0  0  0
  4  5  2  0  0  0
  5  6  1  0  0  0
  6 33  1  0  0  0
 33 34  1  0  0  0
 34 35  1  0  0  0
 15 16  2  0  0  0
 16 17  1  0  0  0
 17  7  1  0  0  0
 17 11  2  0  0  0
  6  1  2  0  0  0
 26 22  1  0  0  0
 14 18  1  0  0  0
 29 31  1  0  0  0
 30 32  1  0  0  0
M  END
> <minimizedAffinity>
-1.47174

$$$$



 35 38  0  0  0  0  0  0  0  0999 V2000
    3.2731   73.7576   81.1719 C   0  0  0  0  0  0  0  0  0  0  0  0
    3.2403   72.3542   81.3114 C   0  0  0  0  0  0  0  0  0  0  0  0
    2.0608   71.6706   81.6344 C   0  0  0  0  0  0  0  0  0  0  0  0
    0.8929   72.4163   81.8112 C   0  0  0  0  0  0  0  0  0  0  0  0
    0.9035   73.8095   81.6783 C   0  0  0  0  0  0  0  0  0  0  0  0
    2.0836   74.4940   81.3602 C   0  0  0  0  0  0  0  0  0  0  0  0
    7.5381   76.1415   82.0230 C   0  0  0  0  0  0  0  0  0  0  0  0
    8.5516   76.4824   81.2037 N   0  0  0  0  0  0  0  0  0  0  0  0
    8.1671   76.0124   79.9910 N   0  0  0  0  0  0  0  0  0  0  0  0
    9.0233   76.1940   78.8438 C   0  0  0  0  0  0  0  0  0  0  0  0
    6.9555   75.3970   80.0179 C   0  0  0  0  0  0  0  0  0  0  0  0
    6.1947   74.7772   78.9980 C   0  0  0  0  0  0  0  0  0  0  0  0
    6.5176   74.6765   77.8204 O   0  0  0  0  0  0  0  0  0  0  0  0
    5.0107   74.2810   79.4927 N   0  0  0  0  0  0  0  0  0  0  0  0
    4.6079   74.3688   80.8218 C   0  0  0  0  0  0  0  0  0  0  0  0
    5.3188   74.9438   81.7555 N   0  0  0  0  0  0  0  0  0  0  0  0
    6.5322   75.4692   81.3101 C   0  0  0  0  0  0  0  0  0  0  0  0
    4.4135   73.8182   78.8201 H   0  0  0  0  0  0  0  0  0  0  0  0
    7.5757   76.4857   83.4721 C   0  0  0  0  0  0  0  0  0  0  0  0
    6.6109   78.6784   84.3399 C   0  0  0  0  0  0  0  0  0  0  0  0
    7.8204   77.9720   83.7432 C   0  0  0  0  0  0  0  0  0  0  0  0
    2.0701   70.2067   81.7564 C   0  0  0  0  0  0  0  0  0  0  0  0
    2.8281   69.4178   82.6012 C   0  0  0  0  0  0  0  0  0  0  0  0
    2.5503   68.0287   82.4493 C   0  0  0  0  0  0  0  0  0  0  0  0
    1.5770   67.7828   81.4999 C   0  0  0  0  0  0  0  0  0  0  0  0
    1.0165   69.2434   80.8048 S   0  0  0  0  0  0  0  0  0  0  0  0
    1.0599   66.4817   81.1055 C   0  0  0  0  0  0  0  0  0  0  0  0
    0.9498   65.5287   81.8802 O   0  0  0  0  0  0  0  0  0  0  0  0
    0.6548   66.3500   79.7940 N   0  0  0  0  0  0  0  0  0  0  0  0
   -0.0241   65.1557   79.4574 O   0  0  0  0  0  0  0  0  0  0  0  0
    0.5014   67.1542   79.1959 H   0  0  0  0  0  0  0  0  0  0  0  0
    0.0039   64.6525   80.3011 H   0  0  0  0  0  0  0  0  0  0  0  0
    2.1452   75.8574   81.2183 O   0  0  0  0  0  0  0  0  0  0  0  0
    1.1124   76.6502   81.8081 C   0  0  0  0  0  0  0  0  0  0  0  0
    1.6532   77.2223   83.1062 C   0  0  0  0  0  0  0  0  0  0  0  0
 20 21  1  0  0  0
 21 19  1  0  0  0
 19  7  1  0  0  0
  7  8  2  0  0  0
  8  9  1  0  0  0
  9 10  1  0  0  0
  9 11  1  0  0  0
 11 12  1  0  0  0
 12 13  2  0  0  0
 12 14  1  0  0  0
 14 15  1  0  0  0
 15  1  1  0  0  0
  1  2  1  0  0  0
  2  3  2  0  0  0
  3 22  1  0  0  0
 22 23  2  0  0  0
 23 24  1  0  0  0
 24 25  2  0  0  0
 25 27  1  0  0  0
 27 28  2  0  0  0
 27 29  1  0  0  0
 29 30  1  0  0  0
 25 26  1  0  0  0
  3  4  1  0  0  0
  4  5  2  0  0  0
  5  6  1  0  0  0
  6 33  1  0  0  0
 33 34  1  0  0  0
 34 35  1  0  0  0
 15 16  2  0  0  0
 16 17  1  0  0  0
 17  7  1  0  0  0
 17 11  2  0  0  0
  6  1  2  0  0  0
 26 22  1  0  0  0
 14 18  1  0  0  0
 29 31  1  0  0  0
 30 32  1  0  0  0
M  END
> <minimizedAffinity>
-1.46330

$$$$



 35 38  0  0  0  0  0  0  0  0999 V2000
    2.4228   66.7169   83.8657 C   0  0  0  0  0  0  0  0  0  0  0  0
    1.9550   67.8702   83.2015 C   0  0  0  0  0  0  0  0  0  0  0  0
    2.7749   68.9870   82.9928 C   0  0  0  0  0  0  0  0  0  0  0  0
    4.0920   68.9347   83.4551 C   0  0  0  0  0  0  0  0  0  0  0  0
    4.5760   67.8007   84.1173 C   0  0  0  0  0  0  0  0  0  0  0  0
    3.7552   66.6856   84.3306 C   0  0  0  0  0  0  0  0  0  0  0  0
   -0.5594   63.0493   82.3651 C   0  0  0  0  0  0  0  0  0  0  0  0
   -1.3523   62.2033   83.0509 N   0  0  0  0  0  0  0  0  0  0  0  0
   -1.1733   62.5617   84.3467 N   0  0  0  0  0  0  0  0  0  0  0  0
   -1.8753   61.8571   85.3922 C   0  0  0  0  0  0  0  0  0  0  0  0
   -0.3063   63.5973   84.4981 C   0  0  0  0  0  0  0  0  0  0  0  0
    0.1568   64.2728   85.6524 C   0  0  0  0  0  0  0  0  0  0  0  0
   -0.1651   64.0248   86.8084 O   0  0  0  0  0  0  0  0  0  0  0  0
    1.0410   65.2735   85.3219 N   0  0  0  0  0  0  0  0  0  0  0  0
    1.4374   65.5849   84.0248 C   0  0  0  0  0  0  0  0  0  0  0  0
    1.0031   64.9543   82.9658 N   0  0  0  0  0  0  0  0  0  0  0  0
    0.0988   63.9278   83.2408 C   0  0  0  0  0  0  0  0  0  0  0  0
    1.4192   65.7995   86.0988 H   0  0  0  0  0  0  0  0  0  0  0  0
   -0.4712   62.9817   80.8794 C   0  0  0  0  0  0  0  0  0  0  0  0
   -1.2139   61.7880   78.7544 C   0  0  0  0  0  0  0  0  0  0  0  0
   -1.4112   61.9474   80.2557 C   0  0  0  0  0  0  0  0  0  0  0  0
    2.2496   70.1616   82.2841 C   0  0  0  0  0  0  0  0  0  0  0  0
    1.1666   70.2382   81.4287 C   0  0  0  0  0  0  0  0  0  0  0  0
    0.9450   71.5590   80.9425 C   0  0  0  0  0  0  0  0  0  0  0  0
    1.8552   72.4691   81.4446 C   0  0  0  0  0  0  0  0  0  0  0  0
    2.9680   71.7050   82.4976 S   0  0  0  0  0  0  0  0  0  0  0  0
    1.9076   73.8933   81.1536 C   0  0  0  0  0  0  0  0  0  0  0  0
    2.9487   74.4956   80.8821 O   0  0  0  0  0  0  0  0  0  0  0  0
    0.7061   74.5700   81.1636 N   0  0  0  0  0  0  0  0  0  0  0  0
    0.7264   75.9042   80.6944 O   0  0  0  0  0  0  0  0  0  0  0  0
   -0.1839   74.0849   81.1415 H   0  0  0  0  0  0  0  0  0  0  0  0
    1.6802   76.0463   80.5047 H   0  0  0  0  0  0  0  0  0  0  0  0
    4.1829   65.5511   84.9731 O   0  0  0  0  0  0  0  0  0  0  0  0
    5.5101   65.5287   85.5033 C   0  0  0  0  0  0  0  0  0  0  0  0
    5.4095   65.7017   87.0082 C   0  0  0  0  0  0  0  0  0  0  0  0
 20 21  1  0  0  0
 21 19  1  0  0  0
 19  7  1  0  0  0
  7  8  2  0  0  0
  8  9  1  0  0  0
  9 10  1  0  0  0
  9 11  1  0  0  0
 11 12  1  0  0  0
 12 13  2  0  0  0
 12 14  1  0  0  0
 14 15  1  0  0  0
 15  1  1  0  0  0
  1  2  1  0  0  0
  2  3  2  0  0  0
  3 22  1  0  0  0
 22 23  2  0  0  0
 23 24  1  0  0  0
 24 25  2  0  0  0
 25 27  1  0  0  0
 27 28  2  0  0  0
 27 29  1  0  0  0
 29 30  1  0  0  0
 25 26  1  0  0  0
  3  4  1  0  0  0
  4  5  2  0  0  0
  5  6  1  0  0  0
  6 33  1  0  0  0
 33 34  1  0  0  0
 34 35  1  0  0  0
 15 16  2  0  0  0
 16 17  1  0  0  0
 17  7  1  0  0  0
 17 11  2  0  0  0
  6  1  2  0  0  0
 26 22  1  0  0  0
 14 18  1  0  0  0
 29 31  1  0  0  0
 30 32  1  0  0  0
M  END
> <minimizedAffinity>
-1.45960

$$$$



 35 38  0  0  0  0  0  0  0  0999 V2000
    1.6931   67.7043   82.2996 C   0  0  0  0  0  0  0  0  0  0  0  0
    1.0653   68.8697   81.8119 C   0  0  0  0  0  0  0  0  0  0  0  0
    1.5790   70.1480   82.0666 C   0  0  0  0  0  0  0  0  0  0  0  0
    2.7512   70.2506   82.8195 C   0  0  0  0  0  0  0  0  0  0  0  0
    3.3895   69.1073   83.3136 C   0  0  0  0  0  0  0  0  0  0  0  0
    2.8736   67.8291   83.0633 C   0  0  0  0  0  0  0  0  0  0  0  0
   -0.3438   63.2719   83.1953 C   0  0  0  0  0  0  0  0  0  0  0  0
   -0.8608   62.3414   82.3698 N   0  0  0  0  0  0  0  0  0  0  0  0
   -0.7163   62.8809   81.1338 N   0  0  0  0  0  0  0  0  0  0  0  0
   -1.1712   62.1541   79.9732 C   0  0  0  0  0  0  0  0  0  0  0  0
   -0.1275   64.1057   81.1528 C   0  0  0  0  0  0  0  0  0  0  0  0
    0.2062   65.0031   80.1103 C   0  0  0  0  0  0  0  0  0  0  0  0
    0.0078   64.8222   78.9148 O   0  0  0  0  0  0  0  0  0  0  0  0
    0.7977   66.1423   80.6051 N   0  0  0  0  0  0  0  0  0  0  0  0
    1.0365   66.3902   81.9534 C   0  0  0  0  0  0  0  0  0  0  0  0
    0.7242   65.5540   82.9079 N   0  0  0  0  0  0  0  0  0  0  0  0
    0.1219   64.3764   82.4638 C   0  0  0  0  0  0  0  0  0  0  0  0
    1.0610   66.8348   79.9163 H   0  0  0  0  0  0  0  0  0  0  0  0
   -0.3124   63.0558   84.6691 C   0  0  0  0  0  0  0  0  0  0  0  0
   -1.5543   62.1964   86.7212 C   0  0  0  0  0  0  0  0  0  0  0  0
   -1.6391   62.5533   85.2435 C   0  0  0  0  0  0  0  0  0  0  0  0
    0.8994   71.3335   81.5274 C   0  0  0  0  0  0  0  0  0  0  0  0
   -0.3334   71.4119   80.9073 C   0  0  0  0  0  0  0  0  0  0  0  0
   -0.6742   72.7435   80.5322 C   0  0  0  0  0  0  0  0  0  0  0  0
    0.2991   73.6592   80.8830 C   0  0  0  0  0  0  0  0  0  0  0  0
    1.6144   72.8874   81.6610 S   0  0  0  0  0  0  0  0  0  0  0  0
    0.2634   75.0945   80.6493 C   0  0  0  0  0  0  0  0  0  0  0  0
   -0.1442   75.6047   79.6034 O   0  0  0  0  0  0  0  0  0  0  0  0
    0.6902   75.8994   81.6845 N   0  0  0  0  0  0  0  0  0  0  0  0
    0.4765   77.2896   81.5356 O   0  0  0  0  0  0  0  0  0  0  0  0
    0.8018   75.5465   82.6283 H   0  0  0  0  0  0  0  0  0  0  0  0
    0.0861   77.3476   80.6355 H   0  0  0  0  0  0  0  0  0  0  0  0
    3.4626   66.6788   83.5247 O   0  0  0  0  0  0  0  0  0  0  0  0
    4.0649   66.6954   84.8208 C   0  0  0  0  0  0  0  0  0  0  0  0
    5.5241   66.3093   84.6573 C   0  0  0  0  0  0  0  0  0  0  0  0
 20 21  1  0  0  0
 21 19  1  0  0  0
 19  7  1  0  0  0
  7  8  2  0  0  0
  8  9  1  0  0  0
  9 10  1  0  0  0
  9 11  1  0  0  0
 11 12  1  0  0  0
 12 13  2  0  0  0
 12 14  1  0  0  0
 14 15  1  0  0  0
 15  1  1  0  0  0
  1  2  1  0  0  0
  2  3  2  0  0  0
  3 22  1  0  0  0
 22 23  2  0  0  0
 23 24  1  0  0  0
 24 25  2  0  0  0
 25 27  1  0  0  0
 27 28  2  0  0  0
 27 29  1  0  0  0
 29 30  1  0  0  0
 25 26  1  0  0  0
  3  4  1  0  0  0
  4  5  2  0  0  0
  5  6  1  0  0  0
  6 33  1  0  0  0
 33 34  1  0  0  0
 34 35  1  0  0  0
 15 16  2  0  0  0
 16 17  1  0  0  0
 17  7  1  0  0  0
 17 11  2  0  0  0
  6  1  2  0  0  0
 26 22  1  0  0  0
 14 18  1  0  0  0
 29 31  1  0  0  0
 30 32  1  0  0  0
M  END
> <minimizedAffinity>
-1.45338

$$$$
