


 35 38  0  0  0  0  0  0  0  0999 V2000
    0.9973   65.9234   80.9496 N   0  0  0  0  0  0  0  0  0  0  0  0
    1.1787   65.8427   79.9599 H   0  0  0  0  0  0  0  0  0  0  0  0
    2.5828   68.5326   82.7504 C   0  0  0  0  0  0  0  0  0  0  0  0
    2.2556   67.3126   82.2904 N   0  0  0  0  0  0  0  0  0  0  0  0
    1.2946   67.2200   81.3632 C   0  0  0  0  0  0  0  0  0  0  0  0
    0.6255   68.2734   80.8852 N   0  0  0  0  0  0  0  0  0  0  0  0
    0.9589   69.4877   81.3236 C   0  0  0  0  0  0  0  0  0  0  0  0
    0.2809   70.5883   80.8123 C   0  0  0  0  0  0  0  0  0  0  0  0
    0.5812   71.8929   81.2127 C   0  0  0  0  0  0  0  0  0  0  0  0
    1.5867   72.1121   82.1441 C   0  0  0  0  0  0  0  0  0  0  0  0
    2.2764   71.0230   82.6724 C   0  0  0  0  0  0  0  0  0  0  0  0
    1.9611   69.6980   82.2730 C   0  0  0  0  0  0  0  0  0  0  0  0
    3.5961   68.6449   83.7331 N   0  0  0  0  0  0  0  0  0  0  0  0
    3.3078   69.3560   84.4003 H   0  0  0  0  0  0  0  0  0  0  0  0
    3.9456   67.3862   84.4049 C   0  0  0  0  0  0  0  0  0  0  0  0
    5.4832   67.2303   84.4489 C   0  0  0  0  0  0  0  0  0  0  0  0
    7.3002   65.9642   85.4699 C   0  0  0  0  0  0  0  0  0  0  0  0
    6.0034   66.6087   85.6835 N   0  0  0  0  0  0  0  0  0  0  0  0
    5.0407   65.6281   86.1931 C   0  0  0  0  0  0  0  0  0  0  0  0
    0.3971   64.8298   81.5819 C   0  0  0  0  0  0  0  0  0  0  0  0
    0.6563   64.6175   82.9476 C   0  0  0  0  0  0  0  0  0  0  0  0
    0.0364   63.5853   83.6612 C   0  0  0  0  0  0  0  0  0  0  0  0
   -0.8696   62.7462   83.0216 C   0  0  0  0  0  0  0  0  0  0  0  0
   -1.1362   62.9467   81.6678 C   0  0  0  0  0  0  0  0  0  0  0  0
   -0.5137   63.9777   80.9531 C   0  0  0  0  0  0  0  0  0  0  0  0
   -2.3140   61.9113   80.8412 S   0  0  0  0  0  0  0  0  0  0  0  0
   -2.0839   60.5558   81.2916 O   0  0  0  0  0  0  0  0  0  0  0  0
   -3.6201   62.5296   80.9529 O   0  0  0  0  0  0  0  0  0  0  0  0
   -1.8615   62.0138   79.2029 N   0  0  0  0  0  0  0  0  0  0  0  0
   -2.9832   61.9973   78.2085 C   0  0  0  0  0  0  0  0  0  0  0  0
   -3.0533   60.6555   77.4586 C   0  0  0  0  0  0  0  0  0  0  0  0
   -1.8374   60.3715   76.6653 N   0  0  0  0  0  0  0  0  0  0  0  0
   -1.7211   58.9379   76.4079 C   0  0  0  0  0  0  0  0  0  0  0  0
   -0.6275   60.9141   77.3176 C   0  0  0  0  0  0  0  0  0  0  0  0
   -0.7429   61.0870   78.8428 C   0  0  0  0  0  0  0  0  0  0  0  0
 17 18  1  0  0  0
 18 19  1  0  0  0
 18 16  1  0  0  0
 16 15  1  0  0  0
 15 13  1  0  0  0
 13  3  1  0  0  0
  3  4  1  0  0  0
  4  5  2  0  0  0
  5  1  1  0  0  0
  1 20  1  0  0  0
 20 21  1  0  0  0
 21 22  2  0  0  0
 22 23  1  0  0  0
 23 24  2  0  0  0
 24 26  1  0  0  0
 26 27  2  0  0  0
 26 28  2  0  0  0
 26 29  1  0  0  0
 29 30  1  0  0  0
 30 31  1  0  0  0
 31 32  1  0  0  0
 32 33  1  0  0  0
 32 34  1  0  0  0
 34 35  1  0  0  0
 24 25  1  0  0  0
  5  6  1  0  0  0
  6  7  2  0  0  0
  7  8  1  0  0  0
  8  9  2  0  0  0
  9 10  1  0  0  0
 10 11  2  0  0  0
 11 12  1  0  0  0
 12  3  2  0  0  0
 25 20  2  0  0  0
 12  7  1  0  0  0
 35 29  1  0  0  0
 13 14  1  0  0  0
  1  2  1  0  0  0
M  END
> <minimizedAffinity>
-1.96549

$$$$



 35 38  0  0  0  0  0  0  0  0999 V2000
   -0.5895   67.1894   80.4421 N   0  0  0  0  0  0  0  0  0  0  0  0
   -1.5422   67.5229   80.4287 H   0  0  0  0  0  0  0  0  0  0  0  0
    2.1634   68.7243   82.0639 C   0  0  0  0  0  0  0  0  0  0  0  0
    1.3236   67.7954   81.5753 N   0  0  0  0  0  0  0  0  0  0  0  0
    0.2433   68.2076   80.9008 C   0  0  0  0  0  0  0  0  0  0  0  0
   -0.0590   69.4946   80.7056 N   0  0  0  0  0  0  0  0  0  0  0  0
    0.7804   70.4201   81.1715 C   0  0  0  0  0  0  0  0  0  0  0  0
    0.4816   71.7596   80.9509 C   0  0  0  0  0  0  0  0  0  0  0  0
    1.3176   72.7866   81.3971 C   0  0  0  0  0  0  0  0  0  0  0  0
    2.4865   72.4750   82.0776 C   0  0  0  0  0  0  0  0  0  0  0  0
    2.8034   71.1388   82.3129 C   0  0  0  0  0  0  0  0  0  0  0  0
    1.9463   70.0982   81.8693 C   0  0  0  0  0  0  0  0  0  0  0  0
    3.3089   68.3022   82.7814 N   0  0  0  0  0  0  0  0  0  0  0  0
    3.9270   69.1030   82.8837 H   0  0  0  0  0  0  0  0  0  0  0  0
    3.0267   67.6708   84.0773 C   0  0  0  0  0  0  0  0  0  0  0  0
    4.2758   67.7636   84.9836 C   0  0  0  0  0  0  0  0  0  0  0  0
    4.9283   65.6701   86.0504 C   0  0  0  0  0  0  0  0  0  0  0  0
    5.1629   66.5840   84.9312 N   0  0  0  0  0  0  0  0  0  0  0  0
    6.5644   67.0126   84.9270 C   0  0  0  0  0  0  0  0  0  0  0  0
   -0.3803   65.8368   80.1544 C   0  0  0  0  0  0  0  0  0  0  0  0
    0.0702   65.4847   78.8698 C   0  0  0  0  0  0  0  0  0  0  0  0
    0.3670   64.1590   78.5331 C   0  0  0  0  0  0  0  0  0  0  0  0
    0.2287   63.1538   79.4842 C   0  0  0  0  0  0  0  0  0  0  0  0
   -0.2164   63.4899   80.7621 C   0  0  0  0  0  0  0  0  0  0  0  0
   -0.5160   64.8160   81.0981 C   0  0  0  0  0  0  0  0  0  0  0  0
   -0.3660   62.2299   82.0002 S   0  0  0  0  0  0  0  0  0  0  0  0
   -1.2969   61.2432   81.4975 O   0  0  0  0  0  0  0  0  0  0  0  0
    0.9661   61.8562   82.4318 O   0  0  0  0  0  0  0  0  0  0  0  0
   -1.0976   63.0361   83.3096 N   0  0  0  0  0  0  0  0  0  0  0  0
   -0.1748   63.8039   84.2077 C   0  0  0  0  0  0  0  0  0  0  0  0
    0.0164   63.0949   85.5599 C   0  0  0  0  0  0  0  0  0  0  0  0
   -1.2410   62.9648   86.3281 N   0  0  0  0  0  0  0  0  0  0  0  0
   -1.1310   61.8839   87.3051 C   0  0  0  0  0  0  0  0  0  0  0  0
   -2.4041   62.7834   85.4345 C   0  0  0  0  0  0  0  0  0  0  0  0
   -2.0690   62.1792   84.0590 C   0  0  0  0  0  0  0  0  0  0  0  0
 17 18  1  0  0  0
 18 19  1  0  0  0
 18 16  1  0  0  0
 16 15  1  0  0  0
 15 13  1  0  0  0
 13  3  1  0  0  0
  3  4  1  0  0  0
  4  5  2  0  0  0
  5  1  1  0  0  0
  1 20  1  0  0  0
 20 21  1  0  0  0
 21 22  2  0  0  0
 22 23  1  0  0  0
 23 24  2  0  0  0
 24 26  1  0  0  0
 26 27  2  0  0  0
 26 28  2  0  0  0
 26 29  1  0  0  0
 29 30  1  0  0  0
 30 31  1  0  0  0
 31 32  1  0  0  0
 32 33  1  0  0  0
 32 34  1  0  0  0
 34 35  1  0  0  0
 24 25  1  0  0  0
  5  6  1  0  0  0
  6  7  2  0  0  0
  7  8  1  0  0  0
  8  9  2  0  0  0
  9 10  1  0  0  0
 10 11  2  0  0  0
 11 12  1  0  0  0
 12  3  2  0  0  0
 25 20  2  0  0  0
 12  7  1  0  0  0
 35 29  1  0  0  0
 13 14  1  0  0  0
  1  2  1  0  0  0
M  END
> <minimizedAffinity>
-1.87937

$$$$



 35 38  0  0  0  0  0  0  0  0999 V2000
    0.9724   65.1214   80.3403 N   0  0  0  0  0  0  0  0  0  0  0  0
    1.8892   64.7809   80.5905 H   0  0  0  0  0  0  0  0  0  0  0  0
   -1.2095   62.4854   81.2650 C   0  0  0  0  0  0  0  0  0  0  0  0
   -0.3834   63.5437   81.3321 N   0  0  0  0  0  0  0  0  0  0  0  0
    0.1093   64.0384   80.1900 C   0  0  0  0  0  0  0  0  0  0  0  0
   -0.1573   63.5231   78.9861 N   0  0  0  0  0  0  0  0  0  0  0  0
   -0.9913   62.4853   78.9119 C   0  0  0  0  0  0  0  0  0  0  0  0
   -1.2893   61.9605   77.6596 C   0  0  0  0  0  0  0  0  0  0  0  0
   -2.1633   60.8821   77.4991 C   0  0  0  0  0  0  0  0  0  0  0  0
   -2.7627   60.3111   78.6131 C   0  0  0  0  0  0  0  0  0  0  0  0
   -2.4752   60.8191   79.8782 C   0  0  0  0  0  0  0  0  0  0  0  0
   -1.5776   61.9066   80.0393 C   0  0  0  0  0  0  0  0  0  0  0  0
   -1.7361   61.9505   82.4657 N   0  0  0  0  0  0  0  0  0  0  0  0
   -1.2248   61.0980   82.6794 H   0  0  0  0  0  0  0  0  0  0  0  0
   -1.7375   62.8775   83.6052 C   0  0  0  0  0  0  0  0  0  0  0  0
   -1.0409   62.2141   84.8156 C   0  0  0  0  0  0  0  0  0  0  0  0
    0.2078   63.7586   86.2305 C   0  0  0  0  0  0  0  0  0  0  0  0
   -1.0464   63.0258   86.0494 N   0  0  0  0  0  0  0  0  0  0  0  0
   -1.2905   62.1667   87.2114 C   0  0  0  0  0  0  0  0  0  0  0  0
    0.7793   66.5066   80.3494 C   0  0  0  0  0  0  0  0  0  0  0  0
   -0.4081   67.0234   79.8016 C   0  0  0  0  0  0  0  0  0  0  0  0
   -0.6998   68.3918   79.8389 C   0  0  0  0  0  0  0  0  0  0  0  0
    0.1912   69.2751   80.4388 C   0  0  0  0  0  0  0  0  0  0  0  0
    1.3720   68.7753   80.9867 C   0  0  0  0  0  0  0  0  0  0  0  0
    1.6650   67.4065   80.9468 C   0  0  0  0  0  0  0  0  0  0  0  0
    2.5053   69.8786   81.7874 S   0  0  0  0  0  0  0  0  0  0  0  0
    2.2635   69.7830   83.2106 O   0  0  0  0  0  0  0  0  0  0  0  0
    3.8253   69.6561   81.2320 O   0  0  0  0  0  0  0  0  0  0  0  0
    2.0060   71.4198   81.2632 N   0  0  0  0  0  0  0  0  0  0  0  0
    3.0656   72.2773   80.6390 C   0  0  0  0  0  0  0  0  0  0  0  0
    3.4910   73.4211   81.5763 C   0  0  0  0  0  0  0  0  0  0  0  0
    2.3856   74.3519   81.8923 N   0  0  0  0  0  0  0  0  0  0  0  0
    2.6684   75.0766   83.1291 C   0  0  0  0  0  0  0  0  0  0  0  0
    1.0869   73.6490   81.9503 C   0  0  0  0  0  0  0  0  0  0  0  0
    1.1831   72.1483   82.2790 C   0  0  0  0  0  0  0  0  0  0  0  0
 17 18  1  0  0  0
 18 19  1  0  0  0
 18 16  1  0  0  0
 16 15  1  0  0  0
 15 13  1  0  0  0
 13  3  1  0  0  0
  3  4  1  0  0  0
  4  5  2  0  0  0
  5  1  1  0  0  0
  1 20  1  0  0  0
 20 21  1  0  0  0
 21 22  2  0  0  0
 22 23  1  0  0  0
 23 24  2  0  0  0
 24 26  1  0  0  0
 26 27  2  0  0  0
 26 28  2  0  0  0
 26 29  1  0  0  0
 29 30  1  0  0  0
 30 31  1  0  0  0
 31 32  1  0  0  0
 32 33  1  0  0  0
 32 34  1  0  0  0
 34 35  1  0  0  0
 24 25  1  0  0  0
  5  6  1  0  0  0
  6  7  2  0  0  0
  7  8  1  0  0  0
  8  9  2  0  0  0
  9 10  1  0  0  0
 10 11  2  0  0  0
 11 12  1  0  0  0
 12  3  2  0  0  0
 25 20  2  0  0  0
 12  7  1  0  0  0
 35 29  1  0  0  0
 13 14  1  0  0  0
  1  2  1  0  0  0
M  END
> <minimizedAffinity>
-1.83570

$$$$



 35 38  0  0  0  0  0  0  0  0999 V2000
   -0.5278   67.6069   80.4739 N   0  0  0  0  0  0  0  0  0  0  0  0
   -1.4725   67.9506   80.3829 H   0  0  0  0  0  0  0  0  0  0  0  0
    2.2616   69.2180   81.9533 C   0  0  0  0  0  0  0  0  0  0  0  0
    1.4247   68.2660   81.5055 N   0  0  0  0  0  0  0  0  0  0  0  0
    0.2977   68.6479   80.8927 C   0  0  0  0  0  0  0  0  0  0  0  0
   -0.0532   69.9260   80.7213 N   0  0  0  0  0  0  0  0  0  0  0  0
    0.7819   70.8746   81.1464 C   0  0  0  0  0  0  0  0  0  0  0  0
    0.4315   72.2054   80.9498 C   0  0  0  0  0  0  0  0  0  0  0  0
    1.2592   73.2554   81.3559 C   0  0  0  0  0  0  0  0  0  0  0  0
    2.4720   72.9767   81.9706 C   0  0  0  0  0  0  0  0  0  0  0  0
    2.8412   71.6498   82.1809 C   0  0  0  0  0  0  0  0  0  0  0  0
    1.9930   70.5854   81.7784 C   0  0  0  0  0  0  0  0  0  0  0  0
    3.4563   68.8279   82.6056 N   0  0  0  0  0  0  0  0  0  0  0  0
    4.0098   69.6645   82.7717 H   0  0  0  0  0  0  0  0  0  0  0  0
    3.2611   68.0573   83.8408 C   0  0  0  0  0  0  0  0  0  0  0  0
    4.5990   67.9606   84.6097 C   0  0  0  0  0  0  0  0  0  0  0  0
    6.0965   66.1646   85.3017 C   0  0  0  0  0  0  0  0  0  0  0  0
    4.7546   66.7369   85.4220 N   0  0  0  0  0  0  0  0  0  0  0  0
    3.7543   65.7425   85.0239 C   0  0  0  0  0  0  0  0  0  0  0  0
   -0.3276   66.2327   80.3078 C   0  0  0  0  0  0  0  0  0  0  0  0
    0.1616   65.7689   79.0737 C   0  0  0  0  0  0  0  0  0  0  0  0
    0.4514   64.4165   78.8597 C   0  0  0  0  0  0  0  0  0  0  0  0
    0.2670   63.4964   79.8861 C   0  0  0  0  0  0  0  0  0  0  0  0
   -0.2166   63.9435   81.1151 C   0  0  0  0  0  0  0  0  0  0  0  0
   -0.5092   65.2963   81.3282 C   0  0  0  0  0  0  0  0  0  0  0  0
   -0.4257   62.7938   82.4481 S   0  0  0  0  0  0  0  0  0  0  0  0
    0.7231   61.9144   82.4401 O   0  0  0  0  0  0  0  0  0  0  0  0
   -0.7955   63.5373   83.6359 O   0  0  0  0  0  0  0  0  0  0  0  0
   -1.7939   61.8895   81.9899 N   0  0  0  0  0  0  0  0  0  0  0  0
   -1.5204   60.5890   81.2961 C   0  0  0  0  0  0  0  0  0  0  0  0
   -1.8457   60.6709   79.7944 C   0  0  0  0  0  0  0  0  0  0  0  0
   -3.2729   60.9526   79.5258 N   0  0  0  0  0  0  0  0  0  0  0  0
   -3.4373   61.5171   78.1882 C   0  0  0  0  0  0  0  0  0  0  0  0
   -3.8571   61.8237   80.5670 C   0  0  0  0  0  0  0  0  0  0  0  0
   -2.8402   62.7122   81.3057 C   0  0  0  0  0  0  0  0  0  0  0  0
 17 18  1  0  0  0
 18 19  1  0  0  0
 18 16  1  0  0  0
 16 15  1  0  0  0
 15 13  1  0  0  0
 13  3  1  0  0  0
  3  4  1  0  0  0
  4  5  2  0  0  0
  5  1  1  0  0  0
  1 20  1  0  0  0
 20 21  1  0  0  0
 21 22  2  0  0  0
 22 23  1  0  0  0
 23 24  2  0  0  0
 24 26  1  0  0  0
 26 27  2  0  0  0
 26 28  2  0  0  0
 26 29  1  0  0  0
 29 30  1  0  0  0
 30 31  1  0  0  0
 31 32  1  0  0  0
 32 33  1  0  0  0
 32 34  1  0  0  0
 34 35  1  0  0  0
 24 25  1  0  0  0
  5  6  1  0  0  0
  6  7  2  0  0  0
  7  8  1  0  0  0
  8  9  2  0  0  0
  9 10  1  0  0  0
 10 11  2  0  0  0
 11 12  1  0  0  0
 12  3  2  0  0  0
 25 20  2  0  0  0
 12  7  1  0  0  0
 35 29  1  0  0  0
 13 14  1  0  0  0
  1  2  1  0  0  0
M  END
> <minimizedAffinity>
-1.80241

$$$$



 35 38  0  0  0  0  0  0  0  0999 V2000
    0.5186   65.5975   79.7888 N   0  0  0  0  0  0  0  0  0  0  0  0
    0.7045   65.8162   78.8210 H   0  0  0  0  0  0  0  0  0  0  0  0
   -1.4148   62.9836   81.2009 C   0  0  0  0  0  0  0  0  0  0  0  0
   -0.7249   64.1282   81.0560 N   0  0  0  0  0  0  0  0  0  0  0  0
   -0.1979   64.4048   79.8571 C   0  0  0  0  0  0  0  0  0  0  0  0
   -0.3005   63.5935   78.8001 N   0  0  0  0  0  0  0  0  0  0  0  0
   -0.9998   62.4659   78.9327 C   0  0  0  0  0  0  0  0  0  0  0  0
   -1.1282   61.6299   77.8295 C   0  0  0  0  0  0  0  0  0  0  0  0
   -1.8552   60.4379   77.8861 C   0  0  0  0  0  0  0  0  0  0  0  0
   -2.4767   60.0671   79.0704 C   0  0  0  0  0  0  0  0  0  0  0  0
   -2.3578   60.8884   80.1896 C   0  0  0  0  0  0  0  0  0  0  0  0
   -1.6086   62.0925   80.1327 C   0  0  0  0  0  0  0  0  0  0  0  0
   -1.9757   62.6774   82.4645 N   0  0  0  0  0  0  0  0  0  0  0  0
   -2.6621   61.9391   82.3318 H   0  0  0  0  0  0  0  0  0  0  0  0
   -0.9990   62.3241   83.5033 C   0  0  0  0  0  0  0  0  0  0  0  0
   -1.4964   62.8292   84.8774 C   0  0  0  0  0  0  0  0  0  0  0  0
   -1.2231   62.2539   87.2313 C   0  0  0  0  0  0  0  0  0  0  0  0
   -0.5450   62.6262   85.9886 N   0  0  0  0  0  0  0  0  0  0  0  0
    0.2434   63.8434   86.1999 C   0  0  0  0  0  0  0  0  0  0  0  0
    1.1121   66.4156   80.7556 C   0  0  0  0  0  0  0  0  0  0  0  0
    1.2723   65.9097   82.0578 C   0  0  0  0  0  0  0  0  0  0  0  0
    1.9197   66.6452   83.0572 C   0  0  0  0  0  0  0  0  0  0  0  0
    2.4331   67.9052   82.7692 C   0  0  0  0  0  0  0  0  0  0  0  0
    2.2817   68.4179   81.4815 C   0  0  0  0  0  0  0  0  0  0  0  0
    1.6314   67.6831   80.4823 C   0  0  0  0  0  0  0  0  0  0  0  0
    2.9593   70.0068   81.0829 S   0  0  0  0  0  0  0  0  0  0  0  0
    4.2995   70.0499   81.6260 O   0  0  0  0  0  0  0  0  0  0  0  0
    2.7073   70.2696   79.6801 O   0  0  0  0  0  0  0  0  0  0  0  0
    1.9896   71.0921   81.9670 N   0  0  0  0  0  0  0  0  0  0  0  0
    0.5124   70.9975   81.7294 C   0  0  0  0  0  0  0  0  0  0  0  0
   -0.0035   72.1873   80.9011 C   0  0  0  0  0  0  0  0  0  0  0  0
    0.1908   73.4896   81.5753 N   0  0  0  0  0  0  0  0  0  0  0  0
    0.1776   74.5756   80.5980 C   0  0  0  0  0  0  0  0  0  0  0  0
    1.4231   73.4974   82.3910 C   0  0  0  0  0  0  0  0  0  0  0  0
    2.5014   72.4980   81.9349 C   0  0  0  0  0  0  0  0  0  0  0  0
 17 18  1  0  0  0
 18 19  1  0  0  0
 18 16  1  0  0  0
 16 15  1  0  0  0
 15 13  1  0  0  0
 13  3  1  0  0  0
  3  4  1  0  0  0
  4  5  2  0  0  0
  5  1  1  0  0  0
  1 20  1  0  0  0
 20 21  1  0  0  0
 21 22  2  0  0  0
 22 23  1  0  0  0
 23 24  2  0  0  0
 24 26  1  0  0  0
 26 27  2  0  0  0
 26 28  2  0  0  0
 26 29  1  0  0  0
 29 30  1  0  0  0
 30 31  1  0  0  0
 31 32  1  0  0  0
 32 33  1  0  0  0
 32 34  1  0  0  0
 34 35  1  0  0  0
 24 25  1  0  0  0
  5  6  1  0  0  0
  6  7  2  0  0  0
  7  8  1  0  0  0
  8  9  2  0  0  0
  9 10  1  0  0  0
 10 11  2  0  0  0
 11 12  1  0  0  0
 12  3  2  0  0  0
 25 20  2  0  0  0
 12  7  1  0  0  0
 35 29  1  0  0  0
 13 14  1  0  0  0
  1  2  1  0  0  0
M  END
> <minimizedAffinity>
-1.73684

$$$$



 35 38  0  0  0  0  0  0  0  0999 V2000
    0.6200   65.3801   84.4964 N   0  0  0  0  0  0  0  0  0  0  0  0
    0.0035   65.8818   85.1187 H   0  0  0  0  0  0  0  0  0  0  0  0
    3.1904   67.7065   83.7578 C   0  0  0  0  0  0  0  0  0  0  0  0
    1.9972   67.0883   83.7919 N   0  0  0  0  0  0  0  0  0  0  0  0
    1.8794   65.9748   84.5253 C   0  0  0  0  0  0  0  0  0  0  0  0
    2.8905   65.4300   85.2086 N   0  0  0  0  0  0  0  0  0  0  0  0
    4.0713   66.0493   85.1940 C   0  0  0  0  0  0  0  0  0  0  0  0
    5.1197   65.4983   85.9217 C   0  0  0  0  0  0  0  0  0  0  0  0
    6.3826   66.0949   85.9658 C   0  0  0  0  0  0  0  0  0  0  0  0
    6.6102   67.2749   85.2714 C   0  0  0  0  0  0  0  0  0  0  0  0
    5.5744   67.8423   84.5324 C   0  0  0  0  0  0  0  0  0  0  0  0
    4.2961   67.2278   84.4795 C   0  0  0  0  0  0  0  0  0  0  0  0
    3.3296   68.8842   82.9841 N   0  0  0  0  0  0  0  0  0  0  0  0
    4.3218   69.0931   82.9075 H   0  0  0  0  0  0  0  0  0  0  0  0
    2.6864   68.8345   81.6644 C   0  0  0  0  0  0  0  0  0  0  0  0
    2.5990   70.2611   81.0749 C   0  0  0  0  0  0  0  0  0  0  0  0
    0.5125   71.3557   81.7037 C   0  0  0  0  0  0  0  0  0  0  0  0
    1.9506   71.2526   81.9569 N   0  0  0  0  0  0  0  0  0  0  0  0
    2.5799   72.5644   81.7813 C   0  0  0  0  0  0  0  0  0  0  0  0
    0.1267   64.2082   83.9138 C   0  0  0  0  0  0  0  0  0  0  0  0
   -0.6052   63.3151   84.7162 C   0  0  0  0  0  0  0  0  0  0  0  0
   -1.1873   62.1584   84.1851 C   0  0  0  0  0  0  0  0  0  0  0  0
   -1.0576   61.8757   82.8296 C   0  0  0  0  0  0  0  0  0  0  0  0
   -0.3351   62.7539   82.0228 C   0  0  0  0  0  0  0  0  0  0  0  0
    0.2497   63.9097   82.5548 C   0  0  0  0  0  0  0  0  0  0  0  0
   -0.1870   62.4316   80.2859 S   0  0  0  0  0  0  0  0  0  0  0  0
    0.1899   63.6750   79.6496 O   0  0  0  0  0  0  0  0  0  0  0  0
    0.6021   61.2284   80.1124 O   0  0  0  0  0  0  0  0  0  0  0  0
   -1.7765   62.0483   79.8099 N   0  0  0  0  0  0  0  0  0  0  0  0
   -2.2075   60.6307   80.0379 C   0  0  0  0  0  0  0  0  0  0  0  0
   -2.2890   59.8459   78.7169 C   0  0  0  0  0  0  0  0  0  0  0  0
   -3.2863   60.4000   77.7751 N   0  0  0  0  0  0  0  0  0  0  0  0
   -2.9823   59.9825   76.4083 C   0  0  0  0  0  0  0  0  0  0  0  0
   -3.3833   61.8699   77.8936 C   0  0  0  0  0  0  0  0  0  0  0  0
   -2.1193   62.5546   78.4439 C   0  0  0  0  0  0  0  0  0  0  0  0
 17 18  1  0  0  0
 18 19  1  0  0  0
 18 16  1  0  0  0
 16 15  1  0  0  0
 15 13  1  0  0  0
 13  3  1  0  0  0
  3  4  1  0  0  0
  4  5  2  0  0  0
  5  1  1  0  0  0
  1 20  1  0  0  0
 20 21  1  0  0  0
 21 22  2  0  0  0
 22 23  1  0  0  0
 23 24  2  0  0  0
 24 26  1  0  0  0
 26 27  2  0  0  0
 26 28  2  0  0  0
 26 29  1  0  0  0
 29 30  1  0  0  0
 30 31  1  0  0  0
 31 32  1  0  0  0
 32 33  1  0  0  0
 32 34  1  0  0  0
 34 35  1  0  0  0
 24 25  1  0  0  0
  5  6  1  0  0  0
  6  7  2  0  0  0
  7  8  1  0  0  0
  8  9  2  0  0  0
  9 10  1  0  0  0
 10 11  2  0  0  0
 11 12  1  0  0  0
 12  3  2  0  0  0
 25 20  2  0  0  0
 12  7  1  0  0  0
 35 29  1  0  0  0
 13 14  1  0  0  0
  1  2  1  0  0  0
M  END
> <minimizedAffinity>
-1.72037

$$$$



 35 38  0  0  0  0  0  0  0  0999 V2000
    1.1366   65.2373   79.9513 N   0  0  0  0  0  0  0  0  0  0  0  0
    1.9397   64.9458   79.4137 H   0  0  0  0  0  0  0  0  0  0  0  0
   -1.0960   62.9084   81.4197 C   0  0  0  0  0  0  0  0  0  0  0  0
   -0.2345   63.9281   81.2617 N   0  0  0  0  0  0  0  0  0  0  0  0
    0.2345   64.1790   80.0333 C   0  0  0  0  0  0  0  0  0  0  0  0
   -0.0895   63.4561   78.9571 N   0  0  0  0  0  0  0  0  0  0  0  0
   -0.9585   62.4554   79.1044 C   0  0  0  0  0  0  0  0  0  0  0  0
   -1.3157   61.7151   77.9834 C   0  0  0  0  0  0  0  0  0  0  0  0
   -2.2289   60.6598   78.0548 C   0  0  0  0  0  0  0  0  0  0  0  0
   -2.8079   60.3328   79.2731 C   0  0  0  0  0  0  0  0  0  0  0  0
   -2.4612   61.0594   80.4102 C   0  0  0  0  0  0  0  0  0  0  0  0
   -1.5241   62.1229   80.3370 C   0  0  0  0  0  0  0  0  0  0  0  0
   -1.5981   62.6304   82.7142 N   0  0  0  0  0  0  0  0  0  0  0  0
   -1.8533   61.6467   82.7465 H   0  0  0  0  0  0  0  0  0  0  0  0
   -0.6950   62.9890   83.8159 C   0  0  0  0  0  0  0  0  0  0  0  0
   -1.0685   62.1786   85.0785 C   0  0  0  0  0  0  0  0  0  0  0  0
   -1.5328   62.9584   87.3419 C   0  0  0  0  0  0  0  0  0  0  0  0
   -0.4999   62.7031   86.3366 N   0  0  0  0  0  0  0  0  0  0  0  0
    0.2484   63.9350   86.0713 C   0  0  0  0  0  0  0  0  0  0  0  0
    1.1947   66.4962   80.5579 C   0  0  0  0  0  0  0  0  0  0  0  0
    0.2724   67.4789   80.1567 C   0  0  0  0  0  0  0  0  0  0  0  0
    0.2267   68.7370   80.7684 C   0  0  0  0  0  0  0  0  0  0  0  0
    1.1010   69.0354   81.8079 C   0  0  0  0  0  0  0  0  0  0  0  0
    2.0198   68.0692   82.2159 C   0  0  0  0  0  0  0  0  0  0  0  0
    2.0674   66.8115   81.6020 C   0  0  0  0  0  0  0  0  0  0  0  0
    3.1198   68.4155   83.5624 S   0  0  0  0  0  0  0  0  0  0  0  0
    4.0134   69.4665   83.1266 O   0  0  0  0  0  0  0  0  0  0  0  0
    2.3307   68.5518   84.7704 O   0  0  0  0  0  0  0  0  0  0  0  0
    4.0220   66.9806   83.7253 N   0  0  0  0  0  0  0  0  0  0  0  0
    3.3628   65.8725   84.4901 C   0  0  0  0  0  0  0  0  0  0  0  0
    3.9967   65.6909   85.8804 C   0  0  0  0  0  0  0  0  0  0  0  0
    5.4258   65.3136   85.8200 N   0  0  0  0  0  0  0  0  0  0  0  0
    6.0939   65.6482   87.0757 C   0  0  0  0  0  0  0  0  0  0  0  0
    6.0987   65.9290   84.6570 C   0  0  0  0  0  0  0  0  0  0  0  0
    5.4389   67.2213   84.1431 C   0  0  0  0  0  0  0  0  0  0  0  0
 17 18  1  0  0  0
 18 19  1  0  0  0
 18 16  1  0  0  0
 16 15  1  0  0  0
 15 13  1  0  0  0
 13  3  1  0  0  0
  3  4  1  0  0  0
  4  5  2  0  0  0
  5  1  1  0  0  0
  1 20  1  0  0  0
 20 21  1  0  0  0
 21 22  2  0  0  0
 22 23  1  0  0  0
 23 24  2  0  0  0
 24 26  1  0  0  0
 26 27  2  0  0  0
 26 28  2  0  0  0
 26 29  1  0  0  0
 29 30  1  0  0  0
 30 31  1  0  0  0
 31 32  1  0  0  0
 32 33  1  0  0  0
 32 34  1  0  0  0
 34 35  1  0  0  0
 24 25  1  0  0  0
  5  6  1  0  0  0
  6  7  2  0  0  0
  7  8  1  0  0  0
  8  9  2  0  0  0
  9 10  1  0  0  0
 10 11  2  0  0  0
 11 12  1  0  0  0
 12  3  2  0  0  0
 25 20  2  0  0  0
 12  7  1  0  0  0
 35 29  1  0  0  0
 13 14  1  0  0  0
  1  2  1  0  0  0
M  END
> <minimizedAffinity>
-1.70981

$$$$



 35 38  0  0  0  0  0  0  0  0999 V2000
   -0.0317   66.2067   79.6881 N   0  0  0  0  0  0  0  0  0  0  0  0
   -0.5683   66.8517   79.1268 H   0  0  0  0  0  0  0  0  0  0  0  0
    1.8029   68.9555   80.9699 C   0  0  0  0  0  0  0  0  0  0  0  0
    1.0010   68.2032   80.1966 N   0  0  0  0  0  0  0  0  0  0  0  0
    0.7940   66.9281   80.5473 C   0  0  0  0  0  0  0  0  0  0  0  0
    1.3598   66.3541   81.6133 N   0  0  0  0  0  0  0  0  0  0  0  0
    2.1410   67.1006   82.3948 C   0  0  0  0  0  0  0  0  0  0  0  0
    2.7134   66.5136   83.5173 C   0  0  0  0  0  0  0  0  0  0  0  0
    3.5330   67.2332   84.3909 C   0  0  0  0  0  0  0  0  0  0  0  0
    3.7880   68.5753   84.1460 C   0  0  0  0  0  0  0  0  0  0  0  0
    3.2274   69.1827   83.0244 C   0  0  0  0  0  0  0  0  0  0  0  0
    2.4052   68.4464   82.1321 C   0  0  0  0  0  0  0  0  0  0  0  0
    2.0324   70.3054   80.6092 N   0  0  0  0  0  0  0  0  0  0  0  0
    2.1530   70.3437   79.6003 H   0  0  0  0  0  0  0  0  0  0  0  0
    1.0027   71.2488   81.0647 C   0  0  0  0  0  0  0  0  0  0  0  0
    1.6761   72.4733   81.7264 C   0  0  0  0  0  0  0  0  0  0  0  0
    2.7774   74.5940   81.2404 C   0  0  0  0  0  0  0  0  0  0  0  0
    1.6696   73.6989   80.9023 N   0  0  0  0  0  0  0  0  0  0  0  0
    0.3953   74.4041   81.0657 C   0  0  0  0  0  0  0  0  0  0  0  0
   -0.3380   64.8471   79.5702 C   0  0  0  0  0  0  0  0  0  0  0  0
   -0.4529   64.2931   78.2829 C   0  0  0  0  0  0  0  0  0  0  0  0
   -0.6883   62.9271   78.0894 C   0  0  0  0  0  0  0  0  0  0  0  0
   -0.8032   62.0804   79.1866 C   0  0  0  0  0  0  0  0  0  0  0  0
   -0.6901   62.6171   80.4685 C   0  0  0  0  0  0  0  0  0  0  0  0
   -0.4574   63.9843   80.6622 C   0  0  0  0  0  0  0  0  0  0  0  0
   -0.7979   61.5505   81.8805 S   0  0  0  0  0  0  0  0  0  0  0  0
   -1.8254   60.5712   81.6006 O   0  0  0  0  0  0  0  0  0  0  0  0
    0.5445   61.1479   82.2496 O   0  0  0  0  0  0  0  0  0  0  0  0
   -1.3602   62.5758   83.1183 N   0  0  0  0  0  0  0  0  0  0  0  0
   -0.3103   63.3424   83.8649 C   0  0  0  0  0  0  0  0  0  0  0  0
   -0.1007   62.7798   85.2817 C   0  0  0  0  0  0  0  0  0  0  0  0
   -1.3118   62.8721   86.1262 N   0  0  0  0  0  0  0  0  0  0  0  0
   -1.2436   61.9070   87.2210 C   0  0  0  0  0  0  0  0  0  0  0  0
   -2.5431   62.7103   85.3249 C   0  0  0  0  0  0  0  0  0  0  0  0
   -2.3592   61.9181   84.0180 C   0  0  0  0  0  0  0  0  0  0  0  0
 17 18  1  0  0  0
 18 19  1  0  0  0
 18 16  1  0  0  0
 16 15  1  0  0  0
 15 13  1  0  0  0
 13  3  1  0  0  0
  3  4  1  0  0  0
  4  5  2  0  0  0
  5  1  1  0  0  0
  1 20  1  0  0  0
 20 21  1  0  0  0
 21 22  2  0  0  0
 22 23  1  0  0  0
 23 24  2  0  0  0
 24 26  1  0  0  0
 26 27  2  0  0  0
 26 28  2  0  0  0
 26 29  1  0  0  0
 29 30  1  0  0  0
 30 31  1  0  0  0
 31 32  1  0  0  0
 32 33  1  0  0  0
 32 34  1  0  0  0
 34 35  1  0  0  0
 24 25  1  0  0  0
  5  6  1  0  0  0
  6  7  2  0  0  0
  7  8  1  0  0  0
  8  9  2  0  0  0
  9 10  1  0  0  0
 10 11  2  0  0  0
 11 12  1  0  0  0
 12  3  2  0  0  0
 25 20  2  0  0  0
 12  7  1  0  0  0
 35 29  1  0  0  0
 13 14  1  0  0  0
  1  2  1  0  0  0
M  END
> <minimizedAffinity>
-1.64428

$$$$



 35 38  0  0  0  0  0  0  0  0999 V2000
    1.5835   67.1282   81.1501 N   0  0  0  0  0  0  0  0  0  0  0  0
    2.4618   66.8954   81.5899 H   0  0  0  0  0  0  0  0  0  0  0  0
   -0.3214   64.2367   81.9087 C   0  0  0  0  0  0  0  0  0  0  0  0
    0.3741   65.3797   82.0395 N   0  0  0  0  0  0  0  0  0  0  0  0
    0.8580   65.9588   80.9339 C   0  0  0  0  0  0  0  0  0  0  0  0
    0.7071   65.4505   79.7073 N   0  0  0  0  0  0  0  0  0  0  0  0
    0.0019   64.3272   79.5694 C   0  0  0  0  0  0  0  0  0  0  0  0
   -0.1769   63.8072   78.2927 C   0  0  0  0  0  0  0  0  0  0  0  0
   -0.9133   62.6415   78.0659 C   0  0  0  0  0  0  0  0  0  0  0  0
   -1.4931   61.9752   79.1365 C   0  0  0  0  0  0  0  0  0  0  0  0
   -1.3234   62.4770   80.4252 C   0  0  0  0  0  0  0  0  0  0  0  0
   -0.5647   63.6544   80.6540 C   0  0  0  0  0  0  0  0  0  0  0  0
   -0.8370   63.6122   83.0702 N   0  0  0  0  0  0  0  0  0  0  0  0
   -1.1471   62.6788   82.8124 H   0  0  0  0  0  0  0  0  0  0  0  0
    0.0859   63.5766   84.2124 C   0  0  0  0  0  0  0  0  0  0  0  0
   -0.5017   62.6813   85.3276 C   0  0  0  0  0  0  0  0  0  0  0  0
    0.7430   64.0282   86.9349 C   0  0  0  0  0  0  0  0  0  0  0  0
   -0.4935   63.2897   86.6733 N   0  0  0  0  0  0  0  0  0  0  0  0
   -0.6757   62.2519   87.6919 C   0  0  0  0  0  0  0  0  0  0  0  0
    1.2769   68.4857   81.0111 C   0  0  0  0  0  0  0  0  0  0  0  0
   -0.0259   68.8442   80.6220 C   0  0  0  0  0  0  0  0  0  0  0  0
   -0.4230   70.1832   80.5304 C   0  0  0  0  0  0  0  0  0  0  0  0
    0.4777   71.1968   80.8389 C   0  0  0  0  0  0  0  0  0  0  0  0
    1.7725   70.8547   81.2270 C   0  0  0  0  0  0  0  0  0  0  0  0
    2.1706   69.5150   81.3159 C   0  0  0  0  0  0  0  0  0  0  0  0
    2.9263   72.1294   81.6589 S   0  0  0  0  0  0  0  0  0  0  0  0
    3.1439   72.0450   83.0867 O   0  0  0  0  0  0  0  0  0  0  0  0
    4.0331   72.0762   80.7248 O   0  0  0  0  0  0  0  0  0  0  0  0
    2.0776   73.5691   81.3321 N   0  0  0  0  0  0  0  0  0  0  0  0
    2.5332   74.3430   80.1318 C   0  0  0  0  0  0  0  0  0  0  0  0
    3.2927   75.6184   80.5371 C   0  0  0  0  0  0  0  0  0  0  0  0
    2.4600   76.5675   81.3082 N   0  0  0  0  0  0  0  0  0  0  0  0
    3.3054   77.4698   82.0866 C   0  0  0  0  0  0  0  0  0  0  0  0
    1.4803   75.8596   82.1585 C   0  0  0  0  0  0  0  0  0  0  0  0
    1.8831   74.4249   82.5443 C   0  0  0  0  0  0  0  0  0  0  0  0
 17 18  1  0  0  0
 18 19  1  0  0  0
 18 16  1  0  0  0
 16 15  1  0  0  0
 15 13  1  0  0  0
 13  3  1  0  0  0
  3  4  1  0  0  0
  4  5  2  0  0  0
  5  1  1  0  0  0
  1 20  1  0  0  0
 20 21  1  0  0  0
 21 22  2  0  0  0
 22 23  1  0  0  0
 23 24  2  0  0  0
 24 26  1  0  0  0
 26 27  2  0  0  0
 26 28  2  0  0  0
 26 29  1  0  0  0
 29 30  1  0  0  0
 30 31  1  0  0  0
 31 32  1  0  0  0
 32 33  1  0  0  0
 32 34  1  0  0  0
 34 35  1  0  0  0
 24 25  1  0  0  0
  5  6  1  0  0  0
  6  7  2  0  0  0
  7  8  1  0  0  0
  8  9  2  0  0  0
  9 10  1  0  0  0
 10 11  2  0  0  0
 11 12  1  0  0  0
 12  3  2  0  0  0
 25 20  2  0  0  0
 12  7  1  0  0  0
 35 29  1  0  0  0
 13 14  1  0  0  0
  1  2  1  0  0  0
M  END
> <minimizedAffinity>
-1.56663

$$$$
