


 39 42  0  0  0  0  0  0  0  0999 V2000
    2.1862   67.1399   82.9418 C   0  0  0  0  0  0  0  0  0  0  0  0
    1.7702   68.0798   81.9780 C   0  0  0  0  0  0  0  0  0  0  0  0
    2.4426   69.2946   81.7930 C   0  0  0  0  0  0  0  0  0  0  0  0
    3.5549   69.5673   82.5895 C   0  0  0  0  0  0  0  0  0  0  0  0
    3.9952   68.6382   83.5381 C   0  0  0  0  0  0  0  0  0  0  0  0
    3.3306   67.4169   83.7194 C   0  0  0  0  0  0  0  0  0  0  0  0
   -0.4693   63.2724   81.3431 C   0  0  0  0  0  0  0  0  0  0  0  0
   -1.1645   62.3287   82.0062 N   0  0  0  0  0  0  0  0  0  0  0  0
   -0.9761   62.6380   83.3139 N   0  0  0  0  0  0  0  0  0  0  0  0
   -1.5871   61.8292   84.3409 C   0  0  0  0  0  0  0  0  0  0  0  0
   -0.1951   63.7358   83.4943 C   0  0  0  0  0  0  0  0  0  0  0  0
    0.2382   64.3982   84.6683 C   0  0  0  0  0  0  0  0  0  0  0  0
   -0.0270   64.0682   85.8179 O   0  0  0  0  0  0  0  0  0  0  0  0
    1.0143   65.4931   84.3643 N   0  0  0  0  0  0  0  0  0  0  0  0
    1.3394   65.8989   83.0740 C   0  0  0  0  0  0  0  0  0  0  0  0
    0.9406   65.2743   81.9969 N   0  0  0  0  0  0  0  0  0  0  0  0
    0.1441   64.1568   82.2448 C   0  0  0  0  0  0  0  0  0  0  0  0
    1.3562   66.0249   85.1543 H   0  0  0  0  0  0  0  0  0  0  0  0
   -0.4184   63.2811   79.8539 C   0  0  0  0  0  0  0  0  0  0  0  0
   -1.0380   62.0944   77.6853 C   0  0  0  0  0  0  0  0  0  0  0  0
   -1.1431   62.0994   79.2038 C   0  0  0  0  0  0  0  0  0  0  0  0
    1.9348   70.3044   80.7898 C   0  0  0  0  0  0  0  0  0  0  0  0
    2.1596   71.7359   81.2250 C   0  0  0  0  0  0  0  0  0  0  0  0
    1.2017   72.4027   81.9918 C   0  0  0  0  0  0  0  0  0  0  0  0
    1.4096   73.7279   82.3744 C   0  0  0  0  0  0  0  0  0  0  0  0
    2.5725   74.4187   81.9901 C   0  0  0  0  0  0  0  0  0  0  0  0
    3.5329   73.7662   81.1926 C   0  0  0  0  0  0  0  0  0  0  0  0
    3.3209   72.4259   80.8337 C   0  0  0  0  0  0  0  0  0  0  0  0
    2.6857   75.8333   82.4636 C   0  0  0  0  0  0  0  0  0  0  0  0
    2.2652   76.7693   81.7834 O   0  0  0  0  0  0  0  0  0  0  0  0
    3.2825   76.0556   83.6806 N   0  0  0  0  0  0  0  0  0  0  0  0
    3.5518   77.4067   83.9992 O   0  0  0  0  0  0  0  0  0  0  0  0
    3.8530   75.3446   84.1318 H   0  0  0  0  0  0  0  0  0  0  0  0
    3.1615   77.8763   83.2296 H   0  0  0  0  0  0  0  0  0  0  0  0
    4.6412   74.4791   80.8071 O   0  0  0  0  0  0  0  0  0  0  0  0
    5.6793   73.7700   80.1341 C   0  0  0  0  0  0  0  0  0  0  0  0
    3.7158   66.4808   84.6449 O   0  0  0  0  0  0  0  0  0  0  0  0
    4.9732   66.6248   85.3107 C   0  0  0  0  0  0  0  0  0  0  0  0
    5.0839   65.6281   86.4505 C   0  0  0  0  0  0  0  0  0  0  0  0
 20 21  1  0  0  0
 21 19  1  0  0  0
 19  7  1  0  0  0
  7  8  2  0  0  0
  8  9  1  0  0  0
  9 10  1  0  0  0
  9 11  1  0  0  0
 11 12  1  0  0  0
 12 13  2  0  0  0
 12 14  1  0  0  0
 14 15  1  0  0  0
 15  1  1  0  0  0
  1  2  1  0  0  0
  2  3  2  0  0  0
  3 22  1  0  0  0
 22 23  1  0  0  0
 23 24  1  0  0  0
 24 25  2  0  0  0
 25 26  1  0  0  0
 26 29  1  0  0  0
 29 30  2  0  0  0
 29 31  1  0  0  0
 31 32  1  0  0  0
 26 27  2  0  0  0
 27 35  1  0  0  0
 35 36  1  0  0  0
 27 28  1  0  0  0
  3  4  1  0  0  0
  4  5  2  0  0  0
  5  6  1  0  0  0
  6 37  1  0  0  0
 37 38  1  0  0  0
 38 39  1  0  0  0
 15 16  2  0  0  0
 16 17  1  0  0  0
 17  7  1  0  0  0
 17 11  2  0  0  0
  6  1  2  0  0  0
 28 23  2  0  0  0
 14 18  1  0  0  0
 31 33  1  0  0  0
 32 34  1  0  0  0
M  END
> <minimizedAffinity>
-1.64722

$$$$



 39 42  0  0  0  0  0  0  0  0999 V2000
    1.8704   67.1512   82.6753 C   0  0  0  0  0  0  0  0  0  0  0  0
    1.4013   68.2346   81.9062 C   0  0  0  0  0  0  0  0  0  0  0  0
    2.0151   69.4929   81.9516 C   0  0  0  0  0  0  0  0  0  0  0  0
    3.1221   69.6634   82.7831 C   0  0  0  0  0  0  0  0  0  0  0  0
    3.6148   68.5946   83.5393 C   0  0  0  0  0  0  0  0  0  0  0  0
    3.0090   67.3311   83.4890 C   0  0  0  0  0  0  0  0  0  0  0  0
   -0.4749   63.4427   80.3706 C   0  0  0  0  0  0  0  0  0  0  0  0
   -1.1596   62.3846   80.8453 N   0  0  0  0  0  0  0  0  0  0  0  0
   -1.0692   62.5109   82.1933 N   0  0  0  0  0  0  0  0  0  0  0  0
   -1.6997   61.5377   83.0520 C   0  0  0  0  0  0  0  0  0  0  0  0
   -0.3594   63.6040   82.5792 C   0  0  0  0  0  0  0  0  0  0  0  0
   -0.0351   64.1091   83.8617 C   0  0  0  0  0  0  0  0  0  0  0  0
   -0.3535   63.6065   84.9326 O   0  0  0  0  0  0  0  0  0  0  0  0
    0.7001   65.2685   83.7685 N   0  0  0  0  0  0  0  0  0  0  0  0
    1.0830   65.8689   82.5734 C   0  0  0  0  0  0  0  0  0  0  0  0
    0.7852   65.3887   81.3944 N   0  0  0  0  0  0  0  0  0  0  0  0
    0.0343   64.2141   81.4276 C   0  0  0  0  0  0  0  0  0  0  0  0
    0.9641   65.6957   84.6470 H   0  0  0  0  0  0  0  0  0  0  0  0
   -0.3321   63.6671   78.9044 C   0  0  0  0  0  0  0  0  0  0  0  0
   -1.5512   62.1883   77.2244 C   0  0  0  0  0  0  0  0  0  0  0  0
   -0.3071   62.3764   78.0813 C   0  0  0  0  0  0  0  0  0  0  0  0
    1.4507   70.6479   81.1571 C   0  0  0  0  0  0  0  0  0  0  0  0
    2.2975   71.8984   81.2473 C   0  0  0  0  0  0  0  0  0  0  0  0
    3.5047   71.9891   80.5512 C   0  0  0  0  0  0  0  0  0  0  0  0
    4.2873   73.1394   80.6535 C   0  0  0  0  0  0  0  0  0  0  0  0
    3.8870   74.2182   81.4616 C   0  0  0  0  0  0  0  0  0  0  0  0
    2.6855   74.1273   82.1913 C   0  0  0  0  0  0  0  0  0  0  0  0
    1.8973   72.9732   82.0614 C   0  0  0  0  0  0  0  0  0  0  0  0
    4.8061   75.3983   81.4885 C   0  0  0  0  0  0  0  0  0  0  0  0
    4.7160   76.2962   80.6512 O   0  0  0  0  0  0  0  0  0  0  0  0
    5.7613   75.4439   82.4744 N   0  0  0  0  0  0  0  0  0  0  0  0
    6.7329   76.4633   82.3470 O   0  0  0  0  0  0  0  0  0  0  0  0
    6.0175   74.6157   83.0066 H   0  0  0  0  0  0  0  0  0  0  0  0
    6.4148   76.9458   81.5525 H   0  0  0  0  0  0  0  0  0  0  0  0
    2.3399   75.1844   82.9964 O   0  0  0  0  0  0  0  0  0  0  0  0
    1.2357   75.9894   82.5887 C   0  0  0  0  0  0  0  0  0  0  0  0
    3.4468   66.2570   84.2213 O   0  0  0  0  0  0  0  0  0  0  0  0
    4.7996   66.2246   84.6838 C   0  0  0  0  0  0  0  0  0  0  0  0
    4.8721   65.5838   86.0582 C   0  0  0  0  0  0  0  0  0  0  0  0
 20 21  1  0  0  0
 21 19  1  0  0  0
 19  7  1  0  0  0
  7  8  2  0  0  0
  8  9  1  0  0  0
  9 10  1  0  0  0
  9 11  1  0  0  0
 11 12  1  0  0  0
 12 13  2  0  0  0
 12 14  1  0  0  0
 14 15  1  0  0  0
 15  1  1  0  0  0
  1  2  1  0  0  0
  2  3  2  0  0  0
  3 22  1  0  0  0
 22 23  1  0  0  0
 23 24  1  0  0  0
 24 25  2  0  0  0
 25 26  1  0  0  0
 26 29  1  0  0  0
 29 30  2  0  0  0
 29 31  1  0  0  0
 31 32  1  0  0  0
 26 27  2  0  0  0
 27 35  1  0  0  0
 35 36  1  0  0  0
 27 28  1  0  0  0
  3  4  1  0  0  0
  4  5  2  0  0  0
  5  6  1  0  0  0
  6 37  1  0  0  0
 37 38  1  0  0  0
 38 39  1  0  0  0
 15 16  2  0  0  0
 16 17  1  0  0  0
 17  7  1  0  0  0
 17 11  2  0  0  0
  6  1  2  0  0  0
 28 23  2  0  0  0
 14 18  1  0  0  0
 31 33  1  0  0  0
 32 34  1  0  0  0
M  END
> <minimizedAffinity>
-1.59420

$$$$



 39 42  0  0  0  0  0  0  0  0999 V2000
    1.8631   67.7017   82.1508 C   0  0  0  0  0  0  0  0  0  0  0  0
    1.4024   68.8274   81.4396 C   0  0  0  0  0  0  0  0  0  0  0  0
    1.9309   70.1061   81.6584 C   0  0  0  0  0  0  0  0  0  0  0  0
    2.9426   70.2543   82.6073 C   0  0  0  0  0  0  0  0  0  0  0  0
    3.4271   69.1455   83.3093 C   0  0  0  0  0  0  0  0  0  0  0  0
    2.9074   67.8625   83.0860 C   0  0  0  0  0  0  0  0  0  0  0  0
   -0.3057   63.3774   83.2289 C   0  0  0  0  0  0  0  0  0  0  0  0
   -0.8057   62.4060   82.4413 N   0  0  0  0  0  0  0  0  0  0  0  0
   -0.6130   62.8711   81.1812 N   0  0  0  0  0  0  0  0  0  0  0  0
   -1.0313   62.0798   80.0494 C   0  0  0  0  0  0  0  0  0  0  0  0
   -0.0120   64.0899   81.1495 C   0  0  0  0  0  0  0  0  0  0  0  0
    0.3756   64.9186   80.0689 C   0  0  0  0  0  0  0  0  0  0  0  0
    0.2173   64.6687   78.8800 O   0  0  0  0  0  0  0  0  0  0  0  0
    0.9730   66.0742   80.5174 N   0  0  0  0  0  0  0  0  0  0  0  0
    1.1690   66.3954   81.8567 C   0  0  0  0  0  0  0  0  0  0  0  0
    0.7990   65.6261   82.8469 N   0  0  0  0  0  0  0  0  0  0  0  0
    0.1909   64.4354   82.4507 C   0  0  0  0  0  0  0  0  0  0  0  0
    1.2860   66.7163   79.8007 H   0  0  0  0  0  0  0  0  0  0  0  0
   -0.3321   63.2491   84.7132 C   0  0  0  0  0  0  0  0  0  0  0  0
   -1.5100   62.2837   86.7567 C   0  0  0  0  0  0  0  0  0  0  0  0
   -1.4709   62.3703   85.2374 C   0  0  0  0  0  0  0  0  0  0  0  0
    1.3734   71.3004   80.9191 C   0  0  0  0  0  0  0  0  0  0  0  0
    2.0130   72.6064   81.3364 C   0  0  0  0  0  0  0  0  0  0  0  0
    1.4147   73.4100   82.3092 C   0  0  0  0  0  0  0  0  0  0  0  0
    2.0027   74.6208   82.6759 C   0  0  0  0  0  0  0  0  0  0  0  0
    3.1937   75.0601   82.0710 C   0  0  0  0  0  0  0  0  0  0  0  0
    3.7914   74.2721   81.0680 C   0  0  0  0  0  0  0  0  0  0  0  0
    3.2009   73.0459   80.7251 C   0  0  0  0  0  0  0  0  0  0  0  0
    3.7309   76.3718   82.5492 C   0  0  0  0  0  0  0  0  0  0  0  0
    3.4140   77.4284   82.0026 O   0  0  0  0  0  0  0  0  0  0  0  0
    4.5976   76.3589   83.6147 N   0  0  0  0  0  0  0  0  0  0  0  0
    5.2368   77.5860   83.9063 O   0  0  0  0  0  0  0  0  0  0  0  0
    5.0637   75.5051   83.9119 H   0  0  0  0  0  0  0  0  0  0  0  0
    4.8204   78.1898   83.2526 H   0  0  0  0  0  0  0  0  0  0  0  0
    4.9355   74.7452   80.4744 O   0  0  0  0  0  0  0  0  0  0  0  0
    5.5918   73.8941   79.5372 C   0  0  0  0  0  0  0  0  0  0  0  0
    3.3399   66.7480   83.7585 O   0  0  0  0  0  0  0  0  0  0  0  0
    4.5382   66.8155   84.5360 C   0  0  0  0  0  0  0  0  0  0  0  0
    4.5981   65.6566   85.5148 C   0  0  0  0  0  0  0  0  0  0  0  0
 20 21  1  0  0  0
 21 19  1  0  0  0
 19  7  1  0  0  0
  7  8  2  0  0  0
  8  9  1  0  0  0
  9 10  1  0  0  0
  9 11  1  0  0  0
 11 12  1  0  0  0
 12 13  2  0  0  0
 12 14  1  0  0  0
 14 15  1  0  0  0
 15  1  1  0  0  0
  1  2  1  0  0  0
  2  3  2  0  0  0
  3 22  1  0  0  0
 22 23  1  0  0  0
 23 24  1  0  0  0
 24 25  2  0  0  0
 25 26  1  0  0  0
 26 29  1  0  0  0
 29 30  2  0  0  0
 29 31  1  0  0  0
 31 32  1  0  0  0
 26 27  2  0  0  0
 27 35  1  0  0  0
 35 36  1  0  0  0
 27 28  1  0  0  0
  3  4  1  0  0  0
  4  5  2  0  0  0
  5  6  1  0  0  0
  6 37  1  0  0  0
 37 38  1  0  0  0
 38 39  1  0  0  0
 15 16  2  0  0  0
 16 17  1  0  0  0
 17  7  1  0  0  0
 17 11  2  0  0  0
  6  1  2  0  0  0
 28 23  2  0  0  0
 14 18  1  0  0  0
 31 33  1  0  0  0
 32 34  1  0  0  0
M  END
> <minimizedAffinity>
-1.58302

$$$$



 39 42  0  0  0  0  0  0  0  0999 V2000
    1.8725   67.6013   82.2851 C   0  0  0  0  0  0  0  0  0  0  0  0
    1.3847   68.7455   81.6232 C   0  0  0  0  0  0  0  0  0  0  0  0
    1.9053   70.0216   81.8736 C   0  0  0  0  0  0  0  0  0  0  0  0
    2.9368   70.1484   82.8040 C   0  0  0  0  0  0  0  0  0  0  0  0
    3.4480   69.0218   83.4569 C   0  0  0  0  0  0  0  0  0  0  0  0
    2.9362   67.7416   83.2016 C   0  0  0  0  0  0  0  0  0  0  0  0
   -0.2452   63.2287   83.2651 C   0  0  0  0  0  0  0  0  0  0  0  0
   -0.7486   62.2768   82.4562 N   0  0  0  0  0  0  0  0  0  0  0  0
   -0.5779   62.7805   81.2079 N   0  0  0  0  0  0  0  0  0  0  0  0
   -1.0061   62.0194   80.0591 C   0  0  0  0  0  0  0  0  0  0  0  0
    0.0126   64.0048   81.2038 C   0  0  0  0  0  0  0  0  0  0  0  0
    0.3778   64.8684   80.1428 C   0  0  0  0  0  0  0  0  0  0  0  0
    0.2044   64.6524   78.9495 O   0  0  0  0  0  0  0  0  0  0  0  0
    0.9722   66.0153   80.6169 N   0  0  0  0  0  0  0  0  0  0  0  0
    1.1849   66.2984   81.9623 C   0  0  0  0  0  0  0  0  0  0  0  0
    0.8356   65.4971   82.9344 N   0  0  0  0  0  0  0  0  0  0  0  0
    0.2315   64.3134   82.5116 C   0  0  0  0  0  0  0  0  0  0  0  0
    1.2696   66.6809   79.9152 H   0  0  0  0  0  0  0  0  0  0  0  0
   -0.2491   63.0563   84.7451 C   0  0  0  0  0  0  0  0  0  0  0  0
   -1.5385   62.2738   86.7995 C   0  0  0  0  0  0  0  0  0  0  0  0
   -1.5878   62.5708   85.3073 C   0  0  0  0  0  0  0  0  0  0  0  0
    1.3193   71.2343   81.1880 C   0  0  0  0  0  0  0  0  0  0  0  0
    2.1751   72.4724   81.3415 C   0  0  0  0  0  0  0  0  0  0  0  0
    3.3897   72.5837   80.6614 C   0  0  0  0  0  0  0  0  0  0  0  0
    4.1804   73.7217   80.8220 C   0  0  0  0  0  0  0  0  0  0  0  0
    3.7809   74.7670   81.6734 C   0  0  0  0  0  0  0  0  0  0  0  0
    2.5717   74.6539   82.3871 C   0  0  0  0  0  0  0  0  0  0  0  0
    1.7757   73.5133   82.1988 C   0  0  0  0  0  0  0  0  0  0  0  0
    4.7091   75.9369   81.7612 C   0  0  0  0  0  0  0  0  0  0  0  0
    4.6236   76.8795   80.9740 O   0  0  0  0  0  0  0  0  0  0  0  0
    5.6672   75.9220   82.7452 N   0  0  0  0  0  0  0  0  0  0  0  0
    6.6462   76.9395   82.6701 O   0  0  0  0  0  0  0  0  0  0  0  0
    5.9185   75.0644   83.2311 H   0  0  0  0  0  0  0  0  0  0  0  0
    6.3297   77.4667   81.9038 H   0  0  0  0  0  0  0  0  0  0  0  0
    2.2268   75.6772   83.2351 O   0  0  0  0  0  0  0  0  0  0  0  0
    1.1255   76.5013   82.8591 C   0  0  0  0  0  0  0  0  0  0  0  0
    3.3948   66.6096   83.8259 O   0  0  0  0  0  0  0  0  0  0  0  0
    4.6569   66.6384   84.4979 C   0  0  0  0  0  0  0  0  0  0  0  0
    4.6508   65.6774   85.6731 C   0  0  0  0  0  0  0  0  0  0  0  0
 20 21  1  0  0  0
 21 19  1  0  0  0
 19  7  1  0  0  0
  7  8  2  0  0  0
  8  9  1  0  0  0
  9 10  1  0  0  0
  9 11  1  0  0  0
 11 12  1  0  0  0
 12 13  2  0  0  0
 12 14  1  0  0  0
 14 15  1  0  0  0
 15  1  1  0  0  0
  1  2  1  0  0  0
  2  3  2  0  0  0
  3 22  1  0  0  0
 22 23  1  0  0  0
 23 24  1  0  0  0
 24 25  2  0  0  0
 25 26  1  0  0  0
 26 29  1  0  0  0
 29 30  2  0  0  0
 29 31  1  0  0  0
 31 32  1  0  0  0
 26 27  2  0  0  0
 27 35  1  0  0  0
 35 36  1  0  0  0
 27 28  1  0  0  0
  3  4  1  0  0  0
  4  5  2  0  0  0
  5  6  1  0  0  0
  6 37  1  0  0  0
 37 38  1  0  0  0
 38 39  1  0  0  0
 15 16  2  0  0  0
 16 17  1  0  0  0
 17  7  1  0  0  0
 17 11  2  0  0  0
  6  1  2  0  0  0
 28 23  2  0  0  0
 14 18  1  0  0  0
 31 33  1  0  0  0
 32 34  1  0  0  0
M  END
> <minimizedAffinity>
-1.55377

$$$$



 39 42  0  0  0  0  0  0  0  0999 V2000
    3.0367   72.4374   81.4711 C   0  0  0  0  0  0  0  0  0  0  0  0
    2.2437   73.4017   82.1242 C   0  0  0  0  0  0  0  0  0  0  0  0
    2.5387   74.7694   82.0558 C   0  0  0  0  0  0  0  0  0  0  0  0
    3.6491   75.1742   81.3149 C   0  0  0  0  0  0  0  0  0  0  0  0
    4.4371   74.2335   80.6432 C   0  0  0  0  0  0  0  0  0  0  0  0
    4.1392   72.8646   80.7013 C   0  0  0  0  0  0  0  0  0  0  0  0
    3.2154   67.9308   83.5263 C   0  0  0  0  0  0  0  0  0  0  0  0
    2.5407   66.7968   83.2568 N   0  0  0  0  0  0  0  0  0  0  0  0
    1.7089   67.1412   82.2415 N   0  0  0  0  0  0  0  0  0  0  0  0
    0.8156   66.1586   81.6771 C   0  0  0  0  0  0  0  0  0  0  0  0
    1.8380   68.4409   81.8650 C   0  0  0  0  0  0  0  0  0  0  0  0
    1.1850   69.1980   80.8623 C   0  0  0  0  0  0  0  0  0  0  0  0
    0.3147   68.7864   80.1047 O   0  0  0  0  0  0  0  0  0  0  0  0
    1.6546   70.4911   80.8302 N   0  0  0  0  0  0  0  0  0  0  0  0
    2.6387   70.9968   81.6735 C   0  0  0  0  0  0  0  0  0  0  0  0
    3.2289   70.2905   82.6020 N   0  0  0  0  0  0  0  0  0  0  0  0
    2.7953   68.9673   82.6773 C   0  0  0  0  0  0  0  0  0  0  0  0
    1.2402   71.0940   80.1312 H   0  0  0  0  0  0  0  0  0  0  0  0
    4.2428   67.9724   84.6048 C   0  0  0  0  0  0  0  0  0  0  0  0
    5.8060   66.6496   86.1218 C   0  0  0  0  0  0  0  0  0  0  0  0
    4.8056   66.5978   84.9756 C   0  0  0  0  0  0  0  0  0  0  0  0
    1.7003   75.7712   82.8157 C   0  0  0  0  0  0  0  0  0  0  0  0
    0.5515   76.3220   81.9995 C   0  0  0  0  0  0  0  0  0  0  0  0
   -0.1644   77.4354   82.4441 C   0  0  0  0  0  0  0  0  0  0  0  0
   -1.2329   77.9264   81.6935 C   0  0  0  0  0  0  0  0  0  0  0  0
   -1.6161   77.3093   80.4895 C   0  0  0  0  0  0  0  0  0  0  0  0
   -0.9200   76.1683   80.0450 C   0  0  0  0  0  0  0  0  0  0  0  0
    0.1668   75.6987   80.7989 C   0  0  0  0  0  0  0  0  0  0  0  0
   -2.7733   77.9279   79.7710 C   0  0  0  0  0  0  0  0  0  0  0  0
   -2.6006   78.6788   78.8109 O   0  0  0  0  0  0  0  0  0  0  0  0
   -4.0374   77.6373   80.2230 N   0  0  0  0  0  0  0  0  0  0  0  0
   -5.0870   78.3936   79.6523 O   0  0  0  0  0  0  0  0  0  0  0  0
   -4.1947   77.2383   81.1454 H   0  0  0  0  0  0  0  0  0  0  0  0
   -4.6062   78.9356   78.9887 H   0  0  0  0  0  0  0  0  0  0  0  0
   -1.3403   75.5702   78.8827 O   0  0  0  0  0  0  0  0  0  0  0  0
   -1.5357   74.1578   78.9020 C   0  0  0  0  0  0  0  0  0  0  0  0
    4.8890   71.9040   80.0715 O   0  0  0  0  0  0  0  0  0  0  0  0
    6.2323   72.2025   79.6819 C   0  0  0  0  0  0  0  0  0  0  0  0
    6.3822   72.0893   78.1754 C   0  0  0  0  0  0  0  0  0  0  0  0
 20 21  1  0  0  0
 21 19  1  0  0  0
 19  7  1  0  0  0
  7  8  2  0  0  0
  8  9  1  0  0  0
  9 10  1  0  0  0
  9 11  1  0  0  0
 11 12  1  0  0  0
 12 13  2  0  0  0
 12 14  1  0  0  0
 14 15  1  0  0  0
 15  1  1  0  0  0
  1  2  1  0  0  0
  2  3  2  0  0  0
  3 22  1  0  0  0
 22 23  1  0  0  0
 23 24  1  0  0  0
 24 25  2  0  0  0
 25 26  1  0  0  0
 26 29  1  0  0  0
 29 30  2  0  0  0
 29 31  1  0  0  0
 31 32  1  0  0  0
 26 27  2  0  0  0
 27 35  1  0  0  0
 35 36  1  0  0  0
 27 28  1  0  0  0
  3  4  1  0  0  0
  4  5  2  0  0  0
  5  6  1  0  0  0
  6 37  1  0  0  0
 37 38  1  0  0  0
 38 39  1  0  0  0
 15 16  2  0  0  0
 16 17  1  0  0  0
 17  7  1  0  0  0
 17 11  2  0  0  0
  6  1  2  0  0  0
 28 23  2  0  0  0
 14 18  1  0  0  0
 31 33  1  0  0  0
 32 34  1  0  0  0
M  END
> <minimizedAffinity>
-1.54216

$$$$



 39 42  0  0  0  0  0  0  0  0999 V2000
    1.8781   69.0286   81.4874 C   0  0  0  0  0  0  0  0  0  0  0  0
    1.1421   68.3624   80.4875 C   0  0  0  0  0  0  0  0  0  0  0  0
    1.0131   66.9676   80.4713 C   0  0  0  0  0  0  0  0  0  0  0  0
    1.6330   66.2305   81.4804 C   0  0  0  0  0  0  0  0  0  0  0  0
    2.3515   66.8751   82.4929 C   0  0  0  0  0  0  0  0  0  0  0  0
    2.4745   68.2716   82.5180 C   0  0  0  0  0  0  0  0  0  0  0  0
    4.1066   73.3499   80.5257 C   0  0  0  0  0  0  0  0  0  0  0  0
    3.6714   74.6212   80.6170 N   0  0  0  0  0  0  0  0  0  0  0  0
    2.3871   74.5008   81.0381 N   0  0  0  0  0  0  0  0  0  0  0  0
    1.5862   75.6814   81.2543 C   0  0  0  0  0  0  0  0  0  0  0  0
    2.0038   73.2088   81.2156 C   0  0  0  0  0  0  0  0  0  0  0  0
    0.7793   72.6425   81.6453 C   0  0  0  0  0  0  0  0  0  0  0  0
   -0.2322   73.2643   81.9473 O   0  0  0  0  0  0  0  0  0  0  0  0
    0.8547   71.2693   81.6903 N   0  0  0  0  0  0  0  0  0  0  0  0
    1.9823   70.5273   81.3537 C   0  0  0  0  0  0  0  0  0  0  0  0
    3.1055   71.0606   80.9497 N   0  0  0  0  0  0  0  0  0  0  0  0
    3.0888   72.4538   80.8896 C   0  0  0  0  0  0  0  0  0  0  0  0
    0.0176   70.7910   81.9973 H   0  0  0  0  0  0  0  0  0  0  0  0
    5.4963   73.0464   80.0818 C   0  0  0  0  0  0  0  0  0  0  0  0
    7.3911   74.7093   79.7083 C   0  0  0  0  0  0  0  0  0  0  0  0
    6.0994   74.1143   79.1654 C   0  0  0  0  0  0  0  0  0  0  0  0
    0.2645   66.2821   79.3517 C   0  0  0  0  0  0  0  0  0  0  0  0
   -0.3022   64.9383   79.7543 C   0  0  0  0  0  0  0  0  0  0  0  0
   -0.9295   64.7750   80.9911 C   0  0  0  0  0  0  0  0  0  0  0  0
   -1.4342   63.5282   81.3612 C   0  0  0  0  0  0  0  0  0  0  0  0
   -1.3131   62.4161   80.5093 C   0  0  0  0  0  0  0  0  0  0  0  0
   -0.6570   62.5613   79.2713 C   0  0  0  0  0  0  0  0  0  0  0  0
   -0.1738   63.8265   78.9026 C   0  0  0  0  0  0  0  0  0  0  0  0
   -1.8962   61.1337   81.0127 C   0  0  0  0  0  0  0  0  0  0  0  0
   -1.4066   60.5452   81.9768 O   0  0  0  0  0  0  0  0  0  0  0  0
   -2.9929   60.6282   80.3581 N   0  0  0  0  0  0  0  0  0  0  0  0
   -3.3887   59.3232   80.7321 O   0  0  0  0  0  0  0  0  0  0  0  0
   -3.2531   60.9489   79.4286 H   0  0  0  0  0  0  0  0  0  0  0  0
   -2.7590   59.1229   81.4591 H   0  0  0  0  0  0  0  0  0  0  0  0
   -0.5265   61.4485   78.4776 O   0  0  0  0  0  0  0  0  0  0  0  0
   -0.9813   61.5440   77.1295 C   0  0  0  0  0  0  0  0  0  0  0  0
    3.1791   68.9478   83.4813 O   0  0  0  0  0  0  0  0  0  0  0  0
    3.6143   68.2531   84.6531 C   0  0  0  0  0  0  0  0  0  0  0  0
    5.0899   67.9123   84.5469 C   0  0  0  0  0  0  0  0  0  0  0  0
 20 21  1  0  0  0
 21 19  1  0  0  0
 19  7  1  0  0  0
  7  8  2  0  0  0
  8  9  1  0  0  0
  9 10  1  0  0  0
  9 11  1  0  0  0
 11 12  1  0  0  0
 12 13  2  0  0  0
 12 14  1  0  0  0
 14 15  1  0  0  0
 15  1  1  0  0  0
  1  2  1  0  0  0
  2  3  2  0  0  0
  3 22  1  0  0  0
 22 23  1  0  0  0
 23 24  1  0  0  0
 24 25  2  0  0  0
 25 26  1  0  0  0
 26 29  1  0  0  0
 29 30  2  0  0  0
 29 31  1  0  0  0
 31 32  1  0  0  0
 26 27  2  0  0  0
 27 35  1  0  0  0
 35 36  1  0  0  0
 27 28  1  0  0  0
  3  4  1  0  0  0
  4  5  2  0  0  0
  5  6  1  0  0  0
  6 37  1  0  0  0
 37 38  1  0  0  0
 38 39  1  0  0  0
 15 16  2  0  0  0
 16 17  1  0  0  0
 17  7  1  0  0  0
 17 11  2  0  0  0
  6  1  2  0  0  0
 28 23  2  0  0  0
 14 18  1  0  0  0
 31 33  1  0  0  0
 32 34  1  0  0  0
M  END
> <minimizedAffinity>
-1.47331

$$$$



 39 42  0  0  0  0  0  0  0  0999 V2000
    1.1277   66.5130   81.8638 C   0  0  0  0  0  0  0  0  0  0  0  0
    1.6414   67.6541   82.5112 C   0  0  0  0  0  0  0  0  0  0  0  0
    2.2216   68.7100   81.7967 C   0  0  0  0  0  0  0  0  0  0  0  0
    2.2834   68.6176   80.4062 C   0  0  0  0  0  0  0  0  0  0  0  0
    1.7609   67.5017   79.7438 C   0  0  0  0  0  0  0  0  0  0  0  0
    1.1705   66.4473   80.4550 C   0  0  0  0  0  0  0  0  0  0  0  0
   -1.6690   62.5957   83.0465 C   0  0  0  0  0  0  0  0  0  0  0  0
   -1.8248   61.9238   84.2032 N   0  0  0  0  0  0  0  0  0  0  0  0
   -0.9870   62.5529   85.0656 N   0  0  0  0  0  0  0  0  0  0  0  0
   -0.8868   62.1003   86.4320 C   0  0  0  0  0  0  0  0  0  0  0  0
   -0.3174   63.5899   84.4964 C   0  0  0  0  0  0  0  0  0  0  0  0
    0.6275   64.5020   85.0258 C   0  0  0  0  0  0  0  0  0  0  0  0
    1.0479   64.5129   86.1764 O   0  0  0  0  0  0  0  0  0  0  0  0
    1.0330   65.4077   84.0724 N   0  0  0  0  0  0  0  0  0  0  0  0
    0.5816   65.4271   82.7567 C   0  0  0  0  0  0  0  0  0  0  0  0
   -0.2850   64.5742   82.2763 N   0  0  0  0  0  0  0  0  0  0  0  0
   -0.7360   63.6335   83.2017 C   0  0  0  0  0  0  0  0  0  0  0  0
    1.7045   66.0999   84.3785 H   0  0  0  0  0  0  0  0  0  0  0  0
   -2.4275   62.2038   81.8252 C   0  0  0  0  0  0  0  0  0  0  0  0
   -2.8717   60.3939   80.0868 C   0  0  0  0  0  0  0  0  0  0  0  0
   -2.2574   60.7324   81.4378 C   0  0  0  0  0  0  0  0  0  0  0  0
    2.8144   69.8928   82.5272 C   0  0  0  0  0  0  0  0  0  0  0  0
    2.2572   71.2187   82.0574 C   0  0  0  0  0  0  0  0  0  0  0  0
    0.8792   71.4444   82.0451 C   0  0  0  0  0  0  0  0  0  0  0  0
    0.3734   72.6639   81.5944 C   0  0  0  0  0  0  0  0  0  0  0  0
    1.2318   73.6790   81.1360 C   0  0  0  0  0  0  0  0  0  0  0  0
    2.6219   73.4527   81.1165 C   0  0  0  0  0  0  0  0  0  0  0  0
    3.1181   72.2295   81.5936 C   0  0  0  0  0  0  0  0  0  0  0  0
    0.5737   74.9433   80.6817 C   0  0  0  0  0  0  0  0  0  0  0  0
    0.3460   75.1515   79.4900 O   0  0  0  0  0  0  0  0  0  0  0  0
    0.2385   75.8704   81.6383 N   0  0  0  0  0  0  0  0  0  0  0  0
   -0.1925   77.1278   81.1560 O   0  0  0  0  0  0  0  0  0  0  0  0
    0.6364   75.8381   82.5738 H   0  0  0  0  0  0  0  0  0  0  0  0
   -0.1918   76.9814   80.1845 H   0  0  0  0  0  0  0  0  0  0  0  0
    3.4299   74.4517   80.6322 O   0  0  0  0  0  0  0  0  0  0  0  0
    4.7143   74.6088   81.2314 C   0  0  0  0  0  0  0  0  0  0  0  0
    0.6570   65.3275   79.8519 O   0  0  0  0  0  0  0  0  0  0  0  0
   -0.1662   65.4678   78.6910 C   0  0  0  0  0  0  0  0  0  0  0  0
   -0.4084   64.1134   78.0491 C   0  0  0  0  0  0  0  0  0  0  0  0
 20 21  1  0  0  0
 21 19  1  0  0  0
 19  7  1  0  0  0
  7  8  2  0  0  0
  8  9  1  0  0  0
  9 10  1  0  0  0
  9 11  1  0  0  0
 11 12  1  0  0  0
 12 13  2  0  0  0
 12 14  1  0  0  0
 14 15  1  0  0  0
 15  1  1  0  0  0
  1  2  1  0  0  0
  2  3  2  0  0  0
  3 22  1  0  0  0
 22 23  1  0  0  0
 23 24  1  0  0  0
 24 25  2  0  0  0
 25 26  1  0  0  0
 26 29  1  0  0  0
 29 30  2  0  0  0
 29 31  1  0  0  0
 31 32  1  0  0  0
 26 27  2  0  0  0
 27 35  1  0  0  0
 35 36  1  0  0  0
 27 28  1  0  0  0
  3  4  1  0  0  0
  4  5  2  0  0  0
  5  6  1  0  0  0
  6 37  1  0  0  0
 37 38  1  0  0  0
 38 39  1  0  0  0
 15 16  2  0  0  0
 16 17  1  0  0  0
 17  7  1  0  0  0
 17 11  2  0  0  0
  6  1  2  0  0  0
 28 23  2  0  0  0
 14 18  1  0  0  0
 31 33  1  0  0  0
 32 34  1  0  0  0
M  END
> <minimizedAffinity>
-1.46025

$$$$



 39 42  0  0  0  0  0  0  0  0999 V2000
    1.1109   66.4654   81.8858 C   0  0  0  0  0  0  0  0  0  0  0  0
    1.6727   67.5878   82.5260 C   0  0  0  0  0  0  0  0  0  0  0  0
    2.2602   68.6334   81.8022 C   0  0  0  0  0  0  0  0  0  0  0  0
    2.2801   68.5497   80.4100 C   0  0  0  0  0  0  0  0  0  0  0  0
    1.7097   67.4528   79.7553 C   0  0  0  0  0  0  0  0  0  0  0  0
    1.1120   66.4091   80.4759 C   0  0  0  0  0  0  0  0  0  0  0  0
   -1.7397   62.6017   83.1152 C   0  0  0  0  0  0  0  0  0  0  0  0
   -1.8846   61.9289   84.2729 N   0  0  0  0  0  0  0  0  0  0  0  0
   -1.0160   62.5376   85.1192 N   0  0  0  0  0  0  0  0  0  0  0  0
   -0.8961   62.0781   86.4818 C   0  0  0  0  0  0  0  0  0  0  0  0
   -0.3375   63.5628   84.5393 C   0  0  0  0  0  0  0  0  0  0  0  0
    0.6369   64.4534   85.0512 C   0  0  0  0  0  0  0  0  0  0  0  0
    1.0817   64.4516   86.1927 O   0  0  0  0  0  0  0  0  0  0  0  0
    1.0405   65.3542   84.0924 N   0  0  0  0  0  0  0  0  0  0  0  0
    0.5617   65.3876   82.7867 C   0  0  0  0  0  0  0  0  0  0  0  0
   -0.3322   64.5543   82.3221 N   0  0  0  0  0  0  0  0  0  0  0  0
   -0.7826   63.6197   83.2539 C   0  0  0  0  0  0  0  0  0  0  0  0
    1.7324   66.0315   84.3863 H   0  0  0  0  0  0  0  0  0  0  0  0
   -2.5318   62.2297   81.9092 C   0  0  0  0  0  0  0  0  0  0  0  0
   -2.5965   60.7115   79.8633 C   0  0  0  0  0  0  0  0  0  0  0  0
   -1.7244   61.4790   80.8469 C   0  0  0  0  0  0  0  0  0  0  0  0
    2.9044   69.7947   82.5234 C   0  0  0  0  0  0  0  0  0  0  0  0
    2.4145   71.1403   82.0350 C   0  0  0  0  0  0  0  0  0  0  0  0
    3.3206   72.1630   81.7469 C   0  0  0  0  0  0  0  0  0  0  0  0
    2.8590   73.4059   81.3132 C   0  0  0  0  0  0  0  0  0  0  0  0
    1.4831   73.6575   81.1690 C   0  0  0  0  0  0  0  0  0  0  0  0
    0.5578   72.6431   81.4840 C   0  0  0  0  0  0  0  0  0  0  0  0
    1.0374   71.3906   81.8979 C   0  0  0  0  0  0  0  0  0  0  0  0
    1.1095   75.0257   80.6933 C   0  0  0  0  0  0  0  0  0  0  0  0
    1.0906   75.3009   79.4935 O   0  0  0  0  0  0  0  0  0  0  0  0
    0.7954   75.9696   81.6404 N   0  0  0  0  0  0  0  0  0  0  0  0
    0.6463   77.2938   81.1675 O   0  0  0  0  0  0  0  0  0  0  0  0
    1.0453   75.8463   82.6186 H   0  0  0  0  0  0  0  0  0  0  0  0
    0.7620   77.1756   80.1990 H   0  0  0  0  0  0  0  0  0  0  0  0
   -0.7792   72.9317   81.3640 O   0  0  0  0  0  0  0  0  0  0  0  0
   -1.4733   72.3846   80.2449 C   0  0  0  0  0  0  0  0  0  0  0  0
    0.5523   65.3076   79.8803 O   0  0  0  0  0  0  0  0  0  0  0  0
   -0.2063   65.4662   78.6784 C   0  0  0  0  0  0  0  0  0  0  0  0
   -0.2646   64.1556   77.9144 C   0  0  0  0  0  0  0  0  0  0  0  0
 20 21  1  0  0  0
 21 19  1  0  0  0
 19  7  1  0  0  0
  7  8  2  0  0  0
  8  9  1  0  0  0
  9 10  1  0  0  0
  9 11  1  0  0  0
 11 12  1  0  0  0
 12 13  2  0  0  0
 12 14  1  0  0  0
 14 15  1  0  0  0
 15  1  1  0  0  0
  1  2  1  0  0  0
  2  3  2  0  0  0
  3 22  1  0  0  0
 22 23  1  0  0  0
 23 24  1  0  0  0
 24 25  2  0  0  0
 25 26  1  0  0  0
 26 29  1  0  0  0
 29 30  2  0  0  0
 29 31  1  0  0  0
 31 32  1  0  0  0
 26 27  2  0  0  0
 27 35  1  0  0  0
 35 36  1  0  0  0
 27 28  1  0  0  0
  3  4  1  0  0  0
  4  5  2  0  0  0
  5  6  1  0  0  0
  6 37  1  0  0  0
 37 38  1  0  0  0
 38 39  1  0  0  0
 15 16  2  0  0  0
 16 17  1  0  0  0
 17  7  1  0  0  0
 17 11  2  0  0  0
  6  1  2  0  0  0
 28 23  2  0  0  0
 14 18  1  0  0  0
 31 33  1  0  0  0
 32 34  1  0  0  0
M  END
> <minimizedAffinity>
-1.44798

$$$$



 39 42  0  0  0  0  0  0  0  0999 V2000
    0.6384   65.4241   81.9436 C   0  0  0  0  0  0  0  0  0  0  0  0
    0.8490   66.3741   80.9246 C   0  0  0  0  0  0  0  0  0  0  0  0
    1.6010   67.5357   81.1420 C   0  0  0  0  0  0  0  0  0  0  0  0
    2.1532   67.7438   82.4060 C   0  0  0  0  0  0  0  0  0  0  0  0
    1.9718   66.8026   83.4249 C   0  0  0  0  0  0  0  0  0  0  0  0
    1.2281   65.6339   83.2082 C   0  0  0  0  0  0  0  0  0  0  0  0
   -1.5358   62.1314   78.9442 C   0  0  0  0  0  0  0  0  0  0  0  0
   -2.4090   61.1362   79.1908 N   0  0  0  0  0  0  0  0  0  0  0  0
   -2.5914   61.1827   80.5346 N   0  0  0  0  0  0  0  0  0  0  0  0
   -3.4839   60.2460   81.1734 C   0  0  0  0  0  0  0  0  0  0  0  0
   -1.8709   62.1660   81.1360 C   0  0  0  0  0  0  0  0  0  0  0  0
   -1.7735   62.5647   82.4912 C   0  0  0  0  0  0  0  0  0  0  0  0
   -2.3592   62.0484   83.4352 O   0  0  0  0  0  0  0  0  0  0  0  0
   -0.9209   63.6353   82.6348 N   0  0  0  0  0  0  0  0  0  0  0  0
   -0.2364   64.2475   81.5899 C   0  0  0  0  0  0  0  0  0  0  0  0
   -0.3273   63.8652   80.3430 N   0  0  0  0  0  0  0  0  0  0  0  0
   -1.1841   62.7845   80.1364 C   0  0  0  0  0  0  0  0  0  0  0  0
   -0.8053   63.9842   83.5776 H   0  0  0  0  0  0  0  0  0  0  0  0
   -1.0661   62.4119   77.5582 C   0  0  0  0  0  0  0  0  0  0  0  0
   -0.7213   60.1644   76.4072 C   0  0  0  0  0  0  0  0  0  0  0  0
   -1.5821   61.4150   76.5171 C   0  0  0  0  0  0  0  0  0  0  0  0
    1.7587   68.5612   80.0432 C   0  0  0  0  0  0  0  0  0  0  0  0
    1.8700   69.9766   80.5658 C   0  0  0  0  0  0  0  0  0  0  0  0
    0.7566   70.6219   81.1083 C   0  0  0  0  0  0  0  0  0  0  0  0
    0.8642   71.9330   81.5724 C   0  0  0  0  0  0  0  0  0  0  0  0
    2.0823   72.6312   81.4942 C   0  0  0  0  0  0  0  0  0  0  0  0
    3.2052   72.0012   80.9229 C   0  0  0  0  0  0  0  0  0  0  0  0
    3.0881   70.6744   80.4804 C   0  0  0  0  0  0  0  0  0  0  0  0
    2.0762   74.0290   82.0273 C   0  0  0  0  0  0  0  0  0  0  0  0
    2.4656   74.2783   83.1682 O   0  0  0  0  0  0  0  0  0  0  0  0
    1.6133   75.0264   81.2042 N   0  0  0  0  0  0  0  0  0  0  0  0
    1.4339   76.2924   81.8079 O   0  0  0  0  0  0  0  0  0  0  0  0
    1.0613   74.8197   80.3752 H   0  0  0  0  0  0  0  0  0  0  0  0
    1.7650   76.1295   82.7185 H   0  0  0  0  0  0  0  0  0  0  0  0
    4.3703   72.7218   80.8315 O   0  0  0  0  0  0  0  0  0  0  0  0
    5.2927   72.3558   79.8075 C   0  0  0  0  0  0  0  0  0  0  0  0
    1.0113   64.6891   84.1786 O   0  0  0  0  0  0  0  0  0  0  0  0
    1.2609   65.0164   85.5482 C   0  0  0  0  0  0  0  0  0  0  0  0
    0.6849   63.9476   86.4595 C   0  0  0  0  0  0  0  0  0  0  0  0
 20 21  1  0  0  0
 21 19  1  0  0  0
 19  7  1  0  0  0
  7  8  2  0  0  0
  8  9  1  0  0  0
  9 10  1  0  0  0
  9 11  1  0  0  0
 11 12  1  0  0  0
 12 13  2  0  0  0
 12 14  1  0  0  0
 14 15  1  0  0  0
 15  1  1  0  0  0
  1  2  1  0  0  0
  2  3  2  0  0  0
  3 22  1  0  0  0
 22 23  1  0  0  0
 23 24  1  0  0  0
 24 25  2  0  0  0
 25 26  1  0  0  0
 26 29  1  0  0  0
 29 30  2  0  0  0
 29 31  1  0  0  0
 31 32  1  0  0  0
 26 27  2  0  0  0
 27 35  1  0  0  0
 35 36  1  0  0  0
 27 28  1  0  0  0
  3  4  1  0  0  0
  4  5  2  0  0  0
  5  6  1  0  0  0
  6 37  1  0  0  0
 37 38  1  0  0  0
 38 39  1  0  0  0
 15 16  2  0  0  0
 16 17  1  0  0  0
 17  7  1  0  0  0
 17 11  2  0  0  0
  6  1  2  0  0  0
 28 23  2  0  0  0
 14 18  1  0  0  0
 31 33  1  0  0  0
 32 34  1  0  0  0
M  END
> <minimizedAffinity>
-1.44033

$$$$
