


 38 41  0  0  0  0  0  0  0  0999 V2000
    2.3579   69.1636   82.2219 C   0  0  0  0  0  0  0  0  0  0  0  0
    3.6087   69.3898   82.7573 C   0  0  0  0  0  0  0  0  0  0  0  0
    4.1687   68.5761   83.6833 N   0  0  0  0  0  0  0  0  0  0  0  0
    3.4439   67.5102   84.1047 C   0  0  0  0  0  0  0  0  0  0  0  0
    2.1656   67.2052   83.6236 C   0  0  0  0  0  0  0  0  0  0  0  0
    1.6172   68.0698   82.6638 C   0  0  0  0  0  0  0  0  0  0  0  0
    1.3497   66.0226   84.0516 C   0  0  0  0  0  0  0  0  0  0  0  0
    0.6015   65.4204   83.1680 N   0  0  0  0  0  0  0  0  0  0  0  0
   -0.1209   64.3379   83.6690 C   0  0  0  0  0  0  0  0  0  0  0  0
   -0.9936   63.5208   83.0013 C   0  0  0  0  0  0  0  0  0  0  0  0
   -1.4228   62.6322   83.9635 N   0  0  0  0  0  0  0  0  0  0  0  0
   -2.3625   61.5476   83.7938 C   0  0  0  0  0  0  0  0  0  0  0  0
   -0.8682   62.8325   85.1837 N   0  0  0  0  0  0  0  0  0  0  0  0
   -0.0715   63.8931   84.9934 C   0  0  0  0  0  0  0  0  0  0  0  0
    0.7709   64.5677   85.9543 C   0  0  0  0  0  0  0  0  0  0  0  0
    0.9160   64.2697   87.1361 O   0  0  0  0  0  0  0  0  0  0  0  0
    1.4398   65.6357   85.3850 N   0  0  0  0  0  0  0  0  0  0  0  0
    2.0506   66.1297   86.0234 H   0  0  0  0  0  0  0  0  0  0  0  0
   -1.4375   63.5165   81.5810 C   0  0  0  0  0  0  0  0  0  0  0  0
   -0.3955   62.8874   80.6691 C   0  0  0  0  0  0  0  0  0  0  0  0
    1.7224   70.2980   81.0370 S   0  0  0  0  0  0  0  0  0  0  0  0
    0.8515   69.5428   80.1625 O   0  0  0  0  0  0  0  0  0  0  0  0
    2.8298   71.0601   80.5047 O   0  0  0  0  0  0  0  0  0  0  0  0
   -0.6609   73.5507   80.6775 N   0  0  0  0  0  0  0  0  0  0  0  0
    0.7852   73.6344   80.9444 C   0  0  0  0  0  0  0  0  0  0  0  0
    1.2118   72.7487   82.1354 C   0  0  0  0  0  0  0  0  0  0  0  0
    0.7623   71.3263   81.9899 N   0  0  0  0  0  0  0  0  0  0  0  0
   -0.7047   71.2781   81.6870 C   0  0  0  0  0  0  0  0  0  0  0  0
   -1.0678   72.1497   80.4703 C   0  0  0  0  0  0  0  0  0  0  0  0
   -1.1059   74.4487   79.6041 C   0  0  0  0  0  0  0  0  0  0  0  0
   -1.8733   74.4177   77.2030 C   0  0  0  0  0  0  0  0  0  0  0  0
   -2.1328   73.8917   78.6084 C   0  0  0  0  0  0  0  0  0  0  0  0
    4.0199   66.6672   85.0330 O   0  0  0  0  0  0  0  0  0  0  0  0
    5.3995   66.9297   85.3492 C   0  0  0  0  0  0  0  0  0  0  0  0
    5.4354   67.2670   86.8414 C   0  0  0  0  0  0  0  0  0  0  0  0
    6.2667   65.6965   85.0507 C   0  0  0  0  0  0  0  0  0  0  0  0
    7.5812   65.8766   85.5795 O   0  0  0  0  0  0  0  0  0  0  0  0
    8.3703   66.7167   84.7477 C   0  0  0  0  0  0  0  0  0  0  0  0
 31 32  1  0  0  0
 32 30  1  0  0  0
 30 24  1  0  0  0
 24 25  1  0  0  0
 25 26  1  0  0  0
 26 27  1  0  0  0
 27 21  1  0  0  0
 21 22  2  0  0  0
 21 23  2  0  0  0
 21  1  1  0  0  0
  1  2  1  0  0  0
  2  3  2  0  0  0
  3  4  1  0  0  0
  4 33  1  0  0  0
 33 34  1  0  0  0
 34 35  1  0  0  0
 34 36  1  0  0  0
 36 37  1  0  0  0
 37 38  1  0  0  0
  4  5  2  0  0  0
  5  7  1  0  0  0
  7  8  2  0  0  0
  8  9  1  0  0  0
  9 10  2  0  0  0
 10 19  1  0  0  0
 19 20  1  0  0  0
 10 11  1  0  0  0
 11 12  1  0  0  0
 11 13  1  0  0  0
 13 14  2  0  0  0
 14 15  1  0  0  0
 15 16  2  0  0  0
 15 17  1  0  0  0
  5  6  1  0  0  0
 27 28  1  0  0  0
 28 29  1  0  0  0
 29 24  1  0  0  0
  6  1  2  0  0  0
 17  7  1  0  0  0
 14  9  1  0  0  0
 17 18  1  0  0  0
M  END
> <minimizedAffinity>
-9.15454

$$$$



 38 41  0  0  0  0  0  0  0  0999 V2000
   -0.4694   62.4171   82.8921 C   0  0  0  0  0  0  0  0  0  0  0  0
   -0.9591   61.9700   84.1014 C   0  0  0  0  0  0  0  0  0  0  0  0
   -0.7219   62.6096   85.2709 N   0  0  0  0  0  0  0  0  0  0  0  0
    0.0498   63.7241   85.2331 C   0  0  0  0  0  0  0  0  0  0  0  0
    0.5947   64.2478   84.0553 C   0  0  0  0  0  0  0  0  0  0  0  0
    0.3271   63.5595   82.8619 C   0  0  0  0  0  0  0  0  0  0  0  0
    1.4311   65.4897   83.9775 C   0  0  0  0  0  0  0  0  0  0  0  0
    1.0308   66.4722   83.2177 N   0  0  0  0  0  0  0  0  0  0  0  0
    1.8822   67.5767   83.2108 C   0  0  0  0  0  0  0  0  0  0  0  0
    1.7456   68.7464   82.5120 C   0  0  0  0  0  0  0  0  0  0  0  0
    2.8590   69.4785   82.8643 N   0  0  0  0  0  0  0  0  0  0  0  0
    3.2141   70.8025   82.4073 C   0  0  0  0  0  0  0  0  0  0  0  0
    3.6751   68.8494   83.7444 N   0  0  0  0  0  0  0  0  0  0  0  0
    3.0672   67.6722   83.9462 C   0  0  0  0  0  0  0  0  0  0  0  0
    3.4881   66.5767   84.7894 C   0  0  0  0  0  0  0  0  0  0  0  0
    4.4924   66.5402   85.4940 O   0  0  0  0  0  0  0  0  0  0  0  0
    2.6014   65.5173   84.7294 N   0  0  0  0  0  0  0  0  0  0  0  0
    2.8545   64.7318   85.3156 H   0  0  0  0  0  0  0  0  0  0  0  0
    0.6874   69.2066   81.5725 C   0  0  0  0  0  0  0  0  0  0  0  0
    0.9822   68.7806   80.1426 C   0  0  0  0  0  0  0  0  0  0  0  0
   -0.8267   61.4954   81.4369 S   0  0  0  0  0  0  0  0  0  0  0  0
   -1.7450   60.4461   81.8233 O   0  0  0  0  0  0  0  0  0  0  0  0
    0.4247   61.1836   80.7832 O   0  0  0  0  0  0  0  0  0  0  0  0
   -2.2307   61.9566   77.6678 N   0  0  0  0  0  0  0  0  0  0  0  0
   -0.8867   62.3888   78.0878 C   0  0  0  0  0  0  0  0  0  0  0  0
   -0.9253   63.2672   79.3573 C   0  0  0  0  0  0  0  0  0  0  0  0
   -1.6715   62.6218   80.4858 N   0  0  0  0  0  0  0  0  0  0  0  0
   -3.0198   62.1652   80.0173 C   0  0  0  0  0  0  0  0  0  0  0  0
   -2.9193   61.2648   78.7718 C   0  0  0  0  0  0  0  0  0  0  0  0
   -2.2291   61.1909   76.4149 C   0  0  0  0  0  0  0  0  0  0  0  0
   -1.3833   58.8161   76.4099 C   0  0  0  0  0  0  0  0  0  0  0  0
   -2.6144   59.7076   76.5023 C   0  0  0  0  0  0  0  0  0  0  0  0
    0.2764   64.3902   86.4202 O   0  0  0  0  0  0  0  0  0  0  0  0
    0.4453   63.5600   87.5840 C   0  0  0  0  0  0  0  0  0  0  0  0
    1.9221   63.6679   87.9706 C   0  0  0  0  0  0  0  0  0  0  0  0
   -0.4529   64.0482   88.7314 C   0  0  0  0  0  0  0  0  0  0  0  0
   -1.4055   63.0415   89.0764 O   0  0  0  0  0  0  0  0  0  0  0  0
   -2.2789   62.7529   87.9928 C   0  0  0  0  0  0  0  0  0  0  0  0
 31 32  1  0  0  0
 32 30  1  0  0  0
 30 24  1  0  0  0
 24 25  1  0  0  0
 25 26  1  0  0  0
 26 27  1  0  0  0
 27 21  1  0  0  0
 21 22  2  0  0  0
 21 23  2  0  0  0
 21  1  1  0  0  0
  1  2  1  0  0  0
  2  3  2  0  0  0
  3  4  1  0  0  0
  4 33  1  0  0  0
 33 34  1  0  0  0
 34 35  1  0  0  0
 34 36  1  0  0  0
 36 37  1  0  0  0
 37 38  1  0  0  0
  4  5  2  0  0  0
  5  7  1  0  0  0
  7  8  2  0  0  0
  8  9  1  0  0  0
  9 10  2  0  0  0
 10 19  1  0  0  0
 19 20  1  0  0  0
 10 11  1  0  0  0
 11 12  1  0  0  0
 11 13  1  0  0  0
 13 14  2  0  0  0
 14 15  1  0  0  0
 15 16  2  0  0  0
 15 17  1  0  0  0
  5  6  1  0  0  0
 27 28  1  0  0  0
 28 29  1  0  0  0
 29 24  1  0  0  0
  6  1  2  0  0  0
 17  7  1  0  0  0
 14  9  1  0  0  0
 17 18  1  0  0  0
M  END
> <minimizedAffinity>
-8.93188

$$$$



 38 41  0  0  0  0  0  0  0  0999 V2000
   -0.3877   62.5188   82.6245 C   0  0  0  0  0  0  0  0  0  0  0  0
   -1.1495   62.1414   83.7105 C   0  0  0  0  0  0  0  0  0  0  0  0
   -1.0313   62.7229   84.9274 N   0  0  0  0  0  0  0  0  0  0  0  0
   -0.1039   63.7020   85.0694 C   0  0  0  0  0  0  0  0  0  0  0  0
    0.7177   64.1460   84.0271 C   0  0  0  0  0  0  0  0  0  0  0  0
    0.5667   63.5214   82.7794 C   0  0  0  0  0  0  0  0  0  0  0  0
    1.7347   65.2411   84.1460 C   0  0  0  0  0  0  0  0  0  0  0  0
    2.8244   65.0175   84.8285 N   0  0  0  0  0  0  0  0  0  0  0  0
    3.7005   66.1011   84.8829 C   0  0  0  0  0  0  0  0  0  0  0  0
    4.9074   66.1823   85.5247 C   0  0  0  0  0  0  0  0  0  0  0  0
    5.3411   67.4638   85.2606 N   0  0  0  0  0  0  0  0  0  0  0  0
    6.5706   68.0788   85.7058 C   0  0  0  0  0  0  0  0  0  0  0  0
    4.4918   68.1837   84.4881 N   0  0  0  0  0  0  0  0  0  0  0  0
    3.4777   67.3360   84.2665 C   0  0  0  0  0  0  0  0  0  0  0  0
    2.2690   67.5602   83.5071 C   0  0  0  0  0  0  0  0  0  0  0  0
    1.9616   68.5863   82.9078 O   0  0  0  0  0  0  0  0  0  0  0  0
    1.4485   66.4471   83.5141 N   0  0  0  0  0  0  0  0  0  0  0  0
    0.5942   66.5591   82.9829 H   0  0  0  0  0  0  0  0  0  0  0  0
    5.6520   65.1831   86.3378 C   0  0  0  0  0  0  0  0  0  0  0  0
    5.4181   65.3846   87.8270 C   0  0  0  0  0  0  0  0  0  0  0  0
   -0.6145   61.6808   81.0944 S   0  0  0  0  0  0  0  0  0  0  0  0
   -1.3611   60.4762   81.3857 O   0  0  0  0  0  0  0  0  0  0  0  0
    0.6640   61.6179   80.4221 O   0  0  0  0  0  0  0  0  0  0  0  0
   -2.6427   61.9125   77.5983 N   0  0  0  0  0  0  0  0  0  0  0  0
   -1.2548   62.3785   77.7595 C   0  0  0  0  0  0  0  0  0  0  0  0
   -1.0938   63.3286   78.9663 C   0  0  0  0  0  0  0  0  0  0  0  0
   -1.6273   62.7438   80.2391 N   0  0  0  0  0  0  0  0  0  0  0  0
   -3.0272   62.2504   80.0322 C   0  0  0  0  0  0  0  0  0  0  0  0
   -3.1228   61.2803   78.8398 C   0  0  0  0  0  0  0  0  0  0  0  0
   -2.8393   61.0756   76.4078 C   0  0  0  0  0  0  0  0  0  0  0  0
   -1.5006   58.9394   76.4077 C   0  0  0  0  0  0  0  0  0  0  0  0
   -2.8767   59.5558   76.6208 C   0  0  0  0  0  0  0  0  0  0  0  0
    0.0049   64.3110   86.3029 O   0  0  0  0  0  0  0  0  0  0  0  0
    0.1221   63.4262   87.4322 C   0  0  0  0  0  0  0  0  0  0  0  0
    1.5181   63.6629   88.0128 C   0  0  0  0  0  0  0  0  0  0  0  0
   -0.9603   63.7377   88.4778 C   0  0  0  0  0  0  0  0  0  0  0  0
   -1.9628   62.7205   88.4698 O   0  0  0  0  0  0  0  0  0  0  0  0
   -2.8839   62.9006   87.4022 C   0  0  0  0  0  0  0  0  0  0  0  0
 31 32  1  0  0  0
 32 30  1  0  0  0
 30 24  1  0  0  0
 24 25  1  0  0  0
 25 26  1  0  0  0
 26 27  1  0  0  0
 27 21  1  0  0  0
 21 22  2  0  0  0
 21 23  2  0  0  0
 21  1  1  0  0  0
  1  2  1  0  0  0
  2  3  2  0  0  0
  3  4  1  0  0  0
  4 33  1  0  0  0
 33 34  1  0  0  0
 34 35  1  0  0  0
 34 36  1  0  0  0
 36 37  1  0  0  0
 37 38  1  0  0  0
  4  5  2  0  0  0
  5  7  1  0  0  0
  7  8  2  0  0  0
  8  9  1  0  0  0
  9 10  2  0  0  0
 10 19  1  0  0  0
 19 20  1  0  0  0
 10 11  1  0  0  0
 11 12  1  0  0  0
 11 13  1  0  0  0
 13 14  2  0  0  0
 14 15  1  0  0  0
 15 16  2  0  0  0
 15 17  1  0  0  0
  5  6  1  0  0  0
 27 28  1  0  0  0
 28 29  1  0  0  0
 29 24  1  0  0  0
  6  1  2  0  0  0
 17  7  1  0  0  0
 14  9  1  0  0  0
 17 18  1  0  0  0
M  END
> <minimizedAffinity>
-8.91731

$$$$



 38 41  0  0  0  0  0  0  0  0999 V2000
   -0.1794   63.8826   78.8838 C   0  0  0  0  0  0  0  0  0  0  0  0
   -0.4256   65.0732   78.2326 C   0  0  0  0  0  0  0  0  0  0  0  0
   -0.4328   66.2690   78.8675 N   0  0  0  0  0  0  0  0  0  0  0  0
   -0.2070   66.2728   80.2046 C   0  0  0  0  0  0  0  0  0  0  0  0
    0.0451   65.1152   80.9496 C   0  0  0  0  0  0  0  0  0  0  0  0
    0.0462   63.8938   80.2583 C   0  0  0  0  0  0  0  0  0  0  0  0
    0.3216   65.0888   82.4228 C   0  0  0  0  0  0  0  0  0  0  0  0
   -0.2272   64.1546   83.1502 N   0  0  0  0  0  0  0  0  0  0  0  0
    0.0883   64.2230   84.5068 C   0  0  0  0  0  0  0  0  0  0  0  0
   -0.3365   63.4022   85.5171 C   0  0  0  0  0  0  0  0  0  0  0  0
    0.2655   63.9194   86.6440 N   0  0  0  0  0  0  0  0  0  0  0  0
    0.1519   63.4285   87.9983 C   0  0  0  0  0  0  0  0  0  0  0  0
    1.0463   65.0005   86.4033 N   0  0  0  0  0  0  0  0  0  0  0  0
    0.9241   65.1850   85.0816 C   0  0  0  0  0  0  0  0  0  0  0  0
    1.5300   66.2055   84.2572 C   0  0  0  0  0  0  0  0  0  0  0  0
    2.2906   67.0927   84.6325 O   0  0  0  0  0  0  0  0  0  0  0  0
    1.1568   66.0784   82.9318 N   0  0  0  0  0  0  0  0  0  0  0  0
    1.5692   66.7690   82.3174 H   0  0  0  0  0  0  0  0  0  0  0  0
   -1.2337   62.2152   85.5011 C   0  0  0  0  0  0  0  0  0  0  0  0
   -2.6736   62.5955   85.8098 C   0  0  0  0  0  0  0  0  0  0  0  0
   -0.2124   62.3857   77.9603 S   0  0  0  0  0  0  0  0  0  0  0  0
    0.3184   61.3522   78.8228 O   0  0  0  0  0  0  0  0  0  0  0  0
    0.3729   62.6439   76.6637 O   0  0  0  0  0  0  0  0  0  0  0  0
   -3.2347   60.2469   79.5977 N   0  0  0  0  0  0  0  0  0  0  0  0
   -2.3915   59.7439   78.4997 C   0  0  0  0  0  0  0  0  0  0  0  0
   -2.3035   60.7431   77.3256 C   0  0  0  0  0  0  0  0  0  0  0  0
   -1.8776   62.1127   77.7611 N   0  0  0  0  0  0  0  0  0  0  0  0
   -2.7332   62.5806   78.8990 C   0  0  0  0  0  0  0  0  0  0  0  0
   -2.7561   61.5634   80.0551 C   0  0  0  0  0  0  0  0  0  0  0  0
   -3.4036   59.2797   80.6896 C   0  0  0  0  0  0  0  0  0  0  0  0
   -3.3986   60.3560   82.9693 C   0  0  0  0  0  0  0  0  0  0  0  0
   -2.5986   59.5275   81.9730 C   0  0  0  0  0  0  0  0  0  0  0  0
   -0.1931   67.4918   80.8512 O   0  0  0  0  0  0  0  0  0  0  0  0
    0.4801   68.5611   80.1616 C   0  0  0  0  0  0  0  0  0  0  0  0
   -0.1237   69.8596   80.7012 C   0  0  0  0  0  0  0  0  0  0  0  0
    1.9920   68.5120   80.4330 C   0  0  0  0  0  0  0  0  0  0  0  0
    2.2535   68.7417   81.8182 O   0  0  0  0  0  0  0  0  0  0  0  0
    3.3831   69.5838   82.0059 C   0  0  0  0  0  0  0  0  0  0  0  0
 31 32  1  0  0  0
 32 30  1  0  0  0
 30 24  1  0  0  0
 24 25  1  0  0  0
 25 26  1  0  0  0
 26 27  1  0  0  0
 27 21  1  0  0  0
 21 22  2  0  0  0
 21 23  2  0  0  0
 21  1  1  0  0  0
  1  2  1  0  0  0
  2  3  2  0  0  0
  3  4  1  0  0  0
  4 33  1  0  0  0
 33 34  1  0  0  0
 34 35  1  0  0  0
 34 36  1  0  0  0
 36 37  1  0  0  0
 37 38  1  0  0  0
  4  5  2  0  0  0
  5  7  1  0  0  0
  7  8  2  0  0  0
  8  9  1  0  0  0
  9 10  2  0  0  0
 10 19  1  0  0  0
 19 20  1  0  0  0
 10 11  1  0  0  0
 11 12  1  0  0  0
 11 13  1  0  0  0
 13 14  2  0  0  0
 14 15  1  0  0  0
 15 16  2  0  0  0
 15 17  1  0  0  0
  5  6  1  0  0  0
 27 28  1  0  0  0
 28 29  1  0  0  0
 29 24  1  0  0  0
  6  1  2  0  0  0
 17  7  1  0  0  0
 14  9  1  0  0  0
 17 18  1  0  0  0
M  END
> <minimizedAffinity>
-8.69226

$$$$



 38 41  0  0  0  0  0  0  0  0999 V2000
    1.2498   65.5304   83.2972 C   0  0  0  0  0  0  0  0  0  0  0  0
    1.1138   65.5113   84.6695 C   0  0  0  0  0  0  0  0  0  0  0  0
    0.3125   64.6316   85.3154 N   0  0  0  0  0  0  0  0  0  0  0  0
   -0.3945   63.7537   84.5614 C   0  0  0  0  0  0  0  0  0  0  0  0
   -0.3255   63.7034   83.1645 C   0  0  0  0  0  0  0  0  0  0  0  0
    0.5162   64.6293   82.5290 C   0  0  0  0  0  0  0  0  0  0  0  0
   -1.0754   62.7304   82.3050 C   0  0  0  0  0  0  0  0  0  0  0  0
   -1.0996   62.9189   81.0139 N   0  0  0  0  0  0  0  0  0  0  0  0
   -1.8283   61.9625   80.3074 C   0  0  0  0  0  0  0  0  0  0  0  0
   -2.0482   61.8930   78.9577 C   0  0  0  0  0  0  0  0  0  0  0  0
   -2.8275   60.7666   78.8033 N   0  0  0  0  0  0  0  0  0  0  0  0
   -3.3501   60.2287   77.5681 C   0  0  0  0  0  0  0  0  0  0  0  0
   -3.0991   60.1223   79.9641 N   0  0  0  0  0  0  0  0  0  0  0  0
   -2.4842   60.8731   80.8883 C   0  0  0  0  0  0  0  0  0  0  0  0
   -2.4371   60.6768   82.3192 C   0  0  0  0  0  0  0  0  0  0  0  0
   -2.9534   59.7583   82.9487 O   0  0  0  0  0  0  0  0  0  0  0  0
   -1.7110   61.6722   82.9469 N   0  0  0  0  0  0  0  0  0  0  0  0
   -1.6443   61.5654   83.9512 H   0  0  0  0  0  0  0  0  0  0  0  0
   -1.5986   62.7749   77.8467 C   0  0  0  0  0  0  0  0  0  0  0  0
   -0.1829   62.4410   77.4026 C   0  0  0  0  0  0  0  0  0  0  0  0
    2.3070   66.7303   82.5641 S   0  0  0  0  0  0  0  0  0  0  0  0
    2.3156   66.4647   81.1418 O   0  0  0  0  0  0  0  0  0  0  0  0
    3.5388   66.7667   83.3203 O   0  0  0  0  0  0  0  0  0  0  0  0
    2.4243   70.6420   81.5275 N   0  0  0  0  0  0  0  0  0  0  0  0
    3.1097   70.0995   82.7129 C   0  0  0  0  0  0  0  0  0  0  0  0
    2.1665   69.2568   83.5989 C   0  0  0  0  0  0  0  0  0  0  0  0
    1.4608   68.1792   82.8323 N   0  0  0  0  0  0  0  0  0  0  0  0
    0.8025   68.7584   81.6169 C   0  0  0  0  0  0  0  0  0  0  0  0
    1.7958   69.5574   80.7527 C   0  0  0  0  0  0  0  0  0  0  0  0
    3.2774   71.5171   80.7134 C   0  0  0  0  0  0  0  0  0  0  0  0
    1.5444   73.3433   80.5830 C   0  0  0  0  0  0  0  0  0  0  0  0
    3.0175   73.0272   80.8045 C   0  0  0  0  0  0  0  0  0  0  0  0
   -1.1963   62.8422   85.2174 O   0  0  0  0  0  0  0  0  0  0  0  0
   -1.2883   62.9999   86.6453 C   0  0  0  0  0  0  0  0  0  0  0  0
   -2.7693   63.2346   86.9511 C   0  0  0  0  0  0  0  0  0  0  0  0
   -0.7794   61.7394   87.3623 C   0  0  0  0  0  0  0  0  0  0  0  0
   -0.2168   62.0843   88.6290 O   0  0  0  0  0  0  0  0  0  0  0  0
    0.5577   63.2737   88.5523 C   0  0  0  0  0  0  0  0  0  0  0  0
 31 32  1  0  0  0
 32 30  1  0  0  0
 30 24  1  0  0  0
 24 25  1  0  0  0
 25 26  1  0  0  0
 26 27  1  0  0  0
 27 21  1  0  0  0
 21 22  2  0  0  0
 21 23  2  0  0  0
 21  1  1  0  0  0
  1  2  1  0  0  0
  2  3  2  0  0  0
  3  4  1  0  0  0
  4 33  1  0  0  0
 33 34  1  0  0  0
 34 35  1  0  0  0
 34 36  1  0  0  0
 36 37  1  0  0  0
 37 38  1  0  0  0
  4  5  2  0  0  0
  5  7  1  0  0  0
  7  8  2  0  0  0
  8  9  1  0  0  0
  9 10  2  0  0  0
 10 19  1  0  0  0
 19 20  1  0  0  0
 10 11  1  0  0  0
 11 12  1  0  0  0
 11 13  1  0  0  0
 13 14  2  0  0  0
 14 15  1  0  0  0
 15 16  2  0  0  0
 15 17  1  0  0  0
  5  6  1  0  0  0
 27 28  1  0  0  0
 28 29  1  0  0  0
 29 24  1  0  0  0
  6  1  2  0  0  0
 17  7  1  0  0  0
 14  9  1  0  0  0
 17 18  1  0  0  0
M  END
> <minimizedAffinity>
-8.65447

$$$$



 38 41  0  0  0  0  0  0  0  0999 V2000
    2.0533   69.0795   82.1091 C   0  0  0  0  0  0  0  0  0  0  0  0
    3.2031   69.4483   82.7755 C   0  0  0  0  0  0  0  0  0  0  0  0
    3.7735   68.6814   83.7345 N   0  0  0  0  0  0  0  0  0  0  0  0
    3.1610   67.5144   84.0537 C   0  0  0  0  0  0  0  0  0  0  0  0
    1.9893   67.0619   83.4366 C   0  0  0  0  0  0  0  0  0  0  0  0
    1.4268   67.8820   82.4462 C   0  0  0  0  0  0  0  0  0  0  0  0
    1.3019   65.7669   83.7500 C   0  0  0  0  0  0  0  0  0  0  0  0
    0.9688   65.5135   84.9860 N   0  0  0  0  0  0  0  0  0  0  0  0
    0.3415   64.2819   85.1709 C   0  0  0  0  0  0  0  0  0  0  0  0
   -0.1112   63.7295   86.3392 C   0  0  0  0  0  0  0  0  0  0  0  0
   -0.6335   62.5135   85.9541 N   0  0  0  0  0  0  0  0  0  0  0  0
   -1.2464   61.5178   86.8032 C   0  0  0  0  0  0  0  0  0  0  0  0
   -0.5475   62.2748   84.6229 N   0  0  0  0  0  0  0  0  0  0  0  0
    0.0633   63.3695   84.1489 C   0  0  0  0  0  0  0  0  0  0  0  0
    0.4317   63.6732   82.7851 C   0  0  0  0  0  0  0  0  0  0  0  0
    0.2312   62.9697   81.7994 O   0  0  0  0  0  0  0  0  0  0  0  0
    1.0604   64.9010   82.6881 N   0  0  0  0  0  0  0  0  0  0  0  0
    1.3255   65.1572   81.7454 H   0  0  0  0  0  0  0  0  0  0  0  0
   -0.0874   64.2406   87.7365 C   0  0  0  0  0  0  0  0  0  0  0  0
    0.7789   63.3735   88.6368 C   0  0  0  0  0  0  0  0  0  0  0  0
    1.3909   70.1638   80.8924 S   0  0  0  0  0  0  0  0  0  0  0  0
    0.3276   69.4430   80.2265 O   0  0  0  0  0  0  0  0  0  0  0  0
    2.4921   70.7240   80.1414 O   0  0  0  0  0  0  0  0  0  0  0  0
   -0.4591   73.7402   80.4719 N   0  0  0  0  0  0  0  0  0  0  0  0
    0.9991   73.5978   80.6236 C   0  0  0  0  0  0  0  0  0  0  0  0
    1.3777   72.7274   81.8418 C   0  0  0  0  0  0  0  0  0  0  0  0
    0.6940   71.3935   81.8355 N   0  0  0  0  0  0  0  0  0  0  0  0
   -0.7820   71.5721   81.6470 C   0  0  0  0  0  0  0  0  0  0  0  0
   -1.1026   72.4166   80.3996 C   0  0  0  0  0  0  0  0  0  0  0  0
   -0.8437   74.6330   79.3713 C   0  0  0  0  0  0  0  0  0  0  0  0
   -1.8611   74.4334   77.0734 C   0  0  0  0  0  0  0  0  0  0  0  0
   -2.0945   74.2517   78.5673 C   0  0  0  0  0  0  0  0  0  0  0  0
    3.7508   66.7205   85.0160 O   0  0  0  0  0  0  0  0  0  0  0  0
    5.1601   66.9276   85.2239 C   0  0  0  0  0  0  0  0  0  0  0  0
    5.2885   67.6515   86.5661 C   0  0  0  0  0  0  0  0  0  0  0  0
    5.9047   65.5837   85.2589 C   0  0  0  0  0  0  0  0  0  0  0  0
    7.1903   65.7462   85.8595 O   0  0  0  0  0  0  0  0  0  0  0  0
    8.1916   66.0207   84.8887 C   0  0  0  0  0  0  0  0  0  0  0  0
 31 32  1  0  0  0
 32 30  1  0  0  0
 30 24  1  0  0  0
 24 25  1  0  0  0
 25 26  1  0  0  0
 26 27  1  0  0  0
 27 21  1  0  0  0
 21 22  2  0  0  0
 21 23  2  0  0  0
 21  1  1  0  0  0
  1  2  1  0  0  0
  2  3  2  0  0  0
  3  4  1  0  0  0
  4 33  1  0  0  0
 33 34  1  0  0  0
 34 35  1  0  0  0
 34 36  1  0  0  0
 36 37  1  0  0  0
 37 38  1  0  0  0
  4  5  2  0  0  0
  5  7  1  0  0  0
  7  8  2  0  0  0
  8  9  1  0  0  0
  9 10  2  0  0  0
 10 19  1  0  0  0
 19 20  1  0  0  0
 10 11  1  0  0  0
 11 12  1  0  0  0
 11 13  1  0  0  0
 13 14  2  0  0  0
 14 15  1  0  0  0
 15 16  2  0  0  0
 15 17  1  0  0  0
  5  6  1  0  0  0
 27 28  1  0  0  0
 28 29  1  0  0  0
 29 24  1  0  0  0
  6  1  2  0  0  0
 17  7  1  0  0  0
 14  9  1  0  0  0
 17 18  1  0  0  0
M  END
> <minimizedAffinity>
-8.55926

$$$$



 38 41  0  0  0  0  0  0  0  0999 V2000
    0.7737   65.5208   82.8511 C   0  0  0  0  0  0  0  0  0  0  0  0
    1.5536   65.1359   83.9215 C   0  0  0  0  0  0  0  0  0  0  0  0
    2.5241   65.9229   84.4429 N   0  0  0  0  0  0  0  0  0  0  0  0
    2.7369   67.1288   83.8602 C   0  0  0  0  0  0  0  0  0  0  0  0
    2.0005   67.6005   82.7677 C   0  0  0  0  0  0  0  0  0  0  0  0
    1.0018   66.7586   82.2544 C   0  0  0  0  0  0  0  0  0  0  0  0
    2.1954   68.9369   82.1169 C   0  0  0  0  0  0  0  0  0  0  0  0
    1.1926   69.7710   82.0781 N   0  0  0  0  0  0  0  0  0  0  0  0
    1.4763   70.9814   81.4463 C   0  0  0  0  0  0  0  0  0  0  0  0
    0.6383   72.0441   81.2376 C   0  0  0  0  0  0  0  0  0  0  0  0
    1.4212   72.9616   80.5704 N   0  0  0  0  0  0  0  0  0  0  0  0
    1.0271   74.2716   80.1050 C   0  0  0  0  0  0  0  0  0  0  0  0
    2.6941   72.5477   80.3588 N   0  0  0  0  0  0  0  0  0  0  0  0
    2.7161   71.3204   80.8965 C   0  0  0  0  0  0  0  0  0  0  0  0
    3.8169   70.3863   80.9584 C   0  0  0  0  0  0  0  0  0  0  0  0
    4.9534   70.5660   80.5310 O   0  0  0  0  0  0  0  0  0  0  0  0
    3.4517   69.2085   81.5841 N   0  0  0  0  0  0  0  0  0  0  0  0
    4.1991   68.5299   81.6581 H   0  0  0  0  0  0  0  0  0  0  0  0
   -0.7892   72.2506   81.6034 C   0  0  0  0  0  0  0  0  0  0  0  0
   -1.7008   72.1423   80.3908 C   0  0  0  0  0  0  0  0  0  0  0  0
   -0.4474   64.4087   82.2454 S   0  0  0  0  0  0  0  0  0  0  0  0
   -1.2767   65.1598   81.3280 O   0  0  0  0  0  0  0  0  0  0  0  0
   -1.0273   63.7180   83.3755 O   0  0  0  0  0  0  0  0  0  0  0  0
   -0.9258   61.2820   79.7186 N   0  0  0  0  0  0  0  0  0  0  0  0
   -0.8200   61.1308   81.1799 C   0  0  0  0  0  0  0  0  0  0  0  0
    0.4134   61.8607   81.7552 C   0  0  0  0  0  0  0  0  0  0  0  0
    0.4766   63.3015   81.3468 N   0  0  0  0  0  0  0  0  0  0  0  0
    0.3334   63.4221   79.8598 C   0  0  0  0  0  0  0  0  0  0  0  0
   -0.9303   62.7076   79.3457 C   0  0  0  0  0  0  0  0  0  0  0  0
   -2.0424   60.5267   79.1363 C   0  0  0  0  0  0  0  0  0  0  0  0
   -4.2812   61.4499   79.8369 C   0  0  0  0  0  0  0  0  0  0  0  0
   -3.2759   61.3292   78.6994 C   0  0  0  0  0  0  0  0  0  0  0  0
    3.7112   67.9420   84.4020 O   0  0  0  0  0  0  0  0  0  0  0  0
    4.8257   67.2659   85.0128 C   0  0  0  0  0  0  0  0  0  0  0  0
    6.0312   67.5346   84.1092 C   0  0  0  0  0  0  0  0  0  0  0  0
    5.0773   67.8083   86.4285 C   0  0  0  0  0  0  0  0  0  0  0  0
    5.6778   66.8015   87.2443 O   0  0  0  0  0  0  0  0  0  0  0  0
    5.1108   65.5213   86.9995 C   0  0  0  0  0  0  0  0  0  0  0  0
 31 32  1  0  0  0
 32 30  1  0  0  0
 30 24  1  0  0  0
 24 25  1  0  0  0
 25 26  1  0  0  0
 26 27  1  0  0  0
 27 21  1  0  0  0
 21 22  2  0  0  0
 21 23  2  0  0  0
 21  1  1  0  0  0
  1  2  1  0  0  0
  2  3  2  0  0  0
  3  4  1  0  0  0
  4 33  1  0  0  0
 33 34  1  0  0  0
 34 35  1  0  0  0
 34 36  1  0  0  0
 36 37  1  0  0  0
 37 38  1  0  0  0
  4  5  2  0  0  0
  5  7  1  0  0  0
  7  8  2  0  0  0
  8  9  1  0  0  0
  9 10  2  0  0  0
 10 19  1  0  0  0
 19 20  1  0  0  0
 10 11  1  0  0  0
 11 12  1  0  0  0
 11 13  1  0  0  0
 13 14  2  0  0  0
 14 15  1  0  0  0
 15 16  2  0  0  0
 15 17  1  0  0  0
  5  6  1  0  0  0
 27 28  1  0  0  0
 28 29  1  0  0  0
 29 24  1  0  0  0
  6  1  2  0  0  0
 17  7  1  0  0  0
 14  9  1  0  0  0
 17 18  1  0  0  0
M  END
> <minimizedAffinity>
-8.53037

$$$$



 38 41  0  0  0  0  0  0  0  0999 V2000
    2.7417   69.1670   83.1443 C   0  0  0  0  0  0  0  0  0  0  0  0
    4.0976   69.0460   83.3660 C   0  0  0  0  0  0  0  0  0  0  0  0
    4.6580   67.9340   83.8975 N   0  0  0  0  0  0  0  0  0  0  0  0
    3.8313   66.9149   84.2393 C   0  0  0  0  0  0  0  0  0  0  0  0
    2.4441   66.9502   84.0578 C   0  0  0  0  0  0  0  0  0  0  0  0
    1.8982   68.1181   83.5031 C   0  0  0  0  0  0  0  0  0  0  0  0
    1.5069   65.8321   84.4031 C   0  0  0  0  0  0  0  0  0  0  0  0
    0.8102   65.2769   83.4495 N   0  0  0  0  0  0  0  0  0  0  0  0
   -0.0343   64.2527   83.8767 C   0  0  0  0  0  0  0  0  0  0  0  0
   -0.8916   63.4938   83.1257 C   0  0  0  0  0  0  0  0  0  0  0  0
   -1.4777   62.6462   84.0411 N   0  0  0  0  0  0  0  0  0  0  0  0
   -2.4706   61.6295   83.7792 C   0  0  0  0  0  0  0  0  0  0  0  0
   -1.0355   62.8172   85.3106 N   0  0  0  0  0  0  0  0  0  0  0  0
   -0.1500   63.8170   85.2001 C   0  0  0  0  0  0  0  0  0  0  0  0
    0.6376   64.4385   86.2400 C   0  0  0  0  0  0  0  0  0  0  0  0
    0.6416   64.1412   87.4308 O   0  0  0  0  0  0  0  0  0  0  0  0
    1.4348   65.4514   85.7394 N   0  0  0  0  0  0  0  0  0  0  0  0
    2.0121   65.9064   86.4353 H   0  0  0  0  0  0  0  0  0  0  0  0
   -1.1899   63.5086   81.6679 C   0  0  0  0  0  0  0  0  0  0  0  0
   -0.2884   62.5537   80.9008 C   0  0  0  0  0  0  0  0  0  0  0  0
    2.1217   70.6662   82.4640 S   0  0  0  0  0  0  0  0  0  0  0  0
    3.1522   71.6650   82.6486 O   0  0  0  0  0  0  0  0  0  0  0  0
    0.7857   70.8741   82.9761 O   0  0  0  0  0  0  0  0  0  0  0  0
    0.7879   67.7514   79.9912 N   0  0  0  0  0  0  0  0  0  0  0  0
    2.1579   67.7887   80.5308 C   0  0  0  0  0  0  0  0  0  0  0  0
    2.8392   69.1555   80.3014 C   0  0  0  0  0  0  0  0  0  0  0  0
    2.0191   70.3037   80.8071 N   0  0  0  0  0  0  0  0  0  0  0  0
    0.6240   70.2178   80.2663 C   0  0  0  0  0  0  0  0  0  0  0  0
   -0.0191   68.8484   80.5541 C   0  0  0  0  0  0  0  0  0  0  0  0
    0.1487   66.4357   80.1208 C   0  0  0  0  0  0  0  0  0  0  0  0
    0.7439   64.8395   78.2625 C   0  0  0  0  0  0  0  0  0  0  0  0
   -0.3289   65.7608   78.8275 C   0  0  0  0  0  0  0  0  0  0  0  0
    4.4012   65.7720   84.7621 O   0  0  0  0  0  0  0  0  0  0  0  0
    5.5828   65.9680   85.5605 C   0  0  0  0  0  0  0  0  0  0  0  0
    5.2964   65.3068   86.9106 C   0  0  0  0  0  0  0  0  0  0  0  0
    6.8035   65.3208   84.8876 C   0  0  0  0  0  0  0  0  0  0  0  0
    8.0102   65.8376   85.4501 O   0  0  0  0  0  0  0  0  0  0  0  0
    8.4592   66.9938   84.7558 C   0  0  0  0  0  0  0  0  0  0  0  0
 31 32  1  0  0  0
 32 30  1  0  0  0
 30 24  1  0  0  0
 24 25  1  0  0  0
 25 26  1  0  0  0
 26 27  1  0  0  0
 27 21  1  0  0  0
 21 22  2  0  0  0
 21 23  2  0  0  0
 21  1  1  0  0  0
  1  2  1  0  0  0
  2  3  2  0  0  0
  3  4  1  0  0  0
  4 33  1  0  0  0
 33 34  1  0  0  0
 34 35  1  0  0  0
 34 36  1  0  0  0
 36 37  1  0  0  0
 37 38  1  0  0  0
  4  5  2  0  0  0
  5  7  1  0  0  0
  7  8  2  0  0  0
  8  9  1  0  0  0
  9 10  2  0  0  0
 10 19  1  0  0  0
 19 20  1  0  0  0
 10 11  1  0  0  0
 11 12  1  0  0  0
 11 13  1  0  0  0
 13 14  2  0  0  0
 14 15  1  0  0  0
 15 16  2  0  0  0
 15 17  1  0  0  0
  5  6  1  0  0  0
 27 28  1  0  0  0
 28 29  1  0  0  0
 29 24  1  0  0  0
  6  1  2  0  0  0
 17  7  1  0  0  0
 14  9  1  0  0  0
 17 18  1  0  0  0
M  END
> <minimizedAffinity>
-8.50673

$$$$



 38 41  0  0  0  0  0  0  0  0999 V2000
    1.0575   66.9944   82.2374 C   0  0  0  0  0  0  0  0  0  0  0  0
    1.4383   66.9729   83.5629 C   0  0  0  0  0  0  0  0  0  0  0  0
    1.2603   65.8932   84.3602 N   0  0  0  0  0  0  0  0  0  0  0  0
    0.6610   64.8036   83.8191 C   0  0  0  0  0  0  0  0  0  0  0  0
    0.2357   64.7362   82.4876 C   0  0  0  0  0  0  0  0  0  0  0  0
    0.4375   65.8734   81.6903 C   0  0  0  0  0  0  0  0  0  0  0  0
   -0.4076   63.5394   81.8540 C   0  0  0  0  0  0  0  0  0  0  0  0
   -0.1091   63.2437   80.6185 N   0  0  0  0  0  0  0  0  0  0  0  0
   -0.7655   62.1177   80.1227 C   0  0  0  0  0  0  0  0  0  0  0  0
   -0.6737   61.5664   78.8726 C   0  0  0  0  0  0  0  0  0  0  0  0
   -1.5274   60.4853   78.9201 N   0  0  0  0  0  0  0  0  0  0  0  0
   -1.8114   59.5493   77.8566 C   0  0  0  0  0  0  0  0  0  0  0  0
   -2.1368   60.3181   80.1189 N   0  0  0  0  0  0  0  0  0  0  0  0
   -1.6657   61.3359   80.8525 C   0  0  0  0  0  0  0  0  0  0  0  0
   -1.9755   61.6745   82.2227 C   0  0  0  0  0  0  0  0  0  0  0  0
   -2.7315   61.0652   82.9736 O   0  0  0  0  0  0  0  0  0  0  0  0
   -1.2986   62.8082   82.6334 N   0  0  0  0  0  0  0  0  0  0  0  0
   -1.4798   63.0738   83.5932 H   0  0  0  0  0  0  0  0  0  0  0  0
    0.1249   61.9677   77.6828 C   0  0  0  0  0  0  0  0  0  0  0  0
   -0.4968   63.1550   76.9638 C   0  0  0  0  0  0  0  0  0  0  0  0
    1.3220   68.4595   81.3004 S   0  0  0  0  0  0  0  0  0  0  0  0
    0.0162   69.0156   81.0190 O   0  0  0  0  0  0  0  0  0  0  0  0
    2.2433   68.1491   80.2303 O   0  0  0  0  0  0  0  0  0  0  0  0
    3.6758   71.7520   81.3966 N   0  0  0  0  0  0  0  0  0  0  0  0
    4.2079   70.3801   81.3301 C   0  0  0  0  0  0  0  0  0  0  0  0
    3.6046   69.4659   82.4187 C   0  0  0  0  0  0  0  0  0  0  0  0
    2.1057   69.4735   82.4162 N   0  0  0  0  0  0  0  0  0  0  0  0
    1.5978   70.8830   82.4513 C   0  0  0  0  0  0  0  0  0  0  0  0
    2.2041   71.7392   81.3239 C   0  0  0  0  0  0  0  0  0  0  0  0
    4.2966   72.6629   80.4265 C   0  0  0  0  0  0  0  0  0  0  0  0
    6.6329   73.1731   79.6287 C   0  0  0  0  0  0  0  0  0  0  0  0
    5.5165   72.1378   79.6567 C   0  0  0  0  0  0  0  0  0  0  0  0
    0.4968   63.6941   84.6230 O   0  0  0  0  0  0  0  0  0  0  0  0
   -0.1425   63.9267   85.8917 C   0  0  0  0  0  0  0  0  0  0  0  0
   -1.2172   62.8459   86.0289 C   0  0  0  0  0  0  0  0  0  0  0  0
    0.8771   63.8265   87.0373 C   0  0  0  0  0  0  0  0  0  0  0  0
    0.2288   64.0227   88.2947 O   0  0  0  0  0  0  0  0  0  0  0  0
    0.4592   62.9339   89.1789 C   0  0  0  0  0  0  0  0  0  0  0  0
 31 32  1  0  0  0
 32 30  1  0  0  0
 30 24  1  0  0  0
 24 25  1  0  0  0
 25 26  1  0  0  0
 26 27  1  0  0  0
 27 21  1  0  0  0
 21 22  2  0  0  0
 21 23  2  0  0  0
 21  1  1  0  0  0
  1  2  1  0  0  0
  2  3  2  0  0  0
  3  4  1  0  0  0
  4 33  1  0  0  0
 33 34  1  0  0  0
 34 35  1  0  0  0
 34 36  1  0  0  0
 36 37  1  0  0  0
 37 38  1  0  0  0
  4  5  2  0  0  0
  5  7  1  0  0  0
  7  8  2  0  0  0
  8  9  1  0  0  0
  9 10  2  0  0  0
 10 19  1  0  0  0
 19 20  1  0  0  0
 10 11  1  0  0  0
 11 12  1  0  0  0
 11 13  1  0  0  0
 13 14  2  0  0  0
 14 15  1  0  0  0
 15 16  2  0  0  0
 15 17  1  0  0  0
  5  6  1  0  0  0
 27 28  1  0  0  0
 28 29  1  0  0  0
 29 24  1  0  0  0
  6  1  2  0  0  0
 17  7  1  0  0  0
 14  9  1  0  0  0
 17 18  1  0  0  0
M  END
> <minimizedAffinity>
-8.50617

$$$$
