


 28 30  0  0  0  0  0  0  0  0999 V2000
   -1.6439   61.5619   82.7557 C   0  0  0  0  0  0  0  0  0  0  0  0
   -2.2861   61.3181   83.8908 N   0  0  0  0  0  0  0  0  0  0  0  0
   -1.6635   62.0816   84.8495 C   0  0  0  0  0  0  0  0  0  0  0  0
   -1.9597   62.1989   86.2592 C   0  0  0  0  0  0  0  0  0  0  0  0
   -2.8578   61.5648   86.8075 O   0  0  0  0  0  0  0  0  0  0  0  0
   -1.1139   63.1045   86.9248 N   0  0  0  0  0  0  0  0  0  0  0  0
   -1.3292   63.2978   88.3451 C   0  0  0  0  0  0  0  0  0  0  0  0
   -0.0420   63.8257   86.3580 C   0  0  0  0  0  0  0  0  0  0  0  0
    0.6629   64.5736   87.0423 O   0  0  0  0  0  0  0  0  0  0  0  0
    0.1952   63.6592   84.9806 N   0  0  0  0  0  0  0  0  0  0  0  0
   -0.6355   62.7938   84.3029 C   0  0  0  0  0  0  0  0  0  0  0  0
   -0.6226   62.4624   82.9840 N   0  0  0  0  0  0  0  0  0  0  0  0
   -0.0003   62.7964   82.2630 H   0  0  0  0  0  0  0  0  0  0  0  0
   -1.2265   61.2767   80.2582 C   0  0  0  0  0  0  0  0  0  0  0  0
   -1.5832   60.6480   79.0552 C   0  0  0  0  0  0  0  0  0  0  0  0
   -2.6388   59.7339   79.0109 C   0  0  0  0  0  0  0  0  0  0  0  0
   -3.3506   59.4354   80.1654 C   0  0  0  0  0  0  0  0  0  0  0  0
   -3.0040   60.0492   81.3679 C   0  0  0  0  0  0  0  0  0  0  0  0
   -1.9431   60.9714   81.4397 C   0  0  0  0  0  0  0  0  0  0  0  0
   -0.2021   62.1909   80.3620 O   0  0  0  0  0  0  0  0  0  0  0  0
   -0.1982   63.2917   79.4485 C   0  0  0  0  0  0  0  0  0  0  0  0
    0.9415   63.0875   78.4502 C   0  0  0  0  0  0  0  0  0  0  0  0
   -0.7141   63.5760   76.8163 C   0  0  0  0  0  0  0  0  0  0  0  0
    0.4695   62.8516   77.1262 O   0  0  0  0  0  0  0  0  0  0  0  0
    1.2878   64.4066   84.3596 C   0  0  0  0  0  0  0  0  0  0  0  0
    0.8462   65.7582   83.7655 C   0  0  0  0  0  0  0  0  0  0  0  0
    0.7319   65.7126   82.2410 C   0  0  0  0  0  0  0  0  0  0  0  0
    1.8358   66.8501   84.1775 C   0  0  0  0  0  0  0  0  0  0  0  0
 23 24  1  0  0  0
 24 22  1  0  0  0
 22 21  1  0  0  0
 21 20  1  0  0  0
 20 14  1  0  0  0
 14 15  2  0  0  0
 15 16  1  0  0  0
 16 17  2  0  0  0
 17 18  1  0  0  0
 18 19  2  0  0  0
 19  1  1  0  0  0
  1  2  2  0  0  0
  2  3  1  0  0  0
  3  4  1  0  0  0
  4  5  2  0  0  0
  4  6  1  0  0  0
  6  7  1  0  0  0
  6  8  1  0  0  0
  8  9  2  0  0  0
  8 10  1  0  0  0
 10 25  1  0  0  0
 25 26  1  0  0  0
 26 27  1  0  0  0
 26 28  1  0  0  0
 10 11  1  0  0  0
 11 12  1  0  0  0
 19 14  1  0  0  0
 12  1  1  0  0  0
 11  3  2  0  0  0
 12 13  1  0  0  0
M  END
> <minimizedAffinity>
-8.48920

$$$$



 28 30  0  0  0  0  0  0  0  0999 V2000
   -1.5830   62.1427   83.8507 C   0  0  0  0  0  0  0  0  0  0  0  0
   -2.2914   61.1372   83.3529 N   0  0  0  0  0  0  0  0  0  0  0  0
   -2.0012   61.0981   82.0099 C   0  0  0  0  0  0  0  0  0  0  0  0
   -2.4959   60.1973   80.9937 C   0  0  0  0  0  0  0  0  0  0  0  0
   -3.3111   59.3089   81.2288 O   0  0  0  0  0  0  0  0  0  0  0  0
   -1.9504   60.4508   79.7221 N   0  0  0  0  0  0  0  0  0  0  0  0
   -2.3802   59.5999   78.6303 C   0  0  0  0  0  0  0  0  0  0  0  0
   -1.0470   61.4805   79.3850 C   0  0  0  0  0  0  0  0  0  0  0  0
   -0.6536   61.6366   78.2252 O   0  0  0  0  0  0  0  0  0  0  0  0
   -0.6110   62.3261   80.4225 N   0  0  0  0  0  0  0  0  0  0  0  0
   -1.1148   62.0825   81.6814 C   0  0  0  0  0  0  0  0  0  0  0  0
   -0.8551   62.7419   82.8422 N   0  0  0  0  0  0  0  0  0  0  0  0
   -0.2409   63.5294   82.9882 H   0  0  0  0  0  0  0  0  0  0  0  0
   -0.5041   63.3258   85.8329 C   0  0  0  0  0  0  0  0  0  0  0  0
   -0.5874   63.7094   87.1803 C   0  0  0  0  0  0  0  0  0  0  0  0
   -1.6956   63.3611   87.9564 C   0  0  0  0  0  0  0  0  0  0  0  0
   -2.7338   62.6268   87.3983 C   0  0  0  0  0  0  0  0  0  0  0  0
   -2.6660   62.2431   86.0600 C   0  0  0  0  0  0  0  0  0  0  0  0
   -1.5620   62.5837   85.2560 C   0  0  0  0  0  0  0  0  0  0  0  0
    0.5651   63.6324   85.0213 O   0  0  0  0  0  0  0  0  0  0  0  0
    1.2636   64.8546   85.2753 C   0  0  0  0  0  0  0  0  0  0  0  0
    1.0288   65.7996   84.0966 C   0  0  0  0  0  0  0  0  0  0  0  0
    2.0349   67.6600   83.0121 C   0  0  0  0  0  0  0  0  0  0  0  0
    1.7108   67.0416   84.2507 O   0  0  0  0  0  0  0  0  0  0  0  0
    0.3394   63.3921   80.1086 C   0  0  0  0  0  0  0  0  0  0  0  0
   -0.3294   64.6693   79.5643 C   0  0  0  0  0  0  0  0  0  0  0  0
    0.2439   65.0933   78.2112 C   0  0  0  0  0  0  0  0  0  0  0  0
   -0.1662   65.8069   80.5745 C   0  0  0  0  0  0  0  0  0  0  0  0
 23 24  1  0  0  0
 24 22  1  0  0  0
 22 21  1  0  0  0
 21 20  1  0  0  0
 20 14  1  0  0  0
 14 15  2  0  0  0
 15 16  1  0  0  0
 16 17  2  0  0  0
 17 18  1  0  0  0
 18 19  2  0  0  0
 19  1  1  0  0  0
  1  2  2  0  0  0
  2  3  1  0  0  0
  3  4  1  0  0  0
  4  5  2  0  0  0
  4  6  1  0  0  0
  6  7  1  0  0  0
  6  8  1  0  0  0
  8  9  2  0  0  0
  8 10  1  0  0  0
 10 25  1  0  0  0
 25 26  1  0  0  0
 26 27  1  0  0  0
 26 28  1  0  0  0
 10 11  1  0  0  0
 11 12  1  0  0  0
 19 14  1  0  0  0
 12  1  1  0  0  0
 11  3  2  0  0  0
 12 13  1  0  0  0
M  END
> <minimizedAffinity>
-8.48101

$$$$



 28 30  0  0  0  0  0  0  0  0999 V2000
    1.3483   65.7711   83.9553 C   0  0  0  0  0  0  0  0  0  0  0  0
    0.7966   65.0658   82.9762 N   0  0  0  0  0  0  0  0  0  0  0  0
   -0.0177   64.1423   83.5874 C   0  0  0  0  0  0  0  0  0  0  0  0
   -0.8551   63.1260   82.9918 C   0  0  0  0  0  0  0  0  0  0  0  0
   -0.9236   62.9441   81.7788 O   0  0  0  0  0  0  0  0  0  0  0  0
   -1.5698   62.3760   83.9434 N   0  0  0  0  0  0  0  0  0  0  0  0
   -2.4431   61.3301   83.4492 C   0  0  0  0  0  0  0  0  0  0  0  0
   -1.4983   62.5106   85.3458 C   0  0  0  0  0  0  0  0  0  0  0  0
   -2.1463   61.7748   86.0963 O   0  0  0  0  0  0  0  0  0  0  0  0
   -0.6576   63.5163   85.8588 N   0  0  0  0  0  0  0  0  0  0  0  0
    0.0355   64.2788   84.9443 C   0  0  0  0  0  0  0  0  0  0  0  0
    0.8995   65.3036   85.1743 N   0  0  0  0  0  0  0  0  0  0  0  0
    1.1851   65.6915   86.0613 H   0  0  0  0  0  0  0  0  0  0  0  0
    3.5714   66.9236   84.4274 C   0  0  0  0  0  0  0  0  0  0  0  0
    4.4144   68.0229   84.2027 C   0  0  0  0  0  0  0  0  0  0  0  0
    4.0135   69.0748   83.3754 C   0  0  0  0  0  0  0  0  0  0  0  0
    2.7680   69.0430   82.7620 C   0  0  0  0  0  0  0  0  0  0  0  0
    1.9226   67.9550   82.9730 C   0  0  0  0  0  0  0  0  0  0  0  0
    2.3038   66.8814   83.7995 C   0  0  0  0  0  0  0  0  0  0  0  0
    3.9079   65.8624   85.2376 O   0  0  0  0  0  0  0  0  0  0  0  0
    5.2556   65.3858   85.1837 C   0  0  0  0  0  0  0  0  0  0  0  0
    5.9011   65.6053   86.5521 C   0  0  0  0  0  0  0  0  0  0  0  0
    5.6114   65.4658   88.9071 C   0  0  0  0  0  0  0  0  0  0  0  0
    5.0384   65.2387   87.6258 O   0  0  0  0  0  0  0  0  0  0  0  0
   -0.5754   63.6929   87.3080 C   0  0  0  0  0  0  0  0  0  0  0  0
    0.5370   62.8536   87.9658 C   0  0  0  0  0  0  0  0  0  0  0  0
    0.1378   62.3449   89.3519 C   0  0  0  0  0  0  0  0  0  0  0  0
    1.8173   63.6853   88.0691 C   0  0  0  0  0  0  0  0  0  0  0  0
 23 24  1  0  0  0
 24 22  1  0  0  0
 22 21  1  0  0  0
 21 20  1  0  0  0
 20 14  1  0  0  0
 14 15  2  0  0  0
 15 16  1  0  0  0
 16 17  2  0  0  0
 17 18  1  0  0  0
 18 19  2  0  0  0
 19  1  1  0  0  0
  1  2  2  0  0  0
  2  3  1  0  0  0
  3  4  1  0  0  0
  4  5  2  0  0  0
  4  6  1  0  0  0
  6  7  1  0  0  0
  6  8  1  0  0  0
  8  9  2  0  0  0
  8 10  1  0  0  0
 10 25  1  0  0  0
 25 26  1  0  0  0
 26 27  1  0  0  0
 26 28  1  0  0  0
 10 11  1  0  0  0
 11 12  1  0  0  0
 19 14  1  0  0  0
 12  1  1  0  0  0
 11  3  2  0  0  0
 12 13  1  0  0  0
M  END
> <minimizedAffinity>
-8.41600

$$$$



 28 30  0  0  0  0  0  0  0  0999 V2000
    1.1118   65.7672   83.3672 C   0  0  0  0  0  0  0  0  0  0  0  0
    0.4699   65.4383   82.2536 N   0  0  0  0  0  0  0  0  0  0  0  0
   -0.2937   64.3392   82.5673 C   0  0  0  0  0  0  0  0  0  0  0  0
   -1.1884   63.5775   81.7258 C   0  0  0  0  0  0  0  0  0  0  0  0
   -1.3659   63.8325   80.5373 O   0  0  0  0  0  0  0  0  0  0  0  0
   -1.8212   62.5234   82.4093 N   0  0  0  0  0  0  0  0  0  0  0  0
   -2.7428   61.6973   81.6550 C   0  0  0  0  0  0  0  0  0  0  0  0
   -1.6242   62.1575   83.7575 C   0  0  0  0  0  0  0  0  0  0  0  0
   -2.2083   61.1891   84.2529 O   0  0  0  0  0  0  0  0  0  0  0  0
   -0.7337   62.9385   84.5179 N   0  0  0  0  0  0  0  0  0  0  0  0
   -0.1190   63.9908   83.8752 C   0  0  0  0  0  0  0  0  0  0  0  0
    0.7697   64.8898   84.3768 N   0  0  0  0  0  0  0  0  0  0  0  0
    1.1360   64.9476   85.3156 H   0  0  0  0  0  0  0  0  0  0  0  0
    3.2177   66.8215   84.3403 C   0  0  0  0  0  0  0  0  0  0  0  0
    4.0630   67.9391   84.4189 C   0  0  0  0  0  0  0  0  0  0  0  0
    3.7684   69.1101   83.7162 C   0  0  0  0  0  0  0  0  0  0  0  0
    2.6282   69.1805   82.9265 C   0  0  0  0  0  0  0  0  0  0  0  0
    1.7823   68.0763   82.8360 C   0  0  0  0  0  0  0  0  0  0  0  0
    2.0580   66.8842   83.5316 C   0  0  0  0  0  0  0  0  0  0  0  0
    3.4512   65.6444   85.0153 O   0  0  0  0  0  0  0  0  0  0  0  0
    4.8062   65.3233   85.3428 C   0  0  0  0  0  0  0  0  0  0  0  0
    4.8654   64.9226   86.8170 C   0  0  0  0  0  0  0  0  0  0  0  0
    5.6622   65.5063   88.9789 C   0  0  0  0  0  0  0  0  0  0  0  0
    5.5128   65.9045   87.6222 O   0  0  0  0  0  0  0  0  0  0  0  0
   -0.5215   62.5957   85.9235 C   0  0  0  0  0  0  0  0  0  0  0  0
   -1.2392   63.5461   86.9015 C   0  0  0  0  0  0  0  0  0  0  0  0
   -0.4526   63.7475   88.1977 C   0  0  0  0  0  0  0  0  0  0  0  0
   -2.6323   63.0002   87.2215 C   0  0  0  0  0  0  0  0  0  0  0  0
 23 24  1  0  0  0
 24 22  1  0  0  0
 22 21  1  0  0  0
 21 20  1  0  0  0
 20 14  1  0  0  0
 14 15  2  0  0  0
 15 16  1  0  0  0
 16 17  2  0  0  0
 17 18  1  0  0  0
 18 19  2  0  0  0
 19  1  1  0  0  0
  1  2  2  0  0  0
  2  3  1  0  0  0
  3  4  1  0  0  0
  4  5  2  0  0  0
  4  6  1  0  0  0
  6  7  1  0  0  0
  6  8  1  0  0  0
  8  9  2  0  0  0
  8 10  1  0  0  0
 10 25  1  0  0  0
 25 26  1  0  0  0
 26 27  1  0  0  0
 26 28  1  0  0  0
 10 11  1  0  0  0
 11 12  1  0  0  0
 19 14  1  0  0  0
 12  1  1  0  0  0
 11  3  2  0  0  0
 12 13  1  0  0  0
M  END
> <minimizedAffinity>
-8.39545

$$$$



 28 30  0  0  0  0  0  0  0  0999 V2000
   -1.3417   61.8120   81.9581 C   0  0  0  0  0  0  0  0  0  0  0  0
   -2.0351   60.8305   81.3956 N   0  0  0  0  0  0  0  0  0  0  0  0
   -1.6494   60.8023   80.0765 C   0  0  0  0  0  0  0  0  0  0  0  0
   -2.0899   59.9273   79.0139 C   0  0  0  0  0  0  0  0  0  0  0  0
   -2.9401   59.0556   79.1763 O   0  0  0  0  0  0  0  0  0  0  0  0
   -1.4481   60.1845   77.7889 N   0  0  0  0  0  0  0  0  0  0  0  0
   -1.8171   59.3588   76.6563 C   0  0  0  0  0  0  0  0  0  0  0  0
   -0.4992   61.1966   77.5332 C   0  0  0  0  0  0  0  0  0  0  0  0
   -0.0194   61.3586   76.4072 O   0  0  0  0  0  0  0  0  0  0  0  0
   -0.1201   62.0176   78.6120 N   0  0  0  0  0  0  0  0  0  0  0  0
   -0.7192   61.7694   79.8276 C   0  0  0  0  0  0  0  0  0  0  0  0
   -0.5291   62.4069   81.0138 N   0  0  0  0  0  0  0  0  0  0  0  0
    0.0909   63.1774   81.2155 H   0  0  0  0  0  0  0  0  0  0  0  0
   -0.4224   63.0183   84.0057 C   0  0  0  0  0  0  0  0  0  0  0  0
   -0.5914   63.3784   85.3516 C   0  0  0  0  0  0  0  0  0  0  0  0
   -1.7181   62.9654   86.0669 C   0  0  0  0  0  0  0  0  0  0  0  0
   -2.6898   62.1893   85.4487 C   0  0  0  0  0  0  0  0  0  0  0  0
   -2.5367   61.8282   84.1112 C   0  0  0  0  0  0  0  0  0  0  0  0
   -1.4123   62.2336   83.3677 C   0  0  0  0  0  0  0  0  0  0  0  0
    0.6693   63.3882   83.2525 O   0  0  0  0  0  0  0  0  0  0  0  0
    1.2128   64.6941   83.4661 C   0  0  0  0  0  0  0  0  0  0  0  0
    0.7633   65.5984   82.3183 C   0  0  0  0  0  0  0  0  0  0  0  0
    1.7506   67.7113   82.7770 C   0  0  0  0  0  0  0  0  0  0  0  0
    1.7587   66.5514   81.9546 O   0  0  0  0  0  0  0  0  0  0  0  0
    0.8748   63.0645   78.3834 C   0  0  0  0  0  0  0  0  0  0  0  0
    0.2863   64.4882   78.4202 C   0  0  0  0  0  0  0  0  0  0  0  0
   -0.5067   64.8215   77.1555 C   0  0  0  0  0  0  0  0  0  0  0  0
    1.4128   65.5067   78.6077 C   0  0  0  0  0  0  0  0  0  0  0  0
 23 24  1  0  0  0
 24 22  1  0  0  0
 22 21  1  0  0  0
 21 20  1  0  0  0
 20 14  1  0  0  0
 14 15  2  0  0  0
 15 16  1  0  0  0
 16 17  2  0  0  0
 17 18  1  0  0  0
 18 19  2  0  0  0
 19  1  1  0  0  0
  1  2  2  0  0  0
  2  3  1  0  0  0
  3  4  1  0  0  0
  4  5  2  0  0  0
  4  6  1  0  0  0
  6  7  1  0  0  0
  6  8  1  0  0  0
  8  9  2  0  0  0
  8 10  1  0  0  0
 10 25  1  0  0  0
 25 26  1  0  0  0
 26 27  1  0  0  0
 26 28  1  0  0  0
 10 11  1  0  0  0
 11 12  1  0  0  0
 19 14  1  0  0  0
 12  1  1  0  0  0
 11  3  2  0  0  0
 12 13  1  0  0  0
M  END
> <minimizedAffinity>
-8.37035

$$$$



 28 30  0  0  0  0  0  0  0  0999 V2000
    0.9747   65.0832   85.0755 C   0  0  0  0  0  0  0  0  0  0  0  0
    0.5385   65.6960   83.9825 N   0  0  0  0  0  0  0  0  0  0  0  0
    1.5246   66.5859   83.6284 C   0  0  0  0  0  0  0  0  0  0  0  0
    1.5683   67.5063   82.5150 C   0  0  0  0  0  0  0  0  0  0  0  0
    0.6493   67.6219   81.7080 O   0  0  0  0  0  0  0  0  0  0  0  0
    2.7626   68.2477   82.4617 N   0  0  0  0  0  0  0  0  0  0  0  0
    2.9087   69.2001   81.3789 C   0  0  0  0  0  0  0  0  0  0  0  0
    3.8303   68.1889   83.3819 C   0  0  0  0  0  0  0  0  0  0  0  0
    4.8244   68.9110   83.2604 O   0  0  0  0  0  0  0  0  0  0  0  0
    3.7191   67.2751   84.4468 N   0  0  0  0  0  0  0  0  0  0  0  0
    2.5673   66.5214   84.5066 C   0  0  0  0  0  0  0  0  0  0  0  0
    2.2174   65.5763   85.4198 N   0  0  0  0  0  0  0  0  0  0  0  0
    2.7445   65.2553   86.2185 H   0  0  0  0  0  0  0  0  0  0  0  0
   -0.2828   62.8737   85.2480 C   0  0  0  0  0  0  0  0  0  0  0  0
   -0.9319   61.9332   86.0627 C   0  0  0  0  0  0  0  0  0  0  0  0
   -1.0512   62.1400   87.4392 C   0  0  0  0  0  0  0  0  0  0  0  0
   -0.5243   63.2863   88.0197 C   0  0  0  0  0  0  0  0  0  0  0  0
    0.1268   64.2265   87.2228 C   0  0  0  0  0  0  0  0  0  0  0  0
    0.2627   64.0405   85.8342 C   0  0  0  0  0  0  0  0  0  0  0  0
   -0.1415   62.7288   83.8860 O   0  0  0  0  0  0  0  0  0  0  0  0
   -1.3255   62.7834   83.0852 C   0  0  0  0  0  0  0  0  0  0  0  0
   -1.5074   61.4299   82.3981 C   0  0  0  0  0  0  0  0  0  0  0  0
   -2.9733   59.5635   82.2673 C   0  0  0  0  0  0  0  0  0  0  0  0
   -2.4284   60.5888   83.0879 O   0  0  0  0  0  0  0  0  0  0  0  0
    4.8171   67.1775   85.4075 C   0  0  0  0  0  0  0  0  0  0  0  0
    5.5787   65.8399   85.3345 C   0  0  0  0  0  0  0  0  0  0  0  0
    5.7796   65.2102   86.7138 C   0  0  0  0  0  0  0  0  0  0  0  0
    6.9360   66.0558   84.6619 C   0  0  0  0  0  0  0  0  0  0  0  0
 23 24  1  0  0  0
 24 22  1  0  0  0
 22 21  1  0  0  0
 21 20  1  0  0  0
 20 14  1  0  0  0
 14 15  2  0  0  0
 15 16  1  0  0  0
 16 17  2  0  0  0
 17 18  1  0  0  0
 18 19  2  0  0  0
 19  1  1  0  0  0
  1  2  2  0  0  0
  2  3  1  0  0  0
  3  4  1  0  0  0
  4  5  2  0  0  0
  4  6  1  0  0  0
  6  7  1  0  0  0
  6  8  1  0  0  0
  8  9  2  0  0  0
  8 10  1  0  0  0
 10 25  1  0  0  0
 25 26  1  0  0  0
 26 27  1  0  0  0
 26 28  1  0  0  0
 10 11  1  0  0  0
 11 12  1  0  0  0
 19 14  1  0  0  0
 12  1  1  0  0  0
 11  3  2  0  0  0
 12 13  1  0  0  0
M  END
> <minimizedAffinity>
-8.36663

$$$$



 28 30  0  0  0  0  0  0  0  0999 V2000
    0.2322   64.3846   84.6313 C   0  0  0  0  0  0  0  0  0  0  0  0
    0.8798   65.5385   84.5341 N   0  0  0  0  0  0  0  0  0  0  0  0
    0.9428   65.8253   83.1912 C   0  0  0  0  0  0  0  0  0  0  0  0
    1.5364   66.9629   82.5263 C   0  0  0  0  0  0  0  0  0  0  0  0
    2.1153   67.8621   83.1309 O   0  0  0  0  0  0  0  0  0  0  0  0
    1.3831   66.9240   81.1286 N   0  0  0  0  0  0  0  0  0  0  0  0
    1.9420   68.0222   80.3654 C   0  0  0  0  0  0  0  0  0  0  0  0
    0.7682   65.8995   80.3786 C   0  0  0  0  0  0  0  0  0  0  0  0
    0.7160   65.9477   79.1460 O   0  0  0  0  0  0  0  0  0  0  0  0
    0.2166   64.8171   81.0896 N   0  0  0  0  0  0  0  0  0  0  0  0
    0.3349   64.8448   82.4619 C   0  0  0  0  0  0  0  0  0  0  0  0
   -0.1093   63.9360   83.3710 N   0  0  0  0  0  0  0  0  0  0  0  0
   -0.6104   63.0766   83.2003 H   0  0  0  0  0  0  0  0  0  0  0  0
   -0.7389   62.4095   85.9156 C   0  0  0  0  0  0  0  0  0  0  0  0
   -0.9790   61.7972   87.1554 C   0  0  0  0  0  0  0  0  0  0  0  0
   -0.5843   62.4124   88.3459 C   0  0  0  0  0  0  0  0  0  0  0  0
    0.0550   63.6449   88.3145 C   0  0  0  0  0  0  0  0  0  0  0  0
    0.3038   64.2621   87.0897 C   0  0  0  0  0  0  0  0  0  0  0  0
   -0.0813   63.6621   85.8761 C   0  0  0  0  0  0  0  0  0  0  0  0
   -1.1114   61.8562   84.7111 O   0  0  0  0  0  0  0  0  0  0  0  0
   -2.5101   61.7652   84.4254 C   0  0  0  0  0  0  0  0  0  0  0  0
   -2.6788   61.3113   82.9753 C   0  0  0  0  0  0  0  0  0  0  0  0
   -3.0076   59.4538   81.5294 C   0  0  0  0  0  0  0  0  0  0  0  0
   -2.9814   59.9224   82.8715 O   0  0  0  0  0  0  0  0  0  0  0  0
   -0.4435   63.7477   80.3420 C   0  0  0  0  0  0  0  0  0  0  0  0
    0.5202   62.6375   79.8800 C   0  0  0  0  0  0  0  0  0  0  0  0
    0.2781   62.2263   78.4268 C   0  0  0  0  0  0  0  0  0  0  0  0
    0.3771   61.4181   80.7932 C   0  0  0  0  0  0  0  0  0  0  0  0
 23 24  1  0  0  0
 24 22  1  0  0  0
 22 21  1  0  0  0
 21 20  1  0  0  0
 20 14  1  0  0  0
 14 15  2  0  0  0
 15 16  1  0  0  0
 16 17  2  0  0  0
 17 18  1  0  0  0
 18 19  2  0  0  0
 19  1  1  0  0  0
  1  2  2  0  0  0
  2  3  1  0  0  0
  3  4  1  0  0  0
  4  5  2  0  0  0
  4  6  1  0  0  0
  6  7  1  0  0  0
  6  8  1  0  0  0
  8  9  2  0  0  0
  8 10  1  0  0  0
 10 25  1  0  0  0
 25 26  1  0  0  0
 26 27  1  0  0  0
 26 28  1  0  0  0
 10 11  1  0  0  0
 11 12  1  0  0  0
 19 14  1  0  0  0
 12  1  1  0  0  0
 11  3  2  0  0  0
 12 13  1  0  0  0
M  END
> <minimizedAffinity>
-8.36529

$$$$



 28 30  0  0  0  0  0  0  0  0999 V2000
    1.4254   66.3386   83.7821 C   0  0  0  0  0  0  0  0  0  0  0  0
    1.3087   66.0438   85.0704 N   0  0  0  0  0  0  0  0  0  0  0  0
    0.5883   64.8745   85.1275 C   0  0  0  0  0  0  0  0  0  0  0  0
    0.1768   64.1099   86.2828 C   0  0  0  0  0  0  0  0  0  0  0  0
    0.4252   64.4557   87.4351 O   0  0  0  0  0  0  0  0  0  0  0  0
   -0.5337   62.9437   85.9451 N   0  0  0  0  0  0  0  0  0  0  0  0
   -0.9908   62.1025   87.0334 C   0  0  0  0  0  0  0  0  0  0  0  0
   -0.8848   62.5197   84.6463 C   0  0  0  0  0  0  0  0  0  0  0  0
   -1.5425   61.4913   84.4614 O   0  0  0  0  0  0  0  0  0  0  0  0
   -0.4576   63.3155   83.5666 N   0  0  0  0  0  0  0  0  0  0  0  0
    0.2598   64.4513   83.8722 C   0  0  0  0  0  0  0  0  0  0  0  0
    0.7853   65.3771   83.0258 N   0  0  0  0  0  0  0  0  0  0  0  0
    0.7453   65.3942   82.0174 H   0  0  0  0  0  0  0  0  0  0  0  0
    3.3833   67.9641   83.6498 C   0  0  0  0  0  0  0  0  0  0  0  0
    3.9624   69.0834   83.0322 C   0  0  0  0  0  0  0  0  0  0  0  0
    3.3002   69.7544   82.0012 C   0  0  0  0  0  0  0  0  0  0  0  0
    2.0534   69.3172   81.5735 C   0  0  0  0  0  0  0  0  0  0  0  0
    1.4688   68.2041   82.1752 C   0  0  0  0  0  0  0  0  0  0  0  0
    2.1163   67.5089   83.2138 C   0  0  0  0  0  0  0  0  0  0  0  0
    3.9835   67.2677   84.6748 O   0  0  0  0  0  0  0  0  0  0  0  0
    5.3035   67.6604   85.0619 C   0  0  0  0  0  0  0  0  0  0  0  0
    5.4607   67.4138   86.5625 C   0  0  0  0  0  0  0  0  0  0  0  0
    5.5335   65.5488   88.0342 C   0  0  0  0  0  0  0  0  0  0  0  0
    6.0422   66.1441   86.8474 O   0  0  0  0  0  0  0  0  0  0  0  0
   -0.7903   62.8934   82.2068 C   0  0  0  0  0  0  0  0  0  0  0  0
    0.4369   62.4602   81.3816 C   0  0  0  0  0  0  0  0  0  0  0  0
    0.0874   62.1963   79.9162 C   0  0  0  0  0  0  0  0  0  0  0  0
    1.0565   61.2050   81.9997 C   0  0  0  0  0  0  0  0  0  0  0  0
 23 24  1  0  0  0
 24 22  1  0  0  0
 22 21  1  0  0  0
 21 20  1  0  0  0
 20 14  1  0  0  0
 14 15  2  0  0  0
 15 16  1  0  0  0
 16 17  2  0  0  0
 17 18  1  0  0  0
 18 19  2  0  0  0
 19  1  1  0  0  0
  1  2  2  0  0  0
  2  3  1  0  0  0
  3  4  1  0  0  0
  4  5  2  0  0  0
  4  6  1  0  0  0
  6  7  1  0  0  0
  6  8  1  0  0  0
  8  9  2  0  0  0
  8 10  1  0  0  0
 10 25  1  0  0  0
 25 26  1  0  0  0
 26 27  1  0  0  0
 26 28  1  0  0  0
 10 11  1  0  0  0
 11 12  1  0  0  0
 19 14  1  0  0  0
 12  1  1  0  0  0
 11  3  2  0  0  0
 12 13  1  0  0  0
M  END
> <minimizedAffinity>
-8.28305

$$$$



 28 30  0  0  0  0  0  0  0  0999 V2000
    0.9591   65.5024   83.8609 C   0  0  0  0  0  0  0  0  0  0  0  0
    1.4330   65.2998   85.0835 N   0  0  0  0  0  0  0  0  0  0  0  0
    0.6473   64.3164   85.6359 C   0  0  0  0  0  0  0  0  0  0  0  0
    0.7255   63.7125   86.9466 C   0  0  0  0  0  0  0  0  0  0  0  0
    1.5537   64.0501   87.7887 O   0  0  0  0  0  0  0  0  0  0  0  0
   -0.2421   62.7116   87.1489 N   0  0  0  0  0  0  0  0  0  0  0  0
   -0.2483   62.0397   88.4332 C   0  0  0  0  0  0  0  0  0  0  0  0
   -1.2424   62.3130   86.2376 C   0  0  0  0  0  0  0  0  0  0  0  0
   -2.0679   61.4423   86.5292 O   0  0  0  0  0  0  0  0  0  0  0  0
   -1.2653   62.9474   84.9813 N   0  0  0  0  0  0  0  0  0  0  0  0
   -0.3124   63.9157   84.7521 C   0  0  0  0  0  0  0  0  0  0  0  0
   -0.1164   64.6667   83.6353 N   0  0  0  0  0  0  0  0  0  0  0  0
   -0.6357   64.6451   82.7700 H   0  0  0  0  0  0  0  0  0  0  0  0
    1.3823   66.2893   81.4745 C   0  0  0  0  0  0  0  0  0  0  0  0
    1.8913   67.2788   80.6193 C   0  0  0  0  0  0  0  0  0  0  0  0
    2.4901   68.4311   81.1345 C   0  0  0  0  0  0  0  0  0  0  0  0
    2.5880   68.6106   82.5081 C   0  0  0  0  0  0  0  0  0  0  0  0
    2.0825   67.6378   83.3689 C   0  0  0  0  0  0  0  0  0  0  0  0
    1.4722   66.4694   82.8753 C   0  0  0  0  0  0  0  0  0  0  0  0
    0.7893   65.1304   81.0259 O   0  0  0  0  0  0  0  0  0  0  0  0
   -0.2460   65.2494   80.0461 C   0  0  0  0  0  0  0  0  0  0  0  0
   -0.0554   64.1463   79.0049 C   0  0  0  0  0  0  0  0  0  0  0  0
   -0.9501   64.8466   76.9172 C   0  0  0  0  0  0  0  0  0  0  0  0
    0.2188   64.6654   77.7061 O   0  0  0  0  0  0  0  0  0  0  0  0
   -2.2791   62.5438   84.0078 C   0  0  0  0  0  0  0  0  0  0  0  0
   -1.8261   61.3887   83.0940 C   0  0  0  0  0  0  0  0  0  0  0  0
   -1.1748   61.8901   81.8041 C   0  0  0  0  0  0  0  0  0  0  0  0
   -3.0241   60.4987   82.7563 C   0  0  0  0  0  0  0  0  0  0  0  0
 23 24  1  0  0  0
 24 22  1  0  0  0
 22 21  1  0  0  0
 21 20  1  0  0  0
 20 14  1  0  0  0
 14 15  2  0  0  0
 15 16  1  0  0  0
 16 17  2  0  0  0
 17 18  1  0  0  0
 18 19  2  0  0  0
 19  1  1  0  0  0
  1  2  2  0  0  0
  2  3  1  0  0  0
  3  4  1  0  0  0
  4  5  2  0  0  0
  4  6  1  0  0  0
  6  7  1  0  0  0
  6  8  1  0  0  0
  8  9  2  0  0  0
  8 10  1  0  0  0
 10 25  1  0  0  0
 25 26  1  0  0  0
 26 27  1  0  0  0
 26 28  1  0  0  0
 10 11  1  0  0  0
 11 12  1  0  0  0
 19 14  1  0  0  0
 12  1  1  0  0  0
 11  3  2  0  0  0
 12 13  1  0  0  0
M  END
> <minimizedAffinity>
-8.27037

$$$$
