


 39 45  0  0  0  0  0  0  0  0999 V2000
    1.9942   76.8643   82.7748 C   0  0  0  0  0  0  0  0  0  0  0  0
    1.6803   77.5459   83.7548 O   0  0  0  0  0  0  0  0  0  0  0  0
    1.0361   76.5919   81.8127 N   0  0  0  0  0  0  0  0  0  0  0  0
   -0.2660   77.2384   81.8988 C   0  0  0  0  0  0  0  0  0  0  0  0
   -0.9678   76.8404   80.6502 C   0  0  0  0  0  0  0  0  0  0  0  0
   -0.1815   75.9674   79.9134 C   0  0  0  0  0  0  0  0  0  0  0  0
   -0.5194   75.4506   78.7166 N   0  0  0  0  0  0  0  0  0  0  0  0
   -1.7252   75.7939   78.2284 C   0  0  0  0  0  0  0  0  0  0  0  0
   -2.1188   75.2712   77.0041 C   0  0  0  0  0  0  0  0  0  0  0  0
   -3.3559   75.5812   76.4320 C   0  0  0  0  0  0  0  0  0  0  0  0
   -4.2288   76.4353   77.0933 C   0  0  0  0  0  0  0  0  0  0  0  0
   -3.8611   76.9758   78.3239 C   0  0  0  0  0  0  0  0  0  0  0  0
   -2.6139   76.6668   78.9075 C   0  0  0  0  0  0  0  0  0  0  0  0
   -2.2007   77.1929   80.1478 C   0  0  0  0  0  0  0  0  0  0  0  0
   -3.0330   78.0438   80.8210 O   0  0  0  0  0  0  0  0  0  0  0  0
    1.1338   75.7055   80.6367 C   0  0  0  0  0  0  0  0  0  0  0  0
   -2.6214   78.3378   81.6489 H   0  0  0  0  0  0  0  0  0  0  0  0
    1.3113   74.2371   80.9948 C   0  0  0  0  0  0  0  0  0  0  0  0
    0.3269   73.5123   81.7129 C   0  0  0  0  0  0  0  0  0  0  0  0
    0.5095   72.1623   82.0322 C   0  0  0  0  0  0  0  0  0  0  0  0
    1.6740   71.5567   81.6171 C   0  0  0  0  0  0  0  0  0  0  0  0
    2.6310   72.2405   80.9078 C   0  0  0  0  0  0  0  0  0  0  0  0
    2.4784   73.5699   80.5763 C   0  0  0  0  0  0  0  0  0  0  0  0
    3.6996   71.4610   80.5918 O   0  0  0  0  0  0  0  0  0  0  0  0
    3.2954   70.2027   81.1687 C   0  0  0  0  0  0  0  0  0  0  0  0
    2.0182   70.2598   81.8374 O   0  0  0  0  0  0  0  0  0  0  0  0
    5.3114   76.0002   81.6924 C   0  0  0  0  0  0  0  0  0  0  0  0
    5.3218   75.3039   82.8837 C   0  0  0  0  0  0  0  0  0  0  0  0
    4.0665   75.5328   83.4966 C   0  0  0  0  0  0  0  0  0  0  0  0
    3.3371   76.3312   82.6351 C   0  0  0  0  0  0  0  0  0  0  0  0
    4.1134   76.6405   81.5537 O   0  0  0  0  0  0  0  0  0  0  0  0
    8.0815   76.5074   78.4803 C   0  0  0  0  0  0  0  0  0  0  0  0
    6.8903   75.8112   78.2698 C   0  0  0  0  0  0  0  0  0  0  0  0
    5.9886   75.6451   79.3273 C   0  0  0  0  0  0  0  0  0  0  0  0
    6.2631   76.1723   80.5994 C   0  0  0  0  0  0  0  0  0  0  0  0
    7.4686   76.8665   80.7896 C   0  0  0  0  0  0  0  0  0  0  0  0
    8.3746   77.0353   79.7381 C   0  0  0  0  0  0  0  0  0  0  0  0
    9.2251   75.8018   76.5304 O   0  0  0  0  0  0  0  0  0  0  0  0
    9.0294   76.6796   77.3612 C   0  0  0  0  0  0  0  0  0  0  0  0
 38 39  2  0  0  0
 39 32  1  0  0  0
 32 33  1  0  0  0
 33 34  2  0  0  0
 34 35  1  0  0  0
 35 27  1  0  0  0
 27 28  2  0  0  0
 28 29  1  0  0  0
 29 30  2  0  0  0
 30  1  1  0  0  0
  1  2  2  0  0  0
  1  3  1  0  0  0
  3  4  1  0  0  0
  4  5  1  0  0  0
  5  6  1  0  0  0
  6  7  2  0  0  0
  7  8  1  0  0  0
  8  9  2  0  0  0
  9 10  1  0  0  0
 10 11  2  0  0  0
 11 12  1  0  0  0
 12 13  2  0  0  0
 13 14  1  0  0  0
 14 15  1  0  0  0
  6 16  1  0  0  0
 16 18  1  0  0  0
 18 19  1  0  0  0
 19 20  2  0  0  0
 20 21  1  0  0  0
 21 22  2  0  0  0
 22 23  1  0  0  0
 22 24  1  0  0  0
 24 25  1  0  0  0
 25 26  1  0  0  0
 30 31  1  0  0  0
 35 36  2  0  0  0
 36 37  1  0  0  0
 37 32  2  0  0  0
 31 27  1  0  0  0
 16  3  1  0  0  0
 23 18  2  0  0  0
 14  5  2  0  0  0
 26 21  1  0  0  0
 13  8  1  0  0  0
 15 17  1  0  0  0
M  END
> <minimizedAffinity>
-1.17179

$$$$



 39 45  0  0  0  0  0  0  0  0999 V2000
    2.4543   76.9304   83.5578 C   0  0  0  0  0  0  0  0  0  0  0  0
    2.0953   77.3435   84.6641 O   0  0  0  0  0  0  0  0  0  0  0  0
    1.5104   76.7967   82.5533 N   0  0  0  0  0  0  0  0  0  0  0  0
    0.1576   77.2882   82.7748 C   0  0  0  0  0  0  0  0  0  0  0  0
   -0.5239   77.1199   81.4644 C   0  0  0  0  0  0  0  0  0  0  0  0
    0.3259   76.5087   80.5548 C   0  0  0  0  0  0  0  0  0  0  0  0
    0.0181   76.2460   79.2703 N   0  0  0  0  0  0  0  0  0  0  0  0
   -1.2202   76.5810   78.8646 C   0  0  0  0  0  0  0  0  0  0  0  0
   -1.5834   76.3138   77.5518 C   0  0  0  0  0  0  0  0  0  0  0  0
   -2.8511   76.6325   77.0567 C   0  0  0  0  0  0  0  0  0  0  0  0
   -3.7867   77.2346   77.8879 C   0  0  0  0  0  0  0  0  0  0  0  0
   -3.4507   77.5154   79.2109 C   0  0  0  0  0  0  0  0  0  0  0  0
   -2.1729   77.1959   79.7175 C   0  0  0  0  0  0  0  0  0  0  0  0
   -1.7902   77.4646   81.0468 C   0  0  0  0  0  0  0  0  0  0  0  0
   -2.6848   78.0646   81.8892 O   0  0  0  0  0  0  0  0  0  0  0  0
    1.6694   76.2096   81.2085 C   0  0  0  0  0  0  0  0  0  0  0  0
   -2.2891   78.2006   82.7645 H   0  0  0  0  0  0  0  0  0  0  0  0
    1.9812   74.7202   81.2279 C   0  0  0  0  0  0  0  0  0  0  0  0
    3.2518   74.2115   80.8582 C   0  0  0  0  0  0  0  0  0  0  0  0
    3.5183   72.8382   80.8830 C   0  0  0  0  0  0  0  0  0  0  0  0
    2.5077   71.9958   81.2882 C   0  0  0  0  0  0  0  0  0  0  0  0
    1.2759   72.4734   81.6639 C   0  0  0  0  0  0  0  0  0  0  0  0
    0.9845   73.8208   81.6523 C   0  0  0  0  0  0  0  0  0  0  0  0
    0.4236   71.4798   82.0323 O   0  0  0  0  0  0  0  0  0  0  0  0
    1.2681   70.3234   81.8625 C   0  0  0  0  0  0  0  0  0  0  0  0
    2.5876   70.6410   81.3730 O   0  0  0  0  0  0  0  0  0  0  0  0
    5.7889   76.5589   82.2678 C   0  0  0  0  0  0  0  0  0  0  0  0
    5.9262   75.7350   83.3661 C   0  0  0  0  0  0  0  0  0  0  0  0
    4.6839   75.7553   84.0443 C   0  0  0  0  0  0  0  0  0  0  0  0
    3.8370   76.5646   83.3097 C   0  0  0  0  0  0  0  0  0  0  0  0
    4.5263   77.0783   82.2474 O   0  0  0  0  0  0  0  0  0  0  0  0
    8.3608   77.7425   79.0687 C   0  0  0  0  0  0  0  0  0  0  0  0
    7.5144   78.6784   79.6651 C   0  0  0  0  0  0  0  0  0  0  0  0
    6.6714   78.2835   80.7102 C   0  0  0  0  0  0  0  0  0  0  0  0
    6.6662   76.9573   81.1714 C   0  0  0  0  0  0  0  0  0  0  0  0
    7.5234   76.0317   80.5552 C   0  0  0  0  0  0  0  0  0  0  0  0
    8.3675   76.4189   79.5099 C   0  0  0  0  0  0  0  0  0  0  0  0
    9.1175   77.7415   76.8248 O   0  0  0  0  0  0  0  0  0  0  0  0
    9.2481   78.1644   77.9664 C   0  0  0  0  0  0  0  0  0  0  0  0
 38 39  2  0  0  0
 39 32  1  0  0  0
 32 33  1  0  0  0
 33 34  2  0  0  0
 34 35  1  0  0  0
 35 27  1  0  0  0
 27 28  2  0  0  0
 28 29  1  0  0  0
 29 30  2  0  0  0
 30  1  1  0  0  0
  1  2  2  0  0  0
  1  3  1  0  0  0
  3  4  1  0  0  0
  4  5  1  0  0  0
  5  6  1  0  0  0
  6  7  2  0  0  0
  7  8  1  0  0  0
  8  9  2  0  0  0
  9 10  1  0  0  0
 10 11  2  0  0  0
 11 12  1  0  0  0
 12 13  2  0  0  0
 13 14  1  0  0  0
 14 15  1  0  0  0
  6 16  1  0  0  0
 16 18  1  0  0  0
 18 19  1  0  0  0
 19 20  2  0  0  0
 20 21  1  0  0  0
 21 22  2  0  0  0
 22 23  1  0  0  0
 22 24  1  0  0  0
 24 25  1  0  0  0
 25 26  1  0  0  0
 30 31  1  0  0  0
 35 36  2  0  0  0
 36 37  1  0  0  0
 37 32  2  0  0  0
 31 27  1  0  0  0
 16  3  1  0  0  0
 23 18  2  0  0  0
 14  5  2  0  0  0
 26 21  1  0  0  0
 13  8  1  0  0  0
 15 17  1  0  0  0
M  END
> <minimizedAffinity>
-1.07393

$$$$



 39 45  0  0  0  0  0  0  0  0999 V2000
    3.1093   72.8474   80.7410 C   0  0  0  0  0  0  0  0  0  0  0  0
    3.4856   71.6884   80.9376 O   0  0  0  0  0  0  0  0  0  0  0  0
    4.0360   73.7939   80.3371 N   0  0  0  0  0  0  0  0  0  0  0  0
    5.3899   73.3716   80.0063 C   0  0  0  0  0  0  0  0  0  0  0  0
    6.0491   74.5964   79.4816 C   0  0  0  0  0  0  0  0  0  0  0  0
    5.1866   75.6794   79.5618 C   0  0  0  0  0  0  0  0  0  0  0  0
    5.4731   76.9246   79.1365 N   0  0  0  0  0  0  0  0  0  0  0  0
    6.7023   77.1214   78.6261 C   0  0  0  0  0  0  0  0  0  0  0  0
    7.0437   78.3941   78.1897 C   0  0  0  0  0  0  0  0  0  0  0  0
    8.3007   78.6767   77.6477 C   0  0  0  0  0  0  0  0  0  0  0  0
    9.2476   77.6671   77.5347 C   0  0  0  0  0  0  0  0  0  0  0  0
    8.9336   76.3791   77.9641 C   0  0  0  0  0  0  0  0  0  0  0  0
    7.6666   76.0869   78.5126 C   0  0  0  0  0  0  0  0  0  0  0  0
    7.3060   74.7989   78.9563 C   0  0  0  0  0  0  0  0  0  0  0  0
    8.2122   73.7802   78.8513 O   0  0  0  0  0  0  0  0  0  0  0  0
    3.8564   75.2490   80.1677 C   0  0  0  0  0  0  0  0  0  0  0  0
    7.8313   72.9510   79.1807 H   0  0  0  0  0  0  0  0  0  0  0  0
    3.5527   75.9798   81.4676 C   0  0  0  0  0  0  0  0  0  0  0  0
    4.3926   75.8748   82.6050 C   0  0  0  0  0  0  0  0  0  0  0  0
    4.0956   76.5552   83.7910 C   0  0  0  0  0  0  0  0  0  0  0  0
    2.9643   77.3393   83.8147 C   0  0  0  0  0  0  0  0  0  0  0  0
    2.1481   77.4637   82.7170 C   0  0  0  0  0  0  0  0  0  0  0  0
    2.4160   76.8079   81.5343 C   0  0  0  0  0  0  0  0  0  0  0  0
    1.0892   78.2853   82.9472 O   0  0  0  0  0  0  0  0  0  0  0  0
    1.3441   78.6779   84.3111 C   0  0  0  0  0  0  0  0  0  0  0  0
    2.5233   78.0672   84.8752 O   0  0  0  0  0  0  0  0  0  0  0  0
   -0.2642   74.0505   80.4344 C   0  0  0  0  0  0  0  0  0  0  0  0
   -0.3481   73.6047   81.7376 C   0  0  0  0  0  0  0  0  0  0  0  0
    0.9179   73.0598   82.0606 C   0  0  0  0  0  0  0  0  0  0  0  0
    1.7244   73.2287   80.9502 C   0  0  0  0  0  0  0  0  0  0  0  0
    0.9885   73.8018   79.9514 O   0  0  0  0  0  0  0  0  0  0  0  0
   -2.9502   75.9970   77.7427 C   0  0  0  0  0  0  0  0  0  0  0  0
   -1.8359   76.6809   78.2314 C   0  0  0  0  0  0  0  0  0  0  0  0
   -0.9618   76.0389   79.1160 C   0  0  0  0  0  0  0  0  0  0  0  0
   -1.1873   74.7126   79.5181 C   0  0  0  0  0  0  0  0  0  0  0  0
   -2.3158   74.0445   79.0166 C   0  0  0  0  0  0  0  0  0  0  0  0
   -3.1939   74.6800   78.1335 C   0  0  0  0  0  0  0  0  0  0  0  0
   -5.0310   76.3225   76.6601 O   0  0  0  0  0  0  0  0  0  0  0  0
   -3.8693   76.6791   76.8097 C   0  0  0  0  0  0  0  0  0  0  0  0
 38 39  2  0  0  0
 39 32  1  0  0  0
 32 33  1  0  0  0
 33 34  2  0  0  0
 34 35  1  0  0  0
 35 27  1  0  0  0
 27 28  2  0  0  0
 28 29  1  0  0  0
 29 30  2  0  0  0
 30  1  1  0  0  0
  1  2  2  0  0  0
  1  3  1  0  0  0
  3  4  1  0  0  0
  4  5  1  0  0  0
  5  6  1  0  0  0
  6  7  2  0  0  0
  7  8  1  0  0  0
  8  9  2  0  0  0
  9 10  1  0  0  0
 10 11  2  0  0  0
 11 12  1  0  0  0
 12 13  2  0  0  0
 13 14  1  0  0  0
 14 15  1  0  0  0
  6 16  1  0  0  0
 16 18  1  0  0  0
 18 19  1  0  0  0
 19 20  2  0  0  0
 20 21  1  0  0  0
 21 22  2  0  0  0
 22 23  1  0  0  0
 22 24  1  0  0  0
 24 25  1  0  0  0
 25 26  1  0  0  0
 30 31  1  0  0  0
 35 36  2  0  0  0
 36 37  1  0  0  0
 37 32  2  0  0  0
 31 27  1  0  0  0
 16  3  1  0  0  0
 23 18  2  0  0  0
 14  5  2  0  0  0
 26 21  1  0  0  0
 13  8  1  0  0  0
 15 17  1  0  0  0
M  END
> <minimizedAffinity>
-1.00438

$$$$



 39 45  0  0  0  0  0  0  0  0999 V2000
    3.5522   75.2914   82.7675 C   0  0  0  0  0  0  0  0  0  0  0  0
    3.8116   75.5898   83.9368 O   0  0  0  0  0  0  0  0  0  0  0  0
    4.3212   75.8328   81.7509 N   0  0  0  0  0  0  0  0  0  0  0  0
    5.5045   76.6118   82.0883 C   0  0  0  0  0  0  0  0  0  0  0  0
    6.1517   76.8993   80.7812 C   0  0  0  0  0  0  0  0  0  0  0  0
    5.3811   76.3997   79.7421 C   0  0  0  0  0  0  0  0  0  0  0  0
    5.7097   76.4688   78.4380 N   0  0  0  0  0  0  0  0  0  0  0  0
    6.8598   77.0988   78.1369 C   0  0  0  0  0  0  0  0  0  0  0  0
    7.2285   77.2053   76.8028 C   0  0  0  0  0  0  0  0  0  0  0  0
    8.4081   77.8448   76.4113 C   0  0  0  0  0  0  0  0  0  0  0  0
    9.2476   78.3948   77.3711 C   0  0  0  0  0  0  0  0  0  0  0  0
    8.9040   78.3032   78.7185 C   0  0  0  0  0  0  0  0  0  0  0  0
    7.7144   77.6594   79.1209 C   0  0  0  0  0  0  0  0  0  0  0  0
    7.3301   77.5414   80.4714 C   0  0  0  0  0  0  0  0  0  0  0  0
    8.1385   78.0646   81.4423 O   0  0  0  0  0  0  0  0  0  0  0  0
    4.1269   75.7309   80.2914 C   0  0  0  0  0  0  0  0  0  0  0  0
    7.7620   77.9033   82.3217 H   0  0  0  0  0  0  0  0  0  0  0  0
    2.8535   76.4029   79.7988 C   0  0  0  0  0  0  0  0  0  0  0  0
    2.4776   77.7041   80.2178 C   0  0  0  0  0  0  0  0  0  0  0  0
    1.3024   78.3044   79.7529 C   0  0  0  0  0  0  0  0  0  0  0  0
    0.5261   77.5930   78.8660 C   0  0  0  0  0  0  0  0  0  0  0  0
    0.8834   76.3376   78.4386 C   0  0  0  0  0  0  0  0  0  0  0  0
    2.0362   75.7214   78.8768 C   0  0  0  0  0  0  0  0  0  0  0  0
   -0.0148   75.8113   77.5636 O   0  0  0  0  0  0  0  0  0  0  0  0
   -0.9691   76.8888   77.4761 C   0  0  0  0  0  0  0  0  0  0  0  0
   -0.6421   78.0169   78.3140 O   0  0  0  0  0  0  0  0  0  0  0  0
    1.4384   72.5048   81.9380 C   0  0  0  0  0  0  0  0  0  0  0  0
    0.4477   73.4596   82.0422 C   0  0  0  0  0  0  0  0  0  0  0  0
    1.0900   74.6720   82.3906 C   0  0  0  0  0  0  0  0  0  0  0  0
    2.4457   74.4071   82.4502 C   0  0  0  0  0  0  0  0  0  0  0  0
    2.6483   73.0776   82.2071 O   0  0  0  0  0  0  0  0  0  0  0  0
    1.4930   68.3524   80.9359 C   0  0  0  0  0  0  0  0  0  0  0  0
    0.4247   69.1534   80.5294 C   0  0  0  0  0  0  0  0  0  0  0  0
    0.4109   70.5123   80.8643 C   0  0  0  0  0  0  0  0  0  0  0  0
    1.4595   71.0846   81.6021 C   0  0  0  0  0  0  0  0  0  0  0  0
    2.5226   70.2598   82.0032 C   0  0  0  0  0  0  0  0  0  0  0  0
    2.5426   68.9013   81.6733 C   0  0  0  0  0  0  0  0  0  0  0  0
    0.5759   66.1704   80.8621 O   0  0  0  0  0  0  0  0  0  0  0  0
    1.5025   66.9193   80.5802 C   0  0  0  0  0  0  0  0  0  0  0  0
 38 39  2  0  0  0
 39 32  1  0  0  0
 32 33  1  0  0  0
 33 34  2  0  0  0
 34 35  1  0  0  0
 35 27  1  0  0  0
 27 28  2  0  0  0
 28 29  1  0  0  0
 29 30  2  0  0  0
 30  1  1  0  0  0
  1  2  2  0  0  0
  1  3  1  0  0  0
  3  4  1  0  0  0
  4  5  1  0  0  0
  5  6  1  0  0  0
  6  7  2  0  0  0
  7  8  1  0  0  0
  8  9  2  0  0  0
  9 10  1  0  0  0
 10 11  2  0  0  0
 11 12  1  0  0  0
 12 13  2  0  0  0
 13 14  1  0  0  0
 14 15  1  0  0  0
  6 16  1  0  0  0
 16 18  1  0  0  0
 18 19  1  0  0  0
 19 20  2  0  0  0
 20 21  1  0  0  0
 21 22  2  0  0  0
 22 23  1  0  0  0
 22 24  1  0  0  0
 24 25  1  0  0  0
 25 26  1  0  0  0
 30 31  1  0  0  0
 35 36  2  0  0  0
 36 37  1  0  0  0
 37 32  2  0  0  0
 31 27  1  0  0  0
 16  3  1  0  0  0
 23 18  2  0  0  0
 14  5  2  0  0  0
 26 21  1  0  0  0
 13  8  1  0  0  0
 15 17  1  0  0  0
M  END
> <minimizedAffinity>
-0.96902

$$$$



 39 45  0  0  0  0  0  0  0  0999 V2000
    0.5662   71.5941   81.1952 C   0  0  0  0  0  0  0  0  0  0  0  0
   -0.5628   71.7175   80.7118 O   0  0  0  0  0  0  0  0  0  0  0  0
    1.1901   72.7068   81.7342 N   0  0  0  0  0  0  0  0  0  0  0  0
    0.4461   73.9525   81.8580 C   0  0  0  0  0  0  0  0  0  0  0  0
    1.3581   74.8642   82.5978 C   0  0  0  0  0  0  0  0  0  0  0  0
    2.5754   74.2422   82.8312 C   0  0  0  0  0  0  0  0  0  0  0  0
    3.6030   74.7910   83.5068 N   0  0  0  0  0  0  0  0  0  0  0  0
    3.4293   76.0474   83.9557 C   0  0  0  0  0  0  0  0  0  0  0  0
    4.4698   76.6559   84.6442 C   0  0  0  0  0  0  0  0  0  0  0  0
    4.3648   77.9581   85.1411 C   0  0  0  0  0  0  0  0  0  0  0  0
    3.1931   78.6787   84.9500 C   0  0  0  0  0  0  0  0  0  0  0  0
    2.1312   78.0940   84.2627 C   0  0  0  0  0  0  0  0  0  0  0  0
    2.2304   76.7799   83.7580 C   0  0  0  0  0  0  0  0  0  0  0  0
    1.1809   76.1494   83.0603 C   0  0  0  0  0  0  0  0  0  0  0  0
    0.0103   76.8279   82.8623 O   0  0  0  0  0  0  0  0  0  0  0  0
    2.5692   72.8363   82.2439 C   0  0  0  0  0  0  0  0  0  0  0  0
   -0.6259   76.2753   82.3817 H   0  0  0  0  0  0  0  0  0  0  0  0
    3.6336   72.6558   81.1714 C   0  0  0  0  0  0  0  0  0  0  0  0
    4.1872   71.3871   80.8650 C   0  0  0  0  0  0  0  0  0  0  0  0
    5.1652   71.2425   79.8750 C   0  0  0  0  0  0  0  0  0  0  0  0
    5.5665   72.3731   79.1997 C   0  0  0  0  0  0  0  0  0  0  0  0
    5.0297   73.6073   79.4739 C   0  0  0  0  0  0  0  0  0  0  0  0
    4.0632   73.7807   80.4415 C   0  0  0  0  0  0  0  0  0  0  0  0
    5.5581   74.5885   78.6946 O   0  0  0  0  0  0  0  0  0  0  0  0
    6.4763   73.8255   77.8859 C   0  0  0  0  0  0  0  0  0  0  0  0
    6.5006   72.4204   78.2127 O   0  0  0  0  0  0  0  0  0  0  0  0
    2.3711   68.5925   82.0042 C   0  0  0  0  0  0  0  0  0  0  0  0
    2.1517   68.3185   80.6697 C   0  0  0  0  0  0  0  0  0  0  0  0
    1.4151   69.4094   80.1489 C   0  0  0  0  0  0  0  0  0  0  0  0
    1.2483   70.3129   81.1822 C   0  0  0  0  0  0  0  0  0  0  0  0
    1.8032   69.7939   82.3181 O   0  0  0  0  0  0  0  0  0  0  0  0
    4.3973   66.5966   85.1916 C   0  0  0  0  0  0  0  0  0  0  0  0
    4.8619   67.8311   84.7353 C   0  0  0  0  0  0  0  0  0  0  0  0
    4.1959   68.4781   83.6881 C   0  0  0  0  0  0  0  0  0  0  0  0
    3.0625   67.9045   83.0899 C   0  0  0  0  0  0  0  0  0  0  0  0
    2.6142   66.6607   83.5625 C   0  0  0  0  0  0  0  0  0  0  0  0
    3.2752   66.0081   84.6075 C   0  0  0  0  0  0  0  0  0  0  0  0
    6.2997   66.0794   86.5035 O   0  0  0  0  0  0  0  0  0  0  0  0
    5.1038   65.9181   86.2966 C   0  0  0  0  0  0  0  0  0  0  0  0
 38 39  2  0  0  0
 39 32  1  0  0  0
 32 33  1  0  0  0
 33 34  2  0  0  0
 34 35  1  0  0  0
 35 27  1  0  0  0
 27 28  2  0  0  0
 28 29  1  0  0  0
 29 30  2  0  0  0
 30  1  1  0  0  0
  1  2  2  0  0  0
  1  3  1  0  0  0
  3  4  1  0  0  0
  4  5  1  0  0  0
  5  6  1  0  0  0
  6  7  2  0  0  0
  7  8  1  0  0  0
  8  9  2  0  0  0
  9 10  1  0  0  0
 10 11  2  0  0  0
 11 12  1  0  0  0
 12 13  2  0  0  0
 13 14  1  0  0  0
 14 15  1  0  0  0
  6 16  1  0  0  0
 16 18  1  0  0  0
 18 19  1  0  0  0
 19 20  2  0  0  0
 20 21  1  0  0  0
 21 22  2  0  0  0
 22 23  1  0  0  0
 22 24  1  0  0  0
 24 25  1  0  0  0
 25 26  1  0  0  0
 30 31  1  0  0  0
 35 36  2  0  0  0
 36 37  1  0  0  0
 37 32  2  0  0  0
 31 27  1  0  0  0
 16  3  1  0  0  0
 23 18  2  0  0  0
 14  5  2  0  0  0
 26 21  1  0  0  0
 13  8  1  0  0  0
 15 17  1  0  0  0
M  END
> <minimizedAffinity>
-0.87945

$$$$



 39 45  0  0  0  0  0  0  0  0999 V2000
    4.4269   75.6894   81.1443 C   0  0  0  0  0  0  0  0  0  0  0  0
    5.4983   75.8135   80.5441 O   0  0  0  0  0  0  0  0  0  0  0  0
    3.7397   74.4909   81.0487 N   0  0  0  0  0  0  0  0  0  0  0  0
    4.3651   73.3611   80.3756 C   0  0  0  0  0  0  0  0  0  0  0  0
    3.4271   72.2280   80.5906 C   0  0  0  0  0  0  0  0  0  0  0  0
    2.2980   72.6599   81.2703 C   0  0  0  0  0  0  0  0  0  0  0  0
    1.2760   71.8677   81.6463 N   0  0  0  0  0  0  0  0  0  0  0  0
    1.3591   70.5695   81.3028 C   0  0  0  0  0  0  0  0  0  0  0  0
    0.3195   69.7212   81.6581 C   0  0  0  0  0  0  0  0  0  0  0  0
    0.3336   68.3608   81.3372 C   0  0  0  0  0  0  0  0  0  0  0  0
    1.4110   67.8254   80.6435 C   0  0  0  0  0  0  0  0  0  0  0  0
    2.4698   68.6525   80.2735 C   0  0  0  0  0  0  0  0  0  0  0  0
    2.4618   70.0268   80.5939 C   0  0  0  0  0  0  0  0  0  0  0  0
    3.5119   70.8982   80.2422 C   0  0  0  0  0  0  0  0  0  0  0  0
    4.5918   70.4014   79.5661 O   0  0  0  0  0  0  0  0  0  0  0  0
    2.3974   74.1524   81.5607 C   0  0  0  0  0  0  0  0  0  0  0  0
    5.2407   71.1029   79.3994 H   0  0  0  0  0  0  0  0  0  0  0  0
    1.2772   74.9431   80.9005 C   0  0  0  0  0  0  0  0  0  0  0  0
    1.1399   75.0225   79.4917 C   0  0  0  0  0  0  0  0  0  0  0  0
    0.1025   75.7549   78.9044 C   0  0  0  0  0  0  0  0  0  0  0  0
   -0.7882   76.3894   79.7406 C   0  0  0  0  0  0  0  0  0  0  0  0
   -0.6781   76.3104   81.1074 C   0  0  0  0  0  0  0  0  0  0  0  0
    0.3313   75.5946   81.7150 C   0  0  0  0  0  0  0  0  0  0  0  0
   -1.6573   77.0030   81.7485 O   0  0  0  0  0  0  0  0  0  0  0  0
   -2.4067   77.5115   80.6264 C   0  0  0  0  0  0  0  0  0  0  0  0
   -1.8509   77.1412   79.3476 O   0  0  0  0  0  0  0  0  0  0  0  0
    3.3729   77.9463   83.7361 C   0  0  0  0  0  0  0  0  0  0  0  0
    2.9073   78.6747   82.6605 C   0  0  0  0  0  0  0  0  0  0  0  0
    3.2472   77.9414   81.4984 C   0  0  0  0  0  0  0  0  0  0  0  0
    3.8749   76.7842   81.9213 C   0  0  0  0  0  0  0  0  0  0  0  0
    3.9789   76.8094   83.2837 O   0  0  0  0  0  0  0  0  0  0  0  0
    3.2872   78.4856   87.9730 C   0  0  0  0  0  0  0  0  0  0  0  0
    4.4785   78.6737   87.2705 C   0  0  0  0  0  0  0  0  0  0  0  0
    4.5009   78.4917   85.8829 C   0  0  0  0  0  0  0  0  0  0  0  0
    3.3395   78.1249   85.1843 C   0  0  0  0  0  0  0  0  0  0  0  0
    2.1529   77.9381   85.9111 C   0  0  0  0  0  0  0  0  0  0  0  0
    2.1233   78.1170   87.2975 C   0  0  0  0  0  0  0  0  0  0  0  0
    4.2588   78.4903   90.1325 O   0  0  0  0  0  0  0  0  0  0  0  0
    3.2691   78.6788   89.4368 C   0  0  0  0  0  0  0  0  0  0  0  0
 38 39  2  0  0  0
 39 32  1  0  0  0
 32 33  1  0  0  0
 33 34  2  0  0  0
 34 35  1  0  0  0
 35 27  1  0  0  0
 27 28  2  0  0  0
 28 29  1  0  0  0
 29 30  2  0  0  0
 30  1  1  0  0  0
  1  2  2  0  0  0
  1  3  1  0  0  0
  3  4  1  0  0  0
  4  5  1  0  0  0
  5  6  1  0  0  0
  6  7  2  0  0  0
  7  8  1  0  0  0
  8  9  2  0  0  0
  9 10  1  0  0  0
 10 11  2  0  0  0
 11 12  1  0  0  0
 12 13  2  0  0  0
 13 14  1  0  0  0
 14 15  1  0  0  0
  6 16  1  0  0  0
 16 18  1  0  0  0
 18 19  1  0  0  0
 19 20  2  0  0  0
 20 21  1  0  0  0
 21 22  2  0  0  0
 22 23  1  0  0  0
 22 24  1  0  0  0
 24 25  1  0  0  0
 25 26  1  0  0  0
 30 31  1  0  0  0
 35 36  2  0  0  0
 36 37  1  0  0  0
 37 32  2  0  0  0
 31 27  1  0  0  0
 16  3  1  0  0  0
 23 18  2  0  0  0
 14  5  2  0  0  0
 26 21  1  0  0  0
 13  8  1  0  0  0
 15 17  1  0  0  0
M  END
> <minimizedAffinity>
-0.87474

$$$$



 39 45  0  0  0  0  0  0  0  0999 V2000
    3.1634   74.2363   82.7080 C   0  0  0  0  0  0  0  0  0  0  0  0
    3.3555   74.4146   83.9141 O   0  0  0  0  0  0  0  0  0  0  0  0
    4.0048   74.8524   81.7967 N   0  0  0  0  0  0  0  0  0  0  0  0
    5.1801   75.5646   82.2784 C   0  0  0  0  0  0  0  0  0  0  0  0
    5.9130   75.9590   81.0466 C   0  0  0  0  0  0  0  0  0  0  0  0
    5.1986   75.5813   79.9196 C   0  0  0  0  0  0  0  0  0  0  0  0
    5.6090   75.7664   78.6504 N   0  0  0  0  0  0  0  0  0  0  0  0
    6.7879   76.3923   78.4813 C   0  0  0  0  0  0  0  0  0  0  0  0
    7.2408   76.6164   77.1884 C   0  0  0  0  0  0  0  0  0  0  0  0
    8.4551   77.2597   76.9323 C   0  0  0  0  0  0  0  0  0  0  0  0
    9.2441   77.6934   77.9896 C   0  0  0  0  0  0  0  0  0  0  0  0
    8.8157   77.4822   79.2987 C   0  0  0  0  0  0  0  0  0  0  0  0
    7.5908   76.8338   79.5646 C   0  0  0  0  0  0  0  0  0  0  0  0
    7.1209   76.5972   80.8718 C   0  0  0  0  0  0  0  0  0  0  0  0
    7.8777   77.0039   81.9356 O   0  0  0  0  0  0  0  0  0  0  0  0
    3.8996   74.8957   80.3252 C   0  0  0  0  0  0  0  0  0  0  0  0
    7.4441   76.7690   82.7710 H   0  0  0  0  0  0  0  0  0  0  0  0
    2.6729   75.6445   79.8247 C   0  0  0  0  0  0  0  0  0  0  0  0
    2.0349   75.3139   78.6025 C   0  0  0  0  0  0  0  0  0  0  0  0
    0.9077   76.0148   78.1601 C   0  0  0  0  0  0  0  0  0  0  0  0
    0.4313   77.0318   78.9564 C   0  0  0  0  0  0  0  0  0  0  0  0
    1.0287   77.3551   80.1502 C   0  0  0  0  0  0  0  0  0  0  0  0
    2.1385   76.6812   80.6135 C   0  0  0  0  0  0  0  0  0  0  0  0
    0.4027   78.3833   80.7828 O   0  0  0  0  0  0  0  0  0  0  0  0
   -0.6686   78.6571   79.8572 C   0  0  0  0  0  0  0  0  0  0  0  0
   -0.6468   77.8150   78.6860 O   0  0  0  0  0  0  0  0  0  0  0  0
    1.0318   71.5765   81.5663 C   0  0  0  0  0  0  0  0  0  0  0  0
    0.0829   72.5782   81.5762 C   0  0  0  0  0  0  0  0  0  0  0  0
    0.7367   73.7498   82.0277 C   0  0  0  0  0  0  0  0  0  0  0  0
    2.0614   73.4154   82.2405 C   0  0  0  0  0  0  0  0  0  0  0  0
    2.2272   72.0821   81.9904 O   0  0  0  0  0  0  0  0  0  0  0  0
    1.0189   67.4365   80.5131 C   0  0  0  0  0  0  0  0  0  0  0  0
    2.1274   67.9882   81.1573 C   0  0  0  0  0  0  0  0  0  0  0  0
    2.1270   69.3462   81.4962 C   0  0  0  0  0  0  0  0  0  0  0  0
    1.0244   70.1636   81.2003 C   0  0  0  0  0  0  0  0  0  0  0  0
   -0.0788   69.5885   80.5494 C   0  0  0  0  0  0  0  0  0  0  0  0
   -0.0849   68.2330   80.2068 C   0  0  0  0  0  0  0  0  0  0  0  0
    0.0497   65.4486   79.6665 O   0  0  0  0  0  0  0  0  0  0  0  0
    1.0245   66.0033   80.1577 C   0  0  0  0  0  0  0  0  0  0  0  0
 38 39  2  0  0  0
 39 32  1  0  0  0
 32 33  1  0  0  0
 33 34  2  0  0  0
 34 35  1  0  0  0
 35 27  1  0  0  0
 27 28  2  0  0  0
 28 29  1  0  0  0
 29 30  2  0  0  0
 30  1  1  0  0  0
  1  2  2  0  0  0
  1  3  1  0  0  0
  3  4  1  0  0  0
  4  5  1  0  0  0
  5  6  1  0  0  0
  6  7  2  0  0  0
  7  8  1  0  0  0
  8  9  2  0  0  0
  9 10  1  0  0  0
 10 11  2  0  0  0
 11 12  1  0  0  0
 12 13  2  0  0  0
 13 14  1  0  0  0
 14 15  1  0  0  0
  6 16  1  0  0  0
 16 18  1  0  0  0
 18 19  1  0  0  0
 19 20  2  0  0  0
 20 21  1  0  0  0
 21 22  2  0  0  0
 22 23  1  0  0  0
 22 24  1  0  0  0
 24 25  1  0  0  0
 25 26  1  0  0  0
 30 31  1  0  0  0
 35 36  2  0  0  0
 36 37  1  0  0  0
 37 32  2  0  0  0
 31 27  1  0  0  0
 16  3  1  0  0  0
 23 18  2  0  0  0
 14  5  2  0  0  0
 26 21  1  0  0  0
 13  8  1  0  0  0
 15 17  1  0  0  0
M  END
> <minimizedAffinity>
-0.85154

$$$$



 39 45  0  0  0  0  0  0  0  0999 V2000
    3.3132   75.3156   83.2026 C   0  0  0  0  0  0  0  0  0  0  0  0
    4.4219   75.2697   83.7430 O   0  0  0  0  0  0  0  0  0  0  0  0
    2.8122   74.1729   82.6016 N   0  0  0  0  0  0  0  0  0  0  0  0
    3.5282   72.9139   82.7535 C   0  0  0  0  0  0  0  0  0  0  0  0
    2.6449   71.8992   82.1210 C   0  0  0  0  0  0  0  0  0  0  0  0
    1.5287   72.5097   81.5690 C   0  0  0  0  0  0  0  0  0  0  0  0
    0.5223   71.8607   80.9529 N   0  0  0  0  0  0  0  0  0  0  0  0
    0.6391   70.5245   80.8477 C   0  0  0  0  0  0  0  0  0  0  0  0
   -0.3694   69.8186   80.2063 C   0  0  0  0  0  0  0  0  0  0  0  0
   -0.3195   68.4296   80.0580 C   0  0  0  0  0  0  0  0  0  0  0  0
    0.7625   67.7191   80.5611 C   0  0  0  0  0  0  0  0  0  0  0  0
    1.7902   68.4005   81.2103 C   0  0  0  0  0  0  0  0  0  0  0  0
    1.7465   69.8027   81.3632 C   0  0  0  0  0  0  0  0  0  0  0  0
    2.7617   70.5311   82.0148 C   0  0  0  0  0  0  0  0  0  0  0  0
    3.8369   69.8609   82.5293 O   0  0  0  0  0  0  0  0  0  0  0  0
    1.5886   74.0159   81.7914 C   0  0  0  0  0  0  0  0  0  0  0  0
    4.4495   70.4791   82.9581 H   0  0  0  0  0  0  0  0  0  0  0  0
    1.6225   74.7902   80.4818 C   0  0  0  0  0  0  0  0  0  0  0  0
    2.8287   75.0189   79.7727 C   0  0  0  0  0  0  0  0  0  0  0  0
    2.8384   75.7334   78.5698 C   0  0  0  0  0  0  0  0  0  0  0  0
    1.6349   76.1999   78.0909 C   0  0  0  0  0  0  0  0  0  0  0  0
    0.4555   75.9742   78.7579 C   0  0  0  0  0  0  0  0  0  0  0  0
    0.4139   75.2718   79.9433 C   0  0  0  0  0  0  0  0  0  0  0  0
   -0.6155   76.5137   78.1166 O   0  0  0  0  0  0  0  0  0  0  0  0
    0.0246   77.0889   76.9596 C   0  0  0  0  0  0  0  0  0  0  0  0
    1.4561   76.9095   76.9449 O   0  0  0  0  0  0  0  0  0  0  0  0
    0.7569   77.8410   83.3007 C   0  0  0  0  0  0  0  0  0  0  0  0
    1.8268   78.6752   83.0489 C   0  0  0  0  0  0  0  0  0  0  0  0
    2.9760   77.8510   82.9865 C   0  0  0  0  0  0  0  0  0  0  0  0
    2.5485   76.5490   83.1704 C   0  0  0  0  0  0  0  0  0  0  0  0
    1.2005   76.5531   83.3954 O   0  0  0  0  0  0  0  0  0  0  0  0
   -3.4516   78.4072   83.7668 C   0  0  0  0  0  0  0  0  0  0  0  0
   -2.9374   77.9792   82.5418 C   0  0  0  0  0  0  0  0  0  0  0  0
   -1.5573   77.7994   82.3944 C   0  0  0  0  0  0  0  0  0  0  0  0
   -0.6797   78.0403   83.4637 C   0  0  0  0  0  0  0  0  0  0  0  0
   -1.2182   78.4730   84.6861 C   0  0  0  0  0  0  0  0  0  0  0  0
   -2.5957   78.6559   84.8403 C   0  0  0  0  0  0  0  0  0  0  0  0
   -5.6796   78.5033   82.9705 O   0  0  0  0  0  0  0  0  0  0  0  0
   -4.9084   78.5955   83.9170 C   0  0  0  0  0  0  0  0  0  0  0  0
 38 39  2  0  0  0
 39 32  1  0  0  0
 32 33  1  0  0  0
 33 34  2  0  0  0
 34 35  1  0  0  0
 35 27  1  0  0  0
 27 28  2  0  0  0
 28 29  1  0  0  0
 29 30  2  0  0  0
 30  1  1  0  0  0
  1  2  2  0  0  0
  1  3  1  0  0  0
  3  4  1  0  0  0
  4  5  1  0  0  0
  5  6  1  0  0  0
  6  7  2  0  0  0
  7  8  1  0  0  0
  8  9  2  0  0  0
  9 10  1  0  0  0
 10 11  2  0  0  0
 11 12  1  0  0  0
 12 13  2  0  0  0
 13 14  1  0  0  0
 14 15  1  0  0  0
  6 16  1  0  0  0
 16 18  1  0  0  0
 18 19  1  0  0  0
 19 20  2  0  0  0
 20 21  1  0  0  0
 21 22  2  0  0  0
 22 23  1  0  0  0
 22 24  1  0  0  0
 24 25  1  0  0  0
 25 26  1  0  0  0
 30 31  1  0  0  0
 35 36  2  0  0  0
 36 37  1  0  0  0
 37 32  2  0  0  0
 31 27  1  0  0  0
 16  3  1  0  0  0
 23 18  2  0  0  0
 14  5  2  0  0  0
 26 21  1  0  0  0
 13  8  1  0  0  0
 15 17  1  0  0  0
M  END
> <minimizedAffinity>
-0.82564

$$$$



 39 45  0  0  0  0  0  0  0  0999 V2000
    0.7542   75.9063   82.6164 C   0  0  0  0  0  0  0  0  0  0  0  0
   -0.0517   76.5503   83.2942 O   0  0  0  0  0  0  0  0  0  0  0  0
    2.1007   76.2188   82.6993 N   0  0  0  0  0  0  0  0  0  0  0  0
    2.5492   77.1868   83.6907 C   0  0  0  0  0  0  0  0  0  0  0  0
    4.0327   77.1618   83.5976 C   0  0  0  0  0  0  0  0  0  0  0  0
    4.4372   76.3068   82.5834 C   0  0  0  0  0  0  0  0  0  0  0  0
    5.7187   76.0395   82.2674 N   0  0  0  0  0  0  0  0  0  0  0  0
    6.6633   76.6809   82.9790 C   0  0  0  0  0  0  0  0  0  0  0  0
    7.9972   76.4452   82.6755 C   0  0  0  0  0  0  0  0  0  0  0  0
    9.0349   77.0734   83.3699 C   0  0  0  0  0  0  0  0  0  0  0  0
    8.7415   77.9617   84.3963 C   0  0  0  0  0  0  0  0  0  0  0  0
    7.4115   78.2182   84.7240 C   0  0  0  0  0  0  0  0  0  0  0  0
    6.3589   77.5878   84.0269 C   0  0  0  0  0  0  0  0  0  0  0  0
    5.0010   77.8155   84.3269 C   0  0  0  0  0  0  0  0  0  0  0  0
    4.6777   78.6779   85.3377 O   0  0  0  0  0  0  0  0  0  0  0  0
    3.2232   75.6871   81.9021 C   0  0  0  0  0  0  0  0  0  0  0  0
    3.7149   78.7318   85.4438 H   0  0  0  0  0  0  0  0  0  0  0  0
    3.1453   76.0477   80.4257 C   0  0  0  0  0  0  0  0  0  0  0  0
    3.9320   75.3897   79.4468 C   0  0  0  0  0  0  0  0  0  0  0  0
    3.8453   75.7362   78.0940 C   0  0  0  0  0  0  0  0  0  0  0  0
    2.9625   76.7323   77.7421 C   0  0  0  0  0  0  0  0  0  0  0  0
    2.1825   77.3695   78.6760 C   0  0  0  0  0  0  0  0  0  0  0  0
    2.2437   77.0483   80.0152 C   0  0  0  0  0  0  0  0  0  0  0  0
    1.3783   78.3162   78.1225 O   0  0  0  0  0  0  0  0  0  0  0  0
    1.7297   78.1878   76.7298 C   0  0  0  0  0  0  0  0  0  0  0  0
    2.7482   77.1965   76.4822 O   0  0  0  0  0  0  0  0  0  0  0  0
    0.1701   72.8066   80.8924 C   0  0  0  0  0  0  0  0  0  0  0  0
   -0.6881   73.5917   80.1501 C   0  0  0  0  0  0  0  0  0  0  0  0
   -0.6171   74.8958   80.6962 C   0  0  0  0  0  0  0  0  0  0  0  0
    0.3059   74.8522   81.7248 C   0  0  0  0  0  0  0  0  0  0  0  0
    0.7564   73.5692   81.8615 O   0  0  0  0  0  0  0  0  0  0  0  0
    1.3330   68.6987   80.7430 C   0  0  0  0  0  0  0  0  0  0  0  0
    0.0520   69.0755   80.3367 C   0  0  0  0  0  0  0  0  0  0  0  0
   -0.3242   70.4225   80.3917 C   0  0  0  0  0  0  0  0  0  0  0  0
    0.5707   71.4038   80.8476 C   0  0  0  0  0  0  0  0  0  0  0  0
    1.8531   71.0021   81.2542 C   0  0  0  0  0  0  0  0  0  0  0  0
    2.2354   69.6582   81.2030 C   0  0  0  0  0  0  0  0  0  0  0  0
    1.5993   66.5236   81.6407 O   0  0  0  0  0  0  0  0  0  0  0  0
    1.7247   67.2762   80.6831 C   0  0  0  0  0  0  0  0  0  0  0  0
 38 39  2  0  0  0
 39 32  1  0  0  0
 32 33  1  0  0  0
 33 34  2  0  0  0
 34 35  1  0  0  0
 35 27  1  0  0  0
 27 28  2  0  0  0
 28 29  1  0  0  0
 29 30  2  0  0  0
 30  1  1  0  0  0
  1  2  2  0  0  0
  1  3  1  0  0  0
  3  4  1  0  0  0
  4  5  1  0  0  0
  5  6  1  0  0  0
  6  7  2  0  0  0
  7  8  1  0  0  0
  8  9  2  0  0  0
  9 10  1  0  0  0
 10 11  2  0  0  0
 11 12  1  0  0  0
 12 13  2  0  0  0
 13 14  1  0  0  0
 14 15  1  0  0  0
  6 16  1  0  0  0
 16 18  1  0  0  0
 18 19  1  0  0  0
 19 20  2  0  0  0
 20 21  1  0  0  0
 21 22  2  0  0  0
 22 23  1  0  0  0
 22 24  1  0  0  0
 24 25  1  0  0  0
 25 26  1  0  0  0
 30 31  1  0  0  0
 35 36  2  0  0  0
 36 37  1  0  0  0
 37 32  2  0  0  0
 31 27  1  0  0  0
 16  3  1  0  0  0
 23 18  2  0  0  0
 14  5  2  0  0  0
 26 21  1  0  0  0
 13  8  1  0  0  0
 15 17  1  0  0  0
M  END
> <minimizedAffinity>
-0.81288

$$$$
