


 35 37  0  0  0  0  0  0  0  0999 V2000
    2.0402   67.4292   82.8371 C   0  0  0  0  0  0  0  0  0  0  0  0
    1.6811   66.0817   82.9636 C   0  0  0  0  0  0  0  0  0  0  0  0
    0.9502   65.4313   81.9616 C   0  0  0  0  0  0  0  0  0  0  0  0
    0.5618   66.1137   80.8138 C   0  0  0  0  0  0  0  0  0  0  0  0
    0.9173   67.4586   80.6792 C   0  0  0  0  0  0  0  0  0  0  0  0
    1.6533   68.1307   81.6764 C   0  0  0  0  0  0  0  0  0  0  0  0
    1.9753   69.5754   81.4144 C   0  0  0  0  0  0  0  0  0  0  0  0
    1.1090   70.5040   81.6726 N   0  0  0  0  0  0  0  0  0  0  0  0
    1.4375   71.8187   81.4171 C   0  0  0  0  0  0  0  0  0  0  0  0
    2.6256   72.2119   80.9120 C   0  0  0  0  0  0  0  0  0  0  0  0
    3.6103   71.1400   80.6144 C   0  0  0  0  0  0  0  0  0  0  0  0
    4.7186   71.3714   80.1416 O   0  0  0  0  0  0  0  0  0  0  0  0
    3.2047   69.8739   80.8972 N   0  0  0  0  0  0  0  0  0  0  0  0
    3.8658   69.1343   80.6989 H   0  0  0  0  0  0  0  0  0  0  0  0
    0.3184   72.7806   81.7704 C   0  0  0  0  0  0  0  0  0  0  0  0
   -0.6328   72.9992   80.6006 C   0  0  0  0  0  0  0  0  0  0  0  0
    3.0791   73.6186   80.6265 C   0  0  0  0  0  0  0  0  0  0  0  0
    3.7064   74.2740   81.8485 C   0  0  0  0  0  0  0  0  0  0  0  0
   -0.1685   65.5307   79.7650 N   0  0  0  0  0  0  0  0  0  0  0  0
    0.3128   64.8152   78.6841 C   0  0  0  0  0  0  0  0  0  0  0  0
    1.4714   64.5209   78.4364 O   0  0  0  0  0  0  0  0  0  0  0  0
   -1.1851   65.5836   79.8092 H   0  0  0  0  0  0  0  0  0  0  0  0
   -0.8485   64.3688   77.7575 C   0  0  0  0  0  0  0  0  0  0  0  0
   -1.2513   65.1919   76.9360 O   0  0  0  0  0  0  0  0  0  0  0  0
   -1.3507   63.0781   77.8704 N   0  0  0  0  0  0  0  0  0  0  0  0
   -2.5136   62.6931   77.0714 C   0  0  0  0  0  0  0  0  0  0  0  0
   -3.3833   61.6649   77.8145 C   0  0  0  0  0  0  0  0  0  0  0  0
   -2.6684   60.4148   78.1461 N   0  0  0  0  0  0  0  0  0  0  0  0
   -3.2767   59.7640   79.3036 C   0  0  0  0  0  0  0  0  0  0  0  0
   -1.2186   60.6218   78.3279 C   0  0  0  0  0  0  0  0  0  0  0  0
   -0.7978   62.0435   78.7500 C   0  0  0  0  0  0  0  0  0  0  0  0
    2.7551   68.1110   83.7886 O   0  0  0  0  0  0  0  0  0  0  0  0
    3.5563   67.3606   84.7050 C   0  0  0  0  0  0  0  0  0  0  0  0
    5.9347   67.1174   85.5063 C   0  0  0  0  0  0  0  0  0  0  0  0
    4.9919   67.8615   84.5782 C   0  0  0  0  0  0  0  0  0  0  0  0
 34 35  1  0  0  0
 35 33  1  0  0  0
 33 32  1  0  0  0
 32  1  1  0  0  0
  1  2  1  0  0  0
  2  3  2  0  0  0
  3  4  1  0  0  0
  4 19  1  0  0  0
 19 20  1  0  0  0
 20 21  2  0  0  0
 20 23  1  0  0  0
 23 24  2  0  0  0
 23 25  1  0  0  0
 25 26  1  0  0  0
 26 27  1  0  0  0
 27 28  1  0  0  0
 28 29  1  0  0  0
 28 30  1  0  0  0
 30 31  1  0  0  0
  4  5  2  0  0  0
  5  6  1  0  0  0
  6  7  1  0  0  0
  7  8  2  0  0  0
  8  9  1  0  0  0
  9 15  1  0  0  0
 15 16  1  0  0  0
  9 10  2  0  0  0
 10 17  1  0  0  0
 17 18  1  0  0  0
 10 11  1  0  0  0
 11 12  2  0  0  0
 11 13  1  0  0  0
  6  1  2  0  0  0
 13  7  1  0  0  0
 31 25  1  0  0  0
 19 22  1  0  0  0
 13 14  1  0  0  0
M  END
> <minimizedAffinity>
-1.53756

$$$$



 35 37  0  0  0  0  0  0  0  0999 V2000
    1.6941   75.3513   81.0911 C   0  0  0  0  0  0  0  0  0  0  0  0
    0.5658   74.5806   80.7851 C   0  0  0  0  0  0  0  0  0  0  0  0
    0.5234   73.2122   81.0801 C   0  0  0  0  0  0  0  0  0  0  0  0
    1.6074   72.5855   81.6852 C   0  0  0  0  0  0  0  0  0  0  0  0
    2.7370   73.3479   81.9952 C   0  0  0  0  0  0  0  0  0  0  0  0
    2.7986   74.7266   81.7067 C   0  0  0  0  0  0  0  0  0  0  0  0
    4.0669   75.4367   82.0896 C   0  0  0  0  0  0  0  0  0  0  0  0
    4.0939   76.2427   83.1040 N   0  0  0  0  0  0  0  0  0  0  0  0
    5.2744   76.8793   83.4247 C   0  0  0  0  0  0  0  0  0  0  0  0
    6.4275   76.7119   82.7439 C   0  0  0  0  0  0  0  0  0  0  0  0
    6.3856   75.7900   81.5796 C   0  0  0  0  0  0  0  0  0  0  0  0
    7.3658   75.5665   80.8761 O   0  0  0  0  0  0  0  0  0  0  0  0
    5.1832   75.2053   81.3355 N   0  0  0  0  0  0  0  0  0  0  0  0
    5.1408   74.5753   80.5451 H   0  0  0  0  0  0  0  0  0  0  0  0
    5.1396   77.7879   84.6325 C   0  0  0  0  0  0  0  0  0  0  0  0
    3.7421   77.7265   85.2360 C   0  0  0  0  0  0  0  0  0  0  0  0
    7.7633   77.3415   83.0359 C   0  0  0  0  0  0  0  0  0  0  0  0
    7.9298   78.6786   82.3281 C   0  0  0  0  0  0  0  0  0  0  0  0
    1.6393   71.2204   82.0149 N   0  0  0  0  0  0  0  0  0  0  0  0
    2.4135   70.2236   81.4502 C   0  0  0  0  0  0  0  0  0  0  0  0
    3.2487   70.3335   80.5667 O   0  0  0  0  0  0  0  0  0  0  0  0
    1.0673   70.9090   82.7984 H   0  0  0  0  0  0  0  0  0  0  0  0
    2.1140   68.8523   82.1108 C   0  0  0  0  0  0  0  0  0  0  0  0
    2.6251   68.6422   83.2105 O   0  0  0  0  0  0  0  0  0  0  0  0
    1.2753   67.9539   81.4626 N   0  0  0  0  0  0  0  0  0  0  0  0
    1.0787   66.6222   82.0342 C   0  0  0  0  0  0  0  0  0  0  0  0
    0.8509   65.5724   80.9334 C   0  0  0  0  0  0  0  0  0  0  0  0
   -0.3311   65.8465   80.0898 N   0  0  0  0  0  0  0  0  0  0  0  0
   -0.1783   65.2338   78.7728 C   0  0  0  0  0  0  0  0  0  0  0  0
   -0.6391   67.2868   79.9961 C   0  0  0  0  0  0  0  0  0  0  0  0
    0.5538   68.2376   80.2180 C   0  0  0  0  0  0  0  0  0  0  0  0
    1.7851   76.6935   80.8234 O   0  0  0  0  0  0  0  0  0  0  0  0
    0.6140   77.3777   80.3704 C   0  0  0  0  0  0  0  0  0  0  0  0
   -0.6550   78.6451   82.1428 C   0  0  0  0  0  0  0  0  0  0  0  0
    0.5042   78.6766   81.1633 C   0  0  0  0  0  0  0  0  0  0  0  0
 34 35  1  0  0  0
 35 33  1  0  0  0
 33 32  1  0  0  0
 32  1  1  0  0  0
  1  2  1  0  0  0
  2  3  2  0  0  0
  3  4  1  0  0  0
  4 19  1  0  0  0
 19 20  1  0  0  0
 20 21  2  0  0  0
 20 23  1  0  0  0
 23 24  2  0  0  0
 23 25  1  0  0  0
 25 26  1  0  0  0
 26 27  1  0  0  0
 27 28  1  0  0  0
 28 29  1  0  0  0
 28 30  1  0  0  0
 30 31  1  0  0  0
  4  5  2  0  0  0
  5  6  1  0  0  0
  6  7  1  0  0  0
  7  8  2  0  0  0
  8  9  1  0  0  0
  9 15  1  0  0  0
 15 16  1  0  0  0
  9 10  2  0  0  0
 10 17  1  0  0  0
 17 18  1  0  0  0
 10 11  1  0  0  0
 11 12  2  0  0  0
 11 13  1  0  0  0
  6  1  2  0  0  0
 13  7  1  0  0  0
 31 25  1  0  0  0
 19 22  1  0  0  0
 13 14  1  0  0  0
M  END
> <minimizedAffinity>
-1.41605

$$$$



 35 37  0  0  0  0  0  0  0  0999 V2000
    1.9600   75.3214   81.1150 C   0  0  0  0  0  0  0  0  0  0  0  0
    0.7616   74.6098   80.9803 C   0  0  0  0  0  0  0  0  0  0  0  0
    0.6970   73.2413   81.2710 C   0  0  0  0  0  0  0  0  0  0  0  0
    1.8279   72.5556   81.7006 C   0  0  0  0  0  0  0  0  0  0  0  0
    3.0278   73.2588   81.8390 C   0  0  0  0  0  0  0  0  0  0  0  0
    3.1130   74.6366   81.5518 C   0  0  0  0  0  0  0  0  0  0  0  0
    4.4582   75.2800   81.7409 C   0  0  0  0  0  0  0  0  0  0  0  0
    5.3550   75.2258   80.8069 N   0  0  0  0  0  0  0  0  0  0  0  0
    6.5793   75.8248   81.0160 C   0  0  0  0  0  0  0  0  0  0  0  0
    6.9112   76.4818   82.1471 C   0  0  0  0  0  0  0  0  0  0  0  0
    5.8787   76.5343   83.2141 C   0  0  0  0  0  0  0  0  0  0  0  0
    6.0669   77.0913   84.2910 O   0  0  0  0  0  0  0  0  0  0  0  0
    4.7018   75.9191   82.9242 N   0  0  0  0  0  0  0  0  0  0  0  0
    3.9900   75.9472   83.6425 H   0  0  0  0  0  0  0  0  0  0  0  0
    7.5158   75.6706   79.8319 C   0  0  0  0  0  0  0  0  0  0  0  0
    6.8535   74.9301   78.6769 C   0  0  0  0  0  0  0  0  0  0  0  0
    8.2071   77.1847   82.4515 C   0  0  0  0  0  0  0  0  0  0  0  0
    8.2029   78.6252   81.9601 C   0  0  0  0  0  0  0  0  0  0  0  0
    1.8420   71.1864   82.0142 N   0  0  0  0  0  0  0  0  0  0  0  0
    2.5638   70.1778   81.4029 C   0  0  0  0  0  0  0  0  0  0  0  0
    3.3586   70.2779   80.4817 O   0  0  0  0  0  0  0  0  0  0  0  0
    1.3005   70.8798   82.8210 H   0  0  0  0  0  0  0  0  0  0  0  0
    2.2626   68.8067   82.0629 C   0  0  0  0  0  0  0  0  0  0  0  0
    2.8104   68.5769   83.1408 O   0  0  0  0  0  0  0  0  0  0  0  0
    1.3828   67.9305   81.4393 N   0  0  0  0  0  0  0  0  0  0  0  0
    1.1818   66.5976   82.0068 C   0  0  0  0  0  0  0  0  0  0  0  0
    0.8925   65.5623   80.9066 C   0  0  0  0  0  0  0  0  0  0  0  0
   -0.3146   65.8668   80.1104 N   0  0  0  0  0  0  0  0  0  0  0  0
   -0.2233   65.2631   78.7836 C   0  0  0  0  0  0  0  0  0  0  0  0
   -0.5977   67.3134   80.0404 C   0  0  0  0  0  0  0  0  0  0  0  0
    0.6210   68.2392   80.2251 C   0  0  0  0  0  0  0  0  0  0  0  0
    2.0755   76.6610   80.8438 O   0  0  0  0  0  0  0  0  0  0  0  0
    0.9328   77.3526   80.3332 C   0  0  0  0  0  0  0  0  0  0  0  0
    1.0878   78.3864   78.0385 C   0  0  0  0  0  0  0  0  0  0  0  0
    1.4394   78.5318   79.5080 C   0  0  0  0  0  0  0  0  0  0  0  0
 34 35  1  0  0  0
 35 33  1  0  0  0
 33 32  1  0  0  0
 32  1  1  0  0  0
  1  2  1  0  0  0
  2  3  2  0  0  0
  3  4  1  0  0  0
  4 19  1  0  0  0
 19 20  1  0  0  0
 20 21  2  0  0  0
 20 23  1  0  0  0
 23 24  2  0  0  0
 23 25  1  0  0  0
 25 26  1  0  0  0
 26 27  1  0  0  0
 27 28  1  0  0  0
 28 29  1  0  0  0
 28 30  1  0  0  0
 30 31  1  0  0  0
  4  5  2  0  0  0
  5  6  1  0  0  0
  6  7  1  0  0  0
  7  8  2  0  0  0
  8  9  1  0  0  0
  9 15  1  0  0  0
 15 16  1  0  0  0
  9 10  2  0  0  0
 10 17  1  0  0  0
 17 18  1  0  0  0
 10 11  1  0  0  0
 11 12  2  0  0  0
 11 13  1  0  0  0
  6  1  2  0  0  0
 13  7  1  0  0  0
 31 25  1  0  0  0
 19 22  1  0  0  0
 13 14  1  0  0  0
M  END
> <minimizedAffinity>
-1.41047

$$$$



 35 37  0  0  0  0  0  0  0  0999 V2000
    2.0591   75.1756   81.0035 C   0  0  0  0  0  0  0  0  0  0  0  0
    0.8681   74.4462   80.9018 C   0  0  0  0  0  0  0  0  0  0  0  0
    0.8132   73.0966   81.2719 C   0  0  0  0  0  0  0  0  0  0  0  0
    1.9467   72.4478   81.7496 C   0  0  0  0  0  0  0  0  0  0  0  0
    3.1391   73.1690   81.8555 C   0  0  0  0  0  0  0  0  0  0  0  0
    3.2145   74.5283   81.4885 C   0  0  0  0  0  0  0  0  0  0  0  0
    4.5524   75.1941   81.6496 C   0  0  0  0  0  0  0  0  0  0  0  0
    4.8140   75.9092   82.6982 N   0  0  0  0  0  0  0  0  0  0  0  0
    6.0511   76.5077   82.8113 C   0  0  0  0  0  0  0  0  0  0  0  0
    7.0292   76.3921   81.8887 C   0  0  0  0  0  0  0  0  0  0  0  0
    6.7184   75.5746   80.6876 C   0  0  0  0  0  0  0  0  0  0  0  0
    7.5212   75.4062   79.7752 O   0  0  0  0  0  0  0  0  0  0  0  0
    5.4773   75.0213   80.6581 N   0  0  0  0  0  0  0  0  0  0  0  0
    5.2526   74.4623   79.8454 H   0  0  0  0  0  0  0  0  0  0  0  0
    6.1982   77.3094   84.0912 C   0  0  0  0  0  0  0  0  0  0  0  0
    4.8941   77.9895   84.4883 C   0  0  0  0  0  0  0  0  0  0  0  0
    8.4118   76.9852   81.9401 C   0  0  0  0  0  0  0  0  0  0  0  0
    8.4390   78.4133   81.4146 C   0  0  0  0  0  0  0  0  0  0  0  0
    1.9703   71.0996   82.1433 N   0  0  0  0  0  0  0  0  0  0  0  0
    2.6602   70.0521   81.5612 C   0  0  0  0  0  0  0  0  0  0  0  0
    3.4129   70.0925   80.6009 O   0  0  0  0  0  0  0  0  0  0  0  0
    1.4648   70.8447   82.9904 H   0  0  0  0  0  0  0  0  0  0  0  0
    2.3846   68.7244   82.3146 C   0  0  0  0  0  0  0  0  0  0  0  0
    2.9756   68.5581   83.3813 O   0  0  0  0  0  0  0  0  0  0  0  0
    1.4790   67.8154   81.7813 N   0  0  0  0  0  0  0  0  0  0  0  0
    1.2998   66.5199   82.4360 C   0  0  0  0  0  0  0  0  0  0  0  0
    0.9646   65.4212   81.4131 C   0  0  0  0  0  0  0  0  0  0  0  0
   -0.2736   65.6815   80.6496 N   0  0  0  0  0  0  0  0  0  0  0  0
   -0.2372   64.9985   79.3591 C   0  0  0  0  0  0  0  0  0  0  0  0
   -0.5576   67.1223   80.5039 C   0  0  0  0  0  0  0  0  0  0  0  0
    0.6687   68.0530   80.5827 C   0  0  0  0  0  0  0  0  0  0  0  0
    2.1650   76.4979   80.6549 O   0  0  0  0  0  0  0  0  0  0  0  0
    1.8907   76.8686   79.3013 C   0  0  0  0  0  0  0  0  0  0  0  0
    0.2056   78.2760   78.0612 C   0  0  0  0  0  0  0  0  0  0  0  0
    1.0167   78.1188   79.3346 C   0  0  0  0  0  0  0  0  0  0  0  0
 34 35  1  0  0  0
 35 33  1  0  0  0
 33 32  1  0  0  0
 32  1  1  0  0  0
  1  2  1  0  0  0
  2  3  2  0  0  0
  3  4  1  0  0  0
  4 19  1  0  0  0
 19 20  1  0  0  0
 20 21  2  0  0  0
 20 23  1  0  0  0
 23 24  2  0  0  0
 23 25  1  0  0  0
 25 26  1  0  0  0
 26 27  1  0  0  0
 27 28  1  0  0  0
 28 29  1  0  0  0
 28 30  1  0  0  0
 30 31  1  0  0  0
  4  5  2  0  0  0
  5  6  1  0  0  0
  6  7  1  0  0  0
  7  8  2  0  0  0
  8  9  1  0  0  0
  9 15  1  0  0  0
 15 16  1  0  0  0
  9 10  2  0  0  0
 10 17  1  0  0  0
 17 18  1  0  0  0
 10 11  1  0  0  0
 11 12  2  0  0  0
 11 13  1  0  0  0
  6  1  2  0  0  0
 13  7  1  0  0  0
 31 25  1  0  0  0
 19 22  1  0  0  0
 13 14  1  0  0  0
M  END
> <minimizedAffinity>
-1.36879

$$$$



 35 37  0  0  0  0  0  0  0  0999 V2000
    0.9860   73.4497   80.8263 C   0  0  0  0  0  0  0  0  0  0  0  0
   -0.1014   72.5727   80.7310 C   0  0  0  0  0  0  0  0  0  0  0  0
   -0.0189   71.2631   81.2203 C   0  0  0  0  0  0  0  0  0  0  0  0
    1.1515   70.8024   81.8134 C   0  0  0  0  0  0  0  0  0  0  0  0
    2.2412   71.6719   81.9137 C   0  0  0  0  0  0  0  0  0  0  0  0
    2.1775   72.9939   81.4277 C   0  0  0  0  0  0  0  0  0  0  0  0
    3.4145   73.8312   81.5955 C   0  0  0  0  0  0  0  0  0  0  0  0
    4.3743   73.7758   80.7265 N   0  0  0  0  0  0  0  0  0  0  0  0
    5.4957   74.5561   80.9139 C   0  0  0  0  0  0  0  0  0  0  0  0
    5.6621   75.3944   81.9583 C   0  0  0  0  0  0  0  0  0  0  0  0
    4.5588   75.4474   82.9519 C   0  0  0  0  0  0  0  0  0  0  0  0
    4.5992   76.1611   83.9491 O   0  0  0  0  0  0  0  0  0  0  0  0
    3.4920   74.6471   82.6893 N   0  0  0  0  0  0  0  0  0  0  0  0
    2.7336   74.6734   83.3583 H   0  0  0  0  0  0  0  0  0  0  0  0
    6.5249   74.3749   79.8136 C   0  0  0  0  0  0  0  0  0  0  0  0
    5.8847   74.3781   78.4312 C   0  0  0  0  0  0  0  0  0  0  0  0
    6.8345   76.2988   82.2292 C   0  0  0  0  0  0  0  0  0  0  0  0
    6.6674   77.6609   81.5711 C   0  0  0  0  0  0  0  0  0  0  0  0
    1.3103   69.5059   82.3301 N   0  0  0  0  0  0  0  0  0  0  0  0
    1.9131   68.4156   81.7303 C   0  0  0  0  0  0  0  0  0  0  0  0
    2.4558   68.3665   80.6379 O   0  0  0  0  0  0  0  0  0  0  0  0
    0.9958   69.3345   83.2840 H   0  0  0  0  0  0  0  0  0  0  0  0
    1.8501   67.1725   82.6561 C   0  0  0  0  0  0  0  0  0  0  0  0
    2.5383   67.2040   83.6760 O   0  0  0  0  0  0  0  0  0  0  0  0
    1.0143   66.1150   82.3186 N   0  0  0  0  0  0  0  0  0  0  0  0
    1.0353   64.9012   83.1343 C   0  0  0  0  0  0  0  0  0  0  0  0
    0.7473   63.6534   82.2822 C   0  0  0  0  0  0  0  0  0  0  0  0
   -0.5687   63.6862   81.6109 N   0  0  0  0  0  0  0  0  0  0  0  0
   -0.5569   62.8530   80.4113 C   0  0  0  0  0  0  0  0  0  0  0  0
   -1.0249   65.0600   81.3242 C   0  0  0  0  0  0  0  0  0  0  0  0
    0.0903   66.1145   81.1802 C   0  0  0  0  0  0  0  0  0  0  0  0
    0.9559   74.7405   80.3635 O   0  0  0  0  0  0  0  0  0  0  0  0
   -0.3130   75.3866   80.2322 C   0  0  0  0  0  0  0  0  0  0  0  0
    0.0127   77.8464   80.6811 C   0  0  0  0  0  0  0  0  0  0  0  0
   -0.0677   76.7630   79.6211 C   0  0  0  0  0  0  0  0  0  0  0  0
 34 35  1  0  0  0
 35 33  1  0  0  0
 33 32  1  0  0  0
 32  1  1  0  0  0
  1  2  1  0  0  0
  2  3  2  0  0  0
  3  4  1  0  0  0
  4 19  1  0  0  0
 19 20  1  0  0  0
 20 21  2  0  0  0
 20 23  1  0  0  0
 23 24  2  0  0  0
 23 25  1  0  0  0
 25 26  1  0  0  0
 26 27  1  0  0  0
 27 28  1  0  0  0
 28 29  1  0  0  0
 28 30  1  0  0  0
 30 31  1  0  0  0
  4  5  2  0  0  0
  5  6  1  0  0  0
  6  7  1  0  0  0
  7  8  2  0  0  0
  8  9  1  0  0  0
  9 15  1  0  0  0
 15 16  1  0  0  0
  9 10  2  0  0  0
 10 17  1  0  0  0
 17 18  1  0  0  0
 10 11  1  0  0  0
 11 12  2  0  0  0
 11 13  1  0  0  0
  6  1  2  0  0  0
 13  7  1  0  0  0
 31 25  1  0  0  0
 19 22  1  0  0  0
 13 14  1  0  0  0
M  END
> <minimizedAffinity>
-1.32599

$$$$



 35 37  0  0  0  0  0  0  0  0999 V2000
    0.3038   63.9901   83.0744 C   0  0  0  0  0  0  0  0  0  0  0  0
    0.9467   64.8135   84.0069 C   0  0  0  0  0  0  0  0  0  0  0  0
    1.5100   66.0371   83.6236 C   0  0  0  0  0  0  0  0  0  0  0  0
    1.4441   66.4624   82.3012 C   0  0  0  0  0  0  0  0  0  0  0  0
    0.8030   65.6470   81.3644 C   0  0  0  0  0  0  0  0  0  0  0  0
    0.2293   64.4123   81.7308 C   0  0  0  0  0  0  0  0  0  0  0  0
   -0.4329   63.6275   80.6331 C   0  0  0  0  0  0  0  0  0  0  0  0
   -1.5142   62.9510   80.8626 N   0  0  0  0  0  0  0  0  0  0  0  0
   -2.0931   62.2404   79.8324 C   0  0  0  0  0  0  0  0  0  0  0  0
   -1.6037   62.2057   78.5753 C   0  0  0  0  0  0  0  0  0  0  0  0
   -0.3611   62.9801   78.3229 C   0  0  0  0  0  0  0  0  0  0  0  0
    0.1856   63.0159   77.2250 O   0  0  0  0  0  0  0  0  0  0  0  0
    0.1412   63.6511   79.3929 N   0  0  0  0  0  0  0  0  0  0  0  0
    0.9874   64.1823   79.2348 H   0  0  0  0  0  0  0  0  0  0  0  0
   -3.3470   61.5024   80.2632 C   0  0  0  0  0  0  0  0  0  0  0  0
   -3.0210   60.1841   80.9538 C   0  0  0  0  0  0  0  0  0  0  0  0
   -2.1800   61.4825   77.3875 C   0  0  0  0  0  0  0  0  0  0  0  0
   -1.6854   60.0458   77.3002 C   0  0  0  0  0  0  0  0  0  0  0  0
    1.9812   67.6759   81.8408 N   0  0  0  0  0  0  0  0  0  0  0  0
    2.4317   68.7484   82.5883 C   0  0  0  0  0  0  0  0  0  0  0  0
    2.4795   68.8468   83.8041 O   0  0  0  0  0  0  0  0  0  0  0  0
    2.1132   67.7846   80.8363 H   0  0  0  0  0  0  0  0  0  0  0  0
    2.9292   69.8925   81.6664 C   0  0  0  0  0  0  0  0  0  0  0  0
    4.0576   69.7711   81.1901 O   0  0  0  0  0  0  0  0  0  0  0  0
    2.0870   70.9647   81.3983 N   0  0  0  0  0  0  0  0  0  0  0  0
    2.5944   72.0919   80.6167 C   0  0  0  0  0  0  0  0  0  0  0  0
    1.9422   73.4132   81.0578 C   0  0  0  0  0  0  0  0  0  0  0  0
    0.4720   73.4260   80.9087 N   0  0  0  0  0  0  0  0  0  0  0  0
   -0.1328   74.3740   81.8407 C   0  0  0  0  0  0  0  0  0  0  0  0
   -0.1217   72.0802   81.0273 C   0  0  0  0  0  0  0  0  0  0  0  0
    0.6952   71.0632   81.8488 C   0  0  0  0  0  0  0  0  0  0  0  0
   -0.2637   62.7843   83.3989 O   0  0  0  0  0  0  0  0  0  0  0  0
   -0.2197   62.3569   84.7628 C   0  0  0  0  0  0  0  0  0  0  0  0
   -1.6707   62.2149   86.8201 C   0  0  0  0  0  0  0  0  0  0  0  0
   -1.6361   62.4543   85.3215 C   0  0  0  0  0  0  0  0  0  0  0  0
 34 35  1  0  0  0
 35 33  1  0  0  0
 33 32  1  0  0  0
 32  1  1  0  0  0
  1  2  1  0  0  0
  2  3  2  0  0  0
  3  4  1  0  0  0
  4 19  1  0  0  0
 19 20  1  0  0  0
 20 21  2  0  0  0
 20 23  1  0  0  0
 23 24  2  0  0  0
 23 25  1  0  0  0
 25 26  1  0  0  0
 26 27  1  0  0  0
 27 28  1  0  0  0
 28 29  1  0  0  0
 28 30  1  0  0  0
 30 31  1  0  0  0
  4  5  2  0  0  0
  5  6  1  0  0  0
  6  7  1  0  0  0
  7  8  2  0  0  0
  8  9  1  0  0  0
  9 15  1  0  0  0
 15 16  1  0  0  0
  9 10  2  0  0  0
 10 17  1  0  0  0
 17 18  1  0  0  0
 10 11  1  0  0  0
 11 12  2  0  0  0
 11 13  1  0  0  0
  6  1  2  0  0  0
 13  7  1  0  0  0
 31 25  1  0  0  0
 19 22  1  0  0  0
 13 14  1  0  0  0
M  END
> <minimizedAffinity>
-1.30391

$$$$



 35 37  0  0  0  0  0  0  0  0999 V2000
    0.2850   75.1268   80.5703 C   0  0  0  0  0  0  0  0  0  0  0  0
   -0.6384   74.1128   80.2878 C   0  0  0  0  0  0  0  0  0  0  0  0
   -0.4104   72.7930   80.6969 C   0  0  0  0  0  0  0  0  0  0  0  0
    0.7450   72.4588   81.3949 C   0  0  0  0  0  0  0  0  0  0  0  0
    1.6712   73.4653   81.6822 C   0  0  0  0  0  0  0  0  0  0  0  0
    1.4594   74.7998   81.2794 C   0  0  0  0  0  0  0  0  0  0  0  0
    2.5278   75.7903   81.6491 C   0  0  0  0  0  0  0  0  0  0  0  0
    3.5787   75.9388   80.9054 N   0  0  0  0  0  0  0  0  0  0  0  0
    4.5401   76.8550   81.2768 C   0  0  0  0  0  0  0  0  0  0  0  0
    4.4563   77.6268   82.3806 C   0  0  0  0  0  0  0  0  0  0  0  0
    3.2505   77.4460   83.2296 C   0  0  0  0  0  0  0  0  0  0  0  0
    3.0674   78.0805   84.2637 O   0  0  0  0  0  0  0  0  0  0  0  0
    2.3545   76.5236   82.7894 N   0  0  0  0  0  0  0  0  0  0  0  0
    1.5288   76.3904   83.3586 H   0  0  0  0  0  0  0  0  0  0  0  0
    5.7048   76.9068   80.3055 C   0  0  0  0  0  0  0  0  0  0  0  0
    6.0719   75.5230   79.7848 C   0  0  0  0  0  0  0  0  0  0  0  0
    5.4393   78.6665   82.8482 C   0  0  0  0  0  0  0  0  0  0  0  0
    6.5225   78.0686   83.7346 C   0  0  0  0  0  0  0  0  0  0  0  0
    1.0429   71.1606   81.8411 N   0  0  0  0  0  0  0  0  0  0  0  0
    2.0218   70.3017   81.3764 C   0  0  0  0  0  0  0  0  0  0  0  0
    2.8460   70.5090   80.5000 O   0  0  0  0  0  0  0  0  0  0  0  0
    0.5207   70.8027   82.6395 H   0  0  0  0  0  0  0  0  0  0  0  0
    1.9859   68.9562   82.1476 C   0  0  0  0  0  0  0  0  0  0  0  0
    2.6312   68.8984   83.1940 O   0  0  0  0  0  0  0  0  0  0  0  0
    1.2188   67.9088   81.6523 N   0  0  0  0  0  0  0  0  0  0  0  0
    1.2695   66.6093   82.3214 C   0  0  0  0  0  0  0  0  0  0  0  0
    1.0790   65.4592   81.3181 C   0  0  0  0  0  0  0  0  0  0  0  0
   -0.2098   65.5107   80.5968 N   0  0  0  0  0  0  0  0  0  0  0  0
   -0.1087   64.8267   79.3103 C   0  0  0  0  0  0  0  0  0  0  0  0
   -0.7237   66.8865   80.4516 C   0  0  0  0  0  0  0  0  0  0  0  0
    0.3413   68.0006   80.4813 C   0  0  0  0  0  0  0  0  0  0  0  0
    0.1083   76.4335   80.1926 O   0  0  0  0  0  0  0  0  0  0  0  0
   -1.2249   76.9076   79.9861 C   0  0  0  0  0  0  0  0  0  0  0  0
   -2.5758   78.6787   81.1677 C   0  0  0  0  0  0  0  0  0  0  0  0
   -1.2749   78.3590   80.4539 C   0  0  0  0  0  0  0  0  0  0  0  0
 34 35  1  0  0  0
 35 33  1  0  0  0
 33 32  1  0  0  0
 32  1  1  0  0  0
  1  2  1  0  0  0
  2  3  2  0  0  0
  3  4  1  0  0  0
  4 19  1  0  0  0
 19 20  1  0  0  0
 20 21  2  0  0  0
 20 23  1  0  0  0
 23 24  2  0  0  0
 23 25  1  0  0  0
 25 26  1  0  0  0
 26 27  1  0  0  0
 27 28  1  0  0  0
 28 29  1  0  0  0
 28 30  1  0  0  0
 30 31  1  0  0  0
  4  5  2  0  0  0
  5  6  1  0  0  0
  6  7  1  0  0  0
  7  8  2  0  0  0
  8  9  1  0  0  0
  9 15  1  0  0  0
 15 16  1  0  0  0
  9 10  2  0  0  0
 10 17  1  0  0  0
 17 18  1  0  0  0
 10 11  1  0  0  0
 11 12  2  0  0  0
 11 13  1  0  0  0
  6  1  2  0  0  0
 13  7  1  0  0  0
 31 25  1  0  0  0
 19 22  1  0  0  0
 13 14  1  0  0  0
M  END
> <minimizedAffinity>
-1.29232

$$$$



 35 37  0  0  0  0  0  0  0  0999 V2000
    1.1527   74.5139   81.3768 C   0  0  0  0  0  0  0  0  0  0  0  0
    0.0875   73.6332   81.1517 C   0  0  0  0  0  0  0  0  0  0  0  0
    0.2160   72.2626   81.4092 C   0  0  0  0  0  0  0  0  0  0  0  0
    1.4111   71.7436   81.8952 C   0  0  0  0  0  0  0  0  0  0  0  0
    2.4788   72.6161   82.1238 C   0  0  0  0  0  0  0  0  0  0  0  0
    2.3689   73.9988   81.8713 C   0  0  0  0  0  0  0  0  0  0  0  0
    3.5861   74.8327   82.1584 C   0  0  0  0  0  0  0  0  0  0  0  0
    4.5950   74.8332   81.3451 N   0  0  0  0  0  0  0  0  0  0  0  0
    5.6964   75.6081   81.6418 C   0  0  0  0  0  0  0  0  0  0  0  0
    5.7942   76.3859   82.7402 C   0  0  0  0  0  0  0  0  0  0  0  0
    4.6348   76.3750   83.6693 C   0  0  0  0  0  0  0  0  0  0  0  0
    4.6109   77.0304   84.7063 O   0  0  0  0  0  0  0  0  0  0  0  0
    3.5926   75.5847   83.2997 N   0  0  0  0  0  0  0  0  0  0  0  0
    2.7966   75.5679   83.9239 H   0  0  0  0  0  0  0  0  0  0  0  0
    6.7891   75.4968   80.5948 C   0  0  0  0  0  0  0  0  0  0  0  0
    6.2384   75.6412   79.1817 C   0  0  0  0  0  0  0  0  0  0  0  0
    6.9404   77.2804   83.1302 C   0  0  0  0  0  0  0  0  0  0  0  0
    6.7985   78.6773   82.5429 C   0  0  0  0  0  0  0  0  0  0  0  0
    1.6161   70.3836   82.1806 N   0  0  0  0  0  0  0  0  0  0  0  0
    2.2351   69.4298   81.3937 C   0  0  0  0  0  0  0  0  0  0  0  0
    2.7549   69.5835   80.2999 O   0  0  0  0  0  0  0  0  0  0  0  0
    1.3272   70.0431   83.0965 H   0  0  0  0  0  0  0  0  0  0  0  0
    2.2258   68.0462   82.0949 C   0  0  0  0  0  0  0  0  0  0  0  0
    1.3647   67.2452   81.7319 O   0  0  0  0  0  0  0  0  0  0  0  0
    3.1876   67.7653   83.0576 N   0  0  0  0  0  0  0  0  0  0  0  0
    3.1135   66.5029   83.7925 C   0  0  0  0  0  0  0  0  0  0  0  0
    3.6455   66.6623   85.2269 C   0  0  0  0  0  0  0  0  0  0  0  0
    5.0545   67.1034   85.2898 N   0  0  0  0  0  0  0  0  0  0  0  0
    5.3232   67.7940   86.5484 C   0  0  0  0  0  0  0  0  0  0  0  0
    5.4477   67.9136   84.1207 C   0  0  0  0  0  0  0  0  0  0  0  0
    4.2989   68.6550   83.4088 C   0  0  0  0  0  0  0  0  0  0  0  0
    1.0776   75.8630   81.1413 O   0  0  0  0  0  0  0  0  0  0  0  0
    0.3096   76.3167   80.0236 C   0  0  0  0  0  0  0  0  0  0  0  0
   -0.3552   78.4313   78.8216 C   0  0  0  0  0  0  0  0  0  0  0  0
    0.3203   77.8423   80.0467 C   0  0  0  0  0  0  0  0  0  0  0  0
 34 35  1  0  0  0
 35 33  1  0  0  0
 33 32  1  0  0  0
 32  1  1  0  0  0
  1  2  1  0  0  0
  2  3  2  0  0  0
  3  4  1  0  0  0
  4 19  1  0  0  0
 19 20  1  0  0  0
 20 21  2  0  0  0
 20 23  1  0  0  0
 23 24  2  0  0  0
 23 25  1  0  0  0
 25 26  1  0  0  0
 26 27  1  0  0  0
 27 28  1  0  0  0
 28 29  1  0  0  0
 28 30  1  0  0  0
 30 31  1  0  0  0
  4  5  2  0  0  0
  5  6  1  0  0  0
  6  7  1  0  0  0
  7  8  2  0  0  0
  8  9  1  0  0  0
  9 15  1  0  0  0
 15 16  1  0  0  0
  9 10  2  0  0  0
 10 17  1  0  0  0
 17 18  1  0  0  0
 10 11  1  0  0  0
 11 12  2  0  0  0
 11 13  1  0  0  0
  6  1  2  0  0  0
 13  7  1  0  0  0
 31 25  1  0  0  0
 19 22  1  0  0  0
 13 14  1  0  0  0
M  END
> <minimizedAffinity>
-1.27437

$$$$



 35 37  0  0  0  0  0  0  0  0999 V2000
    1.8033   74.8928   81.6699 C   0  0  0  0  0  0  0  0  0  0  0  0
    0.5521   74.2789   81.8055 C   0  0  0  0  0  0  0  0  0  0  0  0
    0.4063   72.8941   81.6551 C   0  0  0  0  0  0  0  0  0  0  0  0
    1.5066   72.0948   81.3648 C   0  0  0  0  0  0  0  0  0  0  0  0
    2.7593   72.6995   81.2292 C   0  0  0  0  0  0  0  0  0  0  0  0
    2.9265   74.0916   81.3775 C   0  0  0  0  0  0  0  0  0  0  0  0
    4.3230   74.6218   81.2094 C   0  0  0  0  0  0  0  0  0  0  0  0
    4.8600   74.7112   80.0334 N   0  0  0  0  0  0  0  0  0  0  0  0
    6.1443   75.1996   79.9170 C   0  0  0  0  0  0  0  0  0  0  0  0
    6.8923   75.6045   80.9648 C   0  0  0  0  0  0  0  0  0  0  0  0
    6.2701   75.4935   82.3094 C   0  0  0  0  0  0  0  0  0  0  0  0
    6.8545   75.8179   83.3384 O   0  0  0  0  0  0  0  0  0  0  0  0
    5.0027   75.0031   82.3322 N   0  0  0  0  0  0  0  0  0  0  0  0
    4.5674   74.9221   83.2418 H   0  0  0  0  0  0  0  0  0  0  0  0
    6.6273   75.2385   78.4790 C   0  0  0  0  0  0  0  0  0  0  0  0
    6.9348   73.8450   77.9455 C   0  0  0  0  0  0  0  0  0  0  0  0
    8.2859   76.1725   80.9303 C   0  0  0  0  0  0  0  0  0  0  0  0
    8.2808   77.6835   80.7482 C   0  0  0  0  0  0  0  0  0  0  0  0
    1.4415   70.7010   81.2030 N   0  0  0  0  0  0  0  0  0  0  0  0
    2.1552   69.7286   81.8791 C   0  0  0  0  0  0  0  0  0  0  0  0
    2.9688   69.8840   82.7759 O   0  0  0  0  0  0  0  0  0  0  0  0
    0.7541   70.3319   80.5477 H   0  0  0  0  0  0  0  0  0  0  0  0
    1.7794   68.3132   81.3675 C   0  0  0  0  0  0  0  0  0  0  0  0
    1.5498   68.2007   80.1636 O   0  0  0  0  0  0  0  0  0  0  0  0
    1.7502   67.2517   82.2637 N   0  0  0  0  0  0  0  0  0  0  0  0
    1.2935   65.9412   81.8022 C   0  0  0  0  0  0  0  0  0  0  0  0
    0.5837   65.1711   82.9286 C   0  0  0  0  0  0  0  0  0  0  0  0
    1.4393   64.9267   84.1085 N   0  0  0  0  0  0  0  0  0  0  0  0
    0.6258   64.7616   85.3103 C   0  0  0  0  0  0  0  0  0  0  0  0
    2.4759   65.9627   84.2816 C   0  0  0  0  0  0  0  0  0  0  0  0
    2.1476   67.3401   83.6723 C   0  0  0  0  0  0  0  0  0  0  0  0
    1.9989   76.2434   81.8080 O   0  0  0  0  0  0  0  0  0  0  0  0
    1.1921   76.9547   82.7504 C   0  0  0  0  0  0  0  0  0  0  0  0
    1.4722   78.4556   84.7571 C   0  0  0  0  0  0  0  0  0  0  0  0
    2.0905   77.3523   83.9177 C   0  0  0  0  0  0  0  0  0  0  0  0
 34 35  1  0  0  0
 35 33  1  0  0  0
 33 32  1  0  0  0
 32  1  1  0  0  0
  1  2  1  0  0  0
  2  3  2  0  0  0
  3  4  1  0  0  0
  4 19  1  0  0  0
 19 20  1  0  0  0
 20 21  2  0  0  0
 20 23  1  0  0  0
 23 24  2  0  0  0
 23 25  1  0  0  0
 25 26  1  0  0  0
 26 27  1  0  0  0
 27 28  1  0  0  0
 28 29  1  0  0  0
 28 30  1  0  0  0
 30 31  1  0  0  0
  4  5  2  0  0  0
  5  6  1  0  0  0
  6  7  1  0  0  0
  7  8  2  0  0  0
  8  9  1  0  0  0
  9 15  1  0  0  0
 15 16  1  0  0  0
  9 10  2  0  0  0
 10 17  1  0  0  0
 17 18  1  0  0  0
 10 11  1  0  0  0
 11 12  2  0  0  0
 11 13  1  0  0  0
  6  1  2  0  0  0
 13  7  1  0  0  0
 31 25  1  0  0  0
 19 22  1  0  0  0
 13 14  1  0  0  0
M  END
> <minimizedAffinity>
-1.27379

$$$$
