


 26 28  0  0  0  0  0  0  0  0999 V2000
   -0.9936   62.8553   82.1848 C   0  0  0  0  0  0  0  0  0  0  0  0
   -1.5239   61.6042   81.8681 C   0  0  0  0  0  0  0  0  0  0  0  0
   -1.6271   61.1807   80.5346 C   0  0  0  0  0  0  0  0  0  0  0  0
   -1.2182   61.9782   79.4576 C   0  0  0  0  0  0  0  0  0  0  0  0
   -0.6704   63.2258   79.8014 C   0  0  0  0  0  0  0  0  0  0  0  0
   -0.5538   63.6820   81.1356 C   0  0  0  0  0  0  0  0  0  0  0  0
    0.0455   65.0508   81.3326 C   0  0  0  0  0  0  0  0  0  0  0  0
    0.9566   65.2515   82.2505 N   0  0  0  0  0  0  0  0  0  0  0  0
    1.4044   66.5301   82.3159 C   0  0  0  0  0  0  0  0  0  0  0  0
    1.0157   67.5961   81.5442 C   0  0  0  0  0  0  0  0  0  0  0  0
    1.7664   68.6969   81.9935 C   0  0  0  0  0  0  0  0  0  0  0  0
    1.7288   70.0911   81.4926 C   0  0  0  0  0  0  0  0  0  0  0  0
    2.5876   68.3469   82.9982 N   0  0  0  0  0  0  0  0  0  0  0  0
    2.3456   67.0240   83.1737 N   0  0  0  0  0  0  0  0  0  0  0  0
    3.0653   66.3037   84.1930 C   0  0  0  0  0  0  0  0  0  0  0  0
    0.0211   67.3838   80.5367 C   0  0  0  0  0  0  0  0  0  0  0  0
   -0.4039   68.2510   79.7822 O   0  0  0  0  0  0  0  0  0  0  0  0
   -0.4151   66.0734   80.5030 N   0  0  0  0  0  0  0  0  0  0  0  0
   -1.1149   65.8647   79.8034 H   0  0  0  0  0  0  0  0  0  0  0  0
   -1.3095   61.5376   78.1331 N   0  0  0  0  0  0  0  0  0  0  0  0
   -1.8878   60.2214   77.8631 C   0  0  0  0  0  0  0  0  0  0  0  0
   -1.4500   62.5195   77.0580 C   0  0  0  0  0  0  0  0  0  0  0  0
   -0.8718   63.3203   83.4689 O   0  0  0  0  0  0  0  0  0  0  0  0
   -0.7124   62.3679   84.5239 C   0  0  0  0  0  0  0  0  0  0  0  0
   -0.5016   62.9292   86.9732 C   0  0  0  0  0  0  0  0  0  0  0  0
   -1.4122   62.9279   85.7588 C   0  0  0  0  0  0  0  0  0  0  0  0
 25 26  1  0  0  0
 26 24  1  0  0  0
 24 23  1  0  0  0
 23  1  1  0  0  0
  1  2  1  0  0  0
  2  3  2  0  0  0
  3  4  1  0  0  0
  4 20  1  0  0  0
 20 21  1  0  0  0
 20 22  1  0  0  0
  4  5  2  0  0  0
  5  6  1  0  0  0
  6  7  1  0  0  0
  7  8  2  0  0  0
  8  9  1  0  0  0
  9 10  2  0  0  0
 10 11  1  0  0  0
 11 12  1  0  0  0
 11 13  2  0  0  0
 13 14  1  0  0  0
 14 15  1  0  0  0
 10 16  1  0  0  0
 16 17  2  0  0  0
 16 18  1  0  0  0
  6  1  2  0  0  0
 18  7  1  0  0  0
 14  9  1  0  0  0
 18 19  1  0  0  0
M  END
> <minimizedAffinity>
-1.49017

$$$$



 26 28  0  0  0  0  0  0  0  0999 V2000
   -0.4039   64.5116   79.6937 C   0  0  0  0  0  0  0  0  0  0  0  0
   -0.5015   64.3856   78.3076 C   0  0  0  0  0  0  0  0  0  0  0  0
   -0.8540   63.1627   77.7173 C   0  0  0  0  0  0  0  0  0  0  0  0
   -1.1172   62.0111   78.4707 C   0  0  0  0  0  0  0  0  0  0  0  0
   -1.0311   62.1665   79.8648 C   0  0  0  0  0  0  0  0  0  0  0  0
   -0.6771   63.3852   80.4901 C   0  0  0  0  0  0  0  0  0  0  0  0
   -0.6181   63.3806   81.9962 C   0  0  0  0  0  0  0  0  0  0  0  0
    0.2902   64.0800   82.6278 N   0  0  0  0  0  0  0  0  0  0  0  0
    0.2253   63.9803   83.9788 C   0  0  0  0  0  0  0  0  0  0  0  0
   -0.6649   63.2493   84.7248 C   0  0  0  0  0  0  0  0  0  0  0  0
   -0.3231   63.4741   86.0701 C   0  0  0  0  0  0  0  0  0  0  0  0
   -0.9728   62.9184   87.2804 C   0  0  0  0  0  0  0  0  0  0  0  0
    0.7293   64.3037   86.1714 N   0  0  0  0  0  0  0  0  0  0  0  0
    1.0425   64.5948   84.8843 N   0  0  0  0  0  0  0  0  0  0  0  0
    2.1477   65.4771   84.6088 C   0  0  0  0  0  0  0  0  0  0  0  0
   -1.6626   62.4835   84.0409 C   0  0  0  0  0  0  0  0  0  0  0  0
   -2.5147   61.7970   84.5927 O   0  0  0  0  0  0  0  0  0  0  0  0
   -1.5624   62.6045   82.6685 N   0  0  0  0  0  0  0  0  0  0  0  0
   -2.2487   62.0886   82.1340 H   0  0  0  0  0  0  0  0  0  0  0  0
   -1.4854   60.8019   77.8714 N   0  0  0  0  0  0  0  0  0  0  0  0
   -2.7614   60.1890   78.2397 C   0  0  0  0  0  0  0  0  0  0  0  0
   -1.0031   60.4915   76.5256 C   0  0  0  0  0  0  0  0  0  0  0  0
   -0.0614   65.6806   80.3230 O   0  0  0  0  0  0  0  0  0  0  0  0
    1.0600   66.4163   79.8260 C   0  0  0  0  0  0  0  0  0  0  0  0
    2.0343   68.3365   81.1383 C   0  0  0  0  0  0  0  0  0  0  0  0
    0.8871   67.8684   80.2613 C   0  0  0  0  0  0  0  0  0  0  0  0
 25 26  1  0  0  0
 26 24  1  0  0  0
 24 23  1  0  0  0
 23  1  1  0  0  0
  1  2  1  0  0  0
  2  3  2  0  0  0
  3  4  1  0  0  0
  4 20  1  0  0  0
 20 21  1  0  0  0
 20 22  1  0  0  0
  4  5  2  0  0  0
  5  6  1  0  0  0
  6  7  1  0  0  0
  7  8  2  0  0  0
  8  9  1  0  0  0
  9 10  2  0  0  0
 10 11  1  0  0  0
 11 12  1  0  0  0
 11 13  2  0  0  0
 13 14  1  0  0  0
 14 15  1  0  0  0
 10 16  1  0  0  0
 16 17  2  0  0  0
 16 18  1  0  0  0
  6  1  2  0  0  0
 18  7  1  0  0  0
 14  9  1  0  0  0
 18 19  1  0  0  0
M  END
> <minimizedAffinity>
-1.43251

$$$$



 26 28  0  0  0  0  0  0  0  0999 V2000
   -1.2987   62.7604   82.6836 C   0  0  0  0  0  0  0  0  0  0  0  0
   -2.0074   61.6388   82.2519 C   0  0  0  0  0  0  0  0  0  0  0  0
   -2.0273   61.2752   80.8971 C   0  0  0  0  0  0  0  0  0  0  0  0
   -1.3547   62.0086   79.9107 C   0  0  0  0  0  0  0  0  0  0  0  0
   -0.6326   63.1229   80.3712 C   0  0  0  0  0  0  0  0  0  0  0  0
   -0.5938   63.5161   81.7297 C   0  0  0  0  0  0  0  0  0  0  0  0
    0.2180   64.7433   82.0558 C   0  0  0  0  0  0  0  0  0  0  0  0
    0.0858   65.8354   81.3465 N   0  0  0  0  0  0  0  0  0  0  0  0
    0.8788   66.8583   81.7520 C   0  0  0  0  0  0  0  0  0  0  0  0
    1.7718   66.8660   82.7940 C   0  0  0  0  0  0  0  0  0  0  0  0
    2.3429   68.1509   82.8085 C   0  0  0  0  0  0  0  0  0  0  0  0
    3.3671   68.6824   83.7382 C   0  0  0  0  0  0  0  0  0  0  0  0
    1.8385   68.9173   81.8265 N   0  0  0  0  0  0  0  0  0  0  0  0
    0.9514   68.1052   81.1995 N   0  0  0  0  0  0  0  0  0  0  0  0
    0.2096   68.6076   80.0713 C   0  0  0  0  0  0  0  0  0  0  0  0
    1.9203   65.6758   83.5755 C   0  0  0  0  0  0  0  0  0  0  0  0
    2.6779   65.5592   84.5318 O   0  0  0  0  0  0  0  0  0  0  0  0
    1.1027   64.6550   83.1308 N   0  0  0  0  0  0  0  0  0  0  0  0
    1.1617   63.7904   83.6523 H   0  0  0  0  0  0  0  0  0  0  0  0
   -1.3672   61.6258   78.5653 N   0  0  0  0  0  0  0  0  0  0  0  0
   -2.2963   60.5811   78.1352 C   0  0  0  0  0  0  0  0  0  0  0  0
   -0.9949   62.5989   77.5385 C   0  0  0  0  0  0  0  0  0  0  0  0
   -1.2471   63.1626   83.9934 O   0  0  0  0  0  0  0  0  0  0  0  0
   -0.8935   62.1966   84.9871 C   0  0  0  0  0  0  0  0  0  0  0  0
   -0.4290   62.9157   87.3589 C   0  0  0  0  0  0  0  0  0  0  0  0
   -1.4963   62.6567   86.3111 C   0  0  0  0  0  0  0  0  0  0  0  0
 25 26  1  0  0  0
 26 24  1  0  0  0
 24 23  1  0  0  0
 23  1  1  0  0  0
  1  2  1  0  0  0
  2  3  2  0  0  0
  3  4  1  0  0  0
  4 20  1  0  0  0
 20 21  1  0  0  0
 20 22  1  0  0  0
  4  5  2  0  0  0
  5  6  1  0  0  0
  6  7  1  0  0  0
  7  8  2  0  0  0
  8  9  1  0  0  0
  9 10  2  0  0  0
 10 11  1  0  0  0
 11 12  1  0  0  0
 11 13  2  0  0  0
 13 14  1  0  0  0
 14 15  1  0  0  0
 10 16  1  0  0  0
 16 17  2  0  0  0
 16 18  1  0  0  0
  6  1  2  0  0  0
 18  7  1  0  0  0
 14  9  1  0  0  0
 18 19  1  0  0  0
M  END
> <minimizedAffinity>
-1.37001

$$$$



 26 28  0  0  0  0  0  0  0  0999 V2000
    0.5809   64.4875   82.3620 C   0  0  0  0  0  0  0  0  0  0  0  0
    1.1826   65.5771   82.9924 C   0  0  0  0  0  0  0  0  0  0  0  0
    1.3434   66.7995   82.3231 C   0  0  0  0  0  0  0  0  0  0  0  0
    0.9238   66.9947   81.0006 C   0  0  0  0  0  0  0  0  0  0  0  0
    0.3040   65.8897   80.3924 C   0  0  0  0  0  0  0  0  0  0  0  0
    0.1282   64.6441   81.0398 C   0  0  0  0  0  0  0  0  0  0  0  0
   -0.5453   63.5565   80.2427 C   0  0  0  0  0  0  0  0  0  0  0  0
   -1.4316   62.7735   80.8033 N   0  0  0  0  0  0  0  0  0  0  0  0
   -1.9535   61.8408   79.9682 C   0  0  0  0  0  0  0  0  0  0  0  0
   -1.6595   61.6428   78.6424 C   0  0  0  0  0  0  0  0  0  0  0  0
   -2.4582   60.5641   78.2230 C   0  0  0  0  0  0  0  0  0  0  0  0
   -2.5241   59.9486   76.8767 C   0  0  0  0  0  0  0  0  0  0  0  0
   -3.2181   60.1023   79.2307 N   0  0  0  0  0  0  0  0  0  0  0  0
   -2.8898   60.8966   80.2798 N   0  0  0  0  0  0  0  0  0  0  0  0
   -3.5255   60.6812   81.5545 C   0  0  0  0  0  0  0  0  0  0  0  0
   -0.6925   62.4968   78.0219 C   0  0  0  0  0  0  0  0  0  0  0  0
   -0.3498   62.4246   76.8475 O   0  0  0  0  0  0  0  0  0  0  0  0
   -0.1792   63.4291   78.9026 N   0  0  0  0  0  0  0  0  0  0  0  0
    0.5051   64.0648   78.5148 H   0  0  0  0  0  0  0  0  0  0  0  0
    1.0734   68.2239   80.3498 N   0  0  0  0  0  0  0  0  0  0  0  0
   -0.1164   69.0302   80.0777 C   0  0  0  0  0  0  0  0  0  0  0  0
    2.3191   68.9739   80.5095 C   0  0  0  0  0  0  0  0  0  0  0  0
    0.4007   63.2704   82.9672 O   0  0  0  0  0  0  0  0  0  0  0  0
    0.0831   63.2455   84.3615 C   0  0  0  0  0  0  0  0  0  0  0  0
   -1.7238   62.4127   85.9107 C   0  0  0  0  0  0  0  0  0  0  0  0
   -1.0588   62.2523   84.5557 C   0  0  0  0  0  0  0  0  0  0  0  0
 25 26  1  0  0  0
 26 24  1  0  0  0
 24 23  1  0  0  0
 23  1  1  0  0  0
  1  2  1  0  0  0
  2  3  2  0  0  0
  3  4  1  0  0  0
  4 20  1  0  0  0
 20 21  1  0  0  0
 20 22  1  0  0  0
  4  5  2  0  0  0
  5  6  1  0  0  0
  6  7  1  0  0  0
  7  8  2  0  0  0
  8  9  1  0  0  0
  9 10  2  0  0  0
 10 11  1  0  0  0
 11 12  1  0  0  0
 11 13  2  0  0  0
 13 14  1  0  0  0
 14 15  1  0  0  0
 10 16  1  0  0  0
 16 17  2  0  0  0
 16 18  1  0  0  0
  6  1  2  0  0  0
 18  7  1  0  0  0
 14  9  1  0  0  0
 18 19  1  0  0  0
M  END
> <minimizedAffinity>
-1.35555

$$$$



 26 28  0  0  0  0  0  0  0  0999 V2000
    2.7569   67.8405   82.9265 C   0  0  0  0  0  0  0  0  0  0  0  0
    3.2458   69.1242   83.1706 C   0  0  0  0  0  0  0  0  0  0  0  0
    2.6692   70.2452   82.5550 C   0  0  0  0  0  0  0  0  0  0  0  0
    1.5906   70.1446   81.6664 C   0  0  0  0  0  0  0  0  0  0  0  0
    1.1031   68.8444   81.4502 C   0  0  0  0  0  0  0  0  0  0  0  0
    1.6631   67.6943   82.0546 C   0  0  0  0  0  0  0  0  0  0  0  0
    1.0297   66.3714   81.7078 C   0  0  0  0  0  0  0  0  0  0  0  0
    0.5966   65.5743   82.6513 N   0  0  0  0  0  0  0  0  0  0  0  0
    0.0522   64.4194   82.1937 C   0  0  0  0  0  0  0  0  0  0  0  0
   -0.0881   64.0165   80.8894 C   0  0  0  0  0  0  0  0  0  0  0  0
   -0.7082   62.7553   80.9356 C   0  0  0  0  0  0  0  0  0  0  0  0
   -1.0862   61.8836   79.7984 C   0  0  0  0  0  0  0  0  0  0  0  0
   -0.9479   62.3783   82.2031 N   0  0  0  0  0  0  0  0  0  0  0  0
   -0.4743   63.4089   82.9468 N   0  0  0  0  0  0  0  0  0  0  0  0
   -0.5666   63.3439   84.3831 C   0  0  0  0  0  0  0  0  0  0  0  0
    0.3815   64.8840   79.8520 C   0  0  0  0  0  0  0  0  0  0  0  0
    0.3082   64.6409   78.6530 O   0  0  0  0  0  0  0  0  0  0  0  0
    0.9338   66.0462   80.3546 N   0  0  0  0  0  0  0  0  0  0  0  0
    1.2764   66.7005   79.6638 H   0  0  0  0  0  0  0  0  0  0  0  0
    1.0124   71.2715   81.0726 N   0  0  0  0  0  0  0  0  0  0  0  0
   -0.4365   71.3026   80.8746 C   0  0  0  0  0  0  0  0  0  0  0  0
    1.6540   72.5764   81.2331 C   0  0  0  0  0  0  0  0  0  0  0  0
    3.2832   66.7109   83.4984 O   0  0  0  0  0  0  0  0  0  0  0  0
    3.9009   66.8249   84.7834 C   0  0  0  0  0  0  0  0  0  0  0  0
    6.1878   66.6922   85.8373 C   0  0  0  0  0  0  0  0  0  0  0  0
    5.3211   66.2809   84.6610 C   0  0  0  0  0  0  0  0  0  0  0  0
 25 26  1  0  0  0
 26 24  1  0  0  0
 24 23  1  0  0  0
 23  1  1  0  0  0
  1  2  1  0  0  0
  2  3  2  0  0  0
  3  4  1  0  0  0
  4 20  1  0  0  0
 20 21  1  0  0  0
 20 22  1  0  0  0
  4  5  2  0  0  0
  5  6  1  0  0  0
  6  7  1  0  0  0
  7  8  2  0  0  0
  8  9  1  0  0  0
  9 10  2  0  0  0
 10 11  1  0  0  0
 11 12  1  0  0  0
 11 13  2  0  0  0
 13 14  1  0  0  0
 14 15  1  0  0  0
 10 16  1  0  0  0
 16 17  2  0  0  0
 16 18  1  0  0  0
  6  1  2  0  0  0
 18  7  1  0  0  0
 14  9  1  0  0  0
 18 19  1  0  0  0
M  END
> <minimizedAffinity>
-1.35519

$$$$



 26 28  0  0  0  0  0  0  0  0999 V2000
   -0.2581   63.2947   81.6331 C   0  0  0  0  0  0  0  0  0  0  0  0
   -0.8048   62.0813   82.0519 C   0  0  0  0  0  0  0  0  0  0  0  0
   -1.0739   61.8407   83.4075 C   0  0  0  0  0  0  0  0  0  0  0  0
   -0.8070   62.7853   84.4073 C   0  0  0  0  0  0  0  0  0  0  0  0
   -0.2743   64.0065   83.9602 C   0  0  0  0  0  0  0  0  0  0  0  0
    0.0093   64.2792   82.6012 C   0  0  0  0  0  0  0  0  0  0  0  0
    0.5903   65.6346   82.2901 C   0  0  0  0  0  0  0  0  0  0  0  0
    1.6212   66.0851   82.9589 N   0  0  0  0  0  0  0  0  0  0  0  0
    2.0357   67.3177   82.5733 C   0  0  0  0  0  0  0  0  0  0  0  0
    1.5054   68.1112   81.5873 C   0  0  0  0  0  0  0  0  0  0  0  0
    2.2815   69.2837   81.5710 C   0  0  0  0  0  0  0  0  0  0  0  0
    2.1286   70.4654   80.6901 C   0  0  0  0  0  0  0  0  0  0  0  0
    3.2526   69.2359   82.4987 N   0  0  0  0  0  0  0  0  0  0  0  0
    3.0786   68.0296   83.0938 N   0  0  0  0  0  0  0  0  0  0  0  0
    3.9626   67.6345   84.1606 C   0  0  0  0  0  0  0  0  0  0  0  0
    0.3790   67.6242   80.8500 C   0  0  0  0  0  0  0  0  0  0  0  0
   -0.1787   68.2337   79.9449 O   0  0  0  0  0  0  0  0  0  0  0  0
   -0.0183   66.3706   81.2733 N   0  0  0  0  0  0  0  0  0  0  0  0
   -0.8077   65.9740   80.7809 H   0  0  0  0  0  0  0  0  0  0  0  0
   -1.0965   62.5407   85.7538 N   0  0  0  0  0  0  0  0  0  0  0  0
   -0.2480   63.1441   86.7813 C   0  0  0  0  0  0  0  0  0  0  0  0
   -2.4782   62.2754   86.1544 C   0  0  0  0  0  0  0  0  0  0  0  0
    0.0269   63.5820   80.3230 O   0  0  0  0  0  0  0  0  0  0  0  0
    0.1369   62.4967   79.3980 C   0  0  0  0  0  0  0  0  0  0  0  0
   -1.3614   61.3346   77.7357 C   0  0  0  0  0  0  0  0  0  0  0  0
   -0.9712   62.6611   78.3621 C   0  0  0  0  0  0  0  0  0  0  0  0
 25 26  1  0  0  0
 26 24  1  0  0  0
 24 23  1  0  0  0
 23  1  1  0  0  0
  1  2  1  0  0  0
  2  3  2  0  0  0
  3  4  1  0  0  0
  4 20  1  0  0  0
 20 21  1  0  0  0
 20 22  1  0  0  0
  4  5  2  0  0  0
  5  6  1  0  0  0
  6  7  1  0  0  0
  7  8  2  0  0  0
  8  9  1  0  0  0
  9 10  2  0  0  0
 10 11  1  0  0  0
 11 12  1  0  0  0
 11 13  2  0  0  0
 13 14  1  0  0  0
 14 15  1  0  0  0
 10 16  1  0  0  0
 16 17  2  0  0  0
 16 18  1  0  0  0
  6  1  2  0  0  0
 18  7  1  0  0  0
 14  9  1  0  0  0
 18 19  1  0  0  0
M  END
> <minimizedAffinity>
-1.34376

$$$$



 26 28  0  0  0  0  0  0  0  0999 V2000
    0.5006   64.5254   83.3335 C   0  0  0  0  0  0  0  0  0  0  0  0
    0.9437   64.9996   84.5686 C   0  0  0  0  0  0  0  0  0  0  0  0
    0.5678   64.3653   85.7622 C   0  0  0  0  0  0  0  0  0  0  0  0
   -0.2679   63.2410   85.7865 C   0  0  0  0  0  0  0  0  0  0  0  0
   -0.6866   62.7702   84.5302 C   0  0  0  0  0  0  0  0  0  0  0  0
   -0.3260   63.3879   83.3095 C   0  0  0  0  0  0  0  0  0  0  0  0
   -0.8695   62.7646   82.0495 C   0  0  0  0  0  0  0  0  0  0  0  0
   -0.3529   63.0624   80.8844 N   0  0  0  0  0  0  0  0  0  0  0  0
   -0.9417   62.4292   79.8395 C   0  0  0  0  0  0  0  0  0  0  0  0
   -1.9847   61.5383   79.8776 C   0  0  0  0  0  0  0  0  0  0  0  0
   -2.2272   61.1647   78.5438 C   0  0  0  0  0  0  0  0  0  0  0  0
   -3.2503   60.2221   78.0332 C   0  0  0  0  0  0  0  0  0  0  0  0
   -1.3822   61.7869   77.7042 N   0  0  0  0  0  0  0  0  0  0  0  0
   -0.6126   62.5502   78.5194 N   0  0  0  0  0  0  0  0  0  0  0  0
    0.4232   63.3716   77.9469 C   0  0  0  0  0  0  0  0  0  0  0  0
   -2.5536   61.2061   81.1486 C   0  0  0  0  0  0  0  0  0  0  0  0
   -3.4810   60.4223   81.3144 O   0  0  0  0  0  0  0  0  0  0  0  0
   -1.9335   61.8730   82.1874 N   0  0  0  0  0  0  0  0  0  0  0  0
   -2.2916   61.6702   83.1112 H   0  0  0  0  0  0  0  0  0  0  0  0
   -0.6213   62.6064   86.9819 N   0  0  0  0  0  0  0  0  0  0  0  0
    0.0955   62.9565   88.2080 C   0  0  0  0  0  0  0  0  0  0  0  0
   -1.9948   62.1383   87.1675 C   0  0  0  0  0  0  0  0  0  0  0  0
    0.8347   65.1072   82.1377 O   0  0  0  0  0  0  0  0  0  0  0  0
    1.4152   66.4142   82.1569 C   0  0  0  0  0  0  0  0  0  0  0  0
    1.5043   68.5433   80.8089 C   0  0  0  0  0  0  0  0  0  0  0  0
    1.0799   67.0861   80.8287 C   0  0  0  0  0  0  0  0  0  0  0  0
 25 26  1  0  0  0
 26 24  1  0  0  0
 24 23  1  0  0  0
 23  1  1  0  0  0
  1  2  1  0  0  0
  2  3  2  0  0  0
  3  4  1  0  0  0
  4 20  1  0  0  0
 20 21  1  0  0  0
 20 22  1  0  0  0
  4  5  2  0  0  0
  5  6  1  0  0  0
  6  7  1  0  0  0
  7  8  2  0  0  0
  8  9  1  0  0  0
  9 10  2  0  0  0
 10 11  1  0  0  0
 11 12  1  0  0  0
 11 13  2  0  0  0
 13 14  1  0  0  0
 14 15  1  0  0  0
 10 16  1  0  0  0
 16 17  2  0  0  0
 16 18  1  0  0  0
  6  1  2  0  0  0
 18  7  1  0  0  0
 14  9  1  0  0  0
 18 19  1  0  0  0
M  END
> <minimizedAffinity>
-1.34017

$$$$



 26 28  0  0  0  0  0  0  0  0999 V2000
    2.4137   67.5968   83.2727 C   0  0  0  0  0  0  0  0  0  0  0  0
    3.4561   68.4495   83.6373 C   0  0  0  0  0  0  0  0  0  0  0  0
    4.4632   68.0233   84.5160 C   0  0  0  0  0  0  0  0  0  0  0  0
    4.4788   66.7398   85.0777 C   0  0  0  0  0  0  0  0  0  0  0  0
    3.4297   65.8926   84.6817 C   0  0  0  0  0  0  0  0  0  0  0  0
    2.3992   66.2927   83.7988 C   0  0  0  0  0  0  0  0  0  0  0  0
    1.3410   65.2664   83.4848 C   0  0  0  0  0  0  0  0  0  0  0  0
    0.7724   64.5828   84.4453 N   0  0  0  0  0  0  0  0  0  0  0  0
   -0.1591   63.6951   84.0165 C   0  0  0  0  0  0  0  0  0  0  0  0
   -0.5540   63.4507   82.7251 C   0  0  0  0  0  0  0  0  0  0  0  0
   -1.5397   62.4508   82.8016 C   0  0  0  0  0  0  0  0  0  0  0  0
   -2.2925   61.8264   81.6883 C   0  0  0  0  0  0  0  0  0  0  0  0
   -1.7577   62.0804   84.0749 N   0  0  0  0  0  0  0  0  0  0  0  0
   -0.9038   62.8527   84.7918 N   0  0  0  0  0  0  0  0  0  0  0  0
   -0.8652   62.7188   86.2257 C   0  0  0  0  0  0  0  0  0  0  0  0
    0.0621   64.1960   81.6695 C   0  0  0  0  0  0  0  0  0  0  0  0
   -0.2074   64.0742   80.4802 O   0  0  0  0  0  0  0  0  0  0  0  0
    1.0079   65.0849   82.1424 N   0  0  0  0  0  0  0  0  0  0  0  0
    1.4710   65.6443   81.4384 H   0  0  0  0  0  0  0  0  0  0  0  0
    5.4983   66.3203   85.9387 N   0  0  0  0  0  0  0  0  0  0  0  0
    5.1686   65.4111   87.0362 C   0  0  0  0  0  0  0  0  0  0  0  0
    6.8697   66.2311   85.4377 C   0  0  0  0  0  0  0  0  0  0  0  0
    1.4032   67.9615   82.4206 O   0  0  0  0  0  0  0  0  0  0  0  0
    1.7528   68.5511   81.1653 C   0  0  0  0  0  0  0  0  0  0  0  0
    2.0224   71.0534   81.3216 C   0  0  0  0  0  0  0  0  0  0  0  0
    1.0568   69.9065   81.0840 C   0  0  0  0  0  0  0  0  0  0  0  0
 25 26  1  0  0  0
 26 24  1  0  0  0
 24 23  1  0  0  0
 23  1  1  0  0  0
  1  2  1  0  0  0
  2  3  2  0  0  0
  3  4  1  0  0  0
  4 20  1  0  0  0
 20 21  1  0  0  0
 20 22  1  0  0  0
  4  5  2  0  0  0
  5  6  1  0  0  0
  6  7  1  0  0  0
  7  8  2  0  0  0
  8  9  1  0  0  0
  9 10  2  0  0  0
 10 11  1  0  0  0
 11 12  1  0  0  0
 11 13  2  0  0  0
 13 14  1  0  0  0
 14 15  1  0  0  0
 10 16  1  0  0  0
 16 17  2  0  0  0
 16 18  1  0  0  0
  6  1  2  0  0  0
 18  7  1  0  0  0
 14  9  1  0  0  0
 18 19  1  0  0  0
M  END
> <minimizedAffinity>
-1.31307

$$$$



 26 28  0  0  0  0  0  0  0  0999 V2000
    2.4056   67.6764   83.2139 C   0  0  0  0  0  0  0  0  0  0  0  0
    3.4347   68.5117   83.6497 C   0  0  0  0  0  0  0  0  0  0  0  0
    4.4135   68.0464   84.5405 C   0  0  0  0  0  0  0  0  0  0  0  0
    4.4126   66.7391   85.0444 C   0  0  0  0  0  0  0  0  0  0  0  0
    3.3778   65.9106   84.5774 C   0  0  0  0  0  0  0  0  0  0  0  0
    2.3757   66.3501   83.6805 C   0  0  0  0  0  0  0  0  0  0  0  0
    1.3295   65.3391   83.2870 C   0  0  0  0  0  0  0  0  0  0  0  0
    0.9894   65.1887   82.0321 N   0  0  0  0  0  0  0  0  0  0  0  0
    0.0364   64.2460   81.8258 C   0  0  0  0  0  0  0  0  0  0  0  0
   -0.5838   63.4600   82.7643 C   0  0  0  0  0  0  0  0  0  0  0  0
   -1.4865   62.6467   82.0566 C   0  0  0  0  0  0  0  0  0  0  0  0
   -2.4043   61.6177   82.5994 C   0  0  0  0  0  0  0  0  0  0  0  0
   -1.4411   62.9042   80.7383 N   0  0  0  0  0  0  0  0  0  0  0  0
   -0.5073   63.8815   80.6271 N   0  0  0  0  0  0  0  0  0  0  0  0
   -0.1940   64.4137   79.3255 C   0  0  0  0  0  0  0  0  0  0  0  0
   -0.2155   63.6174   84.1388 C   0  0  0  0  0  0  0  0  0  0  0  0
   -0.6910   62.9730   85.0665 O   0  0  0  0  0  0  0  0  0  0  0  0
    0.7518   64.5884   84.3111 N   0  0  0  0  0  0  0  0  0  0  0  0
    1.0554   64.7371   85.2643 H   0  0  0  0  0  0  0  0  0  0  0  0
    5.4043   66.2813   85.9182 N   0  0  0  0  0  0  0  0  0  0  0  0
    5.0447   65.3093   86.9505 C   0  0  0  0  0  0  0  0  0  0  0  0
    6.7942   66.2324   85.4644 C   0  0  0  0  0  0  0  0  0  0  0  0
    1.4226   68.0790   82.3470 O   0  0  0  0  0  0  0  0  0  0  0  0
    1.7986   68.8591   81.2087 C   0  0  0  0  0  0  0  0  0  0  0  0
    1.9798   71.3742   81.2187 C   0  0  0  0  0  0  0  0  0  0  0  0
    1.0426   70.1821   81.2876 C   0  0  0  0  0  0  0  0  0  0  0  0
 25 26  1  0  0  0
 26 24  1  0  0  0
 24 23  1  0  0  0
 23  1  1  0  0  0
  1  2  1  0  0  0
  2  3  2  0  0  0
  3  4  1  0  0  0
  4 20  1  0  0  0
 20 21  1  0  0  0
 20 22  1  0  0  0
  4  5  2  0  0  0
  5  6  1  0  0  0
  6  7  1  0  0  0
  7  8  2  0  0  0
  8  9  1  0  0  0
  9 10  2  0  0  0
 10 11  1  0  0  0
 11 12  1  0  0  0
 11 13  2  0  0  0
 13 14  1  0  0  0
 14 15  1  0  0  0
 10 16  1  0  0  0
 16 17  2  0  0  0
 16 18  1  0  0  0
  6  1  2  0  0  0
 18  7  1  0  0  0
 14  9  1  0  0  0
 18 19  1  0  0  0
M  END
> <minimizedAffinity>
-1.29821

$$$$
