


 34 37  0  0  0  0  0  0  0  0999 V2000
    0.4359   67.9842   79.9296 N   0  0  0  0  0  0  0  0  0  0  0  0
   -0.0137   68.4868   79.1789 H   0  0  0  0  0  0  0  0  0  0  0  0
    2.8042   69.3635   82.3186 C   0  0  0  0  0  0  0  0  0  0  0  0
    2.1108   68.4767   81.5578 N   0  0  0  0  0  0  0  0  0  0  0  0
    1.1276   68.8932   80.7308 C   0  0  0  0  0  0  0  0  0  0  0  0
    0.7417   70.1742   80.5611 N   0  0  0  0  0  0  0  0  0  0  0  0
    1.4402   71.0252   81.3244 C   0  0  0  0  0  0  0  0  0  0  0  0
    2.4594   70.7192   82.2053 C   0  0  0  0  0  0  0  0  0  0  0  0
    2.9549   71.8631   82.8024 N   0  0  0  0  0  0  0  0  0  0  0  0
    2.2336   72.8429   82.2982 C   0  0  0  0  0  0  0  0  0  0  0  0
    1.3080   72.3828   81.4027 N   0  0  0  0  0  0  0  0  0  0  0  0
    0.3598   73.1764   80.6677 C   0  0  0  0  0  0  0  0  0  0  0  0
    3.8141   68.9455   83.1771 N   0  0  0  0  0  0  0  0  0  0  0  0
    4.6336   68.6221   82.6700 H   0  0  0  0  0  0  0  0  0  0  0  0
    3.4721   68.2520   84.4053 C   0  0  0  0  0  0  0  0  0  0  0  0
    3.2619   65.7420   84.8270 C   0  0  0  0  0  0  0  0  0  0  0  0
    4.2150   66.9168   84.6002 C   0  0  0  0  0  0  0  0  0  0  0  0
    5.2727   66.9695   85.7024 C   0  0  0  0  0  0  0  0  0  0  0  0
    0.1524   66.6185   80.0357 C   0  0  0  0  0  0  0  0  0  0  0  0
   -0.5680   66.0523   81.0946 C   0  0  0  0  0  0  0  0  0  0  0  0
   -0.7829   64.6721   81.1723 C   0  0  0  0  0  0  0  0  0  0  0  0
   -0.2570   63.8373   80.1870 C   0  0  0  0  0  0  0  0  0  0  0  0
    0.4678   64.3688   79.1226 C   0  0  0  0  0  0  0  0  0  0  0  0
    0.6708   65.7509   79.0567 C   0  0  0  0  0  0  0  0  0  0  0  0
   -0.5129   62.0872   80.3126 S   0  0  0  0  0  0  0  0  0  0  0  0
   -1.4286   61.8324   81.4058 O   0  0  0  0  0  0  0  0  0  0  0  0
    0.7891   61.4581   80.2630 O   0  0  0  0  0  0  0  0  0  0  0  0
   -1.3416   61.7201   78.8648 N   0  0  0  0  0  0  0  0  0  0  0  0
   -2.3815   60.6501   78.9893 C   0  0  0  0  0  0  0  0  0  0  0  0
   -3.1318   60.4683   77.6531 C   0  0  0  0  0  0  0  0  0  0  0  0
   -2.2730   60.2038   76.4803 N   0  0  0  0  0  0  0  0  0  0  0  0
   -1.7244   58.8495   76.5019 C   0  0  0  0  0  0  0  0  0  0  0  0
   -1.2069   61.2260   76.4190 C   0  0  0  0  0  0  0  0  0  0  0  0
   -0.4139   61.4296   77.7264 C   0  0  0  0  0  0  0  0  0  0  0  0
 16 17  1  0  0  0
 17 18  1  0  0  0
 17 15  1  0  0  0
 15 13  1  0  0  0
 13  3  1  0  0  0
  3  4  1  0  0  0
  4  5  2  0  0  0
  5  1  1  0  0  0
  1 19  1  0  0  0
 19 20  1  0  0  0
 20 21  2  0  0  0
 21 22  1  0  0  0
 22 25  1  0  0  0
 25 26  2  0  0  0
 25 27  2  0  0  0
 25 28  1  0  0  0
 28 29  1  0  0  0
 29 30  1  0  0  0
 30 31  1  0  0  0
 31 32  1  0  0  0
 31 33  1  0  0  0
 33 34  1  0  0  0
 22 23  2  0  0  0
 23 24  1  0  0  0
  5  6  1  0  0  0
  6  7  2  0  0  0
  7  8  1  0  0  0
  8  9  1  0  0  0
  9 10  2  0  0  0
 10 11  1  0  0  0
 11 12  1  0  0  0
  8  3  2  0  0  0
 24 19  2  0  0  0
 11  7  1  0  0  0
 34 28  1  0  0  0
 13 14  1  0  0  0
  1  2  1  0  0  0
M  END
> <minimizedAffinity>
-1.75802

$$$$



 34 37  0  0  0  0  0  0  0  0999 V2000
    1.0052   64.7758   84.5524 N   0  0  0  0  0  0  0  0  0  0  0  0
    0.8939   64.5626   85.5325 H   0  0  0  0  0  0  0  0  0  0  0  0
    2.9822   67.6355   83.4884 C   0  0  0  0  0  0  0  0  0  0  0  0
    1.9550   66.7552   83.6151 N   0  0  0  0  0  0  0  0  0  0  0  0
    2.0710   65.6635   84.4017 C   0  0  0  0  0  0  0  0  0  0  0  0
    3.1601   65.3369   85.1269 N   0  0  0  0  0  0  0  0  0  0  0  0
    4.1566   66.2203   84.9811 C   0  0  0  0  0  0  0  0  0  0  0  0
    4.1568   67.3647   84.2074 C   0  0  0  0  0  0  0  0  0  0  0  0
    5.3590   68.0371   84.3219 N   0  0  0  0  0  0  0  0  0  0  0  0
    6.0780   67.2993   85.1425 C   0  0  0  0  0  0  0  0  0  0  0  0
    5.3919   66.1940   85.5642 N   0  0  0  0  0  0  0  0  0  0  0  0
    5.8737   65.1783   86.4618 C   0  0  0  0  0  0  0  0  0  0  0  0
    2.8759   68.7593   82.6776 N   0  0  0  0  0  0  0  0  0  0  0  0
    3.5396   69.4823   82.9423 H   0  0  0  0  0  0  0  0  0  0  0  0
    1.5700   69.1893   82.2128 C   0  0  0  0  0  0  0  0  0  0  0  0
    1.9006   68.9629   79.6906 C   0  0  0  0  0  0  0  0  0  0  0  0
    1.5939   69.9103   80.8519 C   0  0  0  0  0  0  0  0  0  0  0  0
    2.5339   71.1153   80.8233 C   0  0  0  0  0  0  0  0  0  0  0  0
    0.2005   64.0659   83.6550 C   0  0  0  0  0  0  0  0  0  0  0  0
   -0.2700   64.5927   82.4459 C   0  0  0  0  0  0  0  0  0  0  0  0
   -1.1102   63.8519   81.6078 C   0  0  0  0  0  0  0  0  0  0  0  0
   -1.5034   62.5691   81.9872 C   0  0  0  0  0  0  0  0  0  0  0  0
   -1.0561   62.0177   83.1859 C   0  0  0  0  0  0  0  0  0  0  0  0
   -0.2135   62.7691   84.0111 C   0  0  0  0  0  0  0  0  0  0  0  0
   -2.5910   61.6519   80.9289 S   0  0  0  0  0  0  0  0  0  0  0  0
   -3.8912   62.2905   80.9390 O   0  0  0  0  0  0  0  0  0  0  0  0
   -2.4402   60.2531   81.2666 O   0  0  0  0  0  0  0  0  0  0  0  0
   -1.9166   61.9057   79.3802 N   0  0  0  0  0  0  0  0  0  0  0  0
   -2.8161   61.5516   78.2368 C   0  0  0  0  0  0  0  0  0  0  0  0
   -2.1476   61.9101   76.8929 C   0  0  0  0  0  0  0  0  0  0  0  0
   -0.8075   61.3252   76.6812 N   0  0  0  0  0  0  0  0  0  0  0  0
   -0.8765   59.8911   76.4087 C   0  0  0  0  0  0  0  0  0  0  0  0
    0.0418   61.6199   77.8546 C   0  0  0  0  0  0  0  0  0  0  0  0
   -0.5758   61.2592   79.2215 C   0  0  0  0  0  0  0  0  0  0  0  0
 16 17  1  0  0  0
 17 18  1  0  0  0
 17 15  1  0  0  0
 15 13  1  0  0  0
 13  3  1  0  0  0
  3  4  1  0  0  0
  4  5  2  0  0  0
  5  1  1  0  0  0
  1 19  1  0  0  0
 19 20  1  0  0  0
 20 21  2  0  0  0
 21 22  1  0  0  0
 22 25  1  0  0  0
 25 26  2  0  0  0
 25 27  2  0  0  0
 25 28  1  0  0  0
 28 29  1  0  0  0
 29 30  1  0  0  0
 30 31  1  0  0  0
 31 32  1  0  0  0
 31 33  1  0  0  0
 33 34  1  0  0  0
 22 23  2  0  0  0
 23 24  1  0  0  0
  5  6  1  0  0  0
  6  7  2  0  0  0
  7  8  1  0  0  0
  8  9  1  0  0  0
  9 10  2  0  0  0
 10 11  1  0  0  0
 11 12  1  0  0  0
  8  3  2  0  0  0
 24 19  2  0  0  0
 11  7  1  0  0  0
 34 28  1  0  0  0
 13 14  1  0  0  0
  1  2  1  0  0  0
M  END
> <minimizedAffinity>
-1.75625

$$$$



 34 37  0  0  0  0  0  0  0  0999 V2000
    1.1109   64.7420   83.3925 N   0  0  0  0  0  0  0  0  0  0  0  0
    1.6648   64.2976   84.1096 H   0  0  0  0  0  0  0  0  0  0  0  0
    3.2871   67.6530   83.4892 C   0  0  0  0  0  0  0  0  0  0  0  0
    2.7605   66.4291   83.7554 N   0  0  0  0  0  0  0  0  0  0  0  0
    1.6344   66.0102   83.1387 C   0  0  0  0  0  0  0  0  0  0  0  0
    0.9377   66.7151   82.2241 N   0  0  0  0  0  0  0  0  0  0  0  0
    1.4781   67.9171   81.9834 C   0  0  0  0  0  0  0  0  0  0  0  0
    2.6174   68.4536   82.5511 C   0  0  0  0  0  0  0  0  0  0  0  0
    2.8760   69.7125   82.0421 N   0  0  0  0  0  0  0  0  0  0  0  0
    1.8970   69.9363   81.1900 C   0  0  0  0  0  0  0  0  0  0  0  0
    1.0310   68.8799   81.1232 N   0  0  0  0  0  0  0  0  0  0  0  0
   -0.1437   68.7868   80.2982 C   0  0  0  0  0  0  0  0  0  0  0  0
    4.4424   68.0965   84.1220 N   0  0  0  0  0  0  0  0  0  0  0  0
    5.2232   68.1738   83.4756 H   0  0  0  0  0  0  0  0  0  0  0  0
    4.7355   67.6569   85.4737 C   0  0  0  0  0  0  0  0  0  0  0  0
    5.9225   65.9442   86.9501 C   0  0  0  0  0  0  0  0  0  0  0  0
    5.8263   66.5727   85.5588 C   0  0  0  0  0  0  0  0  0  0  0  0
    7.1988   67.0592   85.0941 C   0  0  0  0  0  0  0  0  0  0  0  0
    0.1152   63.9659   82.7901 C   0  0  0  0  0  0  0  0  0  0  0  0
   -0.6035   62.9661   83.4571 C   0  0  0  0  0  0  0  0  0  0  0  0
   -1.5578   62.1893   82.7914 C   0  0  0  0  0  0  0  0  0  0  0  0
   -1.7898   62.3994   81.4327 C   0  0  0  0  0  0  0  0  0  0  0  0
   -1.0885   63.3834   80.7392 C   0  0  0  0  0  0  0  0  0  0  0  0
   -0.1406   64.1544   81.4194 C   0  0  0  0  0  0  0  0  0  0  0  0
   -2.9819   61.3889   80.5949 S   0  0  0  0  0  0  0  0  0  0  0  0
   -4.2394   62.1063   80.5430 O   0  0  0  0  0  0  0  0  0  0  0  0
   -2.8985   60.0626   81.1669 O   0  0  0  0  0  0  0  0  0  0  0  0
   -2.3718   61.3251   79.0007 N   0  0  0  0  0  0  0  0  0  0  0  0
   -3.3321   60.7976   77.9803 C   0  0  0  0  0  0  0  0  0  0  0  0
   -2.7156   60.8749   76.5678 C   0  0  0  0  0  0  0  0  0  0  0  0
   -1.4038   60.2120   76.4169 N   0  0  0  0  0  0  0  0  0  0  0  0
   -1.5263   58.7558   76.4211 C   0  0  0  0  0  0  0  0  0  0  0  0
   -0.4939   60.6887   77.4799 C   0  0  0  0  0  0  0  0  0  0  0  0
   -1.0587   60.6117   78.9134 C   0  0  0  0  0  0  0  0  0  0  0  0
 16 17  1  0  0  0
 17 18  1  0  0  0
 17 15  1  0  0  0
 15 13  1  0  0  0
 13  3  1  0  0  0
  3  4  1  0  0  0
  4  5  2  0  0  0
  5  1  1  0  0  0
  1 19  1  0  0  0
 19 20  1  0  0  0
 20 21  2  0  0  0
 21 22  1  0  0  0
 22 25  1  0  0  0
 25 26  2  0  0  0
 25 27  2  0  0  0
 25 28  1  0  0  0
 28 29  1  0  0  0
 29 30  1  0  0  0
 30 31  1  0  0  0
 31 32  1  0  0  0
 31 33  1  0  0  0
 33 34  1  0  0  0
 22 23  2  0  0  0
 23 24  1  0  0  0
  5  6  1  0  0  0
  6  7  2  0  0  0
  7  8  1  0  0  0
  8  9  1  0  0  0
  9 10  2  0  0  0
 10 11  1  0  0  0
 11 12  1  0  0  0
  8  3  2  0  0  0
 24 19  2  0  0  0
 11  7  1  0  0  0
 34 28  1  0  0  0
 13 14  1  0  0  0
  1  2  1  0  0  0
M  END
> <minimizedAffinity>
-1.75335

$$$$



 34 37  0  0  0  0  0  0  0  0999 V2000
   -0.3379   66.6434   79.7385 N   0  0  0  0  0  0  0  0  0  0  0  0
   -0.9770   66.8066   78.9748 H   0  0  0  0  0  0  0  0  0  0  0  0
   -0.4546   63.0224   79.4330 C   0  0  0  0  0  0  0  0  0  0  0  0
   -0.4515   64.3426   79.1120 N   0  0  0  0  0  0  0  0  0  0  0  0
   -0.3693   65.2890   80.0721 C   0  0  0  0  0  0  0  0  0  0  0  0
   -0.2752   65.0507   81.3961 N   0  0  0  0  0  0  0  0  0  0  0  0
   -0.2828   63.7421   81.6830 C   0  0  0  0  0  0  0  0  0  0  0  0
   -0.3657   62.6887   80.7933 C   0  0  0  0  0  0  0  0  0  0  0  0
   -0.3265   61.4775   81.4583 N   0  0  0  0  0  0  0  0  0  0  0  0
   -0.2357   61.7983   82.7324 C   0  0  0  0  0  0  0  0  0  0  0  0
   -0.2066   63.1536   82.9137 N   0  0  0  0  0  0  0  0  0  0  0  0
   -0.1120   63.8473   84.1702 C   0  0  0  0  0  0  0  0  0  0  0  0
   -0.5443   62.0402   78.4538 N   0  0  0  0  0  0  0  0  0  0  0  0
    0.3698   61.6807   78.1922 H   0  0  0  0  0  0  0  0  0  0  0  0
   -1.5400   62.1598   77.4048 C   0  0  0  0  0  0  0  0  0  0  0  0
   -3.0549   60.2644   78.2011 C   0  0  0  0  0  0  0  0  0  0  0  0
   -2.2334   60.8329   77.0428 C   0  0  0  0  0  0  0  0  0  0  0  0
   -1.2707   59.7772   76.4994 C   0  0  0  0  0  0  0  0  0  0  0  0
    0.4553   67.7229   80.1414 C   0  0  0  0  0  0  0  0  0  0  0  0
    1.7742   67.5944   80.5940 C   0  0  0  0  0  0  0  0  0  0  0  0
    2.5058   68.7051   81.0278 C   0  0  0  0  0  0  0  0  0  0  0  0
    1.9088   69.9652   81.0274 C   0  0  0  0  0  0  0  0  0  0  0  0
    0.5969   70.1262   80.5872 C   0  0  0  0  0  0  0  0  0  0  0  0
   -0.1202   69.0069   80.1528 C   0  0  0  0  0  0  0  0  0  0  0  0
    2.8380   71.3601   81.6062 S   0  0  0  0  0  0  0  0  0  0  0  0
    4.0536   71.4608   80.8245 O   0  0  0  0  0  0  0  0  0  0  0  0
    2.8798   71.2791   83.0501 O   0  0  0  0  0  0  0  0  0  0  0  0
    1.8480   72.6823   81.1713 N   0  0  0  0  0  0  0  0  0  0  0  0
    2.5432   73.7623   80.4019 C   0  0  0  0  0  0  0  0  0  0  0  0
    1.5394   74.8552   79.9783 C   0  0  0  0  0  0  0  0  0  0  0  0
    0.7516   75.4466   81.0794 N   0  0  0  0  0  0  0  0  0  0  0  0
    1.5606   76.3347   81.9115 C   0  0  0  0  0  0  0  0  0  0  0  0
    0.1360   74.3620   81.8730 C   0  0  0  0  0  0  0  0  0  0  0  0
    1.1047   73.2550   82.3377 C   0  0  0  0  0  0  0  0  0  0  0  0
 16 17  1  0  0  0
 17 18  1  0  0  0
 17 15  1  0  0  0
 15 13  1  0  0  0
 13  3  1  0  0  0
  3  4  1  0  0  0
  4  5  2  0  0  0
  5  1  1  0  0  0
  1 19  1  0  0  0
 19 20  1  0  0  0
 20 21  2  0  0  0
 21 22  1  0  0  0
 22 25  1  0  0  0
 25 26  2  0  0  0
 25 27  2  0  0  0
 25 28  1  0  0  0
 28 29  1  0  0  0
 29 30  1  0  0  0
 30 31  1  0  0  0
 31 32  1  0  0  0
 31 33  1  0  0  0
 33 34  1  0  0  0
 22 23  2  0  0  0
 23 24  1  0  0  0
  5  6  1  0  0  0
  6  7  2  0  0  0
  7  8  1  0  0  0
  8  9  1  0  0  0
  9 10  2  0  0  0
 10 11  1  0  0  0
 11 12  1  0  0  0
  8  3  2  0  0  0
 24 19  2  0  0  0
 11  7  1  0  0  0
 34 28  1  0  0  0
 13 14  1  0  0  0
  1  2  1  0  0  0
M  END
> <minimizedAffinity>
-1.70096

$$$$



 34 37  0  0  0  0  0  0  0  0999 V2000
    1.4430   67.1367   80.5610 N   0  0  0  0  0  0  0  0  0  0  0  0
    2.1024   66.8541   79.8512 H   0  0  0  0  0  0  0  0  0  0  0  0
   -0.5022   64.0687   80.7122 C   0  0  0  0  0  0  0  0  0  0  0  0
    0.1018   65.1887   80.2358 N   0  0  0  0  0  0  0  0  0  0  0  0
    0.8001   66.0022   81.0573 C   0  0  0  0  0  0  0  0  0  0  0  0
    0.9815   65.8065   82.3792 N   0  0  0  0  0  0  0  0  0  0  0  0
    0.3738   64.6974   82.8211 C   0  0  0  0  0  0  0  0  0  0  0  0
   -0.3665   63.7951   82.0820 C   0  0  0  0  0  0  0  0  0  0  0  0
   -0.8234   62.7623   82.8790 N   0  0  0  0  0  0  0  0  0  0  0  0
   -0.3759   63.0470   84.0845 C   0  0  0  0  0  0  0  0  0  0  0  0
    0.3508   64.2055   84.0956 N   0  0  0  0  0  0  0  0  0  0  0  0
    0.9835   64.8081   85.2382 C   0  0  0  0  0  0  0  0  0  0  0  0
   -1.2278   63.2274   79.8771 N   0  0  0  0  0  0  0  0  0  0  0  0
   -1.9368   62.7066   80.3864 H   0  0  0  0  0  0  0  0  0  0  0  0
   -0.5583   62.5491   78.7826 C   0  0  0  0  0  0  0  0  0  0  0  0
   -1.7374   61.3000   76.8928 C   0  0  0  0  0  0  0  0  0  0  0  0
   -1.2443   61.2431   78.3397 C   0  0  0  0  0  0  0  0  0  0  0  0
   -2.3728   60.8069   79.2739 C   0  0  0  0  0  0  0  0  0  0  0  0
    1.4475   68.4866   80.9274 C   0  0  0  0  0  0  0  0  0  0  0  0
    0.4560   69.4000   80.5485 C   0  0  0  0  0  0  0  0  0  0  0  0
    0.5356   70.7501   80.9064 C   0  0  0  0  0  0  0  0  0  0  0  0
    1.6306   71.2038   81.6409 C   0  0  0  0  0  0  0  0  0  0  0  0
    2.6360   70.3214   82.0299 C   0  0  0  0  0  0  0  0  0  0  0  0
    2.5402   68.9741   81.6678 C   0  0  0  0  0  0  0  0  0  0  0  0
    1.7329   72.9227   82.0638 S   0  0  0  0  0  0  0  0  0  0  0  0
    2.3872   73.0428   83.3507 O   0  0  0  0  0  0  0  0  0  0  0  0
    0.4276   73.5012   81.8297 O   0  0  0  0  0  0  0  0  0  0  0  0
    2.8110   73.5386   80.8908 N   0  0  0  0  0  0  0  0  0  0  0  0
    4.2591   73.4554   81.2620 C   0  0  0  0  0  0  0  0  0  0  0  0
    5.1442   73.9462   80.0970 C   0  0  0  0  0  0  0  0  0  0  0  0
    4.8288   75.2991   79.5940 N   0  0  0  0  0  0  0  0  0  0  0  0
    5.2584   76.3399   80.5255 C   0  0  0  0  0  0  0  0  0  0  0  0
    3.3814   75.3847   79.3061 C   0  0  0  0  0  0  0  0  0  0  0  0
    2.4542   74.9239   80.4497 C   0  0  0  0  0  0  0  0  0  0  0  0
 16 17  1  0  0  0
 17 18  1  0  0  0
 17 15  1  0  0  0
 15 13  1  0  0  0
 13  3  1  0  0  0
  3  4  1  0  0  0
  4  5  2  0  0  0
  5  1  1  0  0  0
  1 19  1  0  0  0
 19 20  1  0  0  0
 20 21  2  0  0  0
 21 22  1  0  0  0
 22 25  1  0  0  0
 25 26  2  0  0  0
 25 27  2  0  0  0
 25 28  1  0  0  0
 28 29  1  0  0  0
 29 30  1  0  0  0
 30 31  1  0  0  0
 31 32  1  0  0  0
 31 33  1  0  0  0
 33 34  1  0  0  0
 22 23  2  0  0  0
 23 24  1  0  0  0
  5  6  1  0  0  0
  6  7  2  0  0  0
  7  8  1  0  0  0
  8  9  1  0  0  0
  9 10  2  0  0  0
 10 11  1  0  0  0
 11 12  1  0  0  0
  8  3  2  0  0  0
 24 19  2  0  0  0
 11  7  1  0  0  0
 34 28  1  0  0  0
 13 14  1  0  0  0
  1  2  1  0  0  0
M  END
> <minimizedAffinity>
-1.66604

$$$$



 34 37  0  0  0  0  0  0  0  0999 V2000
    2.0342   65.5531   84.3171 N   0  0  0  0  0  0  0  0  0  0  0  0
    2.7666   65.3530   84.9819 H   0  0  0  0  0  0  0  0  0  0  0  0
   -0.7183   63.2572   83.7077 C   0  0  0  0  0  0  0  0  0  0  0  0
    0.2972   64.1351   83.4978 N   0  0  0  0  0  0  0  0  0  0  0  0
    0.9735   64.6735   84.5356 C   0  0  0  0  0  0  0  0  0  0  0  0
    0.7415   64.4110   85.8379 N   0  0  0  0  0  0  0  0  0  0  0  0
   -0.2653   63.5450   86.0146 C   0  0  0  0  0  0  0  0  0  0  0  0
   -1.0281   62.9346   85.0380 C   0  0  0  0  0  0  0  0  0  0  0  0
   -1.9644   62.0880   85.6011 N   0  0  0  0  0  0  0  0  0  0  0  0
   -1.7770   62.1986   86.9000 C   0  0  0  0  0  0  0  0  0  0  0  0
   -0.7622   63.0670   87.1942 N   0  0  0  0  0  0  0  0  0  0  0  0
   -0.2924   63.4214   88.5067 C   0  0  0  0  0  0  0  0  0  0  0  0
   -1.4245   62.7013   82.6476 N   0  0  0  0  0  0  0  0  0  0  0  0
   -1.8756   61.8285   82.9083 H   0  0  0  0  0  0  0  0  0  0  0  0
   -0.8961   62.8033   81.2997 C   0  0  0  0  0  0  0  0  0  0  0  0
   -1.0577   61.9073   78.9138 C   0  0  0  0  0  0  0  0  0  0  0  0
   -1.2289   61.5969   80.4018 C   0  0  0  0  0  0  0  0  0  0  0  0
   -2.6135   61.0077   80.6707 C   0  0  0  0  0  0  0  0  0  0  0  0
    2.2121   66.6727   83.4976 C   0  0  0  0  0  0  0  0  0  0  0  0
    1.5705   66.8457   82.2650 C   0  0  0  0  0  0  0  0  0  0  0  0
    1.8214   67.9659   81.4654 C   0  0  0  0  0  0  0  0  0  0  0  0
    2.7403   68.9240   81.8919 C   0  0  0  0  0  0  0  0  0  0  0  0
    3.3985   68.7792   83.1112 C   0  0  0  0  0  0  0  0  0  0  0  0
    3.1341   67.6560   83.9011 C   0  0  0  0  0  0  0  0  0  0  0  0
    3.0696   70.3247   80.8558 S   0  0  0  0  0  0  0  0  0  0  0  0
    2.5135   70.0681   79.5430 O   0  0  0  0  0  0  0  0  0  0  0  0
    4.4656   70.6654   81.0250 O   0  0  0  0  0  0  0  0  0  0  0  0
    2.1263   71.5560   81.5711 N   0  0  0  0  0  0  0  0  0  0  0  0
    0.7413   71.6887   81.0180 C   0  0  0  0  0  0  0  0  0  0  0  0
   -0.0514   72.7586   81.7981 C   0  0  0  0  0  0  0  0  0  0  0  0
    0.5915   74.0867   81.8742 N   0  0  0  0  0  0  0  0  0  0  0  0
    0.5331   74.7936   80.5965 C   0  0  0  0  0  0  0  0  0  0  0  0
    1.9822   73.9264   82.3488 C   0  0  0  0  0  0  0  0  0  0  0  0
    2.8220   72.8813   81.5856 C   0  0  0  0  0  0  0  0  0  0  0  0
 16 17  1  0  0  0
 17 18  1  0  0  0
 17 15  1  0  0  0
 15 13  1  0  0  0
 13  3  1  0  0  0
  3  4  1  0  0  0
  4  5  2  0  0  0
  5  1  1  0  0  0
  1 19  1  0  0  0
 19 20  1  0  0  0
 20 21  2  0  0  0
 21 22  1  0  0  0
 22 25  1  0  0  0
 25 26  2  0  0  0
 25 27  2  0  0  0
 25 28  1  0  0  0
 28 29  1  0  0  0
 29 30  1  0  0  0
 30 31  1  0  0  0
 31 32  1  0  0  0
 31 33  1  0  0  0
 33 34  1  0  0  0
 22 23  2  0  0  0
 23 24  1  0  0  0
  5  6  1  0  0  0
  6  7  2  0  0  0
  7  8  1  0  0  0
  8  9  1  0  0  0
  9 10  2  0  0  0
 10 11  1  0  0  0
 11 12  1  0  0  0
  8  3  2  0  0  0
 24 19  2  0  0  0
 11  7  1  0  0  0
 34 28  1  0  0  0
 13 14  1  0  0  0
  1  2  1  0  0  0
M  END
> <minimizedAffinity>
-1.66419

$$$$



 34 37  0  0  0  0  0  0  0  0999 V2000
    2.1173   66.6540   81.6824 N   0  0  0  0  0  0  0  0  0  0  0  0
    3.0038   66.2290   81.4543 H   0  0  0  0  0  0  0  0  0  0  0  0
   -0.4033   64.0410   81.4879 C   0  0  0  0  0  0  0  0  0  0  0  0
    0.4520   65.0347   81.1313 N   0  0  0  0  0  0  0  0  0  0  0  0
    1.2193   65.6532   82.0548 C   0  0  0  0  0  0  0  0  0  0  0  0
    1.2361   65.3676   83.3727 N   0  0  0  0  0  0  0  0  0  0  0  0
    0.3825   64.3868   83.6954 C   0  0  0  0  0  0  0  0  0  0  0  0
   -0.4510   63.6865   82.8450 C   0  0  0  0  0  0  0  0  0  0  0  0
   -1.1748   62.7343   83.5378 N   0  0  0  0  0  0  0  0  0  0  0  0
   -0.7924   62.8697   84.7908 C   0  0  0  0  0  0  0  0  0  0  0  0
    0.1455   63.8551   84.9314 N   0  0  0  0  0  0  0  0  0  0  0  0
    0.7775   64.2667   86.1563 C   0  0  0  0  0  0  0  0  0  0  0  0
   -1.2015   63.4014   80.5470 N   0  0  0  0  0  0  0  0  0  0  0  0
   -2.1809   63.3989   80.8190 H   0  0  0  0  0  0  0  0  0  0  0  0
   -0.6978   62.2296   79.8546 C   0  0  0  0  0  0  0  0  0  0  0  0
   -2.5780   60.6292   79.2022 C   0  0  0  0  0  0  0  0  0  0  0  0
   -1.6179   61.7218   78.7285 C   0  0  0  0  0  0  0  0  0  0  0  0
   -0.8549   61.2631   77.4859 C   0  0  0  0  0  0  0  0  0  0  0  0
    2.0699   68.0520   81.6933 C   0  0  0  0  0  0  0  0  0  0  0  0
    1.3492   68.8143   80.7657 C   0  0  0  0  0  0  0  0  0  0  0  0
    1.3747   70.2127   80.7972 C   0  0  0  0  0  0  0  0  0  0  0  0
    2.1448   70.8655   81.7589 C   0  0  0  0  0  0  0  0  0  0  0  0
    2.8766   70.1360   82.6934 C   0  0  0  0  0  0  0  0  0  0  0  0
    2.8380   68.7388   82.6516 C   0  0  0  0  0  0  0  0  0  0  0  0
    2.1903   72.6380   81.7700 S   0  0  0  0  0  0  0  0  0  0  0  0
    1.9490   73.0970   83.1226 O   0  0  0  0  0  0  0  0  0  0  0  0
    1.3742   73.0955   80.6663 O   0  0  0  0  0  0  0  0  0  0  0  0
    3.8242   72.9779   81.4061 N   0  0  0  0  0  0  0  0  0  0  0  0
    4.1934   74.4277   81.4659 C   0  0  0  0  0  0  0  0  0  0  0  0
    5.7056   74.6104   81.2178 C   0  0  0  0  0  0  0  0  0  0  0  0
    6.2148   74.0107   79.9672 N   0  0  0  0  0  0  0  0  0  0  0  0
    5.8013   74.7725   78.7906 C   0  0  0  0  0  0  0  0  0  0  0  0
    5.7748   72.6016   79.8903 C   0  0  0  0  0  0  0  0  0  0  0  0
    4.2658   72.3700   80.1114 C   0  0  0  0  0  0  0  0  0  0  0  0
 16 17  1  0  0  0
 17 18  1  0  0  0
 17 15  1  0  0  0
 15 13  1  0  0  0
 13  3  1  0  0  0
  3  4  1  0  0  0
  4  5  2  0  0  0
  5  1  1  0  0  0
  1 19  1  0  0  0
 19 20  1  0  0  0
 20 21  2  0  0  0
 21 22  1  0  0  0
 22 25  1  0  0  0
 25 26  2  0  0  0
 25 27  2  0  0  0
 25 28  1  0  0  0
 28 29  1  0  0  0
 29 30  1  0  0  0
 30 31  1  0  0  0
 31 32  1  0  0  0
 31 33  1  0  0  0
 33 34  1  0  0  0
 22 23  2  0  0  0
 23 24  1  0  0  0
  5  6  1  0  0  0
  6  7  2  0  0  0
  7  8  1  0  0  0
  8  9  1  0  0  0
  9 10  2  0  0  0
 10 11  1  0  0  0
 11 12  1  0  0  0
  8  3  2  0  0  0
 24 19  2  0  0  0
 11  7  1  0  0  0
 34 28  1  0  0  0
 13 14  1  0  0  0
  1  2  1  0  0  0
M  END
> <minimizedAffinity>
-1.62562

$$$$



 34 37  0  0  0  0  0  0  0  0999 V2000
    0.7321   67.1905   80.0521 N   0  0  0  0  0  0  0  0  0  0  0  0
    0.8839   67.0022   79.0724 H   0  0  0  0  0  0  0  0  0  0  0  0
   -0.6895   63.8907   80.6080 C   0  0  0  0  0  0  0  0  0  0  0  0
   -0.3285   65.0524   80.0028 N   0  0  0  0  0  0  0  0  0  0  0  0
    0.3377   66.0102   80.6830 C   0  0  0  0  0  0  0  0  0  0  0  0
    0.7146   65.9300   81.9754 N   0  0  0  0  0  0  0  0  0  0  0  0
    0.3438   64.7762   82.5465 C   0  0  0  0  0  0  0  0  0  0  0  0
   -0.3395   63.7301   81.9576 C   0  0  0  0  0  0  0  0  0  0  0  0
   -0.5285   62.6967   82.8559 N   0  0  0  0  0  0  0  0  0  0  0  0
    0.0213   63.1215   83.9748 C   0  0  0  0  0  0  0  0  0  0  0  0
    0.5593   64.3709   83.8334 N   0  0  0  0  0  0  0  0  0  0  0  0
    1.2343   65.1323   84.8502 C   0  0  0  0  0  0  0  0  0  0  0  0
   -1.3800   62.9005   79.9192 N   0  0  0  0  0  0  0  0  0  0  0  0
   -2.2072   62.5935   80.4241 H   0  0  0  0  0  0  0  0  0  0  0  0
   -0.6434   61.8979   79.1719 C   0  0  0  0  0  0  0  0  0  0  0  0
   -1.7561   61.2938   76.9540 C   0  0  0  0  0  0  0  0  0  0  0  0
   -1.5366   60.8970   78.4149 C   0  0  0  0  0  0  0  0  0  0  0  0
   -2.8747   60.6382   79.1071 C   0  0  0  0  0  0  0  0  0  0  0  0
    1.0664   68.4694   80.5098 C   0  0  0  0  0  0  0  0  0  0  0  0
    0.1507   69.5237   80.6139 C   0  0  0  0  0  0  0  0  0  0  0  0
    0.5512   70.7960   81.0356 C   0  0  0  0  0  0  0  0  0  0  0  0
    1.8911   71.0288   81.3436 C   0  0  0  0  0  0  0  0  0  0  0  0
    2.8278   70.0021   81.2464 C   0  0  0  0  0  0  0  0  0  0  0  0
    2.4113   68.7347   80.8272 C   0  0  0  0  0  0  0  0  0  0  0  0
    2.3902   72.6531   81.8499 S   0  0  0  0  0  0  0  0  0  0  0  0
    3.7739   72.8500   81.4691 O   0  0  0  0  0  0  0  0  0  0  0  0
    1.9574   72.8281   83.2194 O   0  0  0  0  0  0  0  0  0  0  0  0
    1.4439   73.6684   80.8543 N   0  0  0  0  0  0  0  0  0  0  0  0
    2.2209   74.6717   80.0597 C   0  0  0  0  0  0  0  0  0  0  0  0
    1.2823   75.4659   79.1271 C   0  0  0  0  0  0  0  0  0  0  0  0
    0.1416   76.1251   79.7956 N   0  0  0  0  0  0  0  0  0  0  0  0
    0.5640   77.2900   80.5704 C   0  0  0  0  0  0  0  0  0  0  0  0
   -0.5668   75.1360   80.6352 C   0  0  0  0  0  0  0  0  0  0  0  0
    0.3276   74.3306   81.6002 C   0  0  0  0  0  0  0  0  0  0  0  0
 16 17  1  0  0  0
 17 18  1  0  0  0
 17 15  1  0  0  0
 15 13  1  0  0  0
 13  3  1  0  0  0
  3  4  1  0  0  0
  4  5  2  0  0  0
  5  1  1  0  0  0
  1 19  1  0  0  0
 19 20  1  0  0  0
 20 21  2  0  0  0
 21 22  1  0  0  0
 22 25  1  0  0  0
 25 26  2  0  0  0
 25 27  2  0  0  0
 25 28  1  0  0  0
 28 29  1  0  0  0
 29 30  1  0  0  0
 30 31  1  0  0  0
 31 32  1  0  0  0
 31 33  1  0  0  0
 33 34  1  0  0  0
 22 23  2  0  0  0
 23 24  1  0  0  0
  5  6  1  0  0  0
  6  7  2  0  0  0
  7  8  1  0  0  0
  8  9  1  0  0  0
  9 10  2  0  0  0
 10 11  1  0  0  0
 11 12  1  0  0  0
  8  3  2  0  0  0
 24 19  2  0  0  0
 11  7  1  0  0  0
 34 28  1  0  0  0
 13 14  1  0  0  0
  1  2  1  0  0  0
M  END
> <minimizedAffinity>
-1.62143

$$$$



 34 37  0  0  0  0  0  0  0  0999 V2000
    1.8759   69.6496   80.7334 N   0  0  0  0  0  0  0  0  0  0  0  0
    1.9478   69.4087   79.7561 H   0  0  0  0  0  0  0  0  0  0  0  0
    0.7303   66.3775   81.8289 C   0  0  0  0  0  0  0  0  0  0  0  0
    0.8452   67.5314   81.1208 N   0  0  0  0  0  0  0  0  0  0  0  0
    1.7400   68.4777   81.4784 C   0  0  0  0  0  0  0  0  0  0  0  0
    2.5906   68.3924   82.5214 N   0  0  0  0  0  0  0  0  0  0  0  0
    2.4536   67.2466   83.2019 C   0  0  0  0  0  0  0  0  0  0  0  0
    1.5772   66.2124   82.9358 C   0  0  0  0  0  0  0  0  0  0  0  0
    1.7373   65.1841   83.8455 N   0  0  0  0  0  0  0  0  0  0  0  0
    2.6876   65.6002   84.6569 C   0  0  0  0  0  0  0  0  0  0  0  0
    3.1481   66.8393   84.3058 N   0  0  0  0  0  0  0  0  0  0  0  0
    4.1793   67.5894   84.9714 C   0  0  0  0  0  0  0  0  0  0  0  0
   -0.1907   65.3993   81.4733 N   0  0  0  0  0  0  0  0  0  0  0  0
   -0.7963   65.1480   82.2500 H   0  0  0  0  0  0  0  0  0  0  0  0
    0.2019   64.3396   80.5626 C   0  0  0  0  0  0  0  0  0  0  0  0
   -0.8166   62.1462   81.3833 C   0  0  0  0  0  0  0  0  0  0  0  0
   -0.8811   63.2665   80.3437 C   0  0  0  0  0  0  0  0  0  0  0  0
   -0.8793   62.6863   78.9295 C   0  0  0  0  0  0  0  0  0  0  0  0
    2.0557   70.9958   81.0683 C   0  0  0  0  0  0  0  0  0  0  0  0
    1.0131   71.8501   81.4480 C   0  0  0  0  0  0  0  0  0  0  0  0
    1.2452   73.2009   81.7283 C   0  0  0  0  0  0  0  0  0  0  0  0
    2.5357   73.7159   81.6125 C   0  0  0  0  0  0  0  0  0  0  0  0
    3.5941   72.8933   81.2329 C   0  0  0  0  0  0  0  0  0  0  0  0
    3.3469   71.5443   80.9599 C   0  0  0  0  0  0  0  0  0  0  0  0
    2.8109   75.4360   81.9436 S   0  0  0  0  0  0  0  0  0  0  0  0
    2.1237   75.7852   83.1702 O   0  0  0  0  0  0  0  0  0  0  0  0
    2.5612   76.1555   80.7135 O   0  0  0  0  0  0  0  0  0  0  0  0
    4.4865   75.4963   82.2698 N   0  0  0  0  0  0  0  0  0  0  0  0
    4.8478   76.0828   83.5992 C   0  0  0  0  0  0  0  0  0  0  0  0
    6.3713   75.9990   83.8302 C   0  0  0  0  0  0  0  0  0  0  0  0
    7.2026   76.6033   82.7688 N   0  0  0  0  0  0  0  0  0  0  0  0
    7.1506   78.0634   82.8017 C   0  0  0  0  0  0  0  0  0  0  0  0
    6.7790   76.0692   81.4571 C   0  0  0  0  0  0  0  0  0  0  0  0
    5.2652   76.1500   81.1712 C   0  0  0  0  0  0  0  0  0  0  0  0
 16 17  1  0  0  0
 17 18  1  0  0  0
 17 15  1  0  0  0
 15 13  1  0  0  0
 13  3  1  0  0  0
  3  4  1  0  0  0
  4  5  2  0  0  0
  5  1  1  0  0  0
  1 19  1  0  0  0
 19 20  1  0  0  0
 20 21  2  0  0  0
 21 22  1  0  0  0
 22 25  1  0  0  0
 25 26  2  0  0  0
 25 27  2  0  0  0
 25 28  1  0  0  0
 28 29  1  0  0  0
 29 30  1  0  0  0
 30 31  1  0  0  0
 31 32  1  0  0  0
 31 33  1  0  0  0
 33 34  1  0  0  0
 22 23  2  0  0  0
 23 24  1  0  0  0
  5  6  1  0  0  0
  6  7  2  0  0  0
  7  8  1  0  0  0
  8  9  1  0  0  0
  9 10  2  0  0  0
 10 11  1  0  0  0
 11 12  1  0  0  0
  8  3  2  0  0  0
 24 19  2  0  0  0
 11  7  1  0  0  0
 34 28  1  0  0  0
 13 14  1  0  0  0
  1  2  1  0  0  0
M  END
> <minimizedAffinity>
-1.57791

$$$$
