


 21 23  0  0  0  0  0  0  0  0999 V2000
   -1.4428   62.5745   84.2269 C   0  0  0  0  0  0  0  0  0  0  0  0
   -1.6648   61.7679   85.2825 N   0  0  0  0  0  0  0  0  0  0  0  0
   -0.8633   62.2696   86.2547 N   0  0  0  0  0  0  0  0  0  0  0  0
   -0.8329   61.6457   87.5555 C   0  0  0  0  0  0  0  0  0  0  0  0
   -0.1514   63.3552   85.8511 C   0  0  0  0  0  0  0  0  0  0  0  0
    0.7891   64.1659   86.5308 C   0  0  0  0  0  0  0  0  0  0  0  0
    1.1702   64.0144   87.6855 O   0  0  0  0  0  0  0  0  0  0  0  0
    1.2585   65.1799   85.7256 N   0  0  0  0  0  0  0  0  0  0  0  0
    0.8684   65.3577   84.4002 C   0  0  0  0  0  0  0  0  0  0  0  0
    0.0163   64.5979   83.7697 N   0  0  0  0  0  0  0  0  0  0  0  0
   -0.5066   63.5685   84.5534 C   0  0  0  0  0  0  0  0  0  0  0  0
    1.9720   65.7556   86.1444 H   0  0  0  0  0  0  0  0  0  0  0  0
    1.5104   66.4970   83.6867 C   0  0  0  0  0  0  0  0  0  0  0  0
    2.3174   67.4243   84.3590 C   0  0  0  0  0  0  0  0  0  0  0  0
    2.9049   68.4778   83.6541 C   0  0  0  0  0  0  0  0  0  0  0  0
    2.6841   68.6125   82.2835 C   0  0  0  0  0  0  0  0  0  0  0  0
    1.8689   67.7011   81.6139 C   0  0  0  0  0  0  0  0  0  0  0  0
    1.2787   66.6475   82.3136 C   0  0  0  0  0  0  0  0  0  0  0  0
   -2.1447   62.3529   82.9323 C   0  0  0  0  0  0  0  0  0  0  0  0
   -2.9375   60.0382   82.3258 C   0  0  0  0  0  0  0  0  0  0  0  0
   -1.7714   61.0131   82.2966 C   0  0  0  0  0  0  0  0  0  0  0  0
 20 21  1  0  0  0
 21 19  1  0  0  0
 19  1  1  0  0  0
  1  2  2  0  0  0
  2  3  1  0  0  0
  3  4  1  0  0  0
  3  5  1  0  0  0
  5  6  1  0  0  0
  6  7  2  0  0  0
  6  8  1  0  0  0
  8  9  1  0  0  0
  9 13  1  0  0  0
 13 14  2  0  0  0
 14 15  1  0  0  0
 15 16  2  0  0  0
 16 17  1  0  0  0
 17 18  2  0  0  0
  9 10  2  0  0  0
 10 11  1  0  0  0
 11  1  1  0  0  0
 11  5  2  0  0  0
 18 13  1  0  0  0
  8 12  1  0  0  0
M  END
> <minimizedAffinity>
-8.71502

$$$$



 21 23  0  0  0  0  0  0  0  0999 V2000
   -0.7751   62.7704   80.2017 C   0  0  0  0  0  0  0  0  0  0  0  0
   -1.1372   61.9248   79.2177 N   0  0  0  0  0  0  0  0  0  0  0  0
   -1.8149   60.9418   79.8610 N   0  0  0  0  0  0  0  0  0  0  0  0
   -2.3617   59.8361   79.1123 C   0  0  0  0  0  0  0  0  0  0  0  0
   -1.8918   61.1383   81.2040 C   0  0  0  0  0  0  0  0  0  0  0  0
   -2.4895   60.3700   82.2318 C   0  0  0  0  0  0  0  0  0  0  0  0
   -3.0749   59.3034   82.0869 O   0  0  0  0  0  0  0  0  0  0  0  0
   -2.3319   60.9641   83.4643 N   0  0  0  0  0  0  0  0  0  0  0  0
   -1.6440   62.1589   83.6641 C   0  0  0  0  0  0  0  0  0  0  0  0
   -1.0772   62.8552   82.7184 N   0  0  0  0  0  0  0  0  0  0  0  0
   -1.2309   62.3048   81.4453 C   0  0  0  0  0  0  0  0  0  0  0  0
   -2.6934   60.4308   84.2394 H   0  0  0  0  0  0  0  0  0  0  0  0
   -1.5589   62.6251   85.0764 C   0  0  0  0  0  0  0  0  0  0  0  0
   -0.3683   63.1340   85.6119 C   0  0  0  0  0  0  0  0  0  0  0  0
   -0.3292   63.5644   86.9405 C   0  0  0  0  0  0  0  0  0  0  0  0
   -1.4710   63.4820   87.7373 C   0  0  0  0  0  0  0  0  0  0  0  0
   -2.6532   62.9614   87.2129 C   0  0  0  0  0  0  0  0  0  0  0  0
   -2.6974   62.5290   85.8865 C   0  0  0  0  0  0  0  0  0  0  0  0
    0.0057   64.0030   79.9039 C   0  0  0  0  0  0  0  0  0  0  0  0
   -0.2097   64.8278   77.5316 C   0  0  0  0  0  0  0  0  0  0  0  0
    0.6037   63.9803   78.4966 C   0  0  0  0  0  0  0  0  0  0  0  0
 20 21  1  0  0  0
 21 19  1  0  0  0
 19  1  1  0  0  0
  1  2  2  0  0  0
  2  3  1  0  0  0
  3  4  1  0  0  0
  3  5  1  0  0  0
  5  6  1  0  0  0
  6  7  2  0  0  0
  6  8  1  0  0  0
  8  9  1  0  0  0
  9 13  1  0  0  0
 13 14  2  0  0  0
 14 15  1  0  0  0
 15 16  2  0  0  0
 16 17  1  0  0  0
 17 18  2  0  0  0
  9 10  2  0  0  0
 10 11  1  0  0  0
 11  1  1  0  0  0
 11  5  2  0  0  0
 18 13  1  0  0  0
  8 12  1  0  0  0
M  END
> <minimizedAffinity>
-8.35388

$$$$



 21 23  0  0  0  0  0  0  0  0999 V2000
    0.5709   64.1791   85.7675 C   0  0  0  0  0  0  0  0  0  0  0  0
    0.5638   64.2580   87.1121 N   0  0  0  0  0  0  0  0  0  0  0  0
   -0.4872   63.4849   87.4820 N   0  0  0  0  0  0  0  0  0  0  0  0
   -0.8111   63.3314   88.8798 C   0  0  0  0  0  0  0  0  0  0  0  0
   -1.1357   62.9263   86.4257 C   0  0  0  0  0  0  0  0  0  0  0  0
   -2.2648   62.0747   86.3618 C   0  0  0  0  0  0  0  0  0  0  0  0
   -2.9178   61.6706   87.3166 O   0  0  0  0  0  0  0  0  0  0  0  0
   -2.5726   61.7394   85.0620 N   0  0  0  0  0  0  0  0  0  0  0  0
   -1.8688   62.2090   83.9553 C   0  0  0  0  0  0  0  0  0  0  0  0
   -0.8408   63.0092   84.0152 N   0  0  0  0  0  0  0  0  0  0  0  0
   -0.4749   63.3585   85.3157 C   0  0  0  0  0  0  0  0  0  0  0  0
   -3.4021   61.1766   84.9562 H   0  0  0  0  0  0  0  0  0  0  0  0
   -2.3741   61.7542   82.6297 C   0  0  0  0  0  0  0  0  0  0  0  0
   -2.5575   62.6484   81.5668 C   0  0  0  0  0  0  0  0  0  0  0  0
   -3.0305   62.1828   80.3374 C   0  0  0  0  0  0  0  0  0  0  0  0
   -3.3271   60.8305   80.1679 C   0  0  0  0  0  0  0  0  0  0  0  0
   -3.1610   59.9402   81.2278 C   0  0  0  0  0  0  0  0  0  0  0  0
   -2.6900   60.4005   82.4584 C   0  0  0  0  0  0  0  0  0  0  0  0
    1.5913   64.9061   84.9626 C   0  0  0  0  0  0  0  0  0  0  0  0
    1.0181   65.7858   82.6709 C   0  0  0  0  0  0  0  0  0  0  0  0
    0.9813   66.0601   84.1657 C   0  0  0  0  0  0  0  0  0  0  0  0
 20 21  1  0  0  0
 21 19  1  0  0  0
 19  1  1  0  0  0
  1  2  2  0  0  0
  2  3  1  0  0  0
  3  4  1  0  0  0
  3  5  1  0  0  0
  5  6  1  0  0  0
  6  7  2  0  0  0
  6  8  1  0  0  0
  8  9  1  0  0  0
  9 13  1  0  0  0
 13 14  2  0  0  0
 14 15  1  0  0  0
 15 16  2  0  0  0
 16 17  1  0  0  0
 17 18  2  0  0  0
  9 10  2  0  0  0
 10 11  1  0  0  0
 11  1  1  0  0  0
 11  5  2  0  0  0
 18 13  1  0  0  0
  8 12  1  0  0  0
M  END
> <minimizedAffinity>
-8.33008

$$$$



 21 23  0  0  0  0  0  0  0  0999 V2000
    4.7820   67.1147   84.8035 C   0  0  0  0  0  0  0  0  0  0  0  0
    5.0825   68.2207   84.0960 N   0  0  0  0  0  0  0  0  0  0  0  0
    3.9638   68.4597   83.3674 N   0  0  0  0  0  0  0  0  0  0  0  0
    3.9174   69.5881   82.4692 C   0  0  0  0  0  0  0  0  0  0  0  0
    2.9780   67.5505   83.5907 C   0  0  0  0  0  0  0  0  0  0  0  0
    1.6772   67.4246   83.0467 C   0  0  0  0  0  0  0  0  0  0  0  0
    1.1745   68.1576   82.2032 O   0  0  0  0  0  0  0  0  0  0  0  0
    1.0091   66.3439   83.5780 N   0  0  0  0  0  0  0  0  0  0  0  0
    1.5658   65.4747   84.5136 C   0  0  0  0  0  0  0  0  0  0  0  0
    2.7715   65.5811   84.9991 N   0  0  0  0  0  0  0  0  0  0  0  0
    3.4809   66.6779   84.5078 C   0  0  0  0  0  0  0  0  0  0  0  0
    0.0961   66.1769   83.1849 H   0  0  0  0  0  0  0  0  0  0  0  0
    0.6925   64.3481   84.9464 C   0  0  0  0  0  0  0  0  0  0  0  0
    0.1384   63.4513   84.0234 C   0  0  0  0  0  0  0  0  0  0  0  0
   -0.6735   62.4051   84.4688 C   0  0  0  0  0  0  0  0  0  0  0  0
   -0.9393   62.2556   85.8298 C   0  0  0  0  0  0  0  0  0  0  0  0
   -0.4029   63.1552   86.7498 C   0  0  0  0  0  0  0  0  0  0  0  0
    0.4079   64.2029   86.3100 C   0  0  0  0  0  0  0  0  0  0  0  0
    5.7694   66.5142   85.7427 C   0  0  0  0  0  0  0  0  0  0  0  0
    8.1118   66.1738   84.8755 C   0  0  0  0  0  0  0  0  0  0  0  0
    6.7307   65.5586   85.0346 C   0  0  0  0  0  0  0  0  0  0  0  0
 20 21  1  0  0  0
 21 19  1  0  0  0
 19  1  1  0  0  0
  1  2  2  0  0  0
  2  3  1  0  0  0
  3  4  1  0  0  0
  3  5  1  0  0  0
  5  6  1  0  0  0
  6  7  2  0  0  0
  6  8  1  0  0  0
  8  9  1  0  0  0
  9 13  1  0  0  0
 13 14  2  0  0  0
 14 15  1  0  0  0
 15 16  2  0  0  0
 16 17  1  0  0  0
 17 18  2  0  0  0
  9 10  2  0  0  0
 10 11  1  0  0  0
 11  1  1  0  0  0
 11  5  2  0  0  0
 18 13  1  0  0  0
  8 12  1  0  0  0
M  END
> <minimizedAffinity>
-8.28737

$$$$



 21 23  0  0  0  0  0  0  0  0999 V2000
   -2.4095   62.1837   84.7651 C   0  0  0  0  0  0  0  0  0  0  0  0
   -2.9562   61.0831   84.2136 N   0  0  0  0  0  0  0  0  0  0  0  0
   -2.3992   61.0221   82.9786 N   0  0  0  0  0  0  0  0  0  0  0  0
   -2.7582   59.9523   82.0793 C   0  0  0  0  0  0  0  0  0  0  0  0
   -1.5276   62.0370   82.7363 C   0  0  0  0  0  0  0  0  0  0  0  0
   -0.7474   62.3518   81.5978 C   0  0  0  0  0  0  0  0  0  0  0  0
   -0.7275   61.7289   80.5428 O   0  0  0  0  0  0  0  0  0  0  0  0
    0.0125   63.4821   81.8021 N   0  0  0  0  0  0  0  0  0  0  0  0
   -0.0135   64.2288   82.9778 C   0  0  0  0  0  0  0  0  0  0  0  0
   -0.7477   63.9480   84.0185 N   0  0  0  0  0  0  0  0  0  0  0  0
   -1.5190   62.7949   83.8681 C   0  0  0  0  0  0  0  0  0  0  0  0
    0.5476   63.7814   81.0021 H   0  0  0  0  0  0  0  0  0  0  0  0
    0.8606   65.4350   82.9947 C   0  0  0  0  0  0  0  0  0  0  0  0
    1.3386   65.9796   84.1939 C   0  0  0  0  0  0  0  0  0  0  0  0
    2.1590   67.1102   84.1682 C   0  0  0  0  0  0  0  0  0  0  0  0
    2.4975   67.7023   82.9516 C   0  0  0  0  0  0  0  0  0  0  0  0
    2.0109   67.1730   81.7572 C   0  0  0  0  0  0  0  0  0  0  0  0
    1.1900   66.0443   81.7773 C   0  0  0  0  0  0  0  0  0  0  0  0
   -2.7715   62.6096   86.1454 C   0  0  0  0  0  0  0  0  0  0  0  0
   -1.2226   63.4225   87.9605 C   0  0  0  0  0  0  0  0  0  0  0  0
   -1.7038   62.2178   87.1678 C   0  0  0  0  0  0  0  0  0  0  0  0
 20 21  1  0  0  0
 21 19  1  0  0  0
 19  1  1  0  0  0
  1  2  2  0  0  0
  2  3  1  0  0  0
  3  4  1  0  0  0
  3  5  1  0  0  0
  5  6  1  0  0  0
  6  7  2  0  0  0
  6  8  1  0  0  0
  8  9  1  0  0  0
  9 13  1  0  0  0
 13 14  2  0  0  0
 14 15  1  0  0  0
 15 16  2  0  0  0
 16 17  1  0  0  0
 17 18  2  0  0  0
  9 10  2  0  0  0
 10 11  1  0  0  0
 11  1  1  0  0  0
 11  5  2  0  0  0
 18 13  1  0  0  0
  8 12  1  0  0  0
M  END
> <minimizedAffinity>
-8.28442

$$$$



 21 23  0  0  0  0  0  0  0  0999 V2000
    0.9149   66.3744   80.8846 C   0  0  0  0  0  0  0  0  0  0  0  0
    1.5865   67.4799   80.5091 N   0  0  0  0  0  0  0  0  0  0  0  0
    2.1001   67.9627   81.6678 N   0  0  0  0  0  0  0  0  0  0  0  0
    2.8941   69.1675   81.6561 C   0  0  0  0  0  0  0  0  0  0  0  0
    1.7783   67.2052   82.7499 C   0  0  0  0  0  0  0  0  0  0  0  0
    2.0942   67.3481   84.1224 C   0  0  0  0  0  0  0  0  0  0  0  0
    2.7500   68.2554   84.6205 O   0  0  0  0  0  0  0  0  0  0  0  0
    1.5597   66.3251   84.8737 N   0  0  0  0  0  0  0  0  0  0  0  0
    0.7836   65.2985   84.3404 C   0  0  0  0  0  0  0  0  0  0  0  0
    0.4774   65.1793   83.0784 N   0  0  0  0  0  0  0  0  0  0  0  0
    1.0177   66.1815   82.2714 C   0  0  0  0  0  0  0  0  0  0  0  0
    1.7102   66.4074   85.8669 H   0  0  0  0  0  0  0  0  0  0  0  0
    0.2733   64.3002   85.3213 C   0  0  0  0  0  0  0  0  0  0  0  0
    0.4335   64.4780   86.7018 C   0  0  0  0  0  0  0  0  0  0  0  0
   -0.0620   63.5205   87.5905 C   0  0  0  0  0  0  0  0  0  0  0  0
   -0.7098   62.3843   87.1060 C   0  0  0  0  0  0  0  0  0  0  0  0
   -0.8571   62.1958   85.7326 C   0  0  0  0  0  0  0  0  0  0  0  0
   -0.3628   63.1488   84.8404 C   0  0  0  0  0  0  0  0  0  0  0  0
    0.1909   65.5412   79.8849 C   0  0  0  0  0  0  0  0  0  0  0  0
    0.8436   63.7296   78.2581 C   0  0  0  0  0  0  0  0  0  0  0  0
    1.0779   65.1662   78.6969 C   0  0  0  0  0  0  0  0  0  0  0  0
 20 21  1  0  0  0
 21 19  1  0  0  0
 19  1  1  0  0  0
  1  2  2  0  0  0
  2  3  1  0  0  0
  3  4  1  0  0  0
  3  5  1  0  0  0
  5  6  1  0  0  0
  6  7  2  0  0  0
  6  8  1  0  0  0
  8  9  1  0  0  0
  9 13  1  0  0  0
 13 14  2  0  0  0
 14 15  1  0  0  0
 15 16  2  0  0  0
 16 17  1  0  0  0
 17 18  2  0  0  0
  9 10  2  0  0  0
 10 11  1  0  0  0
 11  1  1  0  0  0
 11  5  2  0  0  0
 18 13  1  0  0  0
  8 12  1  0  0  0
M  END
> <minimizedAffinity>
-8.15330

$$$$



 21 23  0  0  0  0  0  0  0  0999 V2000
    0.6068   64.8594   84.2286 C   0  0  0  0  0  0  0  0  0  0  0  0
    0.9802   64.9904   85.5161 N   0  0  0  0  0  0  0  0  0  0  0  0
    0.3264   63.9869   86.1524 N   0  0  0  0  0  0  0  0  0  0  0  0
    0.4852   63.8137   87.5761 C   0  0  0  0  0  0  0  0  0  0  0  0
   -0.4382   63.2349   85.3168 C   0  0  0  0  0  0  0  0  0  0  0  0
   -1.2723   62.1172   85.5597 C   0  0  0  0  0  0  0  0  0  0  0  0
   -1.4825   61.5979   86.6494 O   0  0  0  0  0  0  0  0  0  0  0  0
   -1.8548   61.6589   84.3989 N   0  0  0  0  0  0  0  0  0  0  0  0
   -1.6603   62.2482   83.1517 C   0  0  0  0  0  0  0  0  0  0  0  0
   -0.9067   63.2899   82.9332 N   0  0  0  0  0  0  0  0  0  0  0  0
   -0.2744   63.7768   84.0779 C   0  0  0  0  0  0  0  0  0  0  0  0
   -2.5015   60.8959   84.5237 H   0  0  0  0  0  0  0  0  0  0  0  0
   -2.4006   61.6221   82.0206 C   0  0  0  0  0  0  0  0  0  0  0  0
   -3.0242   62.3956   81.0327 C   0  0  0  0  0  0  0  0  0  0  0  0
   -3.7066   61.7712   79.9856 C   0  0  0  0  0  0  0  0  0  0  0  0
   -3.7742   60.3793   79.9252 C   0  0  0  0  0  0  0  0  0  0  0  0
   -3.1686   59.6065   80.9149 C   0  0  0  0  0  0  0  0  0  0  0  0
   -2.4867   60.2254   81.9639 C   0  0  0  0  0  0  0  0  0  0  0  0
    1.1149   65.7920   83.1847 C   0  0  0  0  0  0  0  0  0  0  0  0
    1.8613   68.1712   82.8152 C   0  0  0  0  0  0  0  0  0  0  0  0
    1.8202   67.0060   83.7908 C   0  0  0  0  0  0  0  0  0  0  0  0
 20 21  1  0  0  0
 21 19  1  0  0  0
 19  1  1  0  0  0
  1  2  2  0  0  0
  2  3  1  0  0  0
  3  4  1  0  0  0
  3  5  1  0  0  0
  5  6  1  0  0  0
  6  7  2  0  0  0
  6  8  1  0  0  0
  8  9  1  0  0  0
  9 13  1  0  0  0
 13 14  2  0  0  0
 14 15  1  0  0  0
 15 16  2  0  0  0
 16 17  1  0  0  0
 17 18  2  0  0  0
  9 10  2  0  0  0
 10 11  1  0  0  0
 11  1  1  0  0  0
 11  5  2  0  0  0
 18 13  1  0  0  0
  8 12  1  0  0  0
M  END
> <minimizedAffinity>
-8.14744

$$$$



 21 23  0  0  0  0  0  0  0  0999 V2000
    0.1130   64.7273   81.3061 C   0  0  0  0  0  0  0  0  0  0  0  0
    0.6445   65.7626   80.6279 N   0  0  0  0  0  0  0  0  0  0  0  0
    1.2375   66.5154   81.5876 N   0  0  0  0  0  0  0  0  0  0  0  0
    1.9211   67.7338   81.2265 C   0  0  0  0  0  0  0  0  0  0  0  0
    1.0994   65.9936   82.8355 C   0  0  0  0  0  0  0  0  0  0  0  0
    1.5483   66.4500   84.0981 C   0  0  0  0  0  0  0  0  0  0  0  0
    2.1750   67.4812   84.3107 O   0  0  0  0  0  0  0  0  0  0  0  0
    1.1862   65.5849   85.1067 N   0  0  0  0  0  0  0  0  0  0  0  0
    0.4465   64.4227   84.8996 C   0  0  0  0  0  0  0  0  0  0  0  0
    0.0172   64.0141   83.7380 N   0  0  0  0  0  0  0  0  0  0  0  0
    0.3808   64.8470   82.6791 C   0  0  0  0  0  0  0  0  0  0  0  0
    1.4354   65.8901   86.0344 H   0  0  0  0  0  0  0  0  0  0  0  0
    0.1311   63.6331   86.1229 C   0  0  0  0  0  0  0  0  0  0  0  0
   -0.7862   62.5743   86.0979 C   0  0  0  0  0  0  0  0  0  0  0  0
   -1.0531   61.8552   87.2657 C   0  0  0  0  0  0  0  0  0  0  0  0
   -0.4135   62.1936   88.4581 C   0  0  0  0  0  0  0  0  0  0  0  0
    0.4878   63.2566   88.4906 C   0  0  0  0  0  0  0  0  0  0  0  0
    0.7571   63.9790   87.3270 C   0  0  0  0  0  0  0  0  0  0  0  0
   -0.6416   63.6553   80.5998 C   0  0  0  0  0  0  0  0  0  0  0  0
    0.6766   61.5403   80.9786 C   0  0  0  0  0  0  0  0  0  0  0  0
    0.2869   62.6133   79.9747 C   0  0  0  0  0  0  0  0  0  0  0  0
 20 21  1  0  0  0
 21 19  1  0  0  0
 19  1  1  0  0  0
  1  2  2  0  0  0
  2  3  1  0  0  0
  3  4  1  0  0  0
  3  5  1  0  0  0
  5  6  1  0  0  0
  6  7  2  0  0  0
  6  8  1  0  0  0
  8  9  1  0  0  0
  9 13  1  0  0  0
 13 14  2  0  0  0
 14 15  1  0  0  0
 15 16  2  0  0  0
 16 17  1  0  0  0
 17 18  2  0  0  0
  9 10  2  0  0  0
 10 11  1  0  0  0
 11  1  1  0  0  0
 11  5  2  0  0  0
 18 13  1  0  0  0
  8 12  1  0  0  0
M  END
> <minimizedAffinity>
-8.14568

$$$$



 21 23  0  0  0  0  0  0  0  0999 V2000
    2.5732   67.6398   83.5480 C   0  0  0  0  0  0  0  0  0  0  0  0
    2.6127   68.0669   82.2712 N   0  0  0  0  0  0  0  0  0  0  0  0
    1.7706   67.2286   81.6173 N   0  0  0  0  0  0  0  0  0  0  0  0
    1.5587   67.3840   80.1985 C   0  0  0  0  0  0  0  0  0  0  0  0
    1.2069   66.2973   82.4317 C   0  0  0  0  0  0  0  0  0  0  0  0
    0.2948   65.2478   82.1662 C   0  0  0  0  0  0  0  0  0  0  0  0
   -0.1732   64.9593   81.0711 O   0  0  0  0  0  0  0  0  0  0  0  0
   -0.0196   64.5491   83.3106 N   0  0  0  0  0  0  0  0  0  0  0  0
    0.5211   64.8333   84.5627 C   0  0  0  0  0  0  0  0  0  0  0  0
    1.3763   65.7884   84.8017 N   0  0  0  0  0  0  0  0  0  0  0  0
    1.7080   66.5415   83.6746 C   0  0  0  0  0  0  0  0  0  0  0  0
   -0.6253   63.7562   83.1683 H   0  0  0  0  0  0  0  0  0  0  0  0
    0.0769   63.9451   85.6731 C   0  0  0  0  0  0  0  0  0  0  0  0
    0.4478   64.1885   87.0021 C   0  0  0  0  0  0  0  0  0  0  0  0
    0.0083   63.3341   88.0165 C   0  0  0  0  0  0  0  0  0  0  0  0
   -0.7934   62.2351   87.7080 C   0  0  0  0  0  0  0  0  0  0  0  0
   -1.1514   61.9805   86.3849 C   0  0  0  0  0  0  0  0  0  0  0  0
   -0.7140   62.8303   85.3677 C   0  0  0  0  0  0  0  0  0  0  0  0
    3.3800   68.3098   84.6053 C   0  0  0  0  0  0  0  0  0  0  0  0
    5.2273   67.9549   86.2834 C   0  0  0  0  0  0  0  0  0  0  0  0
    4.6496   67.5273   84.9438 C   0  0  0  0  0  0  0  0  0  0  0  0
 20 21  1  0  0  0
 21 19  1  0  0  0
 19  1  1  0  0  0
  1  2  2  0  0  0
  2  3  1  0  0  0
  3  4  1  0  0  0
  3  5  1  0  0  0
  5  6  1  0  0  0
  6  7  2  0  0  0
  6  8  1  0  0  0
  8  9  1  0  0  0
  9 13  1  0  0  0
 13 14  2  0  0  0
 14 15  1  0  0  0
 15 16  2  0  0  0
 16 17  1  0  0  0
 17 18  2  0  0  0
  9 10  2  0  0  0
 10 11  1  0  0  0
 11  1  1  0  0  0
 11  5  2  0  0  0
 18 13  1  0  0  0
  8 12  1  0  0  0
M  END
> <minimizedAffinity>
-8.13363

$$$$
