


 28 29  0  0  0  0  0  0  0  0999 V2000
   -0.8584   62.9494   82.3476 C   0  0  0  0  0  0  0  0  0  0  0  0
   -1.2961   61.6321   82.1446 C   0  0  0  0  0  0  0  0  0  0  0  0
   -1.2678   61.0564   80.8715 C   0  0  0  0  0  0  0  0  0  0  0  0
   -0.7900   61.7879   79.7908 C   0  0  0  0  0  0  0  0  0  0  0  0
   -0.3604   63.0984   79.9701 C   0  0  0  0  0  0  0  0  0  0  0  0
   -0.3821   63.6940   81.2449 C   0  0  0  0  0  0  0  0  0  0  0  0
    0.1095   65.1112   81.3281 C   0  0  0  0  0  0  0  0  0  0  0  0
    1.0673   65.4321   82.1399 N   0  0  0  0  0  0  0  0  0  0  0  0
    1.4909   66.7433   82.1926 C   0  0  0  0  0  0  0  0  0  0  0  0
    0.9708   67.7323   81.4358 C   0  0  0  0  0  0  0  0  0  0  0  0
   -0.1292   67.3551   80.5109 C   0  0  0  0  0  0  0  0  0  0  0  0
   -0.6877   68.1670   79.7802 O   0  0  0  0  0  0  0  0  0  0  0  0
   -0.4859   66.0437   80.5257 N   0  0  0  0  0  0  0  0  0  0  0  0
   -1.2314   65.7730   79.8977 H   0  0  0  0  0  0  0  0  0  0  0  0
    2.6120   66.9563   83.1927 C   0  0  0  0  0  0  0  0  0  0  0  0
    2.5432   65.9605   84.3437 C   0  0  0  0  0  0  0  0  0  0  0  0
    1.3863   69.1789   81.4071 C   0  0  0  0  0  0  0  0  0  0  0  0
    2.5233   69.4257   80.4258 C   0  0  0  0  0  0  0  0  0  0  0  0
   -0.8156   61.2259   78.4819 N   0  0  0  0  0  0  0  0  0  0  0  0
   -0.7597   60.2061   78.4409 H   0  0  0  0  0  0  0  0  0  0  0  0
   -2.0596   61.7393   77.4515 S   0  0  0  0  0  0  0  0  0  0  0  0
   -2.2663   60.3131   76.4072 C   0  0  0  0  0  0  0  0  0  0  0  0
   -1.6132   62.8584   76.6531 O   0  0  0  0  0  0  0  0  0  0  0  0
   -3.2316   61.8396   78.2960 O   0  0  0  0  0  0  0  0  0  0  0  0
   -0.8629   63.5617   83.5754 O   0  0  0  0  0  0  0  0  0  0  0  0
   -0.2686   62.8745   84.6798 C   0  0  0  0  0  0  0  0  0  0  0  0
   -0.5518   62.8591   87.1854 C   0  0  0  0  0  0  0  0  0  0  0  0
   -1.2553   62.9317   85.8423 C   0  0  0  0  0  0  0  0  0  0  0  0
 27 28  1  0  0  0
 28 26  1  0  0  0
 26 25  1  0  0  0
 25  1  1  0  0  0
  1  2  1  0  0  0
  2  3  2  0  0  0
  3  4  1  0  0  0
  4 19  1  0  0  0
 19 21  1  0  0  0
 21 22  1  0  0  0
 21 23  2  0  0  0
 21 24  2  0  0  0
  4  5  2  0  0  0
  5  6  1  0  0  0
  6  7  1  0  0  0
  7  8  2  0  0  0
  8  9  1  0  0  0
  9 15  1  0  0  0
 15 16  1  0  0  0
  9 10  2  0  0  0
 10 17  1  0  0  0
 17 18  1  0  0  0
 10 11  1  0  0  0
 11 12  2  0  0  0
 11 13  1  0  0  0
  6  1  2  0  0  0
 13  7  1  0  0  0
 19 20  1  0  0  0
 13 14  1  0  0  0
M  END
> <minimizedAffinity>
-1.35897

$$$$



 28 29  0  0  0  0  0  0  0  0999 V2000
   -0.0228   63.9513   82.3602 C   0  0  0  0  0  0  0  0  0  0  0  0
    0.6549   64.8452   83.2026 C   0  0  0  0  0  0  0  0  0  0  0  0
    1.3251   65.9542   82.6790 C   0  0  0  0  0  0  0  0  0  0  0  0
    1.3141   66.1872   81.3090 C   0  0  0  0  0  0  0  0  0  0  0  0
    0.6558   65.3073   80.4566 C   0  0  0  0  0  0  0  0  0  0  0  0
   -0.0240   64.1856   80.9665 C   0  0  0  0  0  0  0  0  0  0  0  0
   -0.7065   63.3039   79.9595 C   0  0  0  0  0  0  0  0  0  0  0  0
   -1.3384   62.2369   80.3358 N   0  0  0  0  0  0  0  0  0  0  0  0
   -1.9504   61.4489   79.3839 C   0  0  0  0  0  0  0  0  0  0  0  0
   -1.9422   61.7234   78.0626 C   0  0  0  0  0  0  0  0  0  0  0  0
   -1.2122   62.9469   77.6408 C   0  0  0  0  0  0  0  0  0  0  0  0
   -1.1263   63.2954   76.4677 O   0  0  0  0  0  0  0  0  0  0  0  0
   -0.6361   63.6623   78.6426 N   0  0  0  0  0  0  0  0  0  0  0  0
   -0.1389   64.4999   78.3691 H   0  0  0  0  0  0  0  0  0  0  0  0
   -2.6410   60.2378   79.9828 C   0  0  0  0  0  0  0  0  0  0  0  0
   -3.3856   60.5852   81.2657 C   0  0  0  0  0  0  0  0  0  0  0  0
   -2.6023   60.9394   76.9600 C   0  0  0  0  0  0  0  0  0  0  0  0
   -1.6894   59.8541   76.4074 C   0  0  0  0  0  0  0  0  0  0  0  0
    2.0459   67.2822   80.7658 N   0  0  0  0  0  0  0  0  0  0  0  0
    2.1367   67.2874   79.7477 H   0  0  0  0  0  0  0  0  0  0  0  0
    1.5932   68.8343   81.2744 S   0  0  0  0  0  0  0  0  0  0  0  0
    2.4193   69.8559   80.0739 C   0  0  0  0  0  0  0  0  0  0  0  0
    2.1337   69.1040   82.5876 O   0  0  0  0  0  0  0  0  0  0  0  0
    0.1706   68.9157   81.0168 O   0  0  0  0  0  0  0  0  0  0  0  0
   -0.6977   62.8493   82.8214 O   0  0  0  0  0  0  0  0  0  0  0  0
   -0.3600   62.3369   84.1131 C   0  0  0  0  0  0  0  0  0  0  0  0
   -1.2942   62.3405   86.4552 C   0  0  0  0  0  0  0  0  0  0  0  0
   -1.6190   62.3911   84.9733 C   0  0  0  0  0  0  0  0  0  0  0  0
 27 28  1  0  0  0
 28 26  1  0  0  0
 26 25  1  0  0  0
 25  1  1  0  0  0
  1  2  1  0  0  0
  2  3  2  0  0  0
  3  4  1  0  0  0
  4 19  1  0  0  0
 19 21  1  0  0  0
 21 22  1  0  0  0
 21 23  2  0  0  0
 21 24  2  0  0  0
  4  5  2  0  0  0
  5  6  1  0  0  0
  6  7  1  0  0  0
  7  8  2  0  0  0
  8  9  1  0  0  0
  9 15  1  0  0  0
 15 16  1  0  0  0
  9 10  2  0  0  0
 10 17  1  0  0  0
 17 18  1  0  0  0
 10 11  1  0  0  0
 11 12  2  0  0  0
 11 13  1  0  0  0
  6  1  2  0  0  0
 13  7  1  0  0  0
 19 20  1  0  0  0
 13 14  1  0  0  0
M  END
> <minimizedAffinity>
-1.26257

$$$$



 28 29  0  0  0  0  0  0  0  0999 V2000
   -0.1147   64.7062   81.6628 C   0  0  0  0  0  0  0  0  0  0  0  0
    0.3248   65.2108   82.8958 C   0  0  0  0  0  0  0  0  0  0  0  0
    0.3401   64.4025   84.0357 C   0  0  0  0  0  0  0  0  0  0  0  0
   -0.0721   63.0781   83.9516 C   0  0  0  0  0  0  0  0  0  0  0  0
   -0.5201   62.5620   82.7403 C   0  0  0  0  0  0  0  0  0  0  0  0
   -0.5425   63.3616   81.5825 C   0  0  0  0  0  0  0  0  0  0  0  0
   -1.0388   62.7037   80.3263 C   0  0  0  0  0  0  0  0  0  0  0  0
   -2.0856   61.9401   80.3493 N   0  0  0  0  0  0  0  0  0  0  0  0
   -2.5109   61.3495   79.1781 C   0  0  0  0  0  0  0  0  0  0  0  0
   -1.9038   61.5226   77.9853 C   0  0  0  0  0  0  0  0  0  0  0  0
   -0.7025   62.3970   77.9699 C   0  0  0  0  0  0  0  0  0  0  0  0
   -0.0605   62.6224   76.9491 O   0  0  0  0  0  0  0  0  0  0  0  0
   -0.3516   62.9347   79.1679 N   0  0  0  0  0  0  0  0  0  0  0  0
    0.4627   63.5351   79.1704 H   0  0  0  0  0  0  0  0  0  0  0  0
   -3.7423   60.4844   79.3725 C   0  0  0  0  0  0  0  0  0  0  0  0
   -3.4085   59.1687   80.0645 C   0  0  0  0  0  0  0  0  0  0  0  0
   -2.3112   60.9428   76.6572 C   0  0  0  0  0  0  0  0  0  0  0  0
   -1.6739   59.5829   76.4097 C   0  0  0  0  0  0  0  0  0  0  0  0
   -0.1148   62.2685   85.1231 N   0  0  0  0  0  0  0  0  0  0  0  0
    0.7940   61.9733   85.4860 H   0  0  0  0  0  0  0  0  0  0  0  0
   -1.0515   62.8392   86.4154 S   0  0  0  0  0  0  0  0  0  0  0  0
   -0.9456   61.4788   87.5579 C   0  0  0  0  0  0  0  0  0  0  0  0
   -2.4246   63.0088   85.9967 O   0  0  0  0  0  0  0  0  0  0  0  0
   -0.2947   63.9410   86.9721 O   0  0  0  0  0  0  0  0  0  0  0  0
   -0.1483   65.4549   80.5135 O   0  0  0  0  0  0  0  0  0  0  0  0
    0.9906   66.2578   80.1919 C   0  0  0  0  0  0  0  0  0  0  0  0
    1.5669   68.6452   80.7633 C   0  0  0  0  0  0  0  0  0  0  0  0
    0.5330   67.7130   80.1581 C   0  0  0  0  0  0  0  0  0  0  0  0
 27 28  1  0  0  0
 28 26  1  0  0  0
 26 25  1  0  0  0
 25  1  1  0  0  0
  1  2  1  0  0  0
  2  3  2  0  0  0
  3  4  1  0  0  0
  4 19  1  0  0  0
 19 21  1  0  0  0
 21 22  1  0  0  0
 21 23  2  0  0  0
 21 24  2  0  0  0
  4  5  2  0  0  0
  5  6  1  0  0  0
  6  7  1  0  0  0
  7  8  2  0  0  0
  8  9  1  0  0  0
  9 15  1  0  0  0
 15 16  1  0  0  0
  9 10  2  0  0  0
 10 17  1  0  0  0
 17 18  1  0  0  0
 10 11  1  0  0  0
 11 12  2  0  0  0
 11 13  1  0  0  0
  6  1  2  0  0  0
 13  7  1  0  0  0
 19 20  1  0  0  0
 13 14  1  0  0  0
M  END
> <minimizedAffinity>
-1.24740

$$$$



 28 29  0  0  0  0  0  0  0  0999 V2000
   -0.0719   64.4903   81.6561 C   0  0  0  0  0  0  0  0  0  0  0  0
    0.4380   65.0077   82.8562 C   0  0  0  0  0  0  0  0  0  0  0  0
    0.4353   64.2411   84.0247 C   0  0  0  0  0  0  0  0  0  0  0  0
   -0.0658   62.9451   84.0021 C   0  0  0  0  0  0  0  0  0  0  0  0
   -0.5842   62.4177   82.8243 C   0  0  0  0  0  0  0  0  0  0  0  0
   -0.5897   63.1755   81.6384 C   0  0  0  0  0  0  0  0  0  0  0  0
   -1.1671   62.5082   80.4225 C   0  0  0  0  0  0  0  0  0  0  0  0
   -0.8196   62.8871   79.2329 N   0  0  0  0  0  0  0  0  0  0  0  0
   -1.3723   62.2546   78.1392 C   0  0  0  0  0  0  0  0  0  0  0  0
   -2.2616   61.2432   78.2258 C   0  0  0  0  0  0  0  0  0  0  0  0
   -2.6564   60.8185   79.5939 C   0  0  0  0  0  0  0  0  0  0  0  0
   -3.4633   59.9178   79.8006 O   0  0  0  0  0  0  0  0  0  0  0  0
   -2.0666   61.4972   80.6132 N   0  0  0  0  0  0  0  0  0  0  0  0
   -2.3241   61.2153   81.5500 H   0  0  0  0  0  0  0  0  0  0  0  0
   -0.8687   62.8157   76.8224 C   0  0  0  0  0  0  0  0  0  0  0  0
   -1.6350   64.0652   76.4072 C   0  0  0  0  0  0  0  0  0  0  0  0
   -2.8937   60.4796   77.0929 C   0  0  0  0  0  0  0  0  0  0  0  0
   -1.9966   59.3566   76.5923 C   0  0  0  0  0  0  0  0  0  0  0  0
   -0.1255   62.1823   85.2038 N   0  0  0  0  0  0  0  0  0  0  0  0
    0.7782   61.9100   85.5962 H   0  0  0  0  0  0  0  0  0  0  0  0
   -1.0928   62.7952   86.4534 S   0  0  0  0  0  0  0  0  0  0  0  0
   -0.9874   61.4883   87.6569 C   0  0  0  0  0  0  0  0  0  0  0  0
   -2.4606   62.9253   86.0045 O   0  0  0  0  0  0  0  0  0  0  0  0
   -0.3619   63.9319   86.9734 O   0  0  0  0  0  0  0  0  0  0  0  0
   -0.0917   65.1984   80.4811 O   0  0  0  0  0  0  0  0  0  0  0  0
    0.9444   66.1561   80.2471 C   0  0  0  0  0  0  0  0  0  0  0  0
    1.2789   68.6464   80.4584 C   0  0  0  0  0  0  0  0  0  0  0  0
    0.2898   67.5321   80.1681 C   0  0  0  0  0  0  0  0  0  0  0  0
 27 28  1  0  0  0
 28 26  1  0  0  0
 26 25  1  0  0  0
 25  1  1  0  0  0
  1  2  1  0  0  0
  2  3  2  0  0  0
  3  4  1  0  0  0
  4 19  1  0  0  0
 19 21  1  0  0  0
 21 22  1  0  0  0
 21 23  2  0  0  0
 21 24  2  0  0  0
  4  5  2  0  0  0
  5  6  1  0  0  0
  6  7  1  0  0  0
  7  8  2  0  0  0
  8  9  1  0  0  0
  9 15  1  0  0  0
 15 16  1  0  0  0
  9 10  2  0  0  0
 10 17  1  0  0  0
 17 18  1  0  0  0
 10 11  1  0  0  0
 11 12  2  0  0  0
 11 13  1  0  0  0
  6  1  2  0  0  0
 13  7  1  0  0  0
 19 20  1  0  0  0
 13 14  1  0  0  0
M  END
> <minimizedAffinity>
-1.23258

$$$$



 28 29  0  0  0  0  0  0  0  0999 V2000
   -0.2214   64.7420   80.4226 C   0  0  0  0  0  0  0  0  0  0  0  0
   -0.0907   64.7134   79.0262 C   0  0  0  0  0  0  0  0  0  0  0  0
   -0.2355   63.5174   78.3178 C   0  0  0  0  0  0  0  0  0  0  0  0
   -0.5246   62.3402   78.9975 C   0  0  0  0  0  0  0  0  0  0  0  0
   -0.6487   62.3464   80.3827 C   0  0  0  0  0  0  0  0  0  0  0  0
   -0.5058   63.5415   81.1119 C   0  0  0  0  0  0  0  0  0  0  0  0
   -0.6652   63.4372   82.6022 C   0  0  0  0  0  0  0  0  0  0  0  0
    0.1846   64.0048   83.3991 N   0  0  0  0  0  0  0  0  0  0  0  0
    0.0095   63.8855   84.7617 C   0  0  0  0  0  0  0  0  0  0  0  0
   -1.0109   63.2112   85.3322 C   0  0  0  0  0  0  0  0  0  0  0  0
   -1.9779   62.5610   84.4102 C   0  0  0  0  0  0  0  0  0  0  0  0
   -2.9399   61.9126   84.8092 O   0  0  0  0  0  0  0  0  0  0  0  0
   -1.7279   62.7261   83.0844 N   0  0  0  0  0  0  0  0  0  0  0  0
   -2.3810   62.2913   82.4458 H   0  0  0  0  0  0  0  0  0  0  0  0
    1.0878   64.5998   85.5551 C   0  0  0  0  0  0  0  0  0  0  0  0
    1.9786   65.4538   84.6617 C   0  0  0  0  0  0  0  0  0  0  0  0
   -1.2955   63.0516   86.8018 C   0  0  0  0  0  0  0  0  0  0  0  0
   -0.7250   61.7534   87.3548 C   0  0  0  0  0  0  0  0  0  0  0  0
   -0.6133   61.1091   78.2860 N   0  0  0  0  0  0  0  0  0  0  0  0
   -0.2404   60.2922   78.7742 H   0  0  0  0  0  0  0  0  0  0  0  0
   -2.1268   60.7055   77.6385 S   0  0  0  0  0  0  0  0  0  0  0  0
   -1.7300   59.2546   76.6872 C   0  0  0  0  0  0  0  0  0  0  0  0
   -2.5825   61.7516   76.7512 O   0  0  0  0  0  0  0  0  0  0  0  0
   -2.9221   60.2838   78.7728 O   0  0  0  0  0  0  0  0  0  0  0  0
   -0.0911   65.8877   81.1661 O   0  0  0  0  0  0  0  0  0  0  0  0
    0.1823   67.1139   80.4828 C   0  0  0  0  0  0  0  0  0  0  0  0
    1.4701   69.2195   80.9988 C   0  0  0  0  0  0  0  0  0  0  0  0
    1.4528   67.7042   81.0872 C   0  0  0  0  0  0  0  0  0  0  0  0
 27 28  1  0  0  0
 28 26  1  0  0  0
 26 25  1  0  0  0
 25  1  1  0  0  0
  1  2  1  0  0  0
  2  3  2  0  0  0
  3  4  1  0  0  0
  4 19  1  0  0  0
 19 21  1  0  0  0
 21 22  1  0  0  0
 21 23  2  0  0  0
 21 24  2  0  0  0
  4  5  2  0  0  0
  5  6  1  0  0  0
  6  7  1  0  0  0
  7  8  2  0  0  0
  8  9  1  0  0  0
  9 15  1  0  0  0
 15 16  1  0  0  0
  9 10  2  0  0  0
 10 17  1  0  0  0
 17 18  1  0  0  0
 10 11  1  0  0  0
 11 12  2  0  0  0
 11 13  1  0  0  0
  6  1  2  0  0  0
 13  7  1  0  0  0
 19 20  1  0  0  0
 13 14  1  0  0  0
M  END
> <minimizedAffinity>
-1.22749

$$$$



 28 29  0  0  0  0  0  0  0  0999 V2000
   -0.3151   63.1264   82.9426 C   0  0  0  0  0  0  0  0  0  0  0  0
   -0.7470   61.8109   82.7169 C   0  0  0  0  0  0  0  0  0  0  0  0
   -0.7360   61.2644   81.4307 C   0  0  0  0  0  0  0  0  0  0  0  0
   -0.2815   62.0236   80.3592 C   0  0  0  0  0  0  0  0  0  0  0  0
    0.1419   63.3328   80.5610 C   0  0  0  0  0  0  0  0  0  0  0  0
    0.1374   63.8993   81.8493 C   0  0  0  0  0  0  0  0  0  0  0  0
    0.6203   65.3179   81.9565 C   0  0  0  0  0  0  0  0  0  0  0  0
    0.1653   66.2330   81.1596 N   0  0  0  0  0  0  0  0  0  0  0  0
    0.6336   67.5241   81.2839 C   0  0  0  0  0  0  0  0  0  0  0  0
    1.5451   67.9079   82.2021 C   0  0  0  0  0  0  0  0  0  0  0  0
    2.0633   66.8508   83.1087 C   0  0  0  0  0  0  0  0  0  0  0  0
    2.9010   67.0749   83.9765 O   0  0  0  0  0  0  0  0  0  0  0  0
    1.5509   65.6069   82.9146 N   0  0  0  0  0  0  0  0  0  0  0  0
    1.8929   64.8787   83.5279 H   0  0  0  0  0  0  0  0  0  0  0  0
    0.0089   68.4726   80.2777 C   0  0  0  0  0  0  0  0  0  0  0  0
   -1.0780   67.7924   79.4548 C   0  0  0  0  0  0  0  0  0  0  0  0
    2.0914   69.2924   82.4275 C   0  0  0  0  0  0  0  0  0  0  0  0
    3.2436   69.6106   81.4853 C   0  0  0  0  0  0  0  0  0  0  0  0
   -0.3251   61.4912   79.0384 N   0  0  0  0  0  0  0  0  0  0  0  0
    0.2588   60.6678   78.8777 H   0  0  0  0  0  0  0  0  0  0  0  0
   -1.8594   61.2008   78.3794 S   0  0  0  0  0  0  0  0  0  0  0  0
   -1.5840   61.5751   76.6614 C   0  0  0  0  0  0  0  0  0  0  0  0
   -2.8193   62.1331   78.9260 O   0  0  0  0  0  0  0  0  0  0  0  0
   -2.0538   59.7703   78.4921 O   0  0  0  0  0  0  0  0  0  0  0  0
   -0.3034   63.7108   84.1838 O   0  0  0  0  0  0  0  0  0  0  0  0
   -0.9842   63.0488   85.2532 C   0  0  0  0  0  0  0  0  0  0  0  0
   -0.7388   62.5162   87.7056 C   0  0  0  0  0  0  0  0  0  0  0  0
   -0.1995   63.3167   86.5341 C   0  0  0  0  0  0  0  0  0  0  0  0
 27 28  1  0  0  0
 28 26  1  0  0  0
 26 25  1  0  0  0
 25  1  1  0  0  0
  1  2  1  0  0  0
  2  3  2  0  0  0
  3  4  1  0  0  0
  4 19  1  0  0  0
 19 21  1  0  0  0
 21 22  1  0  0  0
 21 23  2  0  0  0
 21 24  2  0  0  0
  4  5  2  0  0  0
  5  6  1  0  0  0
  6  7  1  0  0  0
  7  8  2  0  0  0
  8  9  1  0  0  0
  9 15  1  0  0  0
 15 16  1  0  0  0
  9 10  2  0  0  0
 10 17  1  0  0  0
 17 18  1  0  0  0
 10 11  1  0  0  0
 11 12  2  0  0  0
 11 13  1  0  0  0
  6  1  2  0  0  0
 13  7  1  0  0  0
 19 20  1  0  0  0
 13 14  1  0  0  0
M  END
> <minimizedAffinity>
-1.16901

$$$$



 28 29  0  0  0  0  0  0  0  0999 V2000
    2.3535   67.7540   82.7177 C   0  0  0  0  0  0  0  0  0  0  0  0
    1.8575   66.4500   82.8647 C   0  0  0  0  0  0  0  0  0  0  0  0
    0.9312   65.9297   81.9567 C   0  0  0  0  0  0  0  0  0  0  0  0
    0.5011   66.7036   80.8856 C   0  0  0  0  0  0  0  0  0  0  0  0
    0.9741   68.0019   80.7280 C   0  0  0  0  0  0  0  0  0  0  0  0
    1.9068   68.5420   81.6330 C   0  0  0  0  0  0  0  0  0  0  0  0
    2.3564   69.9507   81.3670 C   0  0  0  0  0  0  0  0  0  0  0  0
    1.6069   70.9564   81.6931 N   0  0  0  0  0  0  0  0  0  0  0  0
    2.0497   72.2357   81.4309 C   0  0  0  0  0  0  0  0  0  0  0  0
    3.2368   72.5168   80.8538 C   0  0  0  0  0  0  0  0  0  0  0  0
    4.0873   71.3570   80.4804 C   0  0  0  0  0  0  0  0  0  0  0  0
    5.1819   71.4847   79.9414 O   0  0  0  0  0  0  0  0  0  0  0  0
    3.5728   70.1330   80.7714 N   0  0  0  0  0  0  0  0  0  0  0  0
    4.1436   69.3348   80.5254 H   0  0  0  0  0  0  0  0  0  0  0  0
    1.0584   73.2988   81.8663 C   0  0  0  0  0  0  0  0  0  0  0  0
   -0.1894   73.3040   80.9922 C   0  0  0  0  0  0  0  0  0  0  0  0
    3.8115   73.8757   80.5553 C   0  0  0  0  0  0  0  0  0  0  0  0
    4.5736   74.4454   81.7432 C   0  0  0  0  0  0  0  0  0  0  0  0
   -0.4876   66.1990   79.9926 N   0  0  0  0  0  0  0  0  0  0  0  0
   -1.0562   66.9063   79.5222 H   0  0  0  0  0  0  0  0  0  0  0  0
    0.0264   65.0672   78.8403 S   0  0  0  0  0  0  0  0  0  0  0  0
   -0.4782   63.5372   79.5966 C   0  0  0  0  0  0  0  0  0  0  0  0
    1.4670   65.0940   78.7260 O   0  0  0  0  0  0  0  0  0  0  0  0
   -0.8226   65.2893   77.6885 O   0  0  0  0  0  0  0  0  0  0  0  0
    3.2645   68.3127   83.5782 O   0  0  0  0  0  0  0  0  0  0  0  0
    3.7940   67.4999   84.6290 C   0  0  0  0  0  0  0  0  0  0  0  0
    5.9618   66.9424   85.7900 C   0  0  0  0  0  0  0  0  0  0  0  0
    5.3038   67.7175   84.6629 C   0  0  0  0  0  0  0  0  0  0  0  0
 27 28  1  0  0  0
 28 26  1  0  0  0
 26 25  1  0  0  0
 25  1  1  0  0  0
  1  2  1  0  0  0
  2  3  2  0  0  0
  3  4  1  0  0  0
  4 19  1  0  0  0
 19 21  1  0  0  0
 21 22  1  0  0  0
 21 23  2  0  0  0
 21 24  2  0  0  0
  4  5  2  0  0  0
  5  6  1  0  0  0
  6  7  1  0  0  0
  7  8  2  0  0  0
  8  9  1  0  0  0
  9 15  1  0  0  0
 15 16  1  0  0  0
  9 10  2  0  0  0
 10 17  1  0  0  0
 17 18  1  0  0  0
 10 11  1  0  0  0
 11 12  2  0  0  0
 11 13  1  0  0  0
  6  1  2  0  0  0
 13  7  1  0  0  0
 19 20  1  0  0  0
 13 14  1  0  0  0
M  END
> <minimizedAffinity>
-1.16841

$$$$



 28 29  0  0  0  0  0  0  0  0999 V2000
    1.6610   74.4800   81.3102 C   0  0  0  0  0  0  0  0  0  0  0  0
    0.4690   73.7412   81.3472 C   0  0  0  0  0  0  0  0  0  0  0  0
    0.4749   72.3899   81.7036 C   0  0  0  0  0  0  0  0  0  0  0  0
    1.6711   71.7669   82.0385 C   0  0  0  0  0  0  0  0  0  0  0  0
    2.8645   72.4798   81.9987 C   0  0  0  0  0  0  0  0  0  0  0  0
    2.8772   73.8411   81.6419 C   0  0  0  0  0  0  0  0  0  0  0  0
    4.2187   74.5174   81.6367 C   0  0  0  0  0  0  0  0  0  0  0  0
    4.9795   74.4686   80.5887 N   0  0  0  0  0  0  0  0  0  0  0  0
    6.2062   75.0977   80.6204 C   0  0  0  0  0  0  0  0  0  0  0  0
    6.6734   75.7804   81.6867 C   0  0  0  0  0  0  0  0  0  0  0  0
    5.7955   75.8276   82.8845 C   0  0  0  0  0  0  0  0  0  0  0  0
    6.1144   76.4085   83.9169 O   0  0  0  0  0  0  0  0  0  0  0  0
    4.6069   75.1785   82.7680 N   0  0  0  0  0  0  0  0  0  0  0  0
    3.9981   75.2061   83.5755 H   0  0  0  0  0  0  0  0  0  0  0  0
    6.9762   74.9444   79.3220 C   0  0  0  0  0  0  0  0  0  0  0  0
    6.4378   73.7987   78.4742 C   0  0  0  0  0  0  0  0  0  0  0  0
    7.9812   76.5171   81.8014 C   0  0  0  0  0  0  0  0  0  0  0  0
    7.8671   77.9580   81.3243 C   0  0  0  0  0  0  0  0  0  0  0  0
    1.6895   70.3754   82.3438 N   0  0  0  0  0  0  0  0  0  0  0  0
    0.9610   70.0574   82.9863 H   0  0  0  0  0  0  0  0  0  0  0  0
    1.7567   69.3038   81.0323 S   0  0  0  0  0  0  0  0  0  0  0  0
    2.1234   67.7659   81.8496 C   0  0  0  0  0  0  0  0  0  0  0  0
    2.8527   69.6564   80.1584 O   0  0  0  0  0  0  0  0  0  0  0  0
    0.3977   69.2263   80.5385 O   0  0  0  0  0  0  0  0  0  0  0  0
    1.7116   75.8080   80.9695 O   0  0  0  0  0  0  0  0  0  0  0  0
    0.6130   76.6464   81.3377 C   0  0  0  0  0  0  0  0  0  0  0  0
    0.0643   78.0246   83.3767 C   0  0  0  0  0  0  0  0  0  0  0  0
    1.1277   77.6580   82.3574 C   0  0  0  0  0  0  0  0  0  0  0  0
 27 28  1  0  0  0
 28 26  1  0  0  0
 26 25  1  0  0  0
 25  1  1  0  0  0
  1  2  1  0  0  0
  2  3  2  0  0  0
  3  4  1  0  0  0
  4 19  1  0  0  0
 19 21  1  0  0  0
 21 22  1  0  0  0
 21 23  2  0  0  0
 21 24  2  0  0  0
  4  5  2  0  0  0
  5  6  1  0  0  0
  6  7  1  0  0  0
  7  8  2  0  0  0
  8  9  1  0  0  0
  9 15  1  0  0  0
 15 16  1  0  0  0
  9 10  2  0  0  0
 10 17  1  0  0  0
 17 18  1  0  0  0
 10 11  1  0  0  0
 11 12  2  0  0  0
 11 13  1  0  0  0
  6  1  2  0  0  0
 13  7  1  0  0  0
 19 20  1  0  0  0
 13 14  1  0  0  0
M  END
> <minimizedAffinity>
-1.15261

$$$$



 28 29  0  0  0  0  0  0  0  0999 V2000
    1.3024   74.4333   81.0130 C   0  0  0  0  0  0  0  0  0  0  0  0
    0.1742   73.6078   80.8966 C   0  0  0  0  0  0  0  0  0  0  0  0
    0.2076   72.2829   81.3402 C   0  0  0  0  0  0  0  0  0  0  0  0
    1.3656   71.7739   81.9157 C   0  0  0  0  0  0  0  0  0  0  0  0
    2.4974   72.5738   82.0313 C   0  0  0  0  0  0  0  0  0  0  0  0
    2.4816   73.9100   81.5898 C   0  0  0  0  0  0  0  0  0  0  0  0
    3.7553   74.6867   81.7672 C   0  0  0  0  0  0  0  0  0  0  0  0
    3.9209   75.4591   82.7945 N   0  0  0  0  0  0  0  0  0  0  0  0
    5.1014   76.1600   82.9235 C   0  0  0  0  0  0  0  0  0  0  0  0
    6.1185   76.0885   82.0393 C   0  0  0  0  0  0  0  0  0  0  0  0
    5.9177   75.2030   80.8631 C   0  0  0  0  0  0  0  0  0  0  0  0
    6.7651   75.0632   79.9872 O   0  0  0  0  0  0  0  0  0  0  0  0
    4.7249   74.5532   80.8134 N   0  0  0  0  0  0  0  0  0  0  0  0
    4.5770   73.9442   80.0193 H   0  0  0  0  0  0  0  0  0  0  0  0
    5.1377   77.0204   84.1728 C   0  0  0  0  0  0  0  0  0  0  0  0
    3.7386   77.3965   84.6443 C   0  0  0  0  0  0  0  0  0  0  0  0
    7.4469   76.7928   82.1121 C   0  0  0  0  0  0  0  0  0  0  0  0
    8.4791   75.9838   82.8846 C   0  0  0  0  0  0  0  0  0  0  0  0
    1.4230   70.4072   82.3139 N   0  0  0  0  0  0  0  0  0  0  0  0
    0.6538   70.0906   82.9080 H   0  0  0  0  0  0  0  0  0  0  0  0
    1.6644   69.2614   81.0885 S   0  0  0  0  0  0  0  0  0  0  0  0
    2.1235   67.8242   82.0326 C   0  0  0  0  0  0  0  0  0  0  0  0
    2.7720   69.6581   80.2488 O   0  0  0  0  0  0  0  0  0  0  0  0
    0.3492   69.0208   80.5326 O   0  0  0  0  0  0  0  0  0  0  0  0
    1.3232   75.7403   80.5961 O   0  0  0  0  0  0  0  0  0  0  0  0
    0.1999   76.2382   79.8642 C   0  0  0  0  0  0  0  0  0  0  0  0
   -0.7969   78.3838   80.7364 C   0  0  0  0  0  0  0  0  0  0  0  0
    0.2844   77.7616   79.8717 C   0  0  0  0  0  0  0  0  0  0  0  0
 27 28  1  0  0  0
 28 26  1  0  0  0
 26 25  1  0  0  0
 25  1  1  0  0  0
  1  2  1  0  0  0
  2  3  2  0  0  0
  3  4  1  0  0  0
  4 19  1  0  0  0
 19 21  1  0  0  0
 21 22  1  0  0  0
 21 23  2  0  0  0
 21 24  2  0  0  0
  4  5  2  0  0  0
  5  6  1  0  0  0
  6  7  1  0  0  0
  7  8  2  0  0  0
  8  9  1  0  0  0
  9 15  1  0  0  0
 15 16  1  0  0  0
  9 10  2  0  0  0
 10 17  1  0  0  0
 17 18  1  0  0  0
 10 11  1  0  0  0
 11 12  2  0  0  0
 11 13  1  0  0  0
  6  1  2  0  0  0
 13  7  1  0  0  0
 19 20  1  0  0  0
 13 14  1  0  0  0
M  END
> <minimizedAffinity>
-1.14348

$$$$
