


 38 41  0  0  0  0  0  0  0  0999 V2000
    2.2806   67.1140   83.3624 C   0  0  0  0  0  0  0  0  0  0  0  0
    1.8212   68.0488   82.4178 C   0  0  0  0  0  0  0  0  0  0  0  0
    2.5935   69.1655   82.0981 C   0  0  0  0  0  0  0  0  0  0  0  0
    3.7985   69.3995   82.7572 C   0  0  0  0  0  0  0  0  0  0  0  0
    4.2535   68.4875   83.7132 C   0  0  0  0  0  0  0  0  0  0  0  0
    3.5133   67.3349   84.0167 C   0  0  0  0  0  0  0  0  0  0  0  0
   -0.3942   63.1640   82.0439 C   0  0  0  0  0  0  0  0  0  0  0  0
   -1.0739   62.2597   82.7745 N   0  0  0  0  0  0  0  0  0  0  0  0
   -0.8843   62.6624   84.0564 N   0  0  0  0  0  0  0  0  0  0  0  0
   -1.4855   61.9234   85.1401 C   0  0  0  0  0  0  0  0  0  0  0  0
   -0.1084   63.7743   84.1560 C   0  0  0  0  0  0  0  0  0  0  0  0
    0.3339   64.5131   85.2804 C   0  0  0  0  0  0  0  0  0  0  0  0
    0.0974   64.2471   86.4526 O   0  0  0  0  0  0  0  0  0  0  0  0
    1.0937   65.5945   84.8978 N   0  0  0  0  0  0  0  0  0  0  0  0
    1.4178   65.9025   83.5807 C   0  0  0  0  0  0  0  0  0  0  0  0
    1.0151   65.2095   82.5489 N   0  0  0  0  0  0  0  0  0  0  0  0
    0.2187   64.1123   82.8780 C   0  0  0  0  0  0  0  0  0  0  0  0
    1.4741   66.1550   85.6497 H   0  0  0  0  0  0  0  0  0  0  0  0
   -0.3597   63.0801   80.5575 C   0  0  0  0  0  0  0  0  0  0  0  0
   -1.0972   61.8022   78.5139 C   0  0  0  0  0  0  0  0  0  0  0  0
   -1.2127   61.9282   80.0246 C   0  0  0  0  0  0  0  0  0  0  0  0
    2.0061   70.3220   80.8765 S   0  0  0  0  0  0  0  0  0  0  0  0
    0.6619   69.9207   80.5182 O   0  0  0  0  0  0  0  0  0  0  0  0
    3.0407   70.4501   79.8731 O   0  0  0  0  0  0  0  0  0  0  0  0
    1.9074   71.7761   81.7459 N   0  0  0  0  0  0  0  0  0  0  0  0
    0.5743   72.3500   82.0273 C   0  0  0  0  0  0  0  0  0  0  0  0
    0.3900   73.6927   81.3347 C   0  0  0  0  0  0  0  0  0  0  0  0
    1.4670   74.7139   81.7324 C   0  0  0  0  0  0  0  0  0  0  0  0
    2.7190   74.0390   82.3097 C   0  0  0  0  0  0  0  0  0  0  0  0
    3.0240   72.7353   81.5814 C   0  0  0  0  0  0  0  0  0  0  0  0
    1.8162   75.5742   80.5246 C   0  0  0  0  0  0  0  0  0  0  0  0
    0.7883   75.7868   79.6537 N   0  0  0  0  0  0  0  0  0  0  0  0
    2.9298   76.0340   80.3021 O   0  0  0  0  0  0  0  0  0  0  0  0
    0.9661   76.3983   78.8667 H   0  0  0  0  0  0  0  0  0  0  0  0
   -0.1723   75.5608   79.8722 H   0  0  0  0  0  0  0  0  0  0  0  0
    3.9194   66.4006   84.9357 O   0  0  0  0  0  0  0  0  0  0  0  0
    5.3191   66.1319   85.0467 C   0  0  0  0  0  0  0  0  0  0  0  0
    5.7166   66.3458   86.4962 C   0  0  0  0  0  0  0  0  0  0  0  0
 20 21  1  0  0  0
 21 19  1  0  0  0
 19  7  1  0  0  0
  7  8  2  0  0  0
  8  9  1  0  0  0
  9 10  1  0  0  0
  9 11  1  0  0  0
 11 12  1  0  0  0
 12 13  2  0  0  0
 12 14  1  0  0  0
 14 15  1  0  0  0
 15  1  1  0  0  0
  1  2  1  0  0  0
  2  3  2  0  0  0
  3 22  1  0  0  0
 22 23  2  0  0  0
 22 24  2  0  0  0
 22 25  1  0  0  0
 25 26  1  0  0  0
 26 27  1  0  0  0
 27 28  1  0  0  0
 28 31  1  0  0  0
 31 32  1  0  0  0
 31 33  2  0  0  0
 28 29  1  0  0  0
 29 30  1  0  0  0
  3  4  1  0  0  0
  4  5  2  0  0  0
  5  6  1  0  0  0
  6 36  1  0  0  0
 36 37  1  0  0  0
 37 38  1  0  0  0
 15 16  2  0  0  0
 16 17  1  0  0  0
 17  7  1  0  0  0
 17 11  2  0  0  0
  6  1  2  0  0  0
 30 25  1  0  0  0
 14 18  1  0  0  0
 32 34  1  0  0  0
 32 35  1  0  0  0
M  END
> <minimizedAffinity>
-1.64701

$$$$



 38 41  0  0  0  0  0  0  0  0999 V2000
    1.9465   68.7874   81.6533 C   0  0  0  0  0  0  0  0  0  0  0  0
    1.3061   68.0524   80.6401 C   0  0  0  0  0  0  0  0  0  0  0  0
    1.1506   66.6715   80.7619 C   0  0  0  0  0  0  0  0  0  0  0  0
    1.6840   65.9976   81.8585 C   0  0  0  0  0  0  0  0  0  0  0  0
    2.3412   66.7165   82.8605 C   0  0  0  0  0  0  0  0  0  0  0  0
    2.4687   68.1113   82.7788 C   0  0  0  0  0  0  0  0  0  0  0  0
    3.9901   73.1432   80.4932 C   0  0  0  0  0  0  0  0  0  0  0  0
    3.4971   74.3962   80.5135 N   0  0  0  0  0  0  0  0  0  0  0  0
    2.2235   74.2418   80.9553 N   0  0  0  0  0  0  0  0  0  0  0  0
    1.3720   75.3956   81.1165 C   0  0  0  0  0  0  0  0  0  0  0  0
    1.8993   72.9450   81.2031 C   0  0  0  0  0  0  0  0  0  0  0  0
    0.7004   72.3483   81.6638 C   0  0  0  0  0  0  0  0  0  0  0  0
   -0.3435   72.9372   81.9171 O   0  0  0  0  0  0  0  0  0  0  0  0
    0.8393   70.9853   81.7900 N   0  0  0  0  0  0  0  0  0  0  0  0
    1.9944   70.2789   81.4712 C   0  0  0  0  0  0  0  0  0  0  0  0
    3.0934   70.8353   81.0360 N   0  0  0  0  0  0  0  0  0  0  0  0
    3.0165   72.2228   80.9119 C   0  0  0  0  0  0  0  0  0  0  0  0
    0.0121   70.4826   82.0850 H   0  0  0  0  0  0  0  0  0  0  0  0
    5.3920   72.8769   80.0671 C   0  0  0  0  0  0  0  0  0  0  0  0
    7.0248   73.8829   78.4316 C   0  0  0  0  0  0  0  0  0  0  0  0
    6.1098   74.1496   79.6160 C   0  0  0  0  0  0  0  0  0  0  0  0
    0.3095   65.7635   79.4801 S   0  0  0  0  0  0  0  0  0  0  0  0
    1.2452   65.5986   78.3876 O   0  0  0  0  0  0  0  0  0  0  0  0
   -0.9746   66.3982   79.2755 O   0  0  0  0  0  0  0  0  0  0  0  0
    0.0587   64.2438   80.1927 N   0  0  0  0  0  0  0  0  0  0  0  0
    0.5080   63.0345   79.4705 C   0  0  0  0  0  0  0  0  0  0  0  0
   -0.6679   62.1479   79.0863 C   0  0  0  0  0  0  0  0  0  0  0  0
   -1.5062   61.7211   80.3013 C   0  0  0  0  0  0  0  0  0  0  0  0
   -1.2915   62.6475   81.5063 C   0  0  0  0  0  0  0  0  0  0  0  0
   -1.1314   64.0967   81.0619 C   0  0  0  0  0  0  0  0  0  0  0  0
   -2.9765   61.6688   79.9058 C   0  0  0  0  0  0  0  0  0  0  0  0
   -3.2085   61.3921   78.5905 N   0  0  0  0  0  0  0  0  0  0  0  0
   -3.9070   61.8816   80.6739 O   0  0  0  0  0  0  0  0  0  0  0  0
   -4.1736   61.2951   78.3003 H   0  0  0  0  0  0  0  0  0  0  0  0
   -2.4883   61.0610   77.9637 H   0  0  0  0  0  0  0  0  0  0  0  0
    3.0916   68.8672   83.7396 O   0  0  0  0  0  0  0  0  0  0  0  0
    3.6712   68.1889   84.8566 C   0  0  0  0  0  0  0  0  0  0  0  0
    5.1450   67.9822   84.5569 C   0  0  0  0  0  0  0  0  0  0  0  0
 20 21  1  0  0  0
 21 19  1  0  0  0
 19  7  1  0  0  0
  7  8  2  0  0  0
  8  9  1  0  0  0
  9 10  1  0  0  0
  9 11  1  0  0  0
 11 12  1  0  0  0
 12 13  2  0  0  0
 12 14  1  0  0  0
 14 15  1  0  0  0
 15  1  1  0  0  0
  1  2  1  0  0  0
  2  3  2  0  0  0
  3 22  1  0  0  0
 22 23  2  0  0  0
 22 24  2  0  0  0
 22 25  1  0  0  0
 25 26  1  0  0  0
 26 27  1  0  0  0
 27 28  1  0  0  0
 28 31  1  0  0  0
 31 32  1  0  0  0
 31 33  2  0  0  0
 28 29  1  0  0  0
 29 30  1  0  0  0
  3  4  1  0  0  0
  4  5  2  0  0  0
  5  6  1  0  0  0
  6 36  1  0  0  0
 36 37  1  0  0  0
 37 38  1  0  0  0
 15 16  2  0  0  0
 16 17  1  0  0  0
 17  7  1  0  0  0
 17 11  2  0  0  0
  6  1  2  0  0  0
 30 25  1  0  0  0
 14 18  1  0  0  0
 32 34  1  0  0  0
 32 35  1  0  0  0
M  END
> <minimizedAffinity>
-1.53815

$$$$



 38 41  0  0  0  0  0  0  0  0999 V2000
    2.1229   66.9671   83.1435 C   0  0  0  0  0  0  0  0  0  0  0  0
    1.7390   67.9595   82.2244 C   0  0  0  0  0  0  0  0  0  0  0  0
    2.5039   69.1164   82.0757 C   0  0  0  0  0  0  0  0  0  0  0  0
    3.6207   69.3297   82.8810 C   0  0  0  0  0  0  0  0  0  0  0  0
    3.9982   68.3590   83.8127 C   0  0  0  0  0  0  0  0  0  0  0  0
    3.2682   67.1684   83.9463 C   0  0  0  0  0  0  0  0  0  0  0  0
   -0.4934   63.3222   85.2327 C   0  0  0  0  0  0  0  0  0  0  0  0
   -1.1565   62.2783   84.6999 N   0  0  0  0  0  0  0  0  0  0  0  0
   -0.9581   62.4093   83.3640 N   0  0  0  0  0  0  0  0  0  0  0  0
   -1.5252   61.4444   82.4533 C   0  0  0  0  0  0  0  0  0  0  0  0
   -0.2066   63.4953   83.0412 C   0  0  0  0  0  0  0  0  0  0  0  0
    0.2286   63.9981   81.7909 C   0  0  0  0  0  0  0  0  0  0  0  0
   -0.0351   63.5208   80.6939 O   0  0  0  0  0  0  0  0  0  0  0  0
    0.9985   65.1275   81.9492 N   0  0  0  0  0  0  0  0  0  0  0  0
    1.2824   65.7211   83.1746 C   0  0  0  0  0  0  0  0  0  0  0  0
    0.8680   65.2575   84.3236 N   0  0  0  0  0  0  0  0  0  0  0  0
    0.1009   64.0965   84.2238 C   0  0  0  0  0  0  0  0  0  0  0  0
    1.3213   65.5650   81.0957 H   0  0  0  0  0  0  0  0  0  0  0  0
   -0.4572   63.5373   86.7059 C   0  0  0  0  0  0  0  0  0  0  0  0
   -0.1265   62.1788   88.8031 C   0  0  0  0  0  0  0  0  0  0  0  0
   -0.8713   62.2865   87.4821 C   0  0  0  0  0  0  0  0  0  0  0  0
    2.0158   70.3478   80.8839 S   0  0  0  0  0  0  0  0  0  0  0  0
    0.6919   69.9919   80.4181 O   0  0  0  0  0  0  0  0  0  0  0  0
    3.1158   70.5096   79.9578 O   0  0  0  0  0  0  0  0  0  0  0  0
    1.8831   71.7548   81.8234 N   0  0  0  0  0  0  0  0  0  0  0  0
    0.5458   72.3496   82.0322 C   0  0  0  0  0  0  0  0  0  0  0  0
    0.4485   73.7324   81.4040 C   0  0  0  0  0  0  0  0  0  0  0  0
    1.5145   74.7002   81.9408 C   0  0  0  0  0  0  0  0  0  0  0  0
    2.7007   73.9603   82.5747 C   0  0  0  0  0  0  0  0  0  0  0  0
    3.0315   72.6899   81.8001 C   0  0  0  0  0  0  0  0  0  0  0  0
    1.9782   75.6146   80.8140 C   0  0  0  0  0  0  0  0  0  0  0  0
    1.3976   75.3749   79.6034 N   0  0  0  0  0  0  0  0  0  0  0  0
    2.8262   76.4900   80.9389 O   0  0  0  0  0  0  0  0  0  0  0  0
    1.6394   75.9968   78.8419 H   0  0  0  0  0  0  0  0  0  0  0  0
    0.5919   74.7756   79.4898 H   0  0  0  0  0  0  0  0  0  0  0  0
    3.6020   66.1770   84.8342 O   0  0  0  0  0  0  0  0  0  0  0  0
    4.9894   65.9116   85.0541 C   0  0  0  0  0  0  0  0  0  0  0  0
    5.2253   65.9019   86.5538 C   0  0  0  0  0  0  0  0  0  0  0  0
 20 21  1  0  0  0
 21 19  1  0  0  0
 19  7  1  0  0  0
  7  8  2  0  0  0
  8  9  1  0  0  0
  9 10  1  0  0  0
  9 11  1  0  0  0
 11 12  1  0  0  0
 12 13  2  0  0  0
 12 14  1  0  0  0
 14 15  1  0  0  0
 15  1  1  0  0  0
  1  2  1  0  0  0
  2  3  2  0  0  0
  3 22  1  0  0  0
 22 23  2  0  0  0
 22 24  2  0  0  0
 22 25  1  0  0  0
 25 26  1  0  0  0
 26 27  1  0  0  0
 27 28  1  0  0  0
 28 31  1  0  0  0
 31 32  1  0  0  0
 31 33  2  0  0  0
 28 29  1  0  0  0
 29 30  1  0  0  0
  3  4  1  0  0  0
  4  5  2  0  0  0
  5  6  1  0  0  0
  6 36  1  0  0  0
 36 37  1  0  0  0
 37 38  1  0  0  0
 15 16  2  0  0  0
 16 17  1  0  0  0
 17  7  1  0  0  0
 17 11  2  0  0  0
  6  1  2  0  0  0
 30 25  1  0  0  0
 14 18  1  0  0  0
 32 34  1  0  0  0
 32 35  1  0  0  0
M  END
> <minimizedAffinity>
-1.53301

$$$$



 38 41  0  0  0  0  0  0  0  0999 V2000
    2.3376   68.5918   81.7324 C   0  0  0  0  0  0  0  0  0  0  0  0
    1.5992   67.8839   80.7677 C   0  0  0  0  0  0  0  0  0  0  0  0
    1.1484   66.5910   81.0342 C   0  0  0  0  0  0  0  0  0  0  0  0
    1.4788   65.9641   82.2338 C   0  0  0  0  0  0  0  0  0  0  0  0
    2.2306   66.6515   83.1903 C   0  0  0  0  0  0  0  0  0  0  0  0
    2.6555   67.9686   82.9601 C   0  0  0  0  0  0  0  0  0  0  0  0
    1.7186   73.4936   81.4423 C   0  0  0  0  0  0  0  0  0  0  0  0
    2.5090   74.4675   80.9522 N   0  0  0  0  0  0  0  0  0  0  0  0
    3.6060   73.8068   80.5036 N   0  0  0  0  0  0  0  0  0  0  0  0
    4.6879   74.5393   79.8912 C   0  0  0  0  0  0  0  0  0  0  0  0
    3.5364   72.4635   80.7012 C   0  0  0  0  0  0  0  0  0  0  0  0
    4.4445   71.4210   80.3944 C   0  0  0  0  0  0  0  0  0  0  0  0
    5.5475   71.5579   79.8792 O   0  0  0  0  0  0  0  0  0  0  0  0
    3.9377   70.1955   80.7611 N   0  0  0  0  0  0  0  0  0  0  0  0
    2.7095   70.0066   81.3862 C   0  0  0  0  0  0  0  0  0  0  0  0
    1.8817   70.9749   81.6762 N   0  0  0  0  0  0  0  0  0  0  0  0
    2.3356   72.2404   81.3034 C   0  0  0  0  0  0  0  0  0  0  0  0
    4.5445   69.4013   80.6025 H   0  0  0  0  0  0  0  0  0  0  0  0
    0.3879   73.8090   82.0317 C   0  0  0  0  0  0  0  0  0  0  0  0
   -0.2056   76.2255   82.4341 C   0  0  0  0  0  0  0  0  0  0  0  0
   -0.2209   75.0790   81.4358 C   0  0  0  0  0  0  0  0  0  0  0  0
    0.1887   65.7230   79.8093 S   0  0  0  0  0  0  0  0  0  0  0  0
    1.0267   65.5695   78.6385 O   0  0  0  0  0  0  0  0  0  0  0  0
   -1.0982   66.3793   79.7269 O   0  0  0  0  0  0  0  0  0  0  0  0
   -0.0246   64.1914   80.5087 N   0  0  0  0  0  0  0  0  0  0  0  0
    0.5272   63.0077   79.8158 C   0  0  0  0  0  0  0  0  0  0  0  0
   -0.5773   62.0625   79.3655 C   0  0  0  0  0  0  0  0  0  0  0  0
   -1.4617   61.5916   80.5305 C   0  0  0  0  0  0  0  0  0  0  0  0
   -1.3651   62.5262   81.7444 C   0  0  0  0  0  0  0  0  0  0  0  0
   -1.2541   63.9823   81.3076 C   0  0  0  0  0  0  0  0  0  0  0  0
   -2.9019   61.4644   80.0504 C   0  0  0  0  0  0  0  0  0  0  0  0
   -3.0427   61.1772   78.7246 N   0  0  0  0  0  0  0  0  0  0  0  0
   -3.8851   61.6286   80.7628 O   0  0  0  0  0  0  0  0  0  0  0  0
   -3.9830   61.0311   78.3791 H   0  0  0  0  0  0  0  0  0  0  0  0
   -2.2713   60.8839   78.1413 H   0  0  0  0  0  0  0  0  0  0  0  0
    3.3834   68.6940   83.8692 O   0  0  0  0  0  0  0  0  0  0  0  0
    3.9564   67.9984   84.9789 C   0  0  0  0  0  0  0  0  0  0  0  0
    5.4338   67.8041   84.6887 C   0  0  0  0  0  0  0  0  0  0  0  0
 20 21  1  0  0  0
 21 19  1  0  0  0
 19  7  1  0  0  0
  7  8  2  0  0  0
  8  9  1  0  0  0
  9 10  1  0  0  0
  9 11  1  0  0  0
 11 12  1  0  0  0
 12 13  2  0  0  0
 12 14  1  0  0  0
 14 15  1  0  0  0
 15  1  1  0  0  0
  1  2  1  0  0  0
  2  3  2  0  0  0
  3 22  1  0  0  0
 22 23  2  0  0  0
 22 24  2  0  0  0
 22 25  1  0  0  0
 25 26  1  0  0  0
 26 27  1  0  0  0
 27 28  1  0  0  0
 28 31  1  0  0  0
 31 32  1  0  0  0
 31 33  2  0  0  0
 28 29  1  0  0  0
 29 30  1  0  0  0
  3  4  1  0  0  0
  4  5  2  0  0  0
  5  6  1  0  0  0
  6 36  1  0  0  0
 36 37  1  0  0  0
 37 38  1  0  0  0
 15 16  2  0  0  0
 16 17  1  0  0  0
 17  7  1  0  0  0
 17 11  2  0  0  0
  6  1  2  0  0  0
 30 25  1  0  0  0
 14 18  1  0  0  0
 32 34  1  0  0  0
 32 35  1  0  0  0
M  END
> <minimizedAffinity>
-1.52136

$$$$



 38 41  0  0  0  0  0  0  0  0999 V2000
    0.5617   65.6551   82.1227 C   0  0  0  0  0  0  0  0  0  0  0  0
    0.4831   66.7572   81.2530 C   0  0  0  0  0  0  0  0  0  0  0  0
    1.2130   67.9163   81.5162 C   0  0  0  0  0  0  0  0  0  0  0  0
    1.9780   68.0176   82.6764 C   0  0  0  0  0  0  0  0  0  0  0  0
    2.0455   66.9356   83.5580 C   0  0  0  0  0  0  0  0  0  0  0  0
    1.3546   65.7446   83.2888 C   0  0  0  0  0  0  0  0  0  0  0  0
   -0.8989   62.0448   79.0686 C   0  0  0  0  0  0  0  0  0  0  0  0
   -1.7439   61.0112   79.2451 N   0  0  0  0  0  0  0  0  0  0  0  0
   -2.1701   61.1493   80.5259 N   0  0  0  0  0  0  0  0  0  0  0  0
   -3.1141   60.2071   81.0766 C   0  0  0  0  0  0  0  0  0  0  0  0
   -1.6200   62.2200   81.1577 C   0  0  0  0  0  0  0  0  0  0  0  0
   -1.7818   62.7193   82.4730 C   0  0  0  0  0  0  0  0  0  0  0  0
   -2.4808   62.2235   83.3483 O   0  0  0  0  0  0  0  0  0  0  0  0
   -1.0329   63.8568   82.6692 N   0  0  0  0  0  0  0  0  0  0  0  0
   -0.1960   64.4229   81.7133 C   0  0  0  0  0  0  0  0  0  0  0  0
   -0.0434   63.9500   80.5050 N   0  0  0  0  0  0  0  0  0  0  0  0
   -0.8002   62.8077   80.2428 C   0  0  0  0  0  0  0  0  0  0  0  0
   -1.0714   64.2559   83.5984 H   0  0  0  0  0  0  0  0  0  0  0  0
   -0.2118   62.2603   77.7651 C   0  0  0  0  0  0  0  0  0  0  0  0
   -1.6086   63.8629   76.4110 C   0  0  0  0  0  0  0  0  0  0  0  0
   -1.2014   62.4117   76.6091 C   0  0  0  0  0  0  0  0  0  0  0  0
    1.1222   69.2902   80.3853 S   0  0  0  0  0  0  0  0  0  0  0  0
   -0.2428   69.3622   79.9076 O   0  0  0  0  0  0  0  0  0  0  0  0
    2.2309   69.1631   79.4643 O   0  0  0  0  0  0  0  0  0  0  0  0
    1.3997   70.6291   81.3905 N   0  0  0  0  0  0  0  0  0  0  0  0
    0.2703   71.5286   81.7085 C   0  0  0  0  0  0  0  0  0  0  0  0
    0.4971   72.9250   81.1472 C   0  0  0  0  0  0  0  0  0  0  0  0
    1.8000   73.5606   81.6565 C   0  0  0  0  0  0  0  0  0  0  0  0
    2.7889   72.5107   82.1820 C   0  0  0  0  0  0  0  0  0  0  0  0
    2.7457   71.2445   81.3347 C   0  0  0  0  0  0  0  0  0  0  0  0
    2.4242   74.3917   80.5427 C   0  0  0  0  0  0  0  0  0  0  0  0
    1.5329   75.0581   79.7542 N   0  0  0  0  0  0  0  0  0  0  0  0
    3.6274   74.4590   80.3216 O   0  0  0  0  0  0  0  0  0  0  0  0
    1.9111   75.6643   79.0369 H   0  0  0  0  0  0  0  0  0  0  0  0
    0.5553   75.1552   79.9913 H   0  0  0  0  0  0  0  0  0  0  0  0
    1.3968   64.6479   84.1122 O   0  0  0  0  0  0  0  0  0  0  0  0
    1.3411   64.8656   85.5240 C   0  0  0  0  0  0  0  0  0  0  0  0
    0.5008   63.7556   86.1293 C   0  0  0  0  0  0  0  0  0  0  0  0
 20 21  1  0  0  0
 21 19  1  0  0  0
 19  7  1  0  0  0
  7  8  2  0  0  0
  8  9  1  0  0  0
  9 10  1  0  0  0
  9 11  1  0  0  0
 11 12  1  0  0  0
 12 13  2  0  0  0
 12 14  1  0  0  0
 14 15  1  0  0  0
 15  1  1  0  0  0
  1  2  1  0  0  0
  2  3  2  0  0  0
  3 22  1  0  0  0
 22 23  2  0  0  0
 22 24  2  0  0  0
 22 25  1  0  0  0
 25 26  1  0  0  0
 26 27  1  0  0  0
 27 28  1  0  0  0
 28 31  1  0  0  0
 31 32  1  0  0  0
 31 33  2  0  0  0
 28 29  1  0  0  0
 29 30  1  0  0  0
  3  4  1  0  0  0
  4  5  2  0  0  0
  5  6  1  0  0  0
  6 36  1  0  0  0
 36 37  1  0  0  0
 37 38  1  0  0  0
 15 16  2  0  0  0
 16 17  1  0  0  0
 17  7  1  0  0  0
 17 11  2  0  0  0
  6  1  2  0  0  0
 30 25  1  0  0  0
 14 18  1  0  0  0
 32 34  1  0  0  0
 32 35  1  0  0  0
M  END
> <minimizedAffinity>
-1.51871

$$$$



 38 41  0  0  0  0  0  0  0  0999 V2000
   -0.1335   64.1329   83.2215 C   0  0  0  0  0  0  0  0  0  0  0  0
   -0.9253   63.5237   82.2321 C   0  0  0  0  0  0  0  0  0  0  0  0
   -1.6810   62.3905   82.5329 C   0  0  0  0  0  0  0  0  0  0  0  0
   -1.6100   61.8134   83.7991 C   0  0  0  0  0  0  0  0  0  0  0  0
   -0.8092   62.3990   84.7832 C   0  0  0  0  0  0  0  0  0  0  0  0
   -0.0764   63.5648   84.5140 C   0  0  0  0  0  0  0  0  0  0  0  0
    3.1623   67.7987   83.6627 C   0  0  0  0  0  0  0  0  0  0  0  0
    3.4254   68.8638   82.8817 N   0  0  0  0  0  0  0  0  0  0  0  0
    2.5410   68.7487   81.8590 N   0  0  0  0  0  0  0  0  0  0  0  0
    2.5208   69.7384   80.8092 C   0  0  0  0  0  0  0  0  0  0  0  0
    1.7439   67.6526   81.9652 C   0  0  0  0  0  0  0  0  0  0  0  0
    0.7093   67.1597   81.1331 C   0  0  0  0  0  0  0  0  0  0  0  0
    0.3375   67.6586   80.0778 O   0  0  0  0  0  0  0  0  0  0  0  0
    0.1557   66.0127   81.6537 N   0  0  0  0  0  0  0  0  0  0  0  0
    0.5805   65.3952   82.8254 C   0  0  0  0  0  0  0  0  0  0  0  0
    1.5434   65.8500   83.5823 N   0  0  0  0  0  0  0  0  0  0  0  0
    2.1259   67.0277   83.1133 C   0  0  0  0  0  0  0  0  0  0  0  0
   -0.5714   65.5815   81.0973 H   0  0  0  0  0  0  0  0  0  0  0  0
    3.9257   67.5611   84.9190 C   0  0  0  0  0  0  0  0  0  0  0  0
    6.0653   66.6946   85.9313 C   0  0  0  0  0  0  0  0  0  0  0  0
    5.3520   67.0820   84.6458 C   0  0  0  0  0  0  0  0  0  0  0  0
   -2.7007   61.6518   81.2722 S   0  0  0  0  0  0  0  0  0  0  0  0
   -3.9382   62.4022   81.2281 O   0  0  0  0  0  0  0  0  0  0  0  0
   -2.7003   60.2231   81.5013 O   0  0  0  0  0  0  0  0  0  0  0  0
   -1.8376   61.9752   79.8472 N   0  0  0  0  0  0  0  0  0  0  0  0
   -2.5539   62.5701   78.6988 C   0  0  0  0  0  0  0  0  0  0  0  0
   -2.5790   61.6223   77.5082 C   0  0  0  0  0  0  0  0  0  0  0  0
   -1.1706   61.2058   77.0565 C   0  0  0  0  0  0  0  0  0  0  0  0
   -0.1243   61.4129   78.1604 C   0  0  0  0  0  0  0  0  0  0  0  0
   -0.7008   61.0798   79.5315 C   0  0  0  0  0  0  0  0  0  0  0  0
   -1.1985   59.7546   76.5935 C   0  0  0  0  0  0  0  0  0  0  0  0
   -2.4454   59.2344   76.4074 N   0  0  0  0  0  0  0  0  0  0  0  0
   -0.2006   59.0656   76.4186 O   0  0  0  0  0  0  0  0  0  0  0  0
   -2.5050   58.2899   76.0478 H   0  0  0  0  0  0  0  0  0  0  0  0
   -3.2807   59.8032   76.3894 H   0  0  0  0  0  0  0  0  0  0  0  0
    0.7141   64.1884   85.4461 O   0  0  0  0  0  0  0  0  0  0  0  0
    0.7582   63.6386   86.7650 C   0  0  0  0  0  0  0  0  0  0  0  0
   -0.4128   64.2114   87.5432 C   0  0  0  0  0  0  0  0  0  0  0  0
 20 21  1  0  0  0
 21 19  1  0  0  0
 19  7  1  0  0  0
  7  8  2  0  0  0
  8  9  1  0  0  0
  9 10  1  0  0  0
  9 11  1  0  0  0
 11 12  1  0  0  0
 12 13  2  0  0  0
 12 14  1  0  0  0
 14 15  1  0  0  0
 15  1  1  0  0  0
  1  2  1  0  0  0
  2  3  2  0  0  0
  3 22  1  0  0  0
 22 23  2  0  0  0
 22 24  2  0  0  0
 22 25  1  0  0  0
 25 26  1  0  0  0
 26 27  1  0  0  0
 27 28  1  0  0  0
 28 31  1  0  0  0
 31 32  1  0  0  0
 31 33  2  0  0  0
 28 29  1  0  0  0
 29 30  1  0  0  0
  3  4  1  0  0  0
  4  5  2  0  0  0
  5  6  1  0  0  0
  6 36  1  0  0  0
 36 37  1  0  0  0
 37 38  1  0  0  0
 15 16  2  0  0  0
 16 17  1  0  0  0
 17  7  1  0  0  0
 17 11  2  0  0  0
  6  1  2  0  0  0
 30 25  1  0  0  0
 14 18  1  0  0  0
 32 34  1  0  0  0
 32 35  1  0  0  0
M  END
> <minimizedAffinity>
-1.50607

$$$$



 38 41  0  0  0  0  0  0  0  0999 V2000
    2.7713   72.4739   81.1622 C   0  0  0  0  0  0  0  0  0  0  0  0
    1.8021   73.4112   81.5609 C   0  0  0  0  0  0  0  0  0  0  0  0
    1.9864   74.7694   81.3017 C   0  0  0  0  0  0  0  0  0  0  0  0
    3.1613   75.2179   80.7019 C   0  0  0  0  0  0  0  0  0  0  0  0
    4.1402   74.2961   80.3213 C   0  0  0  0  0  0  0  0  0  0  0  0
    3.9543   72.9217   80.5325 C   0  0  0  0  0  0  0  0  0  0  0  0
    3.1676   68.0609   83.3677 C   0  0  0  0  0  0  0  0  0  0  0  0
    2.5179   66.8987   83.1661 N   0  0  0  0  0  0  0  0  0  0  0  0
    1.6586   67.1733   82.1525 N   0  0  0  0  0  0  0  0  0  0  0  0
    0.7853   66.1410   81.6487 C   0  0  0  0  0  0  0  0  0  0  0  0
    1.7392   68.4595   81.7197 C   0  0  0  0  0  0  0  0  0  0  0  0
    1.0361   69.1551   80.7061 C   0  0  0  0  0  0  0  0  0  0  0  0
    0.1463   68.6923   80.0026 O   0  0  0  0  0  0  0  0  0  0  0  0
    1.4706   70.4565   80.6023 N   0  0  0  0  0  0  0  0  0  0  0  0
    2.4471   71.0273   81.4118 C   0  0  0  0  0  0  0  0  0  0  0  0
    3.0839   70.3820   82.3525 N   0  0  0  0  0  0  0  0  0  0  0  0
    2.6991   69.0476   82.4860 C   0  0  0  0  0  0  0  0  0  0  0  0
    0.9916   71.0287   79.9187 H   0  0  0  0  0  0  0  0  0  0  0  0
    4.2235   68.1788   84.4111 C   0  0  0  0  0  0  0  0  0  0  0  0
    5.9341   66.9602   85.8046 C   0  0  0  0  0  0  0  0  0  0  0  0
    4.9419   66.8516   84.6578 C   0  0  0  0  0  0  0  0  0  0  0  0
    0.7319   75.9372   81.7889 S   0  0  0  0  0  0  0  0  0  0  0  0
    1.3977   77.0108   82.4963 O   0  0  0  0  0  0  0  0  0  0  0  0
   -0.3386   75.1853   82.4072 O   0  0  0  0  0  0  0  0  0  0  0  0
    0.1823   76.5466   80.3034 N   0  0  0  0  0  0  0  0  0  0  0  0
   -0.3955   77.9068   80.2602 C   0  0  0  0  0  0  0  0  0  0  0  0
   -1.8661   77.8735   79.8695 C   0  0  0  0  0  0  0  0  0  0  0  0
   -2.1007   77.1884   78.5143 C   0  0  0  0  0  0  0  0  0  0  0  0
   -0.9289   76.2810   78.1144 C   0  0  0  0  0  0  0  0  0  0  0  0
   -0.3501   75.5658   79.3296 C   0  0  0  0  0  0  0  0  0  0  0  0
   -3.4069   76.4060   78.5646 C   0  0  0  0  0  0  0  0  0  0  0  0
   -4.3567   76.9256   79.3941 N   0  0  0  0  0  0  0  0  0  0  0  0
   -3.6164   75.3698   77.9452 O   0  0  0  0  0  0  0  0  0  0  0  0
   -5.2579   76.4647   79.4135 H   0  0  0  0  0  0  0  0  0  0  0  0
   -4.2866   77.8490   79.7989 H   0  0  0  0  0  0  0  0  0  0  0  0
    4.8756   71.9730   80.1665 O   0  0  0  0  0  0  0  0  0  0  0  0
    6.1327   72.4205   79.6537 C   0  0  0  0  0  0  0  0  0  0  0  0
    6.2484   71.9288   78.2220 C   0  0  0  0  0  0  0  0  0  0  0  0
 20 21  1  0  0  0
 21 19  1  0  0  0
 19  7  1  0  0  0
  7  8  2  0  0  0
  8  9  1  0  0  0
  9 10  1  0  0  0
  9 11  1  0  0  0
 11 12  1  0  0  0
 12 13  2  0  0  0
 12 14  1  0  0  0
 14 15  1  0  0  0
 15  1  1  0  0  0
  1  2  1  0  0  0
  2  3  2  0  0  0
  3 22  1  0  0  0
 22 23  2  0  0  0
 22 24  2  0  0  0
 22 25  1  0  0  0
 25 26  1  0  0  0
 26 27  1  0  0  0
 27 28  1  0  0  0
 28 31  1  0  0  0
 31 32  1  0  0  0
 31 33  2  0  0  0
 28 29  1  0  0  0
 29 30  1  0  0  0
  3  4  1  0  0  0
  4  5  2  0  0  0
  5  6  1  0  0  0
  6 36  1  0  0  0
 36 37  1  0  0  0
 37 38  1  0  0  0
 15 16  2  0  0  0
 16 17  1  0  0  0
 17  7  1  0  0  0
 17 11  2  0  0  0
  6  1  2  0  0  0
 30 25  1  0  0  0
 14 18  1  0  0  0
 32 34  1  0  0  0
 32 35  1  0  0  0
M  END
> <minimizedAffinity>
-1.46977

$$$$



 38 41  0  0  0  0  0  0  0  0999 V2000
    2.9825   72.4141   81.1683 C   0  0  0  0  0  0  0  0  0  0  0  0
    2.0443   73.3831   81.5653 C   0  0  0  0  0  0  0  0  0  0  0  0
    2.2656   74.7327   81.2907 C   0  0  0  0  0  0  0  0  0  0  0  0
    3.4478   75.1409   80.6767 C   0  0  0  0  0  0  0  0  0  0  0  0
    4.3964   74.1873   80.2975 C   0  0  0  0  0  0  0  0  0  0  0  0
    4.1725   72.8210   80.5243 C   0  0  0  0  0  0  0  0  0  0  0  0
    3.2515   68.0216   83.4331 C   0  0  0  0  0  0  0  0  0  0  0  0
    2.5718   66.8746   83.2438 N   0  0  0  0  0  0  0  0  0  0  0  0
    1.7244   67.1586   82.2228 N   0  0  0  0  0  0  0  0  0  0  0  0
    0.8259   66.1434   81.7287 C   0  0  0  0  0  0  0  0  0  0  0  0
    1.8412   68.4364   81.7736 C   0  0  0  0  0  0  0  0  0  0  0  0
    1.1611   69.1370   80.7478 C   0  0  0  0  0  0  0  0  0  0  0  0
    0.2622   68.6889   80.0464 O   0  0  0  0  0  0  0  0  0  0  0  0
    1.6307   70.4249   80.6289 N   0  0  0  0  0  0  0  0  0  0  0  0
    2.6187   70.9801   81.4353 C   0  0  0  0  0  0  0  0  0  0  0  0
    3.2342   70.3305   82.3873 N   0  0  0  0  0  0  0  0  0  0  0  0
    2.8133   69.0088   82.5365 C   0  0  0  0  0  0  0  0  0  0  0  0
    1.1700   71.0006   79.9358 H   0  0  0  0  0  0  0  0  0  0  0  0
    4.3059   68.1251   84.4796 C   0  0  0  0  0  0  0  0  0  0  0  0
    5.7385   66.7253   86.0097 C   0  0  0  0  0  0  0  0  0  0  0  0
    5.0927   66.8234   84.6369 C   0  0  0  0  0  0  0  0  0  0  0  0
    1.0496   75.9412   81.7762 S   0  0  0  0  0  0  0  0  0  0  0  0
    0.0166   75.2391   82.5085 O   0  0  0  0  0  0  0  0  0  0  0  0
    0.7322   76.7269   80.6034 O   0  0  0  0  0  0  0  0  0  0  0  0
    1.9009   76.9180   82.8723 N   0  0  0  0  0  0  0  0  0  0  0  0
    2.3080   78.2754   82.4509 C   0  0  0  0  0  0  0  0  0  0  0  0
    3.8231   78.4109   82.4019 C   0  0  0  0  0  0  0  0  0  0  0  0
    4.4879   78.0859   83.7486 C   0  0  0  0  0  0  0  0  0  0  0  0
    3.5781   77.2447   84.6547 C   0  0  0  0  0  0  0  0  0  0  0  0
    2.7832   76.2292   83.8422 C   0  0  0  0  0  0  0  0  0  0  0  0
    5.8149   77.3807   83.4983 C   0  0  0  0  0  0  0  0  0  0  0  0
    6.5291   77.8586   82.4392 N   0  0  0  0  0  0  0  0  0  0  0  0
    6.2300   76.4348   84.1570 O   0  0  0  0  0  0  0  0  0  0  0  0
    7.4414   77.4520   82.2737 H   0  0  0  0  0  0  0  0  0  0  0  0
    6.3030   78.7250   81.9704 H   0  0  0  0  0  0  0  0  0  0  0  0
    5.0629   71.8424   80.1605 O   0  0  0  0  0  0  0  0  0  0  0  0
    5.8567   72.0577   78.9913 C   0  0  0  0  0  0  0  0  0  0  0  0
    7.2801   72.3298   79.4435 C   0  0  0  0  0  0  0  0  0  0  0  0
 20 21  1  0  0  0
 21 19  1  0  0  0
 19  7  1  0  0  0
  7  8  2  0  0  0
  8  9  1  0  0  0
  9 10  1  0  0  0
  9 11  1  0  0  0
 11 12  1  0  0  0
 12 13  2  0  0  0
 12 14  1  0  0  0
 14 15  1  0  0  0
 15  1  1  0  0  0
  1  2  1  0  0  0
  2  3  2  0  0  0
  3 22  1  0  0  0
 22 23  2  0  0  0
 22 24  2  0  0  0
 22 25  1  0  0  0
 25 26  1  0  0  0
 26 27  1  0  0  0
 27 28  1  0  0  0
 28 31  1  0  0  0
 31 32  1  0  0  0
 31 33  2  0  0  0
 28 29  1  0  0  0
 29 30  1  0  0  0
  3  4  1  0  0  0
  4  5  2  0  0  0
  5  6  1  0  0  0
  6 36  1  0  0  0
 36 37  1  0  0  0
 37 38  1  0  0  0
 15 16  2  0  0  0
 16 17  1  0  0  0
 17  7  1  0  0  0
 17 11  2  0  0  0
  6  1  2  0  0  0
 30 25  1  0  0  0
 14 18  1  0  0  0
 32 34  1  0  0  0
 32 35  1  0  0  0
M  END
> <minimizedAffinity>
-1.39193

$$$$



 38 41  0  0  0  0  0  0  0  0999 V2000
    3.4759   72.2241   80.9775 C   0  0  0  0  0  0  0  0  0  0  0  0
    4.6323   72.3183   80.1833 C   0  0  0  0  0  0  0  0  0  0  0  0
    5.1737   73.5654   79.8714 C   0  0  0  0  0  0  0  0  0  0  0  0
    4.5386   74.7326   80.2906 C   0  0  0  0  0  0  0  0  0  0  0  0
    3.3766   74.6499   81.0623 C   0  0  0  0  0  0  0  0  0  0  0  0
    2.8413   73.4048   81.4245 C   0  0  0  0  0  0  0  0  0  0  0  0
    3.3936   67.9937   83.5449 C   0  0  0  0  0  0  0  0  0  0  0  0
    2.6503   66.8791   83.4087 N   0  0  0  0  0  0  0  0  0  0  0  0
    1.8570   67.1409   82.3395 N   0  0  0  0  0  0  0  0  0  0  0  0
    0.9138   66.1493   81.8821 C   0  0  0  0  0  0  0  0  0  0  0  0
    2.0684   68.3746   81.8089 C   0  0  0  0  0  0  0  0  0  0  0  0
    1.4683   69.0409   80.7128 C   0  0  0  0  0  0  0  0  0  0  0  0
    0.5672   68.5994   80.0101 O   0  0  0  0  0  0  0  0  0  0  0  0
    2.0212   70.2867   80.5242 N   0  0  0  0  0  0  0  0  0  0  0  0
    3.0144   70.8369   81.3276 C   0  0  0  0  0  0  0  0  0  0  0  0
    3.5558   70.2202   82.3443 N   0  0  0  0  0  0  0  0  0  0  0  0
    3.0483   68.9399   82.5672 C   0  0  0  0  0  0  0  0  0  0  0  0
    1.6209   70.8388   79.7765 H   0  0  0  0  0  0  0  0  0  0  0  0
    4.4168   68.1071   84.6210 C   0  0  0  0  0  0  0  0  0  0  0  0
    6.1907   66.4964   85.4035 C   0  0  0  0  0  0  0  0  0  0  0  0
    4.6979   66.7630   85.2940 C   0  0  0  0  0  0  0  0  0  0  0  0
    6.6567   73.6609   78.8884 S   0  0  0  0  0  0  0  0  0  0  0  0
    6.3109   74.3382   77.6562 O   0  0  0  0  0  0  0  0  0  0  0  0
    7.2496   72.3411   78.8752 O   0  0  0  0  0  0  0  0  0  0  0  0
    7.6493   74.6950   79.7971 N   0  0  0  0  0  0  0  0  0  0  0  0
    8.0274   74.2965   81.1697 C   0  0  0  0  0  0  0  0  0  0  0  0
    7.4583   75.2574   82.2037 C   0  0  0  0  0  0  0  0  0  0  0  0
    7.9010   76.7095   81.9657 C   0  0  0  0  0  0  0  0  0  0  0  0
    8.3723   76.9414   80.5234 C   0  0  0  0  0  0  0  0  0  0  0  0
    7.5254   76.1475   79.5356 C   0  0  0  0  0  0  0  0  0  0  0  0
    6.7583   77.6502   82.3265 C   0  0  0  0  0  0  0  0  0  0  0  0
    6.0030   77.2554   83.3913 N   0  0  0  0  0  0  0  0  0  0  0  0
    6.4883   78.6765   81.7143 O   0  0  0  0  0  0  0  0  0  0  0  0
    5.2677   77.8812   83.6959 H   0  0  0  0  0  0  0  0  0  0  0  0
    6.2791   76.5084   84.0136 H   0  0  0  0  0  0  0  0  0  0  0  0
    1.7119   73.2659   82.1912 O   0  0  0  0  0  0  0  0  0  0  0  0
    0.6704   74.2325   82.0340 C   0  0  0  0  0  0  0  0  0  0  0  0
   -0.3930   73.6234   81.1379 C   0  0  0  0  0  0  0  0  0  0  0  0
 20 21  1  0  0  0
 21 19  1  0  0  0
 19  7  1  0  0  0
  7  8  2  0  0  0
  8  9  1  0  0  0
  9 10  1  0  0  0
  9 11  1  0  0  0
 11 12  1  0  0  0
 12 13  2  0  0  0
 12 14  1  0  0  0
 14 15  1  0  0  0
 15  1  1  0  0  0
  1  2  1  0  0  0
  2  3  2  0  0  0
  3 22  1  0  0  0
 22 23  2  0  0  0
 22 24  2  0  0  0
 22 25  1  0  0  0
 25 26  1  0  0  0
 26 27  1  0  0  0
 27 28  1  0  0  0
 28 31  1  0  0  0
 31 32  1  0  0  0
 31 33  2  0  0  0
 28 29  1  0  0  0
 29 30  1  0  0  0
  3  4  1  0  0  0
  4  5  2  0  0  0
  5  6  1  0  0  0
  6 36  1  0  0  0
 36 37  1  0  0  0
 37 38  1  0  0  0
 15 16  2  0  0  0
 16 17  1  0  0  0
 17  7  1  0  0  0
 17 11  2  0  0  0
  6  1  2  0  0  0
 30 25  1  0  0  0
 14 18  1  0  0  0
 32 34  1  0  0  0
 32 35  1  0  0  0
M  END
> <minimizedAffinity>
-1.37762

$$$$
