


 25 28  0  0  0  0  0  0  0  0999 V2000
   -0.0040   63.0958   81.6199 C   0  0  0  0  0  0  0  0  0  0  0  0
   -0.5711   62.2321   80.7605 N   0  0  0  0  0  0  0  0  0  0  0  0
   -0.8848   62.6794   79.5353 C   0  0  0  0  0  0  0  0  0  0  0  0
   -0.6703   63.9352   79.1096 N   0  0  0  0  0  0  0  0  0  0  0  0
   -0.0967   64.7876   79.9615 C   0  0  0  0  0  0  0  0  0  0  0  0
    0.1408   66.0894   79.5368 C   0  0  0  0  0  0  0  0  0  0  0  0
    0.7456   67.0397   80.3639 C   0  0  0  0  0  0  0  0  0  0  0  0
    1.1311   66.6870   81.6492 C   0  0  0  0  0  0  0  0  0  0  0  0
    0.9016   65.3885   82.0984 C   0  0  0  0  0  0  0  0  0  0  0  0
    0.2765   64.4268   81.2612 C   0  0  0  0  0  0  0  0  0  0  0  0
   -1.5113   61.7263   78.5956 C   0  0  0  0  0  0  0  0  0  0  0  0
   -2.6475   60.9755   78.9579 C   0  0  0  0  0  0  0  0  0  0  0  0
   -3.2426   60.0719   78.0711 C   0  0  0  0  0  0  0  0  0  0  0  0
   -2.7136   59.8969   76.7962 C   0  0  0  0  0  0  0  0  0  0  0  0
   -1.5926   60.6242   76.4081 C   0  0  0  0  0  0  0  0  0  0  0  0
   -1.0008   61.5270   77.2978 C   0  0  0  0  0  0  0  0  0  0  0  0
    0.3067   62.6587   82.9378 N   0  0  0  0  0  0  0  0  0  0  0  0
    1.2524   62.9531   83.1598 H   0  0  0  0  0  0  0  0  0  0  0  0
   -0.0709   63.4597   87.9854 Cl  0  0  0  0  0  0  0  0  0  0  0  0
   -0.7611   62.9922   86.4788 C   0  0  0  0  0  0  0  0  0  0  0  0
   -2.0874   62.5748   86.4284 C   0  0  0  0  0  0  0  0  0  0  0  0
   -2.6330   62.1796   85.2102 C   0  0  0  0  0  0  0  0  0  0  0  0
   -1.8528   62.2162   84.0500 C   0  0  0  0  0  0  0  0  0  0  0  0
   -0.5272   62.6704   84.0793 C   0  0  0  0  0  0  0  0  0  0  0  0
    0.0187   63.0293   85.3206 C   0  0  0  0  0  0  0  0  0  0  0  0
 19 20  1  0  0  0
 20 21  1  0  0  0
 21 22  2  0  0  0
 22 23  1  0  0  0
 23 24  2  0  0  0
 24 17  1  0  0  0
 17  1  1  0  0  0
  1  2  1  0  0  0
  2  3  2  0  0  0
  3 11  1  0  0  0
 11 12  2  0  0  0
 12 13  1  0  0  0
 13 14  2  0  0  0
 14 15  1  0  0  0
 15 16  2  0  0  0
  3  4  1  0  0  0
  4  5  2  0  0  0
  5  6  1  0  0  0
  6  7  2  0  0  0
  7  8  1  0  0  0
  8  9  2  0  0  0
  9 10  1  0  0  0
 24 25  1  0  0  0
 25 20  2  0  0  0
 10  1  2  0  0  0
 16 11  1  0  0  0
 10  5  1  0  0  0
 17 18  1  0  0  0
M  END
> <minimizedAffinity>
-1.20287

$$$$



 25 28  0  0  0  0  0  0  0  0999 V2000
   -0.3040   63.5664   80.5465 C   0  0  0  0  0  0  0  0  0  0  0  0
   -0.3731   63.5919   81.8884 N   0  0  0  0  0  0  0  0  0  0  0  0
   -1.0968   62.6413   82.4987 C   0  0  0  0  0  0  0  0  0  0  0  0
   -1.7588   61.6645   81.8568 N   0  0  0  0  0  0  0  0  0  0  0  0
   -1.6792   61.6351   80.5248 C   0  0  0  0  0  0  0  0  0  0  0  0
   -2.3508   60.6273   79.8432 C   0  0  0  0  0  0  0  0  0  0  0  0
   -2.3100   60.5207   78.4504 C   0  0  0  0  0  0  0  0  0  0  0  0
   -1.5771   61.4383   77.7115 C   0  0  0  0  0  0  0  0  0  0  0  0
   -0.8970   62.4589   78.3722 C   0  0  0  0  0  0  0  0  0  0  0  0
   -0.9485   62.5731   79.7867 C   0  0  0  0  0  0  0  0  0  0  0  0
   -1.1721   62.6763   83.9741 C   0  0  0  0  0  0  0  0  0  0  0  0
   -2.3138   62.2208   84.6633 C   0  0  0  0  0  0  0  0  0  0  0  0
   -2.3886   62.2532   86.0598 C   0  0  0  0  0  0  0  0  0  0  0  0
   -1.3197   62.7437   86.8032 C   0  0  0  0  0  0  0  0  0  0  0  0
   -0.1779   63.2002   86.1520 C   0  0  0  0  0  0  0  0  0  0  0  0
   -0.1069   63.1658   84.7553 C   0  0  0  0  0  0  0  0  0  0  0  0
    0.4271   64.5829   79.8708 N   0  0  0  0  0  0  0  0  0  0  0  0
    0.3024   64.4584   78.8712 H   0  0  0  0  0  0  0  0  0  0  0  0
    2.8160   68.1084   82.7214 Cl  0  0  0  0  0  0  0  0  0  0  0  0
    1.6110   67.6624   81.5753 C   0  0  0  0  0  0  0  0  0  0  0  0
    0.7454   68.6294   81.0738 C   0  0  0  0  0  0  0  0  0  0  0  0
   -0.2390   68.2580   80.1625 C   0  0  0  0  0  0  0  0  0  0  0  0
   -0.3432   66.9257   79.7501 C   0  0  0  0  0  0  0  0  0  0  0  0
    0.5458   65.9482   80.2178 C   0  0  0  0  0  0  0  0  0  0  0  0
    1.5079   66.3316   81.1639 C   0  0  0  0  0  0  0  0  0  0  0  0
 19 20  1  0  0  0
 20 21  1  0  0  0
 21 22  2  0  0  0
 22 23  1  0  0  0
 23 24  2  0  0  0
 24 17  1  0  0  0
 17  1  1  0  0  0
  1  2  1  0  0  0
  2  3  2  0  0  0
  3 11  1  0  0  0
 11 12  2  0  0  0
 12 13  1  0  0  0
 13 14  2  0  0  0
 14 15  1  0  0  0
 15 16  2  0  0  0
  3  4  1  0  0  0
  4  5  2  0  0  0
  5  6  1  0  0  0
  6  7  2  0  0  0
  7  8  1  0  0  0
  8  9  2  0  0  0
  9 10  1  0  0  0
 24 25  1  0  0  0
 25 20  2  0  0  0
 10  1  2  0  0  0
 16 11  1  0  0  0
 10  5  1  0  0  0
 17 18  1  0  0  0
M  END
> <minimizedAffinity>
-1.12181

$$$$



 25 28  0  0  0  0  0  0  0  0999 V2000
   -0.0057   63.8101   81.4167 C   0  0  0  0  0  0  0  0  0  0  0  0
   -0.3501   63.2827   80.2296 N   0  0  0  0  0  0  0  0  0  0  0  0
   -1.2111   62.2539   80.2249 C   0  0  0  0  0  0  0  0  0  0  0  0
   -1.7524   61.7144   81.3296 N   0  0  0  0  0  0  0  0  0  0  0  0
   -1.4172   62.2476   82.5064 C   0  0  0  0  0  0  0  0  0  0  0  0
   -1.9731   61.7083   83.6604 C   0  0  0  0  0  0  0  0  0  0  0  0
   -1.6813   62.2147   84.9297 C   0  0  0  0  0  0  0  0  0  0  0  0
   -0.8161   63.2917   85.0583 C   0  0  0  0  0  0  0  0  0  0  0  0
   -0.2446   63.8481   83.9161 C   0  0  0  0  0  0  0  0  0  0  0  0
   -0.5328   63.3254   82.6276 C   0  0  0  0  0  0  0  0  0  0  0  0
   -1.5836   61.6757   78.9170 C   0  0  0  0  0  0  0  0  0  0  0  0
   -1.2448   62.3140   77.7072 C   0  0  0  0  0  0  0  0  0  0  0  0
   -1.5964   61.7698   76.4675 C   0  0  0  0  0  0  0  0  0  0  0  0
   -2.2981   60.5698   76.4077 C   0  0  0  0  0  0  0  0  0  0  0  0
   -2.6468   59.9147   77.5847 C   0  0  0  0  0  0  0  0  0  0  0  0
   -2.2929   60.4622   78.8224 C   0  0  0  0  0  0  0  0  0  0  0  0
    0.9329   64.8787   81.4541 N   0  0  0  0  0  0  0  0  0  0  0  0
    1.8360   64.5243   81.1555 H   0  0  0  0  0  0  0  0  0  0  0  0
    2.4620   69.7519   81.8742 Cl  0  0  0  0  0  0  0  0  0  0  0  0
    1.3902   68.5583   81.2488 C   0  0  0  0  0  0  0  0  0  0  0  0
    0.3299   68.9431   80.4342 C   0  0  0  0  0  0  0  0  0  0  0  0
   -0.5441   67.9748   79.9482 C   0  0  0  0  0  0  0  0  0  0  0  0
   -0.3450   66.6284   80.2700 C   0  0  0  0  0  0  0  0  0  0  0  0
    0.7405   66.2221   81.0581 C   0  0  0  0  0  0  0  0  0  0  0  0
    1.5901   67.2139   81.5705 C   0  0  0  0  0  0  0  0  0  0  0  0
 19 20  1  0  0  0
 20 21  1  0  0  0
 21 22  2  0  0  0
 22 23  1  0  0  0
 23 24  2  0  0  0
 24 17  1  0  0  0
 17  1  1  0  0  0
  1  2  1  0  0  0
  2  3  2  0  0  0
  3 11  1  0  0  0
 11 12  2  0  0  0
 12 13  1  0  0  0
 13 14  2  0  0  0
 14 15  1  0  0  0
 15 16  2  0  0  0
  3  4  1  0  0  0
  4  5  2  0  0  0
  5  6  1  0  0  0
  6  7  2  0  0  0
  7  8  1  0  0  0
  8  9  2  0  0  0
  9 10  1  0  0  0
 24 25  1  0  0  0
 25 20  2  0  0  0
 10  1  2  0  0  0
 16 11  1  0  0  0
 10  5  1  0  0  0
 17 18  1  0  0  0
M  END
> <minimizedAffinity>
-1.11843

$$$$



 25 28  0  0  0  0  0  0  0  0999 V2000
   -0.4749   62.8996   81.5529 C   0  0  0  0  0  0  0  0  0  0  0  0
    0.0125   64.1416   81.7138 N   0  0  0  0  0  0  0  0  0  0  0  0
    0.1177   64.9211   80.6270 C   0  0  0  0  0  0  0  0  0  0  0  0
   -0.2315   64.5422   79.3865 N   0  0  0  0  0  0  0  0  0  0  0  0
   -0.7258   63.3120   79.2317 C   0  0  0  0  0  0  0  0  0  0  0  0
   -1.1003   62.9043   77.9570 C   0  0  0  0  0  0  0  0  0  0  0  0
   -1.6348   61.6366   77.7119 C   0  0  0  0  0  0  0  0  0  0  0  0
   -1.8078   60.7481   78.7635 C   0  0  0  0  0  0  0  0  0  0  0  0
   -1.4378   61.1332   80.0501 C   0  0  0  0  0  0  0  0  0  0  0  0
   -0.8840   62.4175   80.2963 C   0  0  0  0  0  0  0  0  0  0  0  0
    0.6574   66.2847   80.8093 C   0  0  0  0  0  0  0  0  0  0  0  0
    0.1665   67.3757   80.0646 C   0  0  0  0  0  0  0  0  0  0  0  0
    0.6757   68.6676   80.2341 C   0  0  0  0  0  0  0  0  0  0  0  0
    1.6918   68.9001   81.1555 C   0  0  0  0  0  0  0  0  0  0  0  0
    2.1975   67.8436   81.9067 C   0  0  0  0  0  0  0  0  0  0  0  0
    1.6853   66.5533   81.7345 C   0  0  0  0  0  0  0  0  0  0  0  0
   -0.5642   62.0386   82.6821 N   0  0  0  0  0  0  0  0  0  0  0  0
    0.2529   61.4365   82.6931 H   0  0  0  0  0  0  0  0  0  0  0  0
    0.7170   63.7144   87.3525 Cl  0  0  0  0  0  0  0  0  0  0  0  0
   -0.4446   63.1047   86.2374 C   0  0  0  0  0  0  0  0  0  0  0  0
   -1.7507   62.8761   86.6588 C   0  0  0  0  0  0  0  0  0  0  0  0
   -2.6795   62.3645   85.7570 C   0  0  0  0  0  0  0  0  0  0  0  0
   -2.2992   62.0968   84.4380 C   0  0  0  0  0  0  0  0  0  0  0  0
   -0.9972   62.3578   83.9895 C   0  0  0  0  0  0  0  0  0  0  0  0
   -0.0639   62.8379   84.9203 C   0  0  0  0  0  0  0  0  0  0  0  0
 19 20  1  0  0  0
 20 21  1  0  0  0
 21 22  2  0  0  0
 22 23  1  0  0  0
 23 24  2  0  0  0
 24 17  1  0  0  0
 17  1  1  0  0  0
  1  2  1  0  0  0
  2  3  2  0  0  0
  3 11  1  0  0  0
 11 12  2  0  0  0
 12 13  1  0  0  0
 13 14  2  0  0  0
 14 15  1  0  0  0
 15 16  2  0  0  0
  3  4  1  0  0  0
  4  5  2  0  0  0
  5  6  1  0  0  0
  6  7  2  0  0  0
  7  8  1  0  0  0
  8  9  2  0  0  0
  9 10  1  0  0  0
 24 25  1  0  0  0
 25 20  2  0  0  0
 10  1  2  0  0  0
 16 11  1  0  0  0
 10  5  1  0  0  0
 17 18  1  0  0  0
M  END
> <minimizedAffinity>
-1.08136

$$$$



 25 28  0  0  0  0  0  0  0  0999 V2000
   -0.0648   64.2079   80.9731 C   0  0  0  0  0  0  0  0  0  0  0  0
   -0.0912   64.1467   82.3154 N   0  0  0  0  0  0  0  0  0  0  0  0
   -0.7256   63.1109   82.8850 C   0  0  0  0  0  0  0  0  0  0  0  0
   -1.3381   62.1296   82.2021 N   0  0  0  0  0  0  0  0  0  0  0  0
   -1.3006   62.1871   80.8691 C   0  0  0  0  0  0  0  0  0  0  0  0
   -1.9217   61.1767   80.1449 C   0  0  0  0  0  0  0  0  0  0  0  0
   -1.9196   61.1582   78.7476 C   0  0  0  0  0  0  0  0  0  0  0  0
   -1.2779   62.1696   78.0473 C   0  0  0  0  0  0  0  0  0  0  0  0
   -0.6499   63.1946   78.7513 C   0  0  0  0  0  0  0  0  0  0  0  0
   -0.6625   63.2187   80.1710 C   0  0  0  0  0  0  0  0  0  0  0  0
   -0.7544   63.0506   84.3613 C   0  0  0  0  0  0  0  0  0  0  0  0
   -1.7691   62.3558   85.0494 C   0  0  0  0  0  0  0  0  0  0  0  0
   -1.7997   62.2973   86.4467 C   0  0  0  0  0  0  0  0  0  0  0  0
   -0.8128   62.9347   87.1920 C   0  0  0  0  0  0  0  0  0  0  0  0
    0.2032   63.6284   86.5420 C   0  0  0  0  0  0  0  0  0  0  0  0
    0.2304   63.6842   85.1444 C   0  0  0  0  0  0  0  0  0  0  0  0
    0.5701   65.3138   80.3422 N   0  0  0  0  0  0  0  0  0  0  0  0
    0.1667   65.4322   79.4183 H   0  0  0  0  0  0  0  0  0  0  0  0
   -0.2244   70.3728   80.5343 Cl  0  0  0  0  0  0  0  0  0  0  0  0
    0.6375   68.9641   81.0212 C   0  0  0  0  0  0  0  0  0  0  0  0
    1.7066   69.0811   81.9039 C   0  0  0  0  0  0  0  0  0  0  0  0
    2.4113   67.9403   82.2779 C   0  0  0  0  0  0  0  0  0  0  0  0
    2.0347   66.6902   81.7765 C   0  0  0  0  0  0  0  0  0  0  0  0
    0.9364   66.5525   80.9166 C   0  0  0  0  0  0  0  0  0  0  0  0
    0.2605   67.7160   80.5201 C   0  0  0  0  0  0  0  0  0  0  0  0
 19 20  1  0  0  0
 20 21  1  0  0  0
 21 22  2  0  0  0
 22 23  1  0  0  0
 23 24  2  0  0  0
 24 17  1  0  0  0
 17  1  1  0  0  0
  1  2  1  0  0  0
  2  3  2  0  0  0
  3 11  1  0  0  0
 11 12  2  0  0  0
 12 13  1  0  0  0
 13 14  2  0  0  0
 14 15  1  0  0  0
 15 16  2  0  0  0
  3  4  1  0  0  0
  4  5  2  0  0  0
  5  6  1  0  0  0
  6  7  2  0  0  0
  7  8  1  0  0  0
  8  9  2  0  0  0
  9 10  1  0  0  0
 24 25  1  0  0  0
 25 20  2  0  0  0
 10  1  2  0  0  0
 16 11  1  0  0  0
 10  5  1  0  0  0
 17 18  1  0  0  0
M  END
> <minimizedAffinity>
-1.03682

$$$$



 25 28  0  0  0  0  0  0  0  0999 V2000
    0.5681   63.9712   83.4887 C   0  0  0  0  0  0  0  0  0  0  0  0
    0.1507   63.4978   82.3021 N   0  0  0  0  0  0  0  0  0  0  0  0
   -0.8822   62.6419   82.2950 C   0  0  0  0  0  0  0  0  0  0  0  0
   -1.5279   62.2250   83.3967 N   0  0  0  0  0  0  0  0  0  0  0  0
   -1.1185   62.7056   84.5727 C   0  0  0  0  0  0  0  0  0  0  0  0
   -1.7792   62.2923   85.7234 C   0  0  0  0  0  0  0  0  0  0  0  0
   -1.4186   62.7556   86.9915 C   0  0  0  0  0  0  0  0  0  0  0  0
   -0.3745   63.6600   87.1220 C   0  0  0  0  0  0  0  0  0  0  0  0
    0.3045   64.0875   85.9832 C   0  0  0  0  0  0  0  0  0  0  0  0
   -0.0553   63.6072   84.6962 C   0  0  0  0  0  0  0  0  0  0  0  0
   -1.3347   62.1219   80.9878 C   0  0  0  0  0  0  0  0  0  0  0  0
   -0.7853   62.5932   79.7787 C   0  0  0  0  0  0  0  0  0  0  0  0
   -1.2118   62.1038   78.5396 C   0  0  0  0  0  0  0  0  0  0  0  0
   -2.2016   61.1278   78.4798 C   0  0  0  0  0  0  0  0  0  0  0  0
   -2.7634   60.6414   79.6562 C   0  0  0  0  0  0  0  0  0  0  0  0
   -2.3338   61.1333   80.8934 C   0  0  0  0  0  0  0  0  0  0  0  0
    1.6841   64.8527   83.5294 N   0  0  0  0  0  0  0  0  0  0  0  0
    2.5033   64.3499   83.2030 H   0  0  0  0  0  0  0  0  0  0  0  0
    0.4579   68.4357   80.0767 Cl  0  0  0  0  0  0  0  0  0  0  0  0
    1.2153   67.9578   81.5473 C   0  0  0  0  0  0  0  0  0  0  0  0
    1.9063   68.8989   82.3040 C   0  0  0  0  0  0  0  0  0  0  0  0
    2.5328   68.5013   83.4818 C   0  0  0  0  0  0  0  0  0  0  0  0
    2.4539   67.1692   83.9004 C   0  0  0  0  0  0  0  0  0  0  0  0
    1.7295   66.2187   83.1681 C   0  0  0  0  0  0  0  0  0  0  0  0
    1.1357   66.6273   81.9647 C   0  0  0  0  0  0  0  0  0  0  0  0
 19 20  1  0  0  0
 20 21  1  0  0  0
 21 22  2  0  0  0
 22 23  1  0  0  0
 23 24  2  0  0  0
 24 17  1  0  0  0
 17  1  1  0  0  0
  1  2  1  0  0  0
  2  3  2  0  0  0
  3 11  1  0  0  0
 11 12  2  0  0  0
 12 13  1  0  0  0
 13 14  2  0  0  0
 14 15  1  0  0  0
 15 16  2  0  0  0
  3  4  1  0  0  0
  4  5  2  0  0  0
  5  6  1  0  0  0
  6  7  2  0  0  0
  7  8  1  0  0  0
  8  9  2  0  0  0
  9 10  1  0  0  0
 24 25  1  0  0  0
 25 20  2  0  0  0
 10  1  2  0  0  0
 16 11  1  0  0  0
 10  5  1  0  0  0
 17 18  1  0  0  0
M  END
> <minimizedAffinity>
-0.96968

$$$$



 25 28  0  0  0  0  0  0  0  0999 V2000
    4.0558   75.1988   81.7926 C   0  0  0  0  0  0  0  0  0  0  0  0
    3.2200   75.8087   82.6503 N   0  0  0  0  0  0  0  0  0  0  0  0
    3.7309   76.7374   83.4726 C   0  0  0  0  0  0  0  0  0  0  0  0
    5.0245   77.0986   83.4965 N   0  0  0  0  0  0  0  0  0  0  0  0
    5.8500   76.4993   82.6358 C   0  0  0  0  0  0  0  0  0  0  0  0
    7.1907   76.8652   82.6398 C   0  0  0  0  0  0  0  0  0  0  0  0
    8.1174   76.2927   81.7645 C   0  0  0  0  0  0  0  0  0  0  0  0
    7.7011   75.3319   80.8542 C   0  0  0  0  0  0  0  0  0  0  0  0
    6.3624   74.9470   80.8326 C   0  0  0  0  0  0  0  0  0  0  0  0
    5.4238   75.5210   81.7303 C   0  0  0  0  0  0  0  0  0  0  0  0
    2.8079   77.4023   84.4159 C   0  0  0  0  0  0  0  0  0  0  0  0
    1.4999   77.7623   84.0346 C   0  0  0  0  0  0  0  0  0  0  0  0
    0.6239   78.3925   84.9248 C   0  0  0  0  0  0  0  0  0  0  0  0
    1.0366   78.6788   86.2223 C   0  0  0  0  0  0  0  0  0  0  0  0
    2.3220   78.3353   86.6295 C   0  0  0  0  0  0  0  0  0  0  0  0
    3.1948   77.7049   85.7363 C   0  0  0  0  0  0  0  0  0  0  0  0
    3.5484   74.1845   80.9335 N   0  0  0  0  0  0  0  0  0  0  0  0
    4.2949   73.8835   80.3152 H   0  0  0  0  0  0  0  0  0  0  0  0
    3.0900   69.3018   82.4206 Cl  0  0  0  0  0  0  0  0  0  0  0  0
    2.3946   70.7961   81.9224 C   0  0  0  0  0  0  0  0  0  0  0  0
    1.0140   70.9026   81.7873 C   0  0  0  0  0  0  0  0  0  0  0  0
    0.4602   72.1080   81.3652 C   0  0  0  0  0  0  0  0  0  0  0  0
    1.2892   73.2010   81.0931 C   0  0  0  0  0  0  0  0  0  0  0  0
    2.6783   73.1196   81.2613 C   0  0  0  0  0  0  0  0  0  0  0  0
    3.2234   71.8872   81.6511 C   0  0  0  0  0  0  0  0  0  0  0  0
 19 20  1  0  0  0
 20 21  1  0  0  0
 21 22  2  0  0  0
 22 23  1  0  0  0
 23 24  2  0  0  0
 24 17  1  0  0  0
 17  1  1  0  0  0
  1  2  1  0  0  0
  2  3  2  0  0  0
  3 11  1  0  0  0
 11 12  2  0  0  0
 12 13  1  0  0  0
 13 14  2  0  0  0
 14 15  1  0  0  0
 15 16  2  0  0  0
  3  4  1  0  0  0
  4  5  2  0  0  0
  5  6  1  0  0  0
  6  7  2  0  0  0
  7  8  1  0  0  0
  8  9  2  0  0  0
  9 10  1  0  0  0
 24 25  1  0  0  0
 25 20  2  0  0  0
 10  1  2  0  0  0
 16 11  1  0  0  0
 10  5  1  0  0  0
 17 18  1  0  0  0
M  END
> <minimizedAffinity>
-0.95409

$$$$



 25 28  0  0  0  0  0  0  0  0999 V2000
    3.0826   74.1019   81.9063 C   0  0  0  0  0  0  0  0  0  0  0  0
    2.3298   75.2150   81.9217 N   0  0  0  0  0  0  0  0  0  0  0  0
    1.0191   75.0910   81.6640 C   0  0  0  0  0  0  0  0  0  0  0  0
    0.4080   73.9265   81.3902 N   0  0  0  0  0  0  0  0  0  0  0  0
    1.1562   72.8212   81.3866 C   0  0  0  0  0  0  0  0  0  0  0  0
    0.5406   71.6056   81.1134 C   0  0  0  0  0  0  0  0  0  0  0  0
    1.2508   70.4022   81.0999 C   0  0  0  0  0  0  0  0  0  0  0  0
    2.6116   70.4036   81.3704 C   0  0  0  0  0  0  0  0  0  0  0  0
    3.2515   71.6101   81.6450 C   0  0  0  0  0  0  0  0  0  0  0  0
    2.5311   72.8338   81.6472 C   0  0  0  0  0  0  0  0  0  0  0  0
    0.1968   76.3188   81.6789 C   0  0  0  0  0  0  0  0  0  0  0  0
   -0.5216   76.7368   80.5409 C   0  0  0  0  0  0  0  0  0  0  0  0
   -1.3003   77.8988   80.5515 C   0  0  0  0  0  0  0  0  0  0  0  0
   -1.3794   78.6735   81.7044 C   0  0  0  0  0  0  0  0  0  0  0  0
   -0.6822   78.2871   82.8449 C   0  0  0  0  0  0  0  0  0  0  0  0
    0.0952   77.1241   82.8303 C   0  0  0  0  0  0  0  0  0  0  0  0
    4.4819   74.2083   82.1410 N   0  0  0  0  0  0  0  0  0  0  0  0
    4.8297   73.2995   82.4298 H   0  0  0  0  0  0  0  0  0  0  0  0
    7.0197   74.6282   77.7087 Cl  0  0  0  0  0  0  0  0  0  0  0  0
    6.7092   75.1456   79.3212 C   0  0  0  0  0  0  0  0  0  0  0  0
    7.4468   76.1937   79.8628 C   0  0  0  0  0  0  0  0  0  0  0  0
    7.2039   76.5938   81.1738 C   0  0  0  0  0  0  0  0  0  0  0  0
    6.2176   75.9516   81.9293 C   0  0  0  0  0  0  0  0  0  0  0  0
    5.4409   74.9199   81.3844 C   0  0  0  0  0  0  0  0  0  0  0  0
    5.7238   74.5039   80.0749 C   0  0  0  0  0  0  0  0  0  0  0  0
 19 20  1  0  0  0
 20 21  1  0  0  0
 21 22  2  0  0  0
 22 23  1  0  0  0
 23 24  2  0  0  0
 24 17  1  0  0  0
 17  1  1  0  0  0
  1  2  1  0  0  0
  2  3  2  0  0  0
  3 11  1  0  0  0
 11 12  2  0  0  0
 12 13  1  0  0  0
 13 14  2  0  0  0
 14 15  1  0  0  0
 15 16  2  0  0  0
  3  4  1  0  0  0
  4  5  2  0  0  0
  5  6  1  0  0  0
  6  7  2  0  0  0
  7  8  1  0  0  0
  8  9  2  0  0  0
  9 10  1  0  0  0
 24 25  1  0  0  0
 25 20  2  0  0  0
 10  1  2  0  0  0
 16 11  1  0  0  0
 10  5  1  0  0  0
 17 18  1  0  0  0
M  END
> <minimizedAffinity>
-0.92950

$$$$



 25 28  0  0  0  0  0  0  0  0999 V2000
    2.8696   74.6066   82.1344 C   0  0  0  0  0  0  0  0  0  0  0  0
    2.9360   73.2647   82.1003 N   0  0  0  0  0  0  0  0  0  0  0  0
    1.8637   72.5935   81.6538 C   0  0  0  0  0  0  0  0  0  0  0  0
    0.7258   73.1741   81.2385 N   0  0  0  0  0  0  0  0  0  0  0  0
    0.6669   74.5073   81.2628 C   0  0  0  0  0  0  0  0  0  0  0  0
   -0.4992   75.1268   80.8295 C   0  0  0  0  0  0  0  0  0  0  0  0
   -0.6376   76.5173   80.8145 C   0  0  0  0  0  0  0  0  0  0  0  0
    0.4138   77.3178   81.2372 C   0  0  0  0  0  0  0  0  0  0  0  0
    1.5922   76.7198   81.6782 C   0  0  0  0  0  0  0  0  0  0  0  0
    1.7278   75.3065   81.7039 C   0  0  0  0  0  0  0  0  0  0  0  0
    1.9411   71.1181   81.6218 C   0  0  0  0  0  0  0  0  0  0  0  0
    1.0594   70.3523   80.8331 C   0  0  0  0  0  0  0  0  0  0  0  0
    1.1294   68.9555   80.8011 C   0  0  0  0  0  0  0  0  0  0  0  0
    2.0862   68.2888   81.5599 C   0  0  0  0  0  0  0  0  0  0  0  0
    2.9718   69.0167   82.3485 C   0  0  0  0  0  0  0  0  0  0  0  0
    2.8987   70.4134   82.3774 C   0  0  0  0  0  0  0  0  0  0  0  0
    3.9787   75.3428   82.6367 N   0  0  0  0  0  0  0  0  0  0  0  0
    4.1115   75.0984   83.6129 H   0  0  0  0  0  0  0  0  0  0  0  0
    6.6831   75.2048   78.2859 Cl  0  0  0  0  0  0  0  0  0  0  0  0
    6.5570   75.5349   79.9710 C   0  0  0  0  0  0  0  0  0  0  0  0
    7.6710   75.9904   80.6693 C   0  0  0  0  0  0  0  0  0  0  0  0
    7.5669   76.2364   82.0354 C   0  0  0  0  0  0  0  0  0  0  0  0
    6.3476   76.0371   82.6908 C   0  0  0  0  0  0  0  0  0  0  0  0
    5.2076   75.6151   81.9931 C   0  0  0  0  0  0  0  0  0  0  0  0
    5.3388   75.3358   80.6246 C   0  0  0  0  0  0  0  0  0  0  0  0
 19 20  1  0  0  0
 20 21  1  0  0  0
 21 22  2  0  0  0
 22 23  1  0  0  0
 23 24  2  0  0  0
 24 17  1  0  0  0
 17  1  1  0  0  0
  1  2  1  0  0  0
  2  3  2  0  0  0
  3 11  1  0  0  0
 11 12  2  0  0  0
 12 13  1  0  0  0
 13 14  2  0  0  0
 14 15  1  0  0  0
 15 16  2  0  0  0
  3  4  1  0  0  0
  4  5  2  0  0  0
  5  6  1  0  0  0
  6  7  2  0  0  0
  7  8  1  0  0  0
  8  9  2  0  0  0
  9 10  1  0  0  0
 24 25  1  0  0  0
 25 20  2  0  0  0
 10  1  2  0  0  0
 16 11  1  0  0  0
 10  5  1  0  0  0
 17 18  1  0  0  0
M  END
> <minimizedAffinity>
-0.91913

$$$$
