


 34 36  0  0  0  0  0  0  0  0999 V2000
    1.2736   66.0900   83.2907 C   0  0  0  0  0  0  0  0  0  0  0  0
    1.3980   66.4142   81.9347 C   0  0  0  0  0  0  0  0  0  0  0  0
    0.9206   65.5536   80.9375 C   0  0  0  0  0  0  0  0  0  0  0  0
    0.3080   64.3511   81.2724 C   0  0  0  0  0  0  0  0  0  0  0  0
    0.1777   64.0224   82.6253 C   0  0  0  0  0  0  0  0  0  0  0  0
    0.6501   64.8760   83.6435 C   0  0  0  0  0  0  0  0  0  0  0  0
    0.4460   64.4084   85.0570 C   0  0  0  0  0  0  0  0  0  0  0  0
   -0.7132   63.9849   85.4530 N   0  0  0  0  0  0  0  0  0  0  0  0
   -0.8618   63.5610   86.7572 C   0  0  0  0  0  0  0  0  0  0  0  0
    0.1354   63.5626   87.6667 C   0  0  0  0  0  0  0  0  0  0  0  0
    1.4615   64.0443   87.2009 C   0  0  0  0  0  0  0  0  0  0  0  0
    2.4483   64.0753   87.9291 O   0  0  0  0  0  0  0  0  0  0  0  0
    1.5169   64.4493   85.9047 N   0  0  0  0  0  0  0  0  0  0  0  0
    2.4153   64.7754   85.5731 H   0  0  0  0  0  0  0  0  0  0  0  0
   -2.2726   63.0944   87.0643 C   0  0  0  0  0  0  0  0  0  0  0  0
   -2.7632   62.0659   86.0531 C   0  0  0  0  0  0  0  0  0  0  0  0
    0.0594   63.1443   89.1109 C   0  0  0  0  0  0  0  0  0  0  0  0
    0.2270   61.6408   89.2784 C   0  0  0  0  0  0  0  0  0  0  0  0
   -0.1980   63.4274   80.3339 N   0  0  0  0  0  0  0  0  0  0  0  0
    0.1357   62.0841   80.2051 C   0  0  0  0  0  0  0  0  0  0  0  0
    0.9411   61.4759   80.9024 O   0  0  0  0  0  0  0  0  0  0  0  0
   -0.8799   63.7974   79.6820 H   0  0  0  0  0  0  0  0  0  0  0  0
   -0.6446   61.3996   79.0584 C   0  0  0  0  0  0  0  0  0  0  0  0
   -0.1172   61.9178   77.7099 C   0  0  0  0  0  0  0  0  0  0  0  0
   -1.3548   61.9856   76.8260 C   0  0  0  0  0  0  0  0  0  0  0  0
   -2.4478   62.3842   77.8007 C   0  0  0  0  0  0  0  0  0  0  0  0
   -2.0780   61.7071   79.0285 N   0  0  0  0  0  0  0  0  0  0  0  0
   -3.0421   61.2850   79.9170 C   0  0  0  0  0  0  0  0  0  0  0  0
   -2.5813   60.5182   81.1307 C   0  0  0  0  0  0  0  0  0  0  0  0
   -4.2394   61.5178   79.7473 O   0  0  0  0  0  0  0  0  0  0  0  0
    1.7276   66.8951   84.3038 O   0  0  0  0  0  0  0  0  0  0  0  0
    2.9932   67.5408   84.1428 C   0  0  0  0  0  0  0  0  0  0  0  0
    5.4264   67.2419   84.7866 C   0  0  0  0  0  0  0  0  0  0  0  0
    4.0970   66.5520   84.5133 C   0  0  0  0  0  0  0  0  0  0  0  0
 33 34  1  0  0  0
 34 32  1  0  0  0
 32 31  1  0  0  0
 31  1  1  0  0  0
  1  2  1  0  0  0
  2  3  2  0  0  0
  3  4  1  0  0  0
  4 19  1  0  0  0
 19 20  1  0  0  0
 20 21  2  0  0  0
 20 23  1  0  0  0
 23 24  1  0  0  0
 24 25  1  0  0  0
 25 26  1  0  0  0
 26 27  1  0  0  0
 27 28  1  0  0  0
 28 29  1  0  0  0
 28 30  2  0  0  0
  4  5  2  0  0  0
  5  6  1  0  0  0
  6  7  1  0  0  0
  7  8  2  0  0  0
  8  9  1  0  0  0
  9 15  1  0  0  0
 15 16  1  0  0  0
  9 10  2  0  0  0
 10 17  1  0  0  0
 17 18  1  0  0  0
 10 11  1  0  0  0
 11 12  2  0  0  0
 11 13  1  0  0  0
  6  1  2  0  0  0
 13  7  1  0  0  0
 27 23  1  0  0  0
 19 22  1  0  0  0
 13 14  1  0  0  0
M  END
> <minimizedAffinity>
-9.71754

$$$$



 34 36  0  0  0  0  0  0  0  0999 V2000
    0.0680   63.9195   85.4803 C   0  0  0  0  0  0  0  0  0  0  0  0
   -1.0483   63.1018   85.2691 C   0  0  0  0  0  0  0  0  0  0  0  0
   -1.5688   62.9047   83.9833 C   0  0  0  0  0  0  0  0  0  0  0  0
   -0.9857   63.5190   82.8805 C   0  0  0  0  0  0  0  0  0  0  0  0
    0.1316   64.3347   83.0840 C   0  0  0  0  0  0  0  0  0  0  0  0
    0.6713   64.5441   84.3699 C   0  0  0  0  0  0  0  0  0  0  0  0
    1.8749   65.4400   84.4528 C   0  0  0  0  0  0  0  0  0  0  0  0
    1.9565   66.5077   83.7225 N   0  0  0  0  0  0  0  0  0  0  0  0
    3.0756   67.3073   83.8278 C   0  0  0  0  0  0  0  0  0  0  0  0
    4.1124   67.0452   84.6511 C   0  0  0  0  0  0  0  0  0  0  0  0
    4.0061   65.8221   85.4880 C   0  0  0  0  0  0  0  0  0  0  0  0
    4.8751   65.4888   86.2872 O   0  0  0  0  0  0  0  0  0  0  0  0
    2.8746   65.0893   85.3157 N   0  0  0  0  0  0  0  0  0  0  0  0
    2.7872   64.2562   85.8830 H   0  0  0  0  0  0  0  0  0  0  0  0
    3.0196   68.5166   82.9128 C   0  0  0  0  0  0  0  0  0  0  0  0
    1.6878   68.6124   82.1793 C   0  0  0  0  0  0  0  0  0  0  0  0
    5.3788   67.8431   84.8128 C   0  0  0  0  0  0  0  0  0  0  0  0
    6.5881   67.1144   84.2443 C   0  0  0  0  0  0  0  0  0  0  0  0
   -1.4459   63.3765   81.5546 N   0  0  0  0  0  0  0  0  0  0  0  0
   -1.3063   62.2696   80.7254 C   0  0  0  0  0  0  0  0  0  0  0  0
   -0.7482   61.2182   81.0218 O   0  0  0  0  0  0  0  0  0  0  0  0
   -1.9295   64.1808   81.1722 H   0  0  0  0  0  0  0  0  0  0  0  0
   -1.9571   62.4960   79.3407 C   0  0  0  0  0  0  0  0  0  0  0  0
   -3.3958   61.9533   79.3648 C   0  0  0  0  0  0  0  0  0  0  0  0
   -3.6009   61.3763   77.9711 C   0  0  0  0  0  0  0  0  0  0  0  0
   -2.2289   60.8271   77.6249 C   0  0  0  0  0  0  0  0  0  0  0  0
   -1.3152   61.7702   78.2399 N   0  0  0  0  0  0  0  0  0  0  0  0
   -0.0798   62.0179   77.6837 C   0  0  0  0  0  0  0  0  0  0  0  0
    0.7791   63.0705   78.3377 C   0  0  0  0  0  0  0  0  0  0  0  0
    0.3283   61.4113   76.6927 O   0  0  0  0  0  0  0  0  0  0  0  0
    0.6127   64.1480   86.7180 O   0  0  0  0  0  0  0  0  0  0  0  0
   -0.2351   64.0370   87.8641 C   0  0  0  0  0  0  0  0  0  0  0  0
    0.1316   61.8634   89.1151 C   0  0  0  0  0  0  0  0  0  0  0  0
    0.5350   63.3247   88.9745 C   0  0  0  0  0  0  0  0  0  0  0  0
 33 34  1  0  0  0
 34 32  1  0  0  0
 32 31  1  0  0  0
 31  1  1  0  0  0
  1  2  1  0  0  0
  2  3  2  0  0  0
  3  4  1  0  0  0
  4 19  1  0  0  0
 19 20  1  0  0  0
 20 21  2  0  0  0
 20 23  1  0  0  0
 23 24  1  0  0  0
 24 25  1  0  0  0
 25 26  1  0  0  0
 26 27  1  0  0  0
 27 28  1  0  0  0
 28 29  1  0  0  0
 28 30  2  0  0  0
  4  5  2  0  0  0
  5  6  1  0  0  0
  6  7  1  0  0  0
  7  8  2  0  0  0
  8  9  1  0  0  0
  9 15  1  0  0  0
 15 16  1  0  0  0
  9 10  2  0  0  0
 10 17  1  0  0  0
 17 18  1  0  0  0
 10 11  1  0  0  0
 11 12  2  0  0  0
 11 13  1  0  0  0
  6  1  2  0  0  0
 13  7  1  0  0  0
 27 23  1  0  0  0
 19 22  1  0  0  0
 13 14  1  0  0  0
M  END
> <minimizedAffinity>
-9.64041

$$$$



 34 36  0  0  0  0  0  0  0  0999 V2000
    3.9598   66.4195   84.5492 C   0  0  0  0  0  0  0  0  0  0  0  0
    4.7627   67.5245   84.2431 C   0  0  0  0  0  0  0  0  0  0  0  0
    4.1968   68.7436   83.8474 C   0  0  0  0  0  0  0  0  0  0  0  0
    2.8171   68.8862   83.7496 C   0  0  0  0  0  0  0  0  0  0  0  0
    2.0090   67.7872   84.0569 C   0  0  0  0  0  0  0  0  0  0  0  0
    2.5594   66.5527   84.4586 C   0  0  0  0  0  0  0  0  0  0  0  0
    1.5827   65.4519   84.7632 C   0  0  0  0  0  0  0  0  0  0  0  0
    0.8033   64.9845   83.8391 N   0  0  0  0  0  0  0  0  0  0  0  0
   -0.0786   63.9721   84.1555 C   0  0  0  0  0  0  0  0  0  0  0  0
   -0.1902   63.4293   85.3862 C   0  0  0  0  0  0  0  0  0  0  0  0
    0.7119   63.9683   86.4365 C   0  0  0  0  0  0  0  0  0  0  0  0
    0.7167   63.5434   87.5875 O   0  0  0  0  0  0  0  0  0  0  0  0
    1.5428   64.9681   86.0405 N   0  0  0  0  0  0  0  0  0  0  0  0
    2.1659   65.3412   86.7448 H   0  0  0  0  0  0  0  0  0  0  0  0
   -0.9170   63.5336   82.9692 C   0  0  0  0  0  0  0  0  0  0  0  0
   -0.7432   64.4648   81.7760 C   0  0  0  0  0  0  0  0  0  0  0  0
   -1.1366   62.3447   85.8271 C   0  0  0  0  0  0  0  0  0  0  0  0
   -2.4805   62.9059   86.2691 C   0  0  0  0  0  0  0  0  0  0  0  0
    2.1659   70.0747   83.3579 N   0  0  0  0  0  0  0  0  0  0  0  0
    1.7313   70.4202   82.0835 C   0  0  0  0  0  0  0  0  0  0  0  0
    1.8482   69.7312   81.0753 O   0  0  0  0  0  0  0  0  0  0  0  0
    2.0044   70.7477   84.0981 H   0  0  0  0  0  0  0  0  0  0  0  0
    1.0498   71.8084   82.0591 C   0  0  0  0  0  0  0  0  0  0  0  0
   -0.4634   71.6239   81.8563 C   0  0  0  0  0  0  0  0  0  0  0  0
   -0.8694   72.8015   80.9811 C   0  0  0  0  0  0  0  0  0  0  0  0
    0.3404   72.9923   80.0847 C   0  0  0  0  0  0  0  0  0  0  0  0
    1.4615   72.6697   80.9459 N   0  0  0  0  0  0  0  0  0  0  0  0
    2.6826   73.2822   80.7705 C   0  0  0  0  0  0  0  0  0  0  0  0
    3.7743   72.9521   81.7567 C   0  0  0  0  0  0  0  0  0  0  0  0
    2.8965   74.0693   79.8479 O   0  0  0  0  0  0  0  0  0  0  0  0
    4.4641   65.2045   84.9367 O   0  0  0  0  0  0  0  0  0  0  0  0
    5.4977   65.1820   85.9244 C   0  0  0  0  0  0  0  0  0  0  0  0
    5.6458   65.5524   88.4274 C   0  0  0  0  0  0  0  0  0  0  0  0
    4.8648   64.9120   87.2882 C   0  0  0  0  0  0  0  0  0  0  0  0
 33 34  1  0  0  0
 34 32  1  0  0  0
 32 31  1  0  0  0
 31  1  1  0  0  0
  1  2  1  0  0  0
  2  3  2  0  0  0
  3  4  1  0  0  0
  4 19  1  0  0  0
 19 20  1  0  0  0
 20 21  2  0  0  0
 20 23  1  0  0  0
 23 24  1  0  0  0
 24 25  1  0  0  0
 25 26  1  0  0  0
 26 27  1  0  0  0
 27 28  1  0  0  0
 28 29  1  0  0  0
 28 30  2  0  0  0
  4  5  2  0  0  0
  5  6  1  0  0  0
  6  7  1  0  0  0
  7  8  2  0  0  0
  8  9  1  0  0  0
  9 15  1  0  0  0
 15 16  1  0  0  0
  9 10  2  0  0  0
 10 17  1  0  0  0
 17 18  1  0  0  0
 10 11  1  0  0  0
 11 12  2  0  0  0
 11 13  1  0  0  0
  6  1  2  0  0  0
 13  7  1  0  0  0
 27 23  1  0  0  0
 19 22  1  0  0  0
 13 14  1  0  0  0
M  END
> <minimizedAffinity>
-9.55285

$$$$



 34 36  0  0  0  0  0  0  0  0999 V2000
    0.3489   63.9993   84.9499 C   0  0  0  0  0  0  0  0  0  0  0  0
   -0.1320   62.6863   85.0144 C   0  0  0  0  0  0  0  0  0  0  0  0
   -0.2868   61.9139   83.8558 C   0  0  0  0  0  0  0  0  0  0  0  0
    0.0358   62.4352   82.6078 C   0  0  0  0  0  0  0  0  0  0  0  0
    0.5196   63.7452   82.5364 C   0  0  0  0  0  0  0  0  0  0  0  0
    0.6842   64.5378   83.6911 C   0  0  0  0  0  0  0  0  0  0  0  0
    1.2154   65.9274   83.4788 C   0  0  0  0  0  0  0  0  0  0  0  0
    0.8254   66.6374   82.4670 N   0  0  0  0  0  0  0  0  0  0  0  0
    1.3330   67.9100   82.3064 C   0  0  0  0  0  0  0  0  0  0  0  0
    2.2286   68.4737   83.1441 C   0  0  0  0  0  0  0  0  0  0  0  0
    2.6644   67.6535   84.3038 C   0  0  0  0  0  0  0  0  0  0  0  0
    3.4595   68.0633   85.1435 O   0  0  0  0  0  0  0  0  0  0  0  0
    2.1207   66.4104   84.3812 N   0  0  0  0  0  0  0  0  0  0  0  0
    2.4053   65.8428   85.1688 H   0  0  0  0  0  0  0  0  0  0  0  0
    0.7787   68.6112   81.0802 C   0  0  0  0  0  0  0  0  0  0  0  0
   -0.3375   67.8089   80.4234 C   0  0  0  0  0  0  0  0  0  0  0  0
    2.8531   69.8392   83.0343 C   0  0  0  0  0  0  0  0  0  0  0  0
    3.8581   69.9162   81.8939 C   0  0  0  0  0  0  0  0  0  0  0  0
   -0.0914   61.7288   81.3934 N   0  0  0  0  0  0  0  0  0  0  0  0
   -0.9851   61.9798   80.3588 C   0  0  0  0  0  0  0  0  0  0  0  0
   -1.8237   62.8749   80.3377 O   0  0  0  0  0  0  0  0  0  0  0  0
    0.5449   60.9492   81.2738 H   0  0  0  0  0  0  0  0  0  0  0  0
   -0.8074   60.9885   79.1849 C   0  0  0  0  0  0  0  0  0  0  0  0
    0.0501   61.6489   78.0925 C   0  0  0  0  0  0  0  0  0  0  0  0
   -0.5457   61.1361   76.7888 C   0  0  0  0  0  0  0  0  0  0  0  0
   -2.0263   61.0357   77.1075 C   0  0  0  0  0  0  0  0  0  0  0  0
   -2.0521   60.6274   78.4987 N   0  0  0  0  0  0  0  0  0  0  0  0
   -3.0777   59.8465   78.9839 C   0  0  0  0  0  0  0  0  0  0  0  0
   -2.9904   59.3978   80.4207 C   0  0  0  0  0  0  0  0  0  0  0  0
   -4.0401   59.5193   78.2886 O   0  0  0  0  0  0  0  0  0  0  0  0
    0.5145   64.7974   86.0528 O   0  0  0  0  0  0  0  0  0  0  0  0
   -0.0744   64.3804   87.2873 C   0  0  0  0  0  0  0  0  0  0  0  0
    0.3834   62.5741   89.0054 C   0  0  0  0  0  0  0  0  0  0  0  0
    0.9843   63.6504   88.1118 C   0  0  0  0  0  0  0  0  0  0  0  0
 33 34  1  0  0  0
 34 32  1  0  0  0
 32 31  1  0  0  0
 31  1  1  0  0  0
  1  2  1  0  0  0
  2  3  2  0  0  0
  3  4  1  0  0  0
  4 19  1  0  0  0
 19 20  1  0  0  0
 20 21  2  0  0  0
 20 23  1  0  0  0
 23 24  1  0  0  0
 24 25  1  0  0  0
 25 26  1  0  0  0
 26 27  1  0  0  0
 27 28  1  0  0  0
 28 29  1  0  0  0
 28 30  2  0  0  0
  4  5  2  0  0  0
  5  6  1  0  0  0
  6  7  1  0  0  0
  7  8  2  0  0  0
  8  9  1  0  0  0
  9 15  1  0  0  0
 15 16  1  0  0  0
  9 10  2  0  0  0
 10 17  1  0  0  0
 17 18  1  0  0  0
 10 11  1  0  0  0
 11 12  2  0  0  0
 11 13  1  0  0  0
  6  1  2  0  0  0
 13  7  1  0  0  0
 27 23  1  0  0  0
 19 22  1  0  0  0
 13 14  1  0  0  0
M  END
> <minimizedAffinity>
-9.46419

$$$$



 34 36  0  0  0  0  0  0  0  0999 V2000
   -0.1079   63.0431   85.2630 C   0  0  0  0  0  0  0  0  0  0  0  0
    0.5098   64.0260   86.0452 C   0  0  0  0  0  0  0  0  0  0  0  0
    0.9899   65.2112   85.4729 C   0  0  0  0  0  0  0  0  0  0  0  0
    0.8629   65.4415   84.1075 C   0  0  0  0  0  0  0  0  0  0  0  0
    0.2441   64.4651   83.3206 C   0  0  0  0  0  0  0  0  0  0  0  0
   -0.2471   63.2666   83.8782 C   0  0  0  0  0  0  0  0  0  0  0  0
   -0.8936   62.3009   82.9254 C   0  0  0  0  0  0  0  0  0  0  0  0
   -0.4530   62.1724   81.7132 N   0  0  0  0  0  0  0  0  0  0  0  0
   -1.0703   61.2739   80.8679 C   0  0  0  0  0  0  0  0  0  0  0  0
   -2.1244   60.5095   81.2230 C   0  0  0  0  0  0  0  0  0  0  0  0
   -2.6177   60.6603   82.6163 C   0  0  0  0  0  0  0  0  0  0  0  0
   -3.5564   60.0074   83.0611 O   0  0  0  0  0  0  0  0  0  0  0  0
   -1.9571   61.5719   83.3777 N   0  0  0  0  0  0  0  0  0  0  0  0
   -2.2798   61.6813   84.3302 H   0  0  0  0  0  0  0  0  0  0  0  0
   -0.4385   61.2382   79.4888 C   0  0  0  0  0  0  0  0  0  0  0  0
    0.3187   62.5230   79.1776 C   0  0  0  0  0  0  0  0  0  0  0  0
   -2.8736   59.5256   80.3644 C   0  0  0  0  0  0  0  0  0  0  0  0
   -3.7976   60.2208   79.3746 C   0  0  0  0  0  0  0  0  0  0  0  0
    1.3191   66.6036   83.4507 N   0  0  0  0  0  0  0  0  0  0  0  0
    2.6347   67.0226   83.2897 C   0  0  0  0  0  0  0  0  0  0  0  0
    3.6293   66.4353   83.7027 O   0  0  0  0  0  0  0  0  0  0  0  0
    0.5958   67.1947   83.0578 H   0  0  0  0  0  0  0  0  0  0  0  0
    2.7289   68.3488   82.4994 C   0  0  0  0  0  0  0  0  0  0  0  0
    2.7884   69.5233   83.4903 C   0  0  0  0  0  0  0  0  0  0  0  0
    1.9970   70.6295   82.8065 C   0  0  0  0  0  0  0  0  0  0  0  0
    0.9066   69.8665   82.0767 C   0  0  0  0  0  0  0  0  0  0  0  0
    1.5625   68.6422   81.6604 N   0  0  0  0  0  0  0  0  0  0  0  0
    1.1810   67.9974   80.5047 C   0  0  0  0  0  0  0  0  0  0  0  0
    1.9650   66.7751   80.0988 C   0  0  0  0  0  0  0  0  0  0  0  0
    0.2361   68.3856   79.8168 O   0  0  0  0  0  0  0  0  0  0  0  0
   -0.5904   61.8653   85.7735 O   0  0  0  0  0  0  0  0  0  0  0  0
   -1.0338   61.8453   87.1328 C   0  0  0  0  0  0  0  0  0  0  0  0
   -3.0796   63.3382   87.0304 C   0  0  0  0  0  0  0  0  0  0  0  0
   -2.5598   61.9121   87.1500 C   0  0  0  0  0  0  0  0  0  0  0  0
 33 34  1  0  0  0
 34 32  1  0  0  0
 32 31  1  0  0  0
 31  1  1  0  0  0
  1  2  1  0  0  0
  2  3  2  0  0  0
  3  4  1  0  0  0
  4 19  1  0  0  0
 19 20  1  0  0  0
 20 21  2  0  0  0
 20 23  1  0  0  0
 23 24  1  0  0  0
 24 25  1  0  0  0
 25 26  1  0  0  0
 26 27  1  0  0  0
 27 28  1  0  0  0
 28 29  1  0  0  0
 28 30  2  0  0  0
  4  5  2  0  0  0
  5  6  1  0  0  0
  6  7  1  0  0  0
  7  8  2  0  0  0
  8  9  1  0  0  0
  9 15  1  0  0  0
 15 16  1  0  0  0
  9 10  2  0  0  0
 10 17  1  0  0  0
 17 18  1  0  0  0
 10 11  1  0  0  0
 11 12  2  0  0  0
 11 13  1  0  0  0
  6  1  2  0  0  0
 13  7  1  0  0  0
 27 23  1  0  0  0
 19 22  1  0  0  0
 13 14  1  0  0  0
M  END
> <minimizedAffinity>
-9.41738

$$$$



 34 36  0  0  0  0  0  0  0  0999 V2000
    0.1069   63.6859   83.8800 C   0  0  0  0  0  0  0  0  0  0  0  0
    0.7347   64.5500   84.7848 C   0  0  0  0  0  0  0  0  0  0  0  0
    1.1768   65.8185   84.3870 C   0  0  0  0  0  0  0  0  0  0  0  0
    1.0009   66.2523   83.0777 C   0  0  0  0  0  0  0  0  0  0  0  0
    0.3718   65.3953   82.1694 C   0  0  0  0  0  0  0  0  0  0  0  0
   -0.0817   64.1158   82.5508 C   0  0  0  0  0  0  0  0  0  0  0  0
   -0.7441   63.2941   81.4810 C   0  0  0  0  0  0  0  0  0  0  0  0
   -0.1575   63.0930   80.3428 N   0  0  0  0  0  0  0  0  0  0  0  0
   -0.7954   62.3312   79.3860 C   0  0  0  0  0  0  0  0  0  0  0  0
   -2.0135   61.7754   79.5563 C   0  0  0  0  0  0  0  0  0  0  0  0
   -2.6744   62.0072   80.8666 C   0  0  0  0  0  0  0  0  0  0  0  0
   -3.7732   61.5387   81.1463 O   0  0  0  0  0  0  0  0  0  0  0  0
   -1.9794   62.7742   81.7473 N   0  0  0  0  0  0  0  0  0  0  0  0
   -2.4159   62.9361   82.6455 H   0  0  0  0  0  0  0  0  0  0  0  0
    0.0191   62.1865   78.1139 C   0  0  0  0  0  0  0  0  0  0  0  0
   -0.1339   63.3966   77.2011 C   0  0  0  0  0  0  0  0  0  0  0  0
   -2.7932   60.9546   78.5640 C   0  0  0  0  0  0  0  0  0  0  0  0
   -3.5773   61.8268   77.5939 C   0  0  0  0  0  0  0  0  0  0  0  0
    1.4167   67.5104   82.5937 N   0  0  0  0  0  0  0  0  0  0  0  0
    2.0320   67.7878   81.3785 C   0  0  0  0  0  0  0  0  0  0  0  0
    2.3175   66.9640   80.5155 O   0  0  0  0  0  0  0  0  0  0  0  0
    1.2449   68.2942   83.2127 H   0  0  0  0  0  0  0  0  0  0  0  0
    2.3252   69.2968   81.2072 C   0  0  0  0  0  0  0  0  0  0  0  0
    3.5555   69.6704   82.0508 C   0  0  0  0  0  0  0  0  0  0  0  0
    3.2456   71.0697   82.5641 C   0  0  0  0  0  0  0  0  0  0  0  0
    1.7433   71.0293   82.7766 C   0  0  0  0  0  0  0  0  0  0  0  0
    1.2659   70.1829   81.7003 N   0  0  0  0  0  0  0  0  0  0  0  0
    0.0173   70.3781   81.1526 C   0  0  0  0  0  0  0  0  0  0  0  0
   -0.3734   69.5087   79.9843 C   0  0  0  0  0  0  0  0  0  0  0  0
   -0.7666   71.2223   81.5879 O   0  0  0  0  0  0  0  0  0  0  0  0
   -0.3398   62.4340   84.2179 O   0  0  0  0  0  0  0  0  0  0  0  0
   -0.8290   62.2228   85.5448 C   0  0  0  0  0  0  0  0  0  0  0  0
   -2.7940   62.9550   86.9684 C   0  0  0  0  0  0  0  0  0  0  0  0
   -2.3179   62.5624   85.5765 C   0  0  0  0  0  0  0  0  0  0  0  0
 33 34  1  0  0  0
 34 32  1  0  0  0
 32 31  1  0  0  0
 31  1  1  0  0  0
  1  2  1  0  0  0
  2  3  2  0  0  0
  3  4  1  0  0  0
  4 19  1  0  0  0
 19 20  1  0  0  0
 20 21  2  0  0  0
 20 23  1  0  0  0
 23 24  1  0  0  0
 24 25  1  0  0  0
 25 26  1  0  0  0
 26 27  1  0  0  0
 27 28  1  0  0  0
 28 29  1  0  0  0
 28 30  2  0  0  0
  4  5  2  0  0  0
  5  6  1  0  0  0
  6  7  1  0  0  0
  7  8  2  0  0  0
  8  9  1  0  0  0
  9 15  1  0  0  0
 15 16  1  0  0  0
  9 10  2  0  0  0
 10 17  1  0  0  0
 17 18  1  0  0  0
 10 11  1  0  0  0
 11 12  2  0  0  0
 11 13  1  0  0  0
  6  1  2  0  0  0
 13  7  1  0  0  0
 27 23  1  0  0  0
 19 22  1  0  0  0
 13 14  1  0  0  0
M  END
> <minimizedAffinity>
-9.32019

$$$$



 34 36  0  0  0  0  0  0  0  0999 V2000
    4.2246   66.3179   84.8351 C   0  0  0  0  0  0  0  0  0  0  0  0
    5.1154   67.3710   84.5968 C   0  0  0  0  0  0  0  0  0  0  0  0
    4.7176   68.5084   83.8820 C   0  0  0  0  0  0  0  0  0  0  0  0
    3.4216   68.6196   83.3905 C   0  0  0  0  0  0  0  0  0  0  0  0
    2.5257   67.5726   83.6276 C   0  0  0  0  0  0  0  0  0  0  0  0
    2.9065   66.4206   84.3462 C   0  0  0  0  0  0  0  0  0  0  0  0
    1.8490   65.3696   84.5350 C   0  0  0  0  0  0  0  0  0  0  0  0
    1.1915   64.9028   83.5202 N   0  0  0  0  0  0  0  0  0  0  0  0
    0.2300   63.9368   83.7321 C   0  0  0  0  0  0  0  0  0  0  0  0
   -0.0816   63.4397   84.9476 C   0  0  0  0  0  0  0  0  0  0  0  0
    0.6820   63.9773   86.1032 C   0  0  0  0  0  0  0  0  0  0  0  0
    0.5022   63.5908   87.2535 O   0  0  0  0  0  0  0  0  0  0  0  0
    1.6042   64.9302   85.8054 N   0  0  0  0  0  0  0  0  0  0  0  0
    2.1347   65.3016   86.5826 H   0  0  0  0  0  0  0  0  0  0  0  0
   -0.4468   63.4925   82.4487 C   0  0  0  0  0  0  0  0  0  0  0  0
   -0.7514   64.6696   81.5306 C   0  0  0  0  0  0  0  0  0  0  0  0
   -1.1281   62.4081   85.2752 C   0  0  0  0  0  0  0  0  0  0  0  0
   -2.4770   63.0424   85.5830 C   0  0  0  0  0  0  0  0  0  0  0  0
    2.9397   69.7265   82.6607 N   0  0  0  0  0  0  0  0  0  0  0  0
    2.7332   69.8097   81.2886 C   0  0  0  0  0  0  0  0  0  0  0  0
    2.9423   68.9139   80.4770 O   0  0  0  0  0  0  0  0  0  0  0  0
    2.7257   70.5510   83.2098 H   0  0  0  0  0  0  0  0  0  0  0  0
    2.1828   71.1924   80.8672 C   0  0  0  0  0  0  0  0  0  0  0  0
    3.1988   72.2794   81.2558 C   0  0  0  0  0  0  0  0  0  0  0  0
    2.3378   73.4625   81.6757 C   0  0  0  0  0  0  0  0  0  0  0  0
    1.1414   72.7972   82.3311 C   0  0  0  0  0  0  0  0  0  0  0  0
    0.9479   71.5905   81.5505 N   0  0  0  0  0  0  0  0  0  0  0  0
   -0.3099   71.0550   81.3830 C   0  0  0  0  0  0  0  0  0  0  0  0
   -0.4378   69.8455   80.4919 C   0  0  0  0  0  0  0  0  0  0  0  0
   -1.3044   71.5282   81.9340 O   0  0  0  0  0  0  0  0  0  0  0  0
    4.5655   65.1825   85.5246 O   0  0  0  0  0  0  0  0  0  0  0  0
    5.5646   65.2806   86.5428 C   0  0  0  0  0  0  0  0  0  0  0  0
    5.8005   65.4606   89.0600 C   0  0  0  0  0  0  0  0  0  0  0  0
    4.9032   65.0506   87.9004 C   0  0  0  0  0  0  0  0  0  0  0  0
 33 34  1  0  0  0
 34 32  1  0  0  0
 32 31  1  0  0  0
 31  1  1  0  0  0
  1  2  1  0  0  0
  2  3  2  0  0  0
  3  4  1  0  0  0
  4 19  1  0  0  0
 19 20  1  0  0  0
 20 21  2  0  0  0
 20 23  1  0  0  0
 23 24  1  0  0  0
 24 25  1  0  0  0
 25 26  1  0  0  0
 26 27  1  0  0  0
 27 28  1  0  0  0
 28 29  1  0  0  0
 28 30  2  0  0  0
  4  5  2  0  0  0
  5  6  1  0  0  0
  6  7  1  0  0  0
  7  8  2  0  0  0
  8  9  1  0  0  0
  9 15  1  0  0  0
 15 16  1  0  0  0
  9 10  2  0  0  0
 10 17  1  0  0  0
 17 18  1  0  0  0
 10 11  1  0  0  0
 11 12  2  0  0  0
 11 13  1  0  0  0
  6  1  2  0  0  0
 13  7  1  0  0  0
 27 23  1  0  0  0
 19 22  1  0  0  0
 13 14  1  0  0  0
M  END
> <minimizedAffinity>
-9.29307

$$$$



 34 36  0  0  0  0  0  0  0  0999 V2000
    0.2798   63.9387   84.9614 C   0  0  0  0  0  0  0  0  0  0  0  0
   -0.3388   62.6831   84.9645 C   0  0  0  0  0  0  0  0  0  0  0  0
   -0.4791   61.9418   83.7839 C   0  0  0  0  0  0  0  0  0  0  0  0
   -0.0039   62.4376   82.5748 C   0  0  0  0  0  0  0  0  0  0  0  0
    0.6179   63.6900   82.5650 C   0  0  0  0  0  0  0  0  0  0  0  0
    0.7702   64.4503   83.7428 C   0  0  0  0  0  0  0  0  0  0  0  0
    1.4587   65.7781   83.5978 C   0  0  0  0  0  0  0  0  0  0  0  0
    2.5610   66.0247   84.2337 N   0  0  0  0  0  0  0  0  0  0  0  0
    3.1658   67.2541   84.0737 C   0  0  0  0  0  0  0  0  0  0  0  0
    2.6755   68.2372   83.2896 C   0  0  0  0  0  0  0  0  0  0  0  0
    1.4148   67.9420   82.5608 C   0  0  0  0  0  0  0  0  0  0  0  0
    0.8825   68.7482   81.8047 O   0  0  0  0  0  0  0  0  0  0  0  0
    0.8835   66.7108   82.7815 N   0  0  0  0  0  0  0  0  0  0  0  0
    0.0273   66.4948   82.2877 H   0  0  0  0  0  0  0  0  0  0  0  0
    4.4448   67.3869   84.8793 C   0  0  0  0  0  0  0  0  0  0  0  0
    5.3042   66.1321   84.7912 C   0  0  0  0  0  0  0  0  0  0  0  0
    3.2510   69.6117   83.0754 C   0  0  0  0  0  0  0  0  0  0  0  0
    3.9885   69.7205   81.7485 C   0  0  0  0  0  0  0  0  0  0  0  0
   -0.1053   61.7595   81.3419 N   0  0  0  0  0  0  0  0  0  0  0  0
   -1.0574   61.9509   80.3474 C   0  0  0  0  0  0  0  0  0  0  0  0
   -1.9810   62.7575   80.3854 O   0  0  0  0  0  0  0  0  0  0  0  0
    0.6004   61.0518   81.1743 H   0  0  0  0  0  0  0  0  0  0  0  0
   -0.8258   61.0189   79.1349 C   0  0  0  0  0  0  0  0  0  0  0  0
    0.0690   61.7367   78.1107 C   0  0  0  0  0  0  0  0  0  0  0  0
   -0.4709   61.2845   76.7611 C   0  0  0  0  0  0  0  0  0  0  0  0
   -1.9621   61.1600   77.0155 C   0  0  0  0  0  0  0  0  0  0  0  0
   -2.0396   60.6844   78.3831 N   0  0  0  0  0  0  0  0  0  0  0  0
   -3.0774   59.8749   78.7888 C   0  0  0  0  0  0  0  0  0  0  0  0
   -3.0434   59.3574   80.2045 C   0  0  0  0  0  0  0  0  0  0  0  0
   -4.0091   59.5763   78.0408 O   0  0  0  0  0  0  0  0  0  0  0  0
    0.4379   64.7049   86.0877 O   0  0  0  0  0  0  0  0  0  0  0  0
   -0.1622   64.2547   87.3051 C   0  0  0  0  0  0  0  0  0  0  0  0
    0.3393   62.4896   89.0536 C   0  0  0  0  0  0  0  0  0  0  0  0
    0.9105   63.5810   88.1587 C   0  0  0  0  0  0  0  0  0  0  0  0
 33 34  1  0  0  0
 34 32  1  0  0  0
 32 31  1  0  0  0
 31  1  1  0  0  0
  1  2  1  0  0  0
  2  3  2  0  0  0
  3  4  1  0  0  0
  4 19  1  0  0  0
 19 20  1  0  0  0
 20 21  2  0  0  0
 20 23  1  0  0  0
 23 24  1  0  0  0
 24 25  1  0  0  0
 25 26  1  0  0  0
 26 27  1  0  0  0
 27 28  1  0  0  0
 28 29  1  0  0  0
 28 30  2  0  0  0
  4  5  2  0  0  0
  5  6  1  0  0  0
  6  7  1  0  0  0
  7  8  2  0  0  0
  8  9  1  0  0  0
  9 15  1  0  0  0
 15 16  1  0  0  0
  9 10  2  0  0  0
 10 17  1  0  0  0
 17 18  1  0  0  0
 10 11  1  0  0  0
 11 12  2  0  0  0
 11 13  1  0  0  0
  6  1  2  0  0  0
 13  7  1  0  0  0
 27 23  1  0  0  0
 19 22  1  0  0  0
 13 14  1  0  0  0
M  END
> <minimizedAffinity>
-9.17198

$$$$



 34 36  0  0  0  0  0  0  0  0999 V2000
   -0.0351   63.6465   85.5126 C   0  0  0  0  0  0  0  0  0  0  0  0
   -1.1334   62.8214   85.2438 C   0  0  0  0  0  0  0  0  0  0  0  0
   -1.6361   62.6856   83.9432 C   0  0  0  0  0  0  0  0  0  0  0  0
   -1.0528   63.3698   82.8825 C   0  0  0  0  0  0  0  0  0  0  0  0
    0.0466   64.1935   83.1435 C   0  0  0  0  0  0  0  0  0  0  0  0
    0.5683   64.3419   84.4451 C   0  0  0  0  0  0  0  0  0  0  0  0
    1.7538   65.2538   84.5911 C   0  0  0  0  0  0  0  0  0  0  0  0
    2.8466   64.8342   85.1477 N   0  0  0  0  0  0  0  0  0  0  0  0
    3.9150   65.6993   85.2617 C   0  0  0  0  0  0  0  0  0  0  0  0
    3.8970   66.9778   84.8296 C   0  0  0  0  0  0  0  0  0  0  0  0
    2.6417   67.4467   84.1878 C   0  0  0  0  0  0  0  0  0  0  0  0
    2.5107   68.5810   83.7392 O   0  0  0  0  0  0  0  0  0  0  0  0
    1.6381   66.5325   84.1236 N   0  0  0  0  0  0  0  0  0  0  0  0
    0.7790   66.8372   83.6846 H   0  0  0  0  0  0  0  0  0  0  0  0
    5.1174   65.0600   85.9312 C   0  0  0  0  0  0  0  0  0  0  0  0
    5.0740   65.2169   87.4459 C   0  0  0  0  0  0  0  0  0  0  0  0
    5.0008   67.9962   84.9341 C   0  0  0  0  0  0  0  0  0  0  0  0
    6.2790   67.5228   84.2569 C   0  0  0  0  0  0  0  0  0  0  0  0
   -1.4958   63.2918   81.5455 N   0  0  0  0  0  0  0  0  0  0  0  0
   -1.4339   62.1926   80.6969 C   0  0  0  0  0  0  0  0  0  0  0  0
   -0.9736   61.0919   80.9826 O   0  0  0  0  0  0  0  0  0  0  0  0
   -1.9011   64.1415   81.1702 H   0  0  0  0  0  0  0  0  0  0  0  0
   -2.0341   62.4994   79.3048 C   0  0  0  0  0  0  0  0  0  0  0  0
   -3.4652   61.9405   79.2383 C   0  0  0  0  0  0  0  0  0  0  0  0
   -3.6089   61.4510   77.8040 C   0  0  0  0  0  0  0  0  0  0  0  0
   -2.2174   60.9401   77.4777 C   0  0  0  0  0  0  0  0  0  0  0  0
   -1.3407   61.8522   78.1864 N   0  0  0  0  0  0  0  0  0  0  0  0
   -0.0884   62.1483   77.6956 C   0  0  0  0  0  0  0  0  0  0  0  0
    0.7305   63.1666   78.4479 C   0  0  0  0  0  0  0  0  0  0  0  0
    0.3656   61.6106   76.6850 O   0  0  0  0  0  0  0  0  0  0  0  0
    0.4918   63.8168   86.7673 O   0  0  0  0  0  0  0  0  0  0  0  0
   -0.3522   64.3484   87.7918 C   0  0  0  0  0  0  0  0  0  0  0  0
    0.3991   62.3222   89.1163 C   0  0  0  0  0  0  0  0  0  0  0  0
   -0.7727   63.2093   88.7187 C   0  0  0  0  0  0  0  0  0  0  0  0
 33 34  1  0  0  0
 34 32  1  0  0  0
 32 31  1  0  0  0
 31  1  1  0  0  0
  1  2  1  0  0  0
  2  3  2  0  0  0
  3  4  1  0  0  0
  4 19  1  0  0  0
 19 20  1  0  0  0
 20 21  2  0  0  0
 20 23  1  0  0  0
 23 24  1  0  0  0
 24 25  1  0  0  0
 25 26  1  0  0  0
 26 27  1  0  0  0
 27 28  1  0  0  0
 28 29  1  0  0  0
 28 30  2  0  0  0
  4  5  2  0  0  0
  5  6  1  0  0  0
  6  7  1  0  0  0
  7  8  2  0  0  0
  8  9  1  0  0  0
  9 15  1  0  0  0
 15 16  1  0  0  0
  9 10  2  0  0  0
 10 17  1  0  0  0
 17 18  1  0  0  0
 10 11  1  0  0  0
 11 12  2  0  0  0
 11 13  1  0  0  0
  6  1  2  0  0  0
 13  7  1  0  0  0
 27 23  1  0  0  0
 19 22  1  0  0  0
 13 14  1  0  0  0
M  END
> <minimizedAffinity>
-9.13702

$$$$
