


 33 36  0  0  0  0  0  0  0  0999 V2000
   -0.5681   63.7451   82.6202 C   0  0  0  0  0  0  0  0  0  0  0  0
   -1.1500   63.0101   81.5643 C   0  0  0  0  0  0  0  0  0  0  0  0
   -1.8709   61.8321   81.8060 C   0  0  0  0  0  0  0  0  0  0  0  0
   -2.0062   61.3765   83.1236 C   0  0  0  0  0  0  0  0  0  0  0  0
   -1.4302   62.0830   84.1795 C   0  0  0  0  0  0  0  0  0  0  0  0
   -0.7323   63.2674   83.9298 C   0  0  0  0  0  0  0  0  0  0  0  0
    2.8718   67.1413   83.4712 C   0  0  0  0  0  0  0  0  0  0  0  0
    3.1243   68.3079   82.8531 N   0  0  0  0  0  0  0  0  0  0  0  0
    2.2167   68.3454   81.8523 N   0  0  0  0  0  0  0  0  0  0  0  0
    2.1919   69.4735   80.9519 C   0  0  0  0  0  0  0  0  0  0  0  0
    1.3859   67.2660   81.8268 C   0  0  0  0  0  0  0  0  0  0  0  0
    0.3258   66.8746   81.0534 C   0  0  0  0  0  0  0  0  0  0  0  0
   -0.1633   67.6025   80.0118 O   0  0  0  0  0  0  0  0  0  0  0  0
   -0.3069   65.7286   81.3096 N   0  0  0  0  0  0  0  0  0  0  0  0
    0.1787   64.9695   82.3216 C   0  0  0  0  0  0  0  0  0  0  0  0
    1.2026   65.2695   83.1467 N   0  0  0  0  0  0  0  0  0  0  0  0
    1.7954   66.4499   82.8630 C   0  0  0  0  0  0  0  0  0  0  0  0
   -0.8688   67.0107   79.6925 H   0  0  0  0  0  0  0  0  0  0  0  0
    3.6684   66.7275   84.6623 C   0  0  0  0  0  0  0  0  0  0  0  0
    5.9888   66.5050   85.6830 C   0  0  0  0  0  0  0  0  0  0  0  0
    5.1378   67.1492   84.5987 C   0  0  0  0  0  0  0  0  0  0  0  0
   -2.4996   61.0290   80.7074 C   0  0  0  0  0  0  0  0  0  0  0  0
   -2.7531   59.8457   80.9297 O   0  0  0  0  0  0  0  0  0  0  0  0
   -2.7828   61.7349   79.3724 C   0  0  0  0  0  0  0  0  0  0  0  0
   -2.2443   60.9987   78.2102 N   0  0  0  0  0  0  0  0  0  0  0  0
   -0.7664   61.0503   78.1243 C   0  0  0  0  0  0  0  0  0  0  0  0
   -0.2090   62.4053   77.6519 C   0  0  0  0  0  0  0  0  0  0  0  0
   -0.7905   62.8141   76.4080 O   0  0  0  0  0  0  0  0  0  0  0  0
   -2.2182   62.8621   76.5012 C   0  0  0  0  0  0  0  0  0  0  0  0
   -2.7974   61.5062   76.9368 C   0  0  0  0  0  0  0  0  0  0  0  0
   -0.1023   63.8974   84.9729 O   0  0  0  0  0  0  0  0  0  0  0  0
   -0.5439   63.3835   86.2352 C   0  0  0  0  0  0  0  0  0  0  0  0
    0.5149   63.7234   87.2678 C   0  0  0  0  0  0  0  0  0  0  0  0
 20 21  1  0  0  0
 21 19  1  0  0  0
 19  7  1  0  0  0
  7  8  2  0  0  0
  8  9  1  0  0  0
  9 10  1  0  0  0
  9 11  1  0  0  0
 11 12  2  0  0  0
 12 13  1  0  0  0
 12 14  1  0  0  0
 14 15  2  0  0  0
 15  1  1  0  0  0
  1  2  1  0  0  0
  2  3  2  0  0  0
  3 22  1  0  0  0
 22 23  2  0  0  0
 22 24  1  0  0  0
 24 25  1  0  0  0
 25 26  1  0  0  0
 26 27  1  0  0  0
 27 28  1  0  0  0
 28 29  1  0  0  0
 29 30  1  0  0  0
  3  4  1  0  0  0
  4  5  2  0  0  0
  5  6  1  0  0  0
  6 31  1  0  0  0
 31 32  1  0  0  0
 32 33  1  0  0  0
 15 16  1  0  0  0
 16 17  2  0  0  0
 17  7  1  0  0  0
 17 11  1  0  0  0
  6  1  2  0  0  0
 30 25  1  0  0  0
 13 18  1  0  0  0
M  END
> <minimizedAffinity>
-1.82876

$$$$



 33 36  0  0  0  0  0  0  0  0999 V2000
    0.1127   64.0326   83.6518 C   0  0  0  0  0  0  0  0  0  0  0  0
   -0.3901   63.3538   82.5203 C   0  0  0  0  0  0  0  0  0  0  0  0
   -1.2586   62.2610   82.6515 C   0  0  0  0  0  0  0  0  0  0  0  0
   -1.6249   61.8343   83.9343 C   0  0  0  0  0  0  0  0  0  0  0  0
   -1.1310   62.4854   85.0648 C   0  0  0  0  0  0  0  0  0  0  0  0
   -0.2833   63.5869   84.9225 C   0  0  0  0  0  0  0  0  0  0  0  0
    4.0169   66.7936   84.7591 C   0  0  0  0  0  0  0  0  0  0  0  0
    4.4199   67.9789   84.2699 N   0  0  0  0  0  0  0  0  0  0  0  0
    3.5067   68.2605   83.3143 N   0  0  0  0  0  0  0  0  0  0  0  0
    3.6240   69.4800   82.5506 C   0  0  0  0  0  0  0  0  0  0  0  0
    2.5305   67.3175   83.1958 C   0  0  0  0  0  0  0  0  0  0  0  0
    1.4100   67.1715   82.4223 C   0  0  0  0  0  0  0  0  0  0  0  0
    1.0082   68.0787   81.4898 O   0  0  0  0  0  0  0  0  0  0  0  0
    0.6263   66.1022   82.5685 N   0  0  0  0  0  0  0  0  0  0  0  0
    1.0196   65.1683   83.4683 C   0  0  0  0  0  0  0  0  0  0  0  0
    2.0923   65.2232   84.2839 N   0  0  0  0  0  0  0  0  0  0  0  0
    2.8409   66.3352   84.1157 C   0  0  0  0  0  0  0  0  0  0  0  0
    0.2194   67.6326   81.1310 H   0  0  0  0  0  0  0  0  0  0  0  0
    4.7706   66.1348   85.8647 C   0  0  0  0  0  0  0  0  0  0  0  0
    7.2737   66.0716   85.4104 C   0  0  0  0  0  0  0  0  0  0  0  0
    6.1359   66.7671   86.1430 C   0  0  0  0  0  0  0  0  0  0  0  0
   -1.8088   61.5190   81.4709 C   0  0  0  0  0  0  0  0  0  0  0  0
   -2.1361   60.3436   81.6290 O   0  0  0  0  0  0  0  0  0  0  0  0
   -1.9241   62.2737   80.1375 C   0  0  0  0  0  0  0  0  0  0  0  0
   -0.9998   61.7586   79.1065 N   0  0  0  0  0  0  0  0  0  0  0  0
   -0.4329   62.8257   78.2497 C   0  0  0  0  0  0  0  0  0  0  0  0
   -1.4224   63.3999   77.2196 C   0  0  0  0  0  0  0  0  0  0  0  0
   -2.0012   62.3706   76.4084 O   0  0  0  0  0  0  0  0  0  0  0  0
   -2.6382   61.3772   77.2187 C   0  0  0  0  0  0  0  0  0  0  0  0
   -1.6559   60.7649   78.2306 C   0  0  0  0  0  0  0  0  0  0  0  0
    0.2575   64.1561   86.0475 O   0  0  0  0  0  0  0  0  0  0  0  0
   -0.4579   63.7641   87.2251 C   0  0  0  0  0  0  0  0  0  0  0  0
    0.5589   63.2864   88.2453 C   0  0  0  0  0  0  0  0  0  0  0  0
 20 21  1  0  0  0
 21 19  1  0  0  0
 19  7  1  0  0  0
  7  8  2  0  0  0
  8  9  1  0  0  0
  9 10  1  0  0  0
  9 11  1  0  0  0
 11 12  2  0  0  0
 12 13  1  0  0  0
 12 14  1  0  0  0
 14 15  2  0  0  0
 15  1  1  0  0  0
  1  2  1  0  0  0
  2  3  2  0  0  0
  3 22  1  0  0  0
 22 23  2  0  0  0
 22 24  1  0  0  0
 24 25  1  0  0  0
 25 26  1  0  0  0
 26 27  1  0  0  0
 27 28  1  0  0  0
 28 29  1  0  0  0
 29 30  1  0  0  0
  3  4  1  0  0  0
  4  5  2  0  0  0
  5  6  1  0  0  0
  6 31  1  0  0  0
 31 32  1  0  0  0
 32 33  1  0  0  0
 15 16  1  0  0  0
 16 17  2  0  0  0
 17  7  1  0  0  0
 17 11  1  0  0  0
  6  1  2  0  0  0
 30 25  1  0  0  0
 13 18  1  0  0  0
M  END
> <minimizedAffinity>
-1.82065

$$$$



 33 36  0  0  0  0  0  0  0  0999 V2000
   -0.1921   64.3058   81.3680 C   0  0  0  0  0  0  0  0  0  0  0  0
   -0.8811   63.8112   82.4970 C   0  0  0  0  0  0  0  0  0  0  0  0
   -1.4748   62.5411   82.4905 C   0  0  0  0  0  0  0  0  0  0  0  0
   -1.3856   61.7551   81.3345 C   0  0  0  0  0  0  0  0  0  0  0  0
   -0.7180   62.2300   80.2055 C   0  0  0  0  0  0  0  0  0  0  0  0
   -0.1111   63.4883   80.2300 C   0  0  0  0  0  0  0  0  0  0  0  0
    2.8517   67.7145   83.1591 C   0  0  0  0  0  0  0  0  0  0  0  0
    2.9685   69.0229   82.8739 N   0  0  0  0  0  0  0  0  0  0  0  0
    2.0564   69.2224   81.8967 N   0  0  0  0  0  0  0  0  0  0  0  0
    1.9002   70.5377   81.3225 C   0  0  0  0  0  0  0  0  0  0  0  0
    1.3513   68.1034   81.5700 C   0  0  0  0  0  0  0  0  0  0  0  0
    0.3369   67.8153   80.6963 C   0  0  0  0  0  0  0  0  0  0  0  0
   -0.2367   68.7333   79.8703 O   0  0  0  0  0  0  0  0  0  0  0  0
   -0.1621   66.5802   80.6287 N   0  0  0  0  0  0  0  0  0  0  0  0
    0.4114   65.6398   81.4180 C   0  0  0  0  0  0  0  0  0  0  0  0
    1.4002   65.8226   82.3167 N   0  0  0  0  0  0  0  0  0  0  0  0
    1.8556   67.0936   82.3659 C   0  0  0  0  0  0  0  0  0  0  0  0
   -0.8735   68.1726   79.3907 H   0  0  0  0  0  0  0  0  0  0  0  0
    3.6966   67.0921   84.2188 C   0  0  0  0  0  0  0  0  0  0  0  0
    5.9882   67.0322   85.3236 C   0  0  0  0  0  0  0  0  0  0  0  0
    5.0127   67.8305   84.4715 C   0  0  0  0  0  0  0  0  0  0  0  0
   -2.2136   61.9877   83.6717 C   0  0  0  0  0  0  0  0  0  0  0  0
   -2.9419   61.0125   83.4921 O   0  0  0  0  0  0  0  0  0  0  0  0
   -2.0168   62.6777   85.0303 C   0  0  0  0  0  0  0  0  0  0  0  0
   -0.8526   62.1546   85.7745 N   0  0  0  0  0  0  0  0  0  0  0  0
   -1.1815   61.7589   87.1636 C   0  0  0  0  0  0  0  0  0  0  0  0
   -1.3908   62.9435   88.1241 C   0  0  0  0  0  0  0  0  0  0  0  0
   -0.2708   63.8369   88.1173 O   0  0  0  0  0  0  0  0  0  0  0  0
    0.0028   64.3054   86.7925 C   0  0  0  0  0  0  0  0  0  0  0  0
    0.2511   63.1368   85.8248 C   0  0  0  0  0  0  0  0  0  0  0  0
    0.4644   63.9685   79.0810 O   0  0  0  0  0  0  0  0  0  0  0  0
   -0.0670   63.3175   77.9207 C   0  0  0  0  0  0  0  0  0  0  0  0
   -0.9234   64.3258   77.1773 C   0  0  0  0  0  0  0  0  0  0  0  0
 20 21  1  0  0  0
 21 19  1  0  0  0
 19  7  1  0  0  0
  7  8  2  0  0  0
  8  9  1  0  0  0
  9 10  1  0  0  0
  9 11  1  0  0  0
 11 12  2  0  0  0
 12 13  1  0  0  0
 12 14  1  0  0  0
 14 15  2  0  0  0
 15  1  1  0  0  0
  1  2  1  0  0  0
  2  3  2  0  0  0
  3 22  1  0  0  0
 22 23  2  0  0  0
 22 24  1  0  0  0
 24 25  1  0  0  0
 25 26  1  0  0  0
 26 27  1  0  0  0
 27 28  1  0  0  0
 28 29  1  0  0  0
 29 30  1  0  0  0
  3  4  1  0  0  0
  4  5  2  0  0  0
  5  6  1  0  0  0
  6 31  1  0  0  0
 31 32  1  0  0  0
 32 33  1  0  0  0
 15 16  1  0  0  0
 16 17  2  0  0  0
 17  7  1  0  0  0
 17 11  1  0  0  0
  6  1  2  0  0  0
 30 25  1  0  0  0
 13 18  1  0  0  0
M  END
> <minimizedAffinity>
-1.80049

$$$$



 33 36  0  0  0  0  0  0  0  0999 V2000
    0.1983   65.1173   80.8164 C   0  0  0  0  0  0  0  0  0  0  0  0
    0.0330   64.8297   79.4439 C   0  0  0  0  0  0  0  0  0  0  0  0
   -0.5521   63.6299   79.0152 C   0  0  0  0  0  0  0  0  0  0  0  0
   -0.9722   62.6985   79.9734 C   0  0  0  0  0  0  0  0  0  0  0  0
   -0.8085   62.9596   81.3338 C   0  0  0  0  0  0  0  0  0  0  0  0
   -0.2440   64.1678   81.7507 C   0  0  0  0  0  0  0  0  0  0  0  0
    3.3057   67.8850   83.4194 C   0  0  0  0  0  0  0  0  0  0  0  0
    3.4325   69.2207   83.5015 N   0  0  0  0  0  0  0  0  0  0  0  0
    2.5080   69.6862   82.6325 N   0  0  0  0  0  0  0  0  0  0  0  0
    2.3575   71.1095   82.4434 C   0  0  0  0  0  0  0  0  0  0  0  0
    1.7859   68.7042   82.0240 C   0  0  0  0  0  0  0  0  0  0  0  0
    0.7554   68.6731   81.1227 C   0  0  0  0  0  0  0  0  0  0  0  0
    0.1794   69.7859   80.5900 O   0  0  0  0  0  0  0  0  0  0  0  0
    0.2419   67.5070   80.7280 N   0  0  0  0  0  0  0  0  0  0  0  0
    0.8169   66.3826   81.2193 C   0  0  0  0  0  0  0  0  0  0  0  0
    1.8211   66.3058   82.1164 N   0  0  0  0  0  0  0  0  0  0  0  0
    2.2911   67.5117   82.5039 C   0  0  0  0  0  0  0  0  0  0  0  0
   -0.4706   69.3822   79.9863 H   0  0  0  0  0  0  0  0  0  0  0  0
    4.1597   66.9906   84.2531 C   0  0  0  0  0  0  0  0  0  0  0  0
    5.6436   66.8037   86.3118 C   0  0  0  0  0  0  0  0  0  0  0  0
    4.9980   67.7336   85.2953 C   0  0  0  0  0  0  0  0  0  0  0  0
   -0.7409   63.2945   77.5664 C   0  0  0  0  0  0  0  0  0  0  0  0
   -1.0362   64.2073   76.7961 O   0  0  0  0  0  0  0  0  0  0  0  0
   -0.5575   61.8305   77.1377 C   0  0  0  0  0  0  0  0  0  0  0  0
   -1.7352   61.2903   76.4277 N   0  0  0  0  0  0  0  0  0  0  0  0
   -3.0208   61.7402   77.0098 C   0  0  0  0  0  0  0  0  0  0  0  0
   -3.3840   61.0573   78.3407 C   0  0  0  0  0  0  0  0  0  0  0  0
   -3.3664   59.6292   78.2268 O   0  0  0  0  0  0  0  0  0  0  0  0
   -2.0958   59.1685   77.7550 C   0  0  0  0  0  0  0  0  0  0  0  0
   -1.7313   59.8122   76.4072 C   0  0  0  0  0  0  0  0  0  0  0  0
   -0.0146   64.3648   83.0888 O   0  0  0  0  0  0  0  0  0  0  0  0
    0.0449   63.1204   83.7960 C   0  0  0  0  0  0  0  0  0  0  0  0
   -0.7229   63.2899   85.0939 C   0  0  0  0  0  0  0  0  0  0  0  0
 20 21  1  0  0  0
 21 19  1  0  0  0
 19  7  1  0  0  0
  7  8  2  0  0  0
  8  9  1  0  0  0
  9 10  1  0  0  0
  9 11  1  0  0  0
 11 12  2  0  0  0
 12 13  1  0  0  0
 12 14  1  0  0  0
 14 15  2  0  0  0
 15  1  1  0  0  0
  1  2  1  0  0  0
  2  3  2  0  0  0
  3 22  1  0  0  0
 22 23  2  0  0  0
 22 24  1  0  0  0
 24 25  1  0  0  0
 25 26  1  0  0  0
 26 27  1  0  0  0
 27 28  1  0  0  0
 28 29  1  0  0  0
 29 30  1  0  0  0
  3  4  1  0  0  0
  4  5  2  0  0  0
  5  6  1  0  0  0
  6 31  1  0  0  0
 31 32  1  0  0  0
 32 33  1  0  0  0
 15 16  1  0  0  0
 16 17  2  0  0  0
 17  7  1  0  0  0
 17 11  1  0  0  0
  6  1  2  0  0  0
 30 25  1  0  0  0
 13 18  1  0  0  0
M  END
> <minimizedAffinity>
-1.71571

$$$$



 33 36  0  0  0  0  0  0  0  0999 V2000
    1.7999   67.4446   82.5409 C   0  0  0  0  0  0  0  0  0  0  0  0
    1.1922   68.5266   81.8673 C   0  0  0  0  0  0  0  0  0  0  0  0
    1.7863   69.7963   81.8417 C   0  0  0  0  0  0  0  0  0  0  0  0
    3.0038   69.9903   82.5066 C   0  0  0  0  0  0  0  0  0  0  0  0
    3.6150   68.9366   83.1863 C   0  0  0  0  0  0  0  0  0  0  0  0
    3.0253   67.6699   83.1873 C   0  0  0  0  0  0  0  0  0  0  0  0
   -0.3548   63.5771   80.4215 C   0  0  0  0  0  0  0  0  0  0  0  0
   -0.9733   62.5128   80.9615 N   0  0  0  0  0  0  0  0  0  0  0  0
   -0.8358   62.7012   82.2927 N   0  0  0  0  0  0  0  0  0  0  0  0
   -1.3812   61.7309   83.2120 C   0  0  0  0  0  0  0  0  0  0  0  0
   -0.1798   63.8502   82.6176 C   0  0  0  0  0  0  0  0  0  0  0  0
    0.1665   64.4734   83.7867 C   0  0  0  0  0  0  0  0  0  0  0  0
   -0.1249   63.9832   85.0231 O   0  0  0  0  0  0  0  0  0  0  0  0
    0.8129   65.6399   83.7613 N   0  0  0  0  0  0  0  0  0  0  0  0
    1.1426   66.1353   82.5439 C   0  0  0  0  0  0  0  0  0  0  0  0
    0.8382   65.6091   81.3400 N   0  0  0  0  0  0  0  0  0  0  0  0
    0.1631   64.4414   81.4174 C   0  0  0  0  0  0  0  0  0  0  0  0
    0.2947   64.6569   85.5887 H   0  0  0  0  0  0  0  0  0  0  0  0
   -0.2978   63.7494   78.9412 C   0  0  0  0  0  0  0  0  0  0  0  0
   -1.5737   62.1997   77.3772 C   0  0  0  0  0  0  0  0  0  0  0  0
   -0.2933   62.4301   78.1662 C   0  0  0  0  0  0  0  0  0  0  0  0
    1.1667   70.9650   81.1366 C   0  0  0  0  0  0  0  0  0  0  0  0
    0.0061   70.8533   80.7438 O   0  0  0  0  0  0  0  0  0  0  0  0
    2.0233   72.2262   80.9460 C   0  0  0  0  0  0  0  0  0  0  0  0
    1.6233   73.3306   81.8421 N   0  0  0  0  0  0  0  0  0  0  0  0
    0.7269   74.3125   81.1891 C   0  0  0  0  0  0  0  0  0  0  0  0
    1.4345   75.2453   80.1897 C   0  0  0  0  0  0  0  0  0  0  0  0
    2.5498   75.9166   80.7881 O   0  0  0  0  0  0  0  0  0  0  0  0
    3.4765   74.9766   81.3420 C   0  0  0  0  0  0  0  0  0  0  0  0
    2.7963   74.0586   82.3708 C   0  0  0  0  0  0  0  0  0  0  0  0
    3.5999   66.6724   83.9334 O   0  0  0  0  0  0  0  0  0  0  0  0
    4.7000   67.1676   84.7061 C   0  0  0  0  0  0  0  0  0  0  0  0
    4.9664   66.1723   85.8203 C   0  0  0  0  0  0  0  0  0  0  0  0
 20 21  1  0  0  0
 21 19  1  0  0  0
 19  7  1  0  0  0
  7  8  2  0  0  0
  8  9  1  0  0  0
  9 10  1  0  0  0
  9 11  1  0  0  0
 11 12  2  0  0  0
 12 13  1  0  0  0
 12 14  1  0  0  0
 14 15  2  0  0  0
 15  1  1  0  0  0
  1  2  1  0  0  0
  2  3  2  0  0  0
  3 22  1  0  0  0
 22 23  2  0  0  0
 22 24  1  0  0  0
 24 25  1  0  0  0
 25 26  1  0  0  0
 26 27  1  0  0  0
 27 28  1  0  0  0
 28 29  1  0  0  0
 29 30  1  0  0  0
  3  4  1  0  0  0
  4  5  2  0  0  0
  5  6  1  0  0  0
  6 31  1  0  0  0
 31 32  1  0  0  0
 32 33  1  0  0  0
 15 16  1  0  0  0
 16 17  2  0  0  0
 17  7  1  0  0  0
 17 11  1  0  0  0
  6  1  2  0  0  0
 30 25  1  0  0  0
 13 18  1  0  0  0
M  END
> <minimizedAffinity>
-1.67926

$$$$



 33 36  0  0  0  0  0  0  0  0999 V2000
    0.7912   67.4611   80.9868 C   0  0  0  0  0  0  0  0  0  0  0  0
    0.3263   66.7725   79.8451 C   0  0  0  0  0  0  0  0  0  0  0  0
    0.1649   65.3797   79.8487 C   0  0  0  0  0  0  0  0  0  0  0  0
    0.4804   64.6621   81.0095 C   0  0  0  0  0  0  0  0  0  0  0  0
    0.9507   65.3230   82.1444 C   0  0  0  0  0  0  0  0  0  0  0  0
    1.0873   66.7135   82.1373 C   0  0  0  0  0  0  0  0  0  0  0  0
    3.3601   71.6166   80.5129 C   0  0  0  0  0  0  0  0  0  0  0  0
    2.9910   72.8990   80.6739 N   0  0  0  0  0  0  0  0  0  0  0  0
    1.6733   72.8211   80.9641 N   0  0  0  0  0  0  0  0  0  0  0  0
    0.9201   74.0303   81.1977 C   0  0  0  0  0  0  0  0  0  0  0  0
    1.1997   71.5448   81.0182 C   0  0  0  0  0  0  0  0  0  0  0  0
   -0.0120   70.9694   81.2940 C   0  0  0  0  0  0  0  0  0  0  0  0
   -1.1325   71.6751   81.6109 O   0  0  0  0  0  0  0  0  0  0  0  0
   -0.1451   69.6423   81.2804 N   0  0  0  0  0  0  0  0  0  0  0  0
    0.9471   68.9169   80.9379 C   0  0  0  0  0  0  0  0  0  0  0  0
    2.1823   69.3837   80.6632 N   0  0  0  0  0  0  0  0  0  0  0  0
    2.2729   70.7307   80.7132 C   0  0  0  0  0  0  0  0  0  0  0  0
   -1.7811   70.9534   81.7029 H   0  0  0  0  0  0  0  0  0  0  0  0
    4.7742   71.2705   80.1892 C   0  0  0  0  0  0  0  0  0  0  0  0
    6.2866   72.2997   78.4203 C   0  0  0  0  0  0  0  0  0  0  0  0
    5.6257   72.4740   79.7796 C   0  0  0  0  0  0  0  0  0  0  0  0
   -0.3255   64.6194   78.6535 C   0  0  0  0  0  0  0  0  0  0  0  0
   -0.5033   65.2411   77.6068 O   0  0  0  0  0  0  0  0  0  0  0  0
   -0.5787   63.1125   78.8145 C   0  0  0  0  0  0  0  0  0  0  0  0
   -1.8643   62.6822   78.2272 N   0  0  0  0  0  0  0  0  0  0  0  0
   -2.6714   61.8463   79.1459 C   0  0  0  0  0  0  0  0  0  0  0  0
   -2.1501   60.4074   79.3116 C   0  0  0  0  0  0  0  0  0  0  0  0
   -1.9994   59.7485   78.0484 O   0  0  0  0  0  0  0  0  0  0  0  0
   -1.1430   60.4970   77.1792 C   0  0  0  0  0  0  0  0  0  0  0  0
   -1.6670   61.9274   76.9716 C   0  0  0  0  0  0  0  0  0  0  0  0
    1.6324   67.3310   83.2342 O   0  0  0  0  0  0  0  0  0  0  0  0
    2.9595   66.8575   83.4929 C   0  0  0  0  0  0  0  0  0  0  0  0
    3.5919   67.7892   84.5101 C   0  0  0  0  0  0  0  0  0  0  0  0
 20 21  1  0  0  0
 21 19  1  0  0  0
 19  7  1  0  0  0
  7  8  2  0  0  0
  8  9  1  0  0  0
  9 10  1  0  0  0
  9 11  1  0  0  0
 11 12  2  0  0  0
 12 13  1  0  0  0
 12 14  1  0  0  0
 14 15  2  0  0  0
 15  1  1  0  0  0
  1  2  1  0  0  0
  2  3  2  0  0  0
  3 22  1  0  0  0
 22 23  2  0  0  0
 22 24  1  0  0  0
 24 25  1  0  0  0
 25 26  1  0  0  0
 26 27  1  0  0  0
 27 28  1  0  0  0
 28 29  1  0  0  0
 29 30  1  0  0  0
  3  4  1  0  0  0
  4  5  2  0  0  0
  5  6  1  0  0  0
  6 31  1  0  0  0
 31 32  1  0  0  0
 32 33  1  0  0  0
 15 16  1  0  0  0
 16 17  2  0  0  0
 17  7  1  0  0  0
 17 11  1  0  0  0
  6  1  2  0  0  0
 30 25  1  0  0  0
 13 18  1  0  0  0
M  END
> <minimizedAffinity>
-1.64568

$$$$



 33 36  0  0  0  0  0  0  0  0999 V2000
    1.3774   68.4395   81.5740 C   0  0  0  0  0  0  0  0  0  0  0  0
    0.6842   67.6311   80.6468 C   0  0  0  0  0  0  0  0  0  0  0  0
    0.6197   66.2387   80.7982 C   0  0  0  0  0  0  0  0  0  0  0  0
    1.2648   65.6432   81.8896 C   0  0  0  0  0  0  0  0  0  0  0  0
    1.9633   66.4236   82.8110 C   0  0  0  0  0  0  0  0  0  0  0  0
    2.0031   67.8124   82.6627 C   0  0  0  0  0  0  0  0  0  0  0  0
    3.6023   72.6961   80.5625 C   0  0  0  0  0  0  0  0  0  0  0  0
    3.1457   73.9591   80.6175 N   0  0  0  0  0  0  0  0  0  0  0  0
    1.8523   73.8185   80.9835 N   0  0  0  0  0  0  0  0  0  0  0  0
    1.0219   74.9893   81.1382 C   0  0  0  0  0  0  0  0  0  0  0  0
    1.4790   72.5241   81.1866 C   0  0  0  0  0  0  0  0  0  0  0  0
    0.3279   71.8958   81.5810 C   0  0  0  0  0  0  0  0  0  0  0  0
   -0.8267   72.5494   81.8870 O   0  0  0  0  0  0  0  0  0  0  0  0
    0.2944   70.5681   81.7036 N   0  0  0  0  0  0  0  0  0  0  0  0
    1.4211   69.8903   81.3756 C   0  0  0  0  0  0  0  0  0  0  0  0
    2.6038   70.4125   80.9915 N   0  0  0  0  0  0  0  0  0  0  0  0
    2.5951   71.7608   80.9055 C   0  0  0  0  0  0  0  0  0  0  0  0
   -1.4144   71.7970   82.0830 H   0  0  0  0  0  0  0  0  0  0  0  0
    5.0221   72.4193   80.1992 C   0  0  0  0  0  0  0  0  0  0  0  0
    6.3610   73.5796   78.3726 C   0  0  0  0  0  0  0  0  0  0  0  0
    5.8079   73.6659   79.7873 C   0  0  0  0  0  0  0  0  0  0  0  0
   -0.1070   65.3530   79.8314 C   0  0  0  0  0  0  0  0  0  0  0  0
   -0.0756   65.6521   78.6384 O   0  0  0  0  0  0  0  0  0  0  0  0
   -0.8484   64.1305   80.3941 C   0  0  0  0  0  0  0  0  0  0  0  0
   -0.3522   62.8546   79.8387 N   0  0  0  0  0  0  0  0  0  0  0  0
   -1.1636   62.3617   78.7017 C   0  0  0  0  0  0  0  0  0  0  0  0
   -2.5259   61.7712   79.1081 C   0  0  0  0  0  0  0  0  0  0  0  0
   -2.3856   60.7438   80.0966 O   0  0  0  0  0  0  0  0  0  0  0  0
   -1.6852   61.2310   81.2461 C   0  0  0  0  0  0  0  0  0  0  0  0
   -0.3054   61.7922   80.8655 C   0  0  0  0  0  0  0  0  0  0  0  0
    2.7671   68.5495   83.5316 O   0  0  0  0  0  0  0  0  0  0  0  0
    3.3761   67.7165   84.5254 C   0  0  0  0  0  0  0  0  0  0  0  0
    4.8743   67.9515   84.4695 C   0  0  0  0  0  0  0  0  0  0  0  0
 20 21  1  0  0  0
 21 19  1  0  0  0
 19  7  1  0  0  0
  7  8  2  0  0  0
  8  9  1  0  0  0
  9 10  1  0  0  0
  9 11  1  0  0  0
 11 12  2  0  0  0
 12 13  1  0  0  0
 12 14  1  0  0  0
 14 15  2  0  0  0
 15  1  1  0  0  0
  1  2  1  0  0  0
  2  3  2  0  0  0
  3 22  1  0  0  0
 22 23  2  0  0  0
 22 24  1  0  0  0
 24 25  1  0  0  0
 25 26  1  0  0  0
 26 27  1  0  0  0
 27 28  1  0  0  0
 28 29  1  0  0  0
 29 30  1  0  0  0
  3  4  1  0  0  0
  4  5  2  0  0  0
  5  6  1  0  0  0
  6 31  1  0  0  0
 31 32  1  0  0  0
 32 33  1  0  0  0
 15 16  1  0  0  0
 16 17  2  0  0  0
 17  7  1  0  0  0
 17 11  1  0  0  0
  6  1  2  0  0  0
 30 25  1  0  0  0
 13 18  1  0  0  0
M  END
> <minimizedAffinity>
-1.64367

$$$$



 33 36  0  0  0  0  0  0  0  0999 V2000
    2.2332   68.6784   81.8123 C   0  0  0  0  0  0  0  0  0  0  0  0
    1.3622   67.9824   80.9458 C   0  0  0  0  0  0  0  0  0  0  0  0
    0.9320   66.6799   81.2358 C   0  0  0  0  0  0  0  0  0  0  0  0
    1.3853   66.0594   82.4068 C   0  0  0  0  0  0  0  0  0  0  0  0
    2.2541   66.7265   83.2706 C   0  0  0  0  0  0  0  0  0  0  0  0
    2.6595   68.0324   82.9832 C   0  0  0  0  0  0  0  0  0  0  0  0
    1.6139   73.5290   81.3879 C   0  0  0  0  0  0  0  0  0  0  0  0
    2.3999   74.4683   80.8340 N   0  0  0  0  0  0  0  0  0  0  0  0
    3.4909   73.7794   80.4319 N   0  0  0  0  0  0  0  0  0  0  0  0
    4.5783   74.4760   79.7865 C   0  0  0  0  0  0  0  0  0  0  0  0
    3.4176   72.4427   80.6847 C   0  0  0  0  0  0  0  0  0  0  0  0
    4.2267   71.3637   80.4474 C   0  0  0  0  0  0  0  0  0  0  0  0
    5.4338   71.4432   79.8225 O   0  0  0  0  0  0  0  0  0  0  0  0
    3.8428   70.1409   80.8171 N   0  0  0  0  0  0  0  0  0  0  0  0
    2.6592   70.0373   81.4688 C   0  0  0  0  0  0  0  0  0  0  0  0
    1.7874   71.0304   81.7381 N   0  0  0  0  0  0  0  0  0  0  0  0
    2.2091   72.2451   81.3234 C   0  0  0  0  0  0  0  0  0  0  0  0
    5.7212   70.5128   79.8643 H   0  0  0  0  0  0  0  0  0  0  0  0
    0.2817   73.8923   81.9514 C   0  0  0  0  0  0  0  0  0  0  0  0
   -0.3306   76.3559   82.1281 C   0  0  0  0  0  0  0  0  0  0  0  0
   -0.3676   75.0993   81.2711 C   0  0  0  0  0  0  0  0  0  0  0  0
    0.0088   65.9142   80.3365 C   0  0  0  0  0  0  0  0  0  0  0  0
   -0.2126   66.3682   79.2146 O   0  0  0  0  0  0  0  0  0  0  0  0
   -0.6051   64.6132   80.8763 C   0  0  0  0  0  0  0  0  0  0  0  0
   -0.0840   63.4094   80.1966 N   0  0  0  0  0  0  0  0  0  0  0  0
   -0.9973   62.8915   79.1517 C   0  0  0  0  0  0  0  0  0  0  0  0
   -2.2389   62.1666   79.7019 C   0  0  0  0  0  0  0  0  0  0  0  0
   -1.8822   61.1175   80.6100 O   0  0  0  0  0  0  0  0  0  0  0  0
   -1.0763   61.6194   81.6815 C   0  0  0  0  0  0  0  0  0  0  0  0
    0.1884   62.3157   81.1531 C   0  0  0  0  0  0  0  0  0  0  0  0
    3.5806   68.6352   83.8017 O   0  0  0  0  0  0  0  0  0  0  0  0
    4.0637   67.7278   84.7996 C   0  0  0  0  0  0  0  0  0  0  0  0
    5.5795   67.7283   84.7289 C   0  0  0  0  0  0  0  0  0  0  0  0
 20 21  1  0  0  0
 21 19  1  0  0  0
 19  7  1  0  0  0
  7  8  2  0  0  0
  8  9  1  0  0  0
  9 10  1  0  0  0
  9 11  1  0  0  0
 11 12  2  0  0  0
 12 13  1  0  0  0
 12 14  1  0  0  0
 14 15  2  0  0  0
 15  1  1  0  0  0
  1  2  1  0  0  0
  2  3  2  0  0  0
  3 22  1  0  0  0
 22 23  2  0  0  0
 22 24  1  0  0  0
 24 25  1  0  0  0
 25 26  1  0  0  0
 26 27  1  0  0  0
 27 28  1  0  0  0
 28 29  1  0  0  0
 29 30  1  0  0  0
  3  4  1  0  0  0
  4  5  2  0  0  0
  5  6  1  0  0  0
  6 31  1  0  0  0
 31 32  1  0  0  0
 32 33  1  0  0  0
 15 16  1  0  0  0
 16 17  2  0  0  0
 17  7  1  0  0  0
 17 11  1  0  0  0
  6  1  2  0  0  0
 30 25  1  0  0  0
 13 18  1  0  0  0
M  END
> <minimizedAffinity>
-1.64348

$$$$



 33 36  0  0  0  0  0  0  0  0999 V2000
   -0.1872   63.9464   83.5164 C   0  0  0  0  0  0  0  0  0  0  0  0
   -0.7897   63.6390   82.2770 C   0  0  0  0  0  0  0  0  0  0  0  0
   -1.7399   62.6145   82.1619 C   0  0  0  0  0  0  0  0  0  0  0  0
   -2.0883   61.8797   83.3024 C   0  0  0  0  0  0  0  0  0  0  0  0
   -1.4968   62.1613   84.5339 C   0  0  0  0  0  0  0  0  0  0  0  0
   -0.5671   63.1987   84.6419 C   0  0  0  0  0  0  0  0  0  0  0  0
    1.8996   68.1384   82.0453 C   0  0  0  0  0  0  0  0  0  0  0  0
    3.0273   68.7465   82.4517 N   0  0  0  0  0  0  0  0  0  0  0  0
    3.4819   67.9515   83.4456 N   0  0  0  0  0  0  0  0  0  0  0  0
    4.6977   68.3011   84.1411 C   0  0  0  0  0  0  0  0  0  0  0  0
    2.7046   66.8549   83.6678 C   0  0  0  0  0  0  0  0  0  0  0  0
    2.7616   65.7791   84.5131 C   0  0  0  0  0  0  0  0  0  0  0  0
    3.7549   65.5810   85.4231 O   0  0  0  0  0  0  0  0  0  0  0  0
    1.8198   64.8358   84.4659 N   0  0  0  0  0  0  0  0  0  0  0  0
    0.8027   65.0238   83.5903 C   0  0  0  0  0  0  0  0  0  0  0  0
    0.6615   66.0359   82.7102 N   0  0  0  0  0  0  0  0  0  0  0  0
    1.6516   66.9524   82.7794 C   0  0  0  0  0  0  0  0  0  0  0  0
    3.4488   64.7598   85.8496 H   0  0  0  0  0  0  0  0  0  0  0  0
    1.0911   68.7096   80.9297 C   0  0  0  0  0  0  0  0  0  0  0  0
   -0.0360   70.9910   80.9183 C   0  0  0  0  0  0  0  0  0  0  0  0
    1.2646   70.2194   80.7520 C   0  0  0  0  0  0  0  0  0  0  0  0
   -2.3969   62.2632   80.8611 C   0  0  0  0  0  0  0  0  0  0  0  0
   -3.6265   62.2561   80.8186 O   0  0  0  0  0  0  0  0  0  0  0  0
   -1.4913   61.9300   79.6654 C   0  0  0  0  0  0  0  0  0  0  0  0
   -2.2329   61.8526   78.3899 N   0  0  0  0  0  0  0  0  0  0  0  0
   -2.7390   60.4922   78.0942 C   0  0  0  0  0  0  0  0  0  0  0  0
   -1.6531   59.5004   77.6394 C   0  0  0  0  0  0  0  0  0  0  0  0
   -0.9082   60.0034   76.5238 O   0  0  0  0  0  0  0  0  0  0  0  0
   -0.3308   61.2780   76.8261 C   0  0  0  0  0  0  0  0  0  0  0  0
   -1.4048   62.2941   77.2478 C   0  0  0  0  0  0  0  0  0  0  0  0
    0.0639   63.4001   85.8432 O   0  0  0  0  0  0  0  0  0  0  0  0
   -0.7441   62.9517   86.9379 C   0  0  0  0  0  0  0  0  0  0  0  0
    0.0311   63.2044   88.2177 C   0  0  0  0  0  0  0  0  0  0  0  0
 20 21  1  0  0  0
 21 19  1  0  0  0
 19  7  1  0  0  0
  7  8  2  0  0  0
  8  9  1  0  0  0
  9 10  1  0  0  0
  9 11  1  0  0  0
 11 12  2  0  0  0
 12 13  1  0  0  0
 12 14  1  0  0  0
 14 15  2  0  0  0
 15  1  1  0  0  0
  1  2  1  0  0  0
  2  3  2  0  0  0
  3 22  1  0  0  0
 22 23  2  0  0  0
 22 24  1  0  0  0
 24 25  1  0  0  0
 25 26  1  0  0  0
 26 27  1  0  0  0
 27 28  1  0  0  0
 28 29  1  0  0  0
 29 30  1  0  0  0
  3  4  1  0  0  0
  4  5  2  0  0  0
  5  6  1  0  0  0
  6 31  1  0  0  0
 31 32  1  0  0  0
 32 33  1  0  0  0
 15 16  1  0  0  0
 16 17  2  0  0  0
 17  7  1  0  0  0
 17 11  1  0  0  0
  6  1  2  0  0  0
 30 25  1  0  0  0
 13 18  1  0  0  0
M  END
> <minimizedAffinity>
-1.59001

$$$$
