


 36 38  0  0  0  0  0  0  0  0999 V2000
    1.9709   65.7952   84.5200 C   0  0  0  0  0  0  0  0  0  0  0  0
    1.5267   66.6280   83.4820 C   0  0  0  0  0  0  0  0  0  0  0  0
    2.4098   67.5344   82.8904 C   0  0  0  0  0  0  0  0  0  0  0  0
    3.7451   67.6001   83.2931 C   0  0  0  0  0  0  0  0  0  0  0  0
    4.1898   66.7832   84.3317 C   0  0  0  0  0  0  0  0  0  0  0  0
    3.3019   65.9024   84.9617 C   0  0  0  0  0  0  0  0  0  0  0  0
   -0.7204   63.3175   85.0034 C   0  0  0  0  0  0  0  0  0  0  0  0
    0.2201   64.1264   84.3976 N   0  0  0  0  0  0  0  0  0  0  0  0
    0.9752   64.8714   85.1389 C   0  0  0  0  0  0  0  0  0  0  0  0
    0.8987   64.8437   86.5037 N   0  0  0  0  0  0  0  0  0  0  0  0
    0.0338   64.0401   87.1861 C   0  0  0  0  0  0  0  0  0  0  0  0
    0.0006   64.0477   88.4130 O   0  0  0  0  0  0  0  0  0  0  0  0
   -0.8534   63.1924   86.3412 C   0  0  0  0  0  0  0  0  0  0  0  0
   -2.0680   62.0804   87.2213 Br  0  0  0  0  0  0  0  0  0  0  0  0
    1.4956   65.4408   87.0639 H   0  0  0  0  0  0  0  0  0  0  0  0
   -1.5722   62.5482   84.0087 C   0  0  0  0  0  0  0  0  0  0  0  0
   -1.9674   63.3178   82.7377 C   0  0  0  0  0  0  0  0  0  0  0  0
   -1.7622   62.5825   81.4059 C   0  0  0  0  0  0  0  0  0  0  0  0
   -0.8268   61.3712   81.3875 C   0  0  0  0  0  0  0  0  0  0  0  0
    0.6504   61.7152   81.1855 C   0  0  0  0  0  0  0  0  0  0  0  0
    1.5811   60.9850   82.1603 C   0  0  0  0  0  0  0  0  0  0  0  0
    3.6767   59.5813   82.5432 C   0  0  0  0  0  0  0  0  0  0  0  0
    2.8287   60.3495   81.5417 C   0  0  0  0  0  0  0  0  0  0  0  0
    1.8545   68.5933   81.5753 S   0  0  0  0  0  0  0  0  0  0  0  0
    0.6096   69.2141   81.9724 O   0  0  0  0  0  0  0  0  0  0  0  0
    1.9622   67.8334   80.3480 O   0  0  0  0  0  0  0  0  0  0  0  0
    3.0561   69.8005   81.5607 N   0  0  0  0  0  0  0  0  0  0  0  0
    2.7296   71.0651   82.2972 C   0  0  0  0  0  0  0  0  0  0  0  0
    2.5076   72.2561   81.3475 C   0  0  0  0  0  0  0  0  0  0  0  0
    3.6365   72.5473   80.4413 N   0  0  0  0  0  0  0  0  0  0  0  0
    4.4720   73.6405   80.9291 C   0  0  0  0  0  0  0  0  0  0  0  0
    4.4479   71.3433   80.1751 C   0  0  0  0  0  0  0  0  0  0  0  0
    3.6154   70.0508   80.1920 C   0  0  0  0  0  0  0  0  0  0  0  0
    3.7478   65.1107   85.9912 O   0  0  0  0  0  0  0  0  0  0  0  0
    5.1768   65.1493   86.1182 C   0  0  0  0  0  0  0  0  0  0  0  0
    5.5075   65.4747   87.5627 C   0  0  0  0  0  0  0  0  0  0  0  0
 22 23  1  0  0  0
 23 21  1  0  0  0
 21 20  1  0  0  0
 20 19  1  0  0  0
 19 18  1  0  0  0
 18 17  1  0  0  0
 17 16  1  0  0  0
 16  7  1  0  0  0
  7  8  1  0  0  0
  8  9  2  0  0  0
  9  1  1  0  0  0
  1  2  1  0  0  0
  2  3  2  0  0  0
  3 24  1  0  0  0
 24 25  2  0  0  0
 24 26  2  0  0  0
 24 27  1  0  0  0
 27 28  1  0  0  0
 28 29  1  0  0  0
 29 30  1  0  0  0
 30 31  1  0  0  0
 30 32  1  0  0  0
 32 33  1  0  0  0
  3  4  1  0  0  0
  4  5  2  0  0  0
  5  6  1  0  0  0
  6 34  1  0  0  0
 34 35  1  0  0  0
 35 36  1  0  0  0
  9 10  1  0  0  0
 10 11  1  0  0  0
 11 12  2  0  0  0
 11 13  1  0  0  0
 13 14  1  0  0  0
 13  7  2  0  0  0
  6  1  2  0  0  0
 33 27  1  0  0  0
 10 15  1  0  0  0
M  END
> <minimizedAffinity>
-9.43001

$$$$



 36 38  0  0  0  0  0  0  0  0999 V2000
    1.8960   66.0872   84.2619 C   0  0  0  0  0  0  0  0  0  0  0  0
    1.3297   66.9626   83.3233 C   0  0  0  0  0  0  0  0  0  0  0  0
    2.1274   67.9240   82.6980 C   0  0  0  0  0  0  0  0  0  0  0  0
    3.4951   68.0045   82.9668 C   0  0  0  0  0  0  0  0  0  0  0  0
    4.0617   67.1449   83.9069 C   0  0  0  0  0  0  0  0  0  0  0  0
    3.2626   66.2070   84.5722 C   0  0  0  0  0  0  0  0  0  0  0  0
   -0.6030   63.4401   84.8647 C   0  0  0  0  0  0  0  0  0  0  0  0
    0.2567   64.3052   84.2178 N   0  0  0  0  0  0  0  0  0  0  0  0
    0.9896   65.1039   84.9246 C   0  0  0  0  0  0  0  0  0  0  0  0
    0.9697   65.0810   86.2915 N   0  0  0  0  0  0  0  0  0  0  0  0
    0.1881   64.2267   87.0120 C   0  0  0  0  0  0  0  0  0  0  0  0
    0.2035   64.2410   88.2391 O   0  0  0  0  0  0  0  0  0  0  0  0
   -0.6738   63.3161   86.2074 C   0  0  0  0  0  0  0  0  0  0  0  0
   -1.7756   62.1323   87.1408 Br  0  0  0  0  0  0  0  0  0  0  0  0
    1.5475   65.7203   86.8245 H   0  0  0  0  0  0  0  0  0  0  0  0
   -1.4408   62.6089   83.9087 C   0  0  0  0  0  0  0  0  0  0  0  0
   -1.8906   63.3253   82.6248 C   0  0  0  0  0  0  0  0  0  0  0  0
   -1.6917   62.5560   81.3114 C   0  0  0  0  0  0  0  0  0  0  0  0
   -0.8520   61.2768   81.3449 C   0  0  0  0  0  0  0  0  0  0  0  0
    0.6191   61.4755   80.9742 C   0  0  0  0  0  0  0  0  0  0  0  0
    1.5877   60.9969   82.0617 C   0  0  0  0  0  0  0  0  0  0  0  0
    3.5908   59.5075   82.5889 C   0  0  0  0  0  0  0  0  0  0  0  0
    2.9056   60.3978   81.5642 C   0  0  0  0  0  0  0  0  0  0  0  0
    1.4171   69.0371   81.5083 S   0  0  0  0  0  0  0  0  0  0  0  0
    2.4362   69.9693   81.0775 O   0  0  0  0  0  0  0  0  0  0  0  0
    0.1584   69.4944   82.0575 O   0  0  0  0  0  0  0  0  0  0  0  0
    1.0810   67.9947   80.2038 N   0  0  0  0  0  0  0  0  0  0  0  0
   -0.3272   67.4883   80.1100 C   0  0  0  0  0  0  0  0  0  0  0  0
   -0.4326   65.9861   80.4292 C   0  0  0  0  0  0  0  0  0  0  0  0
    0.4117   65.1118   79.5908 N   0  0  0  0  0  0  0  0  0  0  0  0
   -0.3377   64.4975   78.4991 C   0  0  0  0  0  0  0  0  0  0  0  0
    1.5977   65.8258   79.0785 C   0  0  0  0  0  0  0  0  0  0  0  0
    2.1028   66.9084   80.0464 C   0  0  0  0  0  0  0  0  0  0  0  0
    3.8290   65.3730   85.5045 O   0  0  0  0  0  0  0  0  0  0  0  0
    5.2519   65.5428   85.5830 C   0  0  0  0  0  0  0  0  0  0  0  0
    5.6661   65.3408   87.0286 C   0  0  0  0  0  0  0  0  0  0  0  0
 22 23  1  0  0  0
 23 21  1  0  0  0
 21 20  1  0  0  0
 20 19  1  0  0  0
 19 18  1  0  0  0
 18 17  1  0  0  0
 17 16  1  0  0  0
 16  7  1  0  0  0
  7  8  1  0  0  0
  8  9  2  0  0  0
  9  1  1  0  0  0
  1  2  1  0  0  0
  2  3  2  0  0  0
  3 24  1  0  0  0
 24 25  2  0  0  0
 24 26  2  0  0  0
 24 27  1  0  0  0
 27 28  1  0  0  0
 28 29  1  0  0  0
 29 30  1  0  0  0
 30 31  1  0  0  0
 30 32  1  0  0  0
 32 33  1  0  0  0
  3  4  1  0  0  0
  4  5  2  0  0  0
  5  6  1  0  0  0
  6 34  1  0  0  0
 34 35  1  0  0  0
 35 36  1  0  0  0
  9 10  1  0  0  0
 10 11  1  0  0  0
 11 12  2  0  0  0
 11 13  1  0  0  0
 13 14  1  0  0  0
 13  7  2  0  0  0
  6  1  2  0  0  0
 33 27  1  0  0  0
 10 15  1  0  0  0
M  END
> <minimizedAffinity>
-9.39305

$$$$



 36 38  0  0  0  0  0  0  0  0999 V2000
    1.8793   65.8489   84.4539 C   0  0  0  0  0  0  0  0  0  0  0  0
    1.4014   66.6713   83.4227 C   0  0  0  0  0  0  0  0  0  0  0  0
    2.2558   67.5956   82.8167 C   0  0  0  0  0  0  0  0  0  0  0  0
    3.5955   67.6896   83.1982 C   0  0  0  0  0  0  0  0  0  0  0  0
    4.0737   66.8832   84.2300 C   0  0  0  0  0  0  0  0  0  0  0  0
    3.2145   65.9845   84.8744 C   0  0  0  0  0  0  0  0  0  0  0  0
   -0.7632   63.3281   84.9815 C   0  0  0  0  0  0  0  0  0  0  0  0
    0.1498   64.1563   84.3598 N   0  0  0  0  0  0  0  0  0  0  0  0
    0.9132   64.9049   85.0889 C   0  0  0  0  0  0  0  0  0  0  0  0
    0.8724   64.8629   86.4549 N   0  0  0  0  0  0  0  0  0  0  0  0
    0.0369   64.0404   87.1513 C   0  0  0  0  0  0  0  0  0  0  0  0
    0.0353   64.0357   88.3786 O   0  0  0  0  0  0  0  0  0  0  0  0
   -0.8598   63.1882   86.3210 C   0  0  0  0  0  0  0  0  0  0  0  0
   -2.0353   62.0503   87.2209 Br  0  0  0  0  0  0  0  0  0  0  0  0
    1.4750   65.4632   87.0055 H   0  0  0  0  0  0  0  0  0  0  0  0
   -1.6294   62.5562   84.0014 C   0  0  0  0  0  0  0  0  0  0  0  0
   -2.1131   63.3483   82.7757 C   0  0  0  0  0  0  0  0  0  0  0  0
   -2.4740   62.5239   81.5322 C   0  0  0  0  0  0  0  0  0  0  0  0
   -1.5739   62.6449   80.3003 C   0  0  0  0  0  0  0  0  0  0  0  0
   -0.0905   62.8453   80.6173 C   0  0  0  0  0  0  0  0  0  0  0  0
    0.6992   61.5328   80.6747 C   0  0  0  0  0  0  0  0  0  0  0  0
    2.6035   60.3972   81.9367 C   0  0  0  0  0  0  0  0  0  0  0  0
    1.3011   61.1756   82.0361 C   0  0  0  0  0  0  0  0  0  0  0  0
    1.6577   68.6415   81.5100 S   0  0  0  0  0  0  0  0  0  0  0  0
    0.3295   68.2060   81.1368 O   0  0  0  0  0  0  0  0  0  0  0  0
    2.7208   68.7459   80.5333 O   0  0  0  0  0  0  0  0  0  0  0  0
    1.5099   70.1442   82.2981 N   0  0  0  0  0  0  0  0  0  0  0  0
    0.3822   71.0206   81.8412 C   0  0  0  0  0  0  0  0  0  0  0  0
    0.8768   72.2601   81.0739 C   0  0  0  0  0  0  0  0  0  0  0  0
    1.8295   73.1106   81.8149 N   0  0  0  0  0  0  0  0  0  0  0  0
    1.1830   74.2706   82.4209 C   0  0  0  0  0  0  0  0  0  0  0  0
    2.5794   72.3387   82.8252 C   0  0  0  0  0  0  0  0  0  0  0  0
    2.8131   70.8787   82.4036 C   0  0  0  0  0  0  0  0  0  0  0  0
    3.6933   65.2031   85.8971 O   0  0  0  0  0  0  0  0  0  0  0  0
    5.1235   65.2669   85.9975 C   0  0  0  0  0  0  0  0  0  0  0  0
    5.4787   65.4892   87.4557 C   0  0  0  0  0  0  0  0  0  0  0  0
 22 23  1  0  0  0
 23 21  1  0  0  0
 21 20  1  0  0  0
 20 19  1  0  0  0
 19 18  1  0  0  0
 18 17  1  0  0  0
 17 16  1  0  0  0
 16  7  1  0  0  0
  7  8  1  0  0  0
  8  9  2  0  0  0
  9  1  1  0  0  0
  1  2  1  0  0  0
  2  3  2  0  0  0
  3 24  1  0  0  0
 24 25  2  0  0  0
 24 26  2  0  0  0
 24 27  1  0  0  0
 27 28  1  0  0  0
 28 29  1  0  0  0
 29 30  1  0  0  0
 30 31  1  0  0  0
 30 32  1  0  0  0
 32 33  1  0  0  0
  3  4  1  0  0  0
  4  5  2  0  0  0
  5  6  1  0  0  0
  6 34  1  0  0  0
 34 35  1  0  0  0
 35 36  1  0  0  0
  9 10  1  0  0  0
 10 11  1  0  0  0
 11 12  2  0  0  0
 11 13  1  0  0  0
 13 14  1  0  0  0
 13  7  2  0  0  0
  6  1  2  0  0  0
 33 27  1  0  0  0
 10 15  1  0  0  0
M  END
> <minimizedAffinity>
-9.37169

$$$$



 36 38  0  0  0  0  0  0  0  0999 V2000
    2.2224   66.3893   84.2325 C   0  0  0  0  0  0  0  0  0  0  0  0
    1.7543   67.3565   83.3305 C   0  0  0  0  0  0  0  0  0  0  0  0
    2.6121   68.3644   82.8833 C   0  0  0  0  0  0  0  0  0  0  0  0
    3.9460   68.4038   83.2938 C   0  0  0  0  0  0  0  0  0  0  0  0
    4.4143   67.4522   84.1987 C   0  0  0  0  0  0  0  0  0  0  0  0
    3.5511   66.4638   84.6877 C   0  0  0  0  0  0  0  0  0  0  0  0
   -0.3190   63.7156   84.3252 C   0  0  0  0  0  0  0  0  0  0  0  0
    0.6030   64.6288   83.8540 N   0  0  0  0  0  0  0  0  0  0  0  0
    1.2526   65.3572   84.7037 C   0  0  0  0  0  0  0  0  0  0  0  0
    1.0852   65.2138   86.0531 N   0  0  0  0  0  0  0  0  0  0  0  0
    0.2329   64.3044   86.6064 C   0  0  0  0  0  0  0  0  0  0  0  0
    0.1154   64.2101   87.8245 O   0  0  0  0  0  0  0  0  0  0  0  0
   -0.5342   63.4739   85.6360 C   0  0  0  0  0  0  0  0  0  0  0  0
   -1.7268   62.2196   86.3366 Br  0  0  0  0  0  0  0  0  0  0  0  0
    1.5999   65.7998   86.6998 H   0  0  0  0  0  0  0  0  0  0  0  0
   -1.0458   62.9776   83.2145 C   0  0  0  0  0  0  0  0  0  0  0  0
   -0.4499   61.6161   82.8207 C   0  0  0  0  0  0  0  0  0  0  0  0
    0.6101   61.6331   81.7106 C   0  0  0  0  0  0  0  0  0  0  0  0
    0.1382   61.4996   80.2607 C   0  0  0  0  0  0  0  0  0  0  0  0
    0.5039   62.6845   79.3643 C   0  0  0  0  0  0  0  0  0  0  0  0
   -0.3412   63.9339   79.6374 C   0  0  0  0  0  0  0  0  0  0  0  0
   -0.5307   66.2377   80.7170 C   0  0  0  0  0  0  0  0  0  0  0  0
    0.3917   65.1028   80.3006 C   0  0  0  0  0  0  0  0  0  0  0  0
    2.0265   69.5939   81.7412 S   0  0  0  0  0  0  0  0  0  0  0  0
    0.9998   70.3800   82.3902 O   0  0  0  0  0  0  0  0  0  0  0  0
    1.7801   68.9189   80.4847 O   0  0  0  0  0  0  0  0  0  0  0  0
    3.3988   70.5850   81.5525 N   0  0  0  0  0  0  0  0  0  0  0  0
    3.2804   71.9833   82.0809 C   0  0  0  0  0  0  0  0  0  0  0  0
    3.2310   73.0329   80.9561 C   0  0  0  0  0  0  0  0  0  0  0  0
    4.3788   73.0036   80.0277 N   0  0  0  0  0  0  0  0  0  0  0  0
    5.3788   74.0173   80.3491 C   0  0  0  0  0  0  0  0  0  0  0  0
    4.9920   71.6626   79.9595 C   0  0  0  0  0  0  0  0  0  0  0  0
    3.9713   70.5318   80.1675 C   0  0  0  0  0  0  0  0  0  0  0  0
    4.0199   65.5385   85.5873 O   0  0  0  0  0  0  0  0  0  0  0  0
    5.4481   65.5918   85.7178 C   0  0  0  0  0  0  0  0  0  0  0  0
    5.7815   65.5777   87.1978 C   0  0  0  0  0  0  0  0  0  0  0  0
 22 23  1  0  0  0
 23 21  1  0  0  0
 21 20  1  0  0  0
 20 19  1  0  0  0
 19 18  1  0  0  0
 18 17  1  0  0  0
 17 16  1  0  0  0
 16  7  1  0  0  0
  7  8  1  0  0  0
  8  9  2  0  0  0
  9  1  1  0  0  0
  1  2  1  0  0  0
  2  3  2  0  0  0
  3 24  1  0  0  0
 24 25  2  0  0  0
 24 26  2  0  0  0
 24 27  1  0  0  0
 27 28  1  0  0  0
 28 29  1  0  0  0
 29 30  1  0  0  0
 30 31  1  0  0  0
 30 32  1  0  0  0
 32 33  1  0  0  0
  3  4  1  0  0  0
  4  5  2  0  0  0
  5  6  1  0  0  0
  6 34  1  0  0  0
 34 35  1  0  0  0
 35 36  1  0  0  0
  9 10  1  0  0  0
 10 11  1  0  0  0
 11 12  2  0  0  0
 11 13  1  0  0  0
 13 14  1  0  0  0
 13  7  2  0  0  0
  6  1  2  0  0  0
 33 27  1  0  0  0
 10 15  1  0  0  0
M  END
> <minimizedAffinity>
-9.15468

$$$$



 36 38  0  0  0  0  0  0  0  0999 V2000
    2.1414   66.5234   84.0952 C   0  0  0  0  0  0  0  0  0  0  0  0
    1.5613   67.3960   83.1624 C   0  0  0  0  0  0  0  0  0  0  0  0
    2.3022   68.4668   82.6564 C   0  0  0  0  0  0  0  0  0  0  0  0
    3.6307   68.6626   83.0387 C   0  0  0  0  0  0  0  0  0  0  0  0
    4.2093   67.8056   83.9738 C   0  0  0  0  0  0  0  0  0  0  0  0
    3.4617   66.7554   84.5208 C   0  0  0  0  0  0  0  0  0  0  0  0
   -0.2683   63.7425   84.3710 C   0  0  0  0  0  0  0  0  0  0  0  0
    0.5376   64.7274   83.8357 N   0  0  0  0  0  0  0  0  0  0  0  0
    1.2920   65.4179   84.6285 C   0  0  0  0  0  0  0  0  0  0  0  0
    1.3473   65.1674   85.9715 N   0  0  0  0  0  0  0  0  0  0  0  0
    0.6231   64.1832   86.5770 C   0  0  0  0  0  0  0  0  0  0  0  0
    0.7052   63.9935   87.7868 O   0  0  0  0  0  0  0  0  0  0  0  0
   -0.2633   63.3948   85.6756 C   0  0  0  0  0  0  0  0  0  0  0  0
   -1.2889   62.0412   86.4518 Br  0  0  0  0  0  0  0  0  0  0  0  0
    1.9404   65.7254   86.5743 H   0  0  0  0  0  0  0  0  0  0  0  0
   -1.1403   63.0583   83.3326 C   0  0  0  0  0  0  0  0  0  0  0  0
   -0.6219   61.7060   82.8165 C   0  0  0  0  0  0  0  0  0  0  0  0
    0.5268   61.7611   81.7999 C   0  0  0  0  0  0  0  0  0  0  0  0
    0.1714   61.8104   80.3120 C   0  0  0  0  0  0  0  0  0  0  0  0
   -1.1210   61.0780   79.9453 C   0  0  0  0  0  0  0  0  0  0  0  0
   -1.9600   61.8180   78.8973 C   0  0  0  0  0  0  0  0  0  0  0  0
   -3.8685   61.7029   80.5864 C   0  0  0  0  0  0  0  0  0  0  0  0
   -3.4742   61.7993   79.1210 C   0  0  0  0  0  0  0  0  0  0  0  0
    1.5742   69.5772   81.4749 S   0  0  0  0  0  0  0  0  0  0  0  0
    2.5833   70.5167   81.0365 O   0  0  0  0  0  0  0  0  0  0  0  0
    0.3174   70.0254   82.0360 O   0  0  0  0  0  0  0  0  0  0  0  0
    1.2331   68.5347   80.1717 N   0  0  0  0  0  0  0  0  0  0  0  0
   -0.2004   68.1248   80.0126 C   0  0  0  0  0  0  0  0  0  0  0  0
   -0.4266   66.6401   80.3503 C   0  0  0  0  0  0  0  0  0  0  0  0
    0.3964   65.6932   79.5715 N   0  0  0  0  0  0  0  0  0  0  0  0
   -0.3374   65.1104   78.4522 C   0  0  0  0  0  0  0  0  0  0  0  0
    1.6539   66.3135   79.1104 C   0  0  0  0  0  0  0  0  0  0  0  0
    2.1833   67.3777   80.0857 C   0  0  0  0  0  0  0  0  0  0  0  0
    4.0380   65.9243   85.4496 O   0  0  0  0  0  0  0  0  0  0  0  0
    5.1323   66.5562   86.1300 C   0  0  0  0  0  0  0  0  0  0  0  0
    5.5472   65.6575   87.2799 C   0  0  0  0  0  0  0  0  0  0  0  0
 22 23  1  0  0  0
 23 21  1  0  0  0
 21 20  1  0  0  0
 20 19  1  0  0  0
 19 18  1  0  0  0
 18 17  1  0  0  0
 17 16  1  0  0  0
 16  7  1  0  0  0
  7  8  1  0  0  0
  8  9  2  0  0  0
  9  1  1  0  0  0
  1  2  1  0  0  0
  2  3  2  0  0  0
  3 24  1  0  0  0
 24 25  2  0  0  0
 24 26  2  0  0  0
 24 27  1  0  0  0
 27 28  1  0  0  0
 28 29  1  0  0  0
 29 30  1  0  0  0
 30 31  1  0  0  0
 30 32  1  0  0  0
 32 33  1  0  0  0
  3  4  1  0  0  0
  4  5  2  0  0  0
  5  6  1  0  0  0
  6 34  1  0  0  0
 34 35  1  0  0  0
 35 36  1  0  0  0
  9 10  1  0  0  0
 10 11  1  0  0  0
 11 12  2  0  0  0
 11 13  1  0  0  0
 13 14  1  0  0  0
 13  7  2  0  0  0
  6  1  2  0  0  0
 33 27  1  0  0  0
 10 15  1  0  0  0
M  END
> <minimizedAffinity>
-8.94389

$$$$



 36 38  0  0  0  0  0  0  0  0999 V2000
    2.1640   66.5285   84.0803 C   0  0  0  0  0  0  0  0  0  0  0  0
    1.6364   67.4238   83.1379 C   0  0  0  0  0  0  0  0  0  0  0  0
    2.4262   68.4684   82.6517 C   0  0  0  0  0  0  0  0  0  0  0  0
    3.7521   68.6153   83.0637 C   0  0  0  0  0  0  0  0  0  0  0  0
    4.2789   67.7358   84.0084 C   0  0  0  0  0  0  0  0  0  0  0  0
    3.4821   66.7119   84.5355 C   0  0  0  0  0  0  0  0  0  0  0  0
   -0.3064   63.7952   84.2853 C   0  0  0  0  0  0  0  0  0  0  0  0
    0.5482   64.7509   83.7731 N   0  0  0  0  0  0  0  0  0  0  0  0
    1.2640   65.4531   84.5913 C   0  0  0  0  0  0  0  0  0  0  0  0
    1.2312   65.2422   85.9418 N   0  0  0  0  0  0  0  0  0  0  0  0
    0.4538   64.2881   86.5291 C   0  0  0  0  0  0  0  0  0  0  0  0
    0.4572   64.1336   87.7466 O   0  0  0  0  0  0  0  0  0  0  0  0
   -0.3886   63.4869   85.5973 C   0  0  0  0  0  0  0  0  0  0  0  0
   -1.4840   62.1736   86.3467 Br  0  0  0  0  0  0  0  0  0  0  0  0
    1.7955   65.8087   86.5641 H   0  0  0  0  0  0  0  0  0  0  0  0
   -1.1242   63.0939   83.2147 C   0  0  0  0  0  0  0  0  0  0  0  0
   -0.5213   61.7905   82.6656 C   0  0  0  0  0  0  0  0  0  0  0  0
    0.5870   61.9436   81.6146 C   0  0  0  0  0  0  0  0  0  0  0  0
    0.2311   61.6862   80.1484 C   0  0  0  0  0  0  0  0  0  0  0  0
   -0.3204   62.9059   79.4073 C   0  0  0  0  0  0  0  0  0  0  0  0
    0.2404   64.2347   79.9264 C   0  0  0  0  0  0  0  0  0  0  0  0
    1.7268   66.2647   79.5037 C   0  0  0  0  0  0  0  0  0  0  0  0
    0.9540   65.1074   78.8908 C   0  0  0  0  0  0  0  0  0  0  0  0
    1.7647   69.6072   81.4581 S   0  0  0  0  0  0  0  0  0  0  0  0
    0.3988   69.2319   81.1645 O   0  0  0  0  0  0  0  0  0  0  0  0
    2.7536   69.7409   80.4096 O   0  0  0  0  0  0  0  0  0  0  0  0
    1.7255   71.0633   82.3410 N   0  0  0  0  0  0  0  0  0  0  0  0
    0.5786   71.9831   82.0458 C   0  0  0  0  0  0  0  0  0  0  0  0
    1.0244   73.2573   81.3061 C   0  0  0  0  0  0  0  0  0  0  0  0
    2.0618   74.0474   81.9988 N   0  0  0  0  0  0  0  0  0  0  0  0
    1.5013   75.1801   82.7294 C   0  0  0  0  0  0  0  0  0  0  0  0
    2.8877   73.2055   82.8865 C   0  0  0  0  0  0  0  0  0  0  0  0
    3.0484   71.7692   82.3618 C   0  0  0  0  0  0  0  0  0  0  0  0
    4.0076   65.8583   85.4740 O   0  0  0  0  0  0  0  0  0  0  0  0
    5.1351   66.4328   86.1510 C   0  0  0  0  0  0  0  0  0  0  0  0
    5.4992   65.5198   87.3068 C   0  0  0  0  0  0  0  0  0  0  0  0
 22 23  1  0  0  0
 23 21  1  0  0  0
 21 20  1  0  0  0
 20 19  1  0  0  0
 19 18  1  0  0  0
 18 17  1  0  0  0
 17 16  1  0  0  0
 16  7  1  0  0  0
  7  8  1  0  0  0
  8  9  2  0  0  0
  9  1  1  0  0  0
  1  2  1  0  0  0
  2  3  2  0  0  0
  3 24  1  0  0  0
 24 25  2  0  0  0
 24 26  2  0  0  0
 24 27  1  0  0  0
 27 28  1  0  0  0
 28 29  1  0  0  0
 29 30  1  0  0  0
 30 31  1  0  0  0
 30 32  1  0  0  0
 32 33  1  0  0  0
  3  4  1  0  0  0
  4  5  2  0  0  0
  5  6  1  0  0  0
  6 34  1  0  0  0
 34 35  1  0  0  0
 35 36  1  0  0  0
  9 10  1  0  0  0
 10 11  1  0  0  0
 11 12  2  0  0  0
 11 13  1  0  0  0
 13 14  1  0  0  0
 13  7  2  0  0  0
  6  1  2  0  0  0
 33 27  1  0  0  0
 10 15  1  0  0  0
M  END
> <minimizedAffinity>
-8.88030

$$$$



 36 38  0  0  0  0  0  0  0  0999 V2000
    1.2649   64.7598   84.6679 C   0  0  0  0  0  0  0  0  0  0  0  0
    0.8272   64.6375   83.3407 C   0  0  0  0  0  0  0  0  0  0  0  0
   -0.3102   63.8805   83.0496 C   0  0  0  0  0  0  0  0  0  0  0  0
   -1.0439   63.2697   84.0685 C   0  0  0  0  0  0  0  0  0  0  0  0
   -0.6078   63.3780   85.3882 C   0  0  0  0  0  0  0  0  0  0  0  0
    0.5560   64.0975   85.6863 C   0  0  0  0  0  0  0  0  0  0  0  0
    3.8819   67.3572   84.5256 C   0  0  0  0  0  0  0  0  0  0  0  0
    2.7022   66.6749   84.3051 N   0  0  0  0  0  0  0  0  0  0  0  0
    2.5058   65.5512   84.9162 C   0  0  0  0  0  0  0  0  0  0  0  0
    3.4119   65.0468   85.8072 N   0  0  0  0  0  0  0  0  0  0  0  0
    4.5795   65.6773   86.1213 C   0  0  0  0  0  0  0  0  0  0  0  0
    5.3634   65.1872   86.9285 O   0  0  0  0  0  0  0  0  0  0  0  0
    4.8240   66.9626   85.4087 C   0  0  0  0  0  0  0  0  0  0  0  0
    6.4138   67.8647   85.7896 Br  0  0  0  0  0  0  0  0  0  0  0  0
    3.2401   64.1614   86.2691 H   0  0  0  0  0  0  0  0  0  0  0  0
    3.9992   68.6249   83.6973 C   0  0  0  0  0  0  0  0  0  0  0  0
    2.6790   69.3636   83.4229 C   0  0  0  0  0  0  0  0  0  0  0  0
    2.6180   70.1899   82.1307 C   0  0  0  0  0  0  0  0  0  0  0  0
    1.3070   70.9038   81.7924 C   0  0  0  0  0  0  0  0  0  0  0  0
    0.1536   69.9684   81.4240 C   0  0  0  0  0  0  0  0  0  0  0  0
    0.5405   68.9098   80.3851 C   0  0  0  0  0  0  0  0  0  0  0  0
    1.9127   66.7733   80.6326 C   0  0  0  0  0  0  0  0  0  0  0  0
    0.5831   67.4650   80.8891 C   0  0  0  0  0  0  0  0  0  0  0  0
   -0.8707   63.7201   81.3706 S   0  0  0  0  0  0  0  0  0  0  0  0
    0.2777   63.5174   80.5143 O   0  0  0  0  0  0  0  0  0  0  0  0
   -1.8086   64.7971   81.1344 O   0  0  0  0  0  0  0  0  0  0  0  0
   -1.7426   62.2580   81.4259 N   0  0  0  0  0  0  0  0  0  0  0  0
   -1.0849   61.0730   80.7842 C   0  0  0  0  0  0  0  0  0  0  0  0
   -1.7954   60.6375   79.4900 C   0  0  0  0  0  0  0  0  0  0  0  0
   -3.2294   60.3213   79.6444 N   0  0  0  0  0  0  0  0  0  0  0  0
   -3.4725   58.8862   79.7561 C   0  0  0  0  0  0  0  0  0  0  0  0
   -3.8294   61.0466   80.7814 C   0  0  0  0  0  0  0  0  0  0  0  0
   -3.1776   62.4184   81.0209 C   0  0  0  0  0  0  0  0  0  0  0  0
    0.9827   64.1882   86.9883 O   0  0  0  0  0  0  0  0  0  0  0  0
   -0.0698   63.8982   87.9198 C   0  0  0  0  0  0  0  0  0  0  0  0
    0.4722   62.9201   88.9453 C   0  0  0  0  0  0  0  0  0  0  0  0
 22 23  1  0  0  0
 23 21  1  0  0  0
 21 20  1  0  0  0
 20 19  1  0  0  0
 19 18  1  0  0  0
 18 17  1  0  0  0
 17 16  1  0  0  0
 16  7  1  0  0  0
  7  8  1  0  0  0
  8  9  2  0  0  0
  9  1  1  0  0  0
  1  2  1  0  0  0
  2  3  2  0  0  0
  3 24  1  0  0  0
 24 25  2  0  0  0
 24 26  2  0  0  0
 24 27  1  0  0  0
 27 28  1  0  0  0
 28 29  1  0  0  0
 29 30  1  0  0  0
 30 31  1  0  0  0
 30 32  1  0  0  0
 32 33  1  0  0  0
  3  4  1  0  0  0
  4  5  2  0  0  0
  5  6  1  0  0  0
  6 34  1  0  0  0
 34 35  1  0  0  0
 35 36  1  0  0  0
  9 10  1  0  0  0
 10 11  1  0  0  0
 11 12  2  0  0  0
 11 13  1  0  0  0
 13 14  1  0  0  0
 13  7  2  0  0  0
  6  1  2  0  0  0
 33 27  1  0  0  0
 10 15  1  0  0  0
M  END
> <minimizedAffinity>
-8.87078

$$$$



 36 38  0  0  0  0  0  0  0  0999 V2000
    0.2473   65.3110   81.5340 C   0  0  0  0  0  0  0  0  0  0  0  0
    0.8448   65.9457   82.6332 C   0  0  0  0  0  0  0  0  0  0  0  0
    1.6502   67.0697   82.4349 C   0  0  0  0  0  0  0  0  0  0  0  0
    1.8421   67.5967   81.1563 C   0  0  0  0  0  0  0  0  0  0  0  0
    1.2603   66.9640   80.0586 C   0  0  0  0  0  0  0  0  0  0  0  0
    0.4873   65.8107   80.2413 C   0  0  0  0  0  0  0  0  0  0  0  0
   -1.4322   62.4845   83.2091 C   0  0  0  0  0  0  0  0  0  0  0  0
   -0.7019   63.6384   83.0058 N   0  0  0  0  0  0  0  0  0  0  0  0
   -0.5741   64.0938   81.8013 C   0  0  0  0  0  0  0  0  0  0  0  0
   -1.1802   63.4910   80.7342 N   0  0  0  0  0  0  0  0  0  0  0  0
   -1.9585   62.3772   80.8497 C   0  0  0  0  0  0  0  0  0  0  0  0
   -2.4841   61.8701   79.8633 O   0  0  0  0  0  0  0  0  0  0  0  0
   -2.0963   61.8338   82.2301 C   0  0  0  0  0  0  0  0  0  0  0  0
   -3.1405   60.3012   82.4473 Br  0  0  0  0  0  0  0  0  0  0  0  0
   -1.0607   63.8615   79.7987 H   0  0  0  0  0  0  0  0  0  0  0  0
   -1.4452   62.0372   84.6605 C   0  0  0  0  0  0  0  0  0  0  0  0
   -2.6553   62.5010   85.4877 C   0  0  0  0  0  0  0  0  0  0  0  0
   -2.6421   62.1324   86.9778 C   0  0  0  0  0  0  0  0  0  0  0  0
   -2.1716   63.1907   87.9784 C   0  0  0  0  0  0  0  0  0  0  0  0
   -0.9130   62.8078   88.7598 C   0  0  0  0  0  0  0  0  0  0  0  0
    0.3753   63.3645   88.1434 C   0  0  0  0  0  0  0  0  0  0  0  0
    1.1457   64.3210   85.9072 C   0  0  0  0  0  0  0  0  0  0  0  0
    0.1911   64.4534   87.0833 C   0  0  0  0  0  0  0  0  0  0  0  0
    2.4113   67.8789   83.8224 S   0  0  0  0  0  0  0  0  0  0  0  0
    1.7367   67.4609   85.0320 O   0  0  0  0  0  0  0  0  0  0  0  0
    2.5419   69.2780   83.4750 O   0  0  0  0  0  0  0  0  0  0  0  0
    3.9668   67.1849   83.8282 N   0  0  0  0  0  0  0  0  0  0  0  0
    4.1533   65.9914   84.7166 C   0  0  0  0  0  0  0  0  0  0  0  0
    5.0475   66.2987   85.9313 C   0  0  0  0  0  0  0  0  0  0  0  0
    6.3883   66.8208   85.5999 N   0  0  0  0  0  0  0  0  0  0  0  0
    7.4146   65.7836   85.6445 C   0  0  0  0  0  0  0  0  0  0  0  0
    6.3977   67.5145   84.2969 C   0  0  0  0  0  0  0  0  0  0  0  0
    5.0589   68.2012   83.9805 C   0  0  0  0  0  0  0  0  0  0  0  0
   -0.0716   65.1891   79.1519 O   0  0  0  0  0  0  0  0  0  0  0  0
    0.9119   64.8524   78.1625 C   0  0  0  0  0  0  0  0  0  0  0  0
    1.0524   63.3418   78.1406 C   0  0  0  0  0  0  0  0  0  0  0  0
 22 23  1  0  0  0
 23 21  1  0  0  0
 21 20  1  0  0  0
 20 19  1  0  0  0
 19 18  1  0  0  0
 18 17  1  0  0  0
 17 16  1  0  0  0
 16  7  1  0  0  0
  7  8  1  0  0  0
  8  9  2  0  0  0
  9  1  1  0  0  0
  1  2  1  0  0  0
  2  3  2  0  0  0
  3 24  1  0  0  0
 24 25  2  0  0  0
 24 26  2  0  0  0
 24 27  1  0  0  0
 27 28  1  0  0  0
 28 29  1  0  0  0
 29 30  1  0  0  0
 30 31  1  0  0  0
 30 32  1  0  0  0
 32 33  1  0  0  0
  3  4  1  0  0  0
  4  5  2  0  0  0
  5  6  1  0  0  0
  6 34  1  0  0  0
 34 35  1  0  0  0
 35 36  1  0  0  0
  9 10  1  0  0  0
 10 11  1  0  0  0
 11 12  2  0  0  0
 11 13  1  0  0  0
 13 14  1  0  0  0
 13  7  2  0  0  0
  6  1  2  0  0  0
 33 27  1  0  0  0
 10 15  1  0  0  0
M  END
> <minimizedAffinity>
-8.82739

$$$$



 36 38  0  0  0  0  0  0  0  0999 V2000
    0.4283   64.2244   85.3449 C   0  0  0  0  0  0  0  0  0  0  0  0
   -0.1961   63.8492   84.1460 C   0  0  0  0  0  0  0  0  0  0  0  0
   -1.3625   63.0811   84.1792 C   0  0  0  0  0  0  0  0  0  0  0  0
   -1.9407   62.7091   85.3944 C   0  0  0  0  0  0  0  0  0  0  0  0
   -1.3190   63.0692   86.5891 C   0  0  0  0  0  0  0  0  0  0  0  0
   -0.1254   63.8013   86.5667 C   0  0  0  0  0  0  0  0  0  0  0  0
    3.0102   66.6355   84.2790 C   0  0  0  0  0  0  0  0  0  0  0  0
    1.8118   65.9560   84.3689 N   0  0  0  0  0  0  0  0  0  0  0  0
    1.6908   65.0147   85.2487 C   0  0  0  0  0  0  0  0  0  0  0  0
    2.6986   64.7083   86.1204 N   0  0  0  0  0  0  0  0  0  0  0  0
    3.8964   65.3601   86.1346 C   0  0  0  0  0  0  0  0  0  0  0  0
    4.7727   65.0513   86.9365 O   0  0  0  0  0  0  0  0  0  0  0  0
    4.0528   66.4328   85.1126 C   0  0  0  0  0  0  0  0  0  0  0  0
    5.6780   67.3514   85.0765 Br  0  0  0  0  0  0  0  0  0  0  0  0
    2.5839   63.9627   86.7968 H   0  0  0  0  0  0  0  0  0  0  0  0
    3.0263   67.6676   83.1649 C   0  0  0  0  0  0  0  0  0  0  0  0
    2.5414   69.0735   83.5547 C   0  0  0  0  0  0  0  0  0  0  0  0
    3.1236   70.2420   82.7472 C   0  0  0  0  0  0  0  0  0  0  0  0
    3.7061   69.9432   81.3638 C   0  0  0  0  0  0  0  0  0  0  0  0
    2.7323   70.1672   80.2051 C   0  0  0  0  0  0  0  0  0  0  0  0
    1.9568   68.9045   79.8129 C   0  0  0  0  0  0  0  0  0  0  0  0
   -0.0408   70.1588   80.7850 C   0  0  0  0  0  0  0  0  0  0  0  0
    0.5160   68.8213   80.3232 C   0  0  0  0  0  0  0  0  0  0  0  0
   -2.1590   62.6012   82.6645 S   0  0  0  0  0  0  0  0  0  0  0  0
   -3.0544   63.6608   82.2539 O   0  0  0  0  0  0  0  0  0  0  0  0
   -2.6279   61.2439   82.8463 O   0  0  0  0  0  0  0  0  0  0  0  0
   -0.8533   62.5710   81.5712 N   0  0  0  0  0  0  0  0  0  0  0  0
   -0.7199   63.7618   80.6698 C   0  0  0  0  0  0  0  0  0  0  0  0
   -1.0480   63.4270   79.2036 C   0  0  0  0  0  0  0  0  0  0  0  0
   -0.2434   62.3349   78.6204 N   0  0  0  0  0  0  0  0  0  0  0  0
    0.8661   62.8331   77.8130 C   0  0  0  0  0  0  0  0  0  0  0  0
    0.2378   61.3984   79.6549 C   0  0  0  0  0  0  0  0  0  0  0  0
   -0.7365   61.2684   80.8373 C   0  0  0  0  0  0  0  0  0  0  0  0
    0.4845   64.1408   87.7492 O   0  0  0  0  0  0  0  0  0  0  0  0
   -0.1926   63.5795   88.8832 C   0  0  0  0  0  0  0  0  0  0  0  0
    0.4914   62.2713   89.2337 C   0  0  0  0  0  0  0  0  0  0  0  0
 22 23  1  0  0  0
 23 21  1  0  0  0
 21 20  1  0  0  0
 20 19  1  0  0  0
 19 18  1  0  0  0
 18 17  1  0  0  0
 17 16  1  0  0  0
 16  7  1  0  0  0
  7  8  1  0  0  0
  8  9  2  0  0  0
  9  1  1  0  0  0
  1  2  1  0  0  0
  2  3  2  0  0  0
  3 24  1  0  0  0
 24 25  2  0  0  0
 24 26  2  0  0  0
 24 27  1  0  0  0
 27 28  1  0  0  0
 28 29  1  0  0  0
 29 30  1  0  0  0
 30 31  1  0  0  0
 30 32  1  0  0  0
 32 33  1  0  0  0
  3  4  1  0  0  0
  4  5  2  0  0  0
  5  6  1  0  0  0
  6 34  1  0  0  0
 34 35  1  0  0  0
 35 36  1  0  0  0
  9 10  1  0  0  0
 10 11  1  0  0  0
 11 12  2  0  0  0
 11 13  1  0  0  0
 13 14  1  0  0  0
 13  7  2  0  0  0
  6  1  2  0  0  0
 33 27  1  0  0  0
 10 15  1  0  0  0
M  END
> <minimizedAffinity>
-8.79128

$$$$
