


 34 37  0  0  0  0  0  0  0  0999 V2000
    1.2298   65.2787   84.0860 C   0  0  0  0  0  0  0  0  0  0  0  0
    2.4012   65.6784   84.6818 N   0  0  0  0  0  0  0  0  0  0  0  0
    3.0485   66.7566   84.1861 C   0  0  0  0  0  0  0  0  0  0  0  0
    4.2198   67.1527   84.7789 O   0  0  0  0  0  0  0  0  0  0  0  0
    2.4656   67.4208   83.0991 C   0  0  0  0  0  0  0  0  0  0  0  0
    2.8446   68.5212   82.4234 N   0  0  0  0  0  0  0  0  0  0  0  0
    1.9039   68.6583   81.4436 N   0  0  0  0  0  0  0  0  0  0  0  0
    0.8736   67.7414   81.5316 C   0  0  0  0  0  0  0  0  0  0  0  0
    1.2384   66.9280   82.5718 C   0  0  0  0  0  0  0  0  0  0  0  0
    0.5611   65.8595   83.0398 N   0  0  0  0  0  0  0  0  0  0  0  0
    4.5055   67.9143   84.2404 H   0  0  0  0  0  0  0  0  0  0  0  0
    0.2238   62.9758   83.9759 C   0  0  0  0  0  0  0  0  0  0  0  0
   -0.3997   61.8981   84.5215 N   0  0  0  0  0  0  0  0  0  0  0  0
   -0.7043   61.9557   85.8385 C   0  0  0  0  0  0  0  0  0  0  0  0
   -0.4310   63.0468   86.6463 C   0  0  0  0  0  0  0  0  0  0  0  0
    0.2040   64.1428   86.0563 C   0  0  0  0  0  0  0  0  0  0  0  0
    0.5549   64.1279   84.6930 C   0  0  0  0  0  0  0  0  0  0  0  0
   -0.7827   63.0863   88.0896 C   0  0  0  0  0  0  0  0  0  0  0  0
    0.3188   63.0065   89.1142 C   0  0  0  0  0  0  0  0  0  0  0  0
   -1.9605   63.1843   88.4264 O   0  0  0  0  0  0  0  0  0  0  0  0
    0.4599   62.9705   82.6165 O   0  0  0  0  0  0  0  0  0  0  0  0
    0.2247   61.7252   81.9560 C   0  0  0  0  0  0  0  0  0  0  0  0
    1.5257   61.1892   81.3593 C   0  0  0  0  0  0  0  0  0  0  0  0
    3.7302   59.9859   81.7999 C   0  0  0  0  0  0  0  0  0  0  0  0
    2.3865   60.4225   82.3623 C   0  0  0  0  0  0  0  0  0  0  0  0
   -0.3260   67.6963   80.6507 C   0  0  0  0  0  0  0  0  0  0  0  0
   -0.2666   66.5390   79.6653 C   0  0  0  0  0  0  0  0  0  0  0  0
    1.9933   69.8198   80.5567 C   0  0  0  0  0  0  0  0  0  0  0  0
    1.2598   71.0047   81.0932 C   0  0  0  0  0  0  0  0  0  0  0  0
   -0.0270   71.2631   80.9435 N   0  0  0  0  0  0  0  0  0  0  0  0
   -0.2595   72.4487   81.5852 C   0  0  0  0  0  0  0  0  0  0  0  0
    0.9017   72.9369   82.1295 C   0  0  0  0  0  0  0  0  0  0  0  0
    1.8627   72.0215   81.8026 N   0  0  0  0  0  0  0  0  0  0  0  0
    3.2609   72.1304   82.1430 C   0  0  0  0  0  0  0  0  0  0  0  0
 24 25  1  0  0  0
 25 23  1  0  0  0
 23 22  1  0  0  0
 22 21  1  0  0  0
 21 12  1  0  0  0
 12 13  1  0  0  0
 13 14  2  0  0  0
 14 15  1  0  0  0
 15 18  1  0  0  0
 18 19  1  0  0  0
 18 20  2  0  0  0
 15 16  2  0  0  0
 16 17  1  0  0  0
 17  1  1  0  0  0
  1  2  1  0  0  0
  2  3  2  0  0  0
  3  4  1  0  0  0
  3  5  1  0  0  0
  5  6  2  0  0  0
  6  7  1  0  0  0
  7 28  1  0  0  0
 28 29  1  0  0  0
 29 30  2  0  0  0
 30 31  1  0  0  0
 31 32  2  0  0  0
 32 33  1  0  0  0
 33 34  1  0  0  0
  7  8  1  0  0  0
  8 26  1  0  0  0
 26 27  1  0  0  0
  8  9  2  0  0  0
  9 10  1  0  0  0
 17 12  2  0  0  0
 10  1  2  0  0  0
  9  5  1  0  0  0
 33 29  1  0  0  0
  4 11  1  0  0  0
M  END
> <minimizedAffinity>
-9.34151

$$$$



 34 37  0  0  0  0  0  0  0  0999 V2000
    1.2066   65.6013   83.5388 C   0  0  0  0  0  0  0  0  0  0  0  0
    0.7455   65.1967   84.7679 N   0  0  0  0  0  0  0  0  0  0  0  0
    0.0326   64.0511   84.8507 C   0  0  0  0  0  0  0  0  0  0  0  0
   -0.4305   63.6500   86.0774 O   0  0  0  0  0  0  0  0  0  0  0  0
   -0.1731   63.3276   83.6689 C   0  0  0  0  0  0  0  0  0  0  0  0
   -0.7982   62.1579   83.4409 N   0  0  0  0  0  0  0  0  0  0  0  0
   -0.7121   61.9851   82.0895 N   0  0  0  0  0  0  0  0  0  0  0  0
    0.0397   62.9545   81.4531 C   0  0  0  0  0  0  0  0  0  0  0  0
    0.3661   63.8332   82.4522 C   0  0  0  0  0  0  0  0  0  0  0  0
    1.0845   64.9682   82.3291 N   0  0  0  0  0  0  0  0  0  0  0  0
   -0.9269   62.8333   85.8813 H   0  0  0  0  0  0  0  0  0  0  0  0
    3.2851   66.9126   84.0747 C   0  0  0  0  0  0  0  0  0  0  0  0
    4.0421   68.0417   84.0650 N   0  0  0  0  0  0  0  0  0  0  0  0
    3.5163   69.1389   83.4732 C   0  0  0  0  0  0  0  0  0  0  0  0
    2.2576   69.1759   82.8971 C   0  0  0  0  0  0  0  0  0  0  0  0
    1.4994   68.0026   82.9286 C   0  0  0  0  0  0  0  0  0  0  0  0
    2.0059   66.8297   83.5198 C   0  0  0  0  0  0  0  0  0  0  0  0
    1.7014   70.3974   82.2592 C   0  0  0  0  0  0  0  0  0  0  0  0
    1.3510   70.3638   80.7944 C   0  0  0  0  0  0  0  0  0  0  0  0
    1.5342   71.4126   82.9312 O   0  0  0  0  0  0  0  0  0  0  0  0
    3.7683   65.8123   84.7526 O   0  0  0  0  0  0  0  0  0  0  0  0
    4.8313   66.0735   85.6712 C   0  0  0  0  0  0  0  0  0  0  0  0
    6.0350   65.1869   85.3529 C   0  0  0  0  0  0  0  0  0  0  0  0
    8.2953   66.3191   85.0198 C   0  0  0  0  0  0  0  0  0  0  0  0
    7.0156   65.8206   84.3671 C   0  0  0  0  0  0  0  0  0  0  0  0
    0.3690   62.9838   80.0013 C   0  0  0  0  0  0  0  0  0  0  0  0
   -0.5415   63.9264   79.2290 C   0  0  0  0  0  0  0  0  0  0  0  0
   -1.2502   60.7508   81.5143 C   0  0  0  0  0  0  0  0  0  0  0  0
   -2.4135   61.0019   80.6123 C   0  0  0  0  0  0  0  0  0  0  0  0
   -3.5835   61.5041   80.9641 N   0  0  0  0  0  0  0  0  0  0  0  0
   -4.3427   61.5466   79.8269 C   0  0  0  0  0  0  0  0  0  0  0  0
   -3.6369   61.0528   78.7586 C   0  0  0  0  0  0  0  0  0  0  0  0
   -2.4189   60.6984   79.2675 N   0  0  0  0  0  0  0  0  0  0  0  0
   -1.3461   60.1006   78.5093 C   0  0  0  0  0  0  0  0  0  0  0  0
 24 25  1  0  0  0
 25 23  1  0  0  0
 23 22  1  0  0  0
 22 21  1  0  0  0
 21 12  1  0  0  0
 12 13  1  0  0  0
 13 14  2  0  0  0
 14 15  1  0  0  0
 15 18  1  0  0  0
 18 19  1  0  0  0
 18 20  2  0  0  0
 15 16  2  0  0  0
 16 17  1  0  0  0
 17  1  1  0  0  0
  1  2  1  0  0  0
  2  3  2  0  0  0
  3  4  1  0  0  0
  3  5  1  0  0  0
  5  6  2  0  0  0
  6  7  1  0  0  0
  7 28  1  0  0  0
 28 29  1  0  0  0
 29 30  2  0  0  0
 30 31  1  0  0  0
 31 32  2  0  0  0
 32 33  1  0  0  0
 33 34  1  0  0  0
  7  8  1  0  0  0
  8 26  1  0  0  0
 26 27  1  0  0  0
  8  9  2  0  0  0
  9 10  1  0  0  0
 17 12  2  0  0  0
 10  1  2  0  0  0
  9  5  1  0  0  0
 33 29  1  0  0  0
  4 11  1  0  0  0
M  END
> <minimizedAffinity>
-9.11378

$$$$



 34 37  0  0  0  0  0  0  0  0999 V2000
    0.5282   65.1433   83.5760 C   0  0  0  0  0  0  0  0  0  0  0  0
    0.0915   65.1905   82.2744 N   0  0  0  0  0  0  0  0  0  0  0  0
    0.5263   66.1926   81.4781 C   0  0  0  0  0  0  0  0  0  0  0  0
    0.0869   66.2412   80.1801 O   0  0  0  0  0  0  0  0  0  0  0  0
    1.4238   67.1166   82.0287 C   0  0  0  0  0  0  0  0  0  0  0  0
    2.0475   68.1796   81.4883 N   0  0  0  0  0  0  0  0  0  0  0  0
    2.7604   68.7161   82.5216 N   0  0  0  0  0  0  0  0  0  0  0  0
    2.6977   67.9714   83.6842 C   0  0  0  0  0  0  0  0  0  0  0  0
    1.8226   66.9603   83.3864 C   0  0  0  0  0  0  0  0  0  0  0  0
    1.4146   65.9739   84.2111 N   0  0  0  0  0  0  0  0  0  0  0  0
    0.5048   67.0479   79.8246 H   0  0  0  0  0  0  0  0  0  0  0  0
   -0.3174   62.7866   83.8178 C   0  0  0  0  0  0  0  0  0  0  0  0
   -0.7583   61.7256   84.5443 N   0  0  0  0  0  0  0  0  0  0  0  0
   -0.8301   61.8769   85.8868 C   0  0  0  0  0  0  0  0  0  0  0  0
   -0.4964   63.0459   86.5501 C   0  0  0  0  0  0  0  0  0  0  0  0
   -0.0533   64.1221   85.7767 C   0  0  0  0  0  0  0  0  0  0  0  0
    0.0529   64.0118   84.3773 C   0  0  0  0  0  0  0  0  0  0  0  0
   -0.5911   63.1873   88.0264 C   0  0  0  0  0  0  0  0  0  0  0  0
    0.6759   63.2487   88.8389 C   0  0  0  0  0  0  0  0  0  0  0  0
   -1.6953   63.2532   88.5618 O   0  0  0  0  0  0  0  0  0  0  0  0
   -0.3239   62.6798   82.4422 O   0  0  0  0  0  0  0  0  0  0  0  0
   -0.0591   61.3742   81.9251 C   0  0  0  0  0  0  0  0  0  0  0  0
    1.3857   61.2828   81.4346 C   0  0  0  0  0  0  0  0  0  0  0  0
    3.5486   59.9730   81.7628 C   0  0  0  0  0  0  0  0  0  0  0  0
    2.3215   60.5847   82.4204 C   0  0  0  0  0  0  0  0  0  0  0  0
    3.4311   68.2680   84.9457 C   0  0  0  0  0  0  0  0  0  0  0  0
    4.7779   67.5632   85.0013 C   0  0  0  0  0  0  0  0  0  0  0  0
    3.6170   69.8707   82.2449 C   0  0  0  0  0  0  0  0  0  0  0  0
    2.8498   71.1507   82.1937 C   0  0  0  0  0  0  0  0  0  0  0  0
    1.7473   71.4307   82.8654 N   0  0  0  0  0  0  0  0  0  0  0  0
    1.3883   72.7007   82.5054 C   0  0  0  0  0  0  0  0  0  0  0  0
    2.2740   73.2096   81.5892 C   0  0  0  0  0  0  0  0  0  0  0  0
    3.1909   72.2160   81.3878 N   0  0  0  0  0  0  0  0  0  0  0  0
    4.3063   72.2903   80.4750 C   0  0  0  0  0  0  0  0  0  0  0  0
 24 25  1  0  0  0
 25 23  1  0  0  0
 23 22  1  0  0  0
 22 21  1  0  0  0
 21 12  1  0  0  0
 12 13  1  0  0  0
 13 14  2  0  0  0
 14 15  1  0  0  0
 15 18  1  0  0  0
 18 19  1  0  0  0
 18 20  2  0  0  0
 15 16  2  0  0  0
 16 17  1  0  0  0
 17  1  1  0  0  0
  1  2  1  0  0  0
  2  3  2  0  0  0
  3  4  1  0  0  0
  3  5  1  0  0  0
  5  6  2  0  0  0
  6  7  1  0  0  0
  7 28  1  0  0  0
 28 29  1  0  0  0
 29 30  2  0  0  0
 30 31  1  0  0  0
 31 32  2  0  0  0
 32 33  1  0  0  0
 33 34  1  0  0  0
  7  8  1  0  0  0
  8 26  1  0  0  0
 26 27  1  0  0  0
  8  9  2  0  0  0
  9 10  1  0  0  0
 17 12  2  0  0  0
 10  1  2  0  0  0
  9  5  1  0  0  0
 33 29  1  0  0  0
  4 11  1  0  0  0
M  END
> <minimizedAffinity>
-9.09703

$$$$



 34 37  0  0  0  0  0  0  0  0999 V2000
    0.7494   66.3697   81.0062 C   0  0  0  0  0  0  0  0  0  0  0  0
    1.1692   66.2708   79.7020 N   0  0  0  0  0  0  0  0  0  0  0  0
    0.7236   65.2385   78.9515 C   0  0  0  0  0  0  0  0  0  0  0  0
    1.1460   65.1383   77.6509 O   0  0  0  0  0  0  0  0  0  0  0  0
   -0.1671   64.3378   79.5498 C   0  0  0  0  0  0  0  0  0  0  0  0
   -0.7982   63.2549   79.0598 N   0  0  0  0  0  0  0  0  0  0  0  0
   -1.4978   62.7602   80.1227 N   0  0  0  0  0  0  0  0  0  0  0  0
   -1.4196   63.5501   81.2541 C   0  0  0  0  0  0  0  0  0  0  0  0
   -0.5481   64.5478   80.9053 C   0  0  0  0  0  0  0  0  0  0  0  0
   -0.1290   65.5656   81.6850 N   0  0  0  0  0  0  0  0  0  0  0  0
    0.7232   64.3187   77.3329 H   0  0  0  0  0  0  0  0  0  0  0  0
    2.2267   67.4427   82.7365 C   0  0  0  0  0  0  0  0  0  0  0  0
    2.6918   68.5085   83.4406 N   0  0  0  0  0  0  0  0  0  0  0  0
    2.1604   69.7205   83.1593 C   0  0  0  0  0  0  0  0  0  0  0  0
    1.1697   69.9276   82.2142 C   0  0  0  0  0  0  0  0  0  0  0  0
    0.7060   68.8125   81.5112 C   0  0  0  0  0  0  0  0  0  0  0  0
    1.2356   67.5315   81.7561 C   0  0  0  0  0  0  0  0  0  0  0  0
    0.5985   71.2697   81.9296 C   0  0  0  0  0  0  0  0  0  0  0  0
   -0.4899   71.3982   80.8960 C   0  0  0  0  0  0  0  0  0  0  0  0
    1.0181   72.2512   82.5385 O   0  0  0  0  0  0  0  0  0  0  0  0
    2.6921   66.1883   83.0734 O   0  0  0  0  0  0  0  0  0  0  0  0
    2.6624   65.8749   84.4674 C   0  0  0  0  0  0  0  0  0  0  0  0
    1.2185   65.8127   84.9647 C   0  0  0  0  0  0  0  0  0  0  0  0
    0.5346   64.0385   86.6636 C   0  0  0  0  0  0  0  0  0  0  0  0
    0.7133   64.3891   85.1948 C   0  0  0  0  0  0  0  0  0  0  0  0
   -2.1367   63.3042   82.5357 C   0  0  0  0  0  0  0  0  0  0  0  0
   -1.4644   62.2219   83.3666 C   0  0  0  0  0  0  0  0  0  0  0  0
   -2.3584   61.5964   79.9029 C   0  0  0  0  0  0  0  0  0  0  0  0
   -2.7829   61.4621   78.4775 C   0  0  0  0  0  0  0  0  0  0  0  0
   -3.6839   62.2013   77.8556 N   0  0  0  0  0  0  0  0  0  0  0  0
   -3.7593   61.7223   76.5764 C   0  0  0  0  0  0  0  0  0  0  0  0
   -2.9019   60.6643   76.4075 C   0  0  0  0  0  0  0  0  0  0  0  0
   -2.2954   60.4980   77.6211 N   0  0  0  0  0  0  0  0  0  0  0  0
   -1.3252   59.4750   77.9294 C   0  0  0  0  0  0  0  0  0  0  0  0
 24 25  1  0  0  0
 25 23  1  0  0  0
 23 22  1  0  0  0
 22 21  1  0  0  0
 21 12  1  0  0  0
 12 13  1  0  0  0
 13 14  2  0  0  0
 14 15  1  0  0  0
 15 18  1  0  0  0
 18 19  1  0  0  0
 18 20  2  0  0  0
 15 16  2  0  0  0
 16 17  1  0  0  0
 17  1  1  0  0  0
  1  2  1  0  0  0
  2  3  2  0  0  0
  3  4  1  0  0  0
  3  5  1  0  0  0
  5  6  2  0  0  0
  6  7  1  0  0  0
  7 28  1  0  0  0
 28 29  1  0  0  0
 29 30  2  0  0  0
 30 31  1  0  0  0
 31 32  2  0  0  0
 32 33  1  0  0  0
 33 34  1  0  0  0
  7  8  1  0  0  0
  8 26  1  0  0  0
 26 27  1  0  0  0
  8  9  2  0  0  0
  9 10  1  0  0  0
 17 12  2  0  0  0
 10  1  2  0  0  0
  9  5  1  0  0  0
 33 29  1  0  0  0
  4 11  1  0  0  0
M  END
> <minimizedAffinity>
-9.06336

$$$$



 34 37  0  0  0  0  0  0  0  0999 V2000
    1.7972   66.2783   83.9618 C   0  0  0  0  0  0  0  0  0  0  0  0
    3.0349   66.3846   84.5482 N   0  0  0  0  0  0  0  0  0  0  0  0
    3.8564   67.3845   84.1574 C   0  0  0  0  0  0  0  0  0  0  0  0
    5.0932   67.4876   84.7404 O   0  0  0  0  0  0  0  0  0  0  0  0
    3.3799   68.2740   83.1857 C   0  0  0  0  0  0  0  0  0  0  0  0
    3.9377   69.3660   82.6312 N   0  0  0  0  0  0  0  0  0  0  0  0
    3.0160   69.7913   81.7184 N   0  0  0  0  0  0  0  0  0  0  0  0
    1.8382   69.0685   81.7415 C   0  0  0  0  0  0  0  0  0  0  0  0
    2.0720   68.0781   82.6586 C   0  0  0  0  0  0  0  0  0  0  0  0
    1.2221   67.0966   83.0244 N   0  0  0  0  0  0  0  0  0  0  0  0
    5.5006   68.2482   84.2854 H   0  0  0  0  0  0  0  0  0  0  0  0
    0.1539   64.4059   83.6135 C   0  0  0  0  0  0  0  0  0  0  0  0
   -0.6471   63.3990   84.0522 N   0  0  0  0  0  0  0  0  0  0  0  0
   -0.6705   63.1567   85.3830 C   0  0  0  0  0  0  0  0  0  0  0  0
    0.0582   63.8808   86.3117 C   0  0  0  0  0  0  0  0  0  0  0  0
    0.8672   64.9144   85.8324 C   0  0  0  0  0  0  0  0  0  0  0  0
    0.9379   65.1984   84.4554 C   0  0  0  0  0  0  0  0  0  0  0  0
    0.0088   63.5975   87.7697 C   0  0  0  0  0  0  0  0  0  0  0  0
   -1.2925   63.1544   88.3858 C   0  0  0  0  0  0  0  0  0  0  0  0
    1.0245   63.7263   88.4494 O   0  0  0  0  0  0  0  0  0  0  0  0
    0.1206   64.7251   82.2716 O   0  0  0  0  0  0  0  0  0  0  0  0
   -0.7188   63.8981   81.4632 C   0  0  0  0  0  0  0  0  0  0  0  0
    0.1311   62.9896   80.5752 C   0  0  0  0  0  0  0  0  0  0  0  0
    1.2555   61.1996   82.0012 C   0  0  0  0  0  0  0  0  0  0  0  0
    0.1371   61.5293   81.0250 C   0  0  0  0  0  0  0  0  0  0  0  0
    0.6310   69.3494   80.9163 C   0  0  0  0  0  0  0  0  0  0  0  0
   -0.2313   70.4462   81.5223 C   0  0  0  0  0  0  0  0  0  0  0  0
    3.2954   71.0212   80.9749 C   0  0  0  0  0  0  0  0  0  0  0  0
    3.2773   72.2321   81.8483 C   0  0  0  0  0  0  0  0  0  0  0  0
    2.5494   72.4016   82.9376 N   0  0  0  0  0  0  0  0  0  0  0  0
    2.8412   73.6534   83.4057 C   0  0  0  0  0  0  0  0  0  0  0  0
    3.7535   74.2721   82.5883 C   0  0  0  0  0  0  0  0  0  0  0  0
    4.0156   73.3688   81.5965 N   0  0  0  0  0  0  0  0  0  0  0  0
    4.9061   73.5954   80.4836 C   0  0  0  0  0  0  0  0  0  0  0  0
 24 25  1  0  0  0
 25 23  1  0  0  0
 23 22  1  0  0  0
 22 21  1  0  0  0
 21 12  1  0  0  0
 12 13  1  0  0  0
 13 14  2  0  0  0
 14 15  1  0  0  0
 15 18  1  0  0  0
 18 19  1  0  0  0
 18 20  2  0  0  0
 15 16  2  0  0  0
 16 17  1  0  0  0
 17  1  1  0  0  0
  1  2  1  0  0  0
  2  3  2  0  0  0
  3  4  1  0  0  0
  3  5  1  0  0  0
  5  6  2  0  0  0
  6  7  1  0  0  0
  7 28  1  0  0  0
 28 29  1  0  0  0
 29 30  2  0  0  0
 30 31  1  0  0  0
 31 32  2  0  0  0
 32 33  1  0  0  0
 33 34  1  0  0  0
  7  8  1  0  0  0
  8 26  1  0  0  0
 26 27  1  0  0  0
  8  9  2  0  0  0
  9 10  1  0  0  0
 17 12  2  0  0  0
 10  1  2  0  0  0
  9  5  1  0  0  0
 33 29  1  0  0  0
  4 11  1  0  0  0
M  END
> <minimizedAffinity>
-9.01016

$$$$



 34 37  0  0  0  0  0  0  0  0999 V2000
    1.1545   67.3400   81.3336 C   0  0  0  0  0  0  0  0  0  0  0  0
    1.4119   67.1265   80.0012 N   0  0  0  0  0  0  0  0  0  0  0  0
    1.1755   65.9013   79.4810 C   0  0  0  0  0  0  0  0  0  0  0  0
    1.4362   65.6879   78.1519 O   0  0  0  0  0  0  0  0  0  0  0  0
    0.6544   64.9222   80.3367 C   0  0  0  0  0  0  0  0  0  0  0  0
    0.2892   63.6470   80.1093 N   0  0  0  0  0  0  0  0  0  0  0  0
   -0.1018   63.1830   81.3323 N   0  0  0  0  0  0  0  0  0  0  0  0
   -0.0987   64.1503   82.3194 C   0  0  0  0  0  0  0  0  0  0  0  0
    0.4098   65.2601   81.6978 C   0  0  0  0  0  0  0  0  0  0  0  0
    0.6288   66.4698   82.2530 N   0  0  0  0  0  0  0  0  0  0  0  0
    1.2190   64.7457   78.0221 H   0  0  0  0  0  0  0  0  0  0  0  0
    2.4582   69.0231   82.6734 C   0  0  0  0  0  0  0  0  0  0  0  0
    2.6974   70.2768   83.1413 N   0  0  0  0  0  0  0  0  0  0  0  0
    1.8517   71.2586   82.7523 C   0  0  0  0  0  0  0  0  0  0  0  0
    0.7605   71.0535   81.9247 C   0  0  0  0  0  0  0  0  0  0  0  0
    0.5353   69.7532   81.4651 C   0  0  0  0  0  0  0  0  0  0  0  0
    1.3937   68.6985   81.8291 C   0  0  0  0  0  0  0  0  0  0  0  0
   -0.1569   72.1496   81.5181 C   0  0  0  0  0  0  0  0  0  0  0  0
   -1.1997   71.8788   80.4651 C   0  0  0  0  0  0  0  0  0  0  0  0
   -0.0544   73.2555   82.0439 O   0  0  0  0  0  0  0  0  0  0  0  0
    3.2561   67.9952   83.1319 O   0  0  0  0  0  0  0  0  0  0  0  0
    3.4942   67.9827   84.5410 C   0  0  0  0  0  0  0  0  0  0  0  0
    4.9797   67.7607   84.8243 C   0  0  0  0  0  0  0  0  0  0  0  0
    5.5501   66.4808   86.9546 C   0  0  0  0  0  0  0  0  0  0  0  0
    5.3362   67.8404   86.3080 C   0  0  0  0  0  0  0  0  0  0  0  0
   -0.5468   63.9565   83.7261 C   0  0  0  0  0  0  0  0  0  0  0  0
    0.5576   64.2686   84.7244 C   0  0  0  0  0  0  0  0  0  0  0  0
   -0.6280   61.8195   81.4187 C   0  0  0  0  0  0  0  0  0  0  0  0
   -1.9601   61.6793   80.7587 C   0  0  0  0  0  0  0  0  0  0  0  0
   -3.1219   62.0754   81.2469 N   0  0  0  0  0  0  0  0  0  0  0  0
   -4.0665   61.7380   80.3167 C   0  0  0  0  0  0  0  0  0  0  0  0
   -3.4828   61.1137   79.2430 C   0  0  0  0  0  0  0  0  0  0  0  0
   -2.1486   61.0696   79.5367 N   0  0  0  0  0  0  0  0  0  0  0  0
   -1.1354   60.4718   78.7006 C   0  0  0  0  0  0  0  0  0  0  0  0
 24 25  1  0  0  0
 25 23  1  0  0  0
 23 22  1  0  0  0
 22 21  1  0  0  0
 21 12  1  0  0  0
 12 13  1  0  0  0
 13 14  2  0  0  0
 14 15  1  0  0  0
 15 18  1  0  0  0
 18 19  1  0  0  0
 18 20  2  0  0  0
 15 16  2  0  0  0
 16 17  1  0  0  0
 17  1  1  0  0  0
  1  2  1  0  0  0
  2  3  2  0  0  0
  3  4  1  0  0  0
  3  5  1  0  0  0
  5  6  2  0  0  0
  6  7  1  0  0  0
  7 28  1  0  0  0
 28 29  1  0  0  0
 29 30  2  0  0  0
 30 31  1  0  0  0
 31 32  2  0  0  0
 32 33  1  0  0  0
 33 34  1  0  0  0
  7  8  1  0  0  0
  8 26  1  0  0  0
 26 27  1  0  0  0
  8  9  2  0  0  0
  9 10  1  0  0  0
 17 12  2  0  0  0
 10  1  2  0  0  0
  9  5  1  0  0  0
 33 29  1  0  0  0
  4 11  1  0  0  0
M  END
> <minimizedAffinity>
-8.98696

$$$$



 34 37  0  0  0  0  0  0  0  0999 V2000
   -0.6837   63.5829   82.9461 C   0  0  0  0  0  0  0  0  0  0  0  0
   -0.3030   63.8360   84.2415 N   0  0  0  0  0  0  0  0  0  0  0  0
    0.4756   64.9122   84.4925 C   0  0  0  0  0  0  0  0  0  0  0  0
    0.8584   65.1620   85.7852 O   0  0  0  0  0  0  0  0  0  0  0  0
    0.8295   65.7247   83.4075 C   0  0  0  0  0  0  0  0  0  0  0  0
    1.5490   66.8603   83.3457 N   0  0  0  0  0  0  0  0  0  0  0  0
    1.5903   67.1636   82.0153 N   0  0  0  0  0  0  0  0  0  0  0  0
    0.8320   66.3165   81.2295 C   0  0  0  0  0  0  0  0  0  0  0  0
    0.3632   65.3760   82.1084 C   0  0  0  0  0  0  0  0  0  0  0  0
   -0.4167   64.3144   81.8180 N   0  0  0  0  0  0  0  0  0  0  0  0
    1.4234   65.9537   85.7101 H   0  0  0  0  0  0  0  0  0  0  0  0
   -2.1237   61.7051   83.7991 C   0  0  0  0  0  0  0  0  0  0  0  0
   -2.9393   60.6306   83.6312 N   0  0  0  0  0  0  0  0  0  0  0  0
   -3.2180   60.2526   82.3624 C   0  0  0  0  0  0  0  0  0  0  0  0
   -2.7107   60.8857   81.2401 C   0  0  0  0  0  0  0  0  0  0  0  0
   -1.8694   61.9827   81.4435 C   0  0  0  0  0  0  0  0  0  0  0  0
   -1.5592   62.4250   82.7435 C   0  0  0  0  0  0  0  0  0  0  0  0
   -3.0280   60.4452   79.8567 C   0  0  0  0  0  0  0  0  0  0  0  0
   -3.1413   61.4791   78.7669 C   0  0  0  0  0  0  0  0  0  0  0  0
   -3.1915   59.2503   79.6209 O   0  0  0  0  0  0  0  0  0  0  0  0
   -1.7571   62.0480   85.0843 O   0  0  0  0  0  0  0  0  0  0  0  0
   -2.8366   62.2569   85.9971 C   0  0  0  0  0  0  0  0  0  0  0  0
   -2.3291   62.9328   87.2705 C   0  0  0  0  0  0  0  0  0  0  0  0
   -0.3112   63.3528   88.7718 C   0  0  0  0  0  0  0  0  0  0  0  0
   -0.9212   62.4963   87.6732 C   0  0  0  0  0  0  0  0  0  0  0  0
    0.6265   66.4468   79.7605 C   0  0  0  0  0  0  0  0  0  0  0  0
    1.7450   65.7880   78.9676 C   0  0  0  0  0  0  0  0  0  0  0  0
    2.2572   68.4019   81.6086 C   0  0  0  0  0  0  0  0  0  0  0  0
    1.3518   69.5872   81.6799 C   0  0  0  0  0  0  0  0  0  0  0  0
    0.0970   69.6402   81.2705 N   0  0  0  0  0  0  0  0  0  0  0  0
   -0.3360   70.9141   81.5179 C   0  0  0  0  0  0  0  0  0  0  0  0
    0.6684   71.6635   82.0773 C   0  0  0  0  0  0  0  0  0  0  0  0
    1.7388   70.8181   82.1655 N   0  0  0  0  0  0  0  0  0  0  0  0
    3.0410   71.1800   82.6719 C   0  0  0  0  0  0  0  0  0  0  0  0
 24 25  1  0  0  0
 25 23  1  0  0  0
 23 22  1  0  0  0
 22 21  1  0  0  0
 21 12  1  0  0  0
 12 13  1  0  0  0
 13 14  2  0  0  0
 14 15  1  0  0  0
 15 18  1  0  0  0
 18 19  1  0  0  0
 18 20  2  0  0  0
 15 16  2  0  0  0
 16 17  1  0  0  0
 17  1  1  0  0  0
  1  2  1  0  0  0
  2  3  2  0  0  0
  3  4  1  0  0  0
  3  5  1  0  0  0
  5  6  2  0  0  0
  6  7  1  0  0  0
  7 28  1  0  0  0
 28 29  1  0  0  0
 29 30  2  0  0  0
 30 31  1  0  0  0
 31 32  2  0  0  0
 32 33  1  0  0  0
 33 34  1  0  0  0
  7  8  1  0  0  0
  8 26  1  0  0  0
 26 27  1  0  0  0
  8  9  2  0  0  0
  9 10  1  0  0  0
 17 12  2  0  0  0
 10  1  2  0  0  0
  9  5  1  0  0  0
 33 29  1  0  0  0
  4 11  1  0  0  0
M  END
> <minimizedAffinity>
-8.95994

$$$$



 34 37  0  0  0  0  0  0  0  0999 V2000
    1.9377   66.1858   83.9024 C   0  0  0  0  0  0  0  0  0  0  0  0
    3.1441   66.3275   84.5440 N   0  0  0  0  0  0  0  0  0  0  0  0
    3.9452   67.3615   84.2026 C   0  0  0  0  0  0  0  0  0  0  0  0
    5.1509   67.5001   84.8409 O   0  0  0  0  0  0  0  0  0  0  0  0
    3.4797   68.2474   83.2224 C   0  0  0  0  0  0  0  0  0  0  0  0
    4.0212   69.3664   82.7070 N   0  0  0  0  0  0  0  0  0  0  0  0
    3.1254   69.7717   81.7600 N   0  0  0  0  0  0  0  0  0  0  0  0
    1.9746   69.0074   81.7219 C   0  0  0  0  0  0  0  0  0  0  0  0
    2.2039   68.0128   82.6357 C   0  0  0  0  0  0  0  0  0  0  0  0
    1.3749   66.9965   82.9511 N   0  0  0  0  0  0  0  0  0  0  0  0
    5.5500   68.2812   84.4139 H   0  0  0  0  0  0  0  0  0  0  0  0
    0.5941   64.1042   83.4680 C   0  0  0  0  0  0  0  0  0  0  0  0
   -0.1847   63.0607   83.8586 N   0  0  0  0  0  0  0  0  0  0  0  0
   -0.4746   62.9591   85.1763 C   0  0  0  0  0  0  0  0  0  0  0  0
   -0.0375   63.8590   86.1337 C   0  0  0  0  0  0  0  0  0  0  0  0
    0.7553   64.9256   85.7018 C   0  0  0  0  0  0  0  0  0  0  0  0
    1.0973   65.0691   84.3438 C   0  0  0  0  0  0  0  0  0  0  0  0
   -0.3765   63.7273   87.5746 C   0  0  0  0  0  0  0  0  0  0  0  0
   -1.7090   63.1413   87.9627 C   0  0  0  0  0  0  0  0  0  0  0  0
    0.4303   64.0947   88.4256 O   0  0  0  0  0  0  0  0  0  0  0  0
    0.8241   64.2736   82.1182 O   0  0  0  0  0  0  0  0  0  0  0  0
   -0.3396   64.2564   81.2888 C   0  0  0  0  0  0  0  0  0  0  0  0
   -0.3945   65.5186   80.4285 C   0  0  0  0  0  0  0  0  0  0  0  0
    1.7229   66.0174   79.0982 C   0  0  0  0  0  0  0  0  0  0  0  0
    0.3416   65.3814   79.0966 C   0  0  0  0  0  0  0  0  0  0  0  0
    0.7951   69.2570   80.8481 C   0  0  0  0  0  0  0  0  0  0  0  0
   -0.1639   70.2671   81.4595 C   0  0  0  0  0  0  0  0  0  0  0  0
    3.3924   71.0213   81.0453 C   0  0  0  0  0  0  0  0  0  0  0  0
    3.2723   72.2198   81.9279 C   0  0  0  0  0  0  0  0  0  0  0  0
    2.5109   72.3288   83.0018 N   0  0  0  0  0  0  0  0  0  0  0  0
    2.7061   73.5931   83.4864 C   0  0  0  0  0  0  0  0  0  0  0  0
    3.5915   74.2804   82.6947 C   0  0  0  0  0  0  0  0  0  0  0  0
    3.9365   73.4066   81.7019 N   0  0  0  0  0  0  0  0  0  0  0  0
    4.8334   73.7040   80.6110 C   0  0  0  0  0  0  0  0  0  0  0  0
 24 25  1  0  0  0
 25 23  1  0  0  0
 23 22  1  0  0  0
 22 21  1  0  0  0
 21 12  1  0  0  0
 12 13  1  0  0  0
 13 14  2  0  0  0
 14 15  1  0  0  0
 15 18  1  0  0  0
 18 19  1  0  0  0
 18 20  2  0  0  0
 15 16  2  0  0  0
 16 17  1  0  0  0
 17  1  1  0  0  0
  1  2  1  0  0  0
  2  3  2  0  0  0
  3  4  1  0  0  0
  3  5  1  0  0  0
  5  6  2  0  0  0
  6  7  1  0  0  0
  7 28  1  0  0  0
 28 29  1  0  0  0
 29 30  2  0  0  0
 30 31  1  0  0  0
 31 32  2  0  0  0
 32 33  1  0  0  0
 33 34  1  0  0  0
  7  8  1  0  0  0
  8 26  1  0  0  0
 26 27  1  0  0  0
  8  9  2  0  0  0
  9 10  1  0  0  0
 17 12  2  0  0  0
 10  1  2  0  0  0
  9  5  1  0  0  0
 33 29  1  0  0  0
  4 11  1  0  0  0
M  END
> <minimizedAffinity>
-8.95169

$$$$



 34 37  0  0  0  0  0  0  0  0999 V2000
   -0.7763   63.7424   81.2727 C   0  0  0  0  0  0  0  0  0  0  0  0
   -0.6884   64.0439   79.9354 N   0  0  0  0  0  0  0  0  0  0  0  0
    0.0212   65.1311   79.5587 C   0  0  0  0  0  0  0  0  0  0  0  0
    0.1053   65.4336   78.2240 O   0  0  0  0  0  0  0  0  0  0  0  0
    0.6496   65.8767   80.5646 C   0  0  0  0  0  0  0  0  0  0  0  0
    1.4377   66.9657   80.5021 N   0  0  0  0  0  0  0  0  0  0  0  0
    1.7103   67.2624   81.8065 N   0  0  0  0  0  0  0  0  0  0  0  0
    1.2084   66.3374   82.7022 C   0  0  0  0  0  0  0  0  0  0  0  0
    0.5047   65.4614   81.9186 C   0  0  0  0  0  0  0  0  0  0  0  0
   -0.1907   64.3827   82.3338 N   0  0  0  0  0  0  0  0  0  0  0  0
    0.6315   66.2549   78.2058 H   0  0  0  0  0  0  0  0  0  0  0  0
   -1.8270   62.1686   82.9300 C   0  0  0  0  0  0  0  0  0  0  0  0
   -2.5226   61.0503   83.2667 N   0  0  0  0  0  0  0  0  0  0  0  0
   -2.9487   60.2549   82.2586 C   0  0  0  0  0  0  0  0  0  0  0  0
   -2.7039   60.5091   80.9195 C   0  0  0  0  0  0  0  0  0  0  0  0
   -1.9802   61.6620   80.6040 C   0  0  0  0  0  0  0  0  0  0  0  0
   -1.5261   62.5303   81.6147 C   0  0  0  0  0  0  0  0  0  0  0  0
   -3.1782   59.6144   79.8319 C   0  0  0  0  0  0  0  0  0  0  0  0
   -3.2106   60.1338   78.4182 C   0  0  0  0  0  0  0  0  0  0  0  0
   -3.5344   58.4688   80.0982 O   0  0  0  0  0  0  0  0  0  0  0  0
   -1.3078   62.9419   83.9479 O   0  0  0  0  0  0  0  0  0  0  0  0
   -0.9340   62.2321   85.1305 C   0  0  0  0  0  0  0  0  0  0  0  0
   -0.3564   63.1967   86.1659 C   0  0  0  0  0  0  0  0  0  0  0  0
   -2.6627   63.0053   87.2365 C   0  0  0  0  0  0  0  0  0  0  0  0
   -1.1823   63.2808   87.4487 C   0  0  0  0  0  0  0  0  0  0  0  0
    1.4123   66.3579   84.1771 C   0  0  0  0  0  0  0  0  0  0  0  0
    2.7048   65.6665   84.5836 C   0  0  0  0  0  0  0  0  0  0  0  0
    2.6150   68.3788   82.0873 C   0  0  0  0  0  0  0  0  0  0  0  0
    2.0081   69.7020   81.7549 C   0  0  0  0  0  0  0  0  0  0  0  0
    0.8116   70.1284   82.1175 N   0  0  0  0  0  0  0  0  0  0  0  0
    0.6708   71.3809   81.5855 C   0  0  0  0  0  0  0  0  0  0  0  0
    1.7910   71.7299   80.8737 C   0  0  0  0  0  0  0  0  0  0  0  0
    2.6292   70.6551   80.9760 N   0  0  0  0  0  0  0  0  0  0  0  0
    3.9288   70.5558   80.3563 C   0  0  0  0  0  0  0  0  0  0  0  0
 24 25  1  0  0  0
 25 23  1  0  0  0
 23 22  1  0  0  0
 22 21  1  0  0  0
 21 12  1  0  0  0
 12 13  1  0  0  0
 13 14  2  0  0  0
 14 15  1  0  0  0
 15 18  1  0  0  0
 18 19  1  0  0  0
 18 20  2  0  0  0
 15 16  2  0  0  0
 16 17  1  0  0  0
 17  1  1  0  0  0
  1  2  1  0  0  0
  2  3  2  0  0  0
  3  4  1  0  0  0
  3  5  1  0  0  0
  5  6  2  0  0  0
  6  7  1  0  0  0
  7 28  1  0  0  0
 28 29  1  0  0  0
 29 30  2  0  0  0
 30 31  1  0  0  0
 31 32  2  0  0  0
 32 33  1  0  0  0
 33 34  1  0  0  0
  7  8  1  0  0  0
  8 26  1  0  0  0
 26 27  1  0  0  0
  8  9  2  0  0  0
  9 10  1  0  0  0
 17 12  2  0  0  0
 10  1  2  0  0  0
  9  5  1  0  0  0
 33 29  1  0  0  0
  4 11  1  0  0  0
M  END
> <minimizedAffinity>
-8.80911

$$$$
