


 36 40  0  0  0  0  0  0  0  0999 V2000
    0.8698   64.7565   84.5919 C   0  0  0  0  0  0  0  0  0  0  0  0
    1.6915   65.8683   84.8354 C   0  0  0  0  0  0  0  0  0  0  0  0
    1.8852   66.8358   83.8500 C   0  0  0  0  0  0  0  0  0  0  0  0
    1.2353   66.7025   82.6255 C   0  0  0  0  0  0  0  0  0  0  0  0
    0.4063   65.6065   82.3743 C   0  0  0  0  0  0  0  0  0  0  0  0
    0.1979   64.6151   83.3568 C   0  0  0  0  0  0  0  0  0  0  0  0
   -0.7106   63.4936   83.0589 C   0  0  0  0  0  0  0  0  0  0  0  0
   -1.4790   63.0223   84.0671 N   0  0  0  0  0  0  0  0  0  0  0  0
   -2.2840   61.9824   83.8015 C   0  0  0  0  0  0  0  0  0  0  0  0
   -3.0463   61.5660   84.8557 O   0  0  0  0  0  0  0  0  0  0  0  0
   -2.3147   61.3896   82.5443 C   0  0  0  0  0  0  0  0  0  0  0  0
   -3.0203   60.3394   82.0126 N   0  0  0  0  0  0  0  0  0  0  0  0
   -2.6091   60.2493   80.7659 C   0  0  0  0  0  0  0  0  0  0  0  0
   -2.9945   59.3450   79.7440 C   0  0  0  0  0  0  0  0  0  0  0  0
   -2.4313   59.4365   78.5278 C   0  0  0  0  0  0  0  0  0  0  0  0
   -1.4234   60.4451   78.2139 C   0  0  0  0  0  0  0  0  0  0  0  0
   -0.7640   60.4005   76.4628 Br  0  0  0  0  0  0  0  0  0  0  0  0
   -1.0372   61.3230   79.1716 C   0  0  0  0  0  0  0  0  0  0  0  0
   -0.0085   62.4053   78.9740 C   0  0  0  0  0  0  0  0  0  0  0  0
   -1.6447   61.2110   80.4477 N   0  0  0  0  0  0  0  0  0  0  0  0
   -1.4628   61.9496   81.6053 C   0  0  0  0  0  0  0  0  0  0  0  0
   -0.6355   62.9948   81.8029 N   0  0  0  0  0  0  0  0  0  0  0  0
   -2.7689   62.1997   85.5391 H   0  0  0  0  0  0  0  0  0  0  0  0
    1.4718   67.9477   81.3812 S   0  0  0  0  0  0  0  0  0  0  0  0
    2.1863   67.3203   80.2901 O   0  0  0  0  0  0  0  0  0  0  0  0
    0.2061   68.6119   81.1576 O   0  0  0  0  0  0  0  0  0  0  0  0
    2.5226   69.0396   82.1527 N   0  0  0  0  0  0  0  0  0  0  0  0
    1.9047   70.0727   83.0422 C   0  0  0  0  0  0  0  0  0  0  0  0
    1.3869   71.2983   82.2608 C   0  0  0  0  0  0  0  0  0  0  0  0
    2.4192   71.8954   81.3897 N   0  0  0  0  0  0  0  0  0  0  0  0
    1.8624   73.0099   80.6239 C   0  0  0  0  0  0  0  0  0  0  0  0
    2.9664   70.8660   80.4817 C   0  0  0  0  0  0  0  0  0  0  0  0
    3.5436   69.6688   81.2587 C   0  0  0  0  0  0  0  0  0  0  0  0
    0.6072   63.8362   85.5768 O   0  0  0  0  0  0  0  0  0  0  0  0
   -0.7703   63.6722   87.5928 C   0  0  0  0  0  0  0  0  0  0  0  0
    0.3948   64.3542   86.8939 C   0  0  0  0  0  0  0  0  0  0  0  0
 35 36  1  0  0  0
 36 34  1  0  0  0
 34  1  1  0  0  0
  1  2  1  0  0  0
  2  3  2  0  0  0
  3  4  1  0  0  0
  4 24  1  0  0  0
 24 25  2  0  0  0
 24 26  2  0  0  0
 24 27  1  0  0  0
 27 28  1  0  0  0
 28 29  1  0  0  0
 29 30  1  0  0  0
 30 31  1  0  0  0
 30 32  1  0  0  0
 32 33  1  0  0  0
  4  5  2  0  0  0
  5  6  1  0  0  0
  6  7  1  0  0  0
  7  8  2  0  0  0
  8  9  1  0  0  0
  9 10  1  0  0  0
  9 11  2  0  0  0
 11 12  1  0  0  0
 12 13  2  0  0  0
 13 14  1  0  0  0
 14 15  2  0  0  0
 15 16  1  0  0  0
 16 17  1  0  0  0
 16 18  2  0  0  0
 18 19  1  0  0  0
 18 20  1  0  0  0
 20 21  1  0  0  0
 21 22  2  0  0  0
  6  1  2  0  0  0
 22  7  1  0  0  0
 33 27  1  0  0  0
 21 11  1  0  0  0
 20 13  1  0  0  0
 10 23  1  0  0  0
M  END
> <minimizedAffinity>
-10.72226

$$$$



 36 40  0  0  0  0  0  0  0  0999 V2000
    3.3206   66.3978   84.5610 C   0  0  0  0  0  0  0  0  0  0  0  0
    4.1497   67.4932   84.2727 C   0  0  0  0  0  0  0  0  0  0  0  0
    3.7221   68.4963   83.4034 C   0  0  0  0  0  0  0  0  0  0  0  0
    2.4512   68.4150   82.8398 C   0  0  0  0  0  0  0  0  0  0  0  0
    1.6120   67.3357   83.1271 C   0  0  0  0  0  0  0  0  0  0  0  0
    2.0255   66.3089   84.0025 C   0  0  0  0  0  0  0  0  0  0  0  0
    1.0942   65.2066   84.3016 C   0  0  0  0  0  0  0  0  0  0  0  0
    0.9991   64.7952   85.5863 N   0  0  0  0  0  0  0  0  0  0  0  0
    0.1728   63.7723   85.8521 C   0  0  0  0  0  0  0  0  0  0  0  0
    0.1083   63.4171   87.1695 O   0  0  0  0  0  0  0  0  0  0  0  0
   -0.5448   63.1370   84.8449 C   0  0  0  0  0  0  0  0  0  0  0  0
   -1.4335   62.0913   84.8343 N   0  0  0  0  0  0  0  0  0  0  0  0
   -1.7719   61.9448   83.5711 C   0  0  0  0  0  0  0  0  0  0  0  0
   -2.6597   61.0176   82.9689 C   0  0  0  0  0  0  0  0  0  0  0  0
   -2.8529   61.0488   81.6398 C   0  0  0  0  0  0  0  0  0  0  0  0
   -2.1738   62.0138   80.7800 C   0  0  0  0  0  0  0  0  0  0  0  0
   -2.5799   61.8873   78.9573 Br  0  0  0  0  0  0  0  0  0  0  0  0
   -1.3205   62.9123   81.3293 C   0  0  0  0  0  0  0  0  0  0  0  0
   -0.5599   63.9543   80.5520 C   0  0  0  0  0  0  0  0  0  0  0  0
   -1.1318   62.8641   82.7336 N   0  0  0  0  0  0  0  0  0  0  0  0
   -0.3413   63.6369   83.5683 C   0  0  0  0  0  0  0  0  0  0  0  0
    0.4666   64.6619   83.2332 N   0  0  0  0  0  0  0  0  0  0  0  0
    0.7187   64.0654   87.5602 H   0  0  0  0  0  0  0  0  0  0  0  0
    1.9056   69.7051   81.7478 S   0  0  0  0  0  0  0  0  0  0  0  0
    2.3520   69.3466   80.4185 O   0  0  0  0  0  0  0  0  0  0  0  0
    0.5087   69.9679   82.0180 O   0  0  0  0  0  0  0  0  0  0  0  0
    2.8157   71.0404   82.2772 N   0  0  0  0  0  0  0  0  0  0  0  0
    2.1171   72.0492   83.1343 C   0  0  0  0  0  0  0  0  0  0  0  0
    1.3067   73.0714   82.3103 C   0  0  0  0  0  0  0  0  0  0  0  0
    2.1166   73.7307   81.2660 N   0  0  0  0  0  0  0  0  0  0  0  0
    1.2898   74.6394   80.4728 C   0  0  0  0  0  0  0  0  0  0  0  0
    2.7435   72.7115   80.3990 C   0  0  0  0  0  0  0  0  0  0  0  0
    3.6063   71.7266   81.2087 C   0  0  0  0  0  0  0  0  0  0  0  0
    3.6950   65.4424   85.4736 O   0  0  0  0  0  0  0  0  0  0  0  0
    5.3892   65.2693   87.2311 C   0  0  0  0  0  0  0  0  0  0  0  0
    5.0966   65.3296   85.7405 C   0  0  0  0  0  0  0  0  0  0  0  0
 35 36  1  0  0  0
 36 34  1  0  0  0
 34  1  1  0  0  0
  1  2  1  0  0  0
  2  3  2  0  0  0
  3  4  1  0  0  0
  4 24  1  0  0  0
 24 25  2  0  0  0
 24 26  2  0  0  0
 24 27  1  0  0  0
 27 28  1  0  0  0
 28 29  1  0  0  0
 29 30  1  0  0  0
 30 31  1  0  0  0
 30 32  1  0  0  0
 32 33  1  0  0  0
  4  5  2  0  0  0
  5  6  1  0  0  0
  6  7  1  0  0  0
  7  8  2  0  0  0
  8  9  1  0  0  0
  9 10  1  0  0  0
  9 11  2  0  0  0
 11 12  1  0  0  0
 12 13  2  0  0  0
 13 14  1  0  0  0
 14 15  2  0  0  0
 15 16  1  0  0  0
 16 17  1  0  0  0
 16 18  2  0  0  0
 18 19  1  0  0  0
 18 20  1  0  0  0
 20 21  1  0  0  0
 21 22  2  0  0  0
  6  1  2  0  0  0
 22  7  1  0  0  0
 33 27  1  0  0  0
 21 11  1  0  0  0
 20 13  1  0  0  0
 10 23  1  0  0  0
M  END
> <minimizedAffinity>
-10.49861

$$$$



 36 40  0  0  0  0  0  0  0  0999 V2000
   -1.0565   63.3580   83.6074 C   0  0  0  0  0  0  0  0  0  0  0  0
   -1.6846   62.1296   83.8666 C   0  0  0  0  0  0  0  0  0  0  0  0
   -2.3983   61.4731   82.8644 C   0  0  0  0  0  0  0  0  0  0  0  0
   -2.4632   62.0360   81.5922 C   0  0  0  0  0  0  0  0  0  0  0  0
   -1.8334   63.2524   81.3181 C   0  0  0  0  0  0  0  0  0  0  0  0
   -1.1076   63.9344   82.3181 C   0  0  0  0  0  0  0  0  0  0  0  0
   -0.4324   65.1985   81.9746 C   0  0  0  0  0  0  0  0  0  0  0  0
   -0.8813   65.8775   80.8945 N   0  0  0  0  0  0  0  0  0  0  0  0
   -0.2467   67.0129   80.5661 C   0  0  0  0  0  0  0  0  0  0  0  0
   -0.7593   67.6598   79.4776 O   0  0  0  0  0  0  0  0  0  0  0  0
    0.8490   67.4689   81.2904 C   0  0  0  0  0  0  0  0  0  0  0  0
    1.6668   68.5650   81.1757 N   0  0  0  0  0  0  0  0  0  0  0  0
    2.5365   68.4450   82.1558 C   0  0  0  0  0  0  0  0  0  0  0  0
    3.6165   69.2877   82.5219 C   0  0  0  0  0  0  0  0  0  0  0  0
    4.3880   68.9618   83.5723 C   0  0  0  0  0  0  0  0  0  0  0  0
    4.1540   67.7562   84.3617 C   0  0  0  0  0  0  0  0  0  0  0  0
    5.3434   67.4848   85.7812 Br  0  0  0  0  0  0  0  0  0  0  0  0
    3.1279   66.9331   84.0347 C   0  0  0  0  0  0  0  0  0  0  0  0
    2.7848   65.6625   84.7670 C   0  0  0  0  0  0  0  0  0  0  0  0
    2.3245   67.2957   82.9242 N   0  0  0  0  0  0  0  0  0  0  0  0
    1.2251   66.6706   82.3592 C   0  0  0  0  0  0  0  0  0  0  0  0
    0.6301   65.5253   82.7467 N   0  0  0  0  0  0  0  0  0  0  0  0
   -1.4963   67.0685   79.2482 H   0  0  0  0  0  0  0  0  0  0  0  0
   -3.3584   61.1857   80.3154 S   0  0  0  0  0  0  0  0  0  0  0  0
   -3.0725   59.7753   80.4704 O   0  0  0  0  0  0  0  0  0  0  0  0
   -4.7207   61.6731   80.3146 O   0  0  0  0  0  0  0  0  0  0  0  0
   -2.5898   61.7365   78.9021 N   0  0  0  0  0  0  0  0  0  0  0  0
   -3.3130   61.5372   77.6069 C   0  0  0  0  0  0  0  0  0  0  0  0
   -3.1161   60.1210   77.0268 C   0  0  0  0  0  0  0  0  0  0  0  0
   -1.6920   59.7497   76.9032 N   0  0  0  0  0  0  0  0  0  0  0  0
   -1.5600   58.3787   76.4117 C   0  0  0  0  0  0  0  0  0  0  0  0
   -1.0195   59.8977   78.2106 C   0  0  0  0  0  0  0  0  0  0  0  0
   -1.1576   61.3275   78.7644 C   0  0  0  0  0  0  0  0  0  0  0  0
   -0.2861   63.9785   84.5599 O   0  0  0  0  0  0  0  0  0  0  0  0
    0.5944   64.1514   86.8367 C   0  0  0  0  0  0  0  0  0  0  0  0
   -0.2120   63.3376   85.8374 C   0  0  0  0  0  0  0  0  0  0  0  0
 35 36  1  0  0  0
 36 34  1  0  0  0
 34  1  1  0  0  0
  1  2  1  0  0  0
  2  3  2  0  0  0
  3  4  1  0  0  0
  4 24  1  0  0  0
 24 25  2  0  0  0
 24 26  2  0  0  0
 24 27  1  0  0  0
 27 28  1  0  0  0
 28 29  1  0  0  0
 29 30  1  0  0  0
 30 31  1  0  0  0
 30 32  1  0  0  0
 32 33  1  0  0  0
  4  5  2  0  0  0
  5  6  1  0  0  0
  6  7  1  0  0  0
  7  8  2  0  0  0
  8  9  1  0  0  0
  9 10  1  0  0  0
  9 11  2  0  0  0
 11 12  1  0  0  0
 12 13  2  0  0  0
 13 14  1  0  0  0
 14 15  2  0  0  0
 15 16  1  0  0  0
 16 17  1  0  0  0
 16 18  2  0  0  0
 18 19  1  0  0  0
 18 20  1  0  0  0
 20 21  1  0  0  0
 21 22  2  0  0  0
  6  1  2  0  0  0
 22  7  1  0  0  0
 33 27  1  0  0  0
 21 11  1  0  0  0
 20 13  1  0  0  0
 10 23  1  0  0  0
M  END
> <minimizedAffinity>
-10.33873

$$$$



 36 40  0  0  0  0  0  0  0  0999 V2000
    0.1535   64.5084   84.1203 C   0  0  0  0  0  0  0  0  0  0  0  0
   -0.6274   63.3540   83.9529 C   0  0  0  0  0  0  0  0  0  0  0  0
   -0.8347   62.8165   82.6829 C   0  0  0  0  0  0  0  0  0  0  0  0
   -0.2385   63.4224   81.5797 C   0  0  0  0  0  0  0  0  0  0  0  0
    0.5499   64.5653   81.7339 C   0  0  0  0  0  0  0  0  0  0  0  0
    0.7710   65.1267   83.0097 C   0  0  0  0  0  0  0  0  0  0  0  0
    1.6363   66.3139   83.1279 C   0  0  0  0  0  0  0  0  0  0  0  0
    2.8066   66.1750   83.7911 N   0  0  0  0  0  0  0  0  0  0  0  0
    3.5794   67.2637   83.9231 C   0  0  0  0  0  0  0  0  0  0  0  0
    4.7548   67.0533   84.5865 O   0  0  0  0  0  0  0  0  0  0  0  0
    3.1868   68.4991   83.4202 C   0  0  0  0  0  0  0  0  0  0  0  0
    3.7639   69.7442   83.4180 N   0  0  0  0  0  0  0  0  0  0  0  0
    2.9024   70.5176   82.7925 C   0  0  0  0  0  0  0  0  0  0  0  0
    2.9710   71.9028   82.4973 C   0  0  0  0  0  0  0  0  0  0  0  0
    1.9578   72.4942   81.8426 C   0  0  0  0  0  0  0  0  0  0  0  0
    0.7724   71.7550   81.4183 C   0  0  0  0  0  0  0  0  0  0  0  0
   -0.5236   72.7657   80.5227 Br  0  0  0  0  0  0  0  0  0  0  0  0
    0.6810   70.4296   81.6865 C   0  0  0  0  0  0  0  0  0  0  0  0
   -0.4870   69.5589   81.3044 C   0  0  0  0  0  0  0  0  0  0  0  0
    1.7614   69.8240   82.3765 N   0  0  0  0  0  0  0  0  0  0  0  0
    1.9559   68.5142   82.7833 C   0  0  0  0  0  0  0  0  0  0  0  0
    1.1347   67.4598   82.6110 N   0  0  0  0  0  0  0  0  0  0  0  0
    4.6869   66.1016   84.7741 H   0  0  0  0  0  0  0  0  0  0  0  0
   -0.4915   62.7222   79.9672 S   0  0  0  0  0  0  0  0  0  0  0  0
   -0.7871   63.8219   79.0738 O   0  0  0  0  0  0  0  0  0  0  0  0
    0.5989   61.8120   79.6915 O   0  0  0  0  0  0  0  0  0  0  0  0
   -1.9106   61.8108   80.1836 N   0  0  0  0  0  0  0  0  0  0  0  0
   -1.8167   60.3337   79.9610 C   0  0  0  0  0  0  0  0  0  0  0  0
   -1.9306   59.9476   78.4715 C   0  0  0  0  0  0  0  0  0  0  0  0
   -3.1376   60.5063   77.8295 N   0  0  0  0  0  0  0  0  0  0  0  0
   -3.1658   60.1675   76.4072 C   0  0  0  0  0  0  0  0  0  0  0  0
   -3.1707   61.9721   78.0130 C   0  0  0  0  0  0  0  0  0  0  0  0
   -3.1226   62.3619   79.5016 C   0  0  0  0  0  0  0  0  0  0  0  0
    0.4308   65.0052   85.3702 O   0  0  0  0  0  0  0  0  0  0  0  0
   -0.1206   64.0298   87.5458 C   0  0  0  0  0  0  0  0  0  0  0  0
    0.8313   64.0530   86.3608 C   0  0  0  0  0  0  0  0  0  0  0  0
 35 36  1  0  0  0
 36 34  1  0  0  0
 34  1  1  0  0  0
  1  2  1  0  0  0
  2  3  2  0  0  0
  3  4  1  0  0  0
  4 24  1  0  0  0
 24 25  2  0  0  0
 24 26  2  0  0  0
 24 27  1  0  0  0
 27 28  1  0  0  0
 28 29  1  0  0  0
 29 30  1  0  0  0
 30 31  1  0  0  0
 30 32  1  0  0  0
 32 33  1  0  0  0
  4  5  2  0  0  0
  5  6  1  0  0  0
  6  7  1  0  0  0
  7  8  2  0  0  0
  8  9  1  0  0  0
  9 10  1  0  0  0
  9 11  2  0  0  0
 11 12  1  0  0  0
 12 13  2  0  0  0
 13 14  1  0  0  0
 14 15  2  0  0  0
 15 16  1  0  0  0
 16 17  1  0  0  0
 16 18  2  0  0  0
 18 19  1  0  0  0
 18 20  1  0  0  0
 20 21  1  0  0  0
 21 22  2  0  0  0
  6  1  2  0  0  0
 22  7  1  0  0  0
 33 27  1  0  0  0
 21 11  1  0  0  0
 20 13  1  0  0  0
 10 23  1  0  0  0
M  END
> <minimizedAffinity>
-10.22719

$$$$



 36 40  0  0  0  0  0  0  0  0999 V2000
   -1.1527   63.4181   86.1796 C   0  0  0  0  0  0  0  0  0  0  0  0
   -2.2579   62.5549   86.1158 C   0  0  0  0  0  0  0  0  0  0  0  0
   -2.5265   61.8320   84.9539 C   0  0  0  0  0  0  0  0  0  0  0  0
   -1.6724   61.9550   83.8607 C   0  0  0  0  0  0  0  0  0  0  0  0
   -0.5630   62.8022   83.9150 C   0  0  0  0  0  0  0  0  0  0  0  0
   -0.2739   63.5442   85.0801 C   0  0  0  0  0  0  0  0  0  0  0  0
    0.9256   64.4003   85.1030 C   0  0  0  0  0  0  0  0  0  0  0  0
    1.8108   64.2153   86.1085 N   0  0  0  0  0  0  0  0  0  0  0  0
    2.8873   65.0151   86.1441 C   0  0  0  0  0  0  0  0  0  0  0  0
    3.7508   64.7657   87.1728 O   0  0  0  0  0  0  0  0  0  0  0  0
    3.0804   66.0165   85.1991 C   0  0  0  0  0  0  0  0  0  0  0  0
    4.0623   66.9556   85.0059 N   0  0  0  0  0  0  0  0  0  0  0  0
    3.6834   67.6303   83.9416 C   0  0  0  0  0  0  0  0  0  0  0  0
    4.3107   68.7183   83.2832 C   0  0  0  0  0  0  0  0  0  0  0  0
    3.7327   69.2626   82.1995 C   0  0  0  0  0  0  0  0  0  0  0  0
    2.4657   68.7702   81.6668 C   0  0  0  0  0  0  0  0  0  0  0  0
    1.8308   69.6680   80.1522 Br  0  0  0  0  0  0  0  0  0  0  0  0
    1.8447   67.7307   82.2758 C   0  0  0  0  0  0  0  0  0  0  0  0
    0.5370   67.1340   81.8259 C   0  0  0  0  0  0  0  0  0  0  0  0
    2.4718   67.1692   83.4167 N   0  0  0  0  0  0  0  0  0  0  0  0
    2.0897   66.1191   84.2354 C   0  0  0  0  0  0  0  0  0  0  0  0
    0.9896   65.3471   84.1379 N   0  0  0  0  0  0  0  0  0  0  0  0
    3.3038   64.0180   87.6049 H   0  0  0  0  0  0  0  0  0  0  0  0
   -2.0098   61.0176   82.3904 S   0  0  0  0  0  0  0  0  0  0  0  0
   -0.7302   60.6907   81.7983 O   0  0  0  0  0  0  0  0  0  0  0  0
   -2.9630   59.9809   82.7219 O   0  0  0  0  0  0  0  0  0  0  0  0
   -2.7833   62.1614   81.3979 N   0  0  0  0  0  0  0  0  0  0  0  0
   -4.0582   61.7424   80.7351 C   0  0  0  0  0  0  0  0  0  0  0  0
   -3.8197   60.9440   79.4364 C   0  0  0  0  0  0  0  0  0  0  0  0
   -2.9349   61.6507   78.4884 N   0  0  0  0  0  0  0  0  0  0  0  0
   -2.6880   60.8270   77.3055 C   0  0  0  0  0  0  0  0  0  0  0  0
   -1.6613   61.9964   79.1531 C   0  0  0  0  0  0  0  0  0  0  0  0
   -1.8894   62.8486   80.4149 C   0  0  0  0  0  0  0  0  0  0  0  0
   -0.8302   64.0771   87.3404 O   0  0  0  0  0  0  0  0  0  0  0  0
    0.2389   62.6031   88.9754 C   0  0  0  0  0  0  0  0  0  0  0  0
   -1.0176   63.3510   88.5595 C   0  0  0  0  0  0  0  0  0  0  0  0
 35 36  1  0  0  0
 36 34  1  0  0  0
 34  1  1  0  0  0
  1  2  1  0  0  0
  2  3  2  0  0  0
  3  4  1  0  0  0
  4 24  1  0  0  0
 24 25  2  0  0  0
 24 26  2  0  0  0
 24 27  1  0  0  0
 27 28  1  0  0  0
 28 29  1  0  0  0
 29 30  1  0  0  0
 30 31  1  0  0  0
 30 32  1  0  0  0
 32 33  1  0  0  0
  4  5  2  0  0  0
  5  6  1  0  0  0
  6  7  1  0  0  0
  7  8  2  0  0  0
  8  9  1  0  0  0
  9 10  1  0  0  0
  9 11  2  0  0  0
 11 12  1  0  0  0
 12 13  2  0  0  0
 13 14  1  0  0  0
 14 15  2  0  0  0
 15 16  1  0  0  0
 16 17  1  0  0  0
 16 18  2  0  0  0
 18 19  1  0  0  0
 18 20  1  0  0  0
 20 21  1  0  0  0
 21 22  2  0  0  0
  6  1  2  0  0  0
 22  7  1  0  0  0
 33 27  1  0  0  0
 21 11  1  0  0  0
 20 13  1  0  0  0
 10 23  1  0  0  0
M  END
> <minimizedAffinity>
-10.21436

$$$$



 36 40  0  0  0  0  0  0  0  0999 V2000
    0.1684   64.0533   85.0712 C   0  0  0  0  0  0  0  0  0  0  0  0
   -0.6575   62.9182   85.0654 C   0  0  0  0  0  0  0  0  0  0  0  0
   -0.8688   62.2015   83.8879 C   0  0  0  0  0  0  0  0  0  0  0  0
   -0.2322   62.6080   82.7179 C   0  0  0  0  0  0  0  0  0  0  0  0
    0.6010   63.7294   82.7126 C   0  0  0  0  0  0  0  0  0  0  0  0
    0.8270   64.4701   83.8924 C   0  0  0  0  0  0  0  0  0  0  0  0
    1.7393   65.6266   83.8464 C   0  0  0  0  0  0  0  0  0  0  0  0
    2.9119   65.5291   84.5130 N   0  0  0  0  0  0  0  0  0  0  0  0
    3.7280   66.5937   84.4943 C   0  0  0  0  0  0  0  0  0  0  0  0
    4.9029   66.4250   85.1705 O   0  0  0  0  0  0  0  0  0  0  0  0
    3.3773   67.7670   83.8362 C   0  0  0  0  0  0  0  0  0  0  0  0
    4.0023   68.9768   83.6654 N   0  0  0  0  0  0  0  0  0  0  0  0
    3.1635   69.6955   82.9501 C   0  0  0  0  0  0  0  0  0  0  0  0
    3.2820   71.0260   82.4744 C   0  0  0  0  0  0  0  0  0  0  0  0
    2.2842   71.5666   81.7555 C   0  0  0  0  0  0  0  0  0  0  0  0
    1.0655   70.8264   81.4415 C   0  0  0  0  0  0  0  0  0  0  0  0
   -0.2018   71.7620   80.4306 Br  0  0  0  0  0  0  0  0  0  0  0  0
    0.9261   69.5524   81.8827 C   0  0  0  0  0  0  0  0  0  0  0  0
   -0.2798   68.6868   81.6278 C   0  0  0  0  0  0  0  0  0  0  0  0
    1.9911   68.9997   82.6381 N   0  0  0  0  0  0  0  0  0  0  0  0
    2.1397   67.7480   83.2124 C   0  0  0  0  0  0  0  0  0  0  0  0
    1.2759   66.7140   83.1869 N   0  0  0  0  0  0  0  0  0  0  0  0
    4.8005   65.5097   85.4824 H   0  0  0  0  0  0  0  0  0  0  0  0
   -0.4909   61.6800   81.2257 S   0  0  0  0  0  0  0  0  0  0  0  0
    0.7778   61.6412   80.5303 O   0  0  0  0  0  0  0  0  0  0  0  0
   -1.1909   60.4602   81.5655 O   0  0  0  0  0  0  0  0  0  0  0  0
   -1.5509   62.6822   80.3519 N   0  0  0  0  0  0  0  0  0  0  0  0
   -3.0052   62.3290   80.3779 C   0  0  0  0  0  0  0  0  0  0  0  0
   -3.3712   61.2373   79.3508 C   0  0  0  0  0  0  0  0  0  0  0  0
   -2.9299   61.5729   77.9820 N   0  0  0  0  0  0  0  0  0  0  0  0
   -3.2412   60.4809   77.0604 C   0  0  0  0  0  0  0  0  0  0  0  0
   -1.4797   61.8562   77.9775 C   0  0  0  0  0  0  0  0  0  0  0  0
   -1.1170   62.9900   78.9538 C   0  0  0  0  0  0  0  0  0  0  0  0
    0.4482   64.7240   86.2364 O   0  0  0  0  0  0  0  0  0  0  0  0
    0.9294   63.4317   88.2581 C   0  0  0  0  0  0  0  0  0  0  0  0
   -0.1091   64.1783   87.4363 C   0  0  0  0  0  0  0  0  0  0  0  0
 35 36  1  0  0  0
 36 34  1  0  0  0
 34  1  1  0  0  0
  1  2  1  0  0  0
  2  3  2  0  0  0
  3  4  1  0  0  0
  4 24  1  0  0  0
 24 25  2  0  0  0
 24 26  2  0  0  0
 24 27  1  0  0  0
 27 28  1  0  0  0
 28 29  1  0  0  0
 29 30  1  0  0  0
 30 31  1  0  0  0
 30 32  1  0  0  0
 32 33  1  0  0  0
  4  5  2  0  0  0
  5  6  1  0  0  0
  6  7  1  0  0  0
  7  8  2  0  0  0
  8  9  1  0  0  0
  9 10  1  0  0  0
  9 11  2  0  0  0
 11 12  1  0  0  0
 12 13  2  0  0  0
 13 14  1  0  0  0
 14 15  2  0  0  0
 15 16  1  0  0  0
 16 17  1  0  0  0
 16 18  2  0  0  0
 18 19  1  0  0  0
 18 20  1  0  0  0
 20 21  1  0  0  0
 21 22  2  0  0  0
  6  1  2  0  0  0
 22  7  1  0  0  0
 33 27  1  0  0  0
 21 11  1  0  0  0
 20 13  1  0  0  0
 10 23  1  0  0  0
M  END
> <minimizedAffinity>
-10.20191

$$$$



 36 40  0  0  0  0  0  0  0  0999 V2000
   -0.7183   63.5271   85.1847 C   0  0  0  0  0  0  0  0  0  0  0  0
   -1.6978   62.5235   85.2492 C   0  0  0  0  0  0  0  0  0  0  0  0
   -2.2356   61.9820   84.0820 C   0  0  0  0  0  0  0  0  0  0  0  0
   -1.7741   62.4292   82.8464 C   0  0  0  0  0  0  0  0  0  0  0  0
   -0.7920   63.4195   82.7684 C   0  0  0  0  0  0  0  0  0  0  0  0
   -0.2357   63.9824   83.9370 C   0  0  0  0  0  0  0  0  0  0  0  0
    0.8211   65.0012   83.8063 C   0  0  0  0  0  0  0  0  0  0  0  0
    0.7690   65.8272   82.7368 N   0  0  0  0  0  0  0  0  0  0  0  0
    1.7480   66.7348   82.6038 C   0  0  0  0  0  0  0  0  0  0  0  0
    1.6279   67.5495   81.5140 O   0  0  0  0  0  0  0  0  0  0  0  0
    2.7950   66.8133   83.5152 C   0  0  0  0  0  0  0  0  0  0  0  0
    3.9007   67.6199   83.6158 N   0  0  0  0  0  0  0  0  0  0  0  0
    4.5271   67.2058   84.6964 C   0  0  0  0  0  0  0  0  0  0  0  0
    5.7290   67.6728   85.2864 C   0  0  0  0  0  0  0  0  0  0  0  0
    6.1920   67.0886   86.4040 C   0  0  0  0  0  0  0  0  0  0  0  0
    5.4956   65.9757   87.0428 C   0  0  0  0  0  0  0  0  0  0  0  0
    6.3084   65.3039   88.5891 Br  0  0  0  0  0  0  0  0  0  0  0  0
    4.3439   65.5099   86.5008 C   0  0  0  0  0  0  0  0  0  0  0  0
    3.5352   64.3699   87.0619 C   0  0  0  0  0  0  0  0  0  0  0  0
    3.8712   66.1410   85.3225 N   0  0  0  0  0  0  0  0  0  0  0  0
    2.7460   65.8956   84.5527 C   0  0  0  0  0  0  0  0  0  0  0  0
    1.7918   64.9645   84.7487 N   0  0  0  0  0  0  0  0  0  0  0  0
    0.7997   67.2146   81.1300 H   0  0  0  0  0  0  0  0  0  0  0  0
   -2.4500   61.7223   81.3638 S   0  0  0  0  0  0  0  0  0  0  0  0
   -2.4284   60.2854   81.5363 O   0  0  0  0  0  0  0  0  0  0  0  0
   -3.6805   62.4158   81.0505 O   0  0  0  0  0  0  0  0  0  0  0  0
   -1.2858   62.1398   80.1969 N   0  0  0  0  0  0  0  0  0  0  0  0
   -1.7270   63.0289   79.0766 C   0  0  0  0  0  0  0  0  0  0  0  0
   -2.4240   62.2528   77.9397 C   0  0  0  0  0  0  0  0  0  0  0  0
   -1.6103   61.1277   77.4366 N   0  0  0  0  0  0  0  0  0  0  0  0
   -2.3397   60.3863   76.4085 C   0  0  0  0  0  0  0  0  0  0  0  0
   -1.2421   60.2351   78.5551 C   0  0  0  0  0  0  0  0  0  0  0  0
   -0.4886   60.9916   79.6643 C   0  0  0  0  0  0  0  0  0  0  0  0
   -0.1236   64.0154   86.3221 O   0  0  0  0  0  0  0  0  0  0  0  0
    0.2725   63.0418   88.5321 C   0  0  0  0  0  0  0  0  0  0  0  0
   -0.7306   63.6515   87.5661 C   0  0  0  0  0  0  0  0  0  0  0  0
 35 36  1  0  0  0
 36 34  1  0  0  0
 34  1  1  0  0  0
  1  2  1  0  0  0
  2  3  2  0  0  0
  3  4  1  0  0  0
  4 24  1  0  0  0
 24 25  2  0  0  0
 24 26  2  0  0  0
 24 27  1  0  0  0
 27 28  1  0  0  0
 28 29  1  0  0  0
 29 30  1  0  0  0
 30 31  1  0  0  0
 30 32  1  0  0  0
 32 33  1  0  0  0
  4  5  2  0  0  0
  5  6  1  0  0  0
  6  7  1  0  0  0
  7  8  2  0  0  0
  8  9  1  0  0  0
  9 10  1  0  0  0
  9 11  2  0  0  0
 11 12  1  0  0  0
 12 13  2  0  0  0
 13 14  1  0  0  0
 14 15  2  0  0  0
 15 16  1  0  0  0
 16 17  1  0  0  0
 16 18  2  0  0  0
 18 19  1  0  0  0
 18 20  1  0  0  0
 20 21  1  0  0  0
 21 22  2  0  0  0
  6  1  2  0  0  0
 22  7  1  0  0  0
 33 27  1  0  0  0
 21 11  1  0  0  0
 20 13  1  0  0  0
 10 23  1  0  0  0
M  END
> <minimizedAffinity>
-10.19109

$$$$



 36 40  0  0  0  0  0  0  0  0999 V2000
    0.6239   66.6134   81.6966 C   0  0  0  0  0  0  0  0  0  0  0  0
    1.4494   67.6915   81.3406 C   0  0  0  0  0  0  0  0  0  0  0  0
    2.5285   68.0541   82.1460 C   0  0  0  0  0  0  0  0  0  0  0  0
    2.7967   67.3200   83.2988 C   0  0  0  0  0  0  0  0  0  0  0  0
    1.9895   66.2382   83.6586 C   0  0  0  0  0  0  0  0  0  0  0  0
    0.8914   65.8555   82.8590 C   0  0  0  0  0  0  0  0  0  0  0  0
    0.0872   64.6877   83.2608 C   0  0  0  0  0  0  0  0  0  0  0  0
   -0.0266   64.4278   84.5830 N   0  0  0  0  0  0  0  0  0  0  0  0
   -0.7346   63.3475   84.9456 C   0  0  0  0  0  0  0  0  0  0  0  0
   -0.8268   63.1509   86.2943 O   0  0  0  0  0  0  0  0  0  0  0  0
   -1.3129   62.5069   84.0012 C   0  0  0  0  0  0  0  0  0  0  0  0
   -2.0650   61.3624   84.0905 N   0  0  0  0  0  0  0  0  0  0  0  0
   -2.3135   61.0202   82.8444 C   0  0  0  0  0  0  0  0  0  0  0  0
   -3.0468   59.9200   82.3323 C   0  0  0  0  0  0  0  0  0  0  0  0
   -3.1696   59.7632   81.0037 C   0  0  0  0  0  0  0  0  0  0  0  0
   -2.5680   60.6949   80.0541 C   0  0  0  0  0  0  0  0  0  0  0  0
   -2.8556   60.2953   78.2483 Br  0  0  0  0  0  0  0  0  0  0  0  0
   -1.8625   61.7560   80.5162 C   0  0  0  0  0  0  0  0  0  0  0  0
   -1.1941   62.7840   79.6417 C   0  0  0  0  0  0  0  0  0  0  0  0
   -1.7462   61.9046   81.9214 N   0  0  0  0  0  0  0  0  0  0  0  0
   -1.1030   62.8688   82.6799 C   0  0  0  0  0  0  0  0  0  0  0  0
   -0.4097   63.9404   82.2476 N   0  0  0  0  0  0  0  0  0  0  0  0
   -0.3226   63.9151   86.6218 H   0  0  0  0  0  0  0  0  0  0  0  0
    4.1836   67.7755   84.3106 S   0  0  0  0  0  0  0  0  0  0  0  0
    4.9785   68.7065   83.5385 O   0  0  0  0  0  0  0  0  0  0  0  0
    3.6905   68.1290   85.6241 O   0  0  0  0  0  0  0  0  0  0  0  0
    5.0411   66.3124   84.4344 N   0  0  0  0  0  0  0  0  0  0  0  0
    4.3548   65.1720   85.1191 C   0  0  0  0  0  0  0  0  0  0  0  0
    4.4742   65.2413   86.6559 C   0  0  0  0  0  0  0  0  0  0  0  0
    5.8726   65.3719   87.1127 N   0  0  0  0  0  0  0  0  0  0  0  0
    5.9270   65.4990   88.5685 C   0  0  0  0  0  0  0  0  0  0  0  0
    6.5043   66.5413   86.4671 C   0  0  0  0  0  0  0  0  0  0  0  0
    6.4456   66.4462   84.9317 C   0  0  0  0  0  0  0  0  0  0  0  0
   -0.3947   66.1955   80.8758 O   0  0  0  0  0  0  0  0  0  0  0  0
    0.9677   65.4906   78.9691 C   0  0  0  0  0  0  0  0  0  0  0  0
   -0.1837   66.3485   79.4686 C   0  0  0  0  0  0  0  0  0  0  0  0
 35 36  1  0  0  0
 36 34  1  0  0  0
 34  1  1  0  0  0
  1  2  1  0  0  0
  2  3  2  0  0  0
  3  4  1  0  0  0
  4 24  1  0  0  0
 24 25  2  0  0  0
 24 26  2  0  0  0
 24 27  1  0  0  0
 27 28  1  0  0  0
 28 29  1  0  0  0
 29 30  1  0  0  0
 30 31  1  0  0  0
 30 32  1  0  0  0
 32 33  1  0  0  0
  4  5  2  0  0  0
  5  6  1  0  0  0
  6  7  1  0  0  0
  7  8  2  0  0  0
  8  9  1  0  0  0
  9 10  1  0  0  0
  9 11  2  0  0  0
 11 12  1  0  0  0
 12 13  2  0  0  0
 13 14  1  0  0  0
 14 15  2  0  0  0
 15 16  1  0  0  0
 16 17  1  0  0  0
 16 18  2  0  0  0
 18 19  1  0  0  0
 18 20  1  0  0  0
 20 21  1  0  0  0
 21 22  2  0  0  0
  6  1  2  0  0  0
 22  7  1  0  0  0
 33 27  1  0  0  0
 21 11  1  0  0  0
 20 13  1  0  0  0
 10 23  1  0  0  0
M  END
> <minimizedAffinity>
-10.05857

$$$$



 36 40  0  0  0  0  0  0  0  0999 V2000
    3.3693   67.1229   83.6082 C   0  0  0  0  0  0  0  0  0  0  0  0
    4.2247   68.2349   83.6541 C   0  0  0  0  0  0  0  0  0  0  0  0
    3.9931   69.3414   82.8376 C   0  0  0  0  0  0  0  0  0  0  0  0
    2.8880   69.3449   81.9899 C   0  0  0  0  0  0  0  0  0  0  0  0
    2.0228   68.2491   81.9427 C   0  0  0  0  0  0  0  0  0  0  0  0
    2.2397   67.1185   82.7590 C   0  0  0  0  0  0  0  0  0  0  0  0
    1.2825   65.9995   82.6990 C   0  0  0  0  0  0  0  0  0  0  0  0
    0.7748   65.6708   81.4894 N   0  0  0  0  0  0  0  0  0  0  0  0
   -0.1186   64.6712   81.4410 C   0  0  0  0  0  0  0  0  0  0  0  0
   -0.5793   64.3766   80.1892 O   0  0  0  0  0  0  0  0  0  0  0  0
   -0.5310   64.0084   82.5915 C   0  0  0  0  0  0  0  0  0  0  0  0
   -1.4107   62.9815   82.8256 N   0  0  0  0  0  0  0  0  0  0  0  0
   -1.3816   62.7984   84.1284 C   0  0  0  0  0  0  0  0  0  0  0  0
   -2.0902   61.8702   84.9326 C   0  0  0  0  0  0  0  0  0  0  0  0
   -1.9044   61.8651   86.2630 C   0  0  0  0  0  0  0  0  0  0  0  0
   -0.9884   62.7920   86.9215 C   0  0  0  0  0  0  0  0  0  0  0  0
   -0.8765   62.6212   88.7821 Br  0  0  0  0  0  0  0  0  0  0  0  0
   -0.2974   63.6892   86.1769 C   0  0  0  0  0  0  0  0  0  0  0  0
    0.6731   64.6964   86.7356 C   0  0  0  0  0  0  0  0  0  0  0  0
   -0.5063   63.6772   84.7746 N   0  0  0  0  0  0  0  0  0  0  0  0
    0.0451   64.4555   83.7701 C   0  0  0  0  0  0  0  0  0  0  0  0
    0.9501   65.4468   83.8889 N   0  0  0  0  0  0  0  0  0  0  0  0
   -0.0793   65.0196   79.6581 H   0  0  0  0  0  0  0  0  0  0  0  0
    2.5884   70.7648   80.9659 S   0  0  0  0  0  0  0  0  0  0  0  0
    3.4075   70.6094   79.7828 O   0  0  0  0  0  0  0  0  0  0  0  0
    1.1580   70.9550   80.8611 O   0  0  0  0  0  0  0  0  0  0  0  0
    3.2317   72.0312   81.9009 N   0  0  0  0  0  0  0  0  0  0  0  0
    2.3514   72.6154   82.9611 C   0  0  0  0  0  0  0  0  0  0  0  0
    1.3732   73.6722   82.4072 C   0  0  0  0  0  0  0  0  0  0  0  0
    2.0563   74.7328   81.6394 N   0  0  0  0  0  0  0  0  0  0  0  0
    1.0826   75.6711   81.0823 C   0  0  0  0  0  0  0  0  0  0  0  0
    2.8680   74.1291   80.5623 C   0  0  0  0  0  0  0  0  0  0  0  0
    3.8910   73.1207   81.1161 C   0  0  0  0  0  0  0  0  0  0  0  0
    3.5384   66.0591   84.4600 O   0  0  0  0  0  0  0  0  0  0  0  0
    4.7551   65.1789   86.3923 C   0  0  0  0  0  0  0  0  0  0  0  0
    4.8253   65.9309   85.0729 C   0  0  0  0  0  0  0  0  0  0  0  0
 35 36  1  0  0  0
 36 34  1  0  0  0
 34  1  1  0  0  0
  1  2  1  0  0  0
  2  3  2  0  0  0
  3  4  1  0  0  0
  4 24  1  0  0  0
 24 25  2  0  0  0
 24 26  2  0  0  0
 24 27  1  0  0  0
 27 28  1  0  0  0
 28 29  1  0  0  0
 29 30  1  0  0  0
 30 31  1  0  0  0
 30 32  1  0  0  0
 32 33  1  0  0  0
  4  5  2  0  0  0
  5  6  1  0  0  0
  6  7  1  0  0  0
  7  8  2  0  0  0
  8  9  1  0  0  0
  9 10  1  0  0  0
  9 11  2  0  0  0
 11 12  1  0  0  0
 12 13  2  0  0  0
 13 14  1  0  0  0
 14 15  2  0  0  0
 15 16  1  0  0  0
 16 17  1  0  0  0
 16 18  2  0  0  0
 18 19  1  0  0  0
 18 20  1  0  0  0
 20 21  1  0  0  0
 21 22  2  0  0  0
  6  1  2  0  0  0
 22  7  1  0  0  0
 33 27  1  0  0  0
 21 11  1  0  0  0
 20 13  1  0  0  0
 10 23  1  0  0  0
M  END
> <minimizedAffinity>
-9.92239

$$$$
