


 39 42  0  0  0  0  0  0  0  0999 V2000
    1.2297   65.7136   83.6247 C   0  0  0  0  0  0  0  0  0  0  0  0
    0.5205   65.6450   82.4092 C   0  0  0  0  0  0  0  0  0  0  0  0
    0.8150   66.4926   81.3335 C   0  0  0  0  0  0  0  0  0  0  0  0
    1.8431   67.4236   81.4825 C   0  0  0  0  0  0  0  0  0  0  0  0
    2.5718   67.4937   82.6745 C   0  0  0  0  0  0  0  0  0  0  0  0
    2.2864   66.6402   83.7498 C   0  0  0  0  0  0  0  0  0  0  0  0
   -1.6952   62.3420   85.7792 C   0  0  0  0  0  0  0  0  0  0  0  0
   -1.6601   61.7766   87.0011 N   0  0  0  0  0  0  0  0  0  0  0  0
   -0.5679   62.3277   87.5883 N   0  0  0  0  0  0  0  0  0  0  0  0
   -0.2082   61.9540   88.9348 C   0  0  0  0  0  0  0  0  0  0  0  0
    0.0779   63.2143   86.7855 C   0  0  0  0  0  0  0  0  0  0  0  0
    1.2315   64.0072   86.9983 C   0  0  0  0  0  0  0  0  0  0  0  0
    1.9091   64.0292   88.0187 O   0  0  0  0  0  0  0  0  0  0  0  0
    1.5153   64.7791   85.8950 N   0  0  0  0  0  0  0  0  0  0  0  0
    0.7728   64.7811   84.7185 C   0  0  0  0  0  0  0  0  0  0  0  0
   -0.2861   64.0381   84.5299 N   0  0  0  0  0  0  0  0  0  0  0  0
   -0.6249   63.2367   85.6197 C   0  0  0  0  0  0  0  0  0  0  0  0
    2.3244   65.3816   85.9739 H   0  0  0  0  0  0  0  0  0  0  0  0
   -2.7647   61.9899   84.8032 C   0  0  0  0  0  0  0  0  0  0  0  0
   -3.1693   60.4411   82.8202 C   0  0  0  0  0  0  0  0  0  0  0  0
   -2.2338   61.4489   83.4731 C   0  0  0  0  0  0  0  0  0  0  0  0
   -0.0037   66.4305   80.0648 C   0  0  0  0  0  0  0  0  0  0  0  0
   -0.0574   65.0438   79.4621 C   0  0  0  0  0  0  0  0  0  0  0  0
    0.8139   64.6843   78.4317 C   0  0  0  0  0  0  0  0  0  0  0  0
    0.7461   63.4090   77.8703 C   0  0  0  0  0  0  0  0  0  0  0  0
   -0.2002   62.4701   78.3179 C   0  0  0  0  0  0  0  0  0  0  0  0
   -1.1034   62.8304   79.3369 C   0  0  0  0  0  0  0  0  0  0  0  0
   -1.0091   64.1092   79.9077 C   0  0  0  0  0  0  0  0  0  0  0  0
   -0.1742   61.1352   77.6431 C   0  0  0  0  0  0  0  0  0  0  0  0
    0.0485   61.0344   76.4366 O   0  0  0  0  0  0  0  0  0  0  0  0
   -0.4155   60.0235   78.4130 N   0  0  0  0  0  0  0  0  0  0  0  0
   -0.5822   58.8086   77.7091 O   0  0  0  0  0  0  0  0  0  0  0  0
   -0.8442   60.0953   79.3327 H   0  0  0  0  0  0  0  0  0  0  0  0
   -0.4148   59.0887   76.7824 H   0  0  0  0  0  0  0  0  0  0  0  0
   -2.0362   61.9018   79.7281 O   0  0  0  0  0  0  0  0  0  0  0  0
   -3.3218   61.9605   79.1140 C   0  0  0  0  0  0  0  0  0  0  0  0
    2.9633   66.6800   84.9422 O   0  0  0  0  0  0  0  0  0  0  0  0
    4.3842   66.8410   84.9402 C   0  0  0  0  0  0  0  0  0  0  0  0
    5.0673   65.5013   85.1480 C   0  0  0  0  0  0  0  0  0  0  0  0
 20 21  1  0  0  0
 21 19  1  0  0  0
 19  7  1  0  0  0
  7  8  2  0  0  0
  8  9  1  0  0  0
  9 10  1  0  0  0
  9 11  1  0  0  0
 11 12  1  0  0  0
 12 13  2  0  0  0
 12 14  1  0  0  0
 14 15  1  0  0  0
 15  1  1  0  0  0
  1  2  1  0  0  0
  2  3  2  0  0  0
  3 22  1  0  0  0
 22 23  1  0  0  0
 23 24  1  0  0  0
 24 25  2  0  0  0
 25 26  1  0  0  0
 26 29  1  0  0  0
 29 30  2  0  0  0
 29 31  1  0  0  0
 31 32  1  0  0  0
 26 27  2  0  0  0
 27 35  1  0  0  0
 35 36  1  0  0  0
 27 28  1  0  0  0
  3  4  1  0  0  0
  4  5  2  0  0  0
  5  6  1  0  0  0
  6 37  1  0  0  0
 37 38  1  0  0  0
 38 39  1  0  0  0
 15 16  2  0  0  0
 16 17  1  0  0  0
 17  7  1  0  0  0
 17 11  2  0  0  0
  6  1  2  0  0  0
 28 23  2  0  0  0
 14 18  1  0  0  0
 31 33  1  0  0  0
 32 34  1  0  0  0
M  END
> <minimizedAffinity>
-11.02893

$$$$



 39 42  0  0  0  0  0  0  0  0999 V2000
   -0.3463   63.2109   83.8604 C   0  0  0  0  0  0  0  0  0  0  0  0
    0.2375   64.4003   83.3813 C   0  0  0  0  0  0  0  0  0  0  0  0
    0.7628   65.3667   84.2487 C   0  0  0  0  0  0  0  0  0  0  0  0
    0.7023   65.1308   85.6223 C   0  0  0  0  0  0  0  0  0  0  0  0
    0.1445   63.9469   86.1166 C   0  0  0  0  0  0  0  0  0  0  0  0
   -0.3733   62.9730   85.2510 C   0  0  0  0  0  0  0  0  0  0  0  0
   -0.9668   61.3127   79.3242 C   0  0  0  0  0  0  0  0  0  0  0  0
   -1.7781   60.3413   78.8639 N   0  0  0  0  0  0  0  0  0  0  0  0
   -2.4446   59.9176   79.9672 N   0  0  0  0  0  0  0  0  0  0  0  0
   -3.4229   58.8626   79.8572 C   0  0  0  0  0  0  0  0  0  0  0  0
   -2.0853   60.5851   81.0955 C   0  0  0  0  0  0  0  0  0  0  0  0
   -2.5280   60.4718   82.4356 C   0  0  0  0  0  0  0  0  0  0  0  0
   -3.3715   59.6852   82.8488 O   0  0  0  0  0  0  0  0  0  0  0  0
   -1.8859   61.3763   83.2500 N   0  0  0  0  0  0  0  0  0  0  0  0
   -0.9224   62.2831   82.8203 C   0  0  0  0  0  0  0  0  0  0  0  0
   -0.5149   62.3730   81.5814 N   0  0  0  0  0  0  0  0  0  0  0  0
   -1.1368   61.4815   80.7078 C   0  0  0  0  0  0  0  0  0  0  0  0
   -2.1560   61.3617   84.2251 H   0  0  0  0  0  0  0  0  0  0  0  0
   -0.0477   62.0419   78.4057 C   0  0  0  0  0  0  0  0  0  0  0  0
   -1.6093   63.5116   77.0286 C   0  0  0  0  0  0  0  0  0  0  0  0
   -0.6505   62.3293   77.0281 C   0  0  0  0  0  0  0  0  0  0  0  0
    1.3297   66.6567   83.7028 C   0  0  0  0  0  0  0  0  0  0  0  0
    2.7937   66.8470   84.0338 C   0  0  0  0  0  0  0  0  0  0  0  0
    3.4540   68.0249   83.6777 C   0  0  0  0  0  0  0  0  0  0  0  0
    4.8082   68.1849   83.9719 C   0  0  0  0  0  0  0  0  0  0  0  0
    5.5342   67.1682   84.6173 C   0  0  0  0  0  0  0  0  0  0  0  0
    4.8864   65.9641   84.9559 C   0  0  0  0  0  0  0  0  0  0  0  0
    3.5185   65.8257   84.6738 C   0  0  0  0  0  0  0  0  0  0  0  0
    6.9778   67.4564   84.8835 C   0  0  0  0  0  0  0  0  0  0  0  0
    7.3182   68.2667   85.7455 O   0  0  0  0  0  0  0  0  0  0  0  0
    7.9134   66.7926   84.1280 N   0  0  0  0  0  0  0  0  0  0  0  0
    9.2484   67.2371   84.2671 O   0  0  0  0  0  0  0  0  0  0  0  0
    7.6628   66.3250   83.2602 H   0  0  0  0  0  0  0  0  0  0  0  0
    9.1600   67.9238   84.9642 H   0  0  0  0  0  0  0  0  0  0  0  0
    5.6316   64.9789   85.5554 O   0  0  0  0  0  0  0  0  0  0  0  0
    5.5070   64.8259   86.9676 C   0  0  0  0  0  0  0  0  0  0  0  0
   -0.9419   61.8036   85.6879 O   0  0  0  0  0  0  0  0  0  0  0  0
   -1.5521   61.7574   86.9804 C   0  0  0  0  0  0  0  0  0  0  0  0
   -2.7766   62.6541   87.0181 C   0  0  0  0  0  0  0  0  0  0  0  0
 20 21  1  0  0  0
 21 19  1  0  0  0
 19  7  1  0  0  0
  7  8  2  0  0  0
  8  9  1  0  0  0
  9 10  1  0  0  0
  9 11  1  0  0  0
 11 12  1  0  0  0
 12 13  2  0  0  0
 12 14  1  0  0  0
 14 15  1  0  0  0
 15  1  1  0  0  0
  1  2  1  0  0  0
  2  3  2  0  0  0
  3 22  1  0  0  0
 22 23  1  0  0  0
 23 24  1  0  0  0
 24 25  2  0  0  0
 25 26  1  0  0  0
 26 29  1  0  0  0
 29 30  2  0  0  0
 29 31  1  0  0  0
 31 32  1  0  0  0
 26 27  2  0  0  0
 27 35  1  0  0  0
 35 36  1  0  0  0
 27 28  1  0  0  0
  3  4  1  0  0  0
  4  5  2  0  0  0
  5  6  1  0  0  0
  6 37  1  0  0  0
 37 38  1  0  0  0
 38 39  1  0  0  0
 15 16  2  0  0  0
 16 17  1  0  0  0
 17  7  1  0  0  0
 17 11  2  0  0  0
  6  1  2  0  0  0
 28 23  2  0  0  0
 14 18  1  0  0  0
 31 33  1  0  0  0
 32 34  1  0  0  0
M  END
> <minimizedAffinity>
-10.72242

$$$$



 39 42  0  0  0  0  0  0  0  0999 V2000
    0.1405   63.9320   83.1526 C   0  0  0  0  0  0  0  0  0  0  0  0
    0.9420   64.8576   82.4555 C   0  0  0  0  0  0  0  0  0  0  0  0
    1.5875   65.9150   83.1093 C   0  0  0  0  0  0  0  0  0  0  0  0
    1.4263   66.0415   84.4891 C   0  0  0  0  0  0  0  0  0  0  0  0
    0.6506   65.1209   85.2017 C   0  0  0  0  0  0  0  0  0  0  0  0
    0.0110   64.0555   84.5522 C   0  0  0  0  0  0  0  0  0  0  0  0
   -0.9124   61.3964   79.0261 C   0  0  0  0  0  0  0  0  0  0  0  0
   -1.7767   60.3910   78.7895 N   0  0  0  0  0  0  0  0  0  0  0  0
   -2.3486   60.1564   79.9974 N   0  0  0  0  0  0  0  0  0  0  0  0
   -3.3493   59.1256   80.1327 C   0  0  0  0  0  0  0  0  0  0  0  0
   -1.8795   60.9742   80.9765 C   0  0  0  0  0  0  0  0  0  0  0  0
   -2.2025   61.0752   82.3514 C   0  0  0  0  0  0  0  0  0  0  0  0
   -3.0179   60.3839   82.9498 O   0  0  0  0  0  0  0  0  0  0  0  0
   -1.4761   62.0721   82.9613 N   0  0  0  0  0  0  0  0  0  0  0  0
   -0.5407   62.8763   82.3182 C   0  0  0  0  0  0  0  0  0  0  0  0
   -0.2441   62.7684   81.0495 N   0  0  0  0  0  0  0  0  0  0  0  0
   -0.9554   61.7748   80.3776 C   0  0  0  0  0  0  0  0  0  0  0  0
   -1.6582   62.2112   83.9469 H   0  0  0  0  0  0  0  0  0  0  0  0
   -0.0676   61.9533   77.9323 C   0  0  0  0  0  0  0  0  0  0  0  0
    0.2001   64.4874   77.8914 C   0  0  0  0  0  0  0  0  0  0  0  0
   -0.5773   63.2849   77.3747 C   0  0  0  0  0  0  0  0  0  0  0  0
    2.3928   66.9228   82.3221 C   0  0  0  0  0  0  0  0  0  0  0  0
    1.6562   68.2256   82.0999 C   0  0  0  0  0  0  0  0  0  0  0  0
    0.5868   68.2917   81.2044 C   0  0  0  0  0  0  0  0  0  0  0  0
   -0.0759   69.5009   80.9931 C   0  0  0  0  0  0  0  0  0  0  0  0
    0.3224   70.6716   81.6625 C   0  0  0  0  0  0  0  0  0  0  0  0
    1.4180   70.6241   82.5466 C   0  0  0  0  0  0  0  0  0  0  0  0
    2.0611   69.3960   82.7662 C   0  0  0  0  0  0  0  0  0  0  0  0
   -0.4662   71.9058   81.3578 C   0  0  0  0  0  0  0  0  0  0  0  0
   -1.6233   72.0382   81.7566 O   0  0  0  0  0  0  0  0  0  0  0  0
    0.1405   72.8854   80.6101 N   0  0  0  0  0  0  0  0  0  0  0  0
   -0.6968   73.9382   80.1746 O   0  0  0  0  0  0  0  0  0  0  0  0
    0.9792   72.6975   80.0661 H   0  0  0  0  0  0  0  0  0  0  0  0
   -1.5512   73.7045   80.5998 H   0  0  0  0  0  0  0  0  0  0  0  0
    1.8020   71.7915   83.1589 O   0  0  0  0  0  0  0  0  0  0  0  0
    3.0178   72.3954   82.7222 C   0  0  0  0  0  0  0  0  0  0  0  0
   -0.7701   63.1362   85.2050 O   0  0  0  0  0  0  0  0  0  0  0  0
   -0.9313   63.2294   86.6229 C   0  0  0  0  0  0  0  0  0  0  0  0
   -2.3663   62.9230   87.0121 C   0  0  0  0  0  0  0  0  0  0  0  0
 20 21  1  0  0  0
 21 19  1  0  0  0
 19  7  1  0  0  0
  7  8  2  0  0  0
  8  9  1  0  0  0
  9 10  1  0  0  0
  9 11  1  0  0  0
 11 12  1  0  0  0
 12 13  2  0  0  0
 12 14  1  0  0  0
 14 15  1  0  0  0
 15  1  1  0  0  0
  1  2  1  0  0  0
  2  3  2  0  0  0
  3 22  1  0  0  0
 22 23  1  0  0  0
 23 24  1  0  0  0
 24 25  2  0  0  0
 25 26  1  0  0  0
 26 29  1  0  0  0
 29 30  2  0  0  0
 29 31  1  0  0  0
 31 32  1  0  0  0
 26 27  2  0  0  0
 27 35  1  0  0  0
 35 36  1  0  0  0
 27 28  1  0  0  0
  3  4  1  0  0  0
  4  5  2  0  0  0
  5  6  1  0  0  0
  6 37  1  0  0  0
 37 38  1  0  0  0
 38 39  1  0  0  0
 15 16  2  0  0  0
 16 17  1  0  0  0
 17  7  1  0  0  0
 17 11  2  0  0  0
  6  1  2  0  0  0
 28 23  2  0  0  0
 14 18  1  0  0  0
 31 33  1  0  0  0
 32 34  1  0  0  0
M  END
> <minimizedAffinity>
-10.46531

$$$$



 39 42  0  0  0  0  0  0  0  0999 V2000
    0.3331   64.8999   80.6715 C   0  0  0  0  0  0  0  0  0  0  0  0
    0.6460   65.8074   81.7029 C   0  0  0  0  0  0  0  0  0  0  0  0
    1.4237   66.9492   81.4710 C   0  0  0  0  0  0  0  0  0  0  0  0
    1.8924   67.1835   80.1782 C   0  0  0  0  0  0  0  0  0  0  0  0
    1.5759   66.3046   79.1369 C   0  0  0  0  0  0  0  0  0  0  0  0
    0.7895   65.1661   79.3631 C   0  0  0  0  0  0  0  0  0  0  0  0
   -2.2419   61.9713   83.7305 C   0  0  0  0  0  0  0  0  0  0  0  0
   -2.8025   60.7602   83.5493 N   0  0  0  0  0  0  0  0  0  0  0  0
   -2.5320   60.4621   82.2535 N   0  0  0  0  0  0  0  0  0  0  0  0
   -2.9850   59.2124   81.6920 C   0  0  0  0  0  0  0  0  0  0  0  0
   -1.8246   61.4345   81.6198 C   0  0  0  0  0  0  0  0  0  0  0  0
   -1.3330   61.5272   80.2951 C   0  0  0  0  0  0  0  0  0  0  0  0
   -1.4775   60.6868   79.4155 O   0  0  0  0  0  0  0  0  0  0  0  0
   -0.6490   62.7051   80.0995 N   0  0  0  0  0  0  0  0  0  0  0  0
   -0.4652   63.6841   81.0706 C   0  0  0  0  0  0  0  0  0  0  0  0
   -0.9311   63.5917   82.2886 N   0  0  0  0  0  0  0  0  0  0  0  0
   -1.6305   62.4131   82.5462 C   0  0  0  0  0  0  0  0  0  0  0  0
   -0.2591   62.8410   79.1757 H   0  0  0  0  0  0  0  0  0  0  0  0
   -2.3236   62.6634   85.0476 C   0  0  0  0  0  0  0  0  0  0  0  0
   -0.1422   63.6892   85.8748 C   0  0  0  0  0  0  0  0  0  0  0  0
   -1.0756   62.4875   85.9167 C   0  0  0  0  0  0  0  0  0  0  0  0
    1.7880   67.8706   82.6121 C   0  0  0  0  0  0  0  0  0  0  0  0
    2.6881   67.2164   83.6372 C   0  0  0  0  0  0  0  0  0  0  0  0
    2.2421   66.1171   84.3739 C   0  0  0  0  0  0  0  0  0  0  0  0
    3.0727   65.5306   85.3289 C   0  0  0  0  0  0  0  0  0  0  0  0
    4.3613   66.0361   85.5766 C   0  0  0  0  0  0  0  0  0  0  0  0
    4.8119   67.1622   84.8603 C   0  0  0  0  0  0  0  0  0  0  0  0
    3.9740   67.7283   83.8869 C   0  0  0  0  0  0  0  0  0  0  0  0
    5.1602   65.3218   86.6203 C   0  0  0  0  0  0  0  0  0  0  0  0
    5.5725   64.1767   86.4354 O   0  0  0  0  0  0  0  0  0  0  0  0
    5.4125   65.9828   87.7976 N   0  0  0  0  0  0  0  0  0  0  0  0
    5.9910   65.2083   88.8296 O   0  0  0  0  0  0  0  0  0  0  0  0
    4.8812   66.8060   88.0707 H   0  0  0  0  0  0  0  0  0  0  0  0
    6.1223   64.3435   88.3822 H   0  0  0  0  0  0  0  0  0  0  0  0
    6.0621   67.6508   85.1493 O   0  0  0  0  0  0  0  0  0  0  0  0
    7.1646   67.1097   84.4245 C   0  0  0  0  0  0  0  0  0  0  0  0
    0.4640   64.2685   78.3782 O   0  0  0  0  0  0  0  0  0  0  0  0
   -0.2833   64.7105   77.2418 C   0  0  0  0  0  0  0  0  0  0  0  0
   -1.1209   63.5728   76.6862 C   0  0  0  0  0  0  0  0  0  0  0  0
 20 21  1  0  0  0
 21 19  1  0  0  0
 19  7  1  0  0  0
  7  8  2  0  0  0
  8  9  1  0  0  0
  9 10  1  0  0  0
  9 11  1  0  0  0
 11 12  1  0  0  0
 12 13  2  0  0  0
 12 14  1  0  0  0
 14 15  1  0  0  0
 15  1  1  0  0  0
  1  2  1  0  0  0
  2  3  2  0  0  0
  3 22  1  0  0  0
 22 23  1  0  0  0
 23 24  1  0  0  0
 24 25  2  0  0  0
 25 26  1  0  0  0
 26 29  1  0  0  0
 29 30  2  0  0  0
 29 31  1  0  0  0
 31 32  1  0  0  0
 26 27  2  0  0  0
 27 35  1  0  0  0
 35 36  1  0  0  0
 27 28  1  0  0  0
  3  4  1  0  0  0
  4  5  2  0  0  0
  5  6  1  0  0  0
  6 37  1  0  0  0
 37 38  1  0  0  0
 38 39  1  0  0  0
 15 16  2  0  0  0
 16 17  1  0  0  0
 17  7  1  0  0  0
 17 11  2  0  0  0
  6  1  2  0  0  0
 28 23  2  0  0  0
 14 18  1  0  0  0
 31 33  1  0  0  0
 32 34  1  0  0  0
M  END
> <minimizedAffinity>
-10.45144

$$$$



 39 42  0  0  0  0  0  0  0  0999 V2000
    1.0453   65.5258   82.9442 C   0  0  0  0  0  0  0  0  0  0  0  0
    0.8702   64.9130   81.6876 C   0  0  0  0  0  0  0  0  0  0  0  0
    1.1517   65.5865   80.4920 C   0  0  0  0  0  0  0  0  0  0  0  0
    1.6204   66.8985   80.5620 C   0  0  0  0  0  0  0  0  0  0  0  0
    1.8196   67.5172   81.8008 C   0  0  0  0  0  0  0  0  0  0  0  0
    1.5483   66.8429   82.9998 C   0  0  0  0  0  0  0  0  0  0  0  0
   -1.7520   62.3959   85.5794 C   0  0  0  0  0  0  0  0  0  0  0  0
   -1.6472   61.9519   86.8465 N   0  0  0  0  0  0  0  0  0  0  0  0
   -0.5233   62.5513   87.3143 N   0  0  0  0  0  0  0  0  0  0  0  0
   -0.0873   62.3082   88.6681 C   0  0  0  0  0  0  0  0  0  0  0  0
    0.0757   63.3520   86.3936 C   0  0  0  0  0  0  0  0  0  0  0  0
    1.2396   64.1555   86.4623 C   0  0  0  0  0  0  0  0  0  0  0  0
    1.9744   64.2728   87.4355 O   0  0  0  0  0  0  0  0  0  0  0  0
    1.4599   64.8148   85.2747 N   0  0  0  0  0  0  0  0  0  0  0  0
    0.6516   64.7066   84.1477 C   0  0  0  0  0  0  0  0  0  0  0  0
   -0.4165   63.9546   84.0928 N   0  0  0  0  0  0  0  0  0  0  0  0
   -0.6925   63.2649   85.2730 C   0  0  0  0  0  0  0  0  0  0  0  0
    2.2723   65.4176   85.2485 H   0  0  0  0  0  0  0  0  0  0  0  0
   -2.8754   61.9566   84.7046 C   0  0  0  0  0  0  0  0  0  0  0  0
   -3.2616   60.0794   83.0248 C   0  0  0  0  0  0  0  0  0  0  0  0
   -2.4212   61.2910   83.4029 C   0  0  0  0  0  0  0  0  0  0  0  0
    0.8978   64.9186   79.1603 C   0  0  0  0  0  0  0  0  0  0  0  0
   -0.0841   63.7712   79.2511 C   0  0  0  0  0  0  0  0  0  0  0  0
   -1.1064   63.7863   80.2023 C   0  0  0  0  0  0  0  0  0  0  0  0
   -1.9971   62.7162   80.2900 C   0  0  0  0  0  0  0  0  0  0  0  0
   -1.8789   61.6039   79.4380 C   0  0  0  0  0  0  0  0  0  0  0  0
   -0.8345   61.5638   78.4937 C   0  0  0  0  0  0  0  0  0  0  0  0
    0.0407   62.6573   78.4017 C   0  0  0  0  0  0  0  0  0  0  0  0
   -2.8941   60.5208   79.6234 C   0  0  0  0  0  0  0  0  0  0  0  0
   -4.0904   60.7825   79.7490 O   0  0  0  0  0  0  0  0  0  0  0  0
   -2.4468   59.2226   79.6574 N   0  0  0  0  0  0  0  0  0  0  0  0
   -3.4012   58.2496   80.0340 O   0  0  0  0  0  0  0  0  0  0  0  0
   -1.4658   59.0010   79.8103 H   0  0  0  0  0  0  0  0  0  0  0  0
   -4.2148   58.7923   80.1282 H   0  0  0  0  0  0  0  0  0  0  0  0
   -0.7273   60.4489   77.6995 O   0  0  0  0  0  0  0  0  0  0  0  0
   -0.1442   60.6133   76.4086 C   0  0  0  0  0  0  0  0  0  0  0  0
    1.7147   67.4113   84.2370 O   0  0  0  0  0  0  0  0  0  0  0  0
    2.8540   68.2397   84.4838 C   0  0  0  0  0  0  0  0  0  0  0  0
    4.0752   67.3850   84.7716 C   0  0  0  0  0  0  0  0  0  0  0  0
 20 21  1  0  0  0
 21 19  1  0  0  0
 19  7  1  0  0  0
  7  8  2  0  0  0
  8  9  1  0  0  0
  9 10  1  0  0  0
  9 11  1  0  0  0
 11 12  1  0  0  0
 12 13  2  0  0  0
 12 14  1  0  0  0
 14 15  1  0  0  0
 15  1  1  0  0  0
  1  2  1  0  0  0
  2  3  2  0  0  0
  3 22  1  0  0  0
 22 23  1  0  0  0
 23 24  1  0  0  0
 24 25  2  0  0  0
 25 26  1  0  0  0
 26 29  1  0  0  0
 29 30  2  0  0  0
 29 31  1  0  0  0
 31 32  1  0  0  0
 26 27  2  0  0  0
 27 35  1  0  0  0
 35 36  1  0  0  0
 27 28  1  0  0  0
  3  4  1  0  0  0
  4  5  2  0  0  0
  5  6  1  0  0  0
  6 37  1  0  0  0
 37 38  1  0  0  0
 38 39  1  0  0  0
 15 16  2  0  0  0
 16 17  1  0  0  0
 17  7  1  0  0  0
 17 11  2  0  0  0
  6  1  2  0  0  0
 28 23  2  0  0  0
 14 18  1  0  0  0
 31 33  1  0  0  0
 32 34  1  0  0  0
M  END
> <minimizedAffinity>
-10.21559

$$$$



 39 42  0  0  0  0  0  0  0  0999 V2000
    1.9380   66.4863   83.8101 C   0  0  0  0  0  0  0  0  0  0  0  0
    1.3574   67.0767   82.6701 C   0  0  0  0  0  0  0  0  0  0  0  0
    1.9486   68.1686   82.0218 C   0  0  0  0  0  0  0  0  0  0  0  0
    3.1466   68.6736   82.5276 C   0  0  0  0  0  0  0  0  0  0  0  0
    3.7487   68.0886   83.6466 C   0  0  0  0  0  0  0  0  0  0  0  0
    3.1650   66.9893   84.2922 C   0  0  0  0  0  0  0  0  0  0  0  0
   -0.7574   62.3278   83.8909 C   0  0  0  0  0  0  0  0  0  0  0  0
   -1.3153   61.6425   84.9073 N   0  0  0  0  0  0  0  0  0  0  0  0
   -0.9595   62.3441   86.0129 N   0  0  0  0  0  0  0  0  0  0  0  0
   -1.3889   61.9002   87.3170 C   0  0  0  0  0  0  0  0  0  0  0  0
   -0.2055   63.4389   85.7290 C   0  0  0  0  0  0  0  0  0  0  0  0
    0.3600   64.4326   86.5642 C   0  0  0  0  0  0  0  0  0  0  0  0
    0.2707   64.4800   87.7851 O   0  0  0  0  0  0  0  0  0  0  0  0
    1.0420   65.3732   85.8268 N   0  0  0  0  0  0  0  0  0  0  0  0
    1.1680   65.3536   84.4415 C   0  0  0  0  0  0  0  0  0  0  0  0
    0.6487   64.4258   83.6808 N   0  0  0  0  0  0  0  0  0  0  0  0
   -0.0603   63.4463   84.3754 C   0  0  0  0  0  0  0  0  0  0  0  0
    1.4689   66.1235   86.3548 H   0  0  0  0  0  0  0  0  0  0  0  0
   -0.9144   61.8701   82.4816 C   0  0  0  0  0  0  0  0  0  0  0  0
    0.5029   61.5826   80.3831 C   0  0  0  0  0  0  0  0  0  0  0  0
    0.3671   61.2958   81.8719 C   0  0  0  0  0  0  0  0  0  0  0  0
    1.2689   68.8133   80.8360 C   0  0  0  0  0  0  0  0  0  0  0  0
    1.0156   70.2922   81.0307 C   0  0  0  0  0  0  0  0  0  0  0  0
   -0.1718   70.7373   81.6156 C   0  0  0  0  0  0  0  0  0  0  0  0
   -0.4043   72.1034   81.7759 C   0  0  0  0  0  0  0  0  0  0  0  0
    0.5383   73.0538   81.3453 C   0  0  0  0  0  0  0  0  0  0  0  0
    1.7270   72.6184   80.7277 C   0  0  0  0  0  0  0  0  0  0  0  0
    1.9575   71.2404   80.5932 C   0  0  0  0  0  0  0  0  0  0  0  0
    0.1798   74.4881   81.5741 C   0  0  0  0  0  0  0  0  0  0  0  0
   -0.7136   75.0336   80.9263 O   0  0  0  0  0  0  0  0  0  0  0  0
    0.8866   75.1808   82.5267 N   0  0  0  0  0  0  0  0  0  0  0  0
    0.6592   76.5757   82.5722 O   0  0  0  0  0  0  0  0  0  0  0  0
    1.7751   74.8386   82.8844 H   0  0  0  0  0  0  0  0  0  0  0  0
   -0.0415   76.6873   81.8926 H   0  0  0  0  0  0  0  0  0  0  0  0
    2.6113   73.5727   80.2890 O   0  0  0  0  0  0  0  0  0  0  0  0
    3.8879   73.6286   80.9220 C   0  0  0  0  0  0  0  0  0  0  0  0
    3.7098   66.3905   85.3995 O   0  0  0  0  0  0  0  0  0  0  0  0
    4.8754   65.5742   85.2568 C   0  0  0  0  0  0  0  0  0  0  0  0
    5.2839   64.9983   86.6007 C   0  0  0  0  0  0  0  0  0  0  0  0
 20 21  1  0  0  0
 21 19  1  0  0  0
 19  7  1  0  0  0
  7  8  2  0  0  0
  8  9  1  0  0  0
  9 10  1  0  0  0
  9 11  1  0  0  0
 11 12  1  0  0  0
 12 13  2  0  0  0
 12 14  1  0  0  0
 14 15  1  0  0  0
 15  1  1  0  0  0
  1  2  1  0  0  0
  2  3  2  0  0  0
  3 22  1  0  0  0
 22 23  1  0  0  0
 23 24  1  0  0  0
 24 25  2  0  0  0
 25 26  1  0  0  0
 26 29  1  0  0  0
 29 30  2  0  0  0
 29 31  1  0  0  0
 31 32  1  0  0  0
 26 27  2  0  0  0
 27 35  1  0  0  0
 35 36  1  0  0  0
 27 28  1  0  0  0
  3  4  1  0  0  0
  4  5  2  0  0  0
  5  6  1  0  0  0
  6 37  1  0  0  0
 37 38  1  0  0  0
 38 39  1  0  0  0
 15 16  2  0  0  0
 16 17  1  0  0  0
 17  7  1  0  0  0
 17 11  2  0  0  0
  6  1  2  0  0  0
 28 23  2  0  0  0
 14 18  1  0  0  0
 31 33  1  0  0  0
 32 34  1  0  0  0
M  END
> <minimizedAffinity>
-10.12111

$$$$



 39 42  0  0  0  0  0  0  0  0999 V2000
    0.1872   64.3004   84.4946 C   0  0  0  0  0  0  0  0  0  0  0  0
   -0.6992   64.3492   83.4004 C   0  0  0  0  0  0  0  0  0  0  0  0
   -1.7927   63.4799   83.2966 C   0  0  0  0  0  0  0  0  0  0  0  0
   -1.9998   62.5471   84.3129 C   0  0  0  0  0  0  0  0  0  0  0  0
   -1.1422   62.4964   85.4170 C   0  0  0  0  0  0  0  0  0  0  0  0
   -0.0524   63.3715   85.5292 C   0  0  0  0  0  0  0  0  0  0  0  0
    2.6850   68.3468   83.0970 C   0  0  0  0  0  0  0  0  0  0  0  0
    3.9306   68.7724   83.3816 N   0  0  0  0  0  0  0  0  0  0  0  0
    4.4225   67.8202   84.2139 N   0  0  0  0  0  0  0  0  0  0  0  0
    5.7632   67.9405   84.7337 C   0  0  0  0  0  0  0  0  0  0  0  0
    3.5375   66.8179   84.4584 C   0  0  0  0  0  0  0  0  0  0  0  0
    3.6398   65.6453   85.2454 C   0  0  0  0  0  0  0  0  0  0  0  0
    4.6158   65.3051   85.9030 O   0  0  0  0  0  0  0  0  0  0  0  0
    2.4826   64.9031   85.1851 N   0  0  0  0  0  0  0  0  0  0  0  0
    1.3535   65.2557   84.4528 C   0  0  0  0  0  0  0  0  0  0  0  0
    1.2671   66.3458   83.7363 N   0  0  0  0  0  0  0  0  0  0  0  0
    2.4157   67.1364   83.7558 C   0  0  0  0  0  0  0  0  0  0  0  0
    2.4818   64.0426   85.7175 H   0  0  0  0  0  0  0  0  0  0  0  0
    1.7937   69.1334   82.1986 C   0  0  0  0  0  0  0  0  0  0  0  0
    0.0070   68.3228   80.5720 C   0  0  0  0  0  0  0  0  0  0  0  0
    1.4959   68.4433   80.8648 C   0  0  0  0  0  0  0  0  0  0  0  0
   -2.6898   63.5217   82.0811 C   0  0  0  0  0  0  0  0  0  0  0  0
   -2.2778   62.5388   81.0072 C   0  0  0  0  0  0  0  0  0  0  0  0
   -2.7450   61.2231   81.0331 C   0  0  0  0  0  0  0  0  0  0  0  0
   -2.3467   60.3189   80.0483 C   0  0  0  0  0  0  0  0  0  0  0  0
   -1.4648   60.7061   79.0238 C   0  0  0  0  0  0  0  0  0  0  0  0
   -0.9640   62.0225   79.0031 C   0  0  0  0  0  0  0  0  0  0  0  0
   -1.3907   62.9274   79.9874 C   0  0  0  0  0  0  0  0  0  0  0  0
   -1.1132   59.6511   78.0231 C   0  0  0  0  0  0  0  0  0  0  0  0
   -1.7559   58.6038   77.9477 O   0  0  0  0  0  0  0  0  0  0  0  0
   -0.0428   59.8852   77.1948 N   0  0  0  0  0  0  0  0  0  0  0  0
    0.3807   58.7896   76.4076 O   0  0  0  0  0  0  0  0  0  0  0  0
    0.6436   60.6066   77.4024 H   0  0  0  0  0  0  0  0  0  0  0  0
   -0.2884   58.1074   76.6362 H   0  0  0  0  0  0  0  0  0  0  0  0
   -0.0793   62.3589   78.0084 O   0  0  0  0  0  0  0  0  0  0  0  0
   -0.1000   63.7041   77.5357 C   0  0  0  0  0  0  0  0  0  0  0  0
    0.8232   63.3513   86.5849 O   0  0  0  0  0  0  0  0  0  0  0  0
    0.3847   63.7944   87.8719 C   0  0  0  0  0  0  0  0  0  0  0  0
    0.2078   62.6104   88.8055 C   0  0  0  0  0  0  0  0  0  0  0  0
 20 21  1  0  0  0
 21 19  1  0  0  0
 19  7  1  0  0  0
  7  8  2  0  0  0
  8  9  1  0  0  0
  9 10  1  0  0  0
  9 11  1  0  0  0
 11 12  1  0  0  0
 12 13  2  0  0  0
 12 14  1  0  0  0
 14 15  1  0  0  0
 15  1  1  0  0  0
  1  2  1  0  0  0
  2  3  2  0  0  0
  3 22  1  0  0  0
 22 23  1  0  0  0
 23 24  1  0  0  0
 24 25  2  0  0  0
 25 26  1  0  0  0
 26 29  1  0  0  0
 29 30  2  0  0  0
 29 31  1  0  0  0
 31 32  1  0  0  0
 26 27  2  0  0  0
 27 35  1  0  0  0
 35 36  1  0  0  0
 27 28  1  0  0  0
  3  4  1  0  0  0
  4  5  2  0  0  0
  5  6  1  0  0  0
  6 37  1  0  0  0
 37 38  1  0  0  0
 38 39  1  0  0  0
 15 16  2  0  0  0
 16 17  1  0  0  0
 17  7  1  0  0  0
 17 11  2  0  0  0
  6  1  2  0  0  0
 28 23  2  0  0  0
 14 18  1  0  0  0
 31 33  1  0  0  0
 32 34  1  0  0  0
M  END
> <minimizedAffinity>
-10.10294

$$$$



 39 42  0  0  0  0  0  0  0  0999 V2000
    2.0830   66.1165   84.2663 C   0  0  0  0  0  0  0  0  0  0  0  0
    1.6031   66.9662   83.2500 C   0  0  0  0  0  0  0  0  0  0  0  0
    2.3960   67.9825   82.7016 C   0  0  0  0  0  0  0  0  0  0  0  0
    3.6955   68.1447   83.1819 C   0  0  0  0  0  0  0  0  0  0  0  0
    4.1968   67.2983   84.1766 C   0  0  0  0  0  0  0  0  0  0  0  0
    3.4095   66.2737   84.7209 C   0  0  0  0  0  0  0  0  0  0  0  0
   -1.3833   62.5828   84.0156 C   0  0  0  0  0  0  0  0  0  0  0  0
   -2.0619   61.9250   84.9751 N   0  0  0  0  0  0  0  0  0  0  0  0
   -1.5693   62.4315   86.1336 N   0  0  0  0  0  0  0  0  0  0  0  0
   -2.0728   61.9558   87.3995 C   0  0  0  0  0  0  0  0  0  0  0  0
   -0.6143   63.3786   85.9373 C   0  0  0  0  0  0  0  0  0  0  0  0
    0.1405   64.1552   86.8494 C   0  0  0  0  0  0  0  0  0  0  0  0
    0.0675   64.0999   88.0711 O   0  0  0  0  0  0  0  0  0  0  0  0
    0.9925   65.0103   86.1888 N   0  0  0  0  0  0  0  0  0  0  0  0
    1.1063   65.1015   84.8053 C   0  0  0  0  0  0  0  0  0  0  0  0
    0.4101   64.3730   83.9724 N   0  0  0  0  0  0  0  0  0  0  0  0
   -0.4762   63.4893   84.5874 C   0  0  0  0  0  0  0  0  0  0  0  0
    1.5619   65.6066   86.7754 H   0  0  0  0  0  0  0  0  0  0  0  0
   -1.6338   62.3048   82.5732 C   0  0  0  0  0  0  0  0  0  0  0  0
    0.6201   61.4076   81.7923 C   0  0  0  0  0  0  0  0  0  0  0  0
   -0.8527   61.1053   82.0303 C   0  0  0  0  0  0  0  0  0  0  0  0
    1.8297   68.9123   81.6534 C   0  0  0  0  0  0  0  0  0  0  0  0
    2.3672   70.3225   81.7604 C   0  0  0  0  0  0  0  0  0  0  0  0
    1.9888   71.1470   82.8221 C   0  0  0  0  0  0  0  0  0  0  0  0
    2.4761   72.4516   82.9037 C   0  0  0  0  0  0  0  0  0  0  0  0
    3.3420   72.9640   81.9214 C   0  0  0  0  0  0  0  0  0  0  0  0
    3.7082   72.1518   80.8304 C   0  0  0  0  0  0  0  0  0  0  0  0
    3.2281   70.8341   80.7730 C   0  0  0  0  0  0  0  0  0  0  0  0
    3.8014   74.3740   82.1185 C   0  0  0  0  0  0  0  0  0  0  0  0
    2.9973   75.2858   82.3121 O   0  0  0  0  0  0  0  0  0  0  0  0
    5.1517   74.6207   82.0681 N   0  0  0  0  0  0  0  0  0  0  0  0
    5.5311   75.9828   82.0562 O   0  0  0  0  0  0  0  0  0  0  0  0
    5.8011   73.9494   81.6653 H   0  0  0  0  0  0  0  0  0  0  0  0
    4.6633   76.4339   82.1492 H   0  0  0  0  0  0  0  0  0  0  0  0
    4.5285   72.6933   79.8717 O   0  0  0  0  0  0  0  0  0  0  0  0
    5.7151   71.9760   79.5386 C   0  0  0  0  0  0  0  0  0  0  0  0
    3.8514   65.4279   85.7063 O   0  0  0  0  0  0  0  0  0  0  0  0
    5.2565   65.2705   85.9211 C   0  0  0  0  0  0  0  0  0  0  0  0
    5.5749   65.3434   87.4037 C   0  0  0  0  0  0  0  0  0  0  0  0
 20 21  1  0  0  0
 21 19  1  0  0  0
 19  7  1  0  0  0
  7  8  2  0  0  0
  8  9  1  0  0  0
  9 10  1  0  0  0
  9 11  1  0  0  0
 11 12  1  0  0  0
 12 13  2  0  0  0
 12 14  1  0  0  0
 14 15  1  0  0  0
 15  1  1  0  0  0
  1  2  1  0  0  0
  2  3  2  0  0  0
  3 22  1  0  0  0
 22 23  1  0  0  0
 23 24  1  0  0  0
 24 25  2  0  0  0
 25 26  1  0  0  0
 26 29  1  0  0  0
 29 30  2  0  0  0
 29 31  1  0  0  0
 31 32  1  0  0  0
 26 27  2  0  0  0
 27 35  1  0  0  0
 35 36  1  0  0  0
 27 28  1  0  0  0
  3  4  1  0  0  0
  4  5  2  0  0  0
  5  6  1  0  0  0
  6 37  1  0  0  0
 37 38  1  0  0  0
 38 39  1  0  0  0
 15 16  2  0  0  0
 16 17  1  0  0  0
 17  7  1  0  0  0
 17 11  2  0  0  0
  6  1  2  0  0  0
 28 23  2  0  0  0
 14 18  1  0  0  0
 31 33  1  0  0  0
 32 34  1  0  0  0
M  END
> <minimizedAffinity>
-10.05552

$$$$



 39 42  0  0  0  0  0  0  0  0999 V2000
   -0.3390   64.5383   81.1643 C   0  0  0  0  0  0  0  0  0  0  0  0
   -1.2134   64.0667   82.1635 C   0  0  0  0  0  0  0  0  0  0  0  0
   -1.7789   62.7864   82.1056 C   0  0  0  0  0  0  0  0  0  0  0  0
   -1.4568   61.9652   81.0250 C   0  0  0  0  0  0  0  0  0  0  0  0
   -0.5751   62.4080   80.0333 C   0  0  0  0  0  0  0  0  0  0  0  0
    0.0007   63.6851   80.0930 C   0  0  0  0  0  0  0  0  0  0  0  0
    2.2925   68.2258   83.1748 C   0  0  0  0  0  0  0  0  0  0  0  0
    2.3375   69.5443   82.9039 N   0  0  0  0  0  0  0  0  0  0  0  0
    1.4699   69.6989   81.8722 N   0  0  0  0  0  0  0  0  0  0  0  0
    1.2507   71.0076   81.3052 C   0  0  0  0  0  0  0  0  0  0  0  0
    0.8840   68.5335   81.4899 C   0  0  0  0  0  0  0  0  0  0  0  0
   -0.0694   68.2471   80.4830 C   0  0  0  0  0  0  0  0  0  0  0  0
   -0.5662   69.0601   79.7129 O   0  0  0  0  0  0  0  0  0  0  0  0
   -0.3893   66.9089   80.4667 N   0  0  0  0  0  0  0  0  0  0  0  0
    0.1535   65.9551   81.3217 C   0  0  0  0  0  0  0  0  0  0  0  0
    1.0400   66.2296   82.2425 N   0  0  0  0  0  0  0  0  0  0  0  0
    1.3991   67.5754   82.3086 C   0  0  0  0  0  0  0  0  0  0  0  0
   -1.0735   66.6268   79.7766 H   0  0  0  0  0  0  0  0  0  0  0  0
    3.1240   67.6390   84.2632 C   0  0  0  0  0  0  0  0  0  0  0  0
    5.5445   67.0408   84.7911 C   0  0  0  0  0  0  0  0  0  0  0  0
    4.5884   68.0843   84.2306 C   0  0  0  0  0  0  0  0  0  0  0  0
   -2.7577   62.3345   83.1646 C   0  0  0  0  0  0  0  0  0  0  0  0
   -2.2095   62.4591   84.5693 C   0  0  0  0  0  0  0  0  0  0  0  0
   -2.9671   62.0422   85.6658 C   0  0  0  0  0  0  0  0  0  0  0  0
   -2.4606   62.1764   86.9586 C   0  0  0  0  0  0  0  0  0  0  0  0
   -1.1923   62.7400   87.1847 C   0  0  0  0  0  0  0  0  0  0  0  0
   -0.4305   63.1907   86.0889 C   0  0  0  0  0  0  0  0  0  0  0  0
   -0.9433   63.0291   84.7924 C   0  0  0  0  0  0  0  0  0  0  0  0
   -0.7551   62.8278   88.6126 C   0  0  0  0  0  0  0  0  0  0  0  0
   -1.2290   63.6710   89.3742 O   0  0  0  0  0  0  0  0  0  0  0  0
    0.2002   61.9410   89.0457 N   0  0  0  0  0  0  0  0  0  0  0  0
    0.7306   62.1841   90.3337 O   0  0  0  0  0  0  0  0  0  0  0  0
    0.7782   61.4191   88.3914 H   0  0  0  0  0  0  0  0  0  0  0  0
    0.1961   62.9537   90.6291 H   0  0  0  0  0  0  0  0  0  0  0  0
    0.7892   63.7661   86.3463 O   0  0  0  0  0  0  0  0  0  0  0  0
    1.1322   64.9394   85.6120 C   0  0  0  0  0  0  0  0  0  0  0  0
    0.8591   64.1688   79.1388 O   0  0  0  0  0  0  0  0  0  0  0  0
    0.5692   63.9510   77.7554 C   0  0  0  0  0  0  0  0  0  0  0  0
   -0.6106   64.8029   77.3231 C   0  0  0  0  0  0  0  0  0  0  0  0
 20 21  1  0  0  0
 21 19  1  0  0  0
 19  7  1  0  0  0
  7  8  2  0  0  0
  8  9  1  0  0  0
  9 10  1  0  0  0
  9 11  1  0  0  0
 11 12  1  0  0  0
 12 13  2  0  0  0
 12 14  1  0  0  0
 14 15  1  0  0  0
 15  1  1  0  0  0
  1  2  1  0  0  0
  2  3  2  0  0  0
  3 22  1  0  0  0
 22 23  1  0  0  0
 23 24  1  0  0  0
 24 25  2  0  0  0
 25 26  1  0  0  0
 26 29  1  0  0  0
 29 30  2  0  0  0
 29 31  1  0  0  0
 31 32  1  0  0  0
 26 27  2  0  0  0
 27 35  1  0  0  0
 35 36  1  0  0  0
 27 28  1  0  0  0
  3  4  1  0  0  0
  4  5  2  0  0  0
  5  6  1  0  0  0
  6 37  1  0  0  0
 37 38  1  0  0  0
 38 39  1  0  0  0
 15 16  2  0  0  0
 16 17  1  0  0  0
 17  7  1  0  0  0
 17 11  2  0  0  0
  6  1  2  0  0  0
 28 23  2  0  0  0
 14 18  1  0  0  0
 31 33  1  0  0  0
 32 34  1  0  0  0
M  END
> <minimizedAffinity>
-9.96958

$$$$
