


 34 39  0  0  0  0  0  0  0  0999 V2000
   -2.4222   78.4261   81.0098 O   0  0  0  0  0  0  0  0  0  0  0  0
   -1.4332   77.9291   80.4704 C   0  0  0  0  0  0  0  0  0  0  0  0
   -0.0778   77.8187   81.2012 C   0  0  0  0  0  0  0  0  0  0  0  0
   -0.3695   77.7416   82.7190 C   0  0  0  0  0  0  0  0  0  0  0  0
    0.8998   77.5571   83.4582 C   0  0  0  0  0  0  0  0  0  0  0  0
    1.9866   76.9725   82.8490 C   0  0  0  0  0  0  0  0  0  0  0  0
    3.0120   76.9482   83.7582 N   0  0  0  0  0  0  0  0  0  0  0  0
    2.5961   77.5001   84.9507 C   0  0  0  0  0  0  0  0  0  0  0  0
    3.2933   77.6789   86.1513 C   0  0  0  0  0  0  0  0  0  0  0  0
    2.6096   78.2767   87.2145 C   0  0  0  0  0  0  0  0  0  0  0  0
    1.2823   78.6782   87.0802 C   0  0  0  0  0  0  0  0  0  0  0  0
    0.5984   78.4921   85.8732 C   0  0  0  0  0  0  0  0  0  0  0  0
    1.2651   77.8919   84.7879 C   0  0  0  0  0  0  0  0  0  0  0  0
    2.0805   76.4540   81.4445 C   0  0  0  0  0  0  0  0  0  0  0  0
    0.8172   76.7387   80.7110 N   0  0  0  0  0  0  0  0  0  0  0  0
    0.9050   76.6047   79.3203 C   0  0  0  0  0  0  0  0  0  0  0  0
    1.9206   76.2450   78.7280 O   0  0  0  0  0  0  0  0  0  0  0  0
   -0.4368   76.6853   78.6015 C   0  0  0  0  0  0  0  0  0  0  0  0
   -1.3853   77.6670   79.1066 N   0  0  0  0  0  0  0  0  0  0  0  0
    3.9350   76.5682   83.5932 H   0  0  0  0  0  0  0  0  0  0  0  0
    2.3931   74.9574   81.4538 C   0  0  0  0  0  0  0  0  0  0  0  0
    1.3711   74.0411   81.7868 C   0  0  0  0  0  0  0  0  0  0  0  0
    1.6096   72.6664   81.8213 C   0  0  0  0  0  0  0  0  0  0  0  0
    2.8777   72.1755   81.5338 C   0  0  0  0  0  0  0  0  0  0  0  0
    3.9087   73.0601   81.2225 C   0  0  0  0  0  0  0  0  0  0  0  0
    3.6740   74.4411   81.1888 C   0  0  0  0  0  0  0  0  0  0  0  0
    5.1744   75.5467   80.8123 Br  0  0  0  0  0  0  0  0  0  0  0  0
   -2.5762   77.9164   78.2972 C   0  0  0  0  0  0  0  0  0  0  0  0
   -3.3676   76.6667   77.9866 C   0  0  0  0  0  0  0  0  0  0  0  0
   -4.1510   76.0534   78.9761 C   0  0  0  0  0  0  0  0  0  0  0  0
   -4.8961   74.9099   78.6828 C   0  0  0  0  0  0  0  0  0  0  0  0
   -4.8671   74.3678   77.3996 C   0  0  0  0  0  0  0  0  0  0  0  0
   -4.0929   74.9672   76.4085 C   0  0  0  0  0  0  0  0  0  0  0  0
   -3.3474   76.1106   76.6995 C   0  0  0  0  0  0  0  0  0  0  0  0
  1  2  2  0  0  0
  2  3  1  0  0  0
  3  4  1  0  0  0
  4  5  1  0  0  0
  5  6  2  0  0  0
  6  7  1  0  0  0
  7  8  1  0  0  0
  8  9  2  0  0  0
  9 10  1  0  0  0
 10 11  2  0  0  0
 11 12  1  0  0  0
 12 13  2  0  0  0
  6 14  1  0  0  0
 14 21  1  0  0  0
 21 22  2  0  0  0
 22 23  1  0  0  0
 23 24  2  0  0  0
 24 25  1  0  0  0
 25 26  2  0  0  0
 26 27  1  0  0  0
 14 15  1  0  0  0
 15 16  1  0  0  0
 16 17  2  0  0  0
 16 18  1  0  0  0
 18 19  1  0  0  0
 19 28  1  0  0  0
 28 29  1  0  0  0
 29 30  2  0  0  0
 30 31  1  0  0  0
 31 32  2  0  0  0
 32 33  1  0  0  0
 33 34  2  0  0  0
 19  2  1  0  0  0
 34 29  1  0  0  0
 15  3  1  0  0  0
 13  5  1  0  0  0
 26 21  1  0  0  0
 13  8  1  0  0  0
  7 20  1  0  0  0
M  END
> <minimizedAffinity>
-0.99488

$$$$



 34 39  0  0  0  0  0  0  0  0999 V2000
    4.8219   71.5483   80.1587 O   0  0  0  0  0  0  0  0  0  0  0  0
    3.8488   72.0989   80.6745 C   0  0  0  0  0  0  0  0  0  0  0  0
    3.9836   73.4234   81.4562 C   0  0  0  0  0  0  0  0  0  0  0  0
    5.2086   74.1792   80.8881 C   0  0  0  0  0  0  0  0  0  0  0  0
    5.3326   75.4942   81.5567 C   0  0  0  0  0  0  0  0  0  0  0  0
    4.2289   76.1095   82.1020 C   0  0  0  0  0  0  0  0  0  0  0  0
    4.6427   77.2909   82.6605 N   0  0  0  0  0  0  0  0  0  0  0  0
    5.9987   77.4505   82.4719 C   0  0  0  0  0  0  0  0  0  0  0  0
    6.8446   78.4956   82.8613 C   0  0  0  0  0  0  0  0  0  0  0  0
    8.1991   78.3898   82.5309 C   0  0  0  0  0  0  0  0  0  0  0  0
    8.6856   77.2830   81.8387 C   0  0  0  0  0  0  0  0  0  0  0  0
    7.8269   76.2461   81.4556 C   0  0  0  0  0  0  0  0  0  0  0  0
    6.4584   76.3296   81.7764 C   0  0  0  0  0  0  0  0  0  0  0  0
    2.8149   75.6089   82.1172 C   0  0  0  0  0  0  0  0  0  0  0  0
    2.7498   74.2488   81.5165 N   0  0  0  0  0  0  0  0  0  0  0  0
    1.5627   73.5522   81.7726 C   0  0  0  0  0  0  0  0  0  0  0  0
    0.6176   74.0164   82.4072 O   0  0  0  0  0  0  0  0  0  0  0  0
    1.4169   72.2587   80.9794 C   0  0  0  0  0  0  0  0  0  0  0  0
    2.6225   71.4602   80.8131 N   0  0  0  0  0  0  0  0  0  0  0  0
    4.0461   77.9607   83.1283 H   0  0  0  0  0  0  0  0  0  0  0  0
    1.9004   76.5872   81.3795 C   0  0  0  0  0  0  0  0  0  0  0  0
    1.9536   76.6521   79.9695 C   0  0  0  0  0  0  0  0  0  0  0  0
    1.1481   77.5370   79.2512 C   0  0  0  0  0  0  0  0  0  0  0  0
    0.2777   78.3852   79.9254 C   0  0  0  0  0  0  0  0  0  0  0  0
    0.2211   78.3555   81.3177 C   0  0  0  0  0  0  0  0  0  0  0  0
    1.0296   77.4700   82.0427 C   0  0  0  0  0  0  0  0  0  0  0  0
    0.9060   77.5679   83.9376 Br  0  0  0  0  0  0  0  0  0  0  0  0
    2.4582   70.1184   80.2581 C   0  0  0  0  0  0  0  0  0  0  0  0
    2.3025   69.0447   81.3104 C   0  0  0  0  0  0  0  0  0  0  0  0
    1.5015   67.9184   81.0679 C   0  0  0  0  0  0  0  0  0  0  0  0
    1.3735   66.9183   82.0336 C   0  0  0  0  0  0  0  0  0  0  0  0
    2.0436   67.0323   83.2499 C   0  0  0  0  0  0  0  0  0  0  0  0
    2.8415   68.1460   83.5027 C   0  0  0  0  0  0  0  0  0  0  0  0
    2.9711   69.1468   82.5387 C   0  0  0  0  0  0  0  0  0  0  0  0
  1  2  2  0  0  0
  2  3  1  0  0  0
  3  4  1  0  0  0
  4  5  1  0  0  0
  5  6  2  0  0  0
  6  7  1  0  0  0
  7  8  1  0  0  0
  8  9  2  0  0  0
  9 10  1  0  0  0
 10 11  2  0  0  0
 11 12  1  0  0  0
 12 13  2  0  0  0
  6 14  1  0  0  0
 14 21  1  0  0  0
 21 22  2  0  0  0
 22 23  1  0  0  0
 23 24  2  0  0  0
 24 25  1  0  0  0
 25 26  2  0  0  0
 26 27  1  0  0  0
 14 15  1  0  0  0
 15 16  1  0  0  0
 16 17  2  0  0  0
 16 18  1  0  0  0
 18 19  1  0  0  0
 19 28  1  0  0  0
 28 29  1  0  0  0
 29 30  2  0  0  0
 30 31  1  0  0  0
 31 32  2  0  0  0
 32 33  1  0  0  0
 33 34  2  0  0  0
 19  2  1  0  0  0
 34 29  1  0  0  0
 15  3  1  0  0  0
 13  5  1  0  0  0
 26 21  1  0  0  0
 13  8  1  0  0  0
  7 20  1  0  0  0
M  END
> <minimizedAffinity>
-0.97707

$$$$



 34 39  0  0  0  0  0  0  0  0999 V2000
   -1.7395   75.1305   79.6631 O   0  0  0  0  0  0  0  0  0  0  0  0
   -0.8724   75.6944   80.3311 C   0  0  0  0  0  0  0  0  0  0  0  0
    0.1438   74.9011   81.1805 C   0  0  0  0  0  0  0  0  0  0  0  0
    0.3223   73.5128   80.5205 C   0  0  0  0  0  0  0  0  0  0  0  0
    1.3484   72.7422   81.2587 C   0  0  0  0  0  0  0  0  0  0  0  0
    2.3285   73.3891   81.9764 C   0  0  0  0  0  0  0  0  0  0  0  0
    3.1181   72.4330   82.5607 N   0  0  0  0  0  0  0  0  0  0  0  0
    2.6658   71.1767   82.2191 C   0  0  0  0  0  0  0  0  0  0  0  0
    3.1587   69.9154   82.5735 C   0  0  0  0  0  0  0  0  0  0  0  0
    2.4895   68.7944   82.0733 C   0  0  0  0  0  0  0  0  0  0  0  0
    1.3728   68.9315   81.2515 C   0  0  0  0  0  0  0  0  0  0  0  0
    0.8921   70.1997   80.9054 C   0  0  0  0  0  0  0  0  0  0  0  0
    1.5492   71.3442   81.3964 C   0  0  0  0  0  0  0  0  0  0  0  0
    2.5265   74.8681   82.1298 C   0  0  0  0  0  0  0  0  0  0  0  0
    1.4259   75.6025   81.4486 N   0  0  0  0  0  0  0  0  0  0  0  0
    1.3192   76.9537   81.7992 C   0  0  0  0  0  0  0  0  0  0  0  0
    2.0833   77.5239   82.5754 O   0  0  0  0  0  0  0  0  0  0  0  0
    0.3368   77.7433   80.9418 C   0  0  0  0  0  0  0  0  0  0  0  0
   -0.8961   77.0624   80.5742 N   0  0  0  0  0  0  0  0  0  0  0  0
    3.9252   72.6130   83.1434 H   0  0  0  0  0  0  0  0  0  0  0  0
    3.8928   75.2779   81.5793 C   0  0  0  0  0  0  0  0  0  0  0  0
    4.1514   75.1348   80.1982 C   0  0  0  0  0  0  0  0  0  0  0  0
    5.3865   75.4831   79.6495 C   0  0  0  0  0  0  0  0  0  0  0  0
    6.3959   75.9732   80.4696 C   0  0  0  0  0  0  0  0  0  0  0  0
    6.1731   76.1044   81.8392 C   0  0  0  0  0  0  0  0  0  0  0  0
    4.9352   75.7539   82.3943 C   0  0  0  0  0  0  0  0  0  0  0  0
    4.7756   75.9198   84.2817 Br  0  0  0  0  0  0  0  0  0  0  0  0
   -1.9410   77.8724   79.9517 C   0  0  0  0  0  0  0  0  0  0  0  0
   -3.1191   78.1401   80.8600 C   0  0  0  0  0  0  0  0  0  0  0  0
   -2.9227   78.4094   82.2230 C   0  0  0  0  0  0  0  0  0  0  0  0
   -4.0103   78.6749   83.0571 C   0  0  0  0  0  0  0  0  0  0  0  0
   -5.3038   78.6746   82.5390 C   0  0  0  0  0  0  0  0  0  0  0  0
   -5.5118   78.4082   81.1875 C   0  0  0  0  0  0  0  0  0  0  0  0
   -4.4259   78.1428   80.3519 C   0  0  0  0  0  0  0  0  0  0  0  0
  1  2  2  0  0  0
  2  3  1  0  0  0
  3  4  1  0  0  0
  4  5  1  0  0  0
  5  6  2  0  0  0
  6  7  1  0  0  0
  7  8  1  0  0  0
  8  9  2  0  0  0
  9 10  1  0  0  0
 10 11  2  0  0  0
 11 12  1  0  0  0
 12 13  2  0  0  0
  6 14  1  0  0  0
 14 21  1  0  0  0
 21 22  2  0  0  0
 22 23  1  0  0  0
 23 24  2  0  0  0
 24 25  1  0  0  0
 25 26  2  0  0  0
 26 27  1  0  0  0
 14 15  1  0  0  0
 15 16  1  0  0  0
 16 17  2  0  0  0
 16 18  1  0  0  0
 18 19  1  0  0  0
 19 28  1  0  0  0
 28 29  1  0  0  0
 29 30  2  0  0  0
 30 31  1  0  0  0
 31 32  2  0  0  0
 32 33  1  0  0  0
 33 34  2  0  0  0
 19  2  1  0  0  0
 34 29  1  0  0  0
 15  3  1  0  0  0
 13  5  1  0  0  0
 26 21  1  0  0  0
 13  8  1  0  0  0
  7 20  1  0  0  0
M  END
> <minimizedAffinity>
-0.97405

$$$$



 34 39  0  0  0  0  0  0  0  0999 V2000
    4.5339   70.8382   79.7808 O   0  0  0  0  0  0  0  0  0  0  0  0
    3.8054   71.5637   80.4584 C   0  0  0  0  0  0  0  0  0  0  0  0
    4.2468   72.9764   80.8979 C   0  0  0  0  0  0  0  0  0  0  0  0
    5.2583   73.4979   79.8493 C   0  0  0  0  0  0  0  0  0  0  0  0
    5.6525   74.8839   80.1885 C   0  0  0  0  0  0  0  0  0  0  0  0
    4.8132   75.6914   80.9217 C   0  0  0  0  0  0  0  0  0  0  0  0
    5.4398   76.8982   81.0939 N   0  0  0  0  0  0  0  0  0  0  0  0
    6.6691   76.8828   80.4707 C   0  0  0  0  0  0  0  0  0  0  0  0
    7.6436   77.8833   80.3776 C   0  0  0  0  0  0  0  0  0  0  0  0
    8.8133   77.5847   79.6723 C   0  0  0  0  0  0  0  0  0  0  0  0
    8.9986   76.3354   79.0842 C   0  0  0  0  0  0  0  0  0  0  0  0
    8.0144   75.3452   79.1855 C   0  0  0  0  0  0  0  0  0  0  0  0
    6.8273   75.6219   79.8904 C   0  0  0  0  0  0  0  0  0  0  0  0
    3.4572   75.3500   81.4649 C   0  0  0  0  0  0  0  0  0  0  0  0
    3.1383   73.9247   81.1794 N   0  0  0  0  0  0  0  0  0  0  0  0
    2.0652   73.4066   81.9142 C   0  0  0  0  0  0  0  0  0  0  0  0
    1.3973   74.0637   82.7102 O   0  0  0  0  0  0  0  0  0  0  0  0
    1.6111   72.0237   81.4615 C   0  0  0  0  0  0  0  0  0  0  0  0
    2.6602   71.0875   81.0849 N   0  0  0  0  0  0  0  0  0  0  0  0
    5.0576   77.6937   81.5885 H   0  0  0  0  0  0  0  0  0  0  0  0
    2.4012   76.2853   80.8750 C   0  0  0  0  0  0  0  0  0  0  0  0
    2.0300   76.1395   79.5200 C   0  0  0  0  0  0  0  0  0  0  0  0
    1.0802   76.9762   78.9320 C   0  0  0  0  0  0  0  0  0  0  0  0
    0.4863   77.9848   79.6813 C   0  0  0  0  0  0  0  0  0  0  0  0
    0.8503   78.1629   81.0148 C   0  0  0  0  0  0  0  0  0  0  0  0
    1.8050   77.3265   81.6084 C   0  0  0  0  0  0  0  0  0  0  0  0
    2.2614   77.7093   83.4141 Br  0  0  0  0  0  0  0  0  0  0  0  0
    2.2630   69.6978   80.8691 C   0  0  0  0  0  0  0  0  0  0  0  0
    2.5811   68.7909   82.0357 C   0  0  0  0  0  0  0  0  0  0  0  0
    2.0320   67.5016   82.1079 C   0  0  0  0  0  0  0  0  0  0  0  0
    2.3414   66.6581   83.1764 C   0  0  0  0  0  0  0  0  0  0  0  0
    3.2017   67.0929   84.1827 C   0  0  0  0  0  0  0  0  0  0  0  0
    3.7529   68.3710   84.1225 C   0  0  0  0  0  0  0  0  0  0  0  0
    3.4451   69.2157   83.0551 C   0  0  0  0  0  0  0  0  0  0  0  0
  1  2  2  0  0  0
  2  3  1  0  0  0
  3  4  1  0  0  0
  4  5  1  0  0  0
  5  6  2  0  0  0
  6  7  1  0  0  0
  7  8  1  0  0  0
  8  9  2  0  0  0
  9 10  1  0  0  0
 10 11  2  0  0  0
 11 12  1  0  0  0
 12 13  2  0  0  0
  6 14  1  0  0  0
 14 21  1  0  0  0
 21 22  2  0  0  0
 22 23  1  0  0  0
 23 24  2  0  0  0
 24 25  1  0  0  0
 25 26  2  0  0  0
 26 27  1  0  0  0
 14 15  1  0  0  0
 15 16  1  0  0  0
 16 17  2  0  0  0
 16 18  1  0  0  0
 18 19  1  0  0  0
 19 28  1  0  0  0
 28 29  1  0  0  0
 29 30  2  0  0  0
 30 31  1  0  0  0
 31 32  2  0  0  0
 32 33  1  0  0  0
 33 34  2  0  0  0
 19  2  1  0  0  0
 34 29  1  0  0  0
 15  3  1  0  0  0
 13  5  1  0  0  0
 26 21  1  0  0  0
 13  8  1  0  0  0
  7 20  1  0  0  0
M  END
> <minimizedAffinity>
-0.94031

$$$$



 34 39  0  0  0  0  0  0  0  0999 V2000
   -0.3083   71.2187   81.9791 O   0  0  0  0  0  0  0  0  0  0  0  0
    0.8507   71.4188   81.6147 C   0  0  0  0  0  0  0  0  0  0  0  0
    1.2484   72.6864   80.8281 C   0  0  0  0  0  0  0  0  0  0  0  0
    0.2535   73.8074   81.2134 C   0  0  0  0  0  0  0  0  0  0  0  0
    0.6425   75.0671   80.5401 C   0  0  0  0  0  0  0  0  0  0  0  0
    1.9485   75.2872   80.1661 C   0  0  0  0  0  0  0  0  0  0  0  0
    2.0079   76.5144   79.5585 N   0  0  0  0  0  0  0  0  0  0  0  0
    0.7573   77.0939   79.5463 C   0  0  0  0  0  0  0  0  0  0  0  0
    0.3442   78.3325   79.0417 C   0  0  0  0  0  0  0  0  0  0  0  0
   -1.0078   78.6653   79.1687 C   0  0  0  0  0  0  0  0  0  0  0  0
   -1.9085   77.7933   79.7764 C   0  0  0  0  0  0  0  0  0  0  0  0
   -1.4800   76.5582   80.2767 C   0  0  0  0  0  0  0  0  0  0  0  0
   -0.1230   76.2003   80.1611 C   0  0  0  0  0  0  0  0  0  0  0  0
    3.1225   74.3730   80.3568 C   0  0  0  0  0  0  0  0  0  0  0  0
    2.6739   73.0858   80.9539 N   0  0  0  0  0  0  0  0  0  0  0  0
    3.6074   72.0457   80.8719 C   0  0  0  0  0  0  0  0  0  0  0  0
    4.7299   72.1676   80.3856 O   0  0  0  0  0  0  0  0  0  0  0  0
    3.2282   70.8048   81.6718 C   0  0  0  0  0  0  0  0  0  0  0  0
    1.8227   70.4266   81.6549 N   0  0  0  0  0  0  0  0  0  0  0  0
    2.8437   76.9465   79.1868 H   0  0  0  0  0  0  0  0  0  0  0  0
    4.1830   75.0496   81.2257 C   0  0  0  0  0  0  0  0  0  0  0  0
    3.9024   75.3004   82.5871 C   0  0  0  0  0  0  0  0  0  0  0  0
    4.8326   75.9263   83.4183 C   0  0  0  0  0  0  0  0  0  0  0  0
    6.0614   76.3256   82.9062 C   0  0  0  0  0  0  0  0  0  0  0  0
    6.3549   76.1084   81.5611 C   0  0  0  0  0  0  0  0  0  0  0  0
    5.4230   75.4823   80.7228 C   0  0  0  0  0  0  0  0  0  0  0  0
    5.9160   75.2987   78.8956 Br  0  0  0  0  0  0  0  0  0  0  0  0
    1.4794   69.1241   82.2216 C   0  0  0  0  0  0  0  0  0  0  0  0
    1.1193   68.0889   81.1809 C   0  0  0  0  0  0  0  0  0  0  0  0
    2.1083   67.2664   80.6202 C   0  0  0  0  0  0  0  0  0  0  0  0
    1.7716   66.2979   79.6727 C   0  0  0  0  0  0  0  0  0  0  0  0
    0.4451   66.1406   79.2762 C   0  0  0  0  0  0  0  0  0  0  0  0
   -0.5459   66.9514   79.8253 C   0  0  0  0  0  0  0  0  0  0  0  0
   -0.2115   67.9200   80.7728 C   0  0  0  0  0  0  0  0  0  0  0  0
  1  2  2  0  0  0
  2  3  1  0  0  0
  3  4  1  0  0  0
  4  5  1  0  0  0
  5  6  2  0  0  0
  6  7  1  0  0  0
  7  8  1  0  0  0
  8  9  2  0  0  0
  9 10  1  0  0  0
 10 11  2  0  0  0
 11 12  1  0  0  0
 12 13  2  0  0  0
  6 14  1  0  0  0
 14 21  1  0  0  0
 21 22  2  0  0  0
 22 23  1  0  0  0
 23 24  2  0  0  0
 24 25  1  0  0  0
 25 26  2  0  0  0
 26 27  1  0  0  0
 14 15  1  0  0  0
 15 16  1  0  0  0
 16 17  2  0  0  0
 16 18  1  0  0  0
 18 19  1  0  0  0
 19 28  1  0  0  0
 28 29  1  0  0  0
 29 30  2  0  0  0
 30 31  1  0  0  0
 31 32  2  0  0  0
 32 33  1  0  0  0
 33 34  2  0  0  0
 19  2  1  0  0  0
 34 29  1  0  0  0
 15  3  1  0  0  0
 13  5  1  0  0  0
 26 21  1  0  0  0
 13  8  1  0  0  0
  7 20  1  0  0  0
M  END
> <minimizedAffinity>
-0.87995

$$$$



 34 39  0  0  0  0  0  0  0  0999 V2000
    0.5081   77.8338   76.7155 O   0  0  0  0  0  0  0  0  0  0  0  0
    0.3623   77.2504   77.7900 C   0  0  0  0  0  0  0  0  0  0  0  0
    1.4821   76.3812   78.4017 C   0  0  0  0  0  0  0  0  0  0  0  0
    2.8345   76.9318   77.8891 C   0  0  0  0  0  0  0  0  0  0  0  0
    3.9445   76.1756   78.5116 C   0  0  0  0  0  0  0  0  0  0  0  0
    3.7735   75.5542   79.7276 C   0  0  0  0  0  0  0  0  0  0  0  0
    4.9499   74.9263   80.0449 N   0  0  0  0  0  0  0  0  0  0  0  0
    5.8818   75.1449   79.0531 C   0  0  0  0  0  0  0  0  0  0  0  0
    7.2081   74.7087   78.9524 C   0  0  0  0  0  0  0  0  0  0  0  0
    7.9300   75.0874   77.8165 C   0  0  0  0  0  0  0  0  0  0  0  0
    7.3472   75.8712   76.8229 C   0  0  0  0  0  0  0  0  0  0  0  0
    6.0198   76.3001   76.9383 C   0  0  0  0  0  0  0  0  0  0  0  0
    5.2720   75.9321   78.0733 C   0  0  0  0  0  0  0  0  0  0  0  0
    2.5386   75.5309   80.5789 C   0  0  0  0  0  0  0  0  0  0  0  0
    1.4238   76.2243   79.8780 N   0  0  0  0  0  0  0  0  0  0  0  0
    0.1539   75.9818   80.4151 C   0  0  0  0  0  0  0  0  0  0  0  0
   -0.0499   75.2869   81.4086 O   0  0  0  0  0  0  0  0  0  0  0  0
   -0.9467   76.8600   79.8312 C   0  0  0  0  0  0  0  0  0  0  0  0
   -0.8790   77.1196   78.4006 N   0  0  0  0  0  0  0  0  0  0  0  0
    5.1234   74.3939   80.8874 H   0  0  0  0  0  0  0  0  0  0  0  0
    2.8227   76.1687   81.9391 C   0  0  0  0  0  0  0  0  0  0  0  0
    2.9868   77.5690   82.0238 C   0  0  0  0  0  0  0  0  0  0  0  0
    3.2596   78.1972   83.2399 C   0  0  0  0  0  0  0  0  0  0  0  0
    3.3850   77.4398   84.3985 C   0  0  0  0  0  0  0  0  0  0  0  0
    3.2481   76.0541   84.3383 C   0  0  0  0  0  0  0  0  0  0  0  0
    2.9763   75.4194   83.1191 C   0  0  0  0  0  0  0  0  0  0  0  0
    2.8734   73.5211   83.1565 Br  0  0  0  0  0  0  0  0  0  0  0  0
   -2.0390   77.7631   77.7875 C   0  0  0  0  0  0  0  0  0  0  0  0
   -3.2206   76.8371   77.6120 C   0  0  0  0  0  0  0  0  0  0  0  0
   -4.4918   77.2058   78.0778 C   0  0  0  0  0  0  0  0  0  0  0  0
   -5.5861   76.3577   77.8984 C   0  0  0  0  0  0  0  0  0  0  0  0
   -5.4224   75.1340   77.2523 C   0  0  0  0  0  0  0  0  0  0  0  0
   -4.1652   74.7564   76.7858 C   0  0  0  0  0  0  0  0  0  0  0  0
   -3.0700   75.6029   76.9638 C   0  0  0  0  0  0  0  0  0  0  0  0
  1  2  2  0  0  0
  2  3  1  0  0  0
  3  4  1  0  0  0
  4  5  1  0  0  0
  5  6  2  0  0  0
  6  7  1  0  0  0
  7  8  1  0  0  0
  8  9  2  0  0  0
  9 10  1  0  0  0
 10 11  2  0  0  0
 11 12  1  0  0  0
 12 13  2  0  0  0
  6 14  1  0  0  0
 14 21  1  0  0  0
 21 22  2  0  0  0
 22 23  1  0  0  0
 23 24  2  0  0  0
 24 25  1  0  0  0
 25 26  2  0  0  0
 26 27  1  0  0  0
 14 15  1  0  0  0
 15 16  1  0  0  0
 16 17  2  0  0  0
 16 18  1  0  0  0
 18 19  1  0  0  0
 19 28  1  0  0  0
 28 29  1  0  0  0
 29 30  2  0  0  0
 30 31  1  0  0  0
 31 32  2  0  0  0
 32 33  1  0  0  0
 33 34  2  0  0  0
 19  2  1  0  0  0
 34 29  1  0  0  0
 15  3  1  0  0  0
 13  5  1  0  0  0
 26 21  1  0  0  0
 13  8  1  0  0  0
  7 20  1  0  0  0
M  END
> <minimizedAffinity>
-0.84129

$$$$



 34 39  0  0  0  0  0  0  0  0999 V2000
    1.2199   76.1409   82.7862 O   0  0  0  0  0  0  0  0  0  0  0  0
    1.6172   76.1105   81.6211 C   0  0  0  0  0  0  0  0  0  0  0  0
    3.0236   76.6119   81.2283 C   0  0  0  0  0  0  0  0  0  0  0  0
    3.9413   76.4458   82.4632 C   0  0  0  0  0  0  0  0  0  0  0  0
    5.3229   76.8433   82.1101 C   0  0  0  0  0  0  0  0  0  0  0  0
    5.7601   76.7750   80.8069 C   0  0  0  0  0  0  0  0  0  0  0  0
    7.0580   77.2147   80.7782 N   0  0  0  0  0  0  0  0  0  0  0  0
    7.4672   77.5553   82.0495 C   0  0  0  0  0  0  0  0  0  0  0  0
    8.7008   78.0416   82.4979 C   0  0  0  0  0  0  0  0  0  0  0  0
    8.8352   78.3051   83.8645 C   0  0  0  0  0  0  0  0  0  0  0  0
    7.7774   78.0899   84.7452 C   0  0  0  0  0  0  0  0  0  0  0  0
    6.5498   77.6026   84.2816 C   0  0  0  0  0  0  0  0  0  0  0  0
    6.3899   77.3291   82.9096 C   0  0  0  0  0  0  0  0  0  0  0  0
    4.9873   76.3210   79.6040 C   0  0  0  0  0  0  0  0  0  0  0  0
    3.5818   76.0165   79.9868 N   0  0  0  0  0  0  0  0  0  0  0  0
    2.6929   75.9066   78.9108 C   0  0  0  0  0  0  0  0  0  0  0  0
    3.0259   76.0104   77.7320 O   0  0  0  0  0  0  0  0  0  0  0  0
    1.3131   75.3844   79.2945 C   0  0  0  0  0  0  0  0  0  0  0  0
    0.7630   75.8685   80.5522 N   0  0  0  0  0  0  0  0  0  0  0  0
    7.6423   77.2684   79.9541 H   0  0  0  0  0  0  0  0  0  0  0  0
    5.6658   75.1076   78.9675 C   0  0  0  0  0  0  0  0  0  0  0  0
    5.6059   73.8594   79.6257 C   0  0  0  0  0  0  0  0  0  0  0  0
    6.2195   72.7252   79.0917 C   0  0  0  0  0  0  0  0  0  0  0  0
    6.9162   72.8139   77.8923 C   0  0  0  0  0  0  0  0  0  0  0  0
    7.0078   74.0387   77.2334 C   0  0  0  0  0  0  0  0  0  0  0  0
    6.3949   75.1801   77.7672 C   0  0  0  0  0  0  0  0  0  0  0  0
    6.6437   76.8026   76.8076 Br  0  0  0  0  0  0  0  0  0  0  0  0
   -0.6397   75.5619   80.8244 C   0  0  0  0  0  0  0  0  0  0  0  0
   -1.5874   76.0828   79.7685 C   0  0  0  0  0  0  0  0  0  0  0  0
   -2.3770   75.1977   79.0188 C   0  0  0  0  0  0  0  0  0  0  0  0
   -3.2657   75.6813   78.0568 C   0  0  0  0  0  0  0  0  0  0  0  0
   -3.3752   77.0525   77.8341 C   0  0  0  0  0  0  0  0  0  0  0  0
   -2.5963   77.9414   78.5717 C   0  0  0  0  0  0  0  0  0  0  0  0
   -1.7075   77.4601   79.5340 C   0  0  0  0  0  0  0  0  0  0  0  0
  1  2  2  0  0  0
  2  3  1  0  0  0
  3  4  1  0  0  0
  4  5  1  0  0  0
  5  6  2  0  0  0
  6  7  1  0  0  0
  7  8  1  0  0  0
  8  9  2  0  0  0
  9 10  1  0  0  0
 10 11  2  0  0  0
 11 12  1  0  0  0
 12 13  2  0  0  0
  6 14  1  0  0  0
 14 21  1  0  0  0
 21 22  2  0  0  0
 22 23  1  0  0  0
 23 24  2  0  0  0
 24 25  1  0  0  0
 25 26  2  0  0  0
 26 27  1  0  0  0
 14 15  1  0  0  0
 15 16  1  0  0  0
 16 17  2  0  0  0
 16 18  1  0  0  0
 18 19  1  0  0  0
 19 28  1  0  0  0
 28 29  1  0  0  0
 29 30  2  0  0  0
 30 31  1  0  0  0
 31 32  2  0  0  0
 32 33  1  0  0  0
 33 34  2  0  0  0
 19  2  1  0  0  0
 34 29  1  0  0  0
 15  3  1  0  0  0
 13  5  1  0  0  0
 26 21  1  0  0  0
 13  8  1  0  0  0
  7 20  1  0  0  0
M  END
> <minimizedAffinity>
-0.83966

$$$$



 34 39  0  0  0  0  0  0  0  0999 V2000
    6.1360   75.6950   81.1025 O   0  0  0  0  0  0  0  0  0  0  0  0
    5.1430   76.3467   80.7779 C   0  0  0  0  0  0  0  0  0  0  0  0
    3.7688   75.6788   80.5566 C   0  0  0  0  0  0  0  0  0  0  0  0
    3.7223   74.4033   81.4317 C   0  0  0  0  0  0  0  0  0  0  0  0
    2.3903   73.7686   81.3109 C   0  0  0  0  0  0  0  0  0  0  0  0
    1.2853   74.5175   80.9761 C   0  0  0  0  0  0  0  0  0  0  0  0
    0.2079   73.6717   80.9231 N   0  0  0  0  0  0  0  0  0  0  0  0
    0.6028   72.3876   81.2310 C   0  0  0  0  0  0  0  0  0  0  0  0
   -0.1482   71.2088   81.3072 C   0  0  0  0  0  0  0  0  0  0  0  0
    0.5259   70.0320   81.6471 C   0  0  0  0  0  0  0  0  0  0  0  0
    1.8958   70.0363   81.9007 C   0  0  0  0  0  0  0  0  0  0  0  0
    2.6332   71.2234   81.8211 C   0  0  0  0  0  0  0  0  0  0  0  0
    1.9769   72.4218   81.4809 C   0  0  0  0  0  0  0  0  0  0  0  0
    1.2267   75.9904   80.6981 C   0  0  0  0  0  0  0  0  0  0  0  0
    2.5960   76.5718   80.7423 N   0  0  0  0  0  0  0  0  0  0  0  0
    2.7079   77.8491   80.1802 C   0  0  0  0  0  0  0  0  0  0  0  0
    1.7607   78.4797   79.7149 O   0  0  0  0  0  0  0  0  0  0  0  0
    4.0550   78.5200   80.4233 C   0  0  0  0  0  0  0  0  0  0  0  0
    5.2296   77.6640   80.3441 N   0  0  0  0  0  0  0  0  0  0  0  0
   -0.7425   73.9432   80.7079 H   0  0  0  0  0  0  0  0  0  0  0  0
    0.2972   76.6799   81.6972 C   0  0  0  0  0  0  0  0  0  0  0  0
    0.7445   76.8976   83.0191 C   0  0  0  0  0  0  0  0  0  0  0  0
   -0.0708   77.5115   83.9712 C   0  0  0  0  0  0  0  0  0  0  0  0
   -1.3561   77.9133   83.6275 C   0  0  0  0  0  0  0  0  0  0  0  0
   -1.8290   77.6912   82.3353 C   0  0  0  0  0  0  0  0  0  0  0  0
   -1.0144   77.0734   81.3772 C   0  0  0  0  0  0  0  0  0  0  0  0
   -1.7947   76.7708   79.6699 Br  0  0  0  0  0  0  0  0  0  0  0  0
    6.5331   78.3245   80.3475 C   0  0  0  0  0  0  0  0  0  0  0  0
    7.2976   78.1580   79.0543 C   0  0  0  0  0  0  0  0  0  0  0  0
    6.7913   78.6788   77.8537 C   0  0  0  0  0  0  0  0  0  0  0  0
    7.5074   78.5407   76.6632 C   0  0  0  0  0  0  0  0  0  0  0  0
    8.7354   77.8821   76.6595 C   0  0  0  0  0  0  0  0  0  0  0  0
    9.2484   77.3603   77.8450 C   0  0  0  0  0  0  0  0  0  0  0  0
    8.5344   77.4975   79.0362 C   0  0  0  0  0  0  0  0  0  0  0  0
  1  2  2  0  0  0
  2  3  1  0  0  0
  3  4  1  0  0  0
  4  5  1  0  0  0
  5  6  2  0  0  0
  6  7  1  0  0  0
  7  8  1  0  0  0
  8  9  2  0  0  0
  9 10  1  0  0  0
 10 11  2  0  0  0
 11 12  1  0  0  0
 12 13  2  0  0  0
  6 14  1  0  0  0
 14 21  1  0  0  0
 21 22  2  0  0  0
 22 23  1  0  0  0
 23 24  2  0  0  0
 24 25  1  0  0  0
 25 26  2  0  0  0
 26 27  1  0  0  0
 14 15  1  0  0  0
 15 16  1  0  0  0
 16 17  2  0  0  0
 16 18  1  0  0  0
 18 19  1  0  0  0
 19 28  1  0  0  0
 28 29  1  0  0  0
 29 30  2  0  0  0
 30 31  1  0  0  0
 31 32  2  0  0  0
 32 33  1  0  0  0
 33 34  2  0  0  0
 19  2  1  0  0  0
 34 29  1  0  0  0
 15  3  1  0  0  0
 13  5  1  0  0  0
 26 21  1  0  0  0
 13  8  1  0  0  0
  7 20  1  0  0  0
M  END
> <minimizedAffinity>
-0.79716

$$$$



 34 39  0  0  0  0  0  0  0  0999 V2000
   -1.4954   75.7868   80.5429 O   0  0  0  0  0  0  0  0  0  0  0  0
   -0.4178   76.2470   80.9212 C   0  0  0  0  0  0  0  0  0  0  0  0
    0.7024   75.3420   81.4776 C   0  0  0  0  0  0  0  0  0  0  0  0
    0.5316   73.9416   80.8416 C   0  0  0  0  0  0  0  0  0  0  0  0
    1.6323   73.0578   81.2878 C   0  0  0  0  0  0  0  0  0  0  0  0
    2.8408   73.5872   81.6792 C   0  0  0  0  0  0  0  0  0  0  0  0
    3.6521   72.5466   82.0505 N   0  0  0  0  0  0  0  0  0  0  0  0
    2.9849   71.3509   81.8924 C   0  0  0  0  0  0  0  0  0  0  0  0
    3.4147   70.0414   82.1369 C   0  0  0  0  0  0  0  0  0  0  0  0
    2.5110   69.0051   81.8829 C   0  0  0  0  0  0  0  0  0  0  0  0
    1.2301   69.2701   81.4034 C   0  0  0  0  0  0  0  0  0  0  0  0
    0.8151   70.5851   81.1633 C   0  0  0  0  0  0  0  0  0  0  0  0
    1.7072   71.6461   81.4110 C   0  0  0  0  0  0  0  0  0  0  0  0
    3.2372   75.0334   81.7206 C   0  0  0  0  0  0  0  0  0  0  0  0
    2.0776   75.8900   81.3512 N   0  0  0  0  0  0  0  0  0  0  0  0
    2.2252   77.2448   81.6715 C   0  0  0  0  0  0  0  0  0  0  0  0
    3.2360   77.7233   82.1822 O   0  0  0  0  0  0  0  0  0  0  0  0
    1.1345   78.1422   81.0981 C   0  0  0  0  0  0  0  0  0  0  0  0
   -0.2196   77.6087   81.1146 N   0  0  0  0  0  0  0  0  0  0  0  0
    4.6058   72.6323   82.3768 H   0  0  0  0  0  0  0  0  0  0  0  0
    4.4288   75.2811   80.7952 C   0  0  0  0  0  0  0  0  0  0  0  0
    4.2559   75.1559   79.3990 C   0  0  0  0  0  0  0  0  0  0  0  0
    5.3154   75.3597   78.5136 C   0  0  0  0  0  0  0  0  0  0  0  0
    6.5752   75.6835   79.0031 C   0  0  0  0  0  0  0  0  0  0  0  0
    6.7771   75.7927   80.3778 C   0  0  0  0  0  0  0  0  0  0  0  0
    5.7166   75.5869   81.2702 C   0  0  0  0  0  0  0  0  0  0  0  0
    6.1325   75.7033   83.1219 Br  0  0  0  0  0  0  0  0  0  0  0  0
   -1.3012   78.5339   80.7832 C   0  0  0  0  0  0  0  0  0  0  0  0
   -1.6414   78.5625   79.3108 C   0  0  0  0  0  0  0  0  0  0  0  0
   -0.6282   78.6713   78.3461 C   0  0  0  0  0  0  0  0  0  0  0  0
   -0.9423   78.6788   76.9858 C   0  0  0  0  0  0  0  0  0  0  0  0
   -2.2700   78.5774   76.5754 C   0  0  0  0  0  0  0  0  0  0  0  0
   -3.2850   78.4692   77.5236 C   0  0  0  0  0  0  0  0  0  0  0  0
   -2.9731   78.4613   78.8838 C   0  0  0  0  0  0  0  0  0  0  0  0
  1  2  2  0  0  0
  2  3  1  0  0  0
  3  4  1  0  0  0
  4  5  1  0  0  0
  5  6  2  0  0  0
  6  7  1  0  0  0
  7  8  1  0  0  0
  8  9  2  0  0  0
  9 10  1  0  0  0
 10 11  2  0  0  0
 11 12  1  0  0  0
 12 13  2  0  0  0
  6 14  1  0  0  0
 14 21  1  0  0  0
 21 22  2  0  0  0
 22 23  1  0  0  0
 23 24  2  0  0  0
 24 25  1  0  0  0
 25 26  2  0  0  0
 26 27  1  0  0  0
 14 15  1  0  0  0
 15 16  1  0  0  0
 16 17  2  0  0  0
 16 18  1  0  0  0
 18 19  1  0  0  0
 19 28  1  0  0  0
 28 29  1  0  0  0
 29 30  2  0  0  0
 30 31  1  0  0  0
 31 32  2  0  0  0
 32 33  1  0  0  0
 33 34  2  0  0  0
 19  2  1  0  0  0
 34 29  1  0  0  0
 15  3  1  0  0  0
 13  5  1  0  0  0
 26 21  1  0  0  0
 13  8  1  0  0  0
  7 20  1  0  0  0
M  END
> <minimizedAffinity>
-0.72694

$$$$
