


 30 34  0  0  0  0  0  0  0  0999 V2000
    2.0585   68.6198   81.4181 N   0  0  0  0  0  0  0  0  0  0  0  0
    1.6951   67.3795   80.9623 C   0  0  0  0  0  0  0  0  0  0  0  0
    1.2860   67.1088   79.8411 O   0  0  0  0  0  0  0  0  0  0  0  0
    1.8804   66.3707   82.0853 C   0  0  0  0  0  0  0  0  0  0  0  0
    0.5829   65.6241   82.4161 C   0  0  0  0  0  0  0  0  0  0  0  0
    0.6416   65.1348   83.8266 C   0  0  0  0  0  0  0  0  0  0  0  0
    1.5066   65.6926   84.7535 C   0  0  0  0  0  0  0  0  0  0  0  0
    1.3191   65.0455   85.9456 N   0  0  0  0  0  0  0  0  0  0  0  0
    0.3498   64.0750   85.8052 C   0  0  0  0  0  0  0  0  0  0  0  0
   -0.1617   63.1737   86.7463 C   0  0  0  0  0  0  0  0  0  0  0  0
   -1.1571   62.2882   86.3222 C   0  0  0  0  0  0  0  0  0  0  0  0
   -1.6214   62.3050   85.0090 C   0  0  0  0  0  0  0  0  0  0  0  0
   -1.0997   63.2112   84.0787 C   0  0  0  0  0  0  0  0  0  0  0  0
   -0.0949   64.1122   84.4809 C   0  0  0  0  0  0  0  0  0  0  0  0
    2.4799   66.8118   84.5284 C   0  0  0  0  0  0  0  0  0  0  0  0
    2.3130   67.2632   83.1545 N   0  0  0  0  0  0  0  0  0  0  0  0
    2.4133   68.5707   82.7385 C   0  0  0  0  0  0  0  0  0  0  0  0
    2.7319   69.5140   83.4455 O   0  0  0  0  0  0  0  0  0  0  0  0
    1.8230   65.2295   86.8028 H   0  0  0  0  0  0  0  0  0  0  0  0
    3.9324   66.4641   84.7563 C   0  0  0  0  0  0  0  0  0  0  0  0
    4.4285   65.2896   85.3027 C   0  0  0  0  0  0  0  0  0  0  0  0
    5.8520   65.2790   85.3920 C   0  0  0  0  0  0  0  0  0  0  0  0
    6.3841   66.4496   84.9188 C   0  0  0  0  0  0  0  0  0  0  0  0
    8.2595   66.8139   84.8769 Br  0  0  0  0  0  0  0  0  0  0  0  0
    5.2166   67.5484   84.3805 S   0  0  0  0  0  0  0  0  0  0  0  0
    1.9995   69.8312   80.6303 C   0  0  0  0  0  0  0  0  0  0  0  0
    0.6103   70.4787   80.5853 C   0  0  0  0  0  0  0  0  0  0  0  0
    0.3595   71.5279   81.6748 C   0  0  0  0  0  0  0  0  0  0  0  0
   -1.5299   72.3219   80.2085 C   0  0  0  0  0  0  0  0  0  0  0  0
   -1.0541   72.1126   81.6379 C   0  0  0  0  0  0  0  0  0  0  0  0
 29 30  1  0  0  0
 30 28  1  0  0  0
 28 27  1  0  0  0
 27 26  1  0  0  0
 26  1  1  0  0  0
  1  2  1  0  0  0
  2  3  2  0  0  0
  2  4  1  0  0  0
  4  5  1  0  0  0
  5  6  1  0  0  0
  6  7  2  0  0  0
  7  8  1  0  0  0
  8  9  1  0  0  0
  9 10  2  0  0  0
 10 11  1  0  0  0
 11 12  2  0  0  0
 12 13  1  0  0  0
 13 14  2  0  0  0
  7 15  1  0  0  0
 15 20  1  0  0  0
 20 21  2  0  0  0
 21 22  1  0  0  0
 22 23  2  0  0  0
 23 24  1  0  0  0
 23 25  1  0  0  0
 15 16  1  0  0  0
 16 17  1  0  0  0
 17 18  2  0  0  0
 17  1  1  0  0  0
 16  4  1  0  0  0
 14  6  1  0  0  0
 25 20  1  0  0  0
 14  9  1  0  0  0
  8 19  1  0  0  0
M  END
> <minimizedAffinity>
-10.56200

$$$$



 30 34  0  0  0  0  0  0  0  0999 V2000
    2.1937   68.7043   81.3279 N   0  0  0  0  0  0  0  0  0  0  0  0
    1.8310   67.4695   80.8568 C   0  0  0  0  0  0  0  0  0  0  0  0
    1.4476   67.2081   79.7244 O   0  0  0  0  0  0  0  0  0  0  0  0
    1.9795   66.4536   81.9788 C   0  0  0  0  0  0  0  0  0  0  0  0
    0.6678   65.7169   82.2734 C   0  0  0  0  0  0  0  0  0  0  0  0
    0.6872   65.2201   83.6823 C   0  0  0  0  0  0  0  0  0  0  0  0
    1.5336   65.7656   84.6334 C   0  0  0  0  0  0  0  0  0  0  0  0
    1.3108   65.1143   85.8170 N   0  0  0  0  0  0  0  0  0  0  0  0
    0.3370   64.1531   85.6476 C   0  0  0  0  0  0  0  0  0  0  0  0
   -0.2056   63.2516   86.5711 C   0  0  0  0  0  0  0  0  0  0  0  0
   -1.1978   62.3771   86.1177 C   0  0  0  0  0  0  0  0  0  0  0  0
   -1.6291   62.4044   84.7935 C   0  0  0  0  0  0  0  0  0  0  0  0
   -1.0765   63.3106   83.8812 C   0  0  0  0  0  0  0  0  0  0  0  0
   -0.0743   64.2008   84.3128 C   0  0  0  0  0  0  0  0  0  0  0  0
    2.5219   66.8773   84.4383 C   0  0  0  0  0  0  0  0  0  0  0  0
    2.3931   67.3370   83.0630 N   0  0  0  0  0  0  0  0  0  0  0  0
    2.5151   68.6456   82.6564 C   0  0  0  0  0  0  0  0  0  0  0  0
    2.8242   69.5825   83.3760 O   0  0  0  0  0  0  0  0  0  0  0  0
    1.7949   65.2896   86.6874 H   0  0  0  0  0  0  0  0  0  0  0  0
    3.9651   66.5157   84.7004 C   0  0  0  0  0  0  0  0  0  0  0  0
    4.4356   65.3458   85.2786 C   0  0  0  0  0  0  0  0  0  0  0  0
    5.8569   65.3189   85.3951 C   0  0  0  0  0  0  0  0  0  0  0  0
    6.4130   66.4733   84.9098 C   0  0  0  0  0  0  0  0  0  0  0  0
    8.2934   66.8129   84.8967 Br  0  0  0  0  0  0  0  0  0  0  0  0
    5.2702   67.5761   84.3285 S   0  0  0  0  0  0  0  0  0  0  0  0
    2.1649   69.9201   80.5451 C   0  0  0  0  0  0  0  0  0  0  0  0
    3.5450   70.3859   80.0658 C   0  0  0  0  0  0  0  0  0  0  0  0
    3.9794   71.7542   80.6042 C   0  0  0  0  0  0  0  0  0  0  0  0
    3.2693   73.0215   82.6632 C   0  0  0  0  0  0  0  0  0  0  0  0
    2.8473   72.5217   81.2901 C   0  0  0  0  0  0  0  0  0  0  0  0
 29 30  1  0  0  0
 30 28  1  0  0  0
 28 27  1  0  0  0
 27 26  1  0  0  0
 26  1  1  0  0  0
  1  2  1  0  0  0
  2  3  2  0  0  0
  2  4  1  0  0  0
  4  5  1  0  0  0
  5  6  1  0  0  0
  6  7  2  0  0  0
  7  8  1  0  0  0
  8  9  1  0  0  0
  9 10  2  0  0  0
 10 11  1  0  0  0
 11 12  2  0  0  0
 12 13  1  0  0  0
 13 14  2  0  0  0
  7 15  1  0  0  0
 15 20  1  0  0  0
 20 21  2  0  0  0
 21 22  1  0  0  0
 22 23  2  0  0  0
 23 24  1  0  0  0
 23 25  1  0  0  0
 15 16  1  0  0  0
 16 17  1  0  0  0
 17 18  2  0  0  0
 17  1  1  0  0  0
 16  4  1  0  0  0
 14  6  1  0  0  0
 25 20  1  0  0  0
 14  9  1  0  0  0
  8 19  1  0  0  0
M  END
> <minimizedAffinity>
-10.42285

$$$$



 30 34  0  0  0  0  0  0  0  0999 V2000
   -1.4699   62.8805   83.8696 N   0  0  0  0  0  0  0  0  0  0  0  0
   -0.1847   63.2176   84.2054 C   0  0  0  0  0  0  0  0  0  0  0  0
    0.3832   62.9571   85.2576 O   0  0  0  0  0  0  0  0  0  0  0  0
    0.4402   63.9812   83.0480 C   0  0  0  0  0  0  0  0  0  0  0  0
    0.9364   65.3696   83.4680 C   0  0  0  0  0  0  0  0  0  0  0  0
    0.9698   66.2639   82.2715 C   0  0  0  0  0  0  0  0  0  0  0  0
    0.2281   65.9852   81.1354 C   0  0  0  0  0  0  0  0  0  0  0  0
    0.4576   66.9848   80.2282 N   0  0  0  0  0  0  0  0  0  0  0  0
    1.3389   67.9043   80.7563 C   0  0  0  0  0  0  0  0  0  0  0  0
    1.8596   69.0755   80.1932 C   0  0  0  0  0  0  0  0  0  0  0  0
    2.7456   69.8297   80.9683 C   0  0  0  0  0  0  0  0  0  0  0  0
    3.0958   69.4274   82.2551 C   0  0  0  0  0  0  0  0  0  0  0  0
    2.5681   68.2532   82.8045 C   0  0  0  0  0  0  0  0  0  0  0  0
    1.6748   67.4751   82.0431 C   0  0  0  0  0  0  0  0  0  0  0  0
   -0.6810   64.8133   80.9095 C   0  0  0  0  0  0  0  0  0  0  0  0
   -0.6988   64.0338   82.1389 N   0  0  0  0  0  0  0  0  0  0  0  0
   -1.8009   63.3802   82.6398 C   0  0  0  0  0  0  0  0  0  0  0  0
   -2.8859   63.2991   82.0855 O   0  0  0  0  0  0  0  0  0  0  0  0
    0.0613   67.0416   79.2996 H   0  0  0  0  0  0  0  0  0  0  0  0
   -0.2996   63.9083   79.7615 C   0  0  0  0  0  0  0  0  0  0  0  0
    0.8767   63.9499   79.0275 C   0  0  0  0  0  0  0  0  0  0  0  0
    0.9231   62.9616   78.0002 C   0  0  0  0  0  0  0  0  0  0  0  0
   -0.2237   62.2118   77.9856 C   0  0  0  0  0  0  0  0  0  0  0  0
   -0.5375   60.7897   76.7484 Br  0  0  0  0  0  0  0  0  0  0  0  0
   -1.3422   62.6729   79.1674 S   0  0  0  0  0  0  0  0  0  0  0  0
   -2.3796   62.1604   84.7330 C   0  0  0  0  0  0  0  0  0  0  0  0
   -2.8196   62.9496   85.9720 C   0  0  0  0  0  0  0  0  0  0  0  0
   -2.3613   62.3501   87.3067 C   0  0  0  0  0  0  0  0  0  0  0  0
   -0.3330   62.5981   88.7812 C   0  0  0  0  0  0  0  0  0  0  0  0
   -1.5147   63.3119   88.1430 C   0  0  0  0  0  0  0  0  0  0  0  0
 29 30  1  0  0  0
 30 28  1  0  0  0
 28 27  1  0  0  0
 27 26  1  0  0  0
 26  1  1  0  0  0
  1  2  1  0  0  0
  2  3  2  0  0  0
  2  4  1  0  0  0
  4  5  1  0  0  0
  5  6  1  0  0  0
  6  7  2  0  0  0
  7  8  1  0  0  0
  8  9  1  0  0  0
  9 10  2  0  0  0
 10 11  1  0  0  0
 11 12  2  0  0  0
 12 13  1  0  0  0
 13 14  2  0  0  0
  7 15  1  0  0  0
 15 20  1  0  0  0
 20 21  2  0  0  0
 21 22  1  0  0  0
 22 23  2  0  0  0
 23 24  1  0  0  0
 23 25  1  0  0  0
 15 16  1  0  0  0
 16 17  1  0  0  0
 17 18  2  0  0  0
 17  1  1  0  0  0
 16  4  1  0  0  0
 14  6  1  0  0  0
 25 20  1  0  0  0
 14  9  1  0  0  0
  8 19  1  0  0  0
M  END
> <minimizedAffinity>
-9.91647

$$$$



 30 34  0  0  0  0  0  0  0  0999 V2000
   -0.1848   62.3693   79.4551 N   0  0  0  0  0  0  0  0  0  0  0  0
   -0.5849   63.6667   79.2686 C   0  0  0  0  0  0  0  0  0  0  0  0
   -1.0073   64.1542   78.2286 O   0  0  0  0  0  0  0  0  0  0  0  0
   -0.4196   64.4237   80.5773 C   0  0  0  0  0  0  0  0  0  0  0  0
    0.4947   65.6455   80.4306 C   0  0  0  0  0  0  0  0  0  0  0  0
    1.0921   65.9765   81.7595 C   0  0  0  0  0  0  0  0  0  0  0  0
    1.1570   65.0420   82.7798 C   0  0  0  0  0  0  0  0  0  0  0  0
    1.7622   65.6355   83.8551 N   0  0  0  0  0  0  0  0  0  0  0  0
    2.0867   66.9403   83.5498 C   0  0  0  0  0  0  0  0  0  0  0  0
    2.7074   67.9190   84.3352 C   0  0  0  0  0  0  0  0  0  0  0  0
    2.9181   69.1754   83.7594 C   0  0  0  0  0  0  0  0  0  0  0  0
    2.5233   69.4409   82.4502 C   0  0  0  0  0  0  0  0  0  0  0  0
    1.9028   68.4528   81.6772 C   0  0  0  0  0  0  0  0  0  0  0  0
    1.6778   67.1795   82.2350 C   0  0  0  0  0  0  0  0  0  0  0  0
    0.6705   63.6233   82.7438 C   0  0  0  0  0  0  0  0  0  0  0  0
    0.1626   63.3719   81.4029 N   0  0  0  0  0  0  0  0  0  0  0  0
    0.2854   62.1806   80.7259 C   0  0  0  0  0  0  0  0  0  0  0  0
    0.7636   61.1545   81.1837 O   0  0  0  0  0  0  0  0  0  0  0  0
    1.9339   65.1991   84.7510 H   0  0  0  0  0  0  0  0  0  0  0  0
   -0.4060   63.2811   83.7471 C   0  0  0  0  0  0  0  0  0  0  0  0
   -1.7113   62.9041   83.4675 C   0  0  0  0  0  0  0  0  0  0  0  0
   -2.4806   62.6597   84.6435 C   0  0  0  0  0  0  0  0  0  0  0  0
   -1.7339   62.8690   85.7731 C   0  0  0  0  0  0  0  0  0  0  0  0
   -2.4166   62.6467   87.5439 Br  0  0  0  0  0  0  0  0  0  0  0  0
   -0.1462   63.3526   85.4482 S   0  0  0  0  0  0  0  0  0  0  0  0
   -0.1864   61.3557   78.4234 C   0  0  0  0  0  0  0  0  0  0  0  0
   -1.4403   60.4730   78.4185 C   0  0  0  0  0  0  0  0  0  0  0  0
   -2.5007   60.8762   77.3871 C   0  0  0  0  0  0  0  0  0  0  0  0
   -3.8083   61.5857   79.4210 C   0  0  0  0  0  0  0  0  0  0  0  0
   -3.5507   61.8400   77.9438 C   0  0  0  0  0  0  0  0  0  0  0  0
 29 30  1  0  0  0
 30 28  1  0  0  0
 28 27  1  0  0  0
 27 26  1  0  0  0
 26  1  1  0  0  0
  1  2  1  0  0  0
  2  3  2  0  0  0
  2  4  1  0  0  0
  4  5  1  0  0  0
  5  6  1  0  0  0
  6  7  2  0  0  0
  7  8  1  0  0  0
  8  9  1  0  0  0
  9 10  2  0  0  0
 10 11  1  0  0  0
 11 12  2  0  0  0
 12 13  1  0  0  0
 13 14  2  0  0  0
  7 15  1  0  0  0
 15 20  1  0  0  0
 20 21  2  0  0  0
 21 22  1  0  0  0
 22 23  2  0  0  0
 23 24  1  0  0  0
 23 25  1  0  0  0
 15 16  1  0  0  0
 16 17  1  0  0  0
 17 18  2  0  0  0
 17  1  1  0  0  0
 16  4  1  0  0  0
 14  6  1  0  0  0
 25 20  1  0  0  0
 14  9  1  0  0  0
  8 19  1  0  0  0
M  END
> <minimizedAffinity>
-9.87522

$$$$



 30 34  0  0  0  0  0  0  0  0999 V2000
    3.6668   66.6411   84.5773 N   0  0  0  0  0  0  0  0  0  0  0  0
    4.2544   67.7663   84.0607 C   0  0  0  0  0  0  0  0  0  0  0  0
    5.3042   68.2735   84.4326 O   0  0  0  0  0  0  0  0  0  0  0  0
    3.3847   68.2998   82.9328 C   0  0  0  0  0  0  0  0  0  0  0  0
    2.9443   69.7483   83.1736 C   0  0  0  0  0  0  0  0  0  0  0  0
    1.6811   70.0112   82.4204 C   0  0  0  0  0  0  0  0  0  0  0  0
    0.8569   68.9797   82.0018 C   0  0  0  0  0  0  0  0  0  0  0  0
   -0.2158   69.5346   81.3565 N   0  0  0  0  0  0  0  0  0  0  0  0
   -0.0981   70.9083   81.3466 C   0  0  0  0  0  0  0  0  0  0  0  0
   -0.9470   71.8787   80.8009 C   0  0  0  0  0  0  0  0  0  0  0  0
   -0.5756   73.2191   80.9426 C   0  0  0  0  0  0  0  0  0  0  0  0
    0.5981   73.5733   81.6039 C   0  0  0  0  0  0  0  0  0  0  0  0
    1.4376   72.5920   82.1434 C   0  0  0  0  0  0  0  0  0  0  0  0
    1.0865   71.2345   82.0124 C   0  0  0  0  0  0  0  0  0  0  0  0
    1.0665   67.5088   82.2096 C   0  0  0  0  0  0  0  0  0  0  0  0
    2.2801   67.3499   82.9978 N   0  0  0  0  0  0  0  0  0  0  0  0
    2.4705   66.3885   83.9633 C   0  0  0  0  0  0  0  0  0  0  0  0
    1.6842   65.4944   84.2340 O   0  0  0  0  0  0  0  0  0  0  0  0
   -0.9771   69.0236   80.9301 H   0  0  0  0  0  0  0  0  0  0  0  0
    1.1908   66.6866   80.9483 C   0  0  0  0  0  0  0  0  0  0  0  0
    1.9994   66.9612   79.8552 C   0  0  0  0  0  0  0  0  0  0  0  0
    1.8765   65.9897   78.8181 C   0  0  0  0  0  0  0  0  0  0  0  0
    0.9721   65.0181   79.1578 C   0  0  0  0  0  0  0  0  0  0  0  0
    0.5321   63.5447   78.0234 Br  0  0  0  0  0  0  0  0  0  0  0  0
    0.2740   65.2535   80.6801 S   0  0  0  0  0  0  0  0  0  0  0  0
    4.2019   65.8695   85.6772 C   0  0  0  0  0  0  0  0  0  0  0  0
    5.4326   65.0315   85.3104 C   0  0  0  0  0  0  0  0  0  0  0  0
    6.7683   65.6187   85.7815 C   0  0  0  0  0  0  0  0  0  0  0  0
    8.6206   66.9954   84.7698 C   0  0  0  0  0  0  0  0  0  0  0  0
    7.8154   65.7090   84.6694 C   0  0  0  0  0  0  0  0  0  0  0  0
 29 30  1  0  0  0
 30 28  1  0  0  0
 28 27  1  0  0  0
 27 26  1  0  0  0
 26  1  1  0  0  0
  1  2  1  0  0  0
  2  3  2  0  0  0
  2  4  1  0  0  0
  4  5  1  0  0  0
  5  6  1  0  0  0
  6  7  2  0  0  0
  7  8  1  0  0  0
  8  9  1  0  0  0
  9 10  2  0  0  0
 10 11  1  0  0  0
 11 12  2  0  0  0
 12 13  1  0  0  0
 13 14  2  0  0  0
  7 15  1  0  0  0
 15 20  1  0  0  0
 20 21  2  0  0  0
 21 22  1  0  0  0
 22 23  2  0  0  0
 23 24  1  0  0  0
 23 25  1  0  0  0
 15 16  1  0  0  0
 16 17  1  0  0  0
 17 18  2  0  0  0
 17  1  1  0  0  0
 16  4  1  0  0  0
 14  6  1  0  0  0
 25 20  1  0  0  0
 14  9  1  0  0  0
  8 19  1  0  0  0
M  END
> <minimizedAffinity>
-9.67737

$$$$



 30 34  0  0  0  0  0  0  0  0999 V2000
    2.8845   66.1421   84.6052 N   0  0  0  0  0  0  0  0  0  0  0  0
    1.6669   65.5162   84.5421 C   0  0  0  0  0  0  0  0  0  0  0  0
    1.1844   64.7790   85.3914 O   0  0  0  0  0  0  0  0  0  0  0  0
    0.9939   65.8843   83.2289 C   0  0  0  0  0  0  0  0  0  0  0  0
    0.6478   64.6505   82.3873 C   0  0  0  0  0  0  0  0  0  0  0  0
    0.5680   65.0424   80.9477 C   0  0  0  0  0  0  0  0  0  0  0  0
    1.1738   66.1943   80.4738 C   0  0  0  0  0  0  0  0  0  0  0  0
    0.9351   66.2711   79.1277 N   0  0  0  0  0  0  0  0  0  0  0  0
    0.1813   65.1901   78.7224 C   0  0  0  0  0  0  0  0  0  0  0  0
   -0.3001   64.8569   77.4507 C   0  0  0  0  0  0  0  0  0  0  0  0
   -1.0475   63.6817   77.3275 C   0  0  0  0  0  0  0  0  0  0  0  0
   -1.3023   62.8732   78.4328 C   0  0  0  0  0  0  0  0  0  0  0  0
   -0.8153   63.2198   79.6984 C   0  0  0  0  0  0  0  0  0  0  0  0
   -0.0613   64.3995   79.8490 C   0  0  0  0  0  0  0  0  0  0  0  0
    1.9649   67.1948   81.2636 C   0  0  0  0  0  0  0  0  0  0  0  0
    2.0412   66.7055   82.6325 N   0  0  0  0  0  0  0  0  0  0  0  0
    3.1331   66.8445   83.4577 C   0  0  0  0  0  0  0  0  0  0  0  0
    4.1506   67.4618   83.1843 O   0  0  0  0  0  0  0  0  0  0  0  0
    1.2437   67.0140   78.5149 H   0  0  0  0  0  0  0  0  0  0  0  0
    1.4072   68.5988   81.2759 C   0  0  0  0  0  0  0  0  0  0  0  0
    0.0700   68.9611   81.2059 C   0  0  0  0  0  0  0  0  0  0  0  0
   -0.1224   70.3742   81.2295 C   0  0  0  0  0  0  0  0  0  0  0  0
    1.0763   71.0334   81.3072 C   0  0  0  0  0  0  0  0  0  0  0  0
    1.2308   72.9374   81.3570 Br  0  0  0  0  0  0  0  0  0  0  0  0
    2.4115   69.9961   81.3468 S   0  0  0  0  0  0  0  0  0  0  0  0
    3.8153   66.0133   85.7046 C   0  0  0  0  0  0  0  0  0  0  0  0
    5.0318   65.1338   85.3918 C   0  0  0  0  0  0  0  0  0  0  0  0
    6.3825   65.7567   85.7640 C   0  0  0  0  0  0  0  0  0  0  0  0
    8.4597   66.7831   84.7731 C   0  0  0  0  0  0  0  0  0  0  0  0
    7.4117   65.6896   84.6338 C   0  0  0  0  0  0  0  0  0  0  0  0
 29 30  1  0  0  0
 30 28  1  0  0  0
 28 27  1  0  0  0
 27 26  1  0  0  0
 26  1  1  0  0  0
  1  2  1  0  0  0
  2  3  2  0  0  0
  2  4  1  0  0  0
  4  5  1  0  0  0
  5  6  1  0  0  0
  6  7  2  0  0  0
  7  8  1  0  0  0
  8  9  1  0  0  0
  9 10  2  0  0  0
 10 11  1  0  0  0
 11 12  2  0  0  0
 12 13  1  0  0  0
 13 14  2  0  0  0
  7 15  1  0  0  0
 15 20  1  0  0  0
 20 21  2  0  0  0
 21 22  1  0  0  0
 22 23  2  0  0  0
 23 24  1  0  0  0
 23 25  1  0  0  0
 15 16  1  0  0  0
 16 17  1  0  0  0
 17 18  2  0  0  0
 17  1  1  0  0  0
 16  4  1  0  0  0
 14  6  1  0  0  0
 25 20  1  0  0  0
 14  9  1  0  0  0
  8 19  1  0  0  0
M  END
> <minimizedAffinity>
-9.36927

$$$$



 30 34  0  0  0  0  0  0  0  0999 V2000
   -1.0732   62.3514   84.7663 N   0  0  0  0  0  0  0  0  0  0  0  0
   -2.1632   62.0006   84.0134 C   0  0  0  0  0  0  0  0  0  0  0  0
   -3.1815   61.4564   84.4191 O   0  0  0  0  0  0  0  0  0  0  0  0
   -1.9088   62.3978   82.5675 C   0  0  0  0  0  0  0  0  0  0  0  0
   -2.0074   61.2041   81.6107 C   0  0  0  0  0  0  0  0  0  0  0  0
   -1.1996   61.4859   80.3859 C   0  0  0  0  0  0  0  0  0  0  0  0
   -0.1929   62.4373   80.3827 C   0  0  0  0  0  0  0  0  0  0  0  0
    0.3648   62.4546   79.1323 N   0  0  0  0  0  0  0  0  0  0  0  0
   -0.2665   61.5330   78.3242 C   0  0  0  0  0  0  0  0  0  0  0  0
   -0.0376   61.2097   76.9814 C   0  0  0  0  0  0  0  0  0  0  0  0
   -0.8386   60.2180   76.4073 C   0  0  0  0  0  0  0  0  0  0  0  0
   -1.8284   59.5760   77.1479 C   0  0  0  0  0  0  0  0  0  0  0  0
   -2.0465   59.9105   78.4893 C   0  0  0  0  0  0  0  0  0  0  0  0
   -1.2540   60.9075   79.0902 C   0  0  0  0  0  0  0  0  0  0  0  0
    0.2410   63.3037   81.5280 C   0  0  0  0  0  0  0  0  0  0  0  0
   -0.5532   62.9221   82.6869 N   0  0  0  0  0  0  0  0  0  0  0  0
   -0.0893   62.8881   83.9816 C   0  0  0  0  0  0  0  0  0  0  0  0
    1.0205   63.2466   84.3434 O   0  0  0  0  0  0  0  0  0  0  0  0
    1.1150   63.0610   78.8289 H   0  0  0  0  0  0  0  0  0  0  0  0
    0.0995   64.7914   81.3060 C   0  0  0  0  0  0  0  0  0  0  0  0
   -0.8777   65.4292   80.5560 C   0  0  0  0  0  0  0  0  0  0  0  0
   -0.7233   66.8470   80.5370 C   0  0  0  0  0  0  0  0  0  0  0  0
    0.3709   67.2332   81.2657 C   0  0  0  0  0  0  0  0  0  0  0  0
    0.9089   69.0549   81.4741 Br  0  0  0  0  0  0  0  0  0  0  0  0
    1.2073   65.9370   81.9590 S   0  0  0  0  0  0  0  0  0  0  0  0
   -0.9491   62.1139   86.1875 C   0  0  0  0  0  0  0  0  0  0  0  0
   -1.5627   63.2158   87.0597 C   0  0  0  0  0  0  0  0  0  0  0  0
   -0.5472   64.0215   87.8785 C   0  0  0  0  0  0  0  0  0  0  0  0
    0.3432   62.2438   89.4268 C   0  0  0  0  0  0  0  0  0  0  0  0
    0.6775   63.2048   88.2963 C   0  0  0  0  0  0  0  0  0  0  0  0
 29 30  1  0  0  0
 30 28  1  0  0  0
 28 27  1  0  0  0
 27 26  1  0  0  0
 26  1  1  0  0  0
  1  2  1  0  0  0
  2  3  2  0  0  0
  2  4  1  0  0  0
  4  5  1  0  0  0
  5  6  1  0  0  0
  6  7  2  0  0  0
  7  8  1  0  0  0
  8  9  1  0  0  0
  9 10  2  0  0  0
 10 11  1  0  0  0
 11 12  2  0  0  0
 12 13  1  0  0  0
 13 14  2  0  0  0
  7 15  1  0  0  0
 15 20  1  0  0  0
 20 21  2  0  0  0
 21 22  1  0  0  0
 22 23  2  0  0  0
 23 24  1  0  0  0
 23 25  1  0  0  0
 15 16  1  0  0  0
 16 17  1  0  0  0
 17 18  2  0  0  0
 17  1  1  0  0  0
 16  4  1  0  0  0
 14  6  1  0  0  0
 25 20  1  0  0  0
 14  9  1  0  0  0
  8 19  1  0  0  0
M  END
> <minimizedAffinity>
-9.23049

$$$$



 30 34  0  0  0  0  0  0  0  0999 V2000
    1.9189   65.2330   84.8657 N   0  0  0  0  0  0  0  0  0  0  0  0
    3.0208   66.0289   84.6910 C   0  0  0  0  0  0  0  0  0  0  0  0
    4.0165   66.0570   85.4018 O   0  0  0  0  0  0  0  0  0  0  0  0
    2.8126   66.8900   83.4548 C   0  0  0  0  0  0  0  0  0  0  0  0
    2.9115   68.3878   83.7662 C   0  0  0  0  0  0  0  0  0  0  0  0
    2.1420   69.1562   82.7416 C   0  0  0  0  0  0  0  0  0  0  0  0
    1.1557   68.5582   81.9746 C   0  0  0  0  0  0  0  0  0  0  0  0
    0.6314   69.5135   81.1455 N   0  0  0  0  0  0  0  0  0  0  0  0
    1.2644   70.7194   81.3598 C   0  0  0  0  0  0  0  0  0  0  0  0
    1.0641   71.9609   80.7444 C   0  0  0  0  0  0  0  0  0  0  0  0
    1.8591   73.0303   81.1675 C   0  0  0  0  0  0  0  0  0  0  0  0
    2.8156   72.8633   82.1663 C   0  0  0  0  0  0  0  0  0  0  0  0
    3.0054   71.6158   82.7717 C   0  0  0  0  0  0  0  0  0  0  0  0
    2.2183   70.5223   82.3619 C   0  0  0  0  0  0  0  0  0  0  0  0
    0.7100   67.1266   82.0244 C   0  0  0  0  0  0  0  0  0  0  0  0
    1.4655   66.4727   83.0832 N   0  0  0  0  0  0  0  0  0  0  0  0
    0.9672   65.5012   83.9200 C   0  0  0  0  0  0  0  0  0  0  0  0
   -0.1440   65.0015   83.8388 O   0  0  0  0  0  0  0  0  0  0  0  0
   -0.0978   69.3650   80.4608 H   0  0  0  0  0  0  0  0  0  0  0  0
    0.8882   66.3468   80.7427 C   0  0  0  0  0  0  0  0  0  0  0  0
    1.8718   66.5399   79.7838 C   0  0  0  0  0  0  0  0  0  0  0  0
    1.7550   65.6410   78.6826 C   0  0  0  0  0  0  0  0  0  0  0  0
    0.6815   64.8044   78.8411 C   0  0  0  0  0  0  0  0  0  0  0  0
    0.1952   63.4616   77.5715 Br  0  0  0  0  0  0  0  0  0  0  0  0
   -0.1797   65.0809   80.2701 S   0  0  0  0  0  0  0  0  0  0  0  0
    1.7527   64.2916   85.9510 C   0  0  0  0  0  0  0  0  0  0  0  0
    0.4488   64.4709   86.7377 C   0  0  0  0  0  0  0  0  0  0  0  0
   -0.2886   63.1652   87.0574 C   0  0  0  0  0  0  0  0  0  0  0  0
   -2.8016   62.9832   87.0947 C   0  0  0  0  0  0  0  0  0  0  0  0
   -1.5605   63.3748   87.8818 C   0  0  0  0  0  0  0  0  0  0  0  0
 29 30  1  0  0  0
 30 28  1  0  0  0
 28 27  1  0  0  0
 27 26  1  0  0  0
 26  1  1  0  0  0
  1  2  1  0  0  0
  2  3  2  0  0  0
  2  4  1  0  0  0
  4  5  1  0  0  0
  5  6  1  0  0  0
  6  7  2  0  0  0
  7  8  1  0  0  0
  8  9  1  0  0  0
  9 10  2  0  0  0
 10 11  1  0  0  0
 11 12  2  0  0  0
 12 13  1  0  0  0
 13 14  2  0  0  0
  7 15  1  0  0  0
 15 20  1  0  0  0
 20 21  2  0  0  0
 21 22  1  0  0  0
 22 23  2  0  0  0
 23 24  1  0  0  0
 23 25  1  0  0  0
 15 16  1  0  0  0
 16 17  1  0  0  0
 17 18  2  0  0  0
 17  1  1  0  0  0
 16  4  1  0  0  0
 14  6  1  0  0  0
 25 20  1  0  0  0
 14  9  1  0  0  0
  8 19  1  0  0  0
M  END
> <minimizedAffinity>
-8.91116

$$$$



 30 34  0  0  0  0  0  0  0  0999 V2000
   -1.0383   61.7984   80.6663 N   0  0  0  0  0  0  0  0  0  0  0  0
   -1.6495   63.0184   80.5396 C   0  0  0  0  0  0  0  0  0  0  0  0
   -2.4668   63.3363   79.6860 O   0  0  0  0  0  0  0  0  0  0  0  0
   -1.1462   63.9359   81.6433 C   0  0  0  0  0  0  0  0  0  0  0  0
   -0.5128   65.2176   81.0901 C   0  0  0  0  0  0  0  0  0  0  0  0
    0.4561   65.7599   82.0898 C   0  0  0  0  0  0  0  0  0  0  0  0
    0.9950   64.9622   83.0857 C   0  0  0  0  0  0  0  0  0  0  0  0
    1.8483   65.7350   83.8272 N   0  0  0  0  0  0  0  0  0  0  0  0
    1.8679   67.0210   83.3306 C   0  0  0  0  0  0  0  0  0  0  0  0
    2.5834   68.1420   83.7681 C   0  0  0  0  0  0  0  0  0  0  0  0
    2.4105   69.3374   83.0638 C   0  0  0  0  0  0  0  0  0  0  0  0
    1.5559   69.4072   81.9661 C   0  0  0  0  0  0  0  0  0  0  0  0
    0.8461   68.2783   81.5408 C   0  0  0  0  0  0  0  0  0  0  0  0
    1.0018   67.0628   82.2346 C   0  0  0  0  0  0  0  0  0  0  0  0
    0.7224   63.5074   83.3307 C   0  0  0  0  0  0  0  0  0  0  0  0
   -0.1784   63.0514   82.2819 N   0  0  0  0  0  0  0  0  0  0  0  0
   -0.1372   61.8076   81.6957 C   0  0  0  0  0  0  0  0  0  0  0  0
    0.6036   60.8952   82.0271 O   0  0  0  0  0  0  0  0  0  0  0  0
    2.3761   65.4256   84.6323 H   0  0  0  0  0  0  0  0  0  0  0  0
    0.1155   63.1785   84.6745 C   0  0  0  0  0  0  0  0  0  0  0  0
   -0.8732   62.2400   84.9311 C   0  0  0  0  0  0  0  0  0  0  0  0
   -1.2352   62.1803   86.3094 C   0  0  0  0  0  0  0  0  0  0  0  0
   -0.5148   63.0823   87.0476 C   0  0  0  0  0  0  0  0  0  0  0  0
   -0.7194   63.3026   88.9346 Br  0  0  0  0  0  0  0  0  0  0  0  0
    0.5716   63.9908   86.1231 S   0  0  0  0  0  0  0  0  0  0  0  0
   -1.2592   60.6762   79.7810 C   0  0  0  0  0  0  0  0  0  0  0  0
   -0.4390   60.7323   78.4867 C   0  0  0  0  0  0  0  0  0  0  0  0
   -1.2154   61.2251   77.2598 C   0  0  0  0  0  0  0  0  0  0  0  0
    0.4202   63.1152   77.5793 C   0  0  0  0  0  0  0  0  0  0  0  0
   -0.7198   62.5727   76.7311 C   0  0  0  0  0  0  0  0  0  0  0  0
 29 30  1  0  0  0
 30 28  1  0  0  0
 28 27  1  0  0  0
 27 26  1  0  0  0
 26  1  1  0  0  0
  1  2  1  0  0  0
  2  3  2  0  0  0
  2  4  1  0  0  0
  4  5  1  0  0  0
  5  6  1  0  0  0
  6  7  2  0  0  0
  7  8  1  0  0  0
  8  9  1  0  0  0
  9 10  2  0  0  0
 10 11  1  0  0  0
 11 12  2  0  0  0
 12 13  1  0  0  0
 13 14  2  0  0  0
  7 15  1  0  0  0
 15 20  1  0  0  0
 20 21  2  0  0  0
 21 22  1  0  0  0
 22 23  2  0  0  0
 23 24  1  0  0  0
 23 25  1  0  0  0
 15 16  1  0  0  0
 16 17  1  0  0  0
 17 18  2  0  0  0
 17  1  1  0  0  0
 16  4  1  0  0  0
 14  6  1  0  0  0
 25 20  1  0  0  0
 14  9  1  0  0  0
  8 19  1  0  0  0
M  END
> <minimizedAffinity>
-8.89349

$$$$
